AV-unprocessed.smi:313|AV-procd|sdf|2310|dock9
  -GOLD-   2262022213D 1   1.00000     0.00000
 Structure written by MMmdl.
 50 51  0  0  0  0  0  0  0  0  1 V2000
  151.7801  145.2490  160.7554 C   0  0  0  0  0  0  0  0  0  0  0  0
  150.8908  144.4207  159.8160 C   0  0  0  0  0  0  0  0  0  0  0  0
  151.4797  144.2223  158.4049 C   0  0  1  0  0  0  0  0  0  0  0  0
  152.7890  143.4223  158.4471 C   0  0  0  0  0  0  0  0  0  0  0  0
  150.5263  143.5311  157.5393 N   0  0  0  0  0  0  0  0  0  0  0  0
  150.3308  142.2043  157.4808 C   0  0  0  0  0  0  0  0  0  0  0  0
  150.9372  141.3959  158.1856 O   0  0  0  0  0  0  0  0  0  0  0  0
  149.2806  141.7224  156.4677 C   0  0  2  0  0  0  0  0  0  0  0  0
  147.8848  141.9798  157.0589 C   0  0  0  0  0  0  0  0  0  0  0  0
  149.4160  140.2861  156.2322 N   0  0  0  0  0  0  0  0  0  0  0  0
  150.4201  139.7026  155.5558 C   0  0  0  0  0  0  0  0  0  0  0  0
  151.3625  140.3264  155.0668 O   0  0  0  0  0  0  0  0  0  0  0  0
  150.3665  138.2043  155.4784 C   0  0  0  0  0  0  0  0  0  0  0  0
  149.3601  137.4615  156.1335 C   0  0  0  0  0  0  0  0  0  0  0  0
  149.3440  136.0603  155.9980 C   0  0  0  0  0  0  0  0  0  0  0  0
  150.3294  135.4309  155.2011 C   0  0  0  0  0  0  0  0  0  0  0  0
  150.3262  134.0277  155.0439 N   0  0  0  0  0  0  0  0  0  0  0  0
  149.2427  133.4294  154.2658 C   0  0  0  0  0  0  0  0  0  0  0  0
  149.5477  131.9518  153.9682 C   0  0  0  0  0  0  0  0  0  0  0  0
  149.7938  131.2594  155.1873 O   0  0  0  0  0  0  0  0  0  0  0  0
  150.9239  131.7854  155.8746 C   0  0  0  0  0  0  0  0  0  0  0  0
  150.6747  133.2597  156.2371 C   0  0  0  0  0  0  0  0  0  0  0  0
  151.2943  136.1468  154.5726 N   0  0  0  0  0  0  0  0  0  0  0  0
  151.3055  137.4902  154.7042 C   0  0  0  0  0  0  0  0  0  0  0  0
  151.3464  145.2971  161.7543 H   0  0  0  0  0  0  0  0  0  0  0  0
  151.8973  146.2730  160.4002 H   0  0  0  0  0  0  0  0  0  0  0  0
  152.7735  144.8092  160.8455 H   0  0  0  0  0  0  0  0  0  0  0  0
  150.7244  143.4440  160.2719 H   0  0  0  0  0  0  0  0  0  0  0  0
  149.9090  144.8906  159.7439 H   0  0  0  0  0  0  0  0  0  0  0  0
  151.7156  145.2053  157.9932 H   0  0  0  0  0  0  0  0  0  0  0  0
  153.5352  143.9235  159.0640 H   0  0  0  0  0  0  0  0  0  0  0  0
  153.2122  143.3085  157.4484 H   0  0  0  0  0  0  0  0  0  0  0  0
  152.6333  142.4246  158.8589 H   0  0  0  0  0  0  0  0  0  0  0  0
  149.9799  144.1111  156.9193 H   0  0  0  0  0  0  0  0  0  0  0  0
  149.3843  142.2642  155.5252 H   0  0  0  0  0  0  0  0  0  0  0  0
  147.7278  143.0412  157.2556 H   0  0  0  0  0  0  0  0  0  0  0  0
  147.7342  141.4416  157.9959 H   0  0  0  0  0  0  0  0  0  0  0  0
  147.1051  141.6601  156.3670 H   0  0  0  0  0  0  0  0  0  0  0  0
  148.7023  139.6917  156.6278 H   0  0  0  0  0  0  0  0  0  0  0  0
  148.6039  137.9479  156.7326 H   0  0  0  0  0  0  0  0  0  0  0  0
  148.5863  135.4878  156.5118 H   0  0  0  0  0  0  0  0  0  0  0  0
  148.3084  133.5121  154.8230 H   0  0  0  0  0  0  0  0  0  0  0  0
  149.1113  133.9673  153.3258 H   0  0  0  0  0  0  0  0  0  0  0  0
  148.7014  131.4884  153.4610 H   0  0  0  0  0  0  0  0  0  0  0  0
  150.4079  131.8579  153.3030 H   0  0  0  0  0  0  0  0  0  0  0  0
  151.0935  131.2007  156.7786 H   0  0  0  0  0  0  0  0  0  0  0  0
  151.8180  131.6830  155.2575 H   0  0  0  0  0  0  0  0  0  0  0  0
  151.5621  133.6565  156.7273 H   0  0  0  0  0  0  0  0  0  0  0  0
  149.8564  133.3337  156.9545 H   0  0  0  0  0  0  0  0  0  0  0  0
  152.0940  138.0047  154.1742 H   0  0  0  0  0  0  0  0  0  0  0  0
  1  2  1  0  0  0  0
  1 25  1  0  0  0  0
  1 26  1  0  0  0  0
  1 27  1  0  0  0  0
  2  3  1  0  0  0  0
  2 28  1  0  0  0  0
  2 29  1  0  0  0  0
  3  4  1  0  0  0  0
  3  5  1  0  0  0  0
  3 30  1  0  0  0  0
  4 31  1  0  0  0  0
  4 32  1  0  0  0  0
  4 33  1  0  0  0  0
  5  6  1  0  0  0  0
  5 34  1  0  0  0  0
  6  7  2  0  0  0  0
  6  8  1  0  0  0  0
  8  9  1  0  0  0  0
  8 10  1  0  0  0  0
  8 35  1  0  0  0  0
  9 36  1  0  0  0  0
  9 37  1  0  0  0  0
  9 38  1  0  0  0  0
 10 11  1  0  0  0  0
 10 39  1  0  0  0  0
 11 12  2  0  0  0  0
 11 13  1  0  0  0  0
 13 24  1  0  0  0  0
 13 14  2  0  0  0  0
 14 15  1  0  0  0  0
 14 40  1  0  0  0  0
 15 16  2  0  0  0  0
 15 41  1  0  0  0  0
 16 17  1  0  0  0  0
 16 23  1  0  0  0  0
 17 22  1  0  0  0  0
 17 18  1  0  0  0  0
 18 19  1  0  0  0  0
 18 42  1  0  0  0  0
 18 43  1  0  0  0  0
 19 20  1  0  0  0  0
 19 44  1  0  0  0  0
 19 45  1  0  0  0  0
 20 21  1  0  0  0  0
 21 22  1  0  0  0  0
 21 46  1  0  0  0  0
 21 47  1  0  0  0  0
 22 48  1  0  0  0  0
 22 49  1  0  0  0  0
 23 24  2  0  0  0  0
 24 50  1  0  0  0  0
M  END
> <s_m_source_file>
AV-unprocessed.smi

> <i_m_source_file_index>
313

> <i_lp_mmshare_version>
43012

> <i_f3d_flags>
0

> <s_epik_input>
W0NIM11bQ0gyXVtDQEhdKFtDSDNdKVtOSF1DKD1PKVtDQEhdKFtDSDNdKVtOSF1DKD1PKWMxW2NIXVtjSF1jKG5bY0hdMSlOMltDSDJdW0NIMl1PW0NIMl1bQ0gyXTI=

> <s_epik_cmdline>
J2VwaWtfcHl0aG9uJywgJy1waCcsICc3LjAnLCAnLXRuJywgJzgnLCAnLW1hJywgJzIwMCcsICctbWV0YWxfYmluZGluZycsICctaW1hZScsICc8aW5maWxlLm1hZT4nLCAnLW9tYWUnLCAnPG91dGZpbGUubWFlPic=

> <r_lp_tautomer_probability>
1

> <r_epik_Ionization_Penalty>
9.96442e-06

> <r_epik_Ionization_Penalty_Charging>
0

> <r_epik_Ionization_Penalty_Neutral>
9.96442e-06

> <r_epik_State_Penalty>
-0

> <r_epik_Charging_Adjusted_Penalty>
0

> <i_epik_Tot_Q>
0

> <i_epik_Tot_abs_Q>
0

> <r_epik_Metal_State_Penalty>
-0

> <b_epik_Metal_Only>
0

> <s_lp_Force_Field>
OPLS_2005

> <r_lp_Energy>
19.2481

> <b_lp_Chiralities_Consistent>
1

> <s_lp_Variant>
AV-unprocessed.smi:313-2

> <Gold.Version>
5.8.1

> <Gold.Id.Protein>
6NUR|6NUR_protein|mol2

> <Gold.PLP.Fitness>
44.7865

> <Gold.PLP.PLP>
-37.4791

> <Gold.PLP.part.hbond>
-3.0000

> <Gold.PLP.part.metal>
0.0000

> <Gold.PLP.part.buried>
-5.8336

> <Gold.PLP.part.nonpolar>
-29.2121

> <Gold.PLP.part.repulsive>
0.3311

> <Gold.PLP.ligand.clash>
0.0000

> <Gold.PLP.ligand.torsion>
1.0213

> <Gold.PLP.Chemscore.Hbond>
3.0000

> <Gold.PLP.Chemscore.CHOScore>
0.0000

> <Gold.PLP.Chemscore.Metal>
0.0000

> <Gold.Chemscore.Hbonds>
donor molecule, donor type, donor heavy atom, donor atom, acceptor molecule, acceptor atom, score
      L1  H     5    34       P1  8028  1.00
      P1  H  7989  7998       L1    12  1.00
      P1  H 10752 10764       L1    23  1.00

> <Gold.PLP.Chemscore.Internal.Correction>
0.3500

> <Gold.Rescore>
     Score         DG    S(hbond)    S(metal)    S(lipo)     H(rot)  DE(clash)    DE(int)     intcor
     18.12     -21.07       2.69        0.00      95.74       1.79       0.46       2.49       ----

> <Gold.Chemscore.Fitness>
18.1239

> <Gold.Chemscore.DG>
-21.0744

> <Gold.Chemscore.ZeroCoef>
-5.4800

> <Gold.Chemscore.Hbond>
2.6862

> <Gold.Chemscore.Metal>
0.0000

> <Gold.Chemscore.Lipo>
95.7433

> <Gold.Chemscore.Internal_Hbond>
0.0000

> <Gold.Chemscore.DEClash>
0.4581

> <Gold.Chemscore.DEInternal>
2.4925

> <Gold.Chemscore.Rot>
1.7888

> <Gold.Chemscore.Internal.Correction>
   9.000000E+99

> <Gold.Chemscore.Hbonds>
donor molecule, donor type, donor heavy atom, donor atom, acceptor molecule, acceptor atom, score
      L1  H     5    34       P1  8028  0.93
      P1  H  7989  7998       L1    12  0.95
      P1  H 10752 10764       L1    23  0.65

> <Gold.Chemscore.Hbond.Weighted>
-8.9718

> <Gold.Chemscore.Metal.Weighted>
-0.0000

> <Gold.Chemscore.Lipo.Weighted>
-11.2020

> <Gold.Chemscore.Internal_Hbond.Weighted>
0.0000

> <Gold.Chemscore.DEClash.Weighted>
0.4581

> <Gold.Chemscore.DEInternal.Weighted>
2.4925

> <Gold.Chemscore.Rot.Weighted>
4.5793

> <Gold.Chemscore.Internal.Correction.Weighted>
   9.000000E+99

> <Gold.Protein.RotatedTorsions>
[ 6907 6896 6895 6894 ] final  126.60 input  -60.11 | X-H torsion
[ 7974 7965 7964 7962 ] final  -95.51 input  175.53 | X-H torsion
[ 8008 7997 7996 7995 ] final  -53.69 input   59.86 | X-H torsion
[ 10167 10162 10161 10158 ] final  -19.80 input  -65.29 | X-H torsion
[ 10718 10713 10712 10709 ] final   78.74 input   66.30 | X-H torsion
[ 10763 10752 10751 10750 ] final  -69.71 input  -60.55 | X-H torsion
[ 11005 11000 10999 10996 ] final  -34.45 input  -57.11 | X-H torsion

> <Gold.Protein.ActiveResidues>
 VAL166  LYS551  ARG553  GLY616  TRP617  ASP618  TYR619  PRO620  LYS621  CYS622 
 ASP623  PHE694  ASN695  SER759  ASP760  ASP761  ALA762  ILE779  LEU786  VAL792 
 PHE793  MET794  SER795  GLU796  ALA797  LYS798  CYS799  TRP800  GLU811  SER814 

> <Gold.Protein.RotatedAtoms>
  152.3888  133.6650  159.6220 H   0  0  0  0  0  0  0  0  0  0  0  0  # atno 6907 bound_to 6896
  150.7801  133.8989  159.3344 H   0  0  0  0  0  0  0  0  0  0  0  0  # atno 6908 bound_to 6896
  151.6780  135.0967  160.0262 H   0  0  0  0  0  0  0  0  0  0  0  0  # atno 6909 bound_to 6896
  145.3591  140.9489  143.2511 H   0  0  0  0  0  0  0  0  0  0  0  0  # atno 7974 bound_to 7965
  154.4140  140.1194  156.5195 H   0  0  0  0  0  0  0  0  0  0  0  0  # atno 8008 bound_to 7997
  155.6717  140.3496  155.4801 H   0  0  0  0  0  0  0  0  0  0  0  0  # atno 8009 bound_to 7997
  155.9627  140.1126  157.0871 H   0  0  0  0  0  0  0  0  0  0  0  0  # atno 8010 bound_to 7997
  140.7271  143.4784  151.0151 H   0  0  0  0  0  0  0  0  0  0  0  0  # atno 10167 bound_to 10162
  157.6755  130.9882  150.1831 H   0  0  0  0  0  0  0  0  0  0  0  0  # atno 10718 bound_to 10713
  154.4074  135.6017  153.5932 H   0  0  0  0  0  0  0  0  0  0  0  0  # atno 10763 bound_to 10752
  152.9789  135.5921  154.4112 H   0  0  0  0  0  0  0  0  0  0  0  0  # atno 10764 bound_to 10752
  154.3919  135.2842  155.2128 H   0  0  0  0  0  0  0  0  0  0  0  0  # atno 10765 bound_to 10752
  140.9717  133.7105  156.1535 H   0  0  0  0  0  0  0  0  0  0  0  0  # atno 11005 bound_to 11000
  144.8660  139.5107  143.6790 LP  0  0  0  0  0  0  0  0  0  0  0  0  # atno 17320 bound_to 7965
  146.2935  139.7208  142.9144 LP  0  0  0  0  0  0  0  0  0  0  0  0  # atno 17321 bound_to 7965
  139.8481  143.7475  152.3179 LP  0  0  0  0  0  0  0  0  0  0  0  0  # atno 17342 bound_to 10162
  139.7647  144.7495  151.0312 LP  0  0  0  0  0  0  0  0  0  0  0  0  # atno 17343 bound_to 10162
  156.2559  130.3705  149.8182 LP  0  0  0  0  0  0  0  0  0  0  0  0  # atno 17370 bound_to 10713
  156.5942  130.8519  151.3415 LP  0  0  0  0  0  0  0  0  0  0  0  0  # atno 17371 bound_to 10713
  140.7318  134.4246  157.5565 LP  0  0  0  0  0  0  0  0  0  0  0  0  # atno 17394 bound_to 11000
  139.8915  134.8778  156.2317 LP  0  0  0  0  0  0  0  0  0  0  0  0  # atno 17395 bound_to 11000

$$$$
