AV-unprocessed.smi:198|AV-procd|sdf|1552|dock4
  -GOLD-   2262019423D 1   1.00000     0.00000
 Structure written by MMmdl.
 59 63  0  0  0  0  0  0  0  0  2 V2000
  146.4161  127.8403  153.6844 C   0  0  0  0  0  0  0  0  0  0  0  0
  146.0591  129.2577  153.4610 N   0  3  1  0  0  0  0  0  0  0  0  0
  146.7426  130.1697  154.4100 C   0  0  0  0  0  0  0  0  0  0  0  0
  146.2666  131.6199  154.2265 C   0  0  0  0  0  0  0  0  0  0  0  0
  146.4850  132.0990  152.7715 C   0  0  1  0  0  0  0  0  0  0  0  0
  145.7507  131.1138  151.8294 C   0  0  1  0  0  0  0  0  0  0  0  0
  145.8897  131.5518  150.3625 C   0  0  0  0  0  0  0  0  0  0  0  0
  145.3715  132.9855  150.1965 C   0  0  0  0  0  0  0  0  0  0  0  0
  146.1022  133.9384  151.1530 C   0  0  0  0  0  0  0  0  0  0  0  0
  146.0195  133.4757  152.5388 N   0  0  0  0  0  0  0  0  0  0  0  0
  146.4845  134.4353  153.3741 C   0  0  0  0  0  0  0  0  0  0  0  0
  147.3291  134.1113  154.3891 N   0  0  0  0  0  0  0  0  0  0  0  0
  147.7909  135.0654  155.2030 C   0  0  0  0  0  0  0  0  0  0  0  0
  147.5444  136.3768  155.1752 N   0  0  0  0  0  0  0  0  0  0  0  0
  146.7087  136.7073  154.1481 C   0  0  0  0  0  0  0  0  0  0  0  0
  146.1417  135.8029  153.2073 C   0  0  0  0  0  0  0  0  0  0  0  0
  145.3421  136.4894  152.3038 N   0  0  0  0  0  0  0  0  0  0  0  0
  145.4283  137.7332  152.6898 C   0  0  0  0  0  0  0  0  0  0  0  0
  146.2271  137.9569  153.7901 N   0  0  0  0  0  0  0  0  0  0  0  0
  146.4780  139.2258  154.4148 C   0  0  0  0  0  0  0  0  0  0  0  0
  146.6715  140.5029  153.5941 C   0  0  0  0  0  0  0  0  0  0  0  0
  147.6526  141.0315  154.6668 C   0  0  0  0  0  0  0  0  0  0  0  0
  148.8957  141.7373  154.0975 C   0  0  0  0  0  0  0  0  0  0  0  0
  149.8575  142.0061  155.0969 O   0  0  0  0  0  0  0  0  0  0  0  0
  146.9866  141.9408  155.7215 C   0  0  0  0  0  0  0  0  0  0  0  0
  147.8568  142.2503  156.7907 O   0  0  0  0  0  0  0  0  0  0  0  0
  147.8309  139.5439  155.0515 C   0  0  0  0  0  0  0  0  0  0  0  0
  146.2532  129.6750  152.0508 C   0  0  0  0  0  0  0  0  0  0  0  0
  147.4781  127.6704  153.5026 H   0  0  0  0  0  0  0  0  0  0  0  0
  145.8466  127.1899  153.0196 H   0  0  0  0  0  0  0  0  0  0  0  0
  146.1921  127.5441  154.7096 H   0  0  0  0  0  0  0  0  0  0  0  0
  146.5421  129.8481  155.4327 H   0  0  0  0  0  0  0  0  0  0  0  0
  147.8224  130.1084  154.2638 H   0  0  0  0  0  0  0  0  0  0  0  0
  145.2099  131.6952  154.4872 H   0  0  0  0  0  0  0  0  0  0  0  0
  146.8017  132.2502  154.9363 H   0  0  0  0  0  0  0  0  0  0  0  0
  147.5522  132.0627  152.5451 H   0  0  0  0  0  0  0  0  0  0  0  0
  144.6874  131.1347  152.0758 H   0  0  0  0  0  0  0  0  0  0  0  0
  146.9339  131.4975  150.0518 H   0  0  0  0  0  0  0  0  0  0  0  0
  145.3320  130.8787  149.7106 H   0  0  0  0  0  0  0  0  0  0  0  0
  145.5039  133.3161  149.1661 H   0  0  0  0  0  0  0  0  0  0  0  0
  144.2998  133.0158  150.3977 H   0  0  0  0  0  0  0  0  0  0  0  0
  147.1515  134.0176  150.8641 H   0  0  0  0  0  0  0  0  0  0  0  0
  145.6733  134.9376  151.0625 H   0  0  0  0  0  0  0  0  0  0  0  0
  148.4519  134.7311  155.9891 H   0  0  0  0  0  0  0  0  0  0  0  0
  144.9041  138.5271  152.1776 H   0  0  0  0  0  0  0  0  0  0  0  0
  145.6822  139.3726  155.1473 H   0  0  0  0  0  0  0  0  0  0  0  0
  147.1475  140.3213  152.6295 H   0  0  0  0  0  0  0  0  0  0  0  0
  145.7653  141.0962  153.4688 H   0  0  0  0  0  0  0  0  0  0  0  0
  149.3799  141.1167  153.3427 H   0  0  0  0  0  0  0  0  0  0  0  0
  148.6293  142.6708  153.6010 H   0  0  0  0  0  0  0  0  0  0  0  0
  149.6554  142.8394  155.4939 H   0  0  0  0  0  0  0  0  0  0  0  0
  146.6388  142.8723  155.2738 H   0  0  0  0  0  0  0  0  0  0  0  0
  146.1036  141.4650  156.1488 H   0  0  0  0  0  0  0  0  0  0  0  0
  148.4233  142.9576  156.5233 H   0  0  0  0  0  0  0  0  0  0  0  0
  147.8808  139.3459  156.1224 H   0  0  0  0  0  0  0  0  0  0  0  0
  148.6668  139.0721  154.5328 H   0  0  0  0  0  0  0  0  0  0  0  0
  147.3087  129.5945  151.7849 H   0  0  0  0  0  0  0  0  0  0  0  0
  145.7078  128.9926  151.3974 H   0  0  0  0  0  0  0  0  0  0  0  0
  145.0698  129.3371  153.6495 H   0  0  0  0  0  0  0  0  0  0  0  0
  1  2  1  0  0  0  0
  1 29  1  0  0  0  0
  1 30  1  0  0  0  0
  1 31  1  0  0  0  0
  2 28  1  0  0  0  0
  2  3  1  0  0  0  0
  2 59  1  0  0  0  0
  3  4  1  0  0  0  0
  3 32  1  0  0  0  0
  3 33  1  0  0  0  0
  4  5  1  0  0  0  0
  4 34  1  0  0  0  0
  4 35  1  0  0  0  0
  5 10  1  0  0  0  0
  5  6  1  0  0  0  0
  5 36  1  0  0  0  0
  6  7  1  0  0  0  0
  6 28  1  0  0  0  0
  6 37  1  0  0  0  0
  7  8  1  0  0  0  0
  7 38  1  0  0  0  0
  7 39  1  0  0  0  0
  8  9  1  0  0  0  0
  8 40  1  0  0  0  0
  8 41  1  0  0  0  0
  9 10  1  0  0  0  0
  9 42  1  0  0  0  0
  9 43  1  0  0  0  0
 10 11  1  0  0  0  0
 11 16  1  0  0  0  0
 11 12  2  0  0  0  0
 12 13  1  0  0  0  0
 13 14  2  0  0  0  0
 13 44  1  0  0  0  0
 14 15  1  0  0  0  0
 15 19  1  0  0  0  0
 15 16  2  0  0  0  0
 16 17  1  0  0  0  0
 17 18  2  0  0  0  0
 18 19  1  0  0  0  0
 18 45  1  0  0  0  0
 19 20  1  0  0  0  0
 20 27  1  0  0  0  0
 20 21  1  0  0  0  0
 20 46  1  0  0  0  0
 21 22  1  0  0  0  0
 21 47  1  0  0  0  0
 21 48  1  0  0  0  0
 22 23  1  0  0  0  0
 22 25  1  0  0  0  0
 22 27  1  0  0  0  0
 23 24  1  0  0  0  0
 23 49  1  0  0  0  0
 23 50  1  0  0  0  0
 24 51  1  0  0  0  0
 25 26  1  0  0  0  0
 25 52  1  0  0  0  0
 25 53  1  0  0  0  0
 26 54  1  0  0  0  0
 27 55  1  0  0  0  0
 27 56  1  0  0  0  0
 28 57  1  0  0  0  0
 28 58  1  0  0  0  0
M  CHG  1   2   1
M  END
> <s_m_source_file>
AV-unprocessed.smi

> <i_m_source_file_index>
198

> <i_lp_mmshare_version>
43012

> <i_f3d_flags>
0

> <s_epik_input>
W0NIMl0xW0NIMl1OKFtDSDNdKVtDSDJdW0NAQEhdKFtDQEhdMTIpW0NIMl1bQ0gyXVtDSDJdTjJjKG5bY0hdbjMpYyhjMzQpbltjSF1uNFtDSF0oW0NIMl01KVtDSDJdQzUoW0NIMl1bT0hdKVtDSDJdW09IXQ==

> <s_epik_cmdline>
J2VwaWtfcHl0aG9uJywgJy1waCcsICc3LjAnLCAnLXRuJywgJzgnLCAnLW1hJywgJzIwMCcsICctbWV0YWxfYmluZGluZycsICctaW1hZScsICc8aW5maWxlLm1hZT4nLCAnLW9tYWUnLCAnPG91dGZpbGUubWFlPic=

> <r_lp_tautomer_probability>
1

> <r_epik_Ionization_Penalty>
0.00239938

> <r_epik_Ionization_Penalty_Charging>
0.00138697

> <r_epik_Ionization_Penalty_Neutral>
0.00101241

> <r_epik_State_Penalty>
-0

> <r_epik_Charging_Adjusted_Penalty>
0.00138697

> <i_epik_Tot_Q>
1

> <i_epik_Tot_abs_Q>
1

> <r_epik_Metal_State_Penalty>
-0

> <b_epik_Metal_Only>
0

> <s_lp_Force_Field>
OPLS_2005

> <r_lp_Energy>
56.2866

> <b_lp_Chiralities_Consistent>
1

> <s_lp_Variant>
AV-unprocessed.smi:198-1

> <Gold.Version>
5.8.1

> <Gold.Id.Protein>
6NUR|6NUR_protein|mol2

> <Gold.PLP.Fitness>
45.8284

> <Gold.PLP.PLP>
-30.5135

> <Gold.PLP.part.hbond>
-3.5417

> <Gold.PLP.part.metal>
0.0000

> <Gold.PLP.part.buried>
0.8901

> <Gold.PLP.part.nonpolar>
-28.1033

> <Gold.PLP.part.repulsive>
0.4360

> <Gold.PLP.ligand.clash>
1.3243

> <Gold.PLP.ligand.torsion>
1.0026

> <Gold.PLP.Chemscore.Hbond>
4.0000

> <Gold.PLP.Chemscore.CHOScore>
1.9991

> <Gold.PLP.Chemscore.Metal>
0.0000

> <Gold.Chemscore.Hbonds>
donor molecule, donor type, donor heavy atom, donor atom, acceptor molecule, acceptor atom, score
      L1  H     2    59       P1 10956  1.56
      L1  H    24    51       P1  8028  0.99
      L1  H    26    54       P1  8028  1.00
      L1  C    18    45       P1 10171  0.89
      L1  C    18    45       P1 10175  1.00

> <Gold.PLP.Chemscore.Internal.Correction>
0.6473

> <Gold.Rescore>
     Score         DG    S(hbond)    S(metal)    S(lipo)     H(rot)  DE(clash)    DE(int)     intcor
     11.25     -15.87       2.67        0.00      80.05       3.08       0.78       3.84       ----

> <Gold.Chemscore.Fitness>
11.2511

> <Gold.Chemscore.DG>
-15.8725

> <Gold.Chemscore.ZeroCoef>
-5.4800

> <Gold.Chemscore.Hbond>
2.6666

> <Gold.Chemscore.Metal>
0.0000

> <Gold.Chemscore.Lipo>
80.0508

> <Gold.Chemscore.Internal_Hbond>
0.0000

> <Gold.Chemscore.DEClash>
0.7818

> <Gold.Chemscore.DEInternal>
3.8396

> <Gold.Chemscore.Rot>
3.0781

> <Gold.Chemscore.Internal.Correction>
   9.000000E+99

> <Gold.Chemscore.Hbonds>
donor molecule, donor type, donor heavy atom, donor atom, acceptor molecule, acceptor atom, score
      L1  H     2    59       P1 10956  0.60
      L1  H    24    51       P1  8028  0.92
      L1  H    26    54       P1  8028  0.70

> <Gold.Chemscore.Hbond.Weighted>
-8.9066

> <Gold.Chemscore.Metal.Weighted>
-0.0000

> <Gold.Chemscore.Lipo.Weighted>
-9.3659

> <Gold.Chemscore.Internal_Hbond.Weighted>
0.0000

> <Gold.Chemscore.DEClash.Weighted>
0.7818

> <Gold.Chemscore.DEInternal.Weighted>
3.8396

> <Gold.Chemscore.Rot.Weighted>
7.8800

> <Gold.Chemscore.Internal.Correction.Weighted>
   9.000000E+99

> <Gold.Protein.RotatedTorsions>
[ 6907 6896 6895 6894 ] final  -59.11 input  -60.11 | X-H torsion
[ 7974 7965 7964 7962 ] final  105.16 input  175.53 | X-H torsion
[ 8008 7997 7996 7995 ] final -139.03 input   59.86 | X-H torsion
[ 10167 10162 10161 10158 ] final   29.19 input  -65.29 | X-H torsion
[ 10718 10713 10712 10709 ] final -126.37 input   66.30 | X-H torsion
[ 10763 10752 10751 10750 ] final  130.67 input  -60.55 | X-H torsion
[ 11005 11000 10999 10996 ] final -109.02 input  -57.11 | X-H torsion

> <Gold.Protein.ActiveResidues>
 VAL166  LYS551  ARG553  GLY616  TRP617  ASP618  TYR619  PRO620  LYS621  CYS622 
 ASP623  PHE694  ASN695  SER759  ASP760  ASP761  ALA762  ILE779  LEU786  VAL792 
 PHE793  MET794  SER795  GLU796  ALA797  LYS798  CYS799  TRP800  GLU811  SER814 

> <Gold.Protein.RotatedAtoms>
  150.7955  134.7012  159.6550 H   0  0  0  0  0  0  0  0  0  0  0  0  # atno 6907 bound_to 6896
  152.4067  134.6191  160.0056 H   0  0  0  0  0  0  0  0  0  0  0  0  # atno 6908 bound_to 6896
  151.6446  133.3287  159.3174 H   0  0  0  0  0  0  0  0  0  0  0  0  # atno 6909 bound_to 6896
  145.3234  139.2506  143.3700 H   0  0  0  0  0  0  0  0  0  0  0  0  # atno 7974 bound_to 7965
  155.4382  140.0530  157.3013 H   0  0  0  0  0  0  0  0  0  0  0  0  # atno 8008 bound_to 7997
  154.4830  140.2089  155.9677 H   0  0  0  0  0  0  0  0  0  0  0  0  # atno 8009 bound_to 7997
  156.1233  140.3184  155.8245 H   0  0  0  0  0  0  0  0  0  0  0  0  # atno 8010 bound_to 7997
  140.4787  144.0650  150.6258 H   0  0  0  0  0  0  0  0  0  0  0  0  # atno 10167 bound_to 10162
  156.1759  130.6699  151.0241 H   0  0  0  0  0  0  0  0  0  0  0  0  # atno 10718 bound_to 10713
  153.7618  135.3195  155.3338 H   0  0  0  0  0  0  0  0  0  0  0  0  # atno 10763 bound_to 10752
  154.8227  135.4591  154.0830 H   0  0  0  0  0  0  0  0  0  0  0  0  # atno 10764 bound_to 10752
  153.2063  135.6929  153.8252 H   0  0  0  0  0  0  0  0  0  0  0  0  # atno 10765 bound_to 10752
  141.0870  133.9121  157.2162 H   0  0  0  0  0  0  0  0  0  0  0  0  # atno 11005 bound_to 11000
  146.3074  140.3796  142.8682 LP  0  0  0  0  0  0  0  0  0  0  0  0  # atno 17320 bound_to 7965
  144.8921  140.7537  143.5920 LP  0  0  0  0  0  0  0  0  0  0  0  0  # atno 17321 bound_to 7965
  140.3885  143.2765  152.0088 LP  0  0  0  0  0  0  0  0  0  0  0  0  # atno 17342 bound_to 10162
  139.4830  144.6096  151.7457 LP  0  0  0  0  0  0  0  0  0  0  0  0  # atno 17343 bound_to 10162
  157.6835  131.0831  150.7306 LP  0  0  0  0  0  0  0  0  0  0  0  0  # atno 17370 bound_to 10713
  156.7364  130.4725  149.5487 LP  0  0  0  0  0  0  0  0  0  0  0  0  # atno 17371 bound_to 10713
  139.9690  135.0134  156.9462 LP  0  0  0  0  0  0  0  0  0  0  0  0  # atno 17394 bound_to 11000
  140.5339  134.0786  155.7323 LP  0  0  0  0  0  0  0  0  0  0  0  0  # atno 17395 bound_to 11000

$$$$
