AV-unprocessed.smi:2063|AV-procd|sdf|8414|dock6
  -GOLD-   2272011103D 1   1.00000     0.00000
 Structure written by MMmdl.
 38 39  0  0  0  0  0  0  0  0  2 V2000
  147.9526  141.7189  154.3105 C   0  0  0  0  0  0  0  0  0  0  0  0
  148.7909  140.4533  154.0795 C   0  0  0  0  0  0  0  0  0  0  0  0
  147.9379  139.2073  153.8014 C   0  0  0  0  0  0  0  0  0  0  0  0
  149.7818  140.2242  155.1778 C   0  0  0  0  0  0  0  0  0  0  0  0
  151.1027  140.3369  155.0057 N   0  0  0  0  0  0  0  0  0  0  0  0
  151.8077  140.0780  156.1719 N   0  0  0  0  0  0  0  0  0  0  0  0
  151.0146  139.7832  157.2112 C   0  0  0  0  0  0  0  0  0  0  0  0
  151.5013  139.4977  158.4302 N   0  5  0  0  0  0  0  0  0  0  0  0
  152.6013  140.1388  158.8868 C   0  0  0  0  0  0  0  0  0  0  0  0
  153.7660  139.7426  158.8008 O   0  0  0  0  0  0  0  0  0  0  0  0
  152.3337  141.3114  159.4797 N   0  0  0  0  0  0  0  0  0  0  0  0
  153.3106  142.2320  160.0574 C   0  0  2  0  0  0  0  0  0  0  0  0
  153.5779  141.8513  161.5249 C   0  0  0  0  0  0  0  0  0  0  0  0
  152.7850  143.6736  159.9175 C   0  0  1  0  0  0  0  0  0  0  0  0
  152.4993  144.1183  158.4814 C   0  0  0  0  0  0  0  0  0  0  0  0
  151.4240  145.1838  158.6349 C   0  0  0  0  0  0  0  0  0  0  0  0
  150.9578  145.0389  160.0855 C   0  0  0  0  0  0  0  0  0  0  0  0
  151.5073  143.8054  160.5228 O   0  0  0  0  0  0  0  0  0  0  0  0
  149.2982  139.7831  156.8075 S   0  0  0  0  0  0  0  0  0  0  0  0
  148.5906  142.5963  154.4211 H   0  0  0  0  0  0  0  0  0  0  0  0
  147.3446  141.6331  155.2118 H   0  0  0  0  0  0  0  0  0  0  0  0
  147.2800  141.9028  153.4725 H   0  0  0  0  0  0  0  0  0  0  0  0
  149.3724  140.6336  153.1744 H   0  0  0  0  0  0  0  0  0  0  0  0
  148.5653  138.3493  153.5587 H   0  0  0  0  0  0  0  0  0  0  0  0
  147.2637  139.3725  152.9606 H   0  0  0  0  0  0  0  0  0  0  0  0
  147.3305  138.9416  154.6671 H   0  0  0  0  0  0  0  0  0  0  0  0
  151.3660  141.5947  159.5213 H   0  0  0  0  0  0  0  0  0  0  0  0
  154.2456  142.1546  159.4996 H   0  0  0  0  0  0  0  0  0  0  0  0
  154.3350  142.4957  161.9714 H   0  0  0  0  0  0  0  0  0  0  0  0
  153.9390  140.8258  161.6081 H   0  0  0  0  0  0  0  0  0  0  0  0
  152.6721  141.9341  162.1266 H   0  0  0  0  0  0  0  0  0  0  0  0
  153.4722  144.3772  160.3920 H   0  0  0  0  0  0  0  0  0  0  0  0
  153.3900  144.4893  157.9738 H   0  0  0  0  0  0  0  0  0  0  0  0
  152.1037  143.2849  157.8991 H   0  0  0  0  0  0  0  0  0  0  0  0
  151.8168  146.1846  158.4525 H   0  0  0  0  0  0  0  0  0  0  0  0
  150.6075  145.0097  157.9335 H   0  0  0  0  0  0  0  0  0  0  0  0
  151.3581  145.8464  160.7000 H   0  0  0  0  0  0  0  0  0  0  0  0
  149.8719  145.0440  160.1813 H   0  0  0  0  0  0  0  0  0  0  0  0
  1  2  1  0  0  0  0
  1 20  1  0  0  0  0
  1 21  1  0  0  0  0
  1 22  1  0  0  0  0
  2  3  1  0  0  0  0
  2  4  1  0  0  0  0
  2 23  1  0  0  0  0
  3 24  1  0  0  0  0
  3 25  1  0  0  0  0
  3 26  1  0  0  0  0
  4 19  1  0  0  0  0
  4  5  2  0  0  0  0
  5  6  1  0  0  0  0
  6  7  2  0  0  0  0
  7  8  1  0  0  0  0
  7 19  1  0  0  0  0
  8  9  1  0  0  0  0
  9 10  2  0  0  0  0
  9 11  1  0  0  0  0
 11 12  1  0  0  0  0
 11 27  1  0  0  0  0
 12 13  1  0  0  0  0
 12 14  1  0  0  0  0
 12 28  1  0  0  0  0
 13 29  1  0  0  0  0
 13 30  1  0  0  0  0
 13 31  1  0  0  0  0
 14 18  1  0  0  0  0
 14 15  1  0  0  0  0
 14 32  1  0  0  0  0
 15 16  1  0  0  0  0
 15 33  1  0  0  0  0
 15 34  1  0  0  0  0
 16 17  1  0  0  0  0
 16 35  1  0  0  0  0
 16 36  1  0  0  0  0
 17 18  1  0  0  0  0
 17 37  1  0  0  0  0
 17 38  1  0  0  0  0
M  CHG  1   8  -1
M  END
> <s_m_source_file>
AV-unprocessed.smi

> <i_m_source_file_index>
2063

> <i_lp_mmshare_version>
43012

> <i_f3d_flags>
0

> <s_epik_input>
W0NIM11bQ0hdKFtDSDNdKWMxbm5jKHMxKVtOSF1DKD1PKVtOSF1bQ0BIXShbQ0gzXSlbQ0BASF0yW0NIMl1bQ0gyXVtDSDJdTzI=

> <s_epik_cmdline>
J2VwaWtfcHl0aG9uJywgJy1waCcsICc3LjAnLCAnLXRuJywgJzgnLCAnLW1hJywgJzIwMCcsICctbWV0YWxfYmluZGluZycsICctaW1hZScsICc8aW5maWxlLm1hZT4nLCAnLW9tYWUnLCAnPG91dGZpbGUubWFlPic=

> <r_lp_tautomer_probability>
1

> <r_epik_Ionization_Penalty>
4.37022

> <r_epik_Ionization_Penalty_Charging>
4.21437

> <r_epik_Ionization_Penalty_Neutral>
0.15585

> <r_epik_State_Penalty>
4.21389

> <r_epik_Charging_Adjusted_Penalty>
8.42826

> <i_epik_Tot_Q>
-1

> <i_epik_Tot_abs_Q>
1

> <r_epik_Metal_State_Penalty>
0.693772

> <b_epik_Metal_Only>
1

> <s_lp_Force_Field>
OPLS_2005

> <r_lp_Energy>
10.221

> <b_lp_Chiralities_Consistent>
1

> <s_lp_Variant>
AV-unprocessed.smi:2063-7

> <Gold.Version>
5.8.1

> <Gold.Id.Protein>
6NUR|6NUR_protein|mol2

> <Gold.PLP.Fitness>
43.7518

> <Gold.PLP.PLP>
-40.5462

> <Gold.PLP.part.hbond>
-2.0000

> <Gold.PLP.part.metal>
0.0000

> <Gold.PLP.part.buried>
-5.2015

> <Gold.PLP.part.nonpolar>
-33.5095

> <Gold.PLP.part.repulsive>
0.2781

> <Gold.PLP.ligand.clash>
0.0000

> <Gold.PLP.ligand.torsion>
1.4532

> <Gold.PLP.Chemscore.Hbond>
2.0000

> <Gold.PLP.Chemscore.CHOScore>
0.0000

> <Gold.PLP.Chemscore.Metal>
0.0000

> <Gold.Chemscore.Hbonds>
donor molecule, donor type, donor heavy atom, donor atom, acceptor molecule, acceptor atom, score
      P1  H  7989  7998       L1     5  1.00
      P1  H  7997  8008       L1    10  1.00

> <Gold.PLP.Chemscore.Internal.Correction>
0.1119

> <Gold.Rescore>
     Score         DG    S(hbond)    S(metal)    S(lipo)     H(rot)  DE(clash)    DE(int)     intcor
     18.90     -20.33       1.96        0.00     101.43       1.39       0.03       1.40       ----

> <Gold.Chemscore.Fitness>
18.9019

> <Gold.Chemscore.DG>
-20.3345

> <Gold.Chemscore.ZeroCoef>
-5.4800

> <Gold.Chemscore.Hbond>
1.9591

> <Gold.Chemscore.Metal>
0.0000

> <Gold.Chemscore.Lipo>
101.4332

> <Gold.Chemscore.Internal_Hbond>
0.0000

> <Gold.Chemscore.DEClash>
0.0339

> <Gold.Chemscore.DEInternal>
1.3987

> <Gold.Chemscore.Rot>
1.3893

> <Gold.Chemscore.Internal.Correction>
   9.000000E+99

> <Gold.Chemscore.Hbonds>
donor molecule, donor type, donor heavy atom, donor atom, acceptor molecule, acceptor atom, score
      P1  H  7989  7998       L1     5  0.92
      P1  H  7997  8008       L1    10  0.96

> <Gold.Chemscore.Hbond.Weighted>
-6.5435

> <Gold.Chemscore.Metal.Weighted>
-0.0000

> <Gold.Chemscore.Lipo.Weighted>
-11.8677

> <Gold.Chemscore.Internal_Hbond.Weighted>
0.0000

> <Gold.Chemscore.DEClash.Weighted>
0.0339

> <Gold.Chemscore.DEInternal.Weighted>
1.3987

> <Gold.Chemscore.Rot.Weighted>
3.5567

> <Gold.Chemscore.Internal.Correction.Weighted>
   9.000000E+99

> <Gold.Protein.RotatedTorsions>
[ 6907 6896 6895 6894 ] final   84.12 input  -60.11 | X-H torsion
[ 7974 7965 7964 7962 ] final -163.80 input  175.53 | X-H torsion
[ 8008 7997 7996 7995 ] final  -96.01 input   59.86 | X-H torsion
[ 10167 10162 10161 10158 ] final  -88.49 input  -65.29 | X-H torsion
[ 10718 10713 10712 10709 ] final  -68.77 input   66.30 | X-H torsion
[ 10763 10752 10751 10750 ] final  123.49 input  -60.55 | X-H torsion
[ 11005 11000 10999 10996 ] final  173.89 input  -57.11 | X-H torsion

> <Gold.Protein.ActiveResidues>
 VAL166  LYS551  ARG553  GLY616  TRP617  ASP618  TYR619  PRO620  LYS621  CYS622 
 ASP623  PHE694  ASN695  SER759  ASP760  ASP761  ALA762  ILE779  LEU786  VAL792 
 PHE793  MET794  SER795  GLU796  ALA797  LYS798  CYS799  TRP800  GLU811  SER814 

> <Gold.Protein.RotatedAtoms>
  152.5344  134.2790  159.8999 H   0  0  0  0  0  0  0  0  0  0  0  0  # atno 6907 bound_to 6896
  151.2745  133.4233  159.2631 H   0  0  0  0  0  0  0  0  0  0  0  0  # atno 6908 bound_to 6896
  151.0338  134.9573  159.8182 H   0  0  0  0  0  0  0  0  0  0  0  0  # atno 6909 bound_to 6896
  144.7315  140.3054  143.6197 H   0  0  0  0  0  0  0  0  0  0  0  0  # atno 7974 bound_to 7965
  154.7688  140.0475  157.1034 H   0  0  0  0  0  0  0  0  0  0  0  0  # atno 8008 bound_to 7997
  154.9846  140.3105  155.4912 H   0  0  0  0  0  0  0  0  0  0  0  0  # atno 8009 bound_to 7997
  156.2917  140.2230  156.4947 H   0  0  0  0  0  0  0  0  0  0  0  0  # atno 8010 bound_to 7997
  140.3741  143.2780  151.9464 H   0  0  0  0  0  0  0  0  0  0  0  0  # atno 10167 bound_to 10162
  156.0489  130.4300  150.2049 H   0  0  0  0  0  0  0  0  0  0  0  0  # atno 10718 bound_to 10713
  153.6463  135.3370  155.3086 H   0  0  0  0  0  0  0  0  0  0  0  0  # atno 10763 bound_to 10752
  154.8548  135.4330  154.1951 H   0  0  0  0  0  0  0  0  0  0  0  0  # atno 10764 bound_to 10752
  153.2883  135.7015  153.7392 H   0  0  0  0  0  0  0  0  0  0  0  0  # atno 10765 bound_to 10752
  140.3454  134.7241  157.4231 H   0  0  0  0  0  0  0  0  0  0  0  0  # atno 11005 bound_to 11000
  145.7718  139.1860  143.2208 LP  0  0  0  0  0  0  0  0  0  0  0  0  # atno 17320 bound_to 7965
  146.0905  140.7661  142.9598 LP  0  0  0  0  0  0  0  0  0  0  0  0  # atno 17321 bound_to 7965
  139.4801  144.5879  151.7822 LP  0  0  0  0  0  0  0  0  0  0  0  0  # atno 17342 bound_to 10162
  140.5003  144.1178  150.5969 LP  0  0  0  0  0  0  0  0  0  0  0  0  # atno 17343 bound_to 10162
  157.0135  130.9958  151.3359 LP  0  0  0  0  0  0  0  0  0  0  0  0  # atno 17370 bound_to 10713
  157.5394  130.8110  149.8010 LP  0  0  0  0  0  0  0  0  0  0  0  0  # atno 17371 bound_to 10713
  140.0747  134.5814  155.8604 LP  0  0  0  0  0  0  0  0  0  0  0  0  # atno 17394 bound_to 11000
  141.2027  133.6627  156.6021 LP  0  0  0  0  0  0  0  0  0  0  0  0  # atno 17395 bound_to 11000

$$$$
