AV-unprocessed.smi:1845|AV-procd|sdf|7513|dock6
  -GOLD-   22720 9223D 1   1.00000     0.00000
 Structure written by MMmdl.
 44 45  0  0  0  0  0  0  0  0  2 V2000
  150.5430  130.4122  156.2121 C   0  0  0  0  0  0  0  0  0  0  0  0
  150.0231  131.8476  157.2467 S   0  0  0  0  0  0  0  0  0  0  0  0
  148.5806  131.6584  157.4622 O   0  0  0  0  0  0  0  0  0  0  0  0
  150.8790  131.8243  158.4450 O   0  0  0  0  0  0  0  0  0  0  0  0
  150.3044  133.1109  156.2607 N   0  5  0  0  0  0  0  0  0  0  0  0
  150.2014  134.4848  156.7342 C   0  0  0  0  0  0  0  0  0  0  0  0
  149.4199  135.3332  155.7073 C   0  0  0  0  0  0  0  0  0  0  0  0
  150.1688  136.5964  155.2559 C   0  0  0  0  0  0  0  0  0  0  0  0
  151.3754  136.7241  155.4766 O   0  0  0  0  0  0  0  0  0  0  0  0
  149.4465  137.5099  154.5850 N   0  0  0  0  0  0  0  0  0  0  0  0
  149.9460  138.7847  154.0778 C   0  0  0  0  0  0  0  0  0  0  0  0
  150.3741  139.7749  155.1525 C   0  0  0  0  0  0  0  0  0  0  0  0
  151.4061  139.5009  156.0755 C   0  0  0  0  0  0  0  0  0  0  0  0
  151.7325  140.4685  157.0452 C   0  0  0  0  0  0  0  0  0  0  0  0
  151.0192  141.6908  157.0716 C   0  0  0  0  0  0  0  0  0  0  0  0
  151.3314  142.6793  158.0314 N   0  0  0  0  0  0  0  0  0  0  0  0
  152.1596  142.2400  159.1522 C   0  0  0  0  0  0  0  0  0  0  0  0
  152.1686  143.3044  160.2631 C   0  0  0  0  0  0  0  0  0  0  0  0
  152.5830  144.5570  159.7284 O   0  0  0  0  0  0  0  0  0  0  0  0
  151.6938  145.0194  158.7176 C   0  0  0  0  0  0  0  0  0  0  0  0
  151.6706  144.0181  157.5505 C   0  0  0  0  0  0  0  0  0  0  0  0
  150.0191  141.9435  156.1914 N   0  0  0  0  0  0  0  0  0  0  0  0
  149.7096  141.0122  155.2654 C   0  0  0  0  0  0  0  0  0  0  0  0
  150.3129  129.4886  156.7420 H   0  0  0  0  0  0  0  0  0  0  0  0
  151.6150  130.4564  156.0224 H   0  0  0  0  0  0  0  0  0  0  0  0
  150.0020  130.4293  155.2665 H   0  0  0  0  0  0  0  0  0  0  0  0
  149.6912  134.5488  157.6959 H   0  0  0  0  0  0  0  0  0  0  0  0
  151.1875  134.9214  156.8962 H   0  0  0  0  0  0  0  0  0  0  0  0
  149.2021  134.7339  154.8220 H   0  0  0  0  0  0  0  0  0  0  0  0
  148.4533  135.6213  156.1247 H   0  0  0  0  0  0  0  0  0  0  0  0
  148.4664  137.3164  154.4374 H   0  0  0  0  0  0  0  0  0  0  0  0
  150.8045  138.5662  153.4419 H   0  0  0  0  0  0  0  0  0  0  0  0
  149.2078  139.2650  153.4336 H   0  0  0  0  0  0  0  0  0  0  0  0
  151.9427  138.5643  156.0567 H   0  0  0  0  0  0  0  0  0  0  0  0
  152.5104  140.2537  157.7624 H   0  0  0  0  0  0  0  0  0  0  0  0
  151.8094  141.2980  159.5712 H   0  0  0  0  0  0  0  0  0  0  0  0
  153.1748  142.0688  158.7921 H   0  0  0  0  0  0  0  0  0  0  0  0
  151.1814  143.3995  160.7181 H   0  0  0  0  0  0  0  0  0  0  0  0
  152.8570  143.0128  161.0563 H   0  0  0  0  0  0  0  0  0  0  0  0
  150.6940  145.1576  159.1324 H   0  0  0  0  0  0  0  0  0  0  0  0
  152.0306  145.9953  158.3675 H   0  0  0  0  0  0  0  0  0  0  0  0
  152.6462  143.9902  157.0635 H   0  0  0  0  0  0  0  0  0  0  0  0
  150.9434  144.3494  156.8080 H   0  0  0  0  0  0  0  0  0  0  0  0
  148.9046  141.2659  154.5916 H   0  0  0  0  0  0  0  0  0  0  0  0
  1  2  1  0  0  0  0
  1 24  1  0  0  0  0
  1 25  1  0  0  0  0
  1 26  1  0  0  0  0
  2  3  2  0  0  0  0
  2  4  2  0  0  0  0
  2  5  1  0  0  0  0
  5  6  1  0  0  0  0
  6  7  1  0  0  0  0
  6 27  1  0  0  0  0
  6 28  1  0  0  0  0
  7  8  1  0  0  0  0
  7 29  1  0  0  0  0
  7 30  1  0  0  0  0
  8  9  2  0  0  0  0
  8 10  1  0  0  0  0
 10 11  1  0  0  0  0
 10 31  1  0  0  0  0
 11 12  1  0  0  0  0
 11 32  1  0  0  0  0
 11 33  1  0  0  0  0
 12 23  1  0  0  0  0
 12 13  2  0  0  0  0
 13 14  1  0  0  0  0
 13 34  1  0  0  0  0
 14 15  2  0  0  0  0
 14 35  1  0  0  0  0
 15 16  1  0  0  0  0
 15 22  1  0  0  0  0
 16 21  1  0  0  0  0
 16 17  1  0  0  0  0
 17 18  1  0  0  0  0
 17 36  1  0  0  0  0
 17 37  1  0  0  0  0
 18 19  1  0  0  0  0
 18 38  1  0  0  0  0
 18 39  1  0  0  0  0
 19 20  1  0  0  0  0
 20 21  1  0  0  0  0
 20 40  1  0  0  0  0
 20 41  1  0  0  0  0
 21 42  1  0  0  0  0
 21 43  1  0  0  0  0
 22 23  2  0  0  0  0
 23 44  1  0  0  0  0
M  CHG  1   5  -1
M  END
> <s_m_source_file>
AV-unprocessed.smi

> <i_m_source_file_index>
1845

> <i_lp_mmshare_version>
43012

> <i_f3d_flags>
0

> <s_epik_input>
W0NIM11TKD1PKSg9TylbTkhdW0NIMl1bQ0gyXUMoPU8pW05IXVtDSDJdYzFbY0hdW2NIXWMobltjSF0xKU4yW0NIMl1bQ0gyXU9bQ0gyXVtDSDJdMg==

> <s_epik_cmdline>
J2VwaWtfcHl0aG9uJywgJy1waCcsICc3LjAnLCAnLXRuJywgJzgnLCAnLW1hJywgJzIwMCcsICctbWV0YWxfYmluZGluZycsICctaW1hZScsICc8aW5maWxlLm1hZT4nLCAnLW9tYWUnLCAnPG91dGZpbGUubWFlPic=

> <r_lp_tautomer_probability>
1

> <r_epik_Ionization_Penalty>
6.31253

> <r_epik_Ionization_Penalty_Charging>
6.30704

> <r_epik_Ionization_Penalty_Neutral>
0.00548995

> <r_epik_State_Penalty>
6.31049

> <r_epik_Charging_Adjusted_Penalty>
12.6175

> <i_epik_Tot_Q>
-1

> <i_epik_Tot_abs_Q>
1

> <r_epik_Metal_State_Penalty>
2.24651

> <b_epik_Metal_Only>
1

> <s_lp_Force_Field>
OPLS_2005

> <r_lp_Energy>
11.4109

> <b_lp_Chiralities_Consistent>
1

> <s_lp_Variant>
AV-unprocessed.smi:1845-2

> <Gold.Version>
5.8.1

> <Gold.Id.Protein>
6NUR|6NUR_protein|mol2

> <Gold.PLP.Fitness>
45.6679

> <Gold.PLP.PLP>
-41.2259

> <Gold.PLP.part.hbond>
-3.0000

> <Gold.PLP.part.metal>
0.0000

> <Gold.PLP.part.buried>
-3.2922

> <Gold.PLP.part.nonpolar>
-35.2458

> <Gold.PLP.part.repulsive>
0.5197

> <Gold.PLP.ligand.clash>
0.0000

> <Gold.PLP.ligand.torsion>
1.4769

> <Gold.PLP.Chemscore.Hbond>
2.0000

> <Gold.PLP.Chemscore.CHOScore>
0.0000

> <Gold.PLP.Chemscore.Metal>
0.0000

> <Gold.Chemscore.Hbonds>
donor molecule, donor type, donor heavy atom, donor atom, acceptor molecule, acceptor atom, score
      P1  H  6896  6909       L1     4  1.00
      P1  H 10752 10763       L1     9  0.76

> <Gold.PLP.Chemscore.Internal.Correction>
1.3959

> <Gold.Rescore>
     Score         DG    S(hbond)    S(metal)    S(lipo)     H(rot)  DE(clash)    DE(int)     intcor
     15.14     -16.78       1.94        0.00      95.01       2.46       0.03       1.61       ----

> <Gold.Chemscore.Fitness>
15.1359

> <Gold.Chemscore.DG>
-16.7776

> <Gold.Chemscore.ZeroCoef>
-5.4800

> <Gold.Chemscore.Hbond>
1.9418

> <Gold.Chemscore.Metal>
0.0000

> <Gold.Chemscore.Lipo>
95.0095

> <Gold.Chemscore.Internal_Hbond>
0.0000

> <Gold.Chemscore.DEClash>
0.0350

> <Gold.Chemscore.DEInternal>
1.6067

> <Gold.Chemscore.Rot>
2.4625

> <Gold.Chemscore.Internal.Correction>
   9.000000E+99

> <Gold.Chemscore.Hbonds>
donor molecule, donor type, donor heavy atom, donor atom, acceptor molecule, acceptor atom, score
      P1  H  6896  6909       L1     4  0.97
      P1  H 10752 10763       L1     9  0.75

> <Gold.Chemscore.Hbond.Weighted>
-6.4855

> <Gold.Chemscore.Metal.Weighted>
-0.0000

> <Gold.Chemscore.Lipo.Weighted>
-11.1161

> <Gold.Chemscore.Internal_Hbond.Weighted>
0.0000

> <Gold.Chemscore.DEClash.Weighted>
0.0350

> <Gold.Chemscore.DEInternal.Weighted>
1.6067

> <Gold.Chemscore.Rot.Weighted>
6.3040

> <Gold.Chemscore.Internal.Correction.Weighted>
   9.000000E+99

> <Gold.Protein.RotatedTorsions>
[ 6907 6896 6895 6894 ] final  -36.65 input  -60.11 | X-H torsion
[ 7974 7965 7964 7962 ] final -177.14 input  175.53 | X-H torsion
[ 8008 7997 7996 7995 ] final   15.70 input   59.86 | X-H torsion
[ 10167 10162 10161 10158 ] final  148.99 input  -65.29 | X-H torsion
[ 10718 10713 10712 10709 ] final   48.87 input   66.30 | X-H torsion
[ 10763 10752 10751 10750 ] final   77.80 input  -60.55 | X-H torsion
[ 11005 11000 10999 10996 ] final  111.45 input  -57.11 | X-H torsion

> <Gold.Protein.ActiveResidues>
 VAL166  LYS551  ARG553  GLY616  TRP617  ASP618  TYR619  PRO620  LYS621  CYS622 
 ASP623  PHE694  ASN695  SER759  ASP760  ASP761  ALA762  ILE779  LEU786  VAL792 
 PHE793  MET794  SER795  GLU796  ALA797  LYS798  CYS799  TRP800  GLU811  SER814 

> <Gold.Protein.RotatedAtoms>
  151.0245  134.9494  159.8077 H   0  0  0  0  0  0  0  0  0  0  0  0  # atno 6907 bound_to 6896
  152.5332  134.2860  159.9035 H   0  0  0  0  0  0  0  0  0  0  0  0  # atno 6908 bound_to 6896
  151.2868  133.4141  159.2664 H   0  0  0  0  0  0  0  0  0  0  0  0  # atno 6909 bound_to 6896
  144.7127  140.1063  143.6413 H   0  0  0  0  0  0  0  0  0  0  0  0  # atno 7974 bound_to 7965
  154.8663  140.2952  155.5508 H   0  0  0  0  0  0  0  0  0  0  0  0  # atno 8008 bound_to 7997
  156.3021  140.2468  156.3578 H   0  0  0  0  0  0  0  0  0  0  0  0  # atno 8009 bound_to 7997
  154.8864  140.0396  157.1802 H   0  0  0  0  0  0  0  0  0  0  0  0  # atno 8010 bound_to 7997
  139.4867  144.5637  151.7184 H   0  0  0  0  0  0  0  0  0  0  0  0  # atno 10167 bound_to 10162
  157.4730  130.8267  149.8008 H   0  0  0  0  0  0  0  0  0  0  0  0  # atno 10718 bound_to 10713
  153.0826  135.4900  154.8533 H   0  0  0  0  0  0  0  0  0  0  0  0  # atno 10763 bound_to 10752
  154.7170  135.3031  154.9110 H   0  0  0  0  0  0  0  0  0  0  0  0  # atno 10764 bound_to 10752
  153.9786  135.6792  153.4802 H   0  0  0  0  0  0  0  0  0  0  0  0  # atno 10765 bound_to 10752
  139.8904  134.9508  156.6434 H   0  0  0  0  0  0  0  0  0  0  0  0  # atno 11005 bound_to 11000
  145.9493  139.2723  143.1222 LP  0  0  0  0  0  0  0  0  0  0  0  0  # atno 17320 bound_to 7965
  145.9340  140.9028  143.0342 LP  0  0  0  0  0  0  0  0  0  0  0  0  # atno 17321 bound_to 7965
  140.5211  144.0877  150.6023 LP  0  0  0  0  0  0  0  0  0  0  0  0  # atno 17342 bound_to 10162
  140.3836  143.2790  152.0142 LP  0  0  0  0  0  0  0  0  0  0  0  0  # atno 17343 bound_to 10162
  156.0083  130.3845  150.2354 LP  0  0  0  0  0  0  0  0  0  0  0  0  # atno 17370 bound_to 10713
  157.0537  131.0070  151.3245 LP  0  0  0  0  0  0  0  0  0  0  0  0  # atno 17371 bound_to 10713
  140.7576  133.8844  155.8394 LP  0  0  0  0  0  0  0  0  0  0  0  0  # atno 17394 bound_to 11000
  140.9948  134.1229  157.4373 LP  0  0  0  0  0  0  0  0  0  0  0  0  # atno 17395 bound_to 11000

$$$$
