AV-unprocessed.smi:1204|AV-procd|sdf|5037|dock3
  -GOLD-   22720 4 63D 1   1.00000     0.00000
 Structure written by MMmdl.
 27 28  0  0  0  0  0  0  0  0  1 V2000
  153.0200  139.9479  157.8799 O   0  0  0  0  0  0  0  0  0  0  0  0
  151.9955  140.1737  157.2343 C   0  0  0  0  0  0  0  0  0  0  0  0
  151.3110  141.3329  157.2803 N   0  0  0  0  0  0  0  0  0  0  0  0
  151.6083  142.5067  158.0223 C   0  0  0  0  0  0  0  0  0  0  0  0
  152.3361  142.2920  159.2145 C   0  0  0  0  0  0  0  0  0  0  0  0
  152.6825  143.3921  160.0227 C   0  0  0  0  0  0  0  0  0  0  0  0
  152.2917  144.6806  159.6173 C   0  0  0  0  0  0  0  0  0  0  0  0
  151.5691  144.8070  158.4165 C   0  0  0  0  0  0  0  0  0  0  0  0
  151.2360  143.7540  157.6404 N   0  0  0  0  0  0  0  0  0  0  0  0
  151.4066  139.0833  156.3259 C   0  0  2  0  0  0  0  0  0  0  0  0
  152.3593  137.8800  156.1354 C   0  0  0  0  0  0  0  0  0  0  0  0
  151.7574  136.9370  155.2577 O   0  0  0  0  0  0  0  0  0  0  0  0
  151.4867  137.5108  153.9867 C   0  0  0  0  0  0  0  0  0  0  0  0
  150.5294  138.6993  154.1704 C   0  0  0  0  0  0  0  0  0  0  0  0
  151.1294  139.6457  155.0447 O   0  0  0  0  0  0  0  0  0  0  0  0
  150.4827  141.3795  156.7049 H   0  0  0  0  0  0  0  0  0  0  0  0
  152.6285  141.2950  159.5111 H   0  0  0  0  0  0  0  0  0  0  0  0
  153.2385  143.2488  160.9374 H   0  0  0  0  0  0  0  0  0  0  0  0
  152.5387  145.5488  160.2102 H   0  0  0  0  0  0  0  0  0  0  0  0
  151.2504  145.7786  158.0693 H   0  0  0  0  0  0  0  0  0  0  0  0
  150.4733  138.7461  156.7801 H   0  0  0  0  0  0  0  0  0  0  0  0
  153.3245  138.1979  155.7366 H   0  0  0  0  0  0  0  0  0  0  0  0
  152.5521  137.3844  157.0876 H   0  0  0  0  0  0  0  0  0  0  0  0
  152.4153  137.8279  153.5094 H   0  0  0  0  0  0  0  0  0  0  0  0
  151.0351  136.7555  153.3434 H   0  0  0  0  0  0  0  0  0  0  0  0
  150.3296  139.1777  153.2116 H   0  0  0  0  0  0  0  0  0  0  0  0
  149.5701  138.3690  154.5720 H   0  0  0  0  0  0  0  0  0  0  0  0
  1  2  2  0  0  0  0
  2  3  1  0  0  0  0
  2 10  1  0  0  0  0
  3  4  1  0  0  0  0
  3 16  1  0  0  0  0
  4  9  1  0  0  0  0
  4  5  2  0  0  0  0
  5  6  1  0  0  0  0
  5 17  1  0  0  0  0
  6  7  2  0  0  0  0
  6 18  1  0  0  0  0
  7  8  1  0  0  0  0
  7 19  1  0  0  0  0
  8  9  2  0  0  0  0
  8 20  1  0  0  0  0
 10 15  1  0  0  0  0
 10 11  1  0  0  0  0
 10 21  1  0  0  0  0
 11 12  1  0  0  0  0
 11 22  1  0  0  0  0
 11 23  1  0  0  0  0
 12 13  1  0  0  0  0
 13 14  1  0  0  0  0
 13 24  1  0  0  0  0
 13 25  1  0  0  0  0
 14 15  1  0  0  0  0
 14 26  1  0  0  0  0
 14 27  1  0  0  0  0
M  END
> <s_m_source_file>
AV-unprocessed.smi

> <i_m_source_file_index>
1204

> <i_lp_mmshare_version>
43012

> <i_f3d_flags>
0

> <s_epik_input>
TzFbQ0gyXVtDSDJdT1tDSDJdW0NASF0xQyg9TylbTkhdYzJbY0hdW2NIXVtjSF1bY0hdbjI=

> <s_epik_cmdline>
J2VwaWtfcHl0aG9uJywgJy1waCcsICc3LjAnLCAnLXRuJywgJzgnLCAnLW1hJywgJzIwMCcsICctbWV0YWxfYmluZGluZycsICctaW1hZScsICc8aW5maWxlLm1hZT4nLCAnLW9tYWUnLCAnPG91dGZpbGUubWFlPic=

> <r_epik_Ionization_Penalty>
0.0014012

> <r_epik_Ionization_Penalty_Charging>
0

> <r_epik_Ionization_Penalty_Neutral>
0.0014012

> <r_epik_State_Penalty>
0.00242437

> <r_epik_Charging_Adjusted_Penalty>
0.00242437

> <i_epik_Tot_Q>
0

> <i_epik_Tot_abs_Q>
0

> <r_epik_Metal_State_Penalty>
-0

> <b_epik_Metal_Only>
0

> <s_lp_Force_Field>
OPLS_2005

> <r_lp_Energy>
11.5524

> <b_lp_Chiralities_Consistent>
1

> <s_lp_Variant>
AV-unprocessed.smi:1204-1

> <Gold.Version>
5.8.1

> <Gold.Id.Protein>
6NUR|6NUR_protein|mol2

> <Gold.PLP.Fitness>
36.4461

> <Gold.PLP.PLP>
-29.2392

> <Gold.PLP.part.hbond>
-3.0000

> <Gold.PLP.part.metal>
0.0000

> <Gold.PLP.part.buried>
-2.7569

> <Gold.PLP.part.nonpolar>
-25.0833

> <Gold.PLP.part.repulsive>
0.3527

> <Gold.PLP.ligand.clash>
0.0000

> <Gold.PLP.ligand.torsion>
0.3725

> <Gold.PLP.Chemscore.Hbond>
2.6500

> <Gold.PLP.Chemscore.CHOScore>
0.0000

> <Gold.PLP.Chemscore.Metal>
0.0000

> <Gold.Chemscore.Hbonds>
donor molecule, donor type, donor heavy atom, donor atom, acceptor molecule, acceptor atom, score
      P1  H  7989  7998       L1    15  0.59
      P1  H  7997  8010       L1     1  1.00
      P1  H 10752 10763       L1    12  1.00

> <Gold.PLP.Chemscore.Internal.Correction>
0.0018

> <Gold.Rescore>
     Score         DG    S(hbond)    S(metal)    S(lipo)     H(rot)  DE(clash)    DE(int)     intcor
     15.10     -16.97       1.50        0.00      77.19       1.00       0.12       1.74       ----

> <Gold.Chemscore.Fitness>
15.1036

> <Gold.Chemscore.DG>
-16.9678

> <Gold.Chemscore.ZeroCoef>
-5.4800

> <Gold.Chemscore.Hbond>
1.5018

> <Gold.Chemscore.Metal>
0.0000

> <Gold.Chemscore.Lipo>
77.1948

> <Gold.Chemscore.Internal_Hbond>
0.0000

> <Gold.Chemscore.DEClash>
0.1234

> <Gold.Chemscore.DEInternal>
1.7408

> <Gold.Chemscore.Rot>
1.0000

> <Gold.Chemscore.Internal.Correction>
   9.000000E+99

> <Gold.Chemscore.Hbonds>
donor molecule, donor type, donor heavy atom, donor atom, acceptor molecule, acceptor atom, score
      P1  H  7989  7998       L1    15  0.04
      P1  H  7997  8010       L1     1  0.92
      P1  H 10752 10763       L1    12  0.25

> <Gold.Chemscore.Hbond.Weighted>
-5.0160

> <Gold.Chemscore.Metal.Weighted>
-0.0000

> <Gold.Chemscore.Lipo.Weighted>
-9.0318

> <Gold.Chemscore.Internal_Hbond.Weighted>
0.0000

> <Gold.Chemscore.DEClash.Weighted>
0.1234

> <Gold.Chemscore.DEInternal.Weighted>
1.7408

> <Gold.Chemscore.Rot.Weighted>
2.5600

> <Gold.Chemscore.Internal.Correction.Weighted>
   9.000000E+99

> <Gold.Protein.RotatedTorsions>
[ 6907 6896 6895 6894 ] final  126.88 input  -60.11 | X-H torsion
[ 7974 7965 7964 7962 ] final -144.33 input  175.53 | X-H torsion
[ 8008 7997 7996 7995 ] final   32.97 input   59.86 | X-H torsion
[ 10167 10162 10161 10158 ] final  -68.94 input  -65.29 | X-H torsion
[ 10718 10713 10712 10709 ] final   -1.15 input   66.30 | X-H torsion
[ 10763 10752 10751 10750 ] final   73.43 input  -60.55 | X-H torsion
[ 11005 11000 10999 10996 ] final  122.16 input  -57.11 | X-H torsion

> <Gold.Protein.ActiveResidues>
 VAL166  LYS551  ARG553  GLY616  TRP617  ASP618  TYR619  PRO620  LYS621  CYS622 
 ASP623  PHE694  ASN695  SER759  ASP760  ASP761  ALA762  ILE779  LEU786  VAL792 
 PHE793  MET794  SER795  GLU796  ALA797  LYS798  CYS799  TRP800  GLU811  SER814 

> <Gold.Protein.RotatedAtoms>
  152.3863  133.6616  159.6201 H   0  0  0  0  0  0  0  0  0  0  0  0  # atno 6907 bound_to 6896
  150.7781  133.9029  159.3355 H   0  0  0  0  0  0  0  0  0  0  0  0  # atno 6908 bound_to 6896
  151.6825  135.0961  160.0270 H   0  0  0  0  0  0  0  0  0  0  0  0  # atno 6909 bound_to 6896
  144.8305  140.5723  143.5518 H   0  0  0  0  0  0  0  0  0  0  0  0  # atno 7974 bound_to 7965
  155.1310  140.3257  155.4474 H   0  0  0  0  0  0  0  0  0  0  0  0  # atno 8008 bound_to 7997
  156.2634  140.2010  156.6378 H   0  0  0  0  0  0  0  0  0  0  0  0  # atno 8009 bound_to 7997
  154.6612  140.0547  157.0051 H   0  0  0  0  0  0  0  0  0  0  0  0  # atno 8010 bound_to 7997
  140.5469  143.2313  151.6985 H   0  0  0  0  0  0  0  0  0  0  0  0  # atno 10167 bound_to 10162
  156.8099  130.5421  149.5710 H   0  0  0  0  0  0  0  0  0  0  0  0  # atno 10718 bound_to 10713
  153.0521  135.5063  154.7892 H   0  0  0  0  0  0  0  0  0  0  0  0  # atno 10763 bound_to 10752
  154.6746  135.2958  154.9698 H   0  0  0  0  0  0  0  0  0  0  0  0  # atno 10764 bound_to 10752
  154.0504  135.6704  153.4852 H   0  0  0  0  0  0  0  0  0  0  0  0  # atno 10765 bound_to 10752
  139.9256  134.9640  156.8068 H   0  0  0  0  0  0  0  0  0  0  0  0  # atno 11005 bound_to 11000
  145.4906  139.1489  143.3712 LP  0  0  0  0  0  0  0  0  0  0  0  0  # atno 17320 bound_to 7965
  146.2608  140.5044  142.8854 LP  0  0  0  0  0  0  0  0  0  0  0  0  # atno 17321 bound_to 7965
  139.5011  144.3880  152.0308 LP  0  0  0  0  0  0  0  0  0  0  0  0  # atno 17342 bound_to 10162
  140.2994  144.3664  150.6065 LP  0  0  0  0  0  0  0  0  0  0  0  0  # atno 17343 bound_to 10162
  156.1051  130.5998  150.9957 LP  0  0  0  0  0  0  0  0  0  0  0  0  # atno 17370 bound_to 10713
  157.6511  131.0897  150.8049 LP  0  0  0  0  0  0  0  0  0  0  0  0  # atno 17371 bound_to 10713
  140.6345  133.9875  155.7677 LP  0  0  0  0  0  0  0  0  0  0  0  0  # atno 17394 bound_to 11000
  141.0812  134.0060  157.3383 LP  0  0  0  0  0  0  0  0  0  0  0  0  # atno 17395 bound_to 11000

$$$$
