AV-unprocessed.smi:1644|AV-procd|sdf|6587|dock8
  -GOLD-   22720 7283D 1   1.00000     0.00000
 Structure written by MMmdl.
 49 51  0  0  0  0  0  0  0  0  1 V2000
  153.1656  131.5667  165.2545 C   0  0  0  0  0  0  0  0  0  0  0  0
  154.4346  132.3660  164.9412 C   0  0  0  0  0  0  0  0  0  0  0  0
  154.1724  133.8846  164.8799 C   0  0  0  0  0  0  0  0  0  0  0  0
  155.1188  134.6934  163.9638 C   0  0  1  0  0  0  0  0  0  0  0  0
  155.1343  134.2198  162.5954 N   0  0  0  0  0  0  0  0  0  0  0  0
  154.8004  135.1751  161.7185 C   0  0  0  0  0  0  0  0  0  0  0  0
  154.7305  135.0199  160.5004 O   0  0  0  0  0  0  0  0  0  0  0  0
  154.5606  136.3145  162.3967 N   0  0  0  0  0  0  0  0  0  0  0  0
  154.1681  137.5879  161.7755 C   0  0  0  0  0  0  0  0  0  0  0  0
  155.1444  138.7605  162.0518 C   0  0  1  0  0  0  0  0  0  0  0  0
  156.2079  138.6605  161.1283 O   0  0  0  0  0  0  0  0  0  0  0  0
  154.5574  140.1856  161.9269 C   0  0  0  0  0  0  0  0  0  0  0  0
  153.9055  140.4583  160.6575 N   0  0  0  0  0  0  0  0  0  0  0  0
  153.8253  139.6257  159.6014 C   0  0  0  0  0  0  0  0  0  0  0  0
  153.1731  140.0622  158.5281 N   0  0  0  0  0  0  0  0  0  0  0  0
  152.8060  141.3356  158.9250 C   0  0  0  0  0  0  0  0  0  0  0  0
  152.0714  142.3289  158.2420 C   0  0  0  0  0  0  0  0  0  0  0  0
  151.8037  143.5770  158.8473 C   0  0  0  0  0  0  0  0  0  0  0  0
  151.0015  144.6131  158.0803 C   0  0  0  0  0  0  0  0  0  0  0  0
  152.2835  143.8499  160.1530 C   0  0  0  0  0  0  0  0  0  0  0  0
  152.0083  145.1832  160.8252 C   0  0  0  0  0  0  0  0  0  0  0  0
  153.0244  142.8709  160.8468 C   0  0  0  0  0  0  0  0  0  0  0  0
  153.2679  141.6244  160.2428 C   0  0  0  0  0  0  0  0  0  0  0  0
  154.6819  136.1255  163.7183 C   0  0  0  0  0  0  0  0  0  0  0  0
  154.4877  136.9473  164.6138 O   0  0  0  0  0  0  0  0  0  0  0  0
  153.3823  130.4996  165.3053 H   0  0  0  0  0  0  0  0  0  0  0  0
  152.4065  131.7159  164.4863 H   0  0  0  0  0  0  0  0  0  0  0  0
  152.7382  131.8653  166.2121 H   0  0  0  0  0  0  0  0  0  0  0  0
  155.1846  132.1478  165.7020 H   0  0  0  0  0  0  0  0  0  0  0  0
  154.8450  132.0160  163.9936 H   0  0  0  0  0  0  0  0  0  0  0  0
  153.1428  134.0579  164.5641 H   0  0  0  0  0  0  0  0  0  0  0  0
  154.2417  134.2918  165.8893 H   0  0  0  0  0  0  0  0  0  0  0  0
  156.1345  134.6897  164.3611 H   0  0  0  0  0  0  0  0  0  0  0  0
  155.3667  133.2696  162.3450 H   0  0  0  0  0  0  0  0  0  0  0  0
  154.1183  137.4053  160.7005 H   0  0  0  0  0  0  0  0  0  0  0  0
  153.1567  137.8785  162.0642 H   0  0  0  0  0  0  0  0  0  0  0  0
  155.5999  138.6418  163.0330 H   0  0  0  0  0  0  0  0  0  0  0  0
  156.0718  137.8916  160.5959 H   0  0  0  0  0  0  0  0  0  0  0  0
  153.8260  140.3574  162.7178 H   0  0  0  0  0  0  0  0  0  0  0  0
  155.3481  140.9235  162.0721 H   0  0  0  0  0  0  0  0  0  0  0  0
  154.2519  138.6336  159.6288 H   0  0  0  0  0  0  0  0  0  0  0  0
  151.7101  142.1213  157.2456 H   0  0  0  0  0  0  0  0  0  0  0  0
  151.5839  145.5248  157.9461 H   0  0  0  0  0  0  0  0  0  0  0  0
  150.0865  144.8619  158.6181 H   0  0  0  0  0  0  0  0  0  0  0  0
  150.7196  144.2477  157.0924 H   0  0  0  0  0  0  0  0  0  0  0  0
  152.4238  145.2140  161.8326 H   0  0  0  0  0  0  0  0  0  0  0  0
  150.9351  145.3586  160.9017 H   0  0  0  0  0  0  0  0  0  0  0  0
  152.4536  145.9977  160.2539 H   0  0  0  0  0  0  0  0  0  0  0  0
  153.3913  143.0703  161.8421 H   0  0  0  0  0  0  0  0  0  0  0  0
  1  2  1  0  0  0  0
  1 26  1  0  0  0  0
  1 27  1  0  0  0  0
  1 28  1  0  0  0  0
  2  3  1  0  0  0  0
  2 29  1  0  0  0  0
  2 30  1  0  0  0  0
  3  4  1  0  0  0  0
  3 31  1  0  0  0  0
  3 32  1  0  0  0  0
  4 24  1  0  0  0  0
  4  5  1  0  0  0  0
  4 33  1  0  0  0  0
  5  6  1  0  0  0  0
  5 34  1  0  0  0  0
  6  7  2  0  0  0  0
  6  8  1  0  0  0  0
  8  9  1  0  0  0  0
  8 24  1  0  0  0  0
  9 10  1  0  0  0  0
  9 35  1  0  0  0  0
  9 36  1  0  0  0  0
 10 11  1  0  0  0  0
 10 12  1  0  0  0  0
 10 37  1  0  0  0  0
 11 38  1  0  0  0  0
 12 13  1  0  0  0  0
 12 39  1  0  0  0  0
 12 40  1  0  0  0  0
 13 23  1  0  0  0  0
 13 14  1  0  0  0  0
 14 15  2  0  0  0  0
 14 41  1  0  0  0  0
 15 16  1  0  0  0  0
 16 23  2  0  0  0  0
 16 17  1  0  0  0  0
 17 18  2  0  0  0  0
 17 42  1  0  0  0  0
 18 19  1  0  0  0  0
 18 20  1  0  0  0  0
 19 43  1  0  0  0  0
 19 44  1  0  0  0  0
 19 45  1  0  0  0  0
 20 21  1  0  0  0  0
 20 22  2  0  0  0  0
 21 46  1  0  0  0  0
 21 47  1  0  0  0  0
 21 48  1  0  0  0  0
 22 23  1  0  0  0  0
 22 49  1  0  0  0  0
 24 25  2  0  0  0  0
M  END
> <s_m_source_file>
AV-unprocessed.smi

> <i_m_source_file_index>
1644

> <i_lp_mmshare_version>
43012

> <i_f3d_flags>
0

> <s_epik_input>
W0NIM11bQ0gyXVtDSDJdW0NAQEhdMVtOSF1DKD1PKU4oQzE9TylbQ0gyXVtDQEhdKFtPSF0pW0NIMl1uKFtjSF1uMiljKGMyMylbY0hdYyhbQ0gzXSljKFtjSF0zKVtDSDNd

> <s_epik_cmdline>
J2VwaWtfcHl0aG9uJywgJy1waCcsICc3LjAnLCAnLXRuJywgJzgnLCAnLW1hJywgJzIwMCcsICctbWV0YWxfYmluZGluZycsICctaW1hZScsICc8aW5maWxlLm1hZT4nLCAnLW9tYWUnLCAnPG91dGZpbGUubWFlPic=

> <r_lp_tautomer_probability>
1

> <r_epik_Ionization_Penalty>
0.10693

> <r_epik_Ionization_Penalty_Charging>
0

> <r_epik_Ionization_Penalty_Neutral>
0.10693

> <r_epik_State_Penalty>
0.096713

> <r_epik_Charging_Adjusted_Penalty>
0.096713

> <i_epik_Tot_Q>
0

> <i_epik_Tot_abs_Q>
0

> <r_epik_Metal_State_Penalty>
0.102757

> <b_epik_Metal_Only>
0

> <s_lp_Force_Field>
OPLS_2005

> <r_lp_Energy>
20.3603

> <b_lp_Chiralities_Consistent>
1

> <s_lp_Variant>
AV-unprocessed.smi:1644-4

> <Gold.Version>
5.8.1

> <Gold.Id.Protein>
6NUR|6NUR_protein|mol2

> <Gold.PLP.Fitness>
57.1500

> <Gold.PLP.PLP>
-52.8273

> <Gold.PLP.part.hbond>
-1.8655

> <Gold.PLP.part.metal>
0.0000

> <Gold.PLP.part.buried>
-5.4424

> <Gold.PLP.part.nonpolar>
-44.6645

> <Gold.PLP.part.repulsive>
0.1305

> <Gold.PLP.ligand.clash>
0.3504

> <Gold.PLP.ligand.torsion>
0.4673

> <Gold.PLP.Chemscore.Hbond>
1.8363

> <Gold.PLP.Chemscore.CHOScore>
0.0000

> <Gold.PLP.Chemscore.Metal>
0.0000

> <Gold.Chemscore.Hbonds>
donor molecule, donor type, donor heavy atom, donor atom, acceptor molecule, acceptor atom, score
      P1  H  6896  6908       L1     7  0.29
      P1  H  7997  8008       L1    15  0.91

> <Gold.PLP.Chemscore.Internal.Correction>
0.0989

> <Gold.Rescore>
     Score         DG    S(hbond)    S(metal)    S(lipo)     H(rot)  DE(clash)    DE(int)     intcor
     17.98     -20.08       1.59        0.00     138.98       2.72       0.38       1.71       ----

> <Gold.Chemscore.Fitness>
17.9816

> <Gold.Chemscore.DG>
-20.0761

> <Gold.Chemscore.ZeroCoef>
-5.4800

> <Gold.Chemscore.Hbond>
1.5872

> <Gold.Chemscore.Metal>
0.0000

> <Gold.Chemscore.Lipo>
138.9829

> <Gold.Chemscore.Internal_Hbond>
0.0000

> <Gold.Chemscore.DEClash>
0.3820

> <Gold.Chemscore.DEInternal>
1.7125

> <Gold.Chemscore.Rot>
2.7212

> <Gold.Chemscore.Internal.Correction>
   9.000000E+99

> <Gold.Chemscore.Hbonds>
donor molecule, donor type, donor heavy atom, donor atom, acceptor molecule, acceptor atom, score
      P1  H  6896  6908       L1     7  0.22
      P1  H  7997  8008       L1    15  0.35

> <Gold.Chemscore.Hbond.Weighted>
-5.3014

> <Gold.Chemscore.Metal.Weighted>
-0.0000

> <Gold.Chemscore.Lipo.Weighted>
-16.2610

> <Gold.Chemscore.Internal_Hbond.Weighted>
0.0000

> <Gold.Chemscore.DEClash.Weighted>
0.3820

> <Gold.Chemscore.DEInternal.Weighted>
1.7125

> <Gold.Chemscore.Rot.Weighted>
6.9663

> <Gold.Chemscore.Internal.Correction.Weighted>
   9.000000E+99

> <Gold.Protein.RotatedTorsions>
[ 6907 6896 6895 6894 ] final  -40.54 input  -60.11 | X-H torsion
[ 7974 7965 7964 7962 ] final   86.54 input  175.53 | X-H torsion
[ 8008 7997 7996 7995 ] final  -82.90 input   59.86 | X-H torsion
[ 10167 10162 10161 10158 ] final   -4.33 input  -65.29 | X-H torsion
[ 10718 10713 10712 10709 ] final -138.17 input   66.30 | X-H torsion
[ 10763 10752 10751 10750 ] final  174.72 input  -60.55 | X-H torsion
[ 11005 11000 10999 10996 ] final  109.84 input  -57.11 | X-H torsion

> <Gold.Protein.ActiveResidues>
 VAL166  LYS551  ARG553  GLY616  TRP617  ASP618  TYR619  PRO620  LYS621  CYS622 
 ASP623  PHE694  ASN695  SER759  ASP760  ASP761  ALA762  ILE779  LEU786  VAL792 
 PHE793  MET794  SER795  GLU796  ALA797  LYS798  CYS799  TRP800  GLU811  SER814 

> <Gold.Protein.RotatedAtoms>
  150.9772  134.9134  159.7822 H   0  0  0  0  0  0  0  0  0  0  0  0  # atno 6907 bound_to 6896
  152.5210  134.3460  159.9244 H   0  0  0  0  0  0  0  0  0  0  0  0  # atno 6908 bound_to 6896
  151.3467  133.3900  159.2711 H   0  0  0  0  0  0  0  0  0  0  0  0  # atno 6909 bound_to 6896
  145.5709  139.2314  143.2406 H   0  0  0  0  0  0  0  0  0  0  0  0  # atno 7974 bound_to 7965
  154.6135  140.0626  156.9524 H   0  0  0  0  0  0  0  0  0  0  0  0  # atno 8008 bound_to 7997
  155.1935  140.3309  155.4336 H   0  0  0  0  0  0  0  0  0  0  0  0  # atno 8009 bound_to 7997
  156.2390  140.1877  156.7023 H   0  0  0  0  0  0  0  0  0  0  0  0  # atno 8010 bound_to 7997
  140.6923  143.6436  150.8413 H   0  0  0  0  0  0  0  0  0  0  0  0  # atno 10167 bound_to 10162
  156.2963  130.7403  151.1443 H   0  0  0  0  0  0  0  0  0  0  0  0  # atno 10718 bound_to 10713
  154.4578  135.2767  155.1735 H   0  0  0  0  0  0  0  0  0  0  0  0  # atno 10763 bound_to 10752
  154.3535  135.6145  153.5658 H   0  0  0  0  0  0  0  0  0  0  0  0  # atno 10764 bound_to 10752
  152.9852  135.5817  154.4935 H   0  0  0  0  0  0  0  0  0  0  0  0  # atno 10765 bound_to 10752
  139.8870  134.9469  156.6187 H   0  0  0  0  0  0  0  0  0  0  0  0  # atno 11005 bound_to 11000
  146.1785  140.6536  142.9200 LP  0  0  0  0  0  0  0  0  0  0  0  0  # atno 17320 bound_to 7965
  144.7438  140.5013  143.6850 LP  0  0  0  0  0  0  0  0  0  0  0  0  # atno 17321 bound_to 7965
  140.0151  143.5602  152.2823 LP  0  0  0  0  0  0  0  0  0  0  0  0  # atno 17342 bound_to 10162
  139.6340  144.7648  151.2477 LP  0  0  0  0  0  0  0  0  0  0  0  0  # atno 17343 bound_to 10162
  157.7356  131.0570  150.5460 LP  0  0  0  0  0  0  0  0  0  0  0  0  # atno 17370 bound_to 10713
  156.5582  130.4249  149.6075 LP  0  0  0  0  0  0  0  0  0  0  0  0  # atno 17371 bound_to 10713
  140.7756  133.8702  155.8526 LP  0  0  0  0  0  0  0  0  0  0  0  0  # atno 17394 bound_to 11000
  140.9805  134.1412  157.4499 LP  0  0  0  0  0  0  0  0  0  0  0  0  # atno 17395 bound_to 11000

$$$$
