AV-unprocessed.smi:186|AV-procd|sdf|1467|dock4
  -GOLD-   2262019283D 1   1.00000     0.00000
 Structure written by MMmdl.
 48 51  0  0  0  0  0  0  0  0  1 V2000
  144.7312  132.8447  150.7197 C   0  0  0  0  0  0  0  0  0  0  0  0
  145.1840  133.0071  152.0523 O   0  0  0  0  0  0  0  0  0  0  0  0
  146.5982  132.9449  152.1563 C   0  0  0  0  0  0  0  0  0  0  0  0
  147.0225  133.2339  153.5972 C   0  0  0  0  0  0  0  0  0  0  0  0
  146.6454  132.5143  154.5227 O   0  0  0  0  0  0  0  0  0  0  0  0
  147.8125  134.3027  153.7733 N   0  0  0  0  0  0  0  0  0  0  0  0
  148.3270  134.7446  155.0630 C   0  0  0  0  0  0  0  0  0  0  0  0
  147.9499  136.1843  155.4221 C   0  0  0  0  0  0  0  0  0  0  0  0
  149.3200  136.2921  155.9088 N   0  0  0  0  0  0  0  0  0  0  0  0
  149.9258  137.5722  155.7620 C   0  0  0  0  0  0  0  0  0  0  0  0
  150.1221  138.0805  154.5156 N   0  0  0  0  0  0  0  0  0  0  0  0
  150.6968  139.2734  154.3390 C   0  0  0  0  0  0  0  0  0  0  0  0
  151.1617  140.1178  155.2593 N   0  0  0  0  0  0  0  0  0  0  0  0
  150.9969  139.6129  156.5141 C   0  0  0  0  0  0  0  0  0  0  0  0
  150.3943  138.3664  156.8489 C   0  0  0  0  0  0  0  0  0  0  0  0
  150.4023  138.1982  158.2288 N   0  0  0  0  0  0  0  0  0  0  0  0
  150.9701  139.2821  158.6819 C   0  0  0  0  0  0  0  0  0  0  0  0
  151.3726  140.1804  157.7197 N   0  0  0  0  0  0  0  0  0  0  0  0
  152.0321  141.4594  157.9391 C   0  0  0  0  0  0  0  0  0  0  0  0
  151.1407  142.6938  157.6469 C   0  0  2  0  0  0  0  0  0  0  0  0
  150.5955  142.5815  156.3452 O   0  0  0  0  0  0  0  0  0  0  0  0
  151.8666  144.0365  157.7699 C   0  0  0  0  0  0  0  0  0  0  0  0
  151.4307  144.5422  159.1377 C   0  0  0  0  0  0  0  0  0  0  0  0
  150.0737  144.1414  159.1899 O   0  0  0  0  0  0  0  0  0  0  0  0
  149.9955  142.8195  158.6723 C   0  0  0  0  0  0  0  0  0  0  0  0
  149.7689  135.2472  154.9932 C   0  0  0  0  0  0  0  0  0  0  0  0
  143.6431  132.9031  150.6921 H   0  0  0  0  0  0  0  0  0  0  0  0
  145.0264  131.8740  150.3195 H   0  0  0  0  0  0  0  0  0  0  0  0
  145.1272  133.6266  150.0704 H   0  0  0  0  0  0  0  0  0  0  0  0
  146.9543  131.9554  151.8645 H   0  0  0  0  0  0  0  0  0  0  0  0
  147.0606  133.6787  151.4942 H   0  0  0  0  0  0  0  0  0  0  0  0
  148.0765  134.8430  152.9624 H   0  0  0  0  0  0  0  0  0  0  0  0
  148.1621  134.0390  155.8811 H   0  0  0  0  0  0  0  0  0  0  0  0
  147.7482  136.8197  154.5572 H   0  0  0  0  0  0  0  0  0  0  0  0
  147.1903  136.2723  156.1992 H   0  0  0  0  0  0  0  0  0  0  0  0
  150.8016  139.5958  153.3137 H   0  0  0  0  0  0  0  0  0  0  0  0
  151.1175  139.4534  159.7383 H   0  0  0  0  0  0  0  0  0  0  0  0
  152.3797  141.4864  158.9728 H   0  0  0  0  0  0  0  0  0  0  0  0
  152.9279  141.4891  157.3170 H   0  0  0  0  0  0  0  0  0  0  0  0
  149.8649  143.1764  156.2737 H   0  0  0  0  0  0  0  0  0  0  0  0
  152.9494  143.9758  157.6757 H   0  0  0  0  0  0  0  0  0  0  0  0
  151.5152  144.7381  157.0113 H   0  0  0  0  0  0  0  0  0  0  0  0
  151.9938  144.0555  159.9357 H   0  0  0  0  0  0  0  0  0  0  0  0
  151.5376  145.6219  159.2434 H   0  0  0  0  0  0  0  0  0  0  0  0
  149.0087  142.6332  158.2462 H   0  0  0  0  0  0  0  0  0  0  0  0
  150.1292  142.1212  159.4999 H   0  0  0  0  0  0  0  0  0  0  0  0
  150.5085  134.5691  155.4195 H   0  0  0  0  0  0  0  0  0  0  0  0
  150.0553  135.6226  154.0085 H   0  0  0  0  0  0  0  0  0  0  0  0
  1  2  1  0  0  0  0
  1 27  1  0  0  0  0
  1 28  1  0  0  0  0
  1 29  1  0  0  0  0
  2  3  1  0  0  0  0
  3  4  1  0  0  0  0
  3 30  1  0  0  0  0
  3 31  1  0  0  0  0
  4  5  2  0  0  0  0
  4  6  1  0  0  0  0
  6  7  1  0  0  0  0
  6 32  1  0  0  0  0
  7 26  1  0  0  0  0
  7  8  1  0  0  0  0
  7 33  1  0  0  0  0
  8  9  1  0  0  0  0
  8 34  1  0  0  0  0
  8 35  1  0  0  0  0
  9 10  1  0  0  0  0
  9 26  1  0  0  0  0
 10 15  1  0  0  0  0
 10 11  2  0  0  0  0
 11 12  1  0  0  0  0
 12 13  2  0  0  0  0
 12 36  1  0  0  0  0
 13 14  1  0  0  0  0
 14 18  1  0  0  0  0
 14 15  2  0  0  0  0
 15 16  1  0  0  0  0
 16 17  2  0  0  0  0
 17 18  1  0  0  0  0
 17 37  1  0  0  0  0
 18 19  1  0  0  0  0
 19 20  1  0  0  0  0
 19 38  1  0  0  0  0
 19 39  1  0  0  0  0
 20 25  1  0  0  0  0
 20 21  1  0  0  0  0
 20 22  1  0  0  0  0
 21 40  1  0  0  0  0
 22 23  1  0  0  0  0
 22 41  1  0  0  0  0
 22 42  1  0  0  0  0
 23 24  1  0  0  0  0
 23 43  1  0  0  0  0
 23 44  1  0  0  0  0
 24 25  1  0  0  0  0
 25 45  1  0  0  0  0
 25 46  1  0  0  0  0
 26 47  1  0  0  0  0
 26 48  1  0  0  0  0
M  END
> <s_m_source_file>
AV-unprocessed.smi

> <i_m_source_file_index>
186

> <i_lp_mmshare_version>
43012

> <i_f3d_flags>
0

> <s_epik_input>
W0NIM11PW0NIMl1DKD1PKVtOSF1bQ0hdMVtDSDJdTihbQ0gyXTEpYyhuW2NIXW4yKWMoYzIzKW5bY0hdbjNbQ0gyXVtDQEBdNChbT0hdKVtDSDJdW0NIMl1PW0NIMl00

> <s_epik_cmdline>
J2VwaWtfcHl0aG9uJywgJy1waCcsICc3LjAnLCAnLXRuJywgJzgnLCAnLW1hJywgJzIwMCcsICctbWV0YWxfYmluZGluZycsICctaW1hZScsICc8aW5maWxlLm1hZT4nLCAnLW9tYWUnLCAnPG91dGZpbGUubWFlPic=

> <r_lp_tautomer_probability>
1

> <r_epik_Ionization_Penalty>
0.00138671

> <r_epik_Ionization_Penalty_Charging>
0

> <r_epik_Ionization_Penalty_Neutral>
0.00138671

> <r_epik_State_Penalty>
0.000746021

> <r_epik_Charging_Adjusted_Penalty>
0.000746021

> <i_epik_Tot_Q>
0

> <i_epik_Tot_abs_Q>
0

> <r_epik_Metal_State_Penalty>
-0

> <b_epik_Metal_Only>
0

> <s_lp_Force_Field>
OPLS_2005

> <r_lp_Energy>
43.6542

> <b_lp_Chiralities_Consistent>
1

> <s_lp_Variant>
AV-unprocessed.smi:186-2

> <Gold.Version>
5.8.1

> <Gold.Id.Protein>
6NUR|6NUR_protein|mol2

> <Gold.PLP.Fitness>
43.6432

> <Gold.PLP.PLP>
-35.0996

> <Gold.PLP.part.hbond>
-3.0000

> <Gold.PLP.part.metal>
0.0000

> <Gold.PLP.part.buried>
-5.0608

> <Gold.PLP.part.nonpolar>
-26.9462

> <Gold.PLP.part.repulsive>
0.6268

> <Gold.PLP.ligand.clash>
0.0000

> <Gold.PLP.ligand.torsion>
0.5096

> <Gold.PLP.Chemscore.Hbond>
2.0000

> <Gold.PLP.Chemscore.CHOScore>
1.0000

> <Gold.PLP.Chemscore.Metal>
0.0000

> <Gold.Chemscore.Hbonds>
donor molecule, donor type, donor heavy atom, donor atom, acceptor molecule, acceptor atom, score
      L1  H     6    32       P1  7948  1.00
      L1  H    21    40       P1  8028  1.00
      L1  C    12    36       P1  7957  1.00

> <Gold.PLP.Chemscore.Internal.Correction>
0.5628

> <Gold.Rescore>
     Score         DG    S(hbond)    S(metal)    S(lipo)     H(rot)  DE(clash)    DE(int)     intcor
     10.60     -11.70       1.92        0.00      71.99       3.36       0.35       0.75       ----

> <Gold.Chemscore.Fitness>
10.6048

> <Gold.Chemscore.DG>
-11.7000

> <Gold.Chemscore.ZeroCoef>
-5.4800

> <Gold.Chemscore.Hbond>
1.9172

> <Gold.Chemscore.Metal>
0.0000

> <Gold.Chemscore.Lipo>
71.9922

> <Gold.Chemscore.Internal_Hbond>
0.0000

> <Gold.Chemscore.DEClash>
0.3476

> <Gold.Chemscore.DEInternal>
0.7476

> <Gold.Chemscore.Rot>
3.3620

> <Gold.Chemscore.Internal.Correction>
   9.000000E+99

> <Gold.Chemscore.Hbonds>
donor molecule, donor type, donor heavy atom, donor atom, acceptor molecule, acceptor atom, score
      L1  H     6    32       P1  7948  0.87
      L1  H    21    40       P1  8028  0.98

> <Gold.Chemscore.Hbond.Weighted>
-6.4036

> <Gold.Chemscore.Metal.Weighted>
-0.0000

> <Gold.Chemscore.Lipo.Weighted>
-8.4231

> <Gold.Chemscore.Internal_Hbond.Weighted>
0.0000

> <Gold.Chemscore.DEClash.Weighted>
0.3476

> <Gold.Chemscore.DEInternal.Weighted>
0.7476

> <Gold.Chemscore.Rot.Weighted>
8.6067

> <Gold.Chemscore.Internal.Correction.Weighted>
   9.000000E+99

> <Gold.Protein.RotatedTorsions>
[ 6907 6896 6895 6894 ] final  148.18 input  -60.11 | X-H torsion
[ 7974 7965 7964 7962 ] final -133.50 input  175.53 | X-H torsion
[ 8008 7997 7996 7995 ] final   83.26 input   59.86 | X-H torsion
[ 10167 10162 10161 10158 ] final   98.87 input  -65.29 | X-H torsion
[ 10718 10713 10712 10709 ] final   51.25 input   66.30 | X-H torsion
[ 10763 10752 10751 10750 ] final    0.62 input  -60.55 | X-H torsion
[ 11005 11000 10999 10996 ] final  111.14 input  -57.11 | X-H torsion

> <Gold.Protein.ActiveResidues>
 VAL166  LYS551  ARG553  GLY616  TRP617  ASP618  TYR619  PRO620  LYS621  CYS622 
 ASP623  PHE694  ASN695  SER759  ASP760  ASP761  ALA762  ILE779  LEU786  VAL792 
 PHE793  MET794  SER795  GLU796  ALA797  LYS798  CYS799  TRP800  GLU811  SER814 

> <Gold.Protein.RotatedAtoms>
  152.1449  133.4486  159.4784 H   0  0  0  0  0  0  0  0  0  0  0  0  # atno 6907 bound_to 6896
  150.6889  134.2260  159.4424 H   0  0  0  0  0  0  0  0  0  0  0  0  # atno 6908 bound_to 6896
  152.0153  134.9853  160.0620 H   0  0  0  0  0  0  0  0  0  0  0  0  # atno 6909 bound_to 6896
  144.9187  140.6987  143.4979 H   0  0  0  0  0  0  0  0  0  0  0  0  # atno 7974 bound_to 7965
  155.9216  140.3421  155.6177 H   0  0  0  0  0  0  0  0  0  0  0  0  # atno 8008 bound_to 7997
  155.7267  140.0790  157.2326 H   0  0  0  0  0  0  0  0  0  0  0  0  # atno 8009 bound_to 7997
  154.4070  140.1595  156.2450 H   0  0  0  0  0  0  0  0  0  0  0  0  # atno 8010 bound_to 7997
  139.7669  144.6935  151.0211 H   0  0  0  0  0  0  0  0  0  0  0  0  # atno 10167 bound_to 10162
  157.4962  130.8408  149.8262 H   0  0  0  0  0  0  0  0  0  0  0  0  # atno 10718 bound_to 10713
  153.3183  135.6967  153.7053 H   0  0  0  0  0  0  0  0  0  0  0  0  # atno 10763 bound_to 10752
  153.5903  135.3481  155.2909 H   0  0  0  0  0  0  0  0  0  0  0  0  # atno 10764 bound_to 10752
  154.8592  135.4316  154.2340 H   0  0  0  0  0  0  0  0  0  0  0  0  # atno 10765 bound_to 10752
  139.8897  134.9501  156.6387 H   0  0  0  0  0  0  0  0  0  0  0  0  # atno 11005 bound_to 11000
  145.3332  139.1753  143.4526 LP  0  0  0  0  0  0  0  0  0  0  0  0  # atno 17320 bound_to 7965
  146.3194  140.3364  142.8644 LP  0  0  0  0  0  0  0  0  0  0  0  0  # atno 17321 bound_to 7965
  140.7811  143.4632  151.0248 LP  0  0  0  0  0  0  0  0  0  0  0  0  # atno 17342 bound_to 10162
  139.8317  143.7682  152.3180 LP  0  0  0  0  0  0  0  0  0  0  0  0  # atno 17343 bound_to 10162
  156.0202  130.3798  150.1985 LP  0  0  0  0  0  0  0  0  0  0  0  0  # atno 17370 bound_to 10713
  157.0175  130.9969  151.3349 LP  0  0  0  0  0  0  0  0  0  0  0  0  # atno 17371 bound_to 10713
  140.7610  133.8817  155.8418 LP  0  0  0  0  0  0  0  0  0  0  0  0  # atno 17394 bound_to 11000
  140.9922  134.1264  157.4398 LP  0  0  0  0  0  0  0  0  0  0  0  0  # atno 17395 bound_to 11000

$$$$
