AV-unprocessed.smi:171|AV-procd|sdf|1419|dock9
  -GOLD-   2262019183D 1   1.00000     0.00000
 Structure written by MMmdl.
 56 59  0  0  0  0  0  0  0  0  1 V2000
  145.3257  132.3991  150.1551 C   0  0  0  0  0  0  0  0  0  0  0  0
  144.4419  132.6462  151.3896 C   0  0  0  0  0  0  0  0  0  0  0  0
  143.2811  133.5891  151.0388 C   0  0  0  0  0  0  0  0  0  0  0  0
  145.2420  133.1956  152.5943 C   0  0  0  0  0  0  0  0  0  0  0  0
  145.8178  132.1250  153.5534 C   0  0  1  0  0  0  0  0  0  0  0  0
  146.4763  130.9823  152.7474 C   0  0  0  0  0  0  0  0  0  0  0  0
  145.7719  130.2286  152.0790 O   0  0  0  0  0  0  0  0  0  0  0  0
  147.8124  130.8308  152.7933 N   0  0  0  0  0  0  0  0  0  0  0  0
  148.7409  131.6525  153.5688 C   0  0  0  0  0  0  0  0  0  0  0  0
  148.1162  132.9806  154.0287 C   0  0  0  0  0  0  0  0  0  0  0  0
  146.7529  132.7545  154.4985 N   0  0  0  0  0  0  0  0  0  0  0  0
  146.6412  132.4755  155.8212 C   0  0  0  0  0  0  0  0  0  0  0  0
  145.7477  131.5463  156.2526 N   0  0  0  0  0  0  0  0  0  0  0  0
  145.6467  131.2644  157.5549 C   0  0  0  0  0  0  0  0  0  0  0  0
  146.3321  131.7819  158.5769 N   0  0  0  0  0  0  0  0  0  0  0  0
  147.2311  132.7135  158.1476 C   0  0  0  0  0  0  0  0  0  0  0  0
  147.4474  133.1170  156.8005 C   0  0  0  0  0  0  0  0  0  0  0  0
  148.4331  134.0952  156.7491 N   0  0  0  0  0  0  0  0  0  0  0  0
  148.7847  134.2558  157.9955 C   0  0  0  0  0  0  0  0  0  0  0  0
  148.1192  133.4606  158.9013 N   0  0  0  0  0  0  0  0  0  0  0  0
  148.3145  133.4290  160.3421 C   0  0  0  0  0  0  0  0  0  0  0  0
  147.9064  134.7451  161.0453 C   0  0  1  0  0  0  0  0  0  0  0  0
  146.5024  134.9099  160.9187 O   0  0  0  0  0  0  0  0  0  0  0  0
  148.2564  134.7902  162.5261 C   0  0  0  0  0  0  0  0  0  0  0  0
  148.3530  136.2860  162.7949 C   0  0  0  0  0  0  0  0  0  0  0  0
  148.9586  136.8127  161.6228 O   0  0  0  0  0  0  0  0  0  0  0  0
  148.6614  135.9812  160.5016 C   0  0  2  0  0  0  0  0  0  0  0  0
  147.9567  136.7889  159.3993 C   0  0  0  0  0  0  0  0  0  0  0  0
  145.8466  133.3078  149.8516 H   0  0  0  0  0  0  0  0  0  0  0  0
  144.7290  132.0594  149.3081 H   0  0  0  0  0  0  0  0  0  0  0  0
  146.0743  131.6300  150.3445 H   0  0  0  0  0  0  0  0  0  0  0  0
  143.9959  131.6921  151.6729 H   0  0  0  0  0  0  0  0  0  0  0  0
  143.6454  134.5726  150.7399 H   0  0  0  0  0  0  0  0  0  0  0  0
  142.6133  133.7257  151.8899 H   0  0  0  0  0  0  0  0  0  0  0  0
  142.6851  133.1916  150.2167 H   0  0  0  0  0  0  0  0  0  0  0  0
  146.0578  133.8142  152.2166 H   0  0  0  0  0  0  0  0  0  0  0  0
  144.6006  133.8741  153.1589 H   0  0  0  0  0  0  0  0  0  0  0  0
  144.9769  131.6794  154.0856 H   0  0  0  0  0  0  0  0  0  0  0  0
  148.2154  130.0769  152.2557 H   0  0  0  0  0  0  0  0  0  0  0  0
  149.0438  131.0705  154.4400 H   0  0  0  0  0  0  0  0  0  0  0  0
  149.6425  131.8368  152.9844 H   0  0  0  0  0  0  0  0  0  0  0  0
  148.7455  133.4485  154.7865 H   0  0  0  0  0  0  0  0  0  0  0  0
  148.0804  133.6817  153.1945 H   0  0  0  0  0  0  0  0  0  0  0  0
  144.9121  130.5168  157.8155 H   0  0  0  0  0  0  0  0  0  0  0  0
  149.5486  134.9609  158.2900 H   0  0  0  0  0  0  0  0  0  0  0  0
  147.7374  132.5930  160.7398 H   0  0  0  0  0  0  0  0  0  0  0  0
  149.3614  133.2001  160.5454 H   0  0  0  0  0  0  0  0  0  0  0  0
  146.0783  134.1320  161.2479 H   0  0  0  0  0  0  0  0  0  0  0  0
  147.5312  134.2853  163.1658 H   0  0  0  0  0  0  0  0  0  0  0  0
  149.2315  134.3321  162.6982 H   0  0  0  0  0  0  0  0  0  0  0  0
  147.3597  136.7217  162.9103 H   0  0  0  0  0  0  0  0  0  0  0  0
  148.9345  136.5191  163.6868 H   0  0  0  0  0  0  0  0  0  0  0  0
  149.6300  135.6598  160.1167 H   0  0  0  0  0  0  0  0  0  0  0  0
  147.7164  136.1583  158.5429 H   0  0  0  0  0  0  0  0  0  0  0  0
  148.5971  137.5974  159.0461 H   0  0  0  0  0  0  0  0  0  0  0  0
  147.0314  137.2401  159.7593 H   0  0  0  0  0  0  0  0  0  0  0  0
  1  2  1  0  0  0  0
  1 29  1  0  0  0  0
  1 30  1  0  0  0  0
  1 31  1  0  0  0  0
  2  3  1  0  0  0  0
  2  4  1  0  0  0  0
  2 32  1  0  0  0  0
  3 33  1  0  0  0  0
  3 34  1  0  0  0  0
  3 35  1  0  0  0  0
  4  5  1  0  0  0  0
  4 36  1  0  0  0  0
  4 37  1  0  0  0  0
  5 11  1  0  0  0  0
  5  6  1  0  0  0  0
  5 38  1  0  0  0  0
  6  7  2  0  0  0  0
  6  8  1  0  0  0  0
  8  9  1  0  0  0  0
  8 39  1  0  0  0  0
  9 10  1  0  0  0  0
  9 40  1  0  0  0  0
  9 41  1  0  0  0  0
 10 11  1  0  0  0  0
 10 42  1  0  0  0  0
 10 43  1  0  0  0  0
 11 12  1  0  0  0  0
 12 17  1  0  0  0  0
 12 13  2  0  0  0  0
 13 14  1  0  0  0  0
 14 15  2  0  0  0  0
 14 44  1  0  0  0  0
 15 16  1  0  0  0  0
 16 20  1  0  0  0  0
 16 17  2  0  0  0  0
 17 18  1  0  0  0  0
 18 19  2  0  0  0  0
 19 20  1  0  0  0  0
 19 45  1  0  0  0  0
 20 21  1  0  0  0  0
 21 22  1  0  0  0  0
 21 46  1  0  0  0  0
 21 47  1  0  0  0  0
 22 27  1  0  0  0  0
 22 23  1  0  0  0  0
 22 24  1  0  0  0  0
 23 48  1  0  0  0  0
 24 25  1  0  0  0  0
 24 49  1  0  0  0  0
 24 50  1  0  0  0  0
 25 26  1  0  0  0  0
 25 51  1  0  0  0  0
 25 52  1  0  0  0  0
 26 27  1  0  0  0  0
 27 28  1  0  0  0  0
 27 53  1  0  0  0  0
 28 54  1  0  0  0  0
 28 55  1  0  0  0  0
 28 56  1  0  0  0  0
M  END
> <s_m_source_file>
AV-unprocessed.smi

> <i_m_source_file_index>
171

> <i_lp_mmshare_version>
43012

> <i_f3d_flags>
0

> <s_epik_input>
W0NIM11bQ0hdKFtDSDNdKVtDSDJdW0NAQEhdMUMoPU8pW05IXVtDSDJdW0NIMl1OMWMobltjSF1uMiljKGMyMyluW2NIXW4zW0NIMl1bQ0BAXTQoW09IXSlbQ0gyXVtDSDJdT1tDQEhdNFtDSDNd

> <s_epik_cmdline>
J2VwaWtfcHl0aG9uJywgJy1waCcsICc3LjAnLCAnLXRuJywgJzgnLCAnLW1hJywgJzIwMCcsICctbWV0YWxfYmluZGluZycsICctaW1hZScsICc8aW5maWxlLm1hZT4nLCAnLW9tYWUnLCAnPG91dGZpbGUubWFlPic=

> <r_lp_tautomer_probability>
1

> <r_epik_Ionization_Penalty>
0.000670584

> <r_epik_Ionization_Penalty_Charging>
0

> <r_epik_Ionization_Penalty_Neutral>
0.000670584

> <r_epik_State_Penalty>
0.000304767

> <r_epik_Charging_Adjusted_Penalty>
0.000304767

> <i_epik_Tot_Q>
0

> <i_epik_Tot_abs_Q>
0

> <r_epik_Metal_State_Penalty>
-0

> <b_epik_Metal_Only>
0

> <s_lp_Force_Field>
OPLS_2005

> <r_lp_Energy>
42.7998

> <b_lp_Chiralities_Consistent>
1

> <s_lp_Variant>
AV-unprocessed.smi:171-6

> <Gold.Version>
5.8.1

> <Gold.Id.Protein>
6NUR|6NUR_protein|mol2

> <Gold.PLP.Fitness>
43.2060

> <Gold.PLP.PLP>
-38.8357

> <Gold.PLP.part.hbond>
-3.0000

> <Gold.PLP.part.metal>
0.0000

> <Gold.PLP.part.buried>
-4.9886

> <Gold.PLP.part.nonpolar>
-30.3951

> <Gold.PLP.part.repulsive>
0.3113

> <Gold.PLP.ligand.clash>
0.0000

> <Gold.PLP.ligand.torsion>
0.8581

> <Gold.PLP.Chemscore.Hbond>
1.9076

> <Gold.PLP.Chemscore.CHOScore>
0.0000

> <Gold.PLP.Chemscore.Metal>
0.0000

> <Gold.Chemscore.Hbonds>
donor molecule, donor type, donor heavy atom, donor atom, acceptor molecule, acceptor atom, score
      L1  H     8    39       P1 10747  0.11
      P1  H  6931  6943       L1    26  0.81

> <Gold.PLP.Chemscore.Internal.Correction>
0.3638

> <Gold.Rescore>
     Score         DG    S(hbond)    S(metal)    S(lipo)     H(rot)  DE(clash)    DE(int)     intcor
      9.53     -14.87       1.70        0.00      81.84       2.29       1.19       4.15       ----

> <Gold.Chemscore.Fitness>
9.5347

> <Gold.Chemscore.DG>
-14.8747

> <Gold.Chemscore.ZeroCoef>
-5.4800

> <Gold.Chemscore.Hbond>
1.7033

> <Gold.Chemscore.Metal>
0.0000

> <Gold.Chemscore.Lipo>
81.8406

> <Gold.Chemscore.Internal_Hbond>
0.0000

> <Gold.Chemscore.DEClash>
1.1922

> <Gold.Chemscore.DEInternal>
4.1478

> <Gold.Chemscore.Rot>
2.2928

> <Gold.Chemscore.Internal.Correction>
   9.000000E+99

> <Gold.Chemscore.Hbonds>
donor molecule, donor type, donor heavy atom, donor atom, acceptor molecule, acceptor atom, score
      L1  H     8    39       P1 10747  0.09
      P1  H  6931  6943       L1    26  0.31

> <Gold.Chemscore.Hbond.Weighted>
-5.6890

> <Gold.Chemscore.Metal.Weighted>
-0.0000

> <Gold.Chemscore.Lipo.Weighted>
-9.5754

> <Gold.Chemscore.Internal_Hbond.Weighted>
0.0000

> <Gold.Chemscore.DEClash.Weighted>
1.1922

> <Gold.Chemscore.DEInternal.Weighted>
4.1478

> <Gold.Chemscore.Rot.Weighted>
5.8696

> <Gold.Chemscore.Internal.Correction.Weighted>
   9.000000E+99

> <Gold.Protein.RotatedTorsions>
[ 6907 6896 6895 6894 ] final  -64.79 input  -60.11 | X-H torsion
[ 7974 7965 7964 7962 ] final   25.18 input  175.53 | X-H torsion
[ 8008 7997 7996 7995 ] final -130.92 input   59.86 | X-H torsion
[ 10167 10162 10161 10158 ] final  -53.16 input  -65.29 | X-H torsion
[ 10718 10713 10712 10709 ] final   17.61 input   66.30 | X-H torsion
[ 10763 10752 10751 10750 ] final  -53.54 input  -60.55 | X-H torsion
[ 11005 11000 10999 10996 ] final -166.22 input  -57.11 | X-H torsion

> <Gold.Protein.ActiveResidues>
 VAL166  LYS551  ARG553  GLY616  TRP617  ASP618  TYR619  PRO620  LYS621  CYS622 
 ASP623  PHE694  ASN695  SER759  ASP760  ASP761  ALA762  ILE779  LEU786  VAL792 
 PHE793  MET794  SER795  GLU796  ALA797  LYS798  CYS799  TRP800  GLU811  SER814 

> <Gold.Protein.RotatedAtoms>
  150.7563  134.6249  159.6155 H   0  0  0  0  0  0  0  0  0  0  0  0  # atno 6907 bound_to 6896
  152.3544  134.6957  160.0235 H   0  0  0  0  0  0  0  0  0  0  0  0  # atno 6908 bound_to 6896
  151.7368  133.3284  159.3391 H   0  0  0  0  0  0  0  0  0  0  0  0  # atno 6909 bound_to 6896
  146.1901  139.7501  142.8838 H   0  0  0  0  0  0  0  0  0  0  0  0  # atno 7974 bound_to 7965
  155.3038  140.0454  157.3031 H   0  0  0  0  0  0  0  0  0  0  0  0  # atno 8008 bound_to 7997
  154.5472  140.2306  155.8511 H   0  0  0  0  0  0  0  0  0  0  0  0  # atno 8009 bound_to 7997
  156.1934  140.3044  155.9385 H   0  0  0  0  0  0  0  0  0  0  0  0  # atno 8010 bound_to 7997
  140.6499  143.2559  151.4752 H   0  0  0  0  0  0  0  0  0  0  0  0  # atno 10167 bound_to 10162
  157.0846  130.6402  149.5834 H   0  0  0  0  0  0  0  0  0  0  0  0  # atno 10718 bound_to 10713
  154.1604  135.6475  153.4984 H   0  0  0  0  0  0  0  0  0  0  0  0  # atno 10763 bound_to 10752
  153.0112  135.5359  154.6716 H   0  0  0  0  0  0  0  0  0  0  0  0  # atno 10764 bound_to 10752
  154.6028  135.2945  155.0488 H   0  0  0  0  0  0  0  0  0  0  0  0  # atno 10765 bound_to 10752
  140.5669  134.5277  157.5154 H   0  0  0  0  0  0  0  0  0  0  0  0  # atno 11005 bound_to 11000
  145.3819  141.0359  143.3173 LP  0  0  0  0  0  0  0  0  0  0  0  0  # atno 17320 bound_to 7965
  144.8471  139.5380  143.6874 LP  0  0  0  0  0  0  0  0  0  0  0  0  # atno 17321 bound_to 7965
  139.5713  144.1921  152.1841 LP  0  0  0  0  0  0  0  0  0  0  0  0  # atno 17342 bound_to 10162
  140.1218  144.5366  150.6858 LP  0  0  0  0  0  0  0  0  0  0  0  0  # atno 17343 bound_to 10162
  155.9914  130.4969  150.7298 LP  0  0  0  0  0  0  0  0  0  0  0  0  # atno 17370 bound_to 10713
  157.4771  131.0899  151.0577 LP  0  0  0  0  0  0  0  0  0  0  0  0  # atno 17371 bound_to 10713
  139.9380  134.7838  156.0751 LP  0  0  0  0  0  0  0  0  0  0  0  0  # atno 17394 bound_to 11000
  141.1080  133.6653  156.2910 LP  0  0  0  0  0  0  0  0  0  0  0  0  # atno 17395 bound_to 11000

$$$$
