AV-unprocessed.smi:2410|AV-procd|sdf|9529|dock5
  -GOLD-   2272013163D 1   1.00000     0.00000
 Structure written by MMmdl.
 47 49  0  0  0  0  0  0  0  0  2 V2000
  152.1982  144.5350  161.5754 C   0  0  0  0  0  0  0  0  0  0  0  0
  152.0588  143.5994  160.3867 C   0  0  0  0  0  0  0  0  0  0  0  0
  151.1555  143.9475  159.3567 C   0  0  0  0  0  0  0  0  0  0  0  0
  151.0509  143.0720  158.2822 C   0  0  0  0  0  0  0  0  0  0  0  0
  150.2652  143.1255  157.1284 N   0  3  0  0  0  0  0  0  0  0  0  0
  150.5108  142.0281  156.3596 C   0  0  0  0  0  0  0  0  0  0  0  0
  151.4410  141.2752  157.0068 N   0  0  0  0  0  0  0  0  0  0  0  0
  152.0617  139.9992  156.6301 C   0  0  0  0  0  0  0  0  0  0  0  0
  151.1292  139.1165  155.7780 C   0  0  1  0  0  0  0  0  0  0  0  0
  151.1035  139.6408  154.4645 O   0  0  0  0  0  0  0  0  0  0  0  0
  151.6133  137.6512  155.7263 C   0  0  0  0  0  0  0  0  0  0  0  0
  152.5997  137.3593  156.7793 N   0  0  0  0  0  0  0  0  0  0  0  0
  152.0942  136.8277  157.9765 C   0  0  0  0  0  0  0  0  0  0  0  0
  152.8692  136.5309  158.9679 N   0  0  0  0  0  0  0  0  0  0  0  0
  154.2472  136.7427  158.8638 C   0  0  0  0  0  0  0  0  0  0  0  0
  155.0638  136.3548  160.0837 C   0  0  0  0  0  0  0  0  0  0  0  0
  154.7988  137.2654  157.7347 C   0  0  0  0  0  0  0  0  0  0  0  0
  156.2913  137.5198  157.5651 C   0  0  0  0  0  0  0  0  0  0  0  0
  153.9286  137.6132  156.5998 C   0  0  0  0  0  0  0  0  0  0  0  0
  154.3567  138.1059  155.5536 O   0  0  0  0  0  0  0  0  0  0  0  0
  151.8072  141.8867  158.2100 C   0  0  0  0  0  0  0  0  0  0  0  0
  152.7005  141.5271  159.2160 C   0  0  0  0  0  0  0  0  0  0  0  0
  152.8202  142.4036  160.3179 C   0  0  0  0  0  0  0  0  0  0  0  0
  153.7876  142.0378  161.4307 C   0  0  0  0  0  0  0  0  0  0  0  0
  151.5690  145.4187  161.4643 H   0  0  0  0  0  0  0  0  0  0  0  0
  153.2296  144.8729  161.6793 H   0  0  0  0  0  0  0  0  0  0  0  0
  151.9039  144.0298  162.4957 H   0  0  0  0  0  0  0  0  0  0  0  0
  150.5717  144.8552  159.4029 H   0  0  0  0  0  0  0  0  0  0  0  0
  150.0494  141.7962  155.4105 H   0  0  0  0  0  0  0  0  0  0  0  0
  152.9839  140.2208  156.0910 H   0  0  0  0  0  0  0  0  0  0  0  0
  152.3550  139.4858  157.5468 H   0  0  0  0  0  0  0  0  0  0  0  0
  150.1199  139.1685  156.1873 H   0  0  0  0  0  0  0  0  0  0  0  0
  150.3090  139.3535  154.0410 H   0  0  0  0  0  0  0  0  0  0  0  0
  150.7655  136.9629  155.7446 H   0  0  0  0  0  0  0  0  0  0  0  0
  152.0883  137.4584  154.7626 H   0  0  0  0  0  0  0  0  0  0  0  0
  151.0124  136.6879  158.0096 H   0  0  0  0  0  0  0  0  0  0  0  0
  155.7864  135.5790  159.8290 H   0  0  0  0  0  0  0  0  0  0  0  0
  154.4278  135.9699  160.8819 H   0  0  0  0  0  0  0  0  0  0  0  0
  155.6019  137.2191  160.4743 H   0  0  0  0  0  0  0  0  0  0  0  0
  156.4723  138.5777  157.3710 H   0  0  0  0  0  0  0  0  0  0  0  0
  156.6764  136.9491  156.7195 H   0  0  0  0  0  0  0  0  0  0  0  0
  156.8764  137.2429  158.4406 H   0  0  0  0  0  0  0  0  0  0  0  0
  153.2788  140.6161  159.1629 H   0  0  0  0  0  0  0  0  0  0  0  0
  154.2641  141.0749  161.2439 H   0  0  0  0  0  0  0  0  0  0  0  0
  153.2675  141.9710  162.3864 H   0  0  0  0  0  0  0  0  0  0  0  0
  154.5734  142.7887  161.5144 H   0  0  0  0  0  0  0  0  0  0  0  0
  149.6084  143.8550  156.8819 H   0  0  0  0  0  0  0  0  0  0  0  0
  1  2  1  0  0  0  0
  1 25  1  0  0  0  0
  1 26  1  0  0  0  0
  1 27  1  0  0  0  0
  2 23  1  0  0  0  0
  2  3  2  0  0  0  0
  3  4  1  0  0  0  0
  3 28  1  0  0  0  0
  4 21  2  0  0  0  0
  4  5  1  0  0  0  0
  5  6  2  0  0  0  0
  5 47  1  0  0  0  0
  6  7  1  0  0  0  0
  6 29  1  0  0  0  0
  7  8  1  0  0  0  0
  7 21  1  0  0  0  0
  8  9  1  0  0  0  0
  8 30  1  0  0  0  0
  8 31  1  0  0  0  0
  9 10  1  0  0  0  0
  9 11  1  0  0  0  0
  9 32  1  0  0  0  0
 10 33  1  0  0  0  0
 11 12  1  0  0  0  0
 11 34  1  0  0  0  0
 11 35  1  0  0  0  0
 12 19  1  0  0  0  0
 12 13  1  0  0  0  0
 13 14  2  0  0  0  0
 13 36  1  0  0  0  0
 14 15  1  0  0  0  0
 15 16  1  0  0  0  0
 15 17  2  0  0  0  0
 16 37  1  0  0  0  0
 16 38  1  0  0  0  0
 16 39  1  0  0  0  0
 17 18  1  0  0  0  0
 17 19  1  0  0  0  0
 18 40  1  0  0  0  0
 18 41  1  0  0  0  0
 18 42  1  0  0  0  0
 19 20  2  0  0  0  0
 21 22  1  0  0  0  0
 22 23  2  0  0  0  0
 22 43  1  0  0  0  0
 23 24  1  0  0  0  0
 24 44  1  0  0  0  0
 24 45  1  0  0  0  0
 24 46  1  0  0  0  0
M  CHG  1   5   1
M  END
> <s_m_source_file>
AV-unprocessed.smi

> <i_m_source_file_index>
2410

> <i_lp_mmshare_version>
43012

> <i_f3d_flags>
0

> <s_epik_input>
W0NIM11jKFtjSF0xKWMoW0NIM10pW2NIXWMoYzEyKW4oW2NIXW4yKVtDSDJdW0NASF0oW09IXSlbQ0gyXW4zW2NIXW5jKFtDSDNdKWMoW0NIM10pYzM9Tw==

> <s_epik_cmdline>
J2VwaWtfcHl0aG9uJywgJy1waCcsICc3LjAnLCAnLXRuJywgJzgnLCAnLW1hJywgJzIwMCcsICctbWV0YWxfYmluZGluZycsICctaW1hZScsICc8aW5maWxlLm1hZT4nLCAnLW9tYWUnLCAnPG91dGZpbGUubWFlPic=

> <r_lp_tautomer_probability>
1

> <r_epik_Ionization_Penalty>
1.03571

> <r_epik_Ionization_Penalty_Charging>
1.03568

> <r_epik_Ionization_Penalty_Neutral>
3.18232e-05

> <r_epik_State_Penalty>
1.08724

> <r_epik_Charging_Adjusted_Penalty>
2.12292

> <i_epik_Tot_Q>
1

> <i_epik_Tot_abs_Q>
1

> <r_epik_Metal_State_Penalty>
1.18374

> <b_epik_Metal_Only>
0

> <s_lp_Force_Field>
OPLS_2005

> <r_lp_Energy>
24.5117

> <b_lp_Chiralities_Consistent>
1

> <s_lp_Variant>
AV-unprocessed.smi:2410-4

> <Gold.Version>
5.8.1

> <Gold.Id.Protein>
6NUR|6NUR_protein|mol2

> <Gold.PLP.Fitness>
50.0757

> <Gold.PLP.PLP>
-40.8961

> <Gold.PLP.part.hbond>
-4.5751

> <Gold.PLP.part.metal>
0.0000

> <Gold.PLP.part.buried>
-3.3014

> <Gold.PLP.part.nonpolar>
-33.4293

> <Gold.PLP.part.repulsive>
0.0145

> <Gold.PLP.ligand.clash>
0.0000

> <Gold.PLP.ligand.torsion>
1.4873

> <Gold.PLP.Chemscore.Hbond>
4.0474

> <Gold.PLP.Chemscore.CHOScore>
0.0000

> <Gold.PLP.Chemscore.Metal>
0.0000

> <Gold.Chemscore.Hbonds>
donor molecule, donor type, donor heavy atom, donor atom, acceptor molecule, acceptor atom, score
      L1  H     5    47       P1  8028  1.92
      P1  H  6896  6908       L1    14  0.82
      P1  H  7989  7998       L1    10  1.00
      P1  H  7997  8009       L1    20  0.28

> <Gold.PLP.Chemscore.Internal.Correction>
0.0120

> <Gold.Rescore>
     Score         DG    S(hbond)    S(metal)    S(lipo)     H(rot)  DE(clash)    DE(int)     intcor
     18.35     -19.97       2.30        0.00     110.71       2.41       0.12       1.50       ----

> <Gold.Chemscore.Fitness>
18.3533

> <Gold.Chemscore.DG>
-19.9699

> <Gold.Chemscore.ZeroCoef>
-5.4800

> <Gold.Chemscore.Hbond>
2.3035

> <Gold.Chemscore.Metal>
0.0000

> <Gold.Chemscore.Lipo>
110.7150

> <Gold.Chemscore.Internal_Hbond>
0.0000

> <Gold.Chemscore.DEClash>
0.1171

> <Gold.Chemscore.DEInternal>
1.4996

> <Gold.Chemscore.Rot>
2.4052

> <Gold.Chemscore.Internal.Correction>
   9.000000E+99

> <Gold.Chemscore.Hbonds>
donor molecule, donor type, donor heavy atom, donor atom, acceptor molecule, acceptor atom, score
      L1  H     5    47       P1  8028  0.85
      P1  H  6896  6908       L1    14  0.38
      P1  H  7989  7998       L1    10  0.40
      P1  H  7997  8009       L1    20  0.07

> <Gold.Chemscore.Hbond.Weighted>
-7.6936

> <Gold.Chemscore.Metal.Weighted>
-0.0000

> <Gold.Chemscore.Lipo.Weighted>
-12.9537

> <Gold.Chemscore.Internal_Hbond.Weighted>
0.0000

> <Gold.Chemscore.DEClash.Weighted>
0.1171

> <Gold.Chemscore.DEInternal.Weighted>
1.4996

> <Gold.Chemscore.Rot.Weighted>
6.1573

> <Gold.Chemscore.Internal.Correction.Weighted>
   9.000000E+99

> <Gold.Protein.RotatedTorsions>
[ 6907 6896 6895 6894 ] final -103.77 input  -60.11 | X-H torsion
[ 7974 7965 7964 7962 ] final  115.52 input  175.53 | X-H torsion
[ 8008 7997 7996 7995 ] final -148.44 input   59.86 | X-H torsion
[ 10167 10162 10161 10158 ] final   76.34 input  -65.29 | X-H torsion
[ 10718 10713 10712 10709 ] final -108.79 input   66.30 | X-H torsion
[ 10763 10752 10751 10750 ] final   14.69 input  -60.55 | X-H torsion
[ 11005 11000 10999 10996 ] final  -40.33 input  -57.11 | X-H torsion

> <Gold.Protein.ActiveResidues>
 VAL166  LYS551  ARG553  GLY616  TRP617  ASP618  TYR619  PRO620  LYS621  CYS622 
 ASP623  PHE694  ASN695  SER759  ASP760  ASP761  ALA762  ILE779  LEU786  VAL792 
 PHE793  MET794  SER795  GLU796  ALA797  LYS798  CYS799  TRP800  GLU811  SER814 

> <Gold.Protein.RotatedAtoms>
  150.7255  134.0379  159.3755 H   0  0  0  0  0  0  0  0  0  0  0  0  # atno 6907 bound_to 6896
  151.8351  135.0606  160.0451 H   0  0  0  0  0  0  0  0  0  0  0  0  # atno 6908 bound_to 6896
  152.2904  133.5520  159.5590 H   0  0  0  0  0  0  0  0  0  0  0  0  # atno 6909 bound_to 6896
  145.1910  139.3000  143.4368 H   0  0  0  0  0  0  0  0  0  0  0  0  # atno 7974 bound_to 7965
  155.5917  140.0653  157.2757 H   0  0  0  0  0  0  0  0  0  0  0  0  # atno 8008 bound_to 7997
  154.4303  140.1834  156.1128 H   0  0  0  0  0  0  0  0  0  0  0  0  # atno 8009 bound_to 7997
  156.0227  140.3315  155.7060 H   0  0  0  0  0  0  0  0  0  0  0  0  # atno 8010 bound_to 7997
  139.9933  144.5741  150.7799 H   0  0  0  0  0  0  0  0  0  0  0  0  # atno 10167 bound_to 10162
  156.0504  130.5731  150.8011 H   0  0  0  0  0  0  0  0  0  0  0  0  # atno 10718 bound_to 10713
  153.1597  135.6793  153.8760 H   0  0  0  0  0  0  0  0  0  0  0  0  # atno 10763 bound_to 10752
  153.8160  135.3136  155.3406 H   0  0  0  0  0  0  0  0  0  0  0  0  # atno 10764 bound_to 10752
  154.7923  135.4827  154.0170 H   0  0  0  0  0  0  0  0  0  0  0  0  # atno 10765 bound_to 10752
  141.0167  133.6882  156.2307 H   0  0  0  0  0  0  0  0  0  0  0  0  # atno 11005 bound_to 11000
  146.3436  140.2122  142.8590 LP  0  0  0  0  0  0  0  0  0  0  0  0  # atno 17320 bound_to 7965
  145.0041  140.8658  143.5263 LP  0  0  0  0  0  0  0  0  0  0  0  0  # atno 17321 bound_to 7965
  140.7446  143.2864  151.3453 LP  0  0  0  0  0  0  0  0  0  0  0  0  # atno 17342 bound_to 10162
  139.6324  144.0695  152.2487 LP  0  0  0  0  0  0  0  0  0  0  0  0  # atno 17343 bound_to 10162
  157.5423  131.0941  150.9810 LP  0  0  0  0  0  0  0  0  0  0  0  0  # atno 17370 bound_to 10713
  157.0089  130.5629  149.5319 LP  0  0  0  0  0  0  0  0  0  0  0  0  # atno 17371 bound_to 10713
  140.6643  134.4935  157.5585 LP  0  0  0  0  0  0  0  0  0  0  0  0  # atno 17394 bound_to 11000
  139.9121  134.8322  156.1491 LP  0  0  0  0  0  0  0  0  0  0  0  0  # atno 17395 bound_to 11000

$$$$
