AV-unprocessed.smi:155|AV-procd|sdf|1276|dock2
  -GOLD-   2262018543D 1   1.00000     0.00000
 Structure written by MMmdl.
 63 66  0  0  0  0  0  0  0  0  2 V2000
  144.9580  133.1233  151.7640 C   0  0  0  0  0  0  0  0  0  0  0  0
  144.1777  133.7392  152.8626 N   0  3  0  0  0  0  0  0  0  0  0  0
  143.1000  134.6074  152.3392 C   0  0  0  0  0  0  0  0  0  0  0  0
  145.0251  134.4364  153.8621 C   0  0  0  0  0  0  0  0  0  0  0  0
  146.2797  133.6185  154.2351 C   0  0  0  0  0  0  0  0  0  0  0  0
  147.0760  134.2752  155.2726 N   0  0  0  0  0  0  0  0  0  0  0  0
  148.2690  133.5000  155.6456 C   0  0  0  0  0  0  0  0  0  0  0  0
  149.5116  133.7516  154.7660 C   0  0  0  0  0  0  0  0  0  0  0  0
  150.3827  134.9098  155.2891 C   0  0  0  0  0  0  0  0  0  0  0  0
  149.7319  136.2160  155.1772 N   0  0  0  0  0  0  0  0  0  0  0  0
  150.5164  137.3236  155.1774 C   0  0  0  0  0  0  0  0  0  0  0  0
  151.7550  137.2715  154.6184 N   0  0  0  0  0  0  0  0  0  0  0  0
  152.5406  138.3526  154.6153 C   0  0  0  0  0  0  0  0  0  0  0  0
  152.2898  139.5684  155.1044 N   0  0  0  0  0  0  0  0  0  0  0  0
  151.0455  139.6298  155.6589 C   0  0  0  0  0  0  0  0  0  0  0  0
  150.1027  138.5660  155.7370 C   0  0  0  0  0  0  0  0  0  0  0  0
  148.9394  139.0098  156.3558 N   0  0  0  0  0  0  0  0  0  0  0  0
  149.1832  140.2613  156.6335 C   0  0  0  0  0  0  0  0  0  0  0  0
  150.4209  140.7178  156.2423 N   0  0  0  0  0  0  0  0  0  0  0  0
  150.9395  142.0629  156.4112 C   0  0  0  0  0  0  0  0  0  0  0  0
  151.1969  142.4258  157.8888 C   0  0  1  0  0  0  0  0  0  0  0  0
  151.8740  141.3282  158.4669 O   0  0  0  0  0  0  0  0  0  0  0  0
  152.0476  143.7064  158.0984 C   0  0  2  0  0  0  0  0  0  0  0  0
  152.6285  143.8567  159.5071 C   0  0  0  0  0  0  0  0  0  0  0  0
  151.4857  144.4572  160.3057 C   0  0  0  0  0  0  0  0  0  0  0  0
  150.6297  145.1557  159.2472 C   0  0  0  0  0  0  0  0  0  0  0  0
  151.2579  144.8855  157.9987 O   0  0  0  0  0  0  0  0  0  0  0  0
  148.3891  136.3730  155.7340 C   0  0  0  0  0  0  0  0  0  0  0  0
  147.3544  135.6527  154.8540 C   0  0  0  0  0  0  0  0  0  0  0  0
  145.4828  133.8835  151.1839 H   0  0  0  0  0  0  0  0  0  0  0  0
  144.2998  132.5770  151.0877 H   0  0  0  0  0  0  0  0  0  0  0  0
  145.6957  132.4155  152.1402 H   0  0  0  0  0  0  0  0  0  0  0  0
  143.5128  135.4697  151.8138 H   0  0  0  0  0  0  0  0  0  0  0  0
  142.4661  134.9701  153.1490 H   0  0  0  0  0  0  0  0  0  0  0  0
  142.4630  134.0571  151.6459 H   0  0  0  0  0  0  0  0  0  0  0  0
  145.2995  135.4185  153.4725 H   0  0  0  0  0  0  0  0  0  0  0  0
  144.4408  134.6153  154.7650 H   0  0  0  0  0  0  0  0  0  0  0  0
  146.0113  132.6041  154.5330 H   0  0  0  0  0  0  0  0  0  0  0  0
  146.9083  133.5192  153.3504 H   0  0  0  0  0  0  0  0  0  0  0  0
  148.5164  133.7297  156.6824 H   0  0  0  0  0  0  0  0  0  0  0  0
  148.0380  132.4363  155.6489 H   0  0  0  0  0  0  0  0  0  0  0  0
  150.1247  132.8504  154.7902 H   0  0  0  0  0  0  0  0  0  0  0  0
  149.2461  133.8954  153.7180 H   0  0  0  0  0  0  0  0  0  0  0  0
  150.6586  134.7326  156.3295 H   0  0  0  0  0  0  0  0  0  0  0  0
  151.3112  134.9237  154.7163 H   0  0  0  0  0  0  0  0  0  0  0  0
  153.5087  138.2248  154.1539 H   0  0  0  0  0  0  0  0  0  0  0  0
  148.4579  140.8940  157.1241 H   0  0  0  0  0  0  0  0  0  0  0  0
  151.8666  142.1330  155.8403 H   0  0  0  0  0  0  0  0  0  0  0  0
  150.2434  142.7707  155.9593 H   0  0  0  0  0  0  0  0  0  0  0  0
  150.2408  142.5222  158.4045 H   0  0  0  0  0  0  0  0  0  0  0  0
  151.2485  140.6357  158.6161 H   0  0  0  0  0  0  0  0  0  0  0  0
  152.8412  143.7407  157.3509 H   0  0  0  0  0  0  0  0  0  0  0  0
  153.0041  142.9269  159.9348 H   0  0  0  0  0  0  0  0  0  0  0  0
  153.4589  144.5636  159.4792 H   0  0  0  0  0  0  0  0  0  0  0  0
  150.9088  143.6721  160.7956 H   0  0  0  0  0  0  0  0  0  0  0  0
  151.8409  145.1431  161.0751 H   0  0  0  0  0  0  0  0  0  0  0  0
  149.6145  144.7573  159.2434 H   0  0  0  0  0  0  0  0  0  0  0  0
  150.5700  146.2320  159.4098 H   0  0  0  0  0  0  0  0  0  0  0  0
  148.3611  136.0118  156.7626 H   0  0  0  0  0  0  0  0  0  0  0  0
  148.1202  137.4273  155.7936 H   0  0  0  0  0  0  0  0  0  0  0  0
  147.6673  135.6896  153.8088 H   0  0  0  0  0  0  0  0  0  0  0  0
  146.4125  136.2002  154.9048 H   0  0  0  0  0  0  0  0  0  0  0  0
  143.7152  132.9870  153.3533 H   0  0  0  0  0  0  0  0  0  0  0  0
  1  2  1  0  0  0  0
  1 30  1  0  0  0  0
  1 31  1  0  0  0  0
  1 32  1  0  0  0  0
  2  3  1  0  0  0  0
  2  4  1  0  0  0  0
  2 63  1  0  0  0  0
  3 33  1  0  0  0  0
  3 34  1  0  0  0  0
  3 35  1  0  0  0  0
  4  5  1  0  0  0  0
  4 36  1  0  0  0  0
  4 37  1  0  0  0  0
  5  6  1  0  0  0  0
  5 38  1  0  0  0  0
  5 39  1  0  0  0  0
  6 29  1  0  0  0  0
  6  7  1  0  0  0  0
  7  8  1  0  0  0  0
  7 40  1  0  0  0  0
  7 41  1  0  0  0  0
  8  9  1  0  0  0  0
  8 42  1  0  0  0  0
  8 43  1  0  0  0  0
  9 10  1  0  0  0  0
  9 44  1  0  0  0  0
  9 45  1  0  0  0  0
 10 11  1  0  0  0  0
 10 28  1  0  0  0  0
 11 16  1  0  0  0  0
 11 12  2  0  0  0  0
 12 13  1  0  0  0  0
 13 14  2  0  0  0  0
 13 46  1  0  0  0  0
 14 15  1  0  0  0  0
 15 19  1  0  0  0  0
 15 16  2  0  0  0  0
 16 17  1  0  0  0  0
 17 18  2  0  0  0  0
 18 19  1  0  0  0  0
 18 47  1  0  0  0  0
 19 20  1  0  0  0  0
 20 21  1  0  0  0  0
 20 48  1  0  0  0  0
 20 49  1  0  0  0  0
 21 22  1  0  0  0  0
 21 23  1  0  0  0  0
 21 50  1  0  0  0  0
 22 51  1  0  0  0  0
 23 27  1  0  0  0  0
 23 24  1  0  0  0  0
 23 52  1  0  0  0  0
 24 25  1  0  0  0  0
 24 53  1  0  0  0  0
 24 54  1  0  0  0  0
 25 26  1  0  0  0  0
 25 55  1  0  0  0  0
 25 56  1  0  0  0  0
 26 27  1  0  0  0  0
 26 57  1  0  0  0  0
 26 58  1  0  0  0  0
 28 29  1  0  0  0  0
 28 59  1  0  0  0  0
 28 60  1  0  0  0  0
 29 61  1  0  0  0  0
 29 62  1  0  0  0  0
M  CHG  1   2   1
M  END
> <s_m_source_file>
AV-unprocessed.smi

> <i_m_source_file_index>
155

> <i_lp_mmshare_version>
43012

> <i_f3d_flags>
0

> <s_epik_input>
W0NIM11OKFtDSDNdKVtDSDJdW0NIMl1OMVtDSDJdW0NIMl1bQ0gyXU4oW0NIMl1bQ0gyXTEpYyhuW2NIXW4yKWMoYzIzKW5bY0hdbjNbQ0gyXVtDQEhdKFtPSF0pW0NAQEhdNFtDSDJdW0NIMl1bQ0gyXU80

> <s_epik_cmdline>
J2VwaWtfcHl0aG9uJywgJy1waCcsICc3LjAnLCAnLXRuJywgJzgnLCAnLW1hJywgJzIwMCcsICctbWV0YWxfYmluZGluZycsICctaW1hZScsICc8aW5maWxlLm1hZT4nLCAnLW9tYWUnLCAnPG91dGZpbGUubWFlPic=

> <r_lp_tautomer_probability>
1

> <r_epik_Ionization_Penalty>
0.0599493

> <r_epik_Ionization_Penalty_Charging>
0.00816363

> <r_epik_Ionization_Penalty_Neutral>
0.0517857

> <r_epik_State_Penalty>
0.460607

> <r_epik_Charging_Adjusted_Penalty>
0.468771

> <i_epik_Tot_Q>
1

> <i_epik_Tot_abs_Q>
1

> <r_epik_Metal_State_Penalty>
0.45965

> <b_epik_Metal_Only>
0

> <s_lp_Force_Field>
OPLS_2005

> <r_lp_Energy>
58.8836

> <b_lp_Chiralities_Consistent>
1

> <s_lp_Variant>
AV-unprocessed.smi:155-10

> <Gold.Version>
5.8.1

> <Gold.Id.Protein>
6NUR|6NUR_protein|mol2

> <Gold.PLP.Fitness>
55.9139

> <Gold.PLP.PLP>
-46.5877

> <Gold.PLP.part.hbond>
-3.0000

> <Gold.PLP.part.metal>
0.0000

> <Gold.PLP.part.buried>
-9.3024

> <Gold.PLP.part.nonpolar>
-35.3170

> <Gold.PLP.part.repulsive>
0.3680

> <Gold.PLP.ligand.clash>
0.0000

> <Gold.PLP.ligand.torsion>
0.8228

> <Gold.PLP.Chemscore.Hbond>
3.5289

> <Gold.PLP.Chemscore.CHOScore>
0.0000

> <Gold.PLP.Chemscore.Metal>
0.0000

> <Gold.Chemscore.Hbonds>
donor molecule, donor type, donor heavy atom, donor atom, acceptor molecule, acceptor atom, score
      L1  H     2    63       P1 10957  1.43
      P1  H  7989  7998       L1    14  0.30
      P1  H 10752 10765       L1    12  1.00

> <Gold.PLP.Chemscore.Internal.Correction>
0.3853

> <Gold.Rescore>
     Score         DG    S(hbond)    S(metal)    S(lipo)     H(rot)  DE(clash)    DE(int)     intcor
     15.54     -17.68       2.25        0.00      99.32       2.71       0.09       2.05       ----

> <Gold.Chemscore.Fitness>
15.5441

> <Gold.Chemscore.DG>
-17.6847

> <Gold.Chemscore.ZeroCoef>
-5.4800

> <Gold.Chemscore.Hbond>
2.2506

> <Gold.Chemscore.Metal>
0.0000

> <Gold.Chemscore.Lipo>
99.3185

> <Gold.Chemscore.Internal_Hbond>
0.0000

> <Gold.Chemscore.DEClash>
0.0898

> <Gold.Chemscore.DEInternal>
2.0508

> <Gold.Chemscore.Rot>
2.7080

> <Gold.Chemscore.Internal.Correction>
   9.000000E+99

> <Gold.Chemscore.Hbonds>
donor molecule, donor type, donor heavy atom, donor atom, acceptor molecule, acceptor atom, score
      L1  H     2    63       P1 10957  0.53
      P1  H  7989  7998       L1    14  0.01
      P1  H  7997  8008       L1    14  0.01
      P1  H 10752 10765       L1    12  0.54

> <Gold.Chemscore.Hbond.Weighted>
-7.5170

> <Gold.Chemscore.Metal.Weighted>
-0.0000

> <Gold.Chemscore.Lipo.Weighted>
-11.6203

> <Gold.Chemscore.Internal_Hbond.Weighted>
0.0000

> <Gold.Chemscore.DEClash.Weighted>
0.0898

> <Gold.Chemscore.DEInternal.Weighted>
2.0508

> <Gold.Chemscore.Rot.Weighted>
6.9326

> <Gold.Chemscore.Internal.Correction.Weighted>
   9.000000E+99

> <Gold.Protein.RotatedTorsions>
[ 6907 6896 6895 6894 ] final  -27.93 input  -60.11 | X-H torsion
[ 7974 7965 7964 7962 ] final  133.41 input  175.53 | X-H torsion
[ 8008 7997 7996 7995 ] final   -3.44 input   59.86 | X-H torsion
[ 10167 10162 10161 10158 ] final   -0.55 input  -65.29 | X-H torsion
[ 10718 10713 10712 10709 ] final  128.82 input   66.30 | X-H torsion
[ 10763 10752 10751 10750 ] final  162.21 input  -60.55 | X-H torsion
[ 11005 11000 10999 10996 ] final  -25.30 input  -57.11 | X-H torsion

> <Gold.Protein.ActiveResidues>
 VAL166  LYS551  ARG553  GLY616  TRP617  ASP618  TYR619  PRO620  LYS621  CYS622 
 ASP623  PHE694  ASN695  SER759  ASP760  ASP761  ALA762  ILE779  LEU786  VAL792 
 PHE793  MET794  SER795  GLU796  ALA797  LYS798  CYS799  TRP800  GLU811  SER814 

> <Gold.Protein.RotatedAtoms>
  151.1401  135.0175  159.8621 H   0  0  0  0  0  0  0  0  0  0  0  0  # atno 6907 bound_to 6896
  152.5452  134.1509  159.8528 H   0  0  0  0  0  0  0  0  0  0  0  0  # atno 6908 bound_to 6896
  151.1584  133.4816  159.2627 H   0  0  0  0  0  0  0  0  0  0  0  0  # atno 6909 bound_to 6896
  144.9868  139.4447  143.5359 H   0  0  0  0  0  0  0  0  0  0  0  0  # atno 7974 bound_to 7965
  154.6248  140.2509  155.7505 H   0  0  0  0  0  0  0  0  0  0  0  0  # atno 8008 bound_to 7997
  156.2447  140.2919  156.0493 H   0  0  0  0  0  0  0  0  0  0  0  0  # atno 8009 bound_to 7997
  155.1838  140.0389  157.2877 H   0  0  0  0  0  0  0  0  0  0  0  0  # atno 8010 bound_to 7997
  140.6772  143.6881  150.8050 H   0  0  0  0  0  0  0  0  0  0  0  0  # atno 10167 bound_to 10162
  157.5210  131.1098  150.9153 H   0  0  0  0  0  0  0  0  0  0  0  0  # atno 10718 bound_to 10713
  154.2749  135.2765  155.2722 H   0  0  0  0  0  0  0  0  0  0  0  0  # atno 10763 bound_to 10752
  154.5269  135.5740  153.6730 H   0  0  0  0  0  0  0  0  0  0  0  0  # atno 10764 bound_to 10752
  152.9939  135.6218  154.2905 H   0  0  0  0  0  0  0  0  0  0  0  0  # atno 10765 bound_to 10752
  140.8925  133.7578  156.0439 H   0  0  0  0  0  0  0  0  0  0  0  0  # atno 11005 bound_to 11000
  146.3422  139.9175  142.8771 LP  0  0  0  0  0  0  0  0  0  0  0  0  # atno 17320 bound_to 7965
  145.2342  140.9985  143.3973 LP  0  0  0  0  0  0  0  0  0  0  0  0  # atno 17321 bound_to 7965
  140.0576  143.5187  152.2643 LP  0  0  0  0  0  0  0  0  0  0  0  0  # atno 17342 bound_to 10162
  139.6071  144.7599  151.3036 LP  0  0  0  0  0  0  0  0  0  0  0  0  # atno 17343 bound_to 10162
  156.9764  130.5510  149.5293 LP  0  0  0  0  0  0  0  0  0  0  0  0  # atno 17370 bound_to 10713
  156.0353  130.5441  150.8639 LP  0  0  0  0  0  0  0  0  0  0  0  0  # atno 17371 bound_to 10713
  140.8329  134.3157  157.5342 LP  0  0  0  0  0  0  0  0  0  0  0  0  # atno 17394 bound_to 11000
  139.8731  134.9373  156.3684 LP  0  0  0  0  0  0  0  0  0  0  0  0  # atno 17395 bound_to 11000

$$$$
