AV-unprocessed.smi:37|AV-procd|sdf|327|dock1
  -GOLD-   2262016153D 1   1.00000     0.00000
 Structure written by MMmdl.
 43 44  0  0  0  0  0  0  0  0  2 V2000
  149.1610  132.3493  153.4963 C   0  0  0  0  0  0  0  0  0  0  0  0
  149.5472  132.1612  154.9696 C   0  0  0  0  0  0  0  0  0  0  0  0
  148.7059  133.0285  155.9038 C   0  0  0  0  0  0  0  0  0  0  0  0
  147.8710  133.8202  155.4653 O   0  0  0  0  0  0  0  0  0  0  0  0
  148.9947  132.8263  157.1990 O   0  0  0  0  0  0  0  0  0  0  0  0
  148.2937  133.5512  158.1953 C   0  0  0  0  0  0  0  0  0  0  0  0
  148.4700  135.0546  157.9449 C   0  0  2  0  0  0  0  0  0  0  0  0
  149.8070  135.4692  158.2020 O   0  0  0  0  0  0  0  0  0  0  0  0
  149.8263  136.8193  158.5696 C   0  0  1  0  0  0  0  0  0  0  0  0
  150.6068  137.6187  157.5507 N   0  0  0  0  0  0  0  0  0  0  0  0
  150.4117  137.4398  156.1909 C   0  0  0  0  0  0  0  0  0  0  0  0
  151.1118  138.1542  155.2861 C   0  0  0  0  0  0  0  0  0  0  0  0
  150.8984  137.9625  153.9730 F   0  0  0  0  0  0  0  0  0  0  0  0
  152.0964  139.1339  155.7424 C   0  0  0  0  0  0  0  0  0  0  0  0
  152.7350  139.7792  154.9123 O   0  0  0  0  0  0  0  0  0  0  0  0
  152.2649  139.2903  157.0877 N   0  5  0  0  0  0  0  0  0  0  0  0
  151.5558  138.5728  158.0075 C   0  0  0  0  0  0  0  0  0  0  0  0
  151.6906  138.7132  159.2234 O   0  0  0  0  0  0  0  0  0  0  0  0
  148.3610  137.2850  158.7124 C   0  0  1  0  0  0  0  0  0  0  0  0
  147.6543  138.2144  157.0888 Br  0  0  0  0  0  0  0  0  0  0  0  0
  147.6312  135.9603  158.8502 C   0  0  2  0  0  0  0  0  0  0  0  0
  147.6860  135.4921  160.1943 O   0  0  0  0  0  0  0  0  0  0  0  0
  147.1110  136.1957  161.1861 C   0  0  0  0  0  0  0  0  0  0  0  0
  146.4140  137.2012  161.0487 O   0  0  0  0  0  0  0  0  0  0  0  0
  147.4246  135.6279  162.5686 C   0  0  0  0  0  0  0  0  0  0  0  0
  147.1282  134.1247  162.6622 C   0  0  0  0  0  0  0  0  0  0  0  0
  149.8109  131.7573  152.8520 H   0  0  0  0  0  0  0  0  0  0  0  0
  149.2547  133.3921  153.1914 H   0  0  0  0  0  0  0  0  0  0  0  0
  148.1342  132.0334  153.3076 H   0  0  0  0  0  0  0  0  0  0  0  0
  149.4299  131.1161  155.2568 H   0  0  0  0  0  0  0  0  0  0  0  0
  150.5990  132.4113  155.1104 H   0  0  0  0  0  0  0  0  0  0  0  0
  147.2362  133.2893  158.1415 H   0  0  0  0  0  0  0  0  0  0  0  0
  148.6500  133.2827  159.1910 H   0  0  0  0  0  0  0  0  0  0  0  0
  148.2309  135.2841  156.9051 H   0  0  0  0  0  0  0  0  0  0  0  0
  150.3909  136.8881  159.5011 H   0  0  0  0  0  0  0  0  0  0  0  0
  149.6850  136.7255  155.8345 H   0  0  0  0  0  0  0  0  0  0  0  0
  148.2415  137.9555  159.5641 H   0  0  0  0  0  0  0  0  0  0  0  0
  146.5969  136.0159  158.5076 H   0  0  0  0  0  0  0  0  0  0  0  0
  148.4737  135.8174  162.7971 H   0  0  0  0  0  0  0  0  0  0  0  0
  146.8366  136.1670  163.3119 H   0  0  0  0  0  0  0  0  0  0  0  0
  147.3204  133.7584  163.6707 H   0  0  0  0  0  0  0  0  0  0  0  0
  147.7542  133.5492  161.9791 H   0  0  0  0  0  0  0  0  0  0  0  0
  146.0853  133.9103  162.4259 H   0  0  0  0  0  0  0  0  0  0  0  0
  1  2  1  0  0  0  0
  1 27  1  0  0  0  0
  1 28  1  0  0  0  0
  1 29  1  0  0  0  0
  2  3  1  0  0  0  0
  2 30  1  0  0  0  0
  2 31  1  0  0  0  0
  3  4  2  0  0  0  0
  3  5  1  0  0  0  0
  5  6  1  0  0  0  0
  6  7  1  0  0  0  0
  6 32  1  0  0  0  0
  6 33  1  0  0  0  0
  7 21  1  0  0  0  0
  7  8  1  0  0  0  0
  7 34  1  0  0  0  0
  8  9  1  0  0  0  0
  9 10  1  0  0  0  0
  9 19  1  0  0  0  0
  9 35  1  0  0  0  0
 10 17  1  0  0  0  0
 10 11  1  0  0  0  0
 11 12  2  0  0  0  0
 11 36  1  0  0  0  0
 12 13  1  0  0  0  0
 12 14  1  0  0  0  0
 14 15  2  0  0  0  0
 14 16  1  0  0  0  0
 16 17  1  0  0  0  0
 17 18  2  0  0  0  0
 19 20  1  0  0  0  0
 19 21  1  0  0  0  0
 19 37  1  0  0  0  0
 21 22  1  0  0  0  0
 21 38  1  0  0  0  0
 22 23  1  0  0  0  0
 23 24  2  0  0  0  0
 23 25  1  0  0  0  0
 25 26  1  0  0  0  0
 25 39  1  0  0  0  0
 25 40  1  0  0  0  0
 26 41  1  0  0  0  0
 26 42  1  0  0  0  0
 26 43  1  0  0  0  0
M  CHG  1  16  -1
M  END
> <s_m_source_file>
AV-unprocessed.smi

> <i_m_source_file_index>
37

> <i_lp_mmshare_version>
43012

> <i_f3d_flags>
0

> <s_epik_input>
W0NIM11bQ0gyXUMoPU8pT1tDSDJdW0NAQEhdMU9bQ0BASF0objJbY0hdYyhGKWMoPU8pW25IXWMyPU8pW0NAQEhdKEJyKVtDQEhdMU9DKD1PKVtDSDJdW0NIM10=

> <s_epik_cmdline>
J2VwaWtfcHl0aG9uJywgJy1waCcsICc3LjAnLCAnLXRuJywgJzgnLCAnLW1hJywgJzIwMCcsICctbWV0YWxfYmluZGluZycsICctaW1hZScsICc8aW5maWxlLm1hZT4nLCAnLW9tYWUnLCAnPG91dGZpbGUubWFlPic=

> <r_epik_Ionization_Penalty>
1.08158

> <r_epik_Ionization_Penalty_Charging>
9.05154e-09

> <r_epik_Ionization_Penalty_Neutral>
1.08158

> <r_epik_State_Penalty>
1.13706

> <r_epik_Charging_Adjusted_Penalty>
1.13706

> <i_epik_Tot_Q>
-1

> <i_epik_Tot_abs_Q>
1

> <r_epik_Metal_State_Penalty>
0.00343535

> <b_epik_Metal_Only>
0

> <s_epik_Chemistry_Notes>
This compound has an ester and may undergo hydrolysis at high or low pH. This compound contains an acetal/aminal-like group ( X-CH(R)-Y where X, Y are N, S, or O) that may be acid/base labile, releasing an aldehyde.

> <s_lp_Force_Field>
OPLS_2005

> <r_lp_Energy>
34.9368

> <b_lp_Chiralities_Consistent>
1

> <s_lp_Variant>
AV-unprocessed.smi:37-25

> <Gold.Version>
5.8.1

> <Gold.Id.Protein>
6NUR|6NUR_protein|mol2

> <Gold.PLP.Fitness>
46.7110

> <Gold.PLP.PLP>
-36.8913

> <Gold.PLP.part.hbond>
-4.7211

> <Gold.PLP.part.metal>
0.0000

> <Gold.PLP.part.buried>
-4.7624

> <Gold.PLP.part.nonpolar>
-28.7323

> <Gold.PLP.part.repulsive>
0.0460

> <Gold.PLP.ligand.clash>
0.0000

> <Gold.PLP.ligand.torsion>
0.5336

> <Gold.PLP.Chemscore.Hbond>
3.4480

> <Gold.PLP.Chemscore.CHOScore>
0.0000

> <Gold.PLP.Chemscore.Metal>
0.0000

> <Gold.Chemscore.Hbonds>
donor molecule, donor type, donor heavy atom, donor atom, acceptor molecule, acceptor atom, score
      P1  H  6896  6908       L1     8  1.00
      P1  H  6934  6947       L1    24  1.00
      P1  H  7989  7998       L1    15  0.45
      P1  H  7997  8008       L1    15  0.96

> <Gold.PLP.Chemscore.Internal.Correction>
0.5428

> <Gold.Rescore>
     Score         DG    S(hbond)    S(metal)    S(lipo)     H(rot)  DE(clash)    DE(int)     intcor
      9.62     -12.48       2.78        0.00      51.83       3.27       0.02       2.84       ----

> <Gold.Chemscore.Fitness>
9.6193

> <Gold.Chemscore.DG>
-12.4808

> <Gold.Chemscore.ZeroCoef>
-5.4800

> <Gold.Chemscore.Hbond>
2.7845

> <Gold.Chemscore.Metal>
0.0000

> <Gold.Chemscore.Lipo>
51.8284

> <Gold.Chemscore.Internal_Hbond>
0.0000

> <Gold.Chemscore.DEClash>
0.0222

> <Gold.Chemscore.DEInternal>
2.8394

> <Gold.Chemscore.Rot>
3.2669

> <Gold.Chemscore.Internal.Correction>
   9.000000E+99

> <Gold.Chemscore.Hbonds>
donor molecule, donor type, donor heavy atom, donor atom, acceptor molecule, acceptor atom, score
      P1  H  6896  6908       L1     8  0.50
      P1  H  6934  6947       L1    24  0.97
      P1  H  7989  7998       L1    15  0.42
      P1  H  7997  8008       L1    15  0.59

> <Gold.Chemscore.Hbond.Weighted>
-9.3002

> <Gold.Chemscore.Metal.Weighted>
-0.0000

> <Gold.Chemscore.Lipo.Weighted>
-6.0639

> <Gold.Chemscore.Internal_Hbond.Weighted>
0.0000

> <Gold.Chemscore.DEClash.Weighted>
0.0222

> <Gold.Chemscore.DEInternal.Weighted>
2.8394

> <Gold.Chemscore.Rot.Weighted>
8.3634

> <Gold.Chemscore.Internal.Correction.Weighted>
   9.000000E+99

> <Gold.Protein.RotatedTorsions>
[ 6907 6896 6895 6894 ] final  168.09 input  -60.11 | X-H torsion
[ 7974 7965 7964 7962 ] final   61.63 input  175.53 | X-H torsion
[ 8008 7997 7996 7995 ] final   -4.09 input   59.86 | X-H torsion
[ 10167 10162 10161 10158 ] final   45.03 input  -65.29 | X-H torsion
[ 10718 10713 10712 10709 ] final  106.67 input   66.30 | X-H torsion
[ 10763 10752 10751 10750 ] final  164.90 input  -60.55 | X-H torsion
[ 11005 11000 10999 10996 ] final   -0.63 input  -57.11 | X-H torsion

> <Gold.Protein.ActiveResidues>
 VAL166  LYS551  ARG553  GLY616  TRP617  ASP618  TYR619  PRO620  LYS621  CYS622 
 ASP623  PHE694  ASN695  SER759  ASP760  ASP761  ALA762  ILE779  LEU786  VAL792 
 PHE793  MET794  SER795  GLU796  ALA797  LYS798  CYS799  TRP800  GLU811  SER814 

> <Gold.Protein.RotatedAtoms>
  151.8532  133.3443  159.3679 H   0  0  0  0  0  0  0  0  0  0  0  0  # atno 6907 bound_to 6896
  150.7200  134.5279  159.5695 H   0  0  0  0  0  0  0  0  0  0  0  0  # atno 6908 bound_to 6896
  152.2777  134.7864  160.0453 H   0  0  0  0  0  0  0  0  0  0  0  0  # atno 6909 bound_to 6896
  145.8825  139.3453  143.0697 H   0  0  0  0  0  0  0  0  0  0  0  0  # atno 7974 bound_to 7965
  154.6180  140.2493  155.7585 H   0  0  0  0  0  0  0  0  0  0  0  0  # atno 8008 bound_to 7997
  156.2410  140.2932  156.0393 H   0  0  0  0  0  0  0  0  0  0  0  0  # atno 8009 bound_to 7997
  155.1943  140.0392  157.2896 H   0  0  0  0  0  0  0  0  0  0  0  0  # atno 8010 bound_to 7997
  140.3283  144.2620  150.6172 H   0  0  0  0  0  0  0  0  0  0  0  0  # atno 10167 bound_to 10162
  157.6659  131.0856  150.6042 H   0  0  0  0  0  0  0  0  0  0  0  0  # atno 10718 bound_to 10713
  154.3160  135.2756  155.2543 H   0  0  0  0  0  0  0  0  0  0  0  0  # atno 10763 bound_to 10752
  154.4917  135.5831  153.6468 H   0  0  0  0  0  0  0  0  0  0  0  0  # atno 10764 bound_to 10752
  152.9882  135.6136  154.3341 H   0  0  0  0  0  0  0  0  0  0  0  0  # atno 10765 bound_to 10752
  140.6384  133.9511  155.8313 H   0  0  0  0  0  0  0  0  0  0  0  0  # atno 11005 bound_to 11000
  145.9006  140.9245  143.0505 LP  0  0  0  0  0  0  0  0  0  0  0  0  # atno 17320 bound_to 7965
  144.6727  140.1027  143.7459 LP  0  0  0  0  0  0  0  0  0  0  0  0  # atno 17321 bound_to 7965
  140.5421  143.2221  151.8068 LP  0  0  0  0  0  0  0  0  0  0  0  0  # atno 17342 bound_to 10162
  139.4861  144.4587  151.9567 LP  0  0  0  0  0  0  0  0  0  0  0  0  # atno 17343 bound_to 10162
  156.6343  130.4440  149.5775 LP  0  0  0  0  0  0  0  0  0  0  0  0  # atno 17370 bound_to 10713
  156.2258  130.6764  151.1414 LP  0  0  0  0  0  0  0  0  0  0  0  0  # atno 17371 bound_to 10713
  141.0624  134.0326  157.3640 LP  0  0  0  0  0  0  0  0  0  0  0  0  # atno 17394 bound_to 11000
  139.9089  135.0186  156.7608 LP  0  0  0  0  0  0  0  0  0  0  0  0  # atno 17395 bound_to 11000

$$$$
