AV-unprocessed.smi:1431|AV-procd|sdf|5830|dock1
  -GOLD-   22720 5493D 1   1.00000     0.00000
 Structure written by MMmdl.
 33 34  0  0  0  0  0  0  0  0  1 V2000
  144.5837  136.7370  152.2762 O   0  0  0  0  0  0  0  0  0  0  0  0
  145.7737  136.5642  152.0111 C   0  0  0  0  0  0  0  0  0  0  0  0
  146.7225  137.4815  152.2473 N   0  0  0  0  0  0  0  0  0  0  0  0
  146.4868  138.7991  152.8286 C   0  0  0  0  0  0  0  0  0  0  0  0
  147.7989  139.4980  153.2349 C   0  0  1  0  0  0  0  0  0  0  0  0
  147.5596  140.9098  153.8046 C   0  0  0  0  0  0  0  0  0  0  0  0
  148.8651  141.4107  154.4295 C   0  0  0  0  0  0  0  0  0  0  0  0
  149.6652  139.9274  155.1451 S   0  0  0  0  0  0  0  0  0  0  0  0
  151.0483  139.8423  154.6526 O   0  0  0  0  0  0  0  0  0  0  0  0
  149.3677  139.8569  156.5837 O   0  0  0  0  0  0  0  0  0  0  0  0
  148.6211  138.7041  154.2656 C   0  0  0  0  0  0  0  0  0  0  0  0
  146.2952  135.4584  151.4516 N   0  0  0  0  0  0  0  0  0  0  0  0
  145.6217  134.2702  151.0616 C   0  0  0  0  0  0  0  0  0  0  0  0
  146.4653  133.1928  150.7081 C   0  0  0  0  0  0  0  0  0  0  0  0
  145.8951  131.9681  150.3099 C   0  0  0  0  0  0  0  0  0  0  0  0
  144.4941  131.8523  150.2752 C   0  0  0  0  0  0  0  0  0  0  0  0
  143.7268  132.9734  150.6421 C   0  0  0  0  0  0  0  0  0  0  0  0
  144.2712  134.1480  151.0241 N   0  0  0  0  0  0  0  0  0  0  0  0
  147.6752  137.2573  151.9996 H   0  0  0  0  0  0  0  0  0  0  0  0
  145.9280  139.4199  152.1263 H   0  0  0  0  0  0  0  0  0  0  0  0
  145.8460  138.6703  153.7012 H   0  0  0  0  0  0  0  0  0  0  0  0
  148.4203  139.6178  152.3461 H   0  0  0  0  0  0  0  0  0  0  0  0
  147.1951  141.5980  153.0412 H   0  0  0  0  0  0  0  0  0  0  0  0
  146.7946  140.8600  154.5805 H   0  0  0  0  0  0  0  0  0  0  0  0
  149.5278  141.8159  153.6645 H   0  0  0  0  0  0  0  0  0  0  0  0
  148.7123  142.1680  155.1987 H   0  0  0  0  0  0  0  0  0  0  0  0
  147.9750  138.2283  155.0037 H   0  0  0  0  0  0  0  0  0  0  0  0
  149.2476  137.9383  153.8077 H   0  0  0  0  0  0  0  0  0  0  0  0
  147.2907  135.4658  151.2865 H   0  0  0  0  0  0  0  0  0  0  0  0
  147.5400  133.2987  150.7408 H   0  0  0  0  0  0  0  0  0  0  0  0
  146.5225  131.1324  150.0364 H   0  0  0  0  0  0  0  0  0  0  0  0
  144.0200  130.9295  149.9756 H   0  0  0  0  0  0  0  0  0  0  0  0
  142.6479  132.9264  150.6290 H   0  0  0  0  0  0  0  0  0  0  0  0
  1  2  2  0  0  0  0
  2  3  1  0  0  0  0
  2 12  1  0  0  0  0
  3  4  1  0  0  0  0
  3 19  1  0  0  0  0
  4  5  1  0  0  0  0
  4 20  1  0  0  0  0
  4 21  1  0  0  0  0
  5 11  1  0  0  0  0
  5  6  1  0  0  0  0
  5 22  1  0  0  0  0
  6  7  1  0  0  0  0
  6 23  1  0  0  0  0
  6 24  1  0  0  0  0
  7  8  1  0  0  0  0
  7 25  1  0  0  0  0
  7 26  1  0  0  0  0
  8  9  2  0  0  0  0
  8 10  2  0  0  0  0
  8 11  1  0  0  0  0
 11 27  1  0  0  0  0
 11 28  1  0  0  0  0
 12 13  1  0  0  0  0
 12 29  1  0  0  0  0
 13 18  1  0  0  0  0
 13 14  2  0  0  0  0
 14 15  1  0  0  0  0
 14 30  1  0  0  0  0
 15 16  2  0  0  0  0
 15 31  1  0  0  0  0
 16 17  1  0  0  0  0
 16 32  1  0  0  0  0
 17 18  2  0  0  0  0
 17 33  1  0  0  0  0
M  END
> <s_m_source_file>
AV-unprocessed.smi

> <i_m_source_file_index>
1431

> <i_lp_mmshare_version>
43012

> <i_f3d_flags>
0

> <s_epik_input>
bjFbY0hdW2NIXVtjSF1bY0hdYzFbTkhdQyg9TylbTkhdW0NIMl1bQ0BASF0oW0NIMl0yKVtDSDJdW0NIMl1TMig9Tyk9Tw==

> <s_epik_cmdline>
J2VwaWtfcHl0aG9uJywgJy1waCcsICc3LjAnLCAnLXRuJywgJzgnLCAnLW1hJywgJzIwMCcsICctbWV0YWxfYmluZGluZycsICctaW1hZScsICc8aW5maWxlLm1hZT4nLCAnLW9tYWUnLCAnPG91dGZpbGUubWFlPic=

> <r_lp_tautomer_probability>
1

> <r_epik_Ionization_Penalty>
4.47006e-05

> <r_epik_Ionization_Penalty_Charging>
0

> <r_epik_Ionization_Penalty_Neutral>
4.47006e-05

> <r_epik_State_Penalty>
-0

> <r_epik_Charging_Adjusted_Penalty>
0

> <i_epik_Tot_Q>
0

> <i_epik_Tot_abs_Q>
0

> <r_epik_Metal_State_Penalty>
-0

> <b_epik_Metal_Only>
0

> <s_lp_Force_Field>
OPLS_2005

> <r_lp_Energy>
3.91714

> <b_lp_Chiralities_Consistent>
1

> <s_lp_Variant>
AV-unprocessed.smi:1431-2

> <Gold.Version>
5.8.1

> <Gold.Id.Protein>
6NUR|6NUR_protein|mol2

> <Gold.PLP.Fitness>
43.7503

> <Gold.PLP.PLP>
-32.1896

> <Gold.PLP.part.hbond>
-3.0000

> <Gold.PLP.part.metal>
0.0000

> <Gold.PLP.part.buried>
-2.3302

> <Gold.PLP.part.nonpolar>
-28.4936

> <Gold.PLP.part.repulsive>
0.5787

> <Gold.PLP.ligand.clash>
0.0000

> <Gold.PLP.ligand.torsion>
0.0867

> <Gold.PLP.Chemscore.Hbond>
2.9120

> <Gold.PLP.Chemscore.CHOScore>
0.9984

> <Gold.PLP.Chemscore.Metal>
0.0000

> <Gold.Chemscore.Hbonds>
donor molecule, donor type, donor heavy atom, donor atom, acceptor molecule, acceptor atom, score
      L1  H     3    19       P1  7948  1.00
      L1  H    12    29       P1  7948  0.91
      P1  H  7989  7998       L1     9  1.00
      L1  C    17    33       P1 10186  1.00

> <Gold.PLP.Chemscore.Internal.Correction>
0.0027

> <Gold.Rescore>
     Score         DG    S(hbond)    S(metal)    S(lipo)     H(rot)  DE(clash)    DE(int)     intcor
     17.94     -19.83       2.89        0.00      69.25       1.33       0.52       1.37       ----

> <Gold.Chemscore.Fitness>
17.9432

> <Gold.Chemscore.DG>
-19.8346

> <Gold.Chemscore.ZeroCoef>
-5.4800

> <Gold.Chemscore.Hbond>
2.8897

> <Gold.Chemscore.Metal>
0.0000

> <Gold.Chemscore.Lipo>
69.2530

> <Gold.Chemscore.Internal_Hbond>
0.0000

> <Gold.Chemscore.DEClash>
0.5229

> <Gold.Chemscore.DEInternal>
1.3685

> <Gold.Chemscore.Rot>
1.3280

> <Gold.Chemscore.Internal.Correction>
   9.000000E+99

> <Gold.Chemscore.Hbonds>
donor molecule, donor type, donor heavy atom, donor atom, acceptor molecule, acceptor atom, score
      L1  H     3    19       P1  7948  0.97
      L1  H    12    29       P1  7948  0.79
      P1  H  7989  7998       L1     9  0.99

> <Gold.Chemscore.Hbond.Weighted>
-9.6516

> <Gold.Chemscore.Metal.Weighted>
-0.0000

> <Gold.Chemscore.Lipo.Weighted>
-8.1026

> <Gold.Chemscore.Internal_Hbond.Weighted>
0.0000

> <Gold.Chemscore.DEClash.Weighted>
0.5229

> <Gold.Chemscore.DEInternal.Weighted>
1.3685

> <Gold.Chemscore.Rot.Weighted>
3.3996

> <Gold.Chemscore.Internal.Correction.Weighted>
   9.000000E+99

> <Gold.Protein.RotatedTorsions>
[ 6907 6896 6895 6894 ] final  -22.24 input  -60.11 | X-H torsion
[ 7974 7965 7964 7962 ] final   31.00 input  175.53 | X-H torsion
[ 8008 7997 7996 7995 ] final  148.31 input   59.86 | X-H torsion
[ 10167 10162 10161 10158 ] final  -83.98 input  -65.29 | X-H torsion
[ 10718 10713 10712 10709 ] final  -88.60 input   66.30 | X-H torsion
[ 10763 10752 10751 10750 ] final   50.96 input  -60.55 | X-H torsion
[ 11005 11000 10999 10996 ] final    3.65 input  -57.11 | X-H torsion

> <Gold.Protein.ActiveResidues>
 VAL166  LYS551  ARG553  GLY616  TRP617  ASP618  TYR619  PRO620  LYS621  CYS622 
 ASP623  PHE694  ASN695  SER759  ASP760  ASP761  ALA762  ILE779  LEU786  VAL792 
 PHE793  MET794  SER795  GLU796  ALA797  LYS798  CYS799  TRP800  GLU811  SER814 

> <Gold.Protein.RotatedAtoms>
  151.2215  135.0520  159.8951 H   0  0  0  0  0  0  0  0  0  0  0  0  # atno 6907 bound_to 6896
  152.5415  134.0636  159.8173 H   0  0  0  0  0  0  0  0  0  0  0  0  # atno 6908 bound_to 6896
  151.0802  133.5347  159.2653 H   0  0  0  0  0  0  0  0  0  0  0  0  # atno 6909 bound_to 6896
  146.1577  139.6714  142.9055 H   0  0  0  0  0  0  0  0  0  0  0  0  # atno 7974 bound_to 7965
  156.2795  140.2132  156.5677 H   0  0  0  0  0  0  0  0  0  0  0  0  # atno 8008 bound_to 7997
  154.7161  140.0507  157.0619 H   0  0  0  0  0  0  0  0  0  0  0  0  # atno 8009 bound_to 7997
  155.0541  140.3159  155.4685 H   0  0  0  0  0  0  0  0  0  0  0  0  # atno 8010 bound_to 7997
  140.4176  143.2597  151.8934 H   0  0  0  0  0  0  0  0  0  0  0  0  # atno 10167 bound_to 10162
  155.9983  130.4841  150.5043 H   0  0  0  0  0  0  0  0  0  0  0  0  # atno 10718 bound_to 10713
  152.9785  135.5862  154.4337 H   0  0  0  0  0  0  0  0  0  0  0  0  # atno 10763 bound_to 10752
  154.3947  135.2768  155.2135 H   0  0  0  0  0  0  0  0  0  0  0  0  # atno 10764 bound_to 10752
  154.3992  135.6107  153.5942 H   0  0  0  0  0  0  0  0  0  0  0  0  # atno 10765 bound_to 10752
  140.5908  133.9926  155.8088 H   0  0  0  0  0  0  0  0  0  0  0  0  # atno 11005 bound_to 11000
  145.4667  141.0435  143.2721 LP  0  0  0  0  0  0  0  0  0  0  0  0  # atno 17320 bound_to 7965
  144.7985  139.6187  143.7082 LP  0  0  0  0  0  0  0  0  0  0  0  0  # atno 17321 bound_to 7965
  139.4782  144.5471  151.8441 LP  0  0  0  0  0  0  0  0  0  0  0  0  # atno 17342 bound_to 10162
  140.4569  144.1776  150.5902 LP  0  0  0  0  0  0  0  0  0  0  0  0  # atno 17343 bound_to 10162
  157.3024  131.0648  151.2059 LP  0  0  0  0  0  0  0  0  0  0  0  0  # atno 17370 bound_to 10713
  157.3034  130.6854  149.6176 LP  0  0  0  0  0  0  0  0  0  0  0  0  # atno 17371 bound_to 10713
  141.0936  133.9878  157.3196 LP  0  0  0  0  0  0  0  0  0  0  0  0  # atno 17394 bound_to 11000
  139.9275  135.0201  156.8286 LP  0  0  0  0  0  0  0  0  0  0  0  0  # atno 17395 bound_to 11000

$$$$
