AV-unprocessed.smi:1999|AV-procd|sdf|8097|dock7
  -GOLD-   2272010313D 1   1.00000     0.00000
 Structure written by MMmdl.
 37 38  0  0  0  0  0  0  0  0  2 V2000
  153.1521  142.9121  162.2301 C   0  0  0  0  0  0  0  0  0  0  0  0
  152.3268  142.9906  160.9918 C   0  0  0  0  0  0  0  0  0  0  0  0
  151.0460  143.3680  160.9993 N   0  0  0  0  0  0  0  0  0  0  0  0
  150.4910  143.3586  159.7279 N   0  0  0  0  0  0  0  0  0  0  0  0
  151.3544  142.9673  158.7798 C   0  0  0  0  0  0  0  0  0  0  0  0
  151.0145  142.8932  157.4824 N   0  5  0  0  0  0  0  0  0  0  0  0
  150.2843  141.8468  157.0339 C   0  0  0  0  0  0  0  0  0  0  0  0
  150.2722  140.7085  157.5084 O   0  0  0  0  0  0  0  0  0  0  0  0
  149.5216  142.1376  155.9701 N   0  0  0  0  0  0  0  0  0  0  0  0
  148.6428  141.2117  155.2571 C   0  0  1  0  0  0  0  0  0  0  0  0
  147.6488  141.9948  154.3853 C   0  0  0  0  0  0  0  0  0  0  0  0
  149.4843  140.2385  154.4057 C   0  0  0  0  0  0  0  0  0  0  0  0
  150.2698  139.2542  155.1533 N   0  0  0  0  0  0  0  0  0  0  0  0
  150.0416  137.8837  154.7005 C   0  0  0  0  0  0  0  0  0  0  0  0
  150.8959  136.8715  155.4837 C   0  0  0  0  0  0  0  0  0  0  0  0
  152.2723  137.2221  155.3810 O   0  0  0  0  0  0  0  0  0  0  0  0
  152.5397  138.5355  155.8612 C   0  0  0  0  0  0  0  0  0  0  0  0
  151.6954  139.5518  155.0736 C   0  0  0  0  0  0  0  0  0  0  0  0
  152.9600  142.5901  159.4042 S   0  0  0  0  0  0  0  0  0  0  0  0
  152.9900  141.9545  162.7248 H   0  0  0  0  0  0  0  0  0  0  0  0
  152.8817  143.7140  162.9177 H   0  0  0  0  0  0  0  0  0  0  0  0
  154.2101  143.0060  161.9851 H   0  0  0  0  0  0  0  0  0  0  0  0
  149.5686  143.0810  155.6141 H   0  0  0  0  0  0  0  0  0  0  0  0
  148.0630  140.6342  155.9777 H   0  0  0  0  0  0  0  0  0  0  0  0
  146.9804  141.3191  153.8513 H   0  0  0  0  0  0  0  0  0  0  0  0
  148.1657  142.6070  153.6455 H   0  0  0  0  0  0  0  0  0  0  0  0
  147.0293  142.6572  154.9908 H   0  0  0  0  0  0  0  0  0  0  0  0
  148.8310  139.7216  153.7013 H   0  0  0  0  0  0  0  0  0  0  0  0
  150.1641  140.8349  153.7955 H   0  0  0  0  0  0  0  0  0  0  0  0
  148.9928  137.6148  154.8210 H   0  0  0  0  0  0  0  0  0  0  0  0
  150.2676  137.8019  153.6365 H   0  0  0  0  0  0  0  0  0  0  0  0
  150.5976  136.8466  156.5330 H   0  0  0  0  0  0  0  0  0  0  0  0
  150.7531  135.8668  155.0859 H   0  0  0  0  0  0  0  0  0  0  0  0
  152.3191  138.5937  156.9282 H   0  0  0  0  0  0  0  0  0  0  0  0
  153.6015  138.7501  155.7410 H   0  0  0  0  0  0  0  0  0  0  0  0
  152.0155  139.5536  154.0304 H   0  0  0  0  0  0  0  0  0  0  0  0
  151.8866  140.5534  155.4603 H   0  0  0  0  0  0  0  0  0  0  0  0
  1  2  1  0  0  0  0
  1 20  1  0  0  0  0
  1 21  1  0  0  0  0
  1 22  1  0  0  0  0
  2 19  1  0  0  0  0
  2  3  2  0  0  0  0
  3  4  1  0  0  0  0
  4  5  2  0  0  0  0
  5  6  1  0  0  0  0
  5 19  1  0  0  0  0
  6  7  1  0  0  0  0
  7  8  2  0  0  0  0
  7  9  1  0  0  0  0
  9 10  1  0  0  0  0
  9 23  1  0  0  0  0
 10 11  1  0  0  0  0
 10 12  1  0  0  0  0
 10 24  1  0  0  0  0
 11 25  1  0  0  0  0
 11 26  1  0  0  0  0
 11 27  1  0  0  0  0
 12 13  1  0  0  0  0
 12 28  1  0  0  0  0
 12 29  1  0  0  0  0
 13 18  1  0  0  0  0
 13 14  1  0  0  0  0
 14 15  1  0  0  0  0
 14 30  1  0  0  0  0
 14 31  1  0  0  0  0
 15 16  1  0  0  0  0
 15 32  1  0  0  0  0
 15 33  1  0  0  0  0
 16 17  1  0  0  0  0
 17 18  1  0  0  0  0
 17 34  1  0  0  0  0
 17 35  1  0  0  0  0
 18 36  1  0  0  0  0
 18 37  1  0  0  0  0
M  CHG  1   6  -1
M  END
> <s_m_source_file>
AV-unprocessed.smi

> <i_m_source_file_index>
1999

> <i_lp_mmshare_version>
43012

> <i_f3d_flags>
0

> <s_epik_input>
W0NIM11jMW5uYyhzMSlbTkhdQyg9TylbTkhdW0NASF0oW0NIM10pW0NIMl1OMltDSDJdW0NIMl1PW0NIMl1bQ0gyXTI=

> <s_epik_cmdline>
J2VwaWtfcHl0aG9uJywgJy1waCcsICc3LjAnLCAnLXRuJywgJzgnLCAnLW1hJywgJzIwMCcsICctbWV0YWxfYmluZGluZycsICctaW1hZScsICc8aW5maWxlLm1hZT4nLCAnLW9tYWUnLCAnPG91dGZpbGUubWFlPic=

> <r_lp_tautomer_probability>
1

> <r_epik_Ionization_Penalty>
3.74165

> <r_epik_Ionization_Penalty_Charging>
3.28066

> <r_epik_Ionization_Penalty_Neutral>
0.460988

> <r_epik_State_Penalty>
3.48767

> <r_epik_Charging_Adjusted_Penalty>
6.76834

> <i_epik_Tot_Q>
-1

> <i_epik_Tot_abs_Q>
1

> <r_epik_Metal_State_Penalty>
0.700129

> <b_epik_Metal_Only>
1

> <s_lp_Force_Field>
OPLS_2005

> <r_lp_Energy>
23.1918

> <b_lp_Chiralities_Consistent>
1

> <s_lp_Variant>
AV-unprocessed.smi:1999-6

> <Gold.Version>
5.8.1

> <Gold.Id.Protein>
6NUR|6NUR_protein|mol2

> <Gold.PLP.Fitness>
39.5771

> <Gold.PLP.PLP>
-37.6621

> <Gold.PLP.part.hbond>
-4.0000

> <Gold.PLP.part.metal>
0.0000

> <Gold.PLP.part.buried>
-4.1703

> <Gold.PLP.part.nonpolar>
-30.2884

> <Gold.PLP.part.repulsive>
0.5671

> <Gold.PLP.ligand.clash>
0.0000

> <Gold.PLP.ligand.torsion>
1.8392

> <Gold.PLP.Chemscore.Hbond>
1.8370

> <Gold.PLP.Chemscore.CHOScore>
0.0000

> <Gold.PLP.Chemscore.Metal>
0.0000

> <Gold.Chemscore.Hbonds>
donor molecule, donor type, donor heavy atom, donor atom, acceptor molecule, acceptor atom, score
      L1  H     9    23       P1  8028  0.94
      P1  H  6933  6945       L1     3  0.07
      P1  H 10752 10764       L1    16  0.78

> <Gold.PLP.Chemscore.Internal.Correction>
0.0826

> <Gold.Rescore>
     Score         DG    S(hbond)    S(metal)    S(lipo)     H(rot)  DE(clash)    DE(int)     intcor
     13.60     -16.77       1.84        0.00      77.95       1.56       0.00       3.18       ----

> <Gold.Chemscore.Fitness>
13.5958

> <Gold.Chemscore.DG>
-16.7721

> <Gold.Chemscore.ZeroCoef>
-5.4800

> <Gold.Chemscore.Hbond>
1.8428

> <Gold.Chemscore.Metal>
0.0000

> <Gold.Chemscore.Lipo>
77.9451

> <Gold.Chemscore.Internal_Hbond>
0.0000

> <Gold.Chemscore.DEClash>
0.0000

> <Gold.Chemscore.DEInternal>
3.1763

> <Gold.Chemscore.Rot>
1.5556

> <Gold.Chemscore.Internal.Correction>
   9.000000E+99

> <Gold.Chemscore.Hbonds>
donor molecule, donor type, donor heavy atom, donor atom, acceptor molecule, acceptor atom, score
      L1  H     9    23       P1  8028  0.91
      P1  H  6933  6945       L1     3  0.02
      P1  H 10752 10764       L1    16  0.23

> <Gold.Chemscore.Hbond.Weighted>
-6.1548

> <Gold.Chemscore.Metal.Weighted>
-0.0000

> <Gold.Chemscore.Lipo.Weighted>
-9.1196

> <Gold.Chemscore.Internal_Hbond.Weighted>
0.0000

> <Gold.Chemscore.DEClash.Weighted>
0.0000

> <Gold.Chemscore.DEInternal.Weighted>
3.1763

> <Gold.Chemscore.Rot.Weighted>
3.9823

> <Gold.Chemscore.Internal.Correction.Weighted>
   9.000000E+99

> <Gold.Protein.RotatedTorsions>
[ 6907 6896 6895 6894 ] final  -18.25 input  -60.11 | X-H torsion
[ 7974 7965 7964 7962 ] final  115.58 input  175.53 | X-H torsion
[ 8008 7997 7996 7995 ] final -160.77 input   59.86 | X-H torsion
[ 10167 10162 10161 10158 ] final  156.63 input  -65.29 | X-H torsion
[ 10718 10713 10712 10709 ] final  162.05 input   66.30 | X-H torsion
[ 10763 10752 10751 10750 ] final  -46.81 input  -60.55 | X-H torsion
[ 11005 11000 10999 10996 ] final  -83.71 input  -57.11 | X-H torsion

> <Gold.Protein.ActiveResidues>
 VAL166  LYS551  ARG553  GLY616  TRP617  ASP618  TYR619  PRO620  LYS621  CYS622 
 ASP623  PHE694  ASN695  SER759  ASP760  ASP761  ALA762  ILE779  LEU786  VAL792 
 PHE793  MET794  SER795  GLU796  ALA797  LYS798  CYS799  TRP800  GLU811  SER814 

> <Gold.Protein.RotatedAtoms>
  151.2811  135.0714  159.9169 H   0  0  0  0  0  0  0  0  0  0  0  0  # atno 6907 bound_to 6896
  152.5334  134.0030  159.7914 H   0  0  0  0  0  0  0  0  0  0  0  0  # atno 6908 bound_to 6896
  151.0284  133.5762  159.2694 H   0  0  0  0  0  0  0  0  0  0  0  0  # atno 6909 bound_to 6896
  145.1902  139.3004  143.4372 H   0  0  0  0  0  0  0  0  0  0  0  0  # atno 7974 bound_to 7965
  155.7823  140.0867  157.2052 H   0  0  0  0  0  0  0  0  0  0  0  0  # atno 8008 bound_to 7997
  154.3989  140.1505  156.3124 H   0  0  0  0  0  0  0  0  0  0  0  0  # atno 8009 bound_to 7997
  155.8641  140.3429  155.5779 H   0  0  0  0  0  0  0  0  0  0  0  0  # atno 8010 bound_to 7997
  139.4821  144.4991  151.8195 H   0  0  0  0  0  0  0  0  0  0  0  0  # atno 10167 bound_to 10162
  157.1280  131.0509  151.2385 H   0  0  0  0  0  0  0  0  0  0  0  0  # atno 10718 bound_to 10713
  154.0511  135.6631  153.4800 H   0  0  0  0  0  0  0  0  0  0  0  0  # atno 10763 bound_to 10752
  153.0463  135.5112  154.7749 H   0  0  0  0  0  0  0  0  0  0  0  0  # atno 10764 bound_to 10752
  154.6756  135.3036  154.9649 H   0  0  0  0  0  0  0  0  0  0  0  0  # atno 10765 bound_to 10752
  141.1656  133.7308  156.8761 H   0  0  0  0  0  0  0  0  0  0  0  0  # atno 11005 bound_to 11000
  146.3437  140.2111  142.8590 LP  0  0  0  0  0  0  0  0  0  0  0  0  # atno 17320 bound_to 7965
  145.0049  140.8664  143.5259 LP  0  0  0  0  0  0  0  0  0  0  0  0  # atno 17321 bound_to 7965
  140.4483  144.1891  150.5895 LP  0  0  0  0  0  0  0  0  0  0  0  0  # atno 17342 bound_to 10162
  140.4612  143.2448  151.9217 LP  0  0  0  0  0  0  0  0  0  0  0  0  # atno 17343 bound_to 10162
  157.4418  130.7548  149.7076 LP  0  0  0  0  0  0  0  0  0  0  0  0  # atno 17370 bound_to 10713
  155.9814  130.4020  150.3474 LP  0  0  0  0  0  0  0  0  0  0  0  0  # atno 17371 bound_to 10713
  140.1748  134.9075  157.2877 LP  0  0  0  0  0  0  0  0  0  0  0  0  # atno 17394 bound_to 11000
  140.2461  134.3738  155.7460 LP  0  0  0  0  0  0  0  0  0  0  0  0  # atno 17395 bound_to 11000

$$$$
