AV-unprocessed.smi:544|AV-procd|sdf|2880|dock7
  -GOLD-   2262023373D 1   1.00000     0.00000
 Structure written by MMmdl.
 48 50  0  0  0  0  0  0  0  0  2 V2000
  146.6599  142.7202  154.5793 C   0  0  0  0  0  0  0  0  0  0  0  0
  147.5924  141.7126  153.9032 C   0  0  0  0  0  0  0  0  0  0  0  0
  148.9283  142.0426  154.2374 O   0  0  0  0  0  0  0  0  0  0  0  0
  149.2435  141.8076  155.5983 C   0  0  0  0  0  0  0  0  0  0  0  0
  150.6981  142.2218  155.9065 C   0  0  0  0  0  0  0  0  0  0  0  0
  151.3899  141.2822  156.7897 N   0  0  0  0  0  0  0  0  0  0  0  0
  151.9781  141.5064  158.0051 C   0  0  0  0  0  0  0  0  0  0  0  0
  151.9909  142.7435  158.6747 N   0  0  0  0  0  0  0  0  0  0  0  0
  151.3995  144.0254  158.2823 C   0  0  0  0  0  0  0  0  0  0  0  0
  150.4378  144.5641  159.3562 C   0  0  0  0  0  0  0  0  0  0  0  0
  151.1731  144.7449  160.6896 C   0  0  0  0  0  0  0  0  0  0  0  0
  151.9112  143.4499  161.0662 C   0  0  2  0  0  0  0  0  0  0  0  0
  152.7420  143.6274  162.3440 C   0  0  0  0  0  0  0  0  0  0  0  0
  152.7854  142.9793  159.8854 C   0  0  0  0  0  0  0  0  0  0  0  0
  152.5167  140.4136  158.5529 N   0  0  0  0  0  0  0  0  0  0  0  0
  152.2439  139.4155  157.6362 C   0  0  0  0  0  0  0  0  0  0  0  0
  151.5402  139.9015  156.5806 C   0  0  0  0  0  0  0  0  0  0  0  0
  151.0452  139.0475  155.4720 C   0  0  0  0  0  0  0  0  0  0  0  0
  150.3490  139.5077  154.5697 O   0  0  0  0  0  0  0  0  0  0  0  0
  151.4426  137.7424  155.6026 N   0  5  0  0  0  0  0  0  0  0  0  0
  152.1730  137.2188  156.6463 C   0  0  0  0  0  0  0  0  0  0  0  0
  152.4885  136.0288  156.6869 O   0  0  0  0  0  0  0  0  0  0  0  0
  152.5657  138.0317  157.6756 N   0  0  0  0  0  0  0  0  0  0  0  0
  153.3281  137.4993  158.8087 C   0  0  0  0  0  0  0  0  0  0  0  0
  145.6167  142.5033  154.3486 H   0  0  0  0  0  0  0  0  0  0  0  0
  146.8742  143.7355  154.2435 H   0  0  0  0  0  0  0  0  0  0  0  0
  146.7765  142.6947  155.6632 H   0  0  0  0  0  0  0  0  0  0  0  0
  147.3578  140.7016  154.2396 H   0  0  0  0  0  0  0  0  0  0  0  0
  147.4555  141.7442  152.8213 H   0  0  0  0  0  0  0  0  0  0  0  0
  148.5376  142.3614  156.2150 H   0  0  0  0  0  0  0  0  0  0  0  0
  149.1122  140.7498  155.8295 H   0  0  0  0  0  0  0  0  0  0  0  0
  151.2660  142.3492  154.9891 H   0  0  0  0  0  0  0  0  0  0  0  0
  150.7141  143.2108  156.3613 H   0  0  0  0  0  0  0  0  0  0  0  0
  152.2038  144.7447  158.1211 H   0  0  0  0  0  0  0  0  0  0  0  0
  150.8927  143.9561  157.3282 H   0  0  0  0  0  0  0  0  0  0  0  0
  150.0126  145.5147  159.0339 H   0  0  0  0  0  0  0  0  0  0  0  0
  149.6010  143.8782  159.4892 H   0  0  0  0  0  0  0  0  0  0  0  0
  151.8873  145.5644  160.6002 H   0  0  0  0  0  0  0  0  0  0  0  0
  150.4692  145.0268  161.4732 H   0  0  0  0  0  0  0  0  0  0  0  0
  151.1661  142.6769  161.2613 H   0  0  0  0  0  0  0  0  0  0  0  0
  153.5074  144.3935  162.2160 H   0  0  0  0  0  0  0  0  0  0  0  0
  153.2436  142.6990  162.6173 H   0  0  0  0  0  0  0  0  0  0  0  0
  152.1124  143.9220  163.1838 H   0  0  0  0  0  0  0  0  0  0  0  0
  153.3057  142.0670  160.1777 H   0  0  0  0  0  0  0  0  0  0  0  0
  153.5630  143.7139  159.6708 H   0  0  0  0  0  0  0  0  0  0  0  0
  152.7726  136.7008  159.3024 H   0  0  0  0  0  0  0  0  0  0  0  0
  153.5470  138.2550  159.5626 H   0  0  0  0  0  0  0  0  0  0  0  0
  154.2812  137.0923  158.4685 H   0  0  0  0  0  0  0  0  0  0  0  0
  1  2  1  0  0  0  0
  1 25  1  0  0  0  0
  1 26  1  0  0  0  0
  1 27  1  0  0  0  0
  2  3  1  0  0  0  0
  2 28  1  0  0  0  0
  2 29  1  0  0  0  0
  3  4  1  0  0  0  0
  4  5  1  0  0  0  0
  4 30  1  0  0  0  0
  4 31  1  0  0  0  0
  5  6  1  0  0  0  0
  5 32  1  0  0  0  0
  5 33  1  0  0  0  0
  6 17  1  0  0  0  0
  6  7  1  0  0  0  0
  7  8  1  0  0  0  0
  7 15  2  0  0  0  0
  8 14  1  0  0  0  0
  8  9  1  0  0  0  0
  9 10  1  0  0  0  0
  9 34  1  0  0  0  0
  9 35  1  0  0  0  0
 10 11  1  0  0  0  0
 10 36  1  0  0  0  0
 10 37  1  0  0  0  0
 11 12  1  0  0  0  0
 11 38  1  0  0  0  0
 11 39  1  0  0  0  0
 12 13  1  0  0  0  0
 12 14  1  0  0  0  0
 12 40  1  0  0  0  0
 13 41  1  0  0  0  0
 13 42  1  0  0  0  0
 13 43  1  0  0  0  0
 14 44  1  0  0  0  0
 14 45  1  0  0  0  0
 15 16  1  0  0  0  0
 16 23  1  0  0  0  0
 16 17  2  0  0  0  0
 17 18  1  0  0  0  0
 18 19  2  0  0  0  0
 18 20  1  0  0  0  0
 20 21  1  0  0  0  0
 21 22  2  0  0  0  0
 21 23  1  0  0  0  0
 23 24  1  0  0  0  0
 24 46  1  0  0  0  0
 24 47  1  0  0  0  0
 24 48  1  0  0  0  0
M  CHG  1  20  -1
M  END
> <s_m_source_file>
AV-unprocessed.smi

> <i_m_source_file_index>
544

> <i_lp_mmshare_version>
43012

> <i_f3d_flags>
0

> <s_epik_input>
W0NIM11uMWMoPU8pW25IXWMoPU8pYyhjMTIpbihbQ0gyXVtDSDJdT1tDSDJdW0NIM10pYyhuMilOM1tDSDJdW0NIMl1bQ0gyXVtDQEBIXShbQ0gzXSlbQ0gyXTM=

> <s_epik_cmdline>
J2VwaWtfcHl0aG9uJywgJy1waCcsICc3LjAnLCAnLXRuJywgJzgnLCAnLW1hJywgJzIwMCcsICctbWV0YWxfYmluZGluZycsICctaW1hZScsICc8aW5maWxlLm1hZT4nLCAnLW9tYWUnLCAnPG91dGZpbGUubWFlPic=

> <r_lp_tautomer_probability>
1

> <r_epik_Ionization_Penalty>
5.1213

> <r_epik_Ionization_Penalty_Charging>
0.0741877

> <r_epik_Ionization_Penalty_Neutral>
5.04711

> <r_epik_State_Penalty>
5.04142

> <r_epik_Charging_Adjusted_Penalty>
5.11561

> <i_epik_Tot_Q>
-1

> <i_epik_Tot_abs_Q>
1

> <r_epik_Metal_State_Penalty>
1.14934

> <b_epik_Metal_Only>
1

> <s_lp_Force_Field>
OPLS_2005

> <r_lp_Energy>
42.4298

> <b_lp_Chiralities_Consistent>
1

> <s_lp_Variant>
AV-unprocessed.smi:544-4

> <Gold.Version>
5.8.1

> <Gold.Id.Protein>
6NUR|6NUR_protein|mol2

> <Gold.PLP.Fitness>
51.7302

> <Gold.PLP.PLP>
-45.7870

> <Gold.PLP.part.hbond>
-3.2981

> <Gold.PLP.part.metal>
0.0000

> <Gold.PLP.part.buried>
-6.8439

> <Gold.PLP.part.nonpolar>
-35.4308

> <Gold.PLP.part.repulsive>
0.3473

> <Gold.PLP.ligand.clash>
0.0000

> <Gold.PLP.ligand.torsion>
0.3483

> <Gold.PLP.Chemscore.Hbond>
2.1983

> <Gold.PLP.Chemscore.CHOScore>
0.0000

> <Gold.PLP.Chemscore.Metal>
0.0000

> <Gold.Chemscore.Hbonds>
donor molecule, donor type, donor heavy atom, donor atom, acceptor molecule, acceptor atom, score
      P1  H  7989  7998       L1    19  0.70
      P1  H  8011  8017       L1     3  0.29
      P1  H 10752 10765       L1    22  1.00

> <Gold.PLP.Chemscore.Internal.Correction>
0.0450

> <Gold.Rescore>
     Score         DG    S(hbond)    S(metal)    S(lipo)     H(rot)  DE(clash)    DE(int)     intcor
     14.76     -19.65       1.76        0.00     104.89       1.55       2.43       2.46       ----

> <Gold.Chemscore.Fitness>
14.7629

> <Gold.Chemscore.DG>
-19.6535

> <Gold.Chemscore.ZeroCoef>
-5.4800

> <Gold.Chemscore.Hbond>
1.7600

> <Gold.Chemscore.Metal>
0.0000

> <Gold.Chemscore.Lipo>
104.8895

> <Gold.Chemscore.Internal_Hbond>
0.0000

> <Gold.Chemscore.DEClash>
2.4323

> <Gold.Chemscore.DEInternal>
2.4583

> <Gold.Chemscore.Rot>
1.5534

> <Gold.Chemscore.Internal.Correction>
   9.000000E+99

> <Gold.Chemscore.Hbonds>
donor molecule, donor type, donor heavy atom, donor atom, acceptor molecule, acceptor atom, score
      P1  H  7989  7998       L1    19  0.38
      P1  H  8011  8017       L1     3  0.11
      P1  H 10752 10765       L1    22  0.91

> <Gold.Chemscore.Hbond.Weighted>
-5.8782

> <Gold.Chemscore.Metal.Weighted>
-0.0000

> <Gold.Chemscore.Lipo.Weighted>
-12.2721

> <Gold.Chemscore.Internal_Hbond.Weighted>
0.0000

> <Gold.Chemscore.DEClash.Weighted>
2.4323

> <Gold.Chemscore.DEInternal.Weighted>
2.4583

> <Gold.Chemscore.Rot.Weighted>
3.9768

> <Gold.Chemscore.Internal.Correction.Weighted>
   9.000000E+99

> <Gold.Protein.RotatedTorsions>
[ 6907 6896 6895 6894 ] final   -1.38 input  -60.11 | X-H torsion
[ 7974 7965 7964 7962 ] final  -67.69 input  175.53 | X-H torsion
[ 8008 7997 7996 7995 ] final -131.58 input   59.86 | X-H torsion
[ 10167 10162 10161 10158 ] final  134.49 input  -65.29 | X-H torsion
[ 10718 10713 10712 10709 ] final  -62.67 input   66.30 | X-H torsion
[ 10763 10752 10751 10750 ] final -136.41 input  -60.55 | X-H torsion
[ 11005 11000 10999 10996 ] final   62.62 input  -57.11 | X-H torsion

> <Gold.Protein.ActiveResidues>
 VAL166  LYS551  ARG553  GLY616  TRP617  ASP618  TYR619  PRO620  LYS621  CYS622 
 ASP623  PHE694  ASN695  SER759  ASP760  ASP761  ALA762  ILE779  LEU786  VAL792 
 PHE793  MET794  SER795  GLU796  ALA797  LYS798  CYS799  TRP800  GLU811  SER814 

> <Gold.Protein.RotatedAtoms>
  151.5470  135.1068  159.9940 H   0  0  0  0  0  0  0  0  0  0  0  0  # atno 6907 bound_to 6896
  152.4509  133.7623  159.6764 H   0  0  0  0  0  0  0  0  0  0  0  0  # atno 6908 bound_to 6896
  150.8437  133.7828  159.3075 H   0  0  0  0  0  0  0  0  0  0  0  0  # atno 6909 bound_to 6896
  145.7260  140.9018  143.0605 H   0  0  0  0  0  0  0  0  0  0  0  0  # atno 7974 bound_to 7965
  155.3147  140.0459  157.3036 H   0  0  0  0  0  0  0  0  0  0  0  0  # atno 8008 bound_to 7997
  154.5413  140.2288  155.8602 H   0  0  0  0  0  0  0  0  0  0  0  0  # atno 8009 bound_to 7997
  156.1883  140.3057  155.9289 H   0  0  0  0  0  0  0  0  0  0  0  0  # atno 8010 bound_to 7997
  139.5254  144.6564  151.5147 H   0  0  0  0  0  0  0  0  0  0  0  0  # atno 10167 bound_to 10162
  156.0840  130.4212  150.1168 H   0  0  0  0  0  0  0  0  0  0  0  0  # atno 10718 bound_to 10713
  154.8684  135.3673  154.5057 H   0  0  0  0  0  0  0  0  0  0  0  0  # atno 10763 bound_to 10752
  153.5695  135.7021  153.5516 H   0  0  0  0  0  0  0  0  0  0  0  0  # atno 10764 bound_to 10752
  153.3555  135.4060  155.1641 H   0  0  0  0  0  0  0  0  0  0  0  0  # atno 10765 bound_to 10752
  140.0080  134.6340  155.9825 H   0  0  0  0  0  0  0  0  0  0  0  0  # atno 11005 bound_to 11000
  144.6905  139.9266  143.7470 LP  0  0  0  0  0  0  0  0  0  0  0  0  # atno 17320 bound_to 7965
  146.0582  139.3577  143.0597 LP  0  0  0  0  0  0  0  0  0  0  0  0  # atno 17321 bound_to 7965
  140.6392  143.8923  150.6676 LP  0  0  0  0  0  0  0  0  0  0  0  0  # atno 17342 bound_to 10162
  140.2252  143.3778  152.1611 LP  0  0  0  0  0  0  0  0  0  0  0  0  # atno 17343 bound_to 10162
  156.9193  130.9677  151.3551 LP  0  0  0  0  0  0  0  0  0  0  0  0  # atno 17370 bound_to 10713
  157.5968  130.8483  149.8741 LP  0  0  0  0  0  0  0  0  0  0  0  0  # atno 17371 bound_to 10713
  141.1690  133.6537  156.4584 LP  0  0  0  0  0  0  0  0  0  0  0  0  # atno 17394 bound_to 11000
  140.4607  134.6844  157.5084 LP  0  0  0  0  0  0  0  0  0  0  0  0  # atno 17395 bound_to 11000

$$$$
