AV-unprocessed.smi:1584|AV-procd|sdf|6365|dock5
  -GOLD-   22720 6593D 1   1.00000     0.00000
 Structure written by MMmdl.
 39 40  0  0  0  0  0  0  0  0  1 V2000
  146.8150  138.9995  151.4533 C   0  0  0  0  0  0  0  0  0  0  0  0
  146.3681  138.1681  152.6654 C   0  0  2  0  0  0  0  0  0  0  0  0
  147.1745  138.5294  153.9279 C   0  0  0  0  0  0  0  0  0  0  0  0
  147.3238  139.9641  154.0969 N   0  0  0  0  0  0  0  0  0  0  0  0
  146.3489  140.9388  154.0541 C   0  0  0  0  0  0  0  0  0  0  0  0
  146.9661  142.1396  154.2581 C   0  0  0  0  0  0  0  0  0  0  0  0
  148.3364  141.7921  154.4197 C   0  0  0  0  0  0  0  0  0  0  0  0
  148.5472  140.4892  154.3240 N   0  0  0  0  0  0  0  0  0  0  0  0
  146.5143  136.7438  152.3720 N   0  0  0  0  0  0  0  0  0  0  0  0
  145.5649  135.8105  152.5393 C   0  0  0  0  0  0  0  0  0  0  0  0
  144.4285  136.0653  152.9399 O   0  0  0  0  0  0  0  0  0  0  0  0
  145.9634  134.3678  152.2009 C   0  0  2  0  0  0  0  0  0  0  0  0
  145.0726  133.8046  151.0872 C   0  0  0  0  0  0  0  0  0  0  0  0
  145.5338  132.3899  150.7140 C   0  0  0  0  0  0  0  0  0  0  0  0
  145.7497  131.5159  151.8760 N   0  0  0  0  0  0  0  0  0  0  0  0
  145.7948  130.0847  151.5709 C   0  0  0  0  0  0  0  0  0  0  0  0
  145.9633  131.9565  153.1398 C   0  0  0  0  0  0  0  0  0  0  0  0
  146.2015  131.1909  154.0744 O   0  0  0  0  0  0  0  0  0  0  0  0
  145.8735  133.4614  153.4450 C   0  0  0  0  0  0  0  0  0  0  0  0
  146.6983  140.0662  151.6465 H   0  0  0  0  0  0  0  0  0  0  0  0
  146.2216  138.7605  150.5700 H   0  0  0  0  0  0  0  0  0  0  0  0
  147.8625  138.8178  151.2110 H   0  0  0  0  0  0  0  0  0  0  0  0
  145.3175  138.3932  152.8595 H   0  0  0  0  0  0  0  0  0  0  0  0
  146.6977  138.1196  154.8195 H   0  0  0  0  0  0  0  0  0  0  0  0
  148.1710  138.0880  153.8779 H   0  0  0  0  0  0  0  0  0  0  0  0
  145.3100  140.6994  153.8802 H   0  0  0  0  0  0  0  0  0  0  0  0
  146.5088  143.1175  154.2868 H   0  0  0  0  0  0  0  0  0  0  0  0
  149.1785  142.4431  154.6030 H   0  0  0  0  0  0  0  0  0  0  0  0
  147.4164  136.4415  152.0340 H   0  0  0  0  0  0  0  0  0  0  0  0
  146.9964  134.3677  151.8473 H   0  0  0  0  0  0  0  0  0  0  0  0
  144.0324  133.7717  151.4164 H   0  0  0  0  0  0  0  0  0  0  0  0
  145.1001  134.4463  150.2053 H   0  0  0  0  0  0  0  0  0  0  0  0
  144.8005  131.9441  150.0404 H   0  0  0  0  0  0  0  0  0  0  0  0
  146.4718  132.4476  150.1600 H   0  0  0  0  0  0  0  0  0  0  0  0
  146.7108  129.6308  151.9526 H   0  0  0  0  0  0  0  0  0  0  0  0
  145.7645  129.8921  150.4978 H   0  0  0  0  0  0  0  0  0  0  0  0
  144.9445  129.5735  152.0246 H   0  0  0  0  0  0  0  0  0  0  0  0
  146.6638  133.7246  154.1494 H   0  0  0  0  0  0  0  0  0  0  0  0
  144.9296  133.6228  153.9677 H   0  0  0  0  0  0  0  0  0  0  0  0
  1  2  1  0  0  0  0
  1 20  1  0  0  0  0
  1 21  1  0  0  0  0
  1 22  1  0  0  0  0
  2  3  1  0  0  0  0
  2  9  1  0  0  0  0
  2 23  1  0  0  0  0
  3  4  1  0  0  0  0
  3 24  1  0  0  0  0
  3 25  1  0  0  0  0
  4  8  1  0  0  0  0
  4  5  1  0  0  0  0
  5  6  2  0  0  0  0
  5 26  1  0  0  0  0
  6  7  1  0  0  0  0
  6 27  1  0  0  0  0
  7  8  2  0  0  0  0
  7 28  1  0  0  0  0
  9 10  1  0  0  0  0
  9 29  1  0  0  0  0
 10 11  2  0  0  0  0
 10 12  1  0  0  0  0
 12 19  1  0  0  0  0
 12 13  1  0  0  0  0
 12 30  1  0  0  0  0
 13 14  1  0  0  0  0
 13 31  1  0  0  0  0
 13 32  1  0  0  0  0
 14 15  1  0  0  0  0
 14 33  1  0  0  0  0
 14 34  1  0  0  0  0
 15 16  1  0  0  0  0
 15 17  1  0  0  0  0
 16 35  1  0  0  0  0
 16 36  1  0  0  0  0
 16 37  1  0  0  0  0
 17 18  2  0  0  0  0
 17 19  1  0  0  0  0
 19 38  1  0  0  0  0
 19 39  1  0  0  0  0
M  END
> <s_m_source_file>
AV-unprocessed.smi

> <i_m_source_file_index>
1584

> <i_lp_mmshare_version>
43012

> <i_f3d_flags>
0

> <s_epik_input>
bjFbY0hdW2NIXVtjSF1uMVtDSDJdW0NAQEhdKFtDSDNdKVtOSF1DKD1PKVtDQEBIXTJbQ0gyXVtDSDJdTihbQ0gzXSlDKD1PKVtDSDJdMg==

> <s_epik_cmdline>
J2VwaWtfcHl0aG9uJywgJy1waCcsICc3LjAnLCAnLXRuJywgJzgnLCAnLW1hJywgJzIwMCcsICctbWV0YWxfYmluZGluZycsICctaW1hZScsICc8aW5maWxlLm1hZT4nLCAnLW9tYWUnLCAnPG91dGZpbGUubWFlPic=

> <r_lp_tautomer_probability>
1

> <r_epik_Ionization_Penalty>
0.000299422

> <r_epik_Ionization_Penalty_Charging>
0

> <r_epik_Ionization_Penalty_Neutral>
0.000299422

> <r_epik_State_Penalty>
-0

> <r_epik_Charging_Adjusted_Penalty>
0

> <i_epik_Tot_Q>
0

> <i_epik_Tot_abs_Q>
0

> <r_epik_Metal_State_Penalty>
-0

> <b_epik_Metal_Only>
0

> <s_lp_Force_Field>
OPLS_2005

> <r_lp_Energy>
13.4891

> <b_lp_Chiralities_Consistent>
1

> <s_lp_Variant>
AV-unprocessed.smi:1584-1

> <Gold.Version>
5.8.1

> <Gold.Id.Protein>
6NUR|6NUR_protein|mol2

> <Gold.PLP.Fitness>
38.6126

> <Gold.PLP.PLP>
-30.7560

> <Gold.PLP.part.hbond>
-0.9867

> <Gold.PLP.part.metal>
0.0000

> <Gold.PLP.part.buried>
-1.4266

> <Gold.PLP.part.nonpolar>
-29.1285

> <Gold.PLP.part.repulsive>
0.4245

> <Gold.PLP.ligand.clash>
0.0000

> <Gold.PLP.ligand.torsion>
0.3065

> <Gold.PLP.Chemscore.Hbond>
1.0000

> <Gold.PLP.Chemscore.CHOScore>
1.8141

> <Gold.PLP.Chemscore.Metal>
0.0000

> <Gold.Chemscore.Hbonds>
donor molecule, donor type, donor heavy atom, donor atom, acceptor molecule, acceptor atom, score
      L1  H     9    29       P1  7948  1.00
      L1  C     5    26       P1 10175  1.00
      L1  C     7    28       P1  8028  0.83

> <Gold.PLP.Chemscore.Internal.Correction>
0.0272

> <Gold.Rescore>
     Score         DG    S(hbond)    S(metal)    S(lipo)     H(rot)  DE(clash)    DE(int)     intcor
     12.59     -13.20       0.99        0.00      74.23       1.67       0.12       0.49       ----

> <Gold.Chemscore.Fitness>
12.5928

> <Gold.Chemscore.DG>
-13.1986

> <Gold.Chemscore.ZeroCoef>
-5.4800

> <Gold.Chemscore.Hbond>
0.9932

> <Gold.Chemscore.Metal>
0.0000

> <Gold.Chemscore.Lipo>
74.2325

> <Gold.Chemscore.Internal_Hbond>
0.0000

> <Gold.Chemscore.DEClash>
0.1202

> <Gold.Chemscore.DEInternal>
0.4856

> <Gold.Chemscore.Rot>
1.6734

> <Gold.Chemscore.Internal.Correction>
   9.000000E+99

> <Gold.Chemscore.Hbonds>
donor molecule, donor type, donor heavy atom, donor atom, acceptor molecule, acceptor atom, score
      L1  H     9    29       P1  7948  0.94

> <Gold.Chemscore.Hbond.Weighted>
-3.3174

> <Gold.Chemscore.Metal.Weighted>
-0.0000

> <Gold.Chemscore.Lipo.Weighted>
-8.6852

> <Gold.Chemscore.Internal_Hbond.Weighted>
0.0000

> <Gold.Chemscore.DEClash.Weighted>
0.1202

> <Gold.Chemscore.DEInternal.Weighted>
0.4856

> <Gold.Chemscore.Rot.Weighted>
4.2840

> <Gold.Chemscore.Internal.Correction.Weighted>
   9.000000E+99

> <Gold.Protein.RotatedTorsions>
[ 6907 6896 6895 6894 ] final  -37.96 input  -60.11 | X-H torsion
[ 7974 7965 7964 7962 ] final  108.40 input  175.53 | X-H torsion
[ 8008 7997 7996 7995 ] final -111.31 input   59.86 | X-H torsion
[ 10167 10162 10161 10158 ] final  -80.25 input  -65.29 | X-H torsion
[ 10718 10713 10712 10709 ] final  -74.85 input   66.30 | X-H torsion
[ 10763 10752 10751 10750 ] final -129.25 input  -60.55 | X-H torsion
[ 11005 11000 10999 10996 ] final   65.80 input  -57.11 | X-H torsion

> <Gold.Protein.ActiveResidues>
 VAL166  LYS551  ARG553  GLY616  TRP617  ASP618  TYR619  PRO620  LYS621  CYS622 
 ASP623  PHE694  ASN695  SER759  ASP760  ASP761  ALA762  ILE779  LEU786  VAL792 
 PHE793  MET794  SER795  GLU796  ALA797  LYS798  CYS799  TRP800  GLU811  SER814 

> <Gold.Protein.RotatedAtoms>
  151.0083  134.9377  159.7992 H   0  0  0  0  0  0  0  0  0  0  0  0  # atno 6907 bound_to 6896
  152.5296  134.3062  159.9106 H   0  0  0  0  0  0  0  0  0  0  0  0  # atno 6908 bound_to 6896
  151.3068  133.4056  159.2678 H   0  0  0  0  0  0  0  0  0  0  0  0  # atno 6909 bound_to 6896
  145.2812  139.2632  143.3914 H   0  0  0  0  0  0  0  0  0  0  0  0  # atno 7974 bound_to 7965
  154.9879  140.0395  157.2306 H   0  0  0  0  0  0  0  0  0  0  0  0  # atno 8008 bound_to 7997
  154.7655  140.2792  155.6157 H   0  0  0  0  0  0  0  0  0  0  0  0  # atno 8009 bound_to 7997
  156.2912  140.2620  156.2444 H   0  0  0  0  0  0  0  0  0  0  0  0  # atno 8010 bound_to 7997
  140.4520  143.2480  151.8475 H   0  0  0  0  0  0  0  0  0  0  0  0  # atno 10167 bound_to 10162
  156.0228  130.4426  150.2954 H   0  0  0  0  0  0  0  0  0  0  0  0  # atno 10718 bound_to 10713
  154.8757  135.3901  154.3889 H   0  0  0  0  0  0  0  0  0  0  0  0  # atno 10763 bound_to 10752
  153.4628  135.7029  153.6045 H   0  0  0  0  0  0  0  0  0  0  0  0  # atno 10764 bound_to 10752
  153.4537  135.3828  155.2267 H   0  0  0  0  0  0  0  0  0  0  0  0  # atno 10765 bound_to 10752
  139.9871  134.6650  156.0156 H   0  0  0  0  0  0  0  0  0  0  0  0  # atno 11005 bound_to 11000
  146.3216  140.3280  142.8638 LP  0  0  0  0  0  0  0  0  0  0  0  0  # atno 17320 bound_to 7965
  144.9252  140.7913  143.5724 LP  0  0  0  0  0  0  0  0  0  0  0  0  # atno 17321 bound_to 7965
  139.4797  144.5109  151.8934 LP  0  0  0  0  0  0  0  0  0  0  0  0  # atno 17342 bound_to 10162
  140.4196  144.2261  150.5887 LP  0  0  0  0  0  0  0  0  0  0  0  0  # atno 17343 bound_to 10162
  157.1057  131.0208  151.3068 LP  0  0  0  0  0  0  0  0  0  0  0  0  # atno 17370 bound_to 10713
  157.4744  130.7728  149.7354 LP  0  0  0  0  0  0  0  0  0  0  0  0  # atno 17371 bound_to 10713
  141.1534  133.6545  156.4085 LP  0  0  0  0  0  0  0  0  0  0  0  0  # atno 17394 bound_to 11000
  140.4980  134.6512  157.5237 LP  0  0  0  0  0  0  0  0  0  0  0  0  # atno 17395 bound_to 11000

$$$$
