AV-unprocessed.smi:2229|AV-procd|sdf|9031|dock2
  -GOLD-   2272012233D 1   1.00000     0.00000
 Structure written by MMmdl.
 43 44  0  0  0  0  0  0  0  0  2 V2000
  152.7392  142.6621  160.0841 C   0  0  0  0  0  0  0  0  0  0  0  0
  152.4305  143.4916  158.8285 C   0  0  0  0  0  0  0  0  0  0  0  0
  152.0370  144.9268  159.2216 C   0  0  0  0  0  0  0  0  0  0  0  0
  151.3501  142.8003  157.9715 C   0  0  0  0  0  0  0  0  0  0  0  0
  151.6910  141.3503  157.5854 C   0  0  0  0  0  0  0  0  0  0  0  0
  150.6408  140.7025  156.6642 C   0  0  2  0  0  0  0  0  0  0  0  0
  151.1550  139.5394  155.8122 C   0  0  0  0  0  0  0  0  0  0  0  0
  150.1012  139.3989  154.7169 C   0  0  0  0  0  0  0  0  0  0  0  0
  149.6591  140.8330  154.4079 C   0  0  0  0  0  0  0  0  0  0  0  0
  150.0227  141.6795  155.6434 C   0  0  1  0  0  0  0  0  0  0  0  0
  148.8441  142.3347  156.2031 N   0  0  0  0  0  0  0  0  0  0  0  0
  147.7626  141.6997  156.6798 C   0  0  0  0  0  0  0  0  0  0  0  0
  147.6902  140.4757  156.7963 O   0  0  0  0  0  0  0  0  0  0  0  0
  146.5849  142.5880  157.0951 C   0  0  0  0  0  0  0  0  0  0  0  0
  146.3818  142.6024  158.5463 N   0  0  0  0  0  0  0  0  0  0  0  0
  147.1616  143.3380  159.4029 C   0  0  0  0  0  0  0  0  0  0  0  0
  146.7727  143.1855  160.6177 N   0  0  0  0  0  0  0  0  0  0  0  0
  145.6584  142.2878  160.5774 N   0  5  0  0  0  0  0  0  0  0  0  0
  145.4667  141.9642  159.2794 C   0  0  0  0  0  0  0  0  0  0  0  0
  144.6142  141.2197  158.7960 O   0  0  0  0  0  0  0  0  0  0  0  0
  151.8594  142.5663  160.7214 H   0  0  0  0  0  0  0  0  0  0  0  0
  153.5301  143.1231  160.6763 H   0  0  0  0  0  0  0  0  0  0  0  0
  153.0714  141.6573  159.8215 H   0  0  0  0  0  0  0  0  0  0  0  0
  153.3488  143.5429  158.2417 H   0  0  0  0  0  0  0  0  0  0  0  0
  151.0929  144.9440  159.7671 H   0  0  0  0  0  0  0  0  0  0  0  0
  151.9281  145.5727  158.3510 H   0  0  0  0  0  0  0  0  0  0  0  0
  152.7953  145.3800  159.8605 H   0  0  0  0  0  0  0  0  0  0  0  0
  150.4089  142.7957  158.5224 H   0  0  0  0  0  0  0  0  0  0  0  0
  151.1698  143.3899  157.0717 H   0  0  0  0  0  0  0  0  0  0  0  0
  152.6490  141.3357  157.0682 H   0  0  0  0  0  0  0  0  0  0  0  0
  151.8222  140.7477  158.4848 H   0  0  0  0  0  0  0  0  0  0  0  0
  149.8363  140.3085  157.2889 H   0  0  0  0  0  0  0  0  0  0  0  0
  152.1187  139.7937  155.3684 H   0  0  0  0  0  0  0  0  0  0  0  0
  151.2806  138.6206  156.3859 H   0  0  0  0  0  0  0  0  0  0  0  0
  150.4781  138.8773  153.8367 H   0  0  0  0  0  0  0  0  0  0  0  0
  149.2528  138.8308  155.1006 H   0  0  0  0  0  0  0  0  0  0  0  0
  150.1981  141.2092  153.5377 H   0  0  0  0  0  0  0  0  0  0  0  0
  148.5964  140.8700  154.1639 H   0  0  0  0  0  0  0  0  0  0  0  0
  150.7678  142.4163  155.3366 H   0  0  0  0  0  0  0  0  0  0  0  0
  148.8171  143.3428  156.1555 H   0  0  0  0  0  0  0  0  0  0  0  0
  146.7615  143.5954  156.7152 H   0  0  0  0  0  0  0  0  0  0  0  0
  145.6673  142.2358  156.6206 H   0  0  0  0  0  0  0  0  0  0  0  0
  147.9832  143.9436  159.0170 H   0  0  0  0  0  0  0  0  0  0  0  0
  1  2  1  0  0  0  0
  1 21  1  0  0  0  0
  1 22  1  0  0  0  0
  1 23  1  0  0  0  0
  2  3  1  0  0  0  0
  2  4  1  0  0  0  0
  2 24  1  0  0  0  0
  3 25  1  0  0  0  0
  3 26  1  0  0  0  0
  3 27  1  0  0  0  0
  4  5  1  0  0  0  0
  4 28  1  0  0  0  0
  4 29  1  0  0  0  0
  5  6  1  0  0  0  0
  5 30  1  0  0  0  0
  5 31  1  0  0  0  0
  6 10  1  0  0  0  0
  6  7  1  0  0  0  0
  6 32  1  0  0  0  0
  7  8  1  0  0  0  0
  7 33  1  0  0  0  0
  7 34  1  0  0  0  0
  8  9  1  0  0  0  0
  8 35  1  0  0  0  0
  8 36  1  0  0  0  0
  9 10  1  0  0  0  0
  9 37  1  0  0  0  0
  9 38  1  0  0  0  0
 10 11  1  0  0  0  0
 10 39  1  0  0  0  0
 11 12  1  0  0  0  0
 11 40  1  0  0  0  0
 12 13  2  0  0  0  0
 12 14  1  0  0  0  0
 14 15  1  0  0  0  0
 14 41  1  0  0  0  0
 14 42  1  0  0  0  0
 15 19  1  0  0  0  0
 15 16  1  0  0  0  0
 16 17  2  0  0  0  0
 16 43  1  0  0  0  0
 17 18  1  0  0  0  0
 18 19  1  0  0  0  0
 19 20  2  0  0  0  0
M  CHG  1  18  -1
M  END
> <s_m_source_file>
AV-unprocessed.smi

> <i_m_source_file_index>
2229

> <i_lp_mmshare_version>
43012

> <i_f3d_flags>
0

> <s_epik_input>
W0NIM11bQ0hdKFtDSDNdKVtDSDJdW0NIMl1bQ0BASF0xW0NIMl1bQ0gyXVtDSDJdW0NASF0xW05IXUMoPU8pW0NIMl1uMltjSF1uW25IXWMyPU8=

> <s_epik_cmdline>
J2VwaWtfcHl0aG9uJywgJy1waCcsICc3LjAnLCAnLXRuJywgJzgnLCAnLW1hJywgJzIwMCcsICctbWV0YWxfYmluZGluZycsICctaW1hZScsICc8aW5maWxlLm1hZT4nLCAnLW9tYWUnLCAnPG91dGZpbGUubWFlPic=

> <r_lp_tautomer_probability>
1

> <r_epik_Ionization_Penalty>
13.6733

> <r_epik_Ionization_Penalty_Charging>
13.6725

> <r_epik_Ionization_Penalty_Neutral>
0.000837689

> <r_epik_State_Penalty>
5.67062

> <r_epik_Charging_Adjusted_Penalty>
19.3431

> <i_epik_Tot_Q>
-1

> <i_epik_Tot_abs_Q>
1

> <r_epik_Metal_State_Penalty>
1.61781

> <b_epik_Metal_Only>
1

> <s_lp_Force_Field>
OPLS_2005

> <r_lp_Energy>
25.828

> <b_lp_Chiralities_Consistent>
1

> <s_lp_Variant>
AV-unprocessed.smi:2229-5

> <Gold.Version>
5.8.1

> <Gold.Id.Protein>
6NUR|6NUR_protein|mol2

> <Gold.PLP.Fitness>
45.3123

> <Gold.PLP.PLP>
-36.3279

> <Gold.PLP.part.hbond>
-3.3460

> <Gold.PLP.part.metal>
0.0000

> <Gold.PLP.part.buried>
-2.3221

> <Gold.PLP.part.nonpolar>
-30.8453

> <Gold.PLP.part.repulsive>
0.1203

> <Gold.PLP.ligand.clash>
0.0000

> <Gold.PLP.ligand.torsion>
0.5849

> <Gold.PLP.Chemscore.Hbond>
2.4788

> <Gold.PLP.Chemscore.CHOScore>
0.8942

> <Gold.PLP.Chemscore.Metal>
0.0000

> <Gold.Chemscore.Hbonds>
donor molecule, donor type, donor heavy atom, donor atom, acceptor molecule, acceptor atom, score
      L1  H    11    40       P1  8028  0.83
      P1  H  6933  6944       L1    17  0.88
      P1  H  6934  6946       L1    18  0.40
      L1  C    16    43       P1  8029  0.67

> <Gold.PLP.Chemscore.Internal.Correction>
0.0355

> <Gold.Rescore>
     Score         DG    S(hbond)    S(metal)    S(lipo)     H(rot)  DE(clash)    DE(int)     intcor
     12.49     -14.10       1.46        0.00      88.87       2.59       0.08       1.53       ----

> <Gold.Chemscore.Fitness>
12.4946

> <Gold.Chemscore.DG>
-14.0992

> <Gold.Chemscore.ZeroCoef>
-5.4800

> <Gold.Chemscore.Hbond>
1.4556

> <Gold.Chemscore.Metal>
0.0000

> <Gold.Chemscore.Lipo>
88.8709

> <Gold.Chemscore.Internal_Hbond>
0.0000

> <Gold.Chemscore.DEClash>
0.0754

> <Gold.Chemscore.DEInternal>
1.5292

> <Gold.Chemscore.Rot>
2.5939

> <Gold.Chemscore.Internal.Correction>
   9.000000E+99

> <Gold.Chemscore.Hbonds>
donor molecule, donor type, donor heavy atom, donor atom, acceptor molecule, acceptor atom, score
      L1  H    11    40       P1  8028  0.79
      P1  H  6933  6944       L1    17  0.18

> <Gold.Chemscore.Hbond.Weighted>
-4.8617

> <Gold.Chemscore.Metal.Weighted>
-0.0000

> <Gold.Chemscore.Lipo.Weighted>
-10.3979

> <Gold.Chemscore.Internal_Hbond.Weighted>
0.0000

> <Gold.Chemscore.DEClash.Weighted>
0.0754

> <Gold.Chemscore.DEInternal.Weighted>
1.5292

> <Gold.Chemscore.Rot.Weighted>
6.6405

> <Gold.Chemscore.Internal.Correction.Weighted>
   9.000000E+99

> <Gold.Protein.RotatedTorsions>
[ 6907 6896 6895 6894 ] final  132.79 input  -60.11 | X-H torsion
[ 7974 7965 7964 7962 ] final   94.17 input  175.53 | X-H torsion
[ 8008 7997 7996 7995 ] final   14.94 input   59.86 | X-H torsion
[ 10167 10162 10161 10158 ] final  115.76 input  -65.29 | X-H torsion
[ 10718 10713 10712 10709 ] final  159.29 input   66.30 | X-H torsion
[ 10763 10752 10751 10750 ] final   70.85 input  -60.55 | X-H torsion
[ 11005 11000 10999 10996 ] final  132.08 input  -57.11 | X-H torsion

> <Gold.Protein.ActiveResidues>
 VAL166  LYS551  ARG553  GLY616  TRP617  ASP618  TYR619  PRO620  LYS621  CYS622 
 ASP623  PHE694  ASN695  SER759  ASP760  ASP761  ALA762  ILE779  LEU786  VAL792 
 PHE793  MET794  SER795  GLU796  ALA797  LYS798  CYS799  TRP800  GLU811  SER814 

> <Gold.Protein.RotatedAtoms>
  152.3287  133.5934  159.5794 H   0  0  0  0  0  0  0  0  0  0  0  0  # atno 6907 bound_to 6896
  150.7411  133.9900  159.3613 H   0  0  0  0  0  0  0  0  0  0  0  0  # atno 6908 bound_to 6896
  151.7777  135.0770  160.0420 H   0  0  0  0  0  0  0  0  0  0  0  0  # atno 6909 bound_to 6896
  145.4691  139.2283  143.2945 H   0  0  0  0  0  0  0  0  0  0  0  0  # atno 7974 bound_to 7965
  154.8556  140.2936  155.5571 H   0  0  0  0  0  0  0  0  0  0  0  0  # atno 8008 bound_to 7997
  156.3018  140.2488  156.3454 H   0  0  0  0  0  0  0  0  0  0  0  0  # atno 8009 bound_to 7997
  154.8974  140.0392  157.1863 H   0  0  0  0  0  0  0  0  0  0  0  0  # atno 8010 bound_to 7997
  139.6295  144.7113  151.2463 H   0  0  0  0  0  0  0  0  0  0  0  0  # atno 10167 bound_to 10162
  157.1663  131.0599  151.2206 H   0  0  0  0  0  0  0  0  0  0  0  0  # atno 10718 bound_to 10713
  153.0365  135.5158  154.7504 H   0  0  0  0  0  0  0  0  0  0  0  0  # atno 10763 bound_to 10752
  154.6476  135.2920  155.0029 H   0  0  0  0  0  0  0  0  0  0  0  0  # atno 10764 bound_to 10752
  154.0924  135.6648  153.4907 H   0  0  0  0  0  0  0  0  0  0  0  0  # atno 10765 bound_to 10752
  139.9768  134.9561  156.9531 H   0  0  0  0  0  0  0  0  0  0  0  0  # atno 11005 bound_to 11000
  146.2407  140.5468  142.8935 LP  0  0  0  0  0  0  0  0  0  0  0  0  # atno 17320 bound_to 7965
  144.7956  140.6116  143.6512 LP  0  0  0  0  0  0  0  0  0  0  0  0  # atno 17321 bound_to 7965
  140.7430  143.6507  150.8251 LP  0  0  0  0  0  0  0  0  0  0  0  0  # atno 17342 bound_to 10162
  140.0129  143.5623  152.2831 LP  0  0  0  0  0  0  0  0  0  0  0  0  # atno 17343 bound_to 10162
  157.4086  130.7372  149.6821 LP  0  0  0  0  0  0  0  0  0  0  0  0  # atno 17370 bound_to 10713
  155.9745  130.4101  150.3915 LP  0  0  0  0  0  0  0  0  0  0  0  0  # atno 17371 bound_to 10713
  140.5177  134.0938  155.7285 LP  0  0  0  0  0  0  0  0  0  0  0  0  # atno 17394 bound_to 11000
  141.1445  133.9080  157.2249 LP  0  0  0  0  0  0  0  0  0  0  0  0  # atno 17395 bound_to 11000

$$$$
