AV-unprocessed.smi:2691|AV-procd|sdf|10390|dock7
  -GOLD-   2272014423D 1   1.00000     0.00000
 Structure written by MMmdl.
 49 51  0  0  0  0  0  0  0  0  1 V2000
  152.5435  143.5342  160.6092 C   0  0  0  0  0  0  0  0  0  0  0  0
  152.1445  142.6846  159.4156 C   0  0  0  0  0  0  0  0  0  0  0  0
  152.8325  141.4745  159.1730 C   0  0  0  0  0  0  0  0  0  0  0  0
  152.4957  140.6579  158.0716 C   0  0  0  0  0  0  0  0  0  0  0  0
  153.0285  139.4510  157.6521 N   0  0  0  0  0  0  0  0  0  0  0  0
  152.2991  139.1988  156.5694 C   0  0  0  0  0  0  0  0  0  0  0  0
  151.3616  140.1051  156.2315 N   0  0  0  0  0  0  0  0  0  0  0  0
  150.4630  140.0540  155.0920 C   0  0  0  0  0  0  0  0  0  0  0  0
  150.1405  138.6090  154.6615 C   0  0  2  0  0  0  0  0  0  0  0  0
  149.2749  138.6943  153.5482 O   0  0  0  0  0  0  0  0  0  0  0  0
  149.4482  137.7696  155.7640 C   0  0  0  0  0  0  0  0  0  0  0  0
  149.3011  136.3612  155.3664 N   0  0  0  0  0  0  0  0  0  0  0  0
  147.9854  135.8976  155.1806 C   0  0  0  0  0  0  0  0  0  0  0  0
  147.7371  134.6791  154.8198 N   0  0  0  0  0  0  0  0  0  0  0  0
  148.7954  133.7877  154.6031 C   0  0  0  0  0  0  0  0  0  0  0  0
  148.4478  132.3684  154.1732 C   0  0  0  0  0  0  0  0  0  0  0  0
  149.6942  131.4704  154.1150 C   0  0  0  0  0  0  0  0  0  0  0  0
  147.6845  132.3611  152.8399 C   0  0  0  0  0  0  0  0  0  0  0  0
  150.0788  134.1900  154.7627 C   0  0  0  0  0  0  0  0  0  0  0  0
  150.3893  135.5604  155.1696 C   0  0  0  0  0  0  0  0  0  0  0  0
  151.5433  135.9628  155.3182 O   0  0  0  0  0  0  0  0  0  0  0  0
  151.4443  141.0891  157.2109 C   0  0  0  0  0  0  0  0  0  0  0  0
  150.7483  142.2882  157.4450 C   0  0  0  0  0  0  0  0  0  0  0  0
  151.0973  143.0919  158.5505 C   0  0  0  0  0  0  0  0  0  0  0  0
  150.3423  144.3869  158.7923 C   0  0  0  0  0  0  0  0  0  0  0  0
  153.3840  143.0949  161.1474 H   0  0  0  0  0  0  0  0  0  0  0  0
  151.7111  143.6275  161.3070 H   0  0  0  0  0  0  0  0  0  0  0  0
  152.8397  144.5322  160.2859 H   0  0  0  0  0  0  0  0  0  0  0  0
  153.6292  141.1630  159.8323 H   0  0  0  0  0  0  0  0  0  0  0  0
  152.4633  138.3085  155.9802 H   0  0  0  0  0  0  0  0  0  0  0  0
  149.5468  140.5912  155.3422 H   0  0  0  0  0  0  0  0  0  0  0  0
  150.9320  140.5986  154.2711 H   0  0  0  0  0  0  0  0  0  0  0  0
  151.0630  138.1284  154.3335 H   0  0  0  0  0  0  0  0  0  0  0  0
  149.2330  137.8459  153.1339 H   0  0  0  0  0  0  0  0  0  0  0  0
  150.0283  137.7941  156.6869 H   0  0  0  0  0  0  0  0  0  0  0  0
  148.4952  138.2194  156.0511 H   0  0  0  0  0  0  0  0  0  0  0  0
  147.1991  136.6336  155.3572 H   0  0  0  0  0  0  0  0  0  0  0  0
  147.7831  131.9466  154.9283 H   0  0  0  0  0  0  0  0  0  0  0  0
  150.2167  131.4623  155.0721 H   0  0  0  0  0  0  0  0  0  0  0  0
  150.3980  131.8078  153.3534 H   0  0  0  0  0  0  0  0  0  0  0  0
  149.4235  130.4408  153.8798 H   0  0  0  0  0  0  0  0  0  0  0  0
  146.7884  132.9797  152.8979 H   0  0  0  0  0  0  0  0  0  0  0  0
  147.3703  131.3513  152.5748 H   0  0  0  0  0  0  0  0  0  0  0  0
  148.2996  132.7418  152.0237 H   0  0  0  0  0  0  0  0  0  0  0  0
  150.8905  133.4985  154.5896 H   0  0  0  0  0  0  0  0  0  0  0  0
  149.9551  142.5886  156.7767 H   0  0  0  0  0  0  0  0  0  0  0  0
  149.5340  144.5163  158.0720 H   0  0  0  0  0  0  0  0  0  0  0  0
  151.0133  145.2413  158.7013 H   0  0  0  0  0  0  0  0  0  0  0  0
  149.9034  144.3949  159.7904 H   0  0  0  0  0  0  0  0  0  0  0  0
  1  2  1  0  0  0  0
  1 26  1  0  0  0  0
  1 27  1  0  0  0  0
  1 28  1  0  0  0  0
  2 24  1  0  0  0  0
  2  3  2  0  0  0  0
  3  4  1  0  0  0  0
  3 29  1  0  0  0  0
  4 22  2  0  0  0  0
  4  5  1  0  0  0  0
  5  6  2  0  0  0  0
  6  7  1  0  0  0  0
  6 30  1  0  0  0  0
  7  8  1  0  0  0  0
  7 22  1  0  0  0  0
  8  9  1  0  0  0  0
  8 31  1  0  0  0  0
  8 32  1  0  0  0  0
  9 10  1  0  0  0  0
  9 11  1  0  0  0  0
  9 33  1  0  0  0  0
 10 34  1  0  0  0  0
 11 12  1  0  0  0  0
 11 35  1  0  0  0  0
 11 36  1  0  0  0  0
 12 20  1  0  0  0  0
 12 13  1  0  0  0  0
 13 14  2  0  0  0  0
 13 37  1  0  0  0  0
 14 15  1  0  0  0  0
 15 16  1  0  0  0  0
 15 19  2  0  0  0  0
 16 17  1  0  0  0  0
 16 18  1  0  0  0  0
 16 38  1  0  0  0  0
 17 39  1  0  0  0  0
 17 40  1  0  0  0  0
 17 41  1  0  0  0  0
 18 42  1  0  0  0  0
 18 43  1  0  0  0  0
 18 44  1  0  0  0  0
 19 20  1  0  0  0  0
 19 45  1  0  0  0  0
 20 21  2  0  0  0  0
 22 23  1  0  0  0  0
 23 24  2  0  0  0  0
 23 46  1  0  0  0  0
 24 25  1  0  0  0  0
 25 47  1  0  0  0  0
 25 48  1  0  0  0  0
 25 49  1  0  0  0  0
M  END
> <s_m_source_file>
AV-unprocessed.smi

> <i_m_source_file_index>
2691

> <i_lp_mmshare_version>
43012

> <i_f3d_flags>
0

> <s_epik_input>
W0NIM11jKFtjSF0xKWMoW0NIM10pW2NIXWMoYzEyKW4oW2NIXW4yKVtDSDJdW0NASF0oW09IXSlbQ0gyXW4zW2NIXW5jKFtDSF0oW0NIM10pW0NIM10pW2NIXWMzPU8=

> <s_epik_cmdline>
J2VwaWtfcHl0aG9uJywgJy1waCcsICc3LjAnLCAnLXRuJywgJzgnLCAnLW1hJywgJzIwMCcsICctbWV0YWxfYmluZGluZycsICctaW1hZScsICc8aW5maWxlLm1hZT4nLCAnLW9tYWUnLCAnPG91dGZpbGUubWFlPic=

> <r_lp_tautomer_probability>
1

> <r_epik_Ionization_Penalty>
0.113357

> <r_epik_Ionization_Penalty_Charging>
3.84185e-08

> <r_epik_Ionization_Penalty_Neutral>
0.113357

> <r_epik_State_Penalty>
0.103025

> <r_epik_Charging_Adjusted_Penalty>
0.103025

> <i_epik_Tot_Q>
0

> <i_epik_Tot_abs_Q>
0

> <r_epik_Metal_State_Penalty>
0.0863451

> <b_epik_Metal_Only>
0

> <s_lp_Force_Field>
OPLS_2005

> <r_lp_Energy>
18.3457

> <b_lp_Chiralities_Consistent>
1

> <s_lp_Variant>
AV-unprocessed.smi:2691-1

> <Gold.Version>
5.8.1

> <Gold.Id.Protein>
6NUR|6NUR_protein|mol2

> <Gold.PLP.Fitness>
53.7078

> <Gold.PLP.PLP>
-45.8527

> <Gold.PLP.part.hbond>
-4.0000

> <Gold.PLP.part.metal>
0.0000

> <Gold.PLP.part.buried>
-2.4666

> <Gold.PLP.part.nonpolar>
-39.1249

> <Gold.PLP.part.repulsive>
0.1857

> <Gold.PLP.ligand.clash>
0.0000

> <Gold.PLP.ligand.torsion>
0.4669

> <Gold.PLP.Chemscore.Hbond>
2.9088

> <Gold.PLP.Chemscore.CHOScore>
0.0000

> <Gold.PLP.Chemscore.Metal>
0.0000

> <Gold.Chemscore.Hbonds>
donor molecule, donor type, donor heavy atom, donor atom, acceptor molecule, acceptor atom, score
      L1  H    10    34       P1  7948  0.96
      P1  H  7997  8009       L1     5  0.95
      P1  H 10752 10765       L1    21  1.00

> <Gold.PLP.Chemscore.Internal.Correction>
0.0627

> <Gold.Rescore>
     Score         DG    S(hbond)    S(metal)    S(lipo)     H(rot)  DE(clash)    DE(int)     intcor
     19.29     -19.95       2.06        0.00     118.57       2.45       0.15       0.52       ----

> <Gold.Chemscore.Fitness>
19.2883

> <Gold.Chemscore.DG>
-19.9517

> <Gold.Chemscore.ZeroCoef>
-5.4800

> <Gold.Chemscore.Hbond>
2.0600

> <Gold.Chemscore.Metal>
0.0000

> <Gold.Chemscore.Lipo>
118.5671

> <Gold.Chemscore.Internal_Hbond>
0.0000

> <Gold.Chemscore.DEClash>
0.1474

> <Gold.Chemscore.DEInternal>
0.5159

> <Gold.Chemscore.Rot>
2.4536

> <Gold.Chemscore.Internal.Correction>
   9.000000E+99

> <Gold.Chemscore.Hbonds>
donor molecule, donor type, donor heavy atom, donor atom, acceptor molecule, acceptor atom, score
      L1  H    10    34       P1  7948  0.90
      P1  H  7997  8009       L1     5  0.14
      P1  H 10752 10765       L1    21  0.98

> <Gold.Chemscore.Hbond.Weighted>
-6.8806

> <Gold.Chemscore.Metal.Weighted>
-0.0000

> <Gold.Chemscore.Lipo.Weighted>
-13.8723

> <Gold.Chemscore.Internal_Hbond.Weighted>
0.0000

> <Gold.Chemscore.DEClash.Weighted>
0.1474

> <Gold.Chemscore.DEInternal.Weighted>
0.5159

> <Gold.Chemscore.Rot.Weighted>
6.2812

> <Gold.Chemscore.Internal.Correction.Weighted>
   9.000000E+99

> <Gold.Protein.RotatedTorsions>
[ 6907 6896 6895 6894 ] final  172.89 input  -60.11 | X-H torsion
[ 7974 7965 7964 7962 ] final   15.00 input  175.53 | X-H torsion
[ 8008 7997 7996 7995 ] final  146.93 input   59.86 | X-H torsion
[ 10167 10162 10161 10158 ] final  -68.04 input  -65.29 | X-H torsion
[ 10718 10713 10712 10709 ] final -111.45 input   66.30 | X-H torsion
[ 10763 10752 10751 10750 ] final -176.18 input  -60.55 | X-H torsion
[ 11005 11000 10999 10996 ] final    7.93 input  -57.11 | X-H torsion

> <Gold.Protein.ActiveResidues>
 VAL166  LYS551  ARG553  GLY616  TRP617  ASP618  TYR619  PRO620  LYS621  CYS622 
 ASP623  PHE694  ASN695  SER759  ASP760  ASP761  ALA762  ILE779  LEU786  VAL792 
 PHE793  MET794  SER795  GLU796  ALA797  LYS798  CYS799  TRP800  GLU811  SER814 

> <Gold.Protein.RotatedAtoms>
  151.7770  133.3346  159.3460 H   0  0  0  0  0  0  0  0  0  0  0  0  # atno 6907 bound_to 6896
  150.7440  134.5966  159.6024 H   0  0  0  0  0  0  0  0  0  0  0  0  # atno 6908 bound_to 6896
  152.3302  134.7271  160.0343 H   0  0  0  0  0  0  0  0  0  0  0  0  # atno 6909 bound_to 6896
  146.2290  139.8958  142.8547 H   0  0  0  0  0  0  0  0  0  0  0  0  # atno 7974 bound_to 7965
  156.2840  140.2169  156.5457 H   0  0  0  0  0  0  0  0  0  0  0  0  # atno 8008 bound_to 7997
  154.7333  140.0493  157.0768 H   0  0  0  0  0  0  0  0  0  0  0  0  # atno 8009 bound_to 7997
  155.0325  140.3136  155.4756 H   0  0  0  0  0  0  0  0  0  0  0  0  # atno 8010 bound_to 7997
  140.5537  143.2312  151.6862 H   0  0  0  0  0  0  0  0  0  0  0  0  # atno 10167 bound_to 10162
  156.0647  130.5868  150.8374 H   0  0  0  0  0  0  0  0  0  0  0  0  # atno 10718 bound_to 10713
  154.5755  135.2831  155.0785 H   0  0  0  0  0  0  0  0  0  0  0  0  # atno 10763 bound_to 10752
  154.2141  135.6402  153.5128 H   0  0  0  0  0  0  0  0  0  0  0  0  # atno 10764 bound_to 10752
  153.0071  135.5499  154.6392 H   0  0  0  0  0  0  0  0  0  0  0  0  # atno 10765 bound_to 10752
  140.5427  134.0359  155.7909 H   0  0  0  0  0  0  0  0  0  0  0  0  # atno 11005 bound_to 11000
  145.2373  140.9996  143.3956 LP  0  0  0  0  0  0  0  0  0  0  0  0  # atno 17320 bound_to 7965
  144.9481  139.4113  143.6416 LP  0  0  0  0  0  0  0  0  0  0  0  0  # atno 17321 bound_to 7965
  139.5038  144.3776  152.0408 LP  0  0  0  0  0  0  0  0  0  0  0  0  # atno 17342 bound_to 10162
  140.2895  144.3769  150.6093 LP  0  0  0  0  0  0  0  0  0  0  0  0  # atno 17343 bound_to 10162
  157.5681  131.0946  150.9459 LP  0  0  0  0  0  0  0  0  0  0  0  0  # atno 17370 bound_to 10713
  156.9681  130.5480  149.5289 LP  0  0  0  0  0  0  0  0  0  0  0  0  # atno 17371 bound_to 10713
  141.1218  133.9449  157.2715 LP  0  0  0  0  0  0  0  0  0  0  0  0  # atno 17394 bound_to 11000
  139.9495  135.0178  156.8953 LP  0  0  0  0  0  0  0  0  0  0  0  0  # atno 17395 bound_to 11000

$$$$
