AV-unprocessed.smi:2978|AV-procd|sdf|11369|dock8
  -GOLD-   2272016283D 1   1.00000     0.00000
 Structure written by MMmdl.
 32 33  0  0  0  0  0  0  0  0  1 V2000
  149.7766  141.5418  157.9238 O   0  0  0  0  0  0  0  0  0  0  0  0
  150.7832  141.8534  157.2857 C   0  0  0  0  0  0  0  0  0  0  0  0
  151.6549  143.0400  157.7227 C   0  0  0  0  0  0  0  0  0  0  0  0
  152.1475  142.9218  159.1031 N   0  0  0  0  0  0  0  0  0  0  0  0
  151.7930  143.9799  159.9217 N   0  0  0  0  0  0  0  0  0  0  0  0
  152.1567  143.9751  161.1576 C   0  0  0  0  0  0  0  0  0  0  0  0
  152.9333  142.8968  161.7282 C   0  0  0  0  0  0  0  0  0  0  0  0
  153.3919  142.9455  163.3940 Cl  0  0  0  0  0  0  0  0  0  0  0  0
  153.2813  141.8675  160.9157 C   0  0  0  0  0  0  0  0  0  0  0  0
  154.2117  140.5420  161.5256 Cl  0  0  0  0  0  0  0  0  0  0  0  0
  152.8848  141.8391  159.5009 C   0  0  0  0  0  0  0  0  0  0  0  0
  153.1828  140.9251  158.7309 O   0  0  0  0  0  0  0  0  0  0  0  0
  151.1798  141.2074  156.1792 N   0  0  0  0  0  0  0  0  0  0  0  0
  150.5162  140.0426  155.6058 C   0  0  0  0  0  0  0  0  0  0  0  0
  149.0536  140.3511  155.2454 C   0  0  1  0  0  0  0  0  0  0  0  0
  148.8834  141.5638  154.3372 C   0  0  0  0  0  0  0  0  0  0  0  0
  147.5033  141.3303  153.7562 C   0  0  0  0  0  0  0  0  0  0  0  0
  147.3751  139.8039  153.7431 C   0  0  0  0  0  0  0  0  0  0  0  0
  148.4945  139.3020  154.4680 O   0  0  0  0  0  0  0  0  0  0  0  0
  152.4981  143.1482  157.0376 H   0  0  0  0  0  0  0  0  0  0  0  0
  151.0654  143.9512  157.6072 H   0  0  0  0  0  0  0  0  0  0  0  0
  151.8983  144.7849  161.8401 H   0  0  0  0  0  0  0  0  0  0  0  0
  152.0170  141.5285  155.7150 H   0  0  0  0  0  0  0  0  0  0  0  0
  151.0602  139.7035  154.7227 H   0  0  0  0  0  0  0  0  0  0  0  0
  150.5614  139.2281  156.3292 H   0  0  0  0  0  0  0  0  0  0  0  0
  148.4507  140.4847  156.1458 H   0  0  0  0  0  0  0  0  0  0  0  0
  148.9666  142.5109  154.8712 H   0  0  0  0  0  0  0  0  0  0  0  0
  149.6297  141.5521  153.5412 H   0  0  0  0  0  0  0  0  0  0  0  0
  146.7453  141.7608  154.4116 H   0  0  0  0  0  0  0  0  0  0  0  0
  147.3855  141.7734  152.7668 H   0  0  0  0  0  0  0  0  0  0  0  0
  146.4459  139.4851  154.2168 H   0  0  0  0  0  0  0  0  0  0  0  0
  147.3922  139.4052  152.7286 H   0  0  0  0  0  0  0  0  0  0  0  0
  1  2  2  0  0  0  0
  2  3  1  0  0  0  0
  2 13  1  0  0  0  0
  3  4  1  0  0  0  0
  3 20  1  0  0  0  0
  3 21  1  0  0  0  0
  4 11  1  0  0  0  0
  4  5  1  0  0  0  0
  5  6  2  0  0  0  0
  6  7  1  0  0  0  0
  6 22  1  0  0  0  0
  7  8  1  0  0  0  0
  7  9  2  0  0  0  0
  9 10  1  0  0  0  0
  9 11  1  0  0  0  0
 11 12  2  0  0  0  0
 13 14  1  0  0  0  0
 13 23  1  0  0  0  0
 14 15  1  0  0  0  0
 14 24  1  0  0  0  0
 14 25  1  0  0  0  0
 15 19  1  0  0  0  0
 15 16  1  0  0  0  0
 15 26  1  0  0  0  0
 16 17  1  0  0  0  0
 16 27  1  0  0  0  0
 16 28  1  0  0  0  0
 17 18  1  0  0  0  0
 17 29  1  0  0  0  0
 17 30  1  0  0  0  0
 18 19  1  0  0  0  0
 18 31  1  0  0  0  0
 18 32  1  0  0  0  0
M  END
> <s_m_source_file>
AV-unprocessed.smi

> <i_m_source_file_index>
2978

> <i_lp_mmshare_version>
43012

> <i_f3d_flags>
0

> <s_epik_input>
TzFbQ0gyXVtDSDJdW0NIMl1bQ0BIXTFbQ0gyXVtOSF1DKD1PKVtDSDJdbjJuW2NIXWMoQ2wpYyhDbCljMj1P

> <s_epik_cmdline>
J2VwaWtfcHl0aG9uJywgJy1waCcsICc3LjAnLCAnLXRuJywgJzgnLCAnLW1hJywgJzIwMCcsICctbWV0YWxfYmluZGluZycsICctaW1hZScsICc8aW5maWxlLm1hZT4nLCAnLW9tYWUnLCAnPG91dGZpbGUubWFlPic=

> <r_lp_tautomer_probability>
1

> <r_epik_Ionization_Penalty>
2.68881e-08

> <r_epik_Ionization_Penalty_Charging>
2.90862e-11

> <r_epik_Ionization_Penalty_Neutral>
2.6859e-08

> <r_epik_State_Penalty>
-0

> <r_epik_Charging_Adjusted_Penalty>
2.90862e-11

> <i_epik_Tot_Q>
0

> <i_epik_Tot_abs_Q>
0

> <r_epik_Metal_State_Penalty>
-0

> <b_epik_Metal_Only>
0

> <s_lp_Force_Field>
OPLS_2005

> <r_lp_Energy>
30.853

> <b_lp_Chiralities_Consistent>
1

> <s_lp_Variant>
AV-unprocessed.smi:2978-2

> <Gold.Version>
5.8.1

> <Gold.Id.Protein>
6NUR|6NUR_protein|mol2

> <Gold.PLP.Fitness>
42.3220

> <Gold.PLP.PLP>
-41.9675

> <Gold.PLP.part.hbond>
-1.0000

> <Gold.PLP.part.metal>
0.0000

> <Gold.PLP.part.buried>
-2.6048

> <Gold.PLP.part.nonpolar>
-38.0936

> <Gold.PLP.part.repulsive>
0.3694

> <Gold.PLP.ligand.clash>
0.0000

> <Gold.PLP.ligand.torsion>
0.0631

> <Gold.PLP.Chemscore.Hbond>
0.1544

> <Gold.PLP.Chemscore.CHOScore>
0.0000

> <Gold.PLP.Chemscore.Metal>
0.0000

> <Gold.Chemscore.Hbonds>
donor molecule, donor type, donor heavy atom, donor atom, acceptor molecule, acceptor atom, score
      P1  H  7997  8010       L1    12  0.05

> <Gold.PLP.Chemscore.Internal.Correction>
0.0174

> <Gold.Rescore>
     Score         DG    S(hbond)    S(metal)    S(lipo)     H(rot)  DE(clash)    DE(int)     intcor
     12.62     -14.23       0.66        0.00      96.06       1.83       0.34       1.27       ----

> <Gold.Chemscore.Fitness>
12.6175

> <Gold.Chemscore.DG>
-14.2341

> <Gold.Chemscore.ZeroCoef>
-5.4800

> <Gold.Chemscore.Hbond>
0.6602

> <Gold.Chemscore.Metal>
0.0000

> <Gold.Chemscore.Lipo>
96.0615

> <Gold.Chemscore.Internal_Hbond>
0.0000

> <Gold.Chemscore.DEClash>
0.3443

> <Gold.Chemscore.DEInternal>
1.2724

> <Gold.Chemscore.Rot>
1.8320

> <Gold.Chemscore.Internal.Correction>
   9.000000E+99

> <Gold.Chemscore.Hbonds>
donor molecule, donor type, donor heavy atom, donor atom, acceptor molecule, acceptor atom, score
      P1  H  7997  8010       L1    12  0.07

> <Gold.Chemscore.Hbond.Weighted>
-2.2049

> <Gold.Chemscore.Metal.Weighted>
-0.0000

> <Gold.Chemscore.Lipo.Weighted>
-11.2392

> <Gold.Chemscore.Internal_Hbond.Weighted>
0.0000

> <Gold.Chemscore.DEClash.Weighted>
0.3443

> <Gold.Chemscore.DEInternal.Weighted>
1.2724

> <Gold.Chemscore.Rot.Weighted>
4.6900

> <Gold.Chemscore.Internal.Correction.Weighted>
   9.000000E+99

> <Gold.Protein.RotatedTorsions>
[ 6907 6896 6895 6894 ] final   54.98 input  -60.11 | X-H torsion
[ 7974 7965 7964 7962 ] final  -70.65 input  175.53 | X-H torsion
[ 8008 7997 7996 7995 ] final   16.20 input   59.86 | X-H torsion
[ 10167 10162 10161 10158 ] final   47.92 input  -65.29 | X-H torsion
[ 10718 10713 10712 10709 ] final   15.39 input   66.30 | X-H torsion
[ 10763 10752 10751 10750 ] final   79.09 input  -60.55 | X-H torsion
[ 11005 11000 10999 10996 ] final  -79.08 input  -57.11 | X-H torsion

> <Gold.Protein.ActiveResidues>
 VAL166  LYS551  ARG553  GLY616  TRP617  ASP618  TYR619  PRO620  LYS621  CYS622 
 ASP623  PHE694  ASN695  SER759  ASP760  ASP761  ALA762  ILE779  LEU786  VAL792 
 PHE793  MET794  SER795  GLU796  ALA797  LYS798  CYS799  TRP800  GLU811  SER814 

> <Gold.Protein.RotatedAtoms>
  152.3493  134.7028  160.0240 H   0  0  0  0  0  0  0  0  0  0  0  0  # atno 6907 bound_to 6896
  151.7387  133.3315  159.3368 H   0  0  0  0  0  0  0  0  0  0  0  0  # atno 6908 bound_to 6896
  150.7529  134.6230  159.6191 H   0  0  0  0  0  0  0  0  0  0  0  0  # atno 6909 bound_to 6896
  145.6882  140.9163  143.0796 H   0  0  0  0  0  0  0  0  0  0  0  0  # atno 7974 bound_to 7965
  154.8736  140.2962  155.5466 H   0  0  0  0  0  0  0  0  0  0  0  0  # atno 8008 bound_to 7997
  156.3022  140.2455  156.3662 H   0  0  0  0  0  0  0  0  0  0  0  0  # atno 8009 bound_to 7997
  154.8791  140.0398  157.1760 H   0  0  0  0  0  0  0  0  0  0  0  0  # atno 8010 bound_to 7997
  140.2986  144.2961  150.6224 H   0  0  0  0  0  0  0  0  0  0  0  0  # atno 10167 bound_to 10162
  157.0528  130.6277  149.5771 H   0  0  0  0  0  0  0  0  0  0  0  0  # atno 10718 bound_to 10713
  153.0925  135.4852  154.8717 H   0  0  0  0  0  0  0  0  0  0  0  0  # atno 10763 bound_to 10752
  154.7286  135.3055  154.8931 H   0  0  0  0  0  0  0  0  0  0  0  0  # atno 10764 bound_to 10752
  153.9574  135.6816  153.4798 H   0  0  0  0  0  0  0  0  0  0  0  0  # atno 10765 bound_to 10752
  141.1666  133.7090  156.8069 H   0  0  0  0  0  0  0  0  0  0  0  0  # atno 11005 bound_to 11000
  144.7005  139.8786  143.7445 LP  0  0  0  0  0  0  0  0  0  0  0  0  # atno 17320 bound_to 7965
  146.0905  139.3895  143.0408 LP  0  0  0  0  0  0  0  0  0  0  0  0  # atno 17321 bound_to 7965
  140.5670  143.2185  151.7665 LP  0  0  0  0  0  0  0  0  0  0  0  0  # atno 17342 bound_to 10162
  139.4920  144.4269  151.9915 LP  0  0  0  0  0  0  0  0  0  0  0  0  # atno 17343 bound_to 10162
  156.0002  130.5080  150.7635 LP  0  0  0  0  0  0  0  0  0  0  0  0  # atno 17370 bound_to 10713
  157.5017  131.0919  151.0306 LP  0  0  0  0  0  0  0  0  0  0  0  0  # atno 17371 bound_to 10713
  140.2216  134.8753  157.3383 LP  0  0  0  0  0  0  0  0  0  0  0  0  # atno 17394 bound_to 11000
  140.1982  134.4287  155.7677 LP  0  0  0  0  0  0  0  0  0  0  0  0  # atno 17395 bound_to 11000

$$$$
