AV-unprocessed.smi:3245|AV-procd|sdf|12409|dock8
  -GOLD-   2272018293D 1   1.00000     0.00000
 Structure written by MMmdl.
 34 35  0  0  0  0  0  0  0  0  2 V2000
  150.4360  140.9794  158.0997 C   0  0  0  0  0  0  0  0  0  0  0  0
  150.2927  142.0632  157.0117 C   0  0  1  0  0  0  0  0  0  0  0  0
  151.4202  143.1148  157.0671 C   0  0  0  0  0  0  0  0  0  0  0  0
  151.5323  143.7599  158.3631 N   0  0  0  0  0  0  0  0  0  0  0  0
  150.7173  144.7282  158.9112 C   0  0  0  0  0  0  0  0  0  0  0  0
  151.2120  145.0225  160.1494 C   0  0  0  0  0  0  0  0  0  0  0  0
  152.3427  144.1673  160.2735 C   0  0  0  0  0  0  0  0  0  0  0  0
  152.5299  143.4104  159.2042 N   0  0  0  0  0  0  0  0  0  0  0  0
  150.3275  141.4597  155.6852 N   0  0  0  0  0  0  0  0  0  0  0  0
  149.3264  140.4144  155.5216 C   0  0  0  0  0  0  0  0  0  0  0  0
  149.7749  139.4113  154.4437 C   0  0  0  0  0  0  0  0  0  0  0  0
  150.9404  138.6249  154.8679 N   0  0  0  0  0  0  0  0  0  0  0  0
  152.1480  139.1458  155.1069 C   0  0  0  0  0  0  0  0  0  0  0  0
  152.4927  140.3251  155.0261 O   0  0  0  0  0  0  0  0  0  0  0  0
  153.0634  138.0121  155.5062 C   0  0  0  0  0  0  0  0  0  0  0  0
  152.1842  136.8671  155.4392 N   0  5  0  0  0  0  0  0  0  0  0  0
  150.9567  137.2908  155.0563 C   0  0  0  0  0  0  0  0  0  0  0  0
  149.9586  136.5902  154.8887 O   0  0  0  0  0  0  0  0  0  0  0  0
  150.4205  141.4156  159.0985 H   0  0  0  0  0  0  0  0  0  0  0  0
  151.3741  140.4342  157.9917 H   0  0  0  0  0  0  0  0  0  0  0  0
  149.6245  140.2536  158.0654 H   0  0  0  0  0  0  0  0  0  0  0  0
  149.3406  142.5803  157.1402 H   0  0  0  0  0  0  0  0  0  0  0  0
  152.3805  142.6524  156.8323 H   0  0  0  0  0  0  0  0  0  0  0  0
  151.2556  143.8889  156.3158 H   0  0  0  0  0  0  0  0  0  0  0  0
  149.8650  145.1243  158.3789 H   0  0  0  0  0  0  0  0  0  0  0  0
  150.8249  145.7385  160.8588 H   0  0  0  0  0  0  0  0  0  0  0  0
  153.0273  144.0738  161.1036 H   0  0  0  0  0  0  0  0  0  0  0  0
  150.1707  142.1715  154.9859 H   0  0  0  0  0  0  0  0  0  0  0  0
  149.1391  139.8971  156.4619 H   0  0  0  0  0  0  0  0  0  0  0  0
  148.3862  140.8738  155.2147 H   0  0  0  0  0  0  0  0  0  0  0  0
  148.9522  138.7263  154.2328 H   0  0  0  0  0  0  0  0  0  0  0  0
  149.9679  139.9254  153.5006 H   0  0  0  0  0  0  0  0  0  0  0  0
  153.9030  137.9515  154.8129 H   0  0  0  0  0  0  0  0  0  0  0  0
  153.4624  138.1914  156.5051 H   0  0  0  0  0  0  0  0  0  0  0  0
  1  2  1  0  0  0  0
  1 19  1  0  0  0  0
  1 20  1  0  0  0  0
  1 21  1  0  0  0  0
  2  3  1  0  0  0  0
  2  9  1  0  0  0  0
  2 22  1  0  0  0  0
  3  4  1  0  0  0  0
  3 23  1  0  0  0  0
  3 24  1  0  0  0  0
  4  8  1  0  0  0  0
  4  5  1  0  0  0  0
  5  6  2  0  0  0  0
  5 25  1  0  0  0  0
  6  7  1  0  0  0  0
  6 26  1  0  0  0  0
  7  8  2  0  0  0  0
  7 27  1  0  0  0  0
  9 10  1  0  0  0  0
  9 28  1  0  0  0  0
 10 11  1  0  0  0  0
 10 29  1  0  0  0  0
 10 30  1  0  0  0  0
 11 12  1  0  0  0  0
 11 31  1  0  0  0  0
 11 32  1  0  0  0  0
 12 17  1  0  0  0  0
 12 13  1  0  0  0  0
 13 14  2  0  0  0  0
 13 15  1  0  0  0  0
 15 16  1  0  0  0  0
 15 33  1  0  0  0  0
 15 34  1  0  0  0  0
 16 17  1  0  0  0  0
 17 18  2  0  0  0  0
M  CHG  1  16  -1
M  END
> <s_m_source_file>
AV-unprocessed.smi

> <i_m_source_file_index>
3245

> <i_lp_mmshare_version>
43012

> <i_f3d_flags>
0

> <s_epik_input>
bjFbY0hdW2NIXVtjSF1uMVtDSDJdW0NAQEhdKFtDSDNdKVtOSF1bQ0gyXVtDSDJdTjJDKD1PKVtDSDJdW05IXUMyPU8=

> <s_epik_cmdline>
J2VwaWtfcHl0aG9uJywgJy1waCcsICc3LjAnLCAnLXRuJywgJzgnLCAnLW1hJywgJzIwMCcsICctbWV0YWxfYmluZGluZycsICctaW1hZScsICc8aW5maWxlLm1hZT4nLCAnLW9tYWUnLCAnPG91dGZpbGUubWFlPic=

> <r_lp_tautomer_probability>
1

> <r_epik_Ionization_Penalty>
8.62027

> <r_epik_Ionization_Penalty_Charging>
6.28132

> <r_epik_Ionization_Penalty_Neutral>
2.33895

> <r_epik_State_Penalty>
8.57043

> <r_epik_Charging_Adjusted_Penalty>
14.8517

> <i_epik_Tot_Q>
-1

> <i_epik_Tot_abs_Q>
1

> <r_epik_Metal_State_Penalty>
4.56785

> <b_epik_Metal_Only>
1

> <s_lp_Force_Field>
OPLS_2005

> <r_lp_Energy>
21.4513

> <b_lp_Chiralities_Consistent>
1

> <s_lp_Variant>
AV-unprocessed.smi:3245-8

> <Gold.Version>
5.8.1

> <Gold.Id.Protein>
6NUR|6NUR_protein|mol2

> <Gold.PLP.Fitness>
46.5921

> <Gold.PLP.PLP>
-33.6490

> <Gold.PLP.part.hbond>
-3.3429

> <Gold.PLP.part.metal>
0.0000

> <Gold.PLP.part.buried>
-2.8316

> <Gold.PLP.part.nonpolar>
-28.7040

> <Gold.PLP.part.repulsive>
0.2085

> <Gold.PLP.ligand.clash>
0.0000

> <Gold.PLP.ligand.torsion>
0.3967

> <Gold.PLP.Chemscore.Hbond>
3.5120

> <Gold.PLP.Chemscore.CHOScore>
1.0407

> <Gold.PLP.Chemscore.Metal>
0.0000

> <Gold.Chemscore.Hbonds>
donor molecule, donor type, donor heavy atom, donor atom, acceptor molecule, acceptor atom, score
      P1  H  7989  7998       L1    14  0.48
      P1  H  7997  8010       L1    14  0.66
      P1  H 10752 10765       L1    16  1.92
      L1  C     5    25       P1  8028  0.01
      L1  C     5    25       P1  8029  1.00

> <Gold.PLP.Chemscore.Internal.Correction>
0.0784

> <Gold.Rescore>
     Score         DG    S(hbond)    S(metal)    S(lipo)     H(rot)  DE(clash)    DE(int)     intcor
      8.62     -11.31       1.35        0.00      67.82       2.58       0.74       1.95       ----

> <Gold.Chemscore.Fitness>
8.6241

> <Gold.Chemscore.DG>
-11.3122

> <Gold.Chemscore.ZeroCoef>
-5.4800

> <Gold.Chemscore.Hbond>
1.3489

> <Gold.Chemscore.Metal>
0.0000

> <Gold.Chemscore.Lipo>
67.8151

> <Gold.Chemscore.Internal_Hbond>
0.0000

> <Gold.Chemscore.DEClash>
0.7413

> <Gold.Chemscore.DEInternal>
1.9468

> <Gold.Chemscore.Rot>
2.5811

> <Gold.Chemscore.Internal.Correction>
   9.000000E+99

> <Gold.Chemscore.Hbonds>
donor molecule, donor type, donor heavy atom, donor atom, acceptor molecule, acceptor atom, score
      P1  H  7989  7998       L1    14  0.19
      P1  H  7997  8010       L1    14  0.15
      P1  H 10752 10765       L1    16  0.64

> <Gold.Chemscore.Hbond.Weighted>
-4.5054

> <Gold.Chemscore.Metal.Weighted>
-0.0000

> <Gold.Chemscore.Lipo.Weighted>
-7.9344

> <Gold.Chemscore.Internal_Hbond.Weighted>
0.0000

> <Gold.Chemscore.DEClash.Weighted>
0.7413

> <Gold.Chemscore.DEInternal.Weighted>
1.9468

> <Gold.Chemscore.Rot.Weighted>
6.6076

> <Gold.Chemscore.Internal.Correction.Weighted>
   9.000000E+99

> <Gold.Protein.RotatedTorsions>
[ 6907 6896 6895 6894 ] final  159.17 input  -60.11 | X-H torsion
[ 7974 7965 7964 7962 ] final   -1.14 input  175.53 | X-H torsion
[ 8008 7997 7996 7995 ] final   92.78 input   59.86 | X-H torsion
[ 10167 10162 10161 10158 ] final   92.95 input  -65.29 | X-H torsion
[ 10718 10713 10712 10709 ] final   21.46 input   66.30 | X-H torsion
[ 10763 10752 10751 10750 ] final -162.91 input  -60.55 | X-H torsion
[ 11005 11000 10999 10996 ] final -110.63 input  -57.11 | X-H torsion

> <Gold.Protein.ActiveResidues>
 VAL166  LYS551  ARG553  GLY616  TRP617  ASP618  TYR619  PRO620  LYS621  CYS622 
 ASP623  PHE694  ASN695  SER759  ASP760  ASP761  ALA762  ILE779  LEU786  VAL792 
 PHE793  MET794  SER795  GLU796  ALA797  LYS798  CYS799  TRP800  GLU811  SER814 

> <Gold.Protein.RotatedAtoms>
  151.9896  133.3786  159.4138 H   0  0  0  0  0  0  0  0  0  0  0  0  # atno 6907 bound_to 6896
  150.6923  134.3951  159.5103 H   0  0  0  0  0  0  0  0  0  0  0  0  # atno 6908 bound_to 6896
  152.1682  134.8856  160.0587 H   0  0  0  0  0  0  0  0  0  0  0  0  # atno 6909 bound_to 6896
  146.2420  140.1376  142.8336 H   0  0  0  0  0  0  0  0  0  0  0  0  # atno 7974 bound_to 7965
  156.0392  140.3321  155.7225 H   0  0  0  0  0  0  0  0  0  0  0  0  # atno 8008 bound_to 7997
  155.5769  140.0633  157.2810 H   0  0  0  0  0  0  0  0  0  0  0  0  # atno 8009 bound_to 7997
  154.4386  140.1851  156.0925 H   0  0  0  0  0  0  0  0  0  0  0  0  # atno 8010 bound_to 7997
  139.8227  144.6724  150.9498 H   0  0  0  0  0  0  0  0  0  0  0  0  # atno 10167 bound_to 10162
  157.1388  130.6623  149.5974 H   0  0  0  0  0  0  0  0  0  0  0  0  # atno 10718 bound_to 10713
  154.7171  135.3018  154.9107 H   0  0  0  0  0  0  0  0  0  0  0  0  # atno 10763 bound_to 10752
  153.9990  135.6709  153.4762 H   0  0  0  0  0  0  0  0  0  0  0  0  # atno 10764 bound_to 10752
  153.0802  135.5013  154.8403 H   0  0  0  0  0  0  0  0  0  0  0  0  # atno 10765 bound_to 10752
  141.0781  133.9267  157.2348 H   0  0  0  0  0  0  0  0  0  0  0  0  # atno 11005 bound_to 11000
  145.0274  140.8843  143.5130 LP  0  0  0  0  0  0  0  0  0  0  0  0  # atno 17320 bound_to 7965
  145.1434  139.2558  143.5478 LP  0  0  0  0  0  0  0  0  0  0  0  0  # atno 17321 bound_to 7965
  140.7812  143.4076  151.1045 LP  0  0  0  0  0  0  0  0  0  0  0  0  # atno 17342 bound_to 10162
  139.7735  143.8459  152.3125 LP  0  0  0  0  0  0  0  0  0  0  0  0  # atno 17343 bound_to 10162
  155.9793  130.4785  150.6705 LP  0  0  0  0  0  0  0  0  0  0  0  0  # atno 17370 bound_to 10713
  157.4326  131.0851  151.1024 LP  0  0  0  0  0  0  0  0  0  0  0  0  # atno 17371 bound_to 10713
  139.9593  135.0158  156.9217 LP  0  0  0  0  0  0  0  0  0  0  0  0  # atno 17394 bound_to 11000
  140.5530  134.0609  155.7375 LP  0  0  0  0  0  0  0  0  0  0  0  0  # atno 17395 bound_to 11000

$$$$
