AV-unprocessed.smi:2617|AV-procd|sdf|10217|dock6
  -GOLD-   2272014223D 1   1.00000     0.00000
 Structure written by MMmdl.
 35 35  0  0  0  0  0  0  0  0  1 V2000
  147.0278  142.3099  154.2650 C   0  0  0  0  0  0  0  0  0  0  0  0
  147.9228  141.1490  153.8209 C   0  0  0  0  0  0  0  0  0  0  0  0
  149.2151  141.0567  154.6496 C   0  0  0  0  0  0  0  0  0  0  0  0
  149.3610  139.7778  155.3159 N   0  0  0  0  0  0  0  0  0  0  0  0
  149.4391  138.5564  154.6409 C   0  0  0  0  0  0  0  0  0  0  0  0
  149.3497  138.5652  153.2568 N   0  0  0  0  0  0  0  0  0  0  0  0
  149.5684  137.3700  155.3015 C   0  0  0  0  0  0  0  0  0  0  0  0
  149.6526  136.1603  154.6192 N   0  0  0  0  0  0  0  0  0  0  0  0
  149.7916  134.8400  155.2163 C   0  0  0  0  0  0  0  0  0  0  0  0
  149.0440  133.7822  154.3977 C   0  0  0  0  0  0  0  0  0  0  0  0
  149.5169  132.4955  154.7620 O   0  0  0  0  0  0  0  0  0  0  0  0
  149.2081  131.5089  153.7937 C   0  0  0  0  0  0  0  0  0  0  0  0
  149.6515  137.3457  156.7692 C   0  0  0  0  0  0  0  0  0  0  0  0
  149.8194  136.3480  157.4697 O   0  0  0  0  0  0  0  0  0  0  0  0
  149.5357  138.5902  157.3844 N   0  0  0  0  0  0  0  0  0  0  0  0
  149.3783  139.8065  156.7302 C   0  0  0  0  0  0  0  0  0  0  0  0
  149.2652  140.8390  157.3920 O   0  0  0  0  0  0  0  0  0  0  0  0
  149.5695  138.6099  158.3932 H   0  0  0  0  0  0  0  0  0  0  0  0
  146.1208  142.3541  153.6618 H   0  0  0  0  0  0  0  0  0  0  0  0
  147.5430  143.2653  154.1623 H   0  0  0  0  0  0  0  0  0  0  0  0
  146.7293  142.1990  155.3078 H   0  0  0  0  0  0  0  0  0  0  0  0
  147.3634  140.2163  153.9003 H   0  0  0  0  0  0  0  0  0  0  0  0
  148.1711  141.2703  152.7659 H   0  0  0  0  0  0  0  0  0  0  0  0
  150.0996  141.1943  154.0284 H   0  0  0  0  0  0  0  0  0  0  0  0
  149.2762  141.8422  155.4051 H   0  0  0  0  0  0  0  0  0  0  0  0
  149.2314  139.4270  152.7443 H   0  0  0  0  0  0  0  0  0  0  0  0
  149.6070  137.7564  152.7100 H   0  0  0  0  0  0  0  0  0  0  0  0
  149.1232  136.1361  153.7599 H   0  0  0  0  0  0  0  0  0  0  0  0
  150.8537  134.5974  155.2555 H   0  0  0  0  0  0  0  0  0  0  0  0
  149.4240  134.8286  156.2428 H   0  0  0  0  0  0  0  0  0  0  0  0
  147.9678  133.8612  154.5613 H   0  0  0  0  0  0  0  0  0  0  0  0
  149.2262  133.9475  153.3349 H   0  0  0  0  0  0  0  0  0  0  0  0
  149.5936  130.5429  154.1193 H   0  0  0  0  0  0  0  0  0  0  0  0
  149.6619  131.7458  152.8305 H   0  0  0  0  0  0  0  0  0  0  0  0
  148.1299  131.4128  153.6591 H   0  0  0  0  0  0  0  0  0  0  0  0
  1  2  1  0  0  0  0
  1 19  1  0  0  0  0
  1 20  1  0  0  0  0
  1 21  1  0  0  0  0
  2  3  1  0  0  0  0
  2 22  1  0  0  0  0
  2 23  1  0  0  0  0
  3  4  1  0  0  0  0
  3 24  1  0  0  0  0
  3 25  1  0  0  0  0
  4 16  1  0  0  0  0
  4  5  1  0  0  0  0
  5  6  1  0  0  0  0
  5  7  2  0  0  0  0
  6 26  1  0  0  0  0
  6 27  1  0  0  0  0
  7  8  1  0  0  0  0
  7 13  1  0  0  0  0
  8  9  1  0  0  0  0
  8 28  1  0  0  0  0
  9 10  1  0  0  0  0
  9 29  1  0  0  0  0
  9 30  1  0  0  0  0
 10 11  1  0  0  0  0
 10 31  1  0  0  0  0
 10 32  1  0  0  0  0
 11 12  1  0  0  0  0
 12 33  1  0  0  0  0
 12 34  1  0  0  0  0
 12 35  1  0  0  0  0
 13 14  2  0  0  0  0
 13 15  1  0  0  0  0
 15 18  1  0  0  0  0
 15 16  1  0  0  0  0
 16 17  2  0  0  0  0
M  END
> <s_m_source_file>
AV-unprocessed.smi

> <i_m_source_file_index>
2617

> <i_lp_mmshare_version>
43012

> <i_f3d_flags>
0

> <s_epik_input>
W0NIM11bQ0gyXVtDSDJdbjFjKFtOSDJdKWMoYyg9TylbbkhdYzE9TylbTkhdW0NIMl1bQ0gyXU9bQ0gzXQ==

> <s_epik_cmdline>
J2VwaWtfcHl0aG9uJywgJy1waCcsICc3LjAnLCAnLXRuJywgJzgnLCAnLW1hJywgJzIwMCcsICctbWV0YWxfYmluZGluZycsICctaW1hZScsICc8aW5maWxlLm1hZT4nLCAnLW9tYWUnLCAnPG91dGZpbGUubWFlPic=

> <r_lp_tautomer_probability>
1

> <r_epik_Ionization_Penalty>
1.06398e-05

> <r_epik_Ionization_Penalty_Charging>
2.62604e-06

> <r_epik_Ionization_Penalty_Neutral>
8.01376e-06

> <r_epik_State_Penalty>
-0

> <r_epik_Charging_Adjusted_Penalty>
2.62604e-06

> <i_epik_Tot_Q>
0

> <i_epik_Tot_abs_Q>
0

> <r_epik_Metal_State_Penalty>
-0

> <b_epik_Metal_Only>
0

> <s_epik_Chemistry_Notes>
This compound has an imine and may undergo hydrolysis.

> <s_lp_Force_Field>
OPLS_2005

> <r_lp_Energy>
15.6594

> <b_lp_Chiralities_Consistent>
1

> <s_lp_Variant>
AV-unprocessed.smi:2617-1

> <Gold.Version>
5.8.1

> <Gold.Id.Protein>
6NUR|6NUR_protein|mol2

> <Gold.PLP.Fitness>
32.2074

> <Gold.PLP.PLP>
-25.4686

> <Gold.PLP.part.hbond>
-3.0000

> <Gold.PLP.part.metal>
0.0000

> <Gold.PLP.part.buried>
-4.2084

> <Gold.PLP.part.nonpolar>
-19.2772

> <Gold.PLP.part.repulsive>
0.2305

> <Gold.PLP.ligand.clash>
1.3886

> <Gold.PLP.ligand.torsion>
0.7094

> <Gold.PLP.Chemscore.Hbond>
2.7120

> <Gold.PLP.Chemscore.CHOScore>
0.0000

> <Gold.PLP.Chemscore.Metal>
0.0000

> <Gold.Chemscore.Hbonds>
donor molecule, donor type, donor heavy atom, donor atom, acceptor molecule, acceptor atom, score
      L1  H     6    26       P1  7957  0.74
      L1  H     6    27       P1  7948  0.93
      L1  H     8    28       P1  7948  1.00

> <Gold.PLP.Chemscore.Internal.Correction>
1.4102

> <Gold.Rescore>
     Score         DG    S(hbond)    S(metal)    S(lipo)     H(rot)  DE(clash)    DE(int)     intcor
     10.44     -12.62       2.39        0.00      40.49       2.17       0.00       2.18       ----

> <Gold.Chemscore.Fitness>
10.4403

> <Gold.Chemscore.DG>
-12.6212

> <Gold.Chemscore.ZeroCoef>
-5.4800

> <Gold.Chemscore.Hbond>
2.3853

> <Gold.Chemscore.Metal>
0.0000

> <Gold.Chemscore.Lipo>
40.4876

> <Gold.Chemscore.Internal_Hbond>
0.0000

> <Gold.Chemscore.DEClash>
0.0000

> <Gold.Chemscore.DEInternal>
2.1808

> <Gold.Chemscore.Rot>
2.1730

> <Gold.Chemscore.Internal.Correction>
   9.000000E+99

> <Gold.Chemscore.Hbonds>
donor molecule, donor type, donor heavy atom, donor atom, acceptor molecule, acceptor atom, score
      L1  H     6    26       P1  7957  0.74
      L1  H     6    27       P1  7948  0.54
      L1  H     8    28       P1  7948  0.91

> <Gold.Chemscore.Hbond.Weighted>
-7.9669

> <Gold.Chemscore.Metal.Weighted>
-0.0000

> <Gold.Chemscore.Lipo.Weighted>
-4.7371

> <Gold.Chemscore.Internal_Hbond.Weighted>
0.0000

> <Gold.Chemscore.DEClash.Weighted>
0.0000

> <Gold.Chemscore.DEInternal.Weighted>
2.1808

> <Gold.Chemscore.Rot.Weighted>
5.5628

> <Gold.Chemscore.Internal.Correction.Weighted>
   9.000000E+99

> <Gold.Protein.RotatedTorsions>
[ 6907 6896 6895 6894 ] final  -24.91 input  -60.11 | X-H torsion
[ 7974 7965 7964 7962 ] final  149.12 input  175.53 | X-H torsion
[ 8008 7997 7996 7995 ] final  -76.23 input   59.86 | X-H torsion
[ 10167 10162 10161 10158 ] final   17.91 input  -65.29 | X-H torsion
[ 10718 10713 10712 10709 ] final  127.58 input   66.30 | X-H torsion
[ 10763 10752 10751 10750 ] final  116.29 input  -60.55 | X-H torsion
[ 11005 11000 10999 10996 ] final  122.50 input  -57.11 | X-H torsion

> <Gold.Protein.ActiveResidues>
 VAL166  LYS551  ARG553  GLY616  TRP617  ASP618  TYR619  PRO620  LYS621  CYS622 
 ASP623  PHE694  ASN695  SER759  ASP760  ASP761  ALA762  ILE779  LEU786  VAL792 
 PHE793  MET794  SER795  GLU796  ALA797  LYS798  CYS799  TRP800  GLU811  SER814 

> <Gold.Protein.RotatedAtoms>
  151.1828  135.0368  159.8799 H   0  0  0  0  0  0  0  0  0  0  0  0  # atno 6907 bound_to 6896
  152.5444  134.1044  159.8341 H   0  0  0  0  0  0  0  0  0  0  0  0  # atno 6908 bound_to 6896
  151.1163  133.5089  159.2636 H   0  0  0  0  0  0  0  0  0  0  0  0  # atno 6909 bound_to 6896
  144.8462  139.6240  143.5994 H   0  0  0  0  0  0  0  0  0  0  0  0  # atno 7974 bound_to 7965
  154.5487  140.0730  156.8631 H   0  0  0  0  0  0  0  0  0  0  0  0  # atno 8008 bound_to 7997
  155.3037  140.3386  155.4228 H   0  0  0  0  0  0  0  0  0  0  0  0  # atno 8009 bound_to 7997
  156.1941  140.1697  156.8019 H   0  0  0  0  0  0  0  0  0  0  0  0  # atno 8010 bound_to 7997
  140.5692  143.9194  150.6699 H   0  0  0  0  0  0  0  0  0  0  0  0  # atno 10167 bound_to 10162
  157.5320  131.1098  150.8994 H   0  0  0  0  0  0  0  0  0  0  0  0  # atno 10718 bound_to 10713
  153.5350  135.3570  155.2693 H   0  0  0  0  0  0  0  0  0  0  0  0  # atno 10763 bound_to 10752
  154.8723  135.4077  154.3108 H   0  0  0  0  0  0  0  0  0  0  0  0  # atno 10764 bound_to 10752
  153.3804  135.7068  153.6637 H   0  0  0  0  0  0  0  0  0  0  0  0  # atno 10765 bound_to 10752
  139.9271  134.9641  156.8118 H   0  0  0  0  0  0  0  0  0  0  0  0  # atno 11005 bound_to 11000
  146.2746  139.6720  142.9272 LP  0  0  0  0  0  0  0  0  0  0  0  0  # atno 17320 bound_to 7965
  145.4592  141.0432  143.2761 LP  0  0  0  0  0  0  0  0  0  0  0  0  # atno 17321 bound_to 7965
  140.2664  143.3487  152.1277 LP  0  0  0  0  0  0  0  0  0  0  0  0  # atno 17342 bound_to 10162
  139.5108  144.6891  151.5809 LP  0  0  0  0  0  0  0  0  0  0  0  0  # atno 17343 bound_to 10162
  156.9572  130.5442  149.5284 LP  0  0  0  0  0  0  0  0  0  0  0  0  # atno 17370 bound_to 10713
  156.0430  130.5510  150.8815 LP  0  0  0  0  0  0  0  0  0  0  0  0  # atno 17371 bound_to 10713
  140.6305  133.9910  155.7660 LP  0  0  0  0  0  0  0  0  0  0  0  0  # atno 17394 bound_to 11000
  141.0836  134.0025  157.3348 LP  0  0  0  0  0  0  0  0  0  0  0  0  # atno 17395 bound_to 11000

$$$$
