AV-unprocessed.smi:1599|AV-procd|sdf|6424|dock4
  -GOLD-   22720 7 63D 1   1.00000     0.00000
 Structure written by MMmdl.
 39 40  0  0  0  0  0  0  0  0  1 V2000
  148.5643  136.3242  156.4125 C   0  0  0  0  0  0  0  0  0  0  0  0
  148.4348  134.9535  155.7318 C   0  0  1  0  0  0  0  0  0  0  0  0
  148.0325  135.1395  154.3392 N   0  0  0  0  0  0  0  0  0  0  0  0
  146.9157  134.6582  153.7753 C   0  0  0  0  0  0  0  0  0  0  0  0
  146.0692  134.0033  154.3830 O   0  0  0  0  0  0  0  0  0  0  0  0
  146.8518  134.9824  152.4742 N   0  0  0  0  0  0  0  0  0  0  0  0
  145.8367  134.6269  151.5516 C   0  0  0  0  0  0  0  0  0  0  0  0
  144.9560  135.4658  150.8122 C   0  0  0  0  0  0  0  0  0  0  0  0
  144.1409  134.7477  150.0545 N   0  0  0  0  0  0  0  0  0  0  0  0
  144.4844  133.4563  150.2887 N   0  0  0  0  0  0  0  0  0  0  0  0
  143.7723  132.3875  149.6096 C   0  0  0  0  0  0  0  0  0  0  0  0
  143.1258  132.8786  148.3112 C   0  0  0  0  0  0  0  0  0  0  0  0
  141.9301  132.3729  147.9977 N   0  0  0  0  0  0  0  0  0  0  0  0
  143.6953  133.7026  147.5981 O   0  0  0  0  0  0  0  0  0  0  0  0
  145.5164  133.3500  151.2013 C   0  0  0  0  0  0  0  0  0  0  0  0
  149.7474  134.1495  155.7906 C   0  0  2  0  0  0  0  0  0  0  0  0
  149.7175  132.8240  155.0301 C   0  0  0  0  0  0  0  0  0  0  0  0
  150.8371  132.0342  155.6827 C   0  0  0  0  0  0  0  0  0  0  0  0
  150.9845  132.6784  157.0648 C   0  0  0  0  0  0  0  0  0  0  0  0
  150.0154  133.7192  157.1162 O   0  0  0  0  0  0  0  0  0  0  0  0
  148.8453  136.2181  157.4605 H   0  0  0  0  0  0  0  0  0  0  0  0
  147.6199  136.8688  156.3809 H   0  0  0  0  0  0  0  0  0  0  0  0
  149.3213  136.9406  155.9265 H   0  0  0  0  0  0  0  0  0  0  0  0
  147.6722  134.3828  156.2650 H   0  0  0  0  0  0  0  0  0  0  0  0
  148.6645  135.6681  153.7562 H   0  0  0  0  0  0  0  0  0  0  0  0
  147.6150  135.5283  152.1024 H   0  0  0  0  0  0  0  0  0  0  0  0
  144.8726  136.5422  150.7946 H   0  0  0  0  0  0  0  0  0  0  0  0
  144.4759  131.5779  149.4094 H   0  0  0  0  0  0  0  0  0  0  0  0
  143.0002  131.9858  150.2675 H   0  0  0  0  0  0  0  0  0  0  0  0
  141.4644  132.6631  147.1502 H   0  0  0  0  0  0  0  0  0  0  0  0
  141.4971  131.6976  148.6111 H   0  0  0  0  0  0  0  0  0  0  0  0
  145.9204  132.3977  151.5122 H   0  0  0  0  0  0  0  0  0  0  0  0
  150.5847  134.7563  155.4399 H   0  0  0  0  0  0  0  0  0  0  0  0
  148.7651  132.3175  155.1944 H   0  0  0  0  0  0  0  0  0  0  0  0
  149.8548  132.9448  153.9551 H   0  0  0  0  0  0  0  0  0  0  0  0
  150.6023  130.9711  155.7415 H   0  0  0  0  0  0  0  0  0  0  0  0
  151.7635  132.1431  155.1178 H   0  0  0  0  0  0  0  0  0  0  0  0
  150.8159  131.9659  157.8727 H   0  0  0  0  0  0  0  0  0  0  0  0
  151.9819  133.1018  157.1878 H   0  0  0  0  0  0  0  0  0  0  0  0
  1  2  1  0  0  0  0
  1 21  1  0  0  0  0
  1 22  1  0  0  0  0
  1 23  1  0  0  0  0
  2  3  1  0  0  0  0
  2 16  1  0  0  0  0
  2 24  1  0  0  0  0
  3  4  1  0  0  0  0
  3 25  1  0  0  0  0
  4  5  2  0  0  0  0
  4  6  1  0  0  0  0
  6  7  1  0  0  0  0
  6 26  1  0  0  0  0
  7 15  2  0  0  0  0
  7  8  1  0  0  0  0
  8  9  2  0  0  0  0
  8 27  1  0  0  0  0
  9 10  1  0  0  0  0
 10 11  1  0  0  0  0
 10 15  1  0  0  0  0
 11 12  1  0  0  0  0
 11 28  1  0  0  0  0
 11 29  1  0  0  0  0
 12 13  1  0  0  0  0
 12 14  2  0  0  0  0
 13 30  1  0  0  0  0
 13 31  1  0  0  0  0
 15 32  1  0  0  0  0
 16 20  1  0  0  0  0
 16 17  1  0  0  0  0
 16 33  1  0  0  0  0
 17 18  1  0  0  0  0
 17 34  1  0  0  0  0
 17 35  1  0  0  0  0
 18 19  1  0  0  0  0
 18 36  1  0  0  0  0
 18 37  1  0  0  0  0
 19 20  1  0  0  0  0
 19 38  1  0  0  0  0
 19 39  1  0  0  0  0
M  END
> <s_m_source_file>
AV-unprocessed.smi

> <i_m_source_file_index>
1599

> <i_lp_mmshare_version>
43012

> <i_f3d_flags>
0

> <s_epik_input>
TzFbQ0gyXVtDSDJdW0NIMl1bQ0BIXTFbQ0BIXShbQ0gzXSlbTkhdQyg9TylbTkhdYzJbY0hdbm4oW2NIXTIpW0NIMl1DKD1PKVtOSDJd

> <s_epik_cmdline>
J2VwaWtfcHl0aG9uJywgJy1waCcsICc3LjAnLCAnLXRuJywgJzgnLCAnLW1hJywgJzIwMCcsICctbWV0YWxfYmluZGluZycsICctaW1hZScsICc8aW5maWxlLm1hZT4nLCAnLW9tYWUnLCAnPG91dGZpbGUubWFlPic=

> <r_lp_tautomer_probability>
1

> <r_epik_Ionization_Penalty>
4.15391e-05

> <r_epik_Ionization_Penalty_Charging>
0

> <r_epik_Ionization_Penalty_Neutral>
4.15391e-05

> <r_epik_State_Penalty>
-0

> <r_epik_Charging_Adjusted_Penalty>
0

> <i_epik_Tot_Q>
0

> <i_epik_Tot_abs_Q>
0

> <r_epik_Metal_State_Penalty>
-0

> <b_epik_Metal_Only>
0

> <s_lp_Force_Field>
OPLS_2005

> <r_lp_Energy>
20.7391

> <b_lp_Chiralities_Consistent>
1

> <s_lp_Variant>
AV-unprocessed.smi:1599-2

> <Gold.Version>
5.8.1

> <Gold.Id.Protein>
6NUR|6NUR_protein|mol2

> <Gold.PLP.Fitness>
43.8280

> <Gold.PLP.PLP>
-28.4722

> <Gold.PLP.part.hbond>
-6.2958

> <Gold.PLP.part.metal>
0.0000

> <Gold.PLP.part.buried>
-3.7799

> <Gold.PLP.part.nonpolar>
-25.0096

> <Gold.PLP.part.repulsive>
6.3125

> <Gold.PLP.ligand.clash>
0.0000

> <Gold.PLP.ligand.torsion>
1.3195

> <Gold.PLP.Chemscore.Hbond>
4.9788

> <Gold.PLP.Chemscore.CHOScore>
1.0000

> <Gold.PLP.Chemscore.Metal>
0.0000

> <Gold.Chemscore.Hbonds>
donor molecule, donor type, donor heavy atom, donor atom, acceptor molecule, acceptor atom, score
      L1  H     3    25       P1  7948  0.85
      L1  H     6    26       P1  7948  0.93
      L1  H    13    30       P1 10195  0.86
      L1  H    13    31       P1 10952  1.00
      P1  H  6896  6909       L1    20  0.05
      P1  H  7918  7932       L1    14  0.62
      P1  H 10192 10197       L1    14  0.42
      L1  C     8    27       P1 10171  1.00

> <Gold.PLP.Chemscore.Internal.Correction>
0.0586

> <Gold.Rescore>
     Score         DG    S(hbond)    S(metal)    S(lipo)     H(rot)  DE(clash)    DE(int)     intcor
     15.00     -20.42       4.42        0.00      51.54       2.28       2.56       2.87       ----

> <Gold.Chemscore.Fitness>
15.0010

> <Gold.Chemscore.DG>
-20.4241

> <Gold.Chemscore.ZeroCoef>
-5.4800

> <Gold.Chemscore.Hbond>
4.4182

> <Gold.Chemscore.Metal>
0.0000

> <Gold.Chemscore.Lipo>
51.5385

> <Gold.Chemscore.Internal_Hbond>
0.0000

> <Gold.Chemscore.DEClash>
2.5562

> <Gold.Chemscore.DEInternal>
2.8668

> <Gold.Chemscore.Rot>
2.2823

> <Gold.Chemscore.Internal.Correction>
   9.000000E+99

> <Gold.Chemscore.Hbonds>
donor molecule, donor type, donor heavy atom, donor atom, acceptor molecule, acceptor atom, score
      L1  H     3    25       P1  7948  0.80
      L1  H     6    26       P1  7948  0.89
      L1  H    13    30       P1 10195  0.55
      L1  H    13    31       P1 10952  1.00
      P1  H  7918  7932       L1    14  0.61
      P1  H 10192 10197       L1    14  0.14

> <Gold.Chemscore.Hbond.Weighted>
-14.7567

> <Gold.Chemscore.Metal.Weighted>
-0.0000

> <Gold.Chemscore.Lipo.Weighted>
-6.0300

> <Gold.Chemscore.Internal_Hbond.Weighted>
0.0000

> <Gold.Chemscore.DEClash.Weighted>
2.5562

> <Gold.Chemscore.DEInternal.Weighted>
2.8668

> <Gold.Chemscore.Rot.Weighted>
5.8427

> <Gold.Chemscore.Internal.Correction.Weighted>
   9.000000E+99

> <Gold.Protein.RotatedTorsions>
[ 6907 6896 6895 6894 ] final    7.24 input  -60.11 | X-H torsion
[ 7974 7965 7964 7962 ] final  -11.34 input  175.53 | X-H torsion
[ 8008 7997 7996 7995 ] final  101.63 input   59.86 | X-H torsion
[ 10167 10162 10161 10158 ] final  117.13 input  -65.29 | X-H torsion
[ 10718 10713 10712 10709 ] final  -81.68 input   66.30 | X-H torsion
[ 10763 10752 10751 10750 ] final  151.05 input  -60.55 | X-H torsion
[ 11005 11000 10999 10996 ] final -154.74 input  -57.11 | X-H torsion

> <Gold.Protein.ActiveResidues>
 VAL166  LYS551  ARG553  GLY616  TRP617  ASP618  TYR619  PRO620  LYS621  CYS622 
 ASP623  PHE694  ASN695  SER759  ASP760  ASP761  ALA762  ILE779  LEU786  VAL792 
 PHE793  MET794  SER795  GLU796  ALA797  LYS798  CYS799  TRP800  GLU811  SER814 

> <Gold.Protein.RotatedAtoms>
  151.6867  135.0953  160.0225 H   0  0  0  0  0  0  0  0  0  0  0  0  # atno 6907 bound_to 6896
  152.3803  133.6533  159.6164 H   0  0  0  0  0  0  0  0  0  0  0  0  # atno 6908 bound_to 6896
  150.7742  133.9041  159.3391 H   0  0  0  0  0  0  0  0  0  0  0  0  # atno 6909 bound_to 6896
  146.2190  140.2897  142.8367 H   0  0  0  0  0  0  0  0  0  0  0  0  # atno 7974 bound_to 7965
  156.1317  140.3194  155.8359 H   0  0  0  0  0  0  0  0  0  0  0  0  # atno 8008 bound_to 7997
  155.4319  140.0519  157.3035 H   0  0  0  0  0  0  0  0  0  0  0  0  # atno 8009 bound_to 7997
  154.4905  140.2090  155.9573 H   0  0  0  0  0  0  0  0  0  0  0  0  # atno 8010 bound_to 7997
  139.6200  144.7099  151.2656 H   0  0  0  0  0  0  0  0  0  0  0  0  # atno 10167 bound_to 10162
  156.0046  130.4611  150.3989 H   0  0  0  0  0  0  0  0  0  0  0  0  # atno 10718 bound_to 10713
  154.0975  135.2848  155.3258 H   0  0  0  0  0  0  0  0  0  0  0  0  # atno 10763 bound_to 10752
  154.6578  135.5345  153.7984 H   0  0  0  0  0  0  0  0  0  0  0  0  # atno 10764 bound_to 10752
  153.0391  135.6526  154.1140 H   0  0  0  0  0  0  0  0  0  0  0  0  # atno 10765 bound_to 10752
  140.6940  134.4010  157.5216 H   0  0  0  0  0  0  0  0  0  0  0  0  # atno 11005 bound_to 11000
  144.9136  140.7786  143.5792 LP  0  0  0  0  0  0  0  0  0  0  0  0  # atno 17320 bound_to 7965
  145.2829  139.1911  143.4781 LP  0  0  0  0  0  0  0  0  0  0  0  0  # atno 17321 bound_to 7965
  140.7375  143.6674  150.8111 LP  0  0  0  0  0  0  0  0  0  0  0  0  # atno 17342 bound_to 10162
  140.0283  143.5470  152.2771 LP  0  0  0  0  0  0  0  0  0  0  0  0  # atno 17343 bound_to 10162
  157.2059  131.0449  151.2625 LP  0  0  0  0  0  0  0  0  0  0  0  0  # atno 17370 bound_to 10713
  157.3933  130.7294  149.6713 LP  0  0  0  0  0  0  0  0  0  0  0  0  # atno 17371 bound_to 10713
  139.8915  134.8777  156.2315 LP  0  0  0  0  0  0  0  0  0  0  0  0  # atno 17394 bound_to 11000
  141.0218  133.7037  156.1281 LP  0  0  0  0  0  0  0  0  0  0  0  0  # atno 17395 bound_to 11000

$$$$
