AV-unprocessed.smi:12|AV-procd|sdf|68|dock6
  -GOLD-   2262015193D 1   1.00000     0.00000
 Structure written by MMmdl.
 41 44  0  0  0  0  0  0  0  0  1 V2000
  147.2387  134.8159  162.8212 C   0  0  0  0  0  0  0  0  0  0  0  0
  147.1938  135.7267  161.6076 C   0  0  0  0  0  0  0  0  0  0  0  0
  148.0161  135.5416  160.5480 C   0  0  0  0  0  0  0  0  0  0  0  0
  147.9426  136.3965  159.4841 N   0  0  0  0  0  0  0  0  0  0  0  0
  146.9992  137.4466  159.4943 C   0  0  0  0  0  0  0  0  0  0  0  0
  146.1774  137.6884  160.4678 N   0  0  0  0  0  0  0  0  0  0  0  0
  146.2207  136.8478  161.5967 C   0  0  0  0  0  0  0  0  0  0  0  0
  145.4659  137.0420  162.5484 O   0  0  0  0  0  0  0  0  0  0  0  0
  147.1010  138.1406  158.3278 O   0  0  0  0  0  0  0  0  0  0  0  0
  148.1411  137.5783  157.5146 C   0  0  1  0  0  0  0  0  0  0  0  0
  149.3219  138.5425  157.4346 C   0  0  2  0  0  0  0  0  0  0  0  0
  149.9271  138.4817  156.1566 O   0  0  0  0  0  0  0  0  0  0  0  0
  150.2582  138.0583  158.5505 C   0  0  2  0  0  0  0  0  0  0  0  0
  151.7415  138.4129  158.3798 C   0  0  0  0  0  0  0  0  0  0  0  0
  151.9353  139.7644  158.7624 O   0  0  0  0  0  0  0  0  0  0  0  0
  151.5810  140.7609  157.9292 C   0  0  0  0  0  0  0  0  0  0  0  0
  151.1648  140.5772  156.7834 O   0  0  0  0  0  0  0  0  0  0  0  0
  151.7410  142.1115  158.5415 C   0  0  0  0  0  0  0  0  0  0  0  0
  151.2191  143.2429  157.8719 C   0  0  0  0  0  0  0  0  0  0  0  0
  151.3550  144.5304  158.4265 C   0  0  0  0  0  0  0  0  0  0  0  0
  152.0163  144.7026  159.6565 C   0  0  0  0  0  0  0  0  0  0  0  0
  152.5410  143.5853  160.3317 C   0  0  0  0  0  0  0  0  0  0  0  0
  152.4050  142.2966  159.7794 C   0  0  0  0  0  0  0  0  0  0  0  0
  150.0619  136.6499  158.5489 O   0  0  0  0  0  0  0  0  0  0  0  0
  148.7309  136.3558  158.2481 C   0  0  1  0  0  0  0  0  0  0  0  0
  147.9870  134.0321  162.7005 H   0  0  0  0  0  0  0  0  0  0  0  0
  146.2713  134.3374  162.9768 H   0  0  0  0  0  0  0  0  0  0  0  0
  147.4892  135.3864  163.7160 H   0  0  0  0  0  0  0  0  0  0  0  0
  148.7337  134.7343  160.5339 H   0  0  0  0  0  0  0  0  0  0  0  0
  147.7496  137.2919  156.5372 H   0  0  0  0  0  0  0  0  0  0  0  0
  149.0105  139.5746  157.5999 H   0  0  0  0  0  0  0  0  0  0  0  0
  150.8460  138.6830  156.2484 H   0  0  0  0  0  0  0  0  0  0  0  0
  149.8965  138.4559  159.5007 H   0  0  0  0  0  0  0  0  0  0  0  0
  152.3710  137.7523  158.9777 H   0  0  0  0  0  0  0  0  0  0  0  0
  152.0311  138.2931  157.3348 H   0  0  0  0  0  0  0  0  0  0  0  0
  150.7076  143.1354  156.9263 H   0  0  0  0  0  0  0  0  0  0  0  0
  150.9505  145.3864  157.9069 H   0  0  0  0  0  0  0  0  0  0  0  0
  152.1210  145.6901  160.0812 H   0  0  0  0  0  0  0  0  0  0  0  0
  153.0495  143.7157  161.2757 H   0  0  0  0  0  0  0  0  0  0  0  0
  152.8212  141.4610  160.3229 H   0  0  0  0  0  0  0  0  0  0  0  0
  148.5468  135.3780  157.8021 H   0  0  0  0  0  0  0  0  0  0  0  0
  1  2  1  0  0  0  0
  1 26  1  0  0  0  0
  1 27  1  0  0  0  0
  1 28  1  0  0  0  0
  2  7  1  0  0  0  0
  2  3  2  0  0  0  0
  3  4  1  0  0  0  0
  3 29  1  0  0  0  0
  4 25  1  0  0  0  0
  4  5  1  0  0  0  0
  5  6  2  0  0  0  0
  5  9  1  0  0  0  0
  6  7  1  0  0  0  0
  7  8  2  0  0  0  0
  9 10  1  0  0  0  0
 10 25  1  0  0  0  0
 10 11  1  0  0  0  0
 10 30  1  0  0  0  0
 11 12  1  0  0  0  0
 11 13  1  0  0  0  0
 11 31  1  0  0  0  0
 12 32  1  0  0  0  0
 13 14  1  0  0  0  0
 13 24  1  0  0  0  0
 13 33  1  0  0  0  0
 14 15  1  0  0  0  0
 14 34  1  0  0  0  0
 14 35  1  0  0  0  0
 15 16  1  0  0  0  0
 16 17  2  0  0  0  0
 16 18  1  0  0  0  0
 18 23  1  0  0  0  0
 18 19  2  0  0  0  0
 19 20  1  0  0  0  0
 19 36  1  0  0  0  0
 20 21  2  0  0  0  0
 20 37  1  0  0  0  0
 21 22  1  0  0  0  0
 21 38  1  0  0  0  0
 22 23  2  0  0  0  0
 22 39  1  0  0  0  0
 23 40  1  0  0  0  0
 24 25  1  0  0  0  0
 25 41  1  0  0  0  0
M  END
> <s_m_source_file>
AV-unprocessed.smi

> <i_m_source_file_index>
12

> <i_lp_mmshare_version>
43012

> <i_f3d_flags>
0

> <s_epik_input>
W0NIM11jKFtjSF0xKWMoPU8pbmMobjEyKU9bQ0BIXTNbQ0BASF0yT1tDQEBIXShbQ0BASF0zW09IXSlbQ0gyXU9DKD1PKWM0W2NIXVtjSF1bY0hdW2NIXVtjSF00

> <s_epik_cmdline>
J2VwaWtfcHl0aG9uJywgJy1waCcsICc3LjAnLCAnLXRuJywgJzgnLCAnLW1hJywgJzIwMCcsICctbWV0YWxfYmluZGluZycsICctaW1hZScsICc8aW5maWxlLm1hZT4nLCAnLW9tYWUnLCAnPG91dGZpbGUubWFlPic=

> <r_lp_tautomer_probability>
0.933681

> <r_epik_Ionization_Penalty>
0.00399549

> <r_epik_Ionization_Penalty_Charging>
3.09373e-09

> <r_epik_Ionization_Penalty_Neutral>
0.00399549

> <r_epik_State_Penalty>
0.00284953

> <r_epik_Charging_Adjusted_Penalty>
0.00284953

> <i_epik_Tot_Q>
0

> <i_epik_Tot_abs_Q>
0

> <r_epik_Metal_State_Penalty>
-0

> <b_epik_Metal_Only>
0

> <s_epik_Chemistry_Notes>
This compound has an ester and may undergo hydrolysis at high or low pH. This compound contains an acetal/aminal-like group ( X-CH(R)-Y where X, Y are N, S, or O) that may be acid/base labile, releasing an aldehyde.

> <s_lp_Force_Field>
OPLS_2005

> <r_lp_Energy>
39.7302

> <b_lp_Chiralities_Consistent>
1

> <s_lp_Variant>
AV-unprocessed.smi:12-8

> <Gold.Version>
5.8.1

> <Gold.Id.Protein>
6NUR|6NUR_protein|mol2

> <Gold.PLP.Fitness>
47.8094

> <Gold.PLP.PLP>
-42.9593

> <Gold.PLP.part.hbond>
-2.0000

> <Gold.PLP.part.metal>
0.0000

> <Gold.PLP.part.buried>
-6.2330

> <Gold.PLP.part.nonpolar>
-35.1345

> <Gold.PLP.part.repulsive>
0.0000

> <Gold.PLP.ligand.clash>
0.0000

> <Gold.PLP.ligand.torsion>
0.2919

> <Gold.PLP.Chemscore.Hbond>
1.8100

> <Gold.PLP.Chemscore.CHOScore>
0.0000

> <Gold.PLP.Chemscore.Metal>
0.0000

> <Gold.Chemscore.Hbonds>
donor molecule, donor type, donor heavy atom, donor atom, acceptor molecule, acceptor atom, score
      P1  H  6896  6907       L1    24  0.46
      P1  H  6934  6947       L1     6  0.45

> <Gold.PLP.Chemscore.Internal.Correction>
0.0039

> <Gold.Rescore>
     Score         DG    S(hbond)    S(metal)    S(lipo)     H(rot)  DE(clash)    DE(int)     intcor
     15.78     -17.66       1.83        0.00      99.63       2.18       0.06       1.83       ----

> <Gold.Chemscore.Fitness>
15.7783

> <Gold.Chemscore.DG>
-17.6639

> <Gold.Chemscore.ZeroCoef>
-5.4800

> <Gold.Chemscore.Hbond>
1.8287

> <Gold.Chemscore.Metal>
0.0000

> <Gold.Chemscore.Lipo>
99.6309

> <Gold.Chemscore.Internal_Hbond>
0.0000

> <Gold.Chemscore.DEClash>
0.0605

> <Gold.Chemscore.DEInternal>
1.8251

> <Gold.Chemscore.Rot>
2.1800

> <Gold.Chemscore.Internal.Correction>
   9.000000E+99

> <Gold.Chemscore.Hbonds>
donor molecule, donor type, donor heavy atom, donor atom, acceptor molecule, acceptor atom, score
      P1  H  6896  6907       L1    24  0.34
      P1  H  6934  6947       L1     6  0.01

> <Gold.Chemscore.Hbond.Weighted>
-6.1078

> <Gold.Chemscore.Metal.Weighted>
-0.0000

> <Gold.Chemscore.Lipo.Weighted>
-11.6568

> <Gold.Chemscore.Internal_Hbond.Weighted>
0.0000

> <Gold.Chemscore.DEClash.Weighted>
0.0605

> <Gold.Chemscore.DEInternal.Weighted>
1.8251

> <Gold.Chemscore.Rot.Weighted>
5.5807

> <Gold.Chemscore.Internal.Correction.Weighted>
   9.000000E+99

> <Gold.Protein.RotatedTorsions>
[ 6907 6896 6895 6894 ] final  -38.87 input  -60.11 | X-H torsion
[ 7974 7965 7964 7962 ] final  -75.03 input  175.53 | X-H torsion
[ 8008 7997 7996 7995 ] final  -86.07 input   59.86 | X-H torsion
[ 10167 10162 10161 10158 ] final -166.25 input  -65.29 | X-H torsion
[ 10718 10713 10712 10709 ] final   71.64 input   66.30 | X-H torsion
[ 10763 10752 10751 10750 ] final -133.55 input  -60.55 | X-H torsion
[ 11005 11000 10999 10996 ] final  163.50 input  -57.11 | X-H torsion

> <Gold.Protein.ActiveResidues>
 VAL166  LYS551  ARG553  GLY616  TRP617  ASP618  TYR619  PRO620  LYS621  CYS622 
 ASP623  PHE694  ASN695  SER759  ASP760  ASP761  ALA762  ILE779  LEU786  VAL792 
 PHE793  MET794  SER795  GLU796  ALA797  LYS798  CYS799  TRP800  GLU811  SER814 

> <Gold.Protein.RotatedAtoms>
  150.9972  134.9293  159.7933 H   0  0  0  0  0  0  0  0  0  0  0  0  # atno 6907 bound_to 6896
  152.5268  134.3202  159.9155 H   0  0  0  0  0  0  0  0  0  0  0  0  # atno 6908 bound_to 6896
  151.3208  133.3999  159.2688 H   0  0  0  0  0  0  0  0  0  0  0  0  # atno 6909 bound_to 6896
  145.6314  140.9337  143.1085 H   0  0  0  0  0  0  0  0  0  0  0  0  # atno 7974 bound_to 7965
  154.6478  140.0583  156.9921 H   0  0  0  0  0  0  0  0  0  0  0  0  # atno 8008 bound_to 7997
  155.1417  140.3266  155.4432 H   0  0  0  0  0  0  0  0  0  0  0  0  # atno 8009 bound_to 7997
  156.2562  140.1963  156.6533 H   0  0  0  0  0  0  0  0  0  0  0  0  # atno 8010 bound_to 7997
  139.6127  144.0782  152.1858 H   0  0  0  0  0  0  0  0  0  0  0  0  # atno 10167 bound_to 10162
  157.6462  130.9538  150.0817 H   0  0  0  0  0  0  0  0  0  0  0  0  # atno 10718 bound_to 10713
  154.8731  135.3762  154.4590 H   0  0  0  0  0  0  0  0  0  0  0  0  # atno 10763 bound_to 10752
  153.5260  135.7028  153.5712 H   0  0  0  0  0  0  0  0  0  0  0  0  # atno 10764 bound_to 10752
  153.3938  135.3965  155.1906 H   0  0  0  0  0  0  0  0  0  0  0  0  # atno 10765 bound_to 10752
  140.2364  134.8085  157.3368 H   0  0  0  0  0  0  0  0  0  0  0  0  # atno 11005 bound_to 11000
  144.7192  139.8088  143.7388 LP  0  0  0  0  0  0  0  0  0  0  0  0  # atno 17320 bound_to 7965
  146.1354  139.4398  143.0142 LP  0  0  0  0  0  0  0  0  0  0  0  0  # atno 17321 bound_to 7965
  140.0404  144.6011  150.7415 LP  0  0  0  0  0  0  0  0  0  0  0  0  # atno 17342 bound_to 10162
  140.7330  143.2712  151.3883 LP  0  0  0  0  0  0  0  0  0  0  0  0  # atno 17343 bound_to 10162
  156.1791  130.3649  149.9059 LP  0  0  0  0  0  0  0  0  0  0  0  0  # atno 17370 bound_to 10713
  156.7016  130.8935  151.3600 LP  0  0  0  0  0  0  0  0  0  0  0  0  # atno 17371 bound_to 10713
  140.1698  134.4623  155.7839 LP  0  0  0  0  0  0  0  0  0  0  0  0  # atno 17394 bound_to 11000
  141.2214  133.6937  156.7688 LP  0  0  0  0  0  0  0  0  0  0  0  0  # atno 17395 bound_to 11000

$$$$
