AV-unprocessed.smi:977|AV-procd|sdf|4306|dock1
  -GOLD-   22720 2213D 1   1.00000     0.00000
 Structure written by MMmdl.
 37 38  0  0  0  0  0  0  0  0  1 V2000
  146.4310  128.0696  154.4469 C   0  0  0  0  0  0  0  0  0  0  0  0
  147.1345  127.3315  153.3418 C   0  0  0  0  0  0  0  0  0  0  0  0
  147.4870  126.0684  153.5318 N   0  0  0  0  0  0  0  0  0  0  0  0
  148.1778  125.6646  152.3787 O   0  0  0  0  0  0  0  0  0  0  0  0
  148.2263  126.7063  151.5075 C   0  0  0  0  0  0  0  0  0  0  0  0
  148.9402  126.4796  150.2178 C   0  0  0  0  0  0  0  0  0  0  0  0
  147.5608  127.7645  152.0520 C   0  0  0  0  0  0  0  0  0  0  0  0
  147.4245  129.0362  151.4420 N   0  0  0  0  0  0  0  0  0  0  0  0
  146.3448  129.8310  151.4852 C   0  0  0  0  0  0  0  0  0  0  0  0
  145.2766  129.5335  152.0196 O   0  0  0  0  0  0  0  0  0  0  0  0
  146.5647  130.9919  150.8512 N   0  0  0  0  0  0  0  0  0  0  0  0
  145.5990  132.0811  150.7194 C   0  0  2  0  0  0  0  0  0  0  0  0
  145.0938  132.1107  149.2684 C   0  0  0  0  0  0  0  0  0  0  0  0
  146.2419  133.4200  151.1437 C   0  0  1  0  0  0  0  0  0  0  0  0
  145.3156  134.6340  151.0164 C   0  0  0  0  0  0  0  0  0  0  0  0
  145.8458  135.5562  152.0898 C   0  0  0  0  0  0  0  0  0  0  0  0
  146.1835  134.5629  153.1932 C   0  0  0  0  0  0  0  0  0  0  0  0
  146.6251  133.3897  152.5199 O   0  0  0  0  0  0  0  0  0  0  0  0
  146.7072  129.1241  154.4555 H   0  0  0  0  0  0  0  0  0  0  0  0
  146.6850  127.6604  155.4251 H   0  0  0  0  0  0  0  0  0  0  0  0
  145.3488  128.0064  154.3332 H   0  0  0  0  0  0  0  0  0  0  0  0
  149.0677  127.4132  149.6698 H   0  0  0  0  0  0  0  0  0  0  0  0
  148.3813  125.7900  149.5854 H   0  0  0  0  0  0  0  0  0  0  0  0
  149.9284  126.0539  150.3926 H   0  0  0  0  0  0  0  0  0  0  0  0
  148.1913  129.3354  150.8576 H   0  0  0  0  0  0  0  0  0  0  0  0
  147.4740  131.1420  150.4397 H   0  0  0  0  0  0  0  0  0  0  0  0
  144.7409  131.8827  151.3642 H   0  0  0  0  0  0  0  0  0  0  0  0
  144.3223  132.8683  149.1303 H   0  0  0  0  0  0  0  0  0  0  0  0
  144.6591  131.1515  148.9850 H   0  0  0  0  0  0  0  0  0  0  0  0
  145.9030  132.3288  148.5706 H   0  0  0  0  0  0  0  0  0  0  0  0
  147.1470  133.6025  150.5620 H   0  0  0  0  0  0  0  0  0  0  0  0
  145.3355  135.0818  150.0225 H   0  0  0  0  0  0  0  0  0  0  0  0
  144.2851  134.3591  151.2459 H   0  0  0  0  0  0  0  0  0  0  0  0
  146.7490  136.0599  151.7429 H   0  0  0  0  0  0  0  0  0  0  0  0
  145.1257  136.3126  152.4023 H   0  0  0  0  0  0  0  0  0  0  0  0
  146.9401  134.9388  153.8821 H   0  0  0  0  0  0  0  0  0  0  0  0
  145.2908  134.3164  153.7692 H   0  0  0  0  0  0  0  0  0  0  0  0
  1  2  1  0  0  0  0
  1 19  1  0  0  0  0
  1 20  1  0  0  0  0
  1 21  1  0  0  0  0
  2  7  1  0  0  0  0
  2  3  2  0  0  0  0
  3  4  1  0  0  0  0
  4  5  1  0  0  0  0
  5  6  1  0  0  0  0
  5  7  2  0  0  0  0
  6 22  1  0  0  0  0
  6 23  1  0  0  0  0
  6 24  1  0  0  0  0
  7  8  1  0  0  0  0
  8  9  1  0  0  0  0
  8 25  1  0  0  0  0
  9 10  2  0  0  0  0
  9 11  1  0  0  0  0
 11 12  1  0  0  0  0
 11 26  1  0  0  0  0
 12 13  1  0  0  0  0
 12 14  1  0  0  0  0
 12 27  1  0  0  0  0
 13 28  1  0  0  0  0
 13 29  1  0  0  0  0
 13 30  1  0  0  0  0
 14 18  1  0  0  0  0
 14 15  1  0  0  0  0
 14 31  1  0  0  0  0
 15 16  1  0  0  0  0
 15 32  1  0  0  0  0
 15 33  1  0  0  0  0
 16 17  1  0  0  0  0
 16 34  1  0  0  0  0
 16 35  1  0  0  0  0
 17 18  1  0  0  0  0
 17 36  1  0  0  0  0
 17 37  1  0  0  0  0
M  END
> <s_m_source_file>
AV-unprocessed.smi

> <i_m_source_file_index>
977

> <i_lp_mmshare_version>
43012

> <i_f3d_flags>
0

> <s_epik_input>
W0NIM11jMW5vYyhbQ0gzXSljMVtOSF1DKD1PKVtOSF1bQ0BIXShbQ0gzXSlbQ0BASF0yW0NIMl1bQ0gyXVtDSDJdTzI=

> <s_epik_cmdline>
J2VwaWtfcHl0aG9uJywgJy1waCcsICc3LjAnLCAnLXRuJywgJzgnLCAnLW1hJywgJzIwMCcsICctbWV0YWxfYmluZGluZycsICctaW1hZScsICc8aW5maWxlLm1hZT4nLCAnLW9tYWUnLCAnPG91dGZpbGUubWFlPic=

> <r_lp_tautomer_probability>
1

> <r_epik_Ionization_Penalty>
3.41601e-05

> <r_epik_Ionization_Penalty_Charging>
0

> <r_epik_Ionization_Penalty_Neutral>
3.41601e-05

> <r_epik_State_Penalty>
-0

> <r_epik_Charging_Adjusted_Penalty>
0

> <i_epik_Tot_Q>
0

> <i_epik_Tot_abs_Q>
0

> <r_epik_Metal_State_Penalty>
-0

> <b_epik_Metal_Only>
0

> <s_lp_Force_Field>
OPLS_2005

> <r_lp_Energy>
19.7512

> <b_lp_Chiralities_Consistent>
1

> <s_lp_Variant>
AV-unprocessed.smi:977-3

> <Gold.Version>
5.8.1

> <Gold.Id.Protein>
6NUR|6NUR_protein|mol2

> <Gold.PLP.Fitness>
38.4493

> <Gold.PLP.PLP>
-33.3897

> <Gold.PLP.part.hbond>
-3.1763

> <Gold.PLP.part.metal>
0.0000

> <Gold.PLP.part.buried>
-4.3989

> <Gold.PLP.part.nonpolar>
-26.2439

> <Gold.PLP.part.repulsive>
0.4639

> <Gold.PLP.ligand.clash>
0.0000

> <Gold.PLP.ligand.torsion>
0.4247

> <Gold.PLP.Chemscore.Hbond>
1.8480

> <Gold.PLP.Chemscore.CHOScore>
0.0000

> <Gold.PLP.Chemscore.Metal>
0.0000

> <Gold.Chemscore.Hbonds>
donor molecule, donor type, donor heavy atom, donor atom, acceptor molecule, acceptor atom, score
      L1  H     8    25       P1 10747  0.85
      L1  H    11    26       P1 10747  1.00

> <Gold.PLP.Chemscore.Internal.Correction>
0.3652

> <Gold.Rescore>
     Score         DG    S(hbond)    S(metal)    S(lipo)     H(rot)  DE(clash)    DE(int)     intcor
     16.09     -16.56       1.71        0.00      72.67       1.22       0.02       0.45       ----

> <Gold.Chemscore.Fitness>
16.0902

> <Gold.Chemscore.DG>
-16.5600

> <Gold.Chemscore.ZeroCoef>
-5.4800

> <Gold.Chemscore.Hbond>
1.7069

> <Gold.Chemscore.Metal>
0.0000

> <Gold.Chemscore.Lipo>
72.6675

> <Gold.Chemscore.Internal_Hbond>
0.0000

> <Gold.Chemscore.DEClash>
0.0237

> <Gold.Chemscore.DEInternal>
0.4462

> <Gold.Chemscore.Rot>
1.2200

> <Gold.Chemscore.Internal.Correction>
   9.000000E+99

> <Gold.Chemscore.Hbonds>
donor molecule, donor type, donor heavy atom, donor atom, acceptor molecule, acceptor atom, score
      L1  H     8    25       P1 10747  0.25
      L1  H    11    26       P1 10747  0.91

> <Gold.Chemscore.Hbond.Weighted>
-5.7011

> <Gold.Chemscore.Metal.Weighted>
-0.0000

> <Gold.Chemscore.Lipo.Weighted>
-8.5021

> <Gold.Chemscore.Internal_Hbond.Weighted>
0.0000

> <Gold.Chemscore.DEClash.Weighted>
0.0237

> <Gold.Chemscore.DEInternal.Weighted>
0.4462

> <Gold.Chemscore.Rot.Weighted>
3.1232

> <Gold.Chemscore.Internal.Correction.Weighted>
   9.000000E+99

> <Gold.Protein.RotatedTorsions>
[ 6907 6896 6895 6894 ] final  118.62 input  -60.11 | X-H torsion
[ 7974 7965 7964 7962 ] final   79.77 input  175.53 | X-H torsion
[ 8008 7997 7996 7995 ] final   15.71 input   59.86 | X-H torsion
[ 10167 10162 10161 10158 ] final  -84.66 input  -65.29 | X-H torsion
[ 10718 10713 10712 10709 ] final  152.42 input   66.30 | X-H torsion
[ 10763 10752 10751 10750 ] final  178.63 input  -60.55 | X-H torsion
[ 11005 11000 10999 10996 ] final  -86.26 input  -57.11 | X-H torsion

> <Gold.Protein.ActiveResidues>
 VAL166  LYS551  ARG553  GLY616  TRP617  ASP618  TYR619  PRO620  LYS621  CYS622 
 ASP623  PHE694  ASN695  SER759  ASP760  ASP761  ALA762  ILE779  LEU786  VAL792 
 PHE793  MET794  SER795  GLU796  ALA797  LYS798  CYS799  TRP800  GLU811  SER814 

> <Gold.Protein.RotatedAtoms>
  152.4530  133.7667  159.6775 H   0  0  0  0  0  0  0  0  0  0  0  0  # atno 6907 bound_to 6896
  150.8447  133.7869  159.3053 H   0  0  0  0  0  0  0  0  0  0  0  0  # atno 6908 bound_to 6896
  151.5483  135.1070  159.9995 H   0  0  0  0  0  0  0  0  0  0  0  0  # atno 6909 bound_to 6896
  145.6599  139.2468  143.1929 H   0  0  0  0  0  0  0  0  0  0  0  0  # atno 7974 bound_to 7965
  154.8666  140.2952  155.5507 H   0  0  0  0  0  0  0  0  0  0  0  0  # atno 8008 bound_to 7997
  156.3021  140.2468  156.3581 H   0  0  0  0  0  0  0  0  0  0  0  0  # atno 8009 bound_to 7997
  154.8862  140.0396  157.1800 H   0  0  0  0  0  0  0  0  0  0  0  0  # atno 8010 bound_to 7997
  140.4111  143.2622  151.9016 H   0  0  0  0  0  0  0  0  0  0  0  0  # atno 10167 bound_to 10162
  157.2580  131.0792  151.1685 H   0  0  0  0  0  0  0  0  0  0  0  0  # atno 10718 bound_to 10713
  154.5102  135.2788  155.1349 H   0  0  0  0  0  0  0  0  0  0  0  0  # atno 10763 bound_to 10752
  154.2948  135.6260  153.5403 H   0  0  0  0  0  0  0  0  0  0  0  0  # atno 10764 bound_to 10752
  152.9917  135.5682  154.5565 H   0  0  0  0  0  0  0  0  0  0  0  0  # atno 10765 bound_to 10752
  141.1632  133.7445  156.9136 H   0  0  0  0  0  0  0  0  0  0  0  0  # atno 11005 bound_to 11000
  146.1134  140.7400  142.9492 LP  0  0  0  0  0  0  0  0  0  0  0  0  # atno 17320 bound_to 7965
  144.7093  140.3976  143.7093 LP  0  0  0  0  0  0  0  0  0  0  0  0  # atno 17321 bound_to 7965
  139.4782  144.5536  151.8348 LP  0  0  0  0  0  0  0  0  0  0  0  0  # atno 17342 bound_to 10162
  140.4637  144.1686  150.5909 LP  0  0  0  0  0  0  0  0  0  0  0  0  # atno 17343 bound_to 10162
  157.3207  130.6935  149.6267 LP  0  0  0  0  0  0  0  0  0  0  0  0  # atno 17370 bound_to 10713
  155.9664  130.4336  150.5014 LP  0  0  0  0  0  0  0  0  0  0  0  0  # atno 17371 bound_to 10713
  140.1500  134.9236  157.2580 LP  0  0  0  0  0  0  0  0  0  0  0  0  # atno 17394 bound_to 11000
  140.2734  134.3433  155.7366 LP  0  0  0  0  0  0  0  0  0  0  0  0  # atno 17395 bound_to 11000

$$$$
