AV-unprocessed.smi:115|AV-procd|sdf|1124|dock5
  -GOLD-   2262018253D 1   1.00000     0.00000
 Structure written by MMmdl.
 55 57  0  0  0  0  0  0  0  0  1 V2000
  143.7854  133.4614  157.5218 C   0  0  0  0  0  0  0  0  0  0  0  0
  144.5655  134.5115  156.9769 O   0  0  0  0  0  0  0  0  0  0  0  0
  145.7077  134.8079  157.7647 C   0  0  0  0  0  0  0  0  0  0  0  0
  146.3262  136.1343  157.2774 C   0  0  1  0  0  0  0  0  0  0  0  0
  145.3190  137.2934  157.1834 C   0  0  0  0  0  0  0  0  0  0  0  0
  147.5423  136.5205  158.0119 N   0  0  0  0  0  0  0  0  0  0  0  0
  147.5692  136.7966  159.3784 C   0  0  0  0  0  0  0  0  0  0  0  0
  146.3625  136.7252  160.2607 C   0  0  0  0  0  0  0  0  0  0  0  0
  148.8456  137.1327  159.7143 C   0  0  0  0  0  0  0  0  0  0  0  0
  149.6564  137.0522  158.5514 C   0  0  0  0  0  0  0  0  0  0  0  0
  151.1043  137.3627  158.4290 C   0  0  0  0  0  0  0  0  0  0  0  0
  151.9479  136.9885  159.2450 O   0  0  0  0  0  0  0  0  0  0  0  0
  151.5101  138.1840  157.1907 C   0  0  0  0  0  0  0  0  0  0  0  0
  151.1032  139.5818  157.2755 N   0  0  0  0  0  0  0  0  0  0  0  0
  149.8410  139.9336  156.7363 C   0  0  0  0  0  0  0  0  0  0  0  0
  149.0910  139.1001  156.2249 O   0  0  0  0  0  0  0  0  0  0  0  0
  149.5136  141.3504  156.8410 C   0  0  0  0  0  0  0  0  0  0  0  0
  148.3689  141.8091  156.3067 F   0  0  0  0  0  0  0  0  0  0  0  0
  150.3503  142.2164  157.4520 C   0  0  0  0  0  0  0  0  0  0  0  0
  151.5465  141.8343  158.0381 N   0  0  0  0  0  0  0  0  0  0  0  0
  152.4970  142.8523  158.6350 C   0  0  2  0  0  0  0  0  0  0  0  0
  152.8279  142.6094  160.1183 C   0  0  0  0  0  0  0  0  0  0  0  0
  152.0259  143.6935  160.8121 C   0  0  0  0  0  0  0  0  0  0  0  0
  152.0261  144.7976  159.7619 C   0  0  0  0  0  0  0  0  0  0  0  0
  151.8906  144.1056  158.5275 O   0  0  0  0  0  0  0  0  0  0  0  0
  151.9795  140.4939  157.9134 C   0  0  0  0  0  0  0  0  0  0  0  0
  153.0728  140.1357  158.3575 O   0  0  0  0  0  0  0  0  0  0  0  0
  148.8500  136.6375  157.5146 C   0  0  0  0  0  0  0  0  0  0  0  0
  149.2015  136.3432  156.0822 C   0  0  0  0  0  0  0  0  0  0  0  0
  142.9204  133.2791  156.8842 H   0  0  0  0  0  0  0  0  0  0  0  0
  143.4216  133.7153  158.5184 H   0  0  0  0  0  0  0  0  0  0  0  0
  144.3588  132.5355  157.5834 H   0  0  0  0  0  0  0  0  0  0  0  0
  145.4146  134.8569  158.8124 H   0  0  0  0  0  0  0  0  0  0  0  0
  146.4334  133.9992  157.6602 H   0  0  0  0  0  0  0  0  0  0  0  0
  146.6281  135.9228  156.2531 H   0  0  0  0  0  0  0  0  0  0  0  0
  144.4788  137.0253  156.5423 H   0  0  0  0  0  0  0  0  0  0  0  0
  145.7868  138.1789  156.7525 H   0  0  0  0  0  0  0  0  0  0  0  0
  144.9104  137.5767  158.1512 H   0  0  0  0  0  0  0  0  0  0  0  0
  146.6352  136.8852  161.3041 H   0  0  0  0  0  0  0  0  0  0  0  0
  145.8829  135.7484  160.1921 H   0  0  0  0  0  0  0  0  0  0  0  0
  145.6332  137.4891  159.9894 H   0  0  0  0  0  0  0  0  0  0  0  0
  149.1631  137.4165  160.7070 H   0  0  0  0  0  0  0  0  0  0  0  0
  152.5893  138.1499  157.0359 H   0  0  0  0  0  0  0  0  0  0  0  0
  151.0758  137.7625  156.2827 H   0  0  0  0  0  0  0  0  0  0  0  0
  150.0550  143.2532  157.4688 H   0  0  0  0  0  0  0  0  0  0  0  0
  153.4078  142.8102  158.0363 H   0  0  0  0  0  0  0  0  0  0  0  0
  152.6137  141.5936  160.4506 H   0  0  0  0  0  0  0  0  0  0  0  0
  153.8940  142.7906  160.2611 H   0  0  0  0  0  0  0  0  0  0  0  0
  151.0063  143.3592  161.0037 H   0  0  0  0  0  0  0  0  0  0  0  0
  152.4643  144.0078  161.7597 H   0  0  0  0  0  0  0  0  0  0  0  0
  151.2227  145.5199  159.9080 H   0  0  0  0  0  0  0  0  0  0  0  0
  152.9757  145.3348  159.7691 H   0  0  0  0  0  0  0  0  0  0  0  0
  150.2249  135.9843  155.9858 H   0  0  0  0  0  0  0  0  0  0  0  0
  149.0996  137.2370  155.4665 H   0  0  0  0  0  0  0  0  0  0  0  0
  148.5843  135.5589  155.6542 H   0  0  0  0  0  0  0  0  0  0  0  0
  1  2  1  0  0  0  0
  1 30  1  0  0  0  0
  1 31  1  0  0  0  0
  1 32  1  0  0  0  0
  2  3  1  0  0  0  0
  3  4  1  0  0  0  0
  3 33  1  0  0  0  0
  3 34  1  0  0  0  0
  4  5  1  0  0  0  0
  4  6  1  0  0  0  0
  4 35  1  0  0  0  0
  5 36  1  0  0  0  0
  5 37  1  0  0  0  0
  5 38  1  0  0  0  0
  6 28  1  0  0  0  0
  6  7  1  0  0  0  0
  7  8  1  0  0  0  0
  7  9  2  0  0  0  0
  8 39  1  0  0  0  0
  8 40  1  0  0  0  0
  8 41  1  0  0  0  0
  9 10  1  0  0  0  0
  9 42  1  0  0  0  0
 10 11  1  0  0  0  0
 10 28  2  0  0  0  0
 11 12  2  0  0  0  0
 11 13  1  0  0  0  0
 13 14  1  0  0  0  0
 13 43  1  0  0  0  0
 13 44  1  0  0  0  0
 14 26  1  0  0  0  0
 14 15  1  0  0  0  0
 15 16  2  0  0  0  0
 15 17  1  0  0  0  0
 17 18  1  0  0  0  0
 17 19  2  0  0  0  0
 19 20  1  0  0  0  0
 19 45  1  0  0  0  0
 20 21  1  0  0  0  0
 20 26  1  0  0  0  0
 21 25  1  0  0  0  0
 21 22  1  0  0  0  0
 21 46  1  0  0  0  0
 22 23  1  0  0  0  0
 22 47  1  0  0  0  0
 22 48  1  0  0  0  0
 23 24  1  0  0  0  0
 23 49  1  0  0  0  0
 23 50  1  0  0  0  0
 24 25  1  0  0  0  0
 24 51  1  0  0  0  0
 24 52  1  0  0  0  0
 26 27  2  0  0  0  0
 28 29  1  0  0  0  0
 29 53  1  0  0  0  0
 29 54  1  0  0  0  0
 29 55  1  0  0  0  0
M  END
> <s_m_source_file>
AV-unprocessed.smi

> <i_m_source_file_index>
115

> <i_lp_mmshare_version>
43012

> <i_f3d_flags>
0

> <s_epik_input>
W0NIM11PW0NIMl1bQ0BIXShbQ0gzXSluMWMoW0NIM10pW2NIXWMoYzFbQ0gzXSlDKD1PKVtDSDJdbjJjKD1PKWMoRilbY0hdbihjMj1PKVtDQEBIXTNbQ0gyXVtDSDJdW0NIMl1PMw==

> <s_epik_cmdline>
J2VwaWtfcHl0aG9uJywgJy1waCcsICc3LjAnLCAnLXRuJywgJzgnLCAnLW1hJywgJzIwMCcsICctbWV0YWxfYmluZGluZycsICctaW1hZScsICc8aW5maWxlLm1hZT4nLCAnLW9tYWUnLCAnPG91dGZpbGUubWFlPic=

> <r_lp_tautomer_probability>
1

> <r_epik_Ionization_Penalty>
5.02611e-09

> <r_epik_Ionization_Penalty_Charging>
5.01743e-09

> <r_epik_Ionization_Penalty_Neutral>
8.68114e-12

> <r_epik_State_Penalty>
-0

> <r_epik_Charging_Adjusted_Penalty>
5.01743e-09

> <i_epik_Tot_Q>
0

> <i_epik_Tot_abs_Q>
0

> <r_epik_Metal_State_Penalty>
-0

> <b_epik_Metal_Only>
0

> <s_epik_Chemistry_Notes>
This compound contains an acetal/aminal-like group ( X-CH(R)-Y where X, Y are N, S, or O) that may be acid/base labile, releasing an aldehyde.

> <s_lp_Force_Field>
OPLS_2005

> <r_lp_Energy>
46.8154

> <b_lp_Chiralities_Consistent>
1

> <s_lp_Variant>
AV-unprocessed.smi:115-2

> <Gold.Version>
5.8.1

> <Gold.Id.Protein>
6NUR|6NUR_protein|mol2

> <Gold.PLP.Fitness>
41.9015

> <Gold.PLP.PLP>
-35.7216

> <Gold.PLP.part.hbond>
-2.0000

> <Gold.PLP.part.metal>
0.0000

> <Gold.PLP.part.buried>
-4.3381

> <Gold.PLP.part.nonpolar>
-28.8370

> <Gold.PLP.part.repulsive>
0.1300

> <Gold.PLP.ligand.clash>
0.0000

> <Gold.PLP.ligand.torsion>
1.3916

> <Gold.PLP.Chemscore.Hbond>
1.9510

> <Gold.PLP.Chemscore.CHOScore>
0.8986

> <Gold.PLP.Chemscore.Metal>
0.0000

> <Gold.Chemscore.Hbonds>
donor molecule, donor type, donor heavy atom, donor atom, acceptor molecule, acceptor atom, score
      P1  H  6896  6907       L1    12  1.00
      P1  H  7997  8008       L1    27  1.00
      L1  C    19    45       P1  8028  0.84

> <Gold.PLP.Chemscore.Internal.Correction>
0.4142

> <Gold.Rescore>
     Score         DG    S(hbond)    S(metal)    S(lipo)     H(rot)  DE(clash)    DE(int)     intcor
     11.45     -14.08       1.75        0.00      71.47       2.19       0.01       2.61       ----

> <Gold.Chemscore.Fitness>
11.4536

> <Gold.Chemscore.DG>
-14.0778

> <Gold.Chemscore.ZeroCoef>
-5.4800

> <Gold.Chemscore.Hbond>
1.7519

> <Gold.Chemscore.Metal>
0.0000

> <Gold.Chemscore.Lipo>
71.4741

> <Gold.Chemscore.Internal_Hbond>
0.0000

> <Gold.Chemscore.DEClash>
0.0144

> <Gold.Chemscore.DEInternal>
2.6098

> <Gold.Chemscore.Rot>
2.1938

> <Gold.Chemscore.Internal.Correction>
   9.000000E+99

> <Gold.Chemscore.Hbonds>
donor molecule, donor type, donor heavy atom, donor atom, acceptor molecule, acceptor atom, score
      P1  H  6896  6907       L1    12  0.86
      P1  H  7997  8008       L1    27  0.83

> <Gold.Chemscore.Hbond.Weighted>
-5.8513

> <Gold.Chemscore.Metal.Weighted>
-0.0000

> <Gold.Chemscore.Lipo.Weighted>
-8.3625

> <Gold.Chemscore.Internal_Hbond.Weighted>
0.0000

> <Gold.Chemscore.DEClash.Weighted>
0.0144

> <Gold.Chemscore.DEInternal.Weighted>
2.6098

> <Gold.Chemscore.Rot.Weighted>
5.6160

> <Gold.Chemscore.Internal.Correction.Weighted>
   9.000000E+99

> <Gold.Protein.RotatedTorsions>
[ 6907 6896 6895 6894 ] final    4.51 input  -60.11 | X-H torsion
[ 7974 7965 7964 7962 ] final  -16.24 input  175.53 | X-H torsion
[ 8008 7997 7996 7995 ] final  -85.97 input   59.86 | X-H torsion
[ 10167 10162 10161 10158 ] final -126.40 input  -65.29 | X-H torsion
[ 10718 10713 10712 10709 ] final -152.17 input   66.30 | X-H torsion
[ 10763 10752 10751 10750 ] final  -87.60 input  -60.55 | X-H torsion
[ 11005 11000 10999 10996 ] final -152.24 input  -57.11 | X-H torsion

> <Gold.Protein.ActiveResidues>
 VAL166  LYS551  ARG553  GLY616  TRP617  ASP618  TYR619  PRO620  LYS621  CYS622 
 ASP623  PHE694  ASN695  SER759  ASP760  ASP761  ALA762  ILE779  LEU786  VAL792 
 PHE793  MET794  SER795  GLU796  ALA797  LYS798  CYS799  TRP800  GLU811  SER814 

> <Gold.Protein.RotatedAtoms>
  151.6424  135.1011  160.0143 H   0  0  0  0  0  0  0  0  0  0  0  0  # atno 6907 bound_to 6896
  152.4047  133.6866  159.6354 H   0  0  0  0  0  0  0  0  0  0  0  0  # atno 6908 bound_to 6896
  150.7942  133.8647  159.3283 H   0  0  0  0  0  0  0  0  0  0  0  0  # atno 6909 bound_to 6896
  146.1996  140.3608  142.8428 H   0  0  0  0  0  0  0  0  0  0  0  0  # atno 7974 bound_to 7965
  154.6466  140.0584  156.9908 H   0  0  0  0  0  0  0  0  0  0  0  0  # atno 8008 bound_to 7997
  155.1435  140.3267  155.4428 H   0  0  0  0  0  0  0  0  0  0  0  0  # atno 8009 bound_to 7997
  156.2556  140.1960  156.6549 H   0  0  0  0  0  0  0  0  0  0  0  0  # atno 8010 bound_to 7997
  139.9719  143.5837  152.2410 H   0  0  0  0  0  0  0  0  0  0  0  0  # atno 10167 bound_to 10162
  156.4689  130.8249  151.2479 H   0  0  0  0  0  0  0  0  0  0  0  0  # atno 10718 bound_to 10713
  154.6354  135.5407  153.7728 H   0  0  0  0  0  0  0  0  0  0  0  0  # atno 10763 bound_to 10752
  153.0306  135.6446  154.1239 H   0  0  0  0  0  0  0  0  0  0  0  0  # atno 10764 bound_to 10752
  154.1166  135.2923  155.3198 H   0  0  0  0  0  0  0  0  0  0  0  0  # atno 10765 bound_to 10752
  140.7210  134.3727  157.5183 H   0  0  0  0  0  0  0  0  0  0  0  0  # atno 11005 bound_to 11000
  144.8655  140.7199  143.6080 LP  0  0  0  0  0  0  0  0  0  0  0  0  # atno 17320 bound_to 7965
  145.3528  139.1702  143.4425 LP  0  0  0  0  0  0  0  0  0  0  0  0  # atno 17321 bound_to 7965
  139.6475  144.7659  151.2214 LP  0  0  0  0  0  0  0  0  0  0  0  0  # atno 17342 bound_to 10162
  140.7519  143.6215  150.8509 LP  0  0  0  0  0  0  0  0  0  0  0  0  # atno 17343 bound_to 10162
  157.7493  131.0082  150.3221 LP  0  0  0  0  0  0  0  0  0  0  0  0  # atno 17370 bound_to 10713
  156.3639  130.3851  149.7229 LP  0  0  0  0  0  0  0  0  0  0  0  0  # atno 17371 bound_to 10713
  139.8848  134.8955  156.2681 LP  0  0  0  0  0  0  0  0  0  0  0  0  # atno 17394 bound_to 11000
  141.0003  133.7155  156.0950 LP  0  0  0  0  0  0  0  0  0  0  0  0  # atno 17395 bound_to 11000

$$$$
