AV-unprocessed.smi:2385|AV-procd|sdf|9463|dock3
  -GOLD-   2272013 93D 1   1.00000     0.00000
 Structure written by MMmdl.
 50 52  0  0  0  0  0  0  0  0  2 V2000
  152.2906  130.1595  152.3333 C   0  0  0  0  0  0  0  0  0  0  0  0
  152.1228  131.6026  152.7599 C   0  0  0  0  0  0  0  0  0  0  0  0
  153.2164  132.3545  153.2289 C   0  0  0  0  0  0  0  0  0  0  0  0
  153.0052  133.6931  153.6118 C   0  0  0  0  0  0  0  0  0  0  0  0
  151.7083  134.2468  153.5201 C   0  0  0  0  0  0  0  0  0  0  0  0
  151.6041  135.6034  153.9277 N   0  0  0  0  0  0  0  0  0  0  0  0
  152.4078  136.2846  154.7634 C   0  0  0  0  0  0  0  0  0  0  0  0
  153.4108  135.8283  155.3126 O   0  0  0  0  0  0  0  0  0  0  0  0
  151.9758  137.5461  154.9281 N   0  0  0  0  0  0  0  0  0  0  0  0
  152.5756  138.5929  155.7588 C   0  0  2  0  0  0  0  0  0  0  0  0
  152.7587  138.1597  157.2265 C   0  0  0  0  0  0  0  0  0  0  0  0
  153.4197  139.2784  158.0489 C   0  0  0  0  0  0  0  0  0  0  0  0
  152.6408  140.5415  157.9592 N   0  3  1  0  0  0  0  0  0  0  0  0
  153.1538  141.6026  158.8641 C   0  0  0  0  0  0  0  0  0  0  0  0
  152.3242  142.8970  158.7647 C   0  0  2  0  0  0  0  0  0  0  0  0
  152.6972  143.9916  159.7465 C   0  0  0  0  0  0  0  0  0  0  0  0
  151.4429  144.8617  159.7568 C   0  0  0  0  0  0  0  0  0  0  0  0
  150.3575  143.9916  159.4498 O   0  0  0  0  0  0  0  0  0  0  0  0
  150.8500  142.6988  159.1157 C   0  0  0  0  0  0  0  0  0  0  0  0
  152.4995  140.9971  156.5505 C   0  0  0  0  0  0  0  0  0  0  0  0
  151.8073  139.9274  155.6903 C   0  0  0  0  0  0  0  0  0  0  0  0
  150.6601  133.5131  153.0699 N   0  0  0  0  0  0  0  0  0  0  0  0
  150.8636  132.2305  152.7018 C   0  0  0  0  0  0  0  0  0  0  0  0
  153.3300  129.9427  152.0846 H   0  0  0  0  0  0  0  0  0  0  0  0
  151.6804  129.9459  151.4552 H   0  0  0  0  0  0  0  0  0  0  0  0
  151.9827  129.4912  153.1376 H   0  0  0  0  0  0  0  0  0  0  0  0
  154.2020  131.9174  153.2942 H   0  0  0  0  0  0  0  0  0  0  0  0
  153.8347  134.2848  153.9709 H   0  0  0  0  0  0  0  0  0  0  0  0
  150.8204  136.1108  153.5443 H   0  0  0  0  0  0  0  0  0  0  0  0
  151.1409  137.8113  154.4258 H   0  0  0  0  0  0  0  0  0  0  0  0
  153.5680  138.7616  155.3381 H   0  0  0  0  0  0  0  0  0  0  0  0
  151.7978  137.9122  157.6783 H   0  0  0  0  0  0  0  0  0  0  0  0
  153.3665  137.2558  157.2783 H   0  0  0  0  0  0  0  0  0  0  0  0
  153.4855  138.9594  159.0899 H   0  0  0  0  0  0  0  0  0  0  0  0
  154.4400  139.4518  157.7026 H   0  0  0  0  0  0  0  0  0  0  0  0
  153.0973  141.2573  159.8975 H   0  0  0  0  0  0  0  0  0  0  0  0
  154.2120  141.7942  158.6782 H   0  0  0  0  0  0  0  0  0  0  0  0
  152.3842  143.2942  157.7498 H   0  0  0  0  0  0  0  0  0  0  0  0
  152.8658  143.5725  160.7395 H   0  0  0  0  0  0  0  0  0  0  0  0
  153.5874  144.5484  159.4526 H   0  0  0  0  0  0  0  0  0  0  0  0
  151.2939  145.3615  160.7142 H   0  0  0  0  0  0  0  0  0  0  0  0
  151.5022  145.6268  158.9819 H   0  0  0  0  0  0  0  0  0  0  0  0
  150.2802  142.2562  158.2981 H   0  0  0  0  0  0  0  0  0  0  0  0
  150.7437  142.0532  159.9889 H   0  0  0  0  0  0  0  0  0  0  0  0
  151.9216  141.9194  156.5083 H   0  0  0  0  0  0  0  0  0  0  0  0
  153.4846  141.2262  156.1406 H   0  0  0  0  0  0  0  0  0  0  0  0
  151.7421  140.2702  154.6570 H   0  0  0  0  0  0  0  0  0  0  0  0
  150.7822  139.8036  156.0405 H   0  0  0  0  0  0  0  0  0  0  0  0
  149.9955  131.6922  152.3506 H   0  0  0  0  0  0  0  0  0  0  0  0
  151.7128  140.3164  158.2890 H   0  0  0  0  0  0  0  0  0  0  0  0
  1  2  1  0  0  0  0
  1 24  1  0  0  0  0
  1 25  1  0  0  0  0
  1 26  1  0  0  0  0
  2 23  1  0  0  0  0
  2  3  2  0  0  0  0
  3  4  1  0  0  0  0
  3 27  1  0  0  0  0
  4  5  2  0  0  0  0
  4 28  1  0  0  0  0
  5  6  1  0  0  0  0
  5 22  1  0  0  0  0
  6  7  1  0  0  0  0
  6 29  1  0  0  0  0
  7  8  2  0  0  0  0
  7  9  1  0  0  0  0
  9 10  1  0  0  0  0
  9 30  1  0  0  0  0
 10 21  1  0  0  0  0
 10 11  1  0  0  0  0
 10 31  1  0  0  0  0
 11 12  1  0  0  0  0
 11 32  1  0  0  0  0
 11 33  1  0  0  0  0
 12 13  1  0  0  0  0
 12 34  1  0  0  0  0
 12 35  1  0  0  0  0
 13 14  1  0  0  0  0
 13 20  1  0  0  0  0
 13 50  1  0  0  0  0
 14 15  1  0  0  0  0
 14 36  1  0  0  0  0
 14 37  1  0  0  0  0
 15 19  1  0  0  0  0
 15 16  1  0  0  0  0
 15 38  1  0  0  0  0
 16 17  1  0  0  0  0
 16 39  1  0  0  0  0
 16 40  1  0  0  0  0
 17 18  1  0  0  0  0
 17 41  1  0  0  0  0
 17 42  1  0  0  0  0
 18 19  1  0  0  0  0
 19 43  1  0  0  0  0
 19 44  1  0  0  0  0
 20 21  1  0  0  0  0
 20 45  1  0  0  0  0
 20 46  1  0  0  0  0
 21 47  1  0  0  0  0
 21 48  1  0  0  0  0
 22 23  2  0  0  0  0
 23 49  1  0  0  0  0
M  CHG  1  13   1
M  END
> <s_m_source_file>
AV-unprocessed.smi

> <i_m_source_file_index>
2385

> <i_lp_mmshare_version>
43012

> <i_f3d_flags>
0

> <s_epik_input>
W0NIM11jMVtjSF1bY0hdYyhuW2NIXTEpW05IXUMoPU8pW05IXVtDSF0yW0NIMl1bQ0gyXU4oW0NIMl1bQ0gyXTIpW0NIMl1bQ0BASF0zW0NIMl1bQ0gyXU9bQ0gyXTM=

> <s_epik_cmdline>
J2VwaWtfcHl0aG9uJywgJy1waCcsICc3LjAnLCAnLXRuJywgJzgnLCAnLW1hJywgJzIwMCcsICctbWV0YWxfYmluZGluZycsICctaW1hZScsICc8aW5maWxlLm1hZT4nLCAnLW9tYWUnLCAnPG91dGZpbGUubWFlPic=

> <r_epik_Ionization_Penalty>
0.00752367

> <r_epik_Ionization_Penalty_Charging>
0.00747775

> <r_epik_Ionization_Penalty_Neutral>
4.59207e-05

> <r_epik_State_Penalty>
0.00558817

> <r_epik_Charging_Adjusted_Penalty>
0.0130659

> <i_epik_Tot_Q>
1

> <i_epik_Tot_abs_Q>
1

> <r_epik_Metal_State_Penalty>
-0

> <b_epik_Metal_Only>
0

> <s_lp_Force_Field>
OPLS_2005

> <r_lp_Energy>
37.2882

> <b_lp_Chiralities_Consistent>
1

> <s_lp_Variant>
AV-unprocessed.smi:2385-1

> <Gold.Version>
5.8.1

> <Gold.Id.Protein>
6NUR|6NUR_protein|mol2

> <Gold.PLP.Fitness>
-278.9587

> <Gold.PLP.PLP>
279.8733

> <Gold.PLP.part.hbond>
8.0974

> <Gold.PLP.part.metal>
0.0000

> <Gold.PLP.part.buried>
83.1007

> <Gold.PLP.part.nonpolar>
200.1734

> <Gold.PLP.part.repulsive>
8.3966

> <Gold.PLP.ligand.clash>
0.0000

> <Gold.PLP.ligand.torsion>
0.1554

> <Gold.PLP.Chemscore.Hbond>
0.0295

> <Gold.PLP.Chemscore.CHOScore>
0.3603

> <Gold.PLP.Chemscore.Metal>
0.0000

> <Gold.Chemscore.Hbonds>
donor molecule, donor type, donor heavy atom, donor atom, acceptor molecule, acceptor atom, score
      L1  H     6    29       P1  7949  0.03
      L1  C    23    49       P1 10747  0.36

> <Gold.PLP.Chemscore.Internal.Correction>
0.0559

> <Gold.Rescore>
     Score         DG    S(hbond)    S(metal)    S(lipo)     H(rot)  DE(clash)    DE(int)     intcor
     15.75     -17.48       0.97        0.00     105.56       1.41       0.14       1.59       ----

> <Gold.Chemscore.Fitness>
15.7474

> <Gold.Chemscore.DG>
-17.4829

> <Gold.Chemscore.ZeroCoef>
-5.4800

> <Gold.Chemscore.Hbond>
0.9734

> <Gold.Chemscore.Metal>
0.0000

> <Gold.Chemscore.Lipo>
105.5561

> <Gold.Chemscore.Internal_Hbond>
0.0000

> <Gold.Chemscore.DEClash>
0.1449

> <Gold.Chemscore.DEInternal>
1.5906

> <Gold.Chemscore.Rot>
1.4056

> <Gold.Chemscore.Internal.Correction>
   9.000000E+99

> <Gold.Chemscore.Hbond.Weighted>
-3.2511

> <Gold.Chemscore.Metal.Weighted>
-0.0000

> <Gold.Chemscore.Lipo.Weighted>
-12.3501

> <Gold.Chemscore.Internal_Hbond.Weighted>
0.0000

> <Gold.Chemscore.DEClash.Weighted>
0.1449

> <Gold.Chemscore.DEInternal.Weighted>
1.5906

> <Gold.Chemscore.Rot.Weighted>
3.5982

> <Gold.Chemscore.Internal.Correction.Weighted>
   9.000000E+99

> <Gold.Protein.RotatedTorsions>
[ 6907 6896 6895 6894 ] final   18.64 input  -60.11 | X-H torsion
[ 7974 7965 7964 7962 ] final  160.06 input  175.53 | X-H torsion
[ 8008 7997 7996 7995 ] final  124.55 input   59.86 | X-H torsion
[ 10167 10162 10161 10158 ] final  123.15 input  -65.29 | X-H torsion
[ 10718 10713 10712 10709 ] final  -85.58 input   66.30 | X-H torsion
[ 10763 10752 10751 10750 ] final  111.01 input  -60.55 | X-H torsion
[ 11005 11000 10999 10996 ] final  -76.80 input  -57.11 | X-H torsion

> <Gold.Protein.ActiveResidues>
 VAL166  LYS551  ARG553  GLY616  TRP617  ASP618  TYR619  PRO620  LYS621  CYS622 
 ASP623  PHE694  ASN695  SER759  ASP760  ASP761  ALA762  ILE779  LEU786  VAL792 
 PHE793  MET794  SER795  GLU796  ALA797  LYS798  CYS799  TRP800  GLU811  SER814 

> <Gold.Protein.RotatedAtoms>
  151.8684  135.0498  160.0476 H   0  0  0  0  0  0  0  0  0  0  0  0  # atno 6907 bound_to 6896
  152.2608  133.5291  159.5389 H   0  0  0  0  0  0  0  0  0  0  0  0  # atno 6908 bound_to 6896
  150.7116  134.0749  159.3920 H   0  0  0  0  0  0  0  0  0  0  0  0  # atno 6909 bound_to 6896
  144.7757  139.7704  143.6279 H   0  0  0  0  0  0  0  0  0  0  0  0  # atno 7974 bound_to 7965
  156.2805  140.2737  156.1806 H   0  0  0  0  0  0  0  0  0  0  0  0  # atno 8008 bound_to 7997
  155.0560  140.0386  157.2578 H   0  0  0  0  0  0  0  0  0  0  0  0  # atno 8009 bound_to 7997
  154.7156  140.2677  155.6594 H   0  0  0  0  0  0  0  0  0  0  0  0  # atno 8010 bound_to 7997
  139.5816  144.6989  151.3513 H   0  0  0  0  0  0  0  0  0  0  0  0  # atno 10167 bound_to 10162
  155.9995  130.4736  150.4584 H   0  0  0  0  0  0  0  0  0  0  0  0  # atno 10718 bound_to 10713
  153.4571  135.3730  155.2317 H   0  0  0  0  0  0  0  0  0  0  0  0  # atno 10763 bound_to 10752
  154.8757  135.3900  154.3968 H   0  0  0  0  0  0  0  0  0  0  0  0  # atno 10764 bound_to 10752
  153.4536  135.7086  153.6157 H   0  0  0  0  0  0  0  0  0  0  0  0  # atno 10765 bound_to 10752
  141.1656  133.6997  156.7723 H   0  0  0  0  0  0  0  0  0  0  0  0  # atno 11005 bound_to 11000
  146.1934  139.5187  142.9790 LP  0  0  0  0  0  0  0  0  0  0  0  0  # atno 17320 bound_to 7965
  145.6193  141.0325  143.1923 LP  0  0  0  0  0  0  0  0  0  0  0  0  # atno 17321 bound_to 7965
  140.7094  143.7430  150.7539 LP  0  0  0  0  0  0  0  0  0  0  0  0  # atno 17342 bound_to 10162
  140.0964  143.4829  152.2450 LP  0  0  0  0  0  0  0  0  0  0  0  0  # atno 17343 bound_to 10162
  157.2610  131.0567  151.2320 LP  0  0  0  0  0  0  0  0  0  0  0  0  # atno 17370 bound_to 10713
  157.3434  130.7045  149.6396 LP  0  0  0  0  0  0  0  0  0  0  0  0  # atno 17371 bound_to 10713
  140.2455  134.8581  157.3616 LP  0  0  0  0  0  0  0  0  0  0  0  0  # atno 17394 bound_to 11000
  140.1754  134.4556  155.7805 LP  0  0  0  0  0  0  0  0  0  0  0  0  # atno 17395 bound_to 11000

$$$$
