AV-unprocessed.smi:2044|AV-procd|sdf|8302|dock8
  -GOLD-   2272010563D 1   1.00000     0.00000
 Structure written by MMmdl.
 38 39  0  0  0  0  0  0  0  0  2 V2000
  149.3025  141.0959  154.3978 C   0  0  0  0  0  0  0  0  0  0  0  0
  150.0935  139.8400  154.5335 C   0  0  0  0  0  0  0  0  0  0  0  0
  149.7607  138.5189  154.4349 C   0  0  0  0  0  0  0  0  0  0  0  0
  150.9924  137.8544  154.6847 C   0  0  0  0  0  0  0  0  0  0  0  0
  151.1852  136.5266  154.6860 N   0  5  0  0  0  0  0  0  0  0  0  0
  150.3309  135.7149  155.3508 C   0  0  0  0  0  0  0  0  0  0  0  0
  150.4569  135.3108  156.5091 O   0  0  0  0  0  0  0  0  0  0  0  0
  149.2626  135.3494  154.6308 N   0  0  0  0  0  0  0  0  0  0  0  0
  148.1830  134.4880  155.1020 C   0  0  0  0  0  0  0  0  0  0  0  0
  147.8708  133.3547  154.0928 C   0  0  2  0  0  0  0  0  0  0  0  0
  149.1264  132.4627  153.9672 C   0  0  0  0  0  0  0  0  0  0  0  0
  147.3546  133.8316  152.7907 N   0  0  0  0  0  0  0  0  0  0  0  0
  146.2858  134.8240  152.9369 C   0  0  0  0  0  0  0  0  0  0  0  0
  145.7401  135.3084  151.5826 C   0  0  0  0  0  0  0  0  0  0  0  0
  145.2809  134.1963  150.8252 O   0  0  0  0  0  0  0  0  0  0  0  0
  146.3081  133.2393  150.6007 C   0  0  0  0  0  0  0  0  0  0  0  0
  146.8551  132.7408  151.9494 C   0  0  0  0  0  0  0  0  0  0  0  0
  151.9885  138.6981  154.8978 N   0  0  0  0  0  0  0  0  0  0  0  0
  151.4187  139.9738  154.8100 O   0  0  0  0  0  0  0  0  0  0  0  0
  148.6577  141.0531  153.5201 H   0  0  0  0  0  0  0  0  0  0  0  0
  149.9560  141.9623  154.2940 H   0  0  0  0  0  0  0  0  0  0  0  0
  148.6726  141.2500  155.2740 H   0  0  0  0  0  0  0  0  0  0  0  0
  148.7913  138.0935  154.2227 H   0  0  0  0  0  0  0  0  0  0  0  0
  149.1892  135.7014  153.6875 H   0  0  0  0  0  0  0  0  0  0  0  0
  148.4724  134.0617  156.0636 H   0  0  0  0  0  0  0  0  0  0  0  0
  147.2942  135.0843  155.3096 H   0  0  0  0  0  0  0  0  0  0  0  0
  147.0975  132.7387  154.5543 H   0  0  0  0  0  0  0  0  0  0  0  0
  149.5403  132.2231  154.9471 H   0  0  0  0  0  0  0  0  0  0  0  0
  149.9107  132.9553  153.3915 H   0  0  0  0  0  0  0  0  0  0  0  0
  148.9064  131.5085  153.4900 H   0  0  0  0  0  0  0  0  0  0  0  0
  145.4700  134.4048  153.5276 H   0  0  0  0  0  0  0  0  0  0  0  0
  146.6475  135.7000  153.4736 H   0  0  0  0  0  0  0  0  0  0  0  0
  144.9127  136.0014  151.7347 H   0  0  0  0  0  0  0  0  0  0  0  0
  146.5099  135.8455  151.0263 H   0  0  0  0  0  0  0  0  0  0  0  0
  145.9002  132.4071  150.0267 H   0  0  0  0  0  0  0  0  0  0  0  0
  147.1047  133.6822  150.0009 H   0  0  0  0  0  0  0  0  0  0  0  0
  147.6493  132.0268  151.7367 H   0  0  0  0  0  0  0  0  0  0  0  0
  146.0721  132.1945  152.4777 H   0  0  0  0  0  0  0  0  0  0  0  0
  1  2  1  0  0  0  0
  1 20  1  0  0  0  0
  1 21  1  0  0  0  0
  1 22  1  0  0  0  0
  2 19  1  0  0  0  0
  2  3  2  0  0  0  0
  3  4  1  0  0  0  0
  3 23  1  0  0  0  0
  4  5  1  0  0  0  0
  4 18  2  0  0  0  0
  5  6  1  0  0  0  0
  6  7  2  0  0  0  0
  6  8  1  0  0  0  0
  8  9  1  0  0  0  0
  8 24  1  0  0  0  0
  9 10  1  0  0  0  0
  9 25  1  0  0  0  0
  9 26  1  0  0  0  0
 10 11  1  0  0  0  0
 10 12  1  0  0  0  0
 10 27  1  0  0  0  0
 11 28  1  0  0  0  0
 11 29  1  0  0  0  0
 11 30  1  0  0  0  0
 12 17  1  0  0  0  0
 12 13  1  0  0  0  0
 13 14  1  0  0  0  0
 13 31  1  0  0  0  0
 13 32  1  0  0  0  0
 14 15  1  0  0  0  0
 14 33  1  0  0  0  0
 14 34  1  0  0  0  0
 15 16  1  0  0  0  0
 16 17  1  0  0  0  0
 16 35  1  0  0  0  0
 16 36  1  0  0  0  0
 17 37  1  0  0  0  0
 17 38  1  0  0  0  0
 18 19  1  0  0  0  0
M  CHG  1   5  -1
M  END
> <s_m_source_file>
AV-unprocessed.smi

> <i_m_source_file_index>
2044

> <i_lp_mmshare_version>
43012

> <i_f3d_flags>
0

> <s_epik_input>
W0NIM11jMVtjSF1jKG5vMSlbTkhdQyg9TylbTkhdW0NIMl1bQ0BIXShbQ0gzXSlOMltDSDJdW0NIMl1PW0NIMl1bQ0gyXTI=

> <s_epik_cmdline>
J2VwaWtfcHl0aG9uJywgJy1waCcsICc3LjAnLCAnLXRuJywgJzgnLCAnLW1hJywgJzIwMCcsICctbWV0YWxfYmluZGluZycsICctaW1hZScsICc8aW5maWxlLm1hZT4nLCAnLW9tYWUnLCAnPG91dGZpbGUubWFlPic=

> <r_epik_Ionization_Penalty>
6.88367

> <r_epik_Ionization_Penalty_Charging>
6.57198

> <r_epik_Ionization_Penalty_Neutral>
0.311681

> <r_epik_State_Penalty>
6.77619

> <r_epik_Charging_Adjusted_Penalty>
13.3482

> <i_epik_Tot_Q>
-1

> <i_epik_Tot_abs_Q>
1

> <r_epik_Metal_State_Penalty>
2.70533

> <b_epik_Metal_Only>
1

> <s_lp_Force_Field>
OPLS_2005

> <r_lp_Energy>
25.764

> <b_lp_Chiralities_Consistent>
1

> <s_lp_Variant>
AV-unprocessed.smi:2044-5

> <Gold.Version>
5.8.1

> <Gold.Id.Protein>
6NUR|6NUR_protein|mol2

> <Gold.PLP.Fitness>
40.6087

> <Gold.PLP.PLP>
-31.1306

> <Gold.PLP.part.hbond>
-2.9721

> <Gold.PLP.part.metal>
0.0000

> <Gold.PLP.part.buried>
-5.1702

> <Gold.PLP.part.nonpolar>
-24.7175

> <Gold.PLP.part.repulsive>
2.4749

> <Gold.PLP.ligand.clash>
0.0000

> <Gold.PLP.ligand.torsion>
1.2868

> <Gold.PLP.Chemscore.Hbond>
4.0000

> <Gold.PLP.Chemscore.CHOScore>
0.0000

> <Gold.PLP.Chemscore.Metal>
0.0000

> <Gold.Chemscore.Hbonds>
donor molecule, donor type, donor heavy atom, donor atom, acceptor molecule, acceptor atom, score
      L1  H     8    24       P1  7948  1.00
      P1  H  7989  7998       L1    19  0.60
      P1  H 10752 10765       L1     5  2.00

> <Gold.PLP.Chemscore.Internal.Correction>
0.0517

> <Gold.Rescore>
     Score         DG    S(hbond)    S(metal)    S(lipo)     H(rot)  DE(clash)    DE(int)     intcor
     14.32     -15.50       2.36        0.00      51.94       1.55       0.07       1.11       ----

> <Gold.Chemscore.Fitness>
14.3152

> <Gold.Chemscore.DG>
-15.4960

> <Gold.Chemscore.ZeroCoef>
-5.4800

> <Gold.Chemscore.Hbond>
2.3649

> <Gold.Chemscore.Metal>
0.0000

> <Gold.Chemscore.Lipo>
51.9430

> <Gold.Chemscore.Internal_Hbond>
0.0000

> <Gold.Chemscore.DEClash>
0.0665

> <Gold.Chemscore.DEInternal>
1.1142

> <Gold.Chemscore.Rot>
1.5470

> <Gold.Chemscore.Internal.Correction>
   9.000000E+99

> <Gold.Chemscore.Hbonds>
donor molecule, donor type, donor heavy atom, donor atom, acceptor molecule, acceptor atom, score
      L1  H     8    24       P1  7948  0.70
      P1  H  7989  7998       L1    19  0.04
      P1  H 10752 10765       L1     5  0.68

> <Gold.Chemscore.Hbond.Weighted>
-7.8989

> <Gold.Chemscore.Metal.Weighted>
-0.0000

> <Gold.Chemscore.Lipo.Weighted>
-6.0773

> <Gold.Chemscore.Internal_Hbond.Weighted>
0.0000

> <Gold.Chemscore.DEClash.Weighted>
0.0665

> <Gold.Chemscore.DEInternal.Weighted>
1.1142

> <Gold.Chemscore.Rot.Weighted>
3.9603

> <Gold.Chemscore.Internal.Correction.Weighted>
   9.000000E+99

> <Gold.Protein.RotatedTorsions>
[ 6907 6896 6895 6894 ] final  -23.29 input  -60.11 | X-H torsion
[ 7974 7965 7964 7962 ] final  -29.25 input  175.53 | X-H torsion
[ 8008 7997 7996 7995 ] final -125.63 input   59.86 | X-H torsion
[ 10167 10162 10161 10158 ] final -125.93 input  -65.29 | X-H torsion
[ 10718 10713 10712 10709 ] final   33.77 input   66.30 | X-H torsion
[ 10763 10752 10751 10750 ] final  174.61 input  -60.55 | X-H torsion
[ 11005 11000 10999 10996 ] final  -92.90 input  -57.11 | X-H torsion

> <Gold.Protein.ActiveResidues>
 VAL166  LYS551  ARG553  GLY616  TRP617  ASP618  TYR619  PRO620  LYS621  CYS622 
 ASP623  PHE694  ASN695  SER759  ASP760  ASP761  ALA762  ILE779  LEU786  VAL792 
 PHE793  MET794  SER795  GLU796  ALA797  LYS798  CYS799  TRP800  GLU811  SER814 

> <Gold.Protein.RotatedAtoms>
  151.2062  135.0462  159.8892 H   0  0  0  0  0  0  0  0  0  0  0  0  # atno 6907 bound_to 6896
  152.5428  134.0795  159.8239 H   0  0  0  0  0  0  0  0  0  0  0  0  # atno 6908 bound_to 6896
  151.0943  133.5244  159.2645 H   0  0  0  0  0  0  0  0  0  0  0  0  # atno 6909 bound_to 6896
  146.1230  140.5388  142.8727 H   0  0  0  0  0  0  0  0  0  0  0  0  # atno 7974 bound_to 7965
  155.2164  140.0420  157.2941 H   0  0  0  0  0  0  0  0  0  0  0  0  # atno 8008 bound_to 7997
  154.5978  140.2444  155.7804 H   0  0  0  0  0  0  0  0  0  0  0  0  # atno 8009 bound_to 7997
  156.2301  140.2941  156.0177 H   0  0  0  0  0  0  0  0  0  0  0  0  # atno 8010 bound_to 7997
  139.9769  143.5785  152.2393 H   0  0  0  0  0  0  0  0  0  0  0  0  # atno 10167 bound_to 10162
  157.3019  130.7355  149.6672 H   0  0  0  0  0  0  0  0  0  0  0  0  # atno 10718 bound_to 10713
  154.4563  135.2766  155.1745 H   0  0  0  0  0  0  0  0  0  0  0  0  # atno 10763 bound_to 10752
  154.3551  135.6141  153.5666 H   0  0  0  0  0  0  0  0  0  0  0  0  # atno 10764 bound_to 10752
  152.9851  135.5821  154.4917 H   0  0  0  0  0  0  0  0  0  0  0  0  # atno 10765 bound_to 10752
  141.1510  133.7851  157.0084 H   0  0  0  0  0  0  0  0  0  0  0  0  # atno 11005 bound_to 11000
  144.7615  140.5432  143.6732 LP  0  0  0  0  0  0  0  0  0  0  0  0  # atno 17320 bound_to 7965
  145.5426  139.1475  143.3438 LP  0  0  0  0  0  0  0  0  0  0  0  0  # atno 17321 bound_to 7965
  139.6439  144.7657  151.2283 LP  0  0  0  0  0  0  0  0  0  0  0  0  # atno 17342 bound_to 10162
  140.7503  143.6271  150.8458 LP  0  0  0  0  0  0  0  0  0  0  0  0  # atno 17343 bound_to 10162
  155.9672  130.4277  150.4756 LP  0  0  0  0  0  0  0  0  0  0  0  0  # atno 17370 bound_to 10713
  157.2739  131.0593  151.2242 LP  0  0  0  0  0  0  0  0  0  0  0  0  # atno 17371 bound_to 10713
  140.0894  134.9602  157.1751 LP  0  0  0  0  0  0  0  0  0  0  0  0  # atno 17394 bound_to 11000
  140.3467  134.2644  155.7204 LP  0  0  0  0  0  0  0  0  0  0  0  0  # atno 17395 bound_to 11000

$$$$
