AV-unprocessed.smi:197|AV-procd|sdf|1550|dock3
  -GOLD-   2262019413D 1   1.00000     0.00000
 Structure written by MMmdl.
 54 57  0  0  0  0  0  0  0  0  1 V2000
  152.7385  144.7485  158.0760 C   0  0  0  0  0  0  0  0  0  0  0  0
  151.5625  144.5933  158.8567 O   0  0  0  0  0  0  0  0  0  0  0  0
  150.6544  143.6133  158.3680 C   0  0  0  0  0  0  0  0  0  0  0  0
  151.3727  142.3317  157.9061 C   0  0  0  0  0  0  0  0  0  0  0  0
  152.0045  141.5138  159.0643 C   0  0  2  0  0  0  0  0  0  0  0  0
  152.8310  142.4257  160.0008 C   0  0  0  0  0  0  0  0  0  0  0  0
  153.4204  141.6617  161.0471 O   0  0  0  0  0  0  0  0  0  0  0  0
  154.3162  140.6788  160.5455 C   0  0  0  0  0  0  0  0  0  0  0  0
  153.5369  139.6999  159.6575 C   0  0  0  0  0  0  0  0  0  0  0  0
  152.8600  140.4199  158.5849 N   0  0  0  0  0  0  0  0  0  0  0  0
  152.2840  139.5567  157.7180 C   0  0  0  0  0  0  0  0  0  0  0  0
  152.7442  139.5655  156.4430 N   0  0  0  0  0  0  0  0  0  0  0  0
  152.1848  138.7697  155.5265 C   0  0  0  0  0  0  0  0  0  0  0  0
  151.1726  137.9115  155.6709 N   0  0  0  0  0  0  0  0  0  0  0  0
  150.7162  137.8931  156.9563 C   0  0  0  0  0  0  0  0  0  0  0  0
  151.2193  138.6668  158.0391 C   0  0  0  0  0  0  0  0  0  0  0  0
  150.5178  138.3677  159.2009 N   0  0  0  0  0  0  0  0  0  0  0  0
  149.6382  137.4819  158.8229 C   0  0  0  0  0  0  0  0  0  0  0  0
  149.6751  137.1515  157.4870 N   0  0  0  0  0  0  0  0  0  0  0  0
  148.8015  136.2165  156.7950 C   0  0  0  0  0  0  0  0  0  0  0  0
  149.3685  134.7728  156.7409 C   0  0  2  0  0  0  0  0  0  0  0  0
  149.4560  134.2850  158.0694 O   0  0  0  0  0  0  0  0  0  0  0  0
  150.7622  134.6866  156.1230 C   0  0  0  0  0  0  0  0  0  0  0  0
  150.7873  133.2885  155.5253 C   0  0  0  0  0  0  0  0  0  0  0  0
  149.4796  133.1616  154.9966 O   0  0  0  0  0  0  0  0  0  0  0  0
  148.5528  133.7408  155.9114 C   0  0  2  0  0  0  0  0  0  0  0  0
  147.3714  134.2865  155.0941 C   0  0  0  0  0  0  0  0  0  0  0  0
  153.3921  145.4808  158.5497 H   0  0  0  0  0  0  0  0  0  0  0  0
  152.5207  145.1092  157.0714 H   0  0  0  0  0  0  0  0  0  0  0  0
  153.2885  143.8100  157.9984 H   0  0  0  0  0  0  0  0  0  0  0  0
  149.9089  143.3788  159.1291 H   0  0  0  0  0  0  0  0  0  0  0  0
  150.1035  144.0507  157.5363 H   0  0  0  0  0  0  0  0  0  0  0  0
  150.6549  141.7367  157.3440 H   0  0  0  0  0  0  0  0  0  0  0  0
  152.1474  142.5912  157.1838 H   0  0  0  0  0  0  0  0  0  0  0  0
  151.2042  141.0738  159.6588 H   0  0  0  0  0  0  0  0  0  0  0  0
  153.6087  142.9545  159.4470 H   0  0  0  0  0  0  0  0  0  0  0  0
  152.1975  143.1840  160.4595 H   0  0  0  0  0  0  0  0  0  0  0  0
  155.1263  141.1531  159.9889 H   0  0  0  0  0  0  0  0  0  0  0  0
  154.7696  140.1488  161.3832 H   0  0  0  0  0  0  0  0  0  0  0  0
  154.2194  138.9592  159.2382 H   0  0  0  0  0  0  0  0  0  0  0  0
  152.8042  139.1597  160.2589 H   0  0  0  0  0  0  0  0  0  0  0  0
  152.6033  138.8355  154.5331 H   0  0  0  0  0  0  0  0  0  0  0  0
  148.9262  137.0512  159.5118 H   0  0  0  0  0  0  0  0  0  0  0  0
  147.8302  136.2264  157.2914 H   0  0  0  0  0  0  0  0  0  0  0  0
  148.6393  136.6027  155.7885 H   0  0  0  0  0  0  0  0  0  0  0  0
  148.7356  133.6918  158.2192 H   0  0  0  0  0  0  0  0  0  0  0  0
  150.8602  135.4128  155.3150 H   0  0  0  0  0  0  0  0  0  0  0  0
  151.5724  134.8661  156.8310 H   0  0  0  0  0  0  0  0  0  0  0  0
  151.5478  133.1715  154.7530 H   0  0  0  0  0  0  0  0  0  0  0  0
  150.9524  132.5323  156.2942 H   0  0  0  0  0  0  0  0  0  0  0  0
  148.1836  132.9411  156.5563 H   0  0  0  0  0  0  0  0  0  0  0  0
  146.6099  134.7256  155.7388 H   0  0  0  0  0  0  0  0  0  0  0  0
  146.8950  133.4859  154.5278 H   0  0  0  0  0  0  0  0  0  0  0  0
  147.6936  135.0435  154.3789 H   0  0  0  0  0  0  0  0  0  0  0  0
  1  2  1  0  0  0  0
  1 28  1  0  0  0  0
  1 29  1  0  0  0  0
  1 30  1  0  0  0  0
  2  3  1  0  0  0  0
  3  4  1  0  0  0  0
  3 31  1  0  0  0  0
  3 32  1  0  0  0  0
  4  5  1  0  0  0  0
  4 33  1  0  0  0  0
  4 34  1  0  0  0  0
  5 10  1  0  0  0  0
  5  6  1  0  0  0  0
  5 35  1  0  0  0  0
  6  7  1  0  0  0  0
  6 36  1  0  0  0  0
  6 37  1  0  0  0  0
  7  8  1  0  0  0  0
  8  9  1  0  0  0  0
  8 38  1  0  0  0  0
  8 39  1  0  0  0  0
  9 10  1  0  0  0  0
  9 40  1  0  0  0  0
  9 41  1  0  0  0  0
 10 11  1  0  0  0  0
 11 16  1  0  0  0  0
 11 12  2  0  0  0  0
 12 13  1  0  0  0  0
 13 14  2  0  0  0  0
 13 42  1  0  0  0  0
 14 15  1  0  0  0  0
 15 19  1  0  0  0  0
 15 16  2  0  0  0  0
 16 17  1  0  0  0  0
 17 18  2  0  0  0  0
 18 19  1  0  0  0  0
 18 43  1  0  0  0  0
 19 20  1  0  0  0  0
 20 21  1  0  0  0  0
 20 44  1  0  0  0  0
 20 45  1  0  0  0  0
 21 26  1  0  0  0  0
 21 22  1  0  0  0  0
 21 23  1  0  0  0  0
 22 46  1  0  0  0  0
 23 24  1  0  0  0  0
 23 47  1  0  0  0  0
 23 48  1  0  0  0  0
 24 25  1  0  0  0  0
 24 49  1  0  0  0  0
 24 50  1  0  0  0  0
 25 26  1  0  0  0  0
 26 27  1  0  0  0  0
 26 51  1  0  0  0  0
 27 52  1  0  0  0  0
 27 53  1  0  0  0  0
 27 54  1  0  0  0  0
M  END
> <s_m_source_file>
AV-unprocessed.smi

> <i_m_source_file_index>
197

> <i_lp_mmshare_version>
43012

> <i_f3d_flags>
0

> <s_epik_input>
W0NIM11PW0NIMl1bQ0gyXVtDQEBIXTFbQ0gyXU9bQ0gyXVtDSDJdTjFjKG5bY0hdbjIpYyhjMjMpbltjSF1uM1tDSDJdW0NAQF00KFtPSF0pW0NIMl1bQ0gyXU9bQ0BIXTRbQ0gzXQ==

> <s_epik_cmdline>
J2VwaWtfcHl0aG9uJywgJy1waCcsICc3LjAnLCAnLXRuJywgJzgnLCAnLW1hJywgJzIwMCcsICctbWV0YWxfYmluZGluZycsICctaW1hZScsICc8aW5maWxlLm1hZT4nLCAnLW9tYWUnLCAnPG91dGZpbGUubWFlPic=

> <r_lp_tautomer_probability>
1

> <r_epik_Ionization_Penalty>
0.000106218

> <r_epik_Ionization_Penalty_Charging>
0

> <r_epik_Ionization_Penalty_Neutral>
0.000106218

> <r_epik_State_Penalty>
-0

> <r_epik_Charging_Adjusted_Penalty>
0

> <i_epik_Tot_Q>
0

> <i_epik_Tot_abs_Q>
0

> <r_epik_Metal_State_Penalty>
-0

> <b_epik_Metal_Only>
0

> <s_lp_Force_Field>
OPLS_2005

> <r_lp_Energy>
42.452

> <b_lp_Chiralities_Consistent>
1

> <s_lp_Variant>
AV-unprocessed.smi:197-7

> <Gold.Version>
5.8.1

> <Gold.Id.Protein>
6NUR|6NUR_protein|mol2

> <Gold.PLP.Fitness>
42.9725

> <Gold.PLP.PLP>
-37.9016

> <Gold.PLP.part.hbond>
-3.2812

> <Gold.PLP.part.metal>
0.0000

> <Gold.PLP.part.buried>
-8.4531

> <Gold.PLP.part.nonpolar>
-26.0787

> <Gold.PLP.part.repulsive>
0.1514

> <Gold.PLP.ligand.clash>
0.0000

> <Gold.PLP.ligand.torsion>
0.5967

> <Gold.PLP.Chemscore.Hbond>
2.0000

> <Gold.PLP.Chemscore.CHOScore>
0.0000

> <Gold.PLP.Chemscore.Metal>
0.0000

> <Gold.Chemscore.Hbonds>
donor molecule, donor type, donor heavy atom, donor atom, acceptor molecule, acceptor atom, score
      P1  H  6896  6907       L1    22  1.00
      P1  H  7997  8010       L1    12  1.00

> <Gold.PLP.Chemscore.Internal.Correction>
0.2643

> <Gold.Rescore>
     Score         DG    S(hbond)    S(metal)    S(lipo)     H(rot)  DE(clash)    DE(int)     intcor
     13.39     -15.40       1.88        0.00      93.16       2.84       0.00       2.00       ----

> <Gold.Chemscore.Fitness>
13.3895

> <Gold.Chemscore.DG>
-15.3980

> <Gold.Chemscore.ZeroCoef>
-5.4800

> <Gold.Chemscore.Hbond>
1.8797

> <Gold.Chemscore.Metal>
0.0000

> <Gold.Chemscore.Lipo>
93.1566

> <Gold.Chemscore.Internal_Hbond>
0.0000

> <Gold.Chemscore.DEClash>
0.0038

> <Gold.Chemscore.DEInternal>
2.0047

> <Gold.Chemscore.Rot>
2.8358

> <Gold.Chemscore.Internal.Correction>
   9.000000E+99

> <Gold.Chemscore.Hbonds>
donor molecule, donor type, donor heavy atom, donor atom, acceptor molecule, acceptor atom, score
      P1  H  6896  6907       L1    22  0.58
      P1  H  7997  8010       L1    12  0.55

> <Gold.Chemscore.Hbond.Weighted>
-6.2782

> <Gold.Chemscore.Metal.Weighted>
-0.0000

> <Gold.Chemscore.Lipo.Weighted>
-10.8993

> <Gold.Chemscore.Internal_Hbond.Weighted>
0.0000

> <Gold.Chemscore.DEClash.Weighted>
0.0038

> <Gold.Chemscore.DEInternal.Weighted>
2.0047

> <Gold.Chemscore.Rot.Weighted>
7.2596

> <Gold.Chemscore.Internal.Correction.Weighted>
   9.000000E+99

> <Gold.Protein.RotatedTorsions>
[ 6907 6896 6895 6894 ] final -117.16 input  -60.11 | X-H torsion
[ 7974 7965 7964 7962 ] final  -67.79 input  175.53 | X-H torsion
[ 8008 7997 7996 7995 ] final   65.72 input   59.86 | X-H torsion
[ 10167 10162 10161 10158 ] final   60.27 input  -65.29 | X-H torsion
[ 10718 10713 10712 10709 ] final   51.62 input   66.30 | X-H torsion
[ 10763 10752 10751 10750 ] final  141.35 input  -60.55 | X-H torsion
[ 11005 11000 10999 10996 ] final -167.60 input  -57.11 | X-H torsion

> <Gold.Protein.ActiveResidues>
 VAL166  LYS551  ARG553  GLY616  TRP617  ASP618  TYR619  PRO620  LYS621  CYS622 
 ASP623  PHE694  ASN695  SER759  ASP760  ASP761  ALA762  ILE779  LEU786  VAL792 
 PHE793  MET794  SER795  GLU796  ALA797  LYS798  CYS799  TRP800  GLU811  SER814 

> <Gold.Protein.RotatedAtoms>
  150.8114  133.8416  159.3180 H   0  0  0  0  0  0  0  0  0  0  0  0  # atno 6907 bound_to 6896
  151.6200  135.1031  160.0109 H   0  0  0  0  0  0  0  0  0  0  0  0  # atno 6908 bound_to 6896
  152.4205  133.7069  159.6513 H   0  0  0  0  0  0  0  0  0  0  0  0  # atno 6909 bound_to 6896
  145.7247  140.9023  143.0612 H   0  0  0  0  0  0  0  0  0  0  0  0  # atno 7974 bound_to 7965
  155.6661  140.3497  155.4801 H   0  0  0  0  0  0  0  0  0  0  0  0  # atno 8008 bound_to 7997
  155.9727  140.1159  157.0820 H   0  0  0  0  0  0  0  0  0  0  0  0  # atno 8009 bound_to 7997
  154.4170  140.1154  156.5315 H   0  0  0  0  0  0  0  0  0  0  0  0  # atno 8010 bound_to 7997
  140.1675  144.4310  150.6678 H   0  0  0  0  0  0  0  0  0  0  0  0  # atno 10167 bound_to 10162
  157.4998  130.8430  149.8303 H   0  0  0  0  0  0  0  0  0  0  0  0  # atno 10718 bound_to 10713
  153.9377  135.2983  155.3444 H   0  0  0  0  0  0  0  0  0  0  0  0  # atno 10763 bound_to 10752
  154.7493  135.4988  153.9264 H   0  0  0  0  0  0  0  0  0  0  0  0  # atno 10764 bound_to 10752
  153.1058  135.6746  153.9694 H   0  0  0  0  0  0  0  0  0  0  0  0  # atno 10765 bound_to 10752
  140.5514  134.5424  157.5123 H   0  0  0  0  0  0  0  0  0  0  0  0  # atno 11005 bound_to 11000
  144.6908  139.9249  143.7469 LP  0  0  0  0  0  0  0  0  0  0  0  0  # atno 17320 bound_to 7965
  146.0593  139.3588  143.0591 LP  0  0  0  0  0  0  0  0  0  0  0  0  # atno 17321 bound_to 7965
  140.6604  143.2250  151.5870 LP  0  0  0  0  0  0  0  0  0  0  0  0  # atno 17342 bound_to 10162
  139.5353  144.2799  152.1238 LP  0  0  0  0  0  0  0  0  0  0  0  0  # atno 17343 bound_to 10162
  156.0222  130.3791  150.1927 LP  0  0  0  0  0  0  0  0  0  0  0  0  # atno 17370 bound_to 10713
  157.0117  130.9953  151.3364 LP  0  0  0  0  0  0  0  0  0  0  0  0  # atno 17371 bound_to 10713
  139.9453  134.7713  156.0577 LP  0  0  0  0  0  0  0  0  0  0  0  0  # atno 17394 bound_to 11000
  141.1169  133.6625  156.3117 LP  0  0  0  0  0  0  0  0  0  0  0  0  # atno 17395 bound_to 11000

$$$$
