AV-unprocessed.smi:193|AV-procd|sdf|1500|dock9
  -GOLD-   2262019323D 1   1.00000     0.00000
 Structure written by MMmdl.
 62 66  0  0  0  0  0  0  0  0  2 V2000
  150.1176  133.4867  155.0836 C   0  0  0  0  0  0  0  0  0  0  0  0
  149.5487  134.8742  154.7452 C   0  0  2  0  0  0  0  0  0  0  0  0
  150.0573  135.9031  155.7770 C   0  0  0  0  0  0  0  0  0  0  0  0
  150.0364  137.2911  155.3092 N   0  0  0  0  0  0  0  0  0  0  0  0
  150.7610  138.2086  156.0023 C   0  0  0  0  0  0  0  0  0  0  0  0
  151.7271  137.7790  156.8572 N   0  0  0  0  0  0  0  0  0  0  0  0
  152.4433  138.6569  157.5655 C   0  0  0  0  0  0  0  0  0  0  0  0
  152.3609  139.9881  157.5720 N   0  0  0  0  0  0  0  0  0  0  0  0
  151.4016  140.4289  156.7092 C   0  0  0  0  0  0  0  0  0  0  0  0
  150.5686  139.6164  155.8884 C   0  0  0  0  0  0  0  0  0  0  0  0
  149.7311  140.4222  155.1245 N   0  0  0  0  0  0  0  0  0  0  0  0
  150.0410  141.6377  155.4837 C   0  0  0  0  0  0  0  0  0  0  0  0
  151.0237  141.7335  156.4427 N   0  0  0  0  0  0  0  0  0  0  0  0
  151.5504  142.9565  157.0295 C   0  0  0  0  0  0  0  0  0  0  0  0
  151.3676  143.0476  158.5657 C   0  0  0  0  0  0  0  0  0  0  0  0
  150.1198  142.4599  158.8899 O   0  0  0  0  0  0  0  0  0  0  0  0
  152.4778  142.2559  159.2858 C   0  0  0  0  0  0  0  0  0  0  0  0
  152.4409  142.4586  160.8110 C   0  0  0  0  0  0  0  0  0  0  0  0
  152.5125  143.8454  161.1188 O   0  0  0  0  0  0  0  0  0  0  0  0
  151.4003  144.5766  160.6179 C   0  0  0  0  0  0  0  0  0  0  0  0
  151.3666  144.5041  159.0809 C   0  0  0  0  0  0  0  0  0  0  0  0
  149.0045  137.7909  154.4009 C   0  0  0  0  0  0  0  0  0  0  0  0
  147.6042  137.2472  154.7120 C   0  0  0  0  0  0  0  0  0  0  0  0
  147.3675  135.9539  154.0275 N   0  3  2  0  0  0  0  0  0  0  0  0
  145.9252  135.7065  153.7925 C   0  0  1  0  0  0  0  0  0  0  0  0
  145.4650  136.0388  152.3902 C   0  0  0  0  0  0  0  0  0  0  0  0
  145.6119  134.5926  152.8086 C   0  0  1  0  0  0  0  0  0  0  0  0
  146.6718  133.7187  152.1628 C   0  0  0  0  0  0  0  0  0  0  0  0
  148.0058  134.8029  154.7121 C   0  0  0  0  0  0  0  0  0  0  0  0
  149.7847  133.1496  156.0660 H   0  0  0  0  0  0  0  0  0  0  0  0
  151.2080  133.4970  155.0874 H   0  0  0  0  0  0  0  0  0  0  0  0
  149.8047  132.7411  154.3519 H   0  0  0  0  0  0  0  0  0  0  0  0
  149.9236  135.1343  153.7539 H   0  0  0  0  0  0  0  0  0  0  0  0
  149.4935  135.8171  156.7069 H   0  0  0  0  0  0  0  0  0  0  0  0
  151.0930  135.6635  156.0242 H   0  0  0  0  0  0  0  0  0  0  0  0
  153.1870  138.2320  158.2236 H   0  0  0  0  0  0  0  0  0  0  0  0
  149.5518  142.5043  155.0628 H   0  0  0  0  0  0  0  0  0  0  0  0
  152.6061  143.0377  156.7663 H   0  0  0  0  0  0  0  0  0  0  0  0
  151.0531  143.7983  156.5457 H   0  0  0  0  0  0  0  0  0  0  0  0
  149.5958  143.0988  159.3484 H   0  0  0  0  0  0  0  0  0  0  0  0
  152.4074  141.1937  159.0475 H   0  0  0  0  0  0  0  0  0  0  0  0
  153.4511  142.5855  158.9197 H   0  0  0  0  0  0  0  0  0  0  0  0
  151.5400  142.0229  161.2458 H   0  0  0  0  0  0  0  0  0  0  0  0
  153.2889  141.9538  161.2739 H   0  0  0  0  0  0  0  0  0  0  0  0
  150.4744  144.1946  161.0506 H   0  0  0  0  0  0  0  0  0  0  0  0
  151.4911  145.6146  160.9385 H   0  0  0  0  0  0  0  0  0  0  0  0
  152.2424  145.0236  158.6900 H   0  0  0  0  0  0  0  0  0  0  0  0
  150.4967  145.0479  158.7113 H   0  0  0  0  0  0  0  0  0  0  0  0
  148.9429  138.8765  154.4792 H   0  0  0  0  0  0  0  0  0  0  0  0
  149.2872  137.5792  153.3691 H   0  0  0  0  0  0  0  0  0  0  0  0
  147.4162  137.1774  155.7847 H   0  0  0  0  0  0  0  0  0  0  0  0
  146.8878  137.9751  154.3295 H   0  0  0  0  0  0  0  0  0  0  0  0
  145.2669  135.9014  154.6376 H   0  0  0  0  0  0  0  0  0  0  0  0
  144.4532  136.4207  152.2708 H   0  0  0  0  0  0  0  0  0  0  0  0
  146.1957  136.4391  151.6895 H   0  0  0  0  0  0  0  0  0  0  0  0
  144.6819  134.0599  152.9983 H   0  0  0  0  0  0  0  0  0  0  0  0
  147.5627  134.2931  151.9084 H   0  0  0  0  0  0  0  0  0  0  0  0
  146.2791  133.2784  151.2461 H   0  0  0  0  0  0  0  0  0  0  0  0
  146.9558  132.9110  152.8375 H   0  0  0  0  0  0  0  0  0  0  0  0
  147.7112  133.8988  154.1782 H   0  0  0  0  0  0  0  0  0  0  0  0
  147.6029  134.6994  155.7210 H   0  0  0  0  0  0  0  0  0  0  0  0
  147.7891  136.0272  153.1127 H   0  0  0  0  0  0  0  0  0  0  0  0
  1  2  1  0  0  0  0
  1 30  1  0  0  0  0
  1 31  1  0  0  0  0
  1 32  1  0  0  0  0
  2 29  1  0  0  0  0
  2  3  1  0  0  0  0
  2 33  1  0  0  0  0
  3  4  1  0  0  0  0
  3 34  1  0  0  0  0
  3 35  1  0  0  0  0
  4  5  1  0  0  0  0
  4 22  1  0  0  0  0
  5 10  1  0  0  0  0
  5  6  2  0  0  0  0
  6  7  1  0  0  0  0
  7  8  2  0  0  0  0
  7 36  1  0  0  0  0
  8  9  1  0  0  0  0
  9 13  1  0  0  0  0
  9 10  2  0  0  0  0
 10 11  1  0  0  0  0
 11 12  2  0  0  0  0
 12 13  1  0  0  0  0
 12 37  1  0  0  0  0
 13 14  1  0  0  0  0
 14 15  1  0  0  0  0
 14 38  1  0  0  0  0
 14 39  1  0  0  0  0
 15 21  1  0  0  0  0
 15 16  1  0  0  0  0
 15 17  1  0  0  0  0
 16 40  1  0  0  0  0
 17 18  1  0  0  0  0
 17 41  1  0  0  0  0
 17 42  1  0  0  0  0
 18 19  1  0  0  0  0
 18 43  1  0  0  0  0
 18 44  1  0  0  0  0
 19 20  1  0  0  0  0
 20 21  1  0  0  0  0
 20 45  1  0  0  0  0
 20 46  1  0  0  0  0
 21 47  1  0  0  0  0
 21 48  1  0  0  0  0
 22 23  1  0  0  0  0
 22 49  1  0  0  0  0
 22 50  1  0  0  0  0
 23 24  1  0  0  0  0
 23 51  1  0  0  0  0
 23 52  1  0  0  0  0
 24 25  1  0  0  0  0
 24 29  1  0  0  0  0
 24 62  1  0  0  0  0
 25 27  1  0  0  0  0
 25 26  1  0  0  0  0
 25 53  1  0  0  0  0
 26 27  1  0  0  0  0
 26 54  1  0  0  0  0
 26 55  1  0  0  0  0
 27 28  1  0  0  0  0
 27 56  1  0  0  0  0
 28 57  1  0  0  0  0
 28 58  1  0  0  0  0
 28 59  1  0  0  0  0
 29 60  1  0  0  0  0
 29 61  1  0  0  0  0
M  CHG  1  24   1
M  END
> <s_m_source_file>
AV-unprocessed.smi

> <i_m_source_file_index>
193

> <i_lp_mmshare_version>
43012

> <i_f3d_flags>
0

> <s_epik_input>
W0NIM11bQ0BASF0xW0NIMl1bQ0BIXTFOKFtDSDJdMilbQ0gyXVtDSDJdTihbQ0gyXVtDQEhdMltDSDNdKWMobltjSF1uMyljKGMzNCluW2NIXW40W0NIMl1DNShbT0hdKVtDSDJdW0NIMl1PW0NIMl1bQ0gyXTU=

> <s_epik_cmdline>
J2VwaWtfcHl0aG9uJywgJy1waCcsICc3LjAnLCAnLXRuJywgJzgnLCAnLW1hJywgJzIwMCcsICctbWV0YWxfYmluZGluZycsICctaW1hZScsICc8aW5maWxlLm1hZT4nLCAnLW9tYWUnLCAnPG91dGZpbGUubWFlPic=

> <r_lp_tautomer_probability>
1

> <r_epik_Ionization_Penalty>
0.0540825

> <r_epik_Ionization_Penalty_Charging>
0.0538476

> <r_epik_Ionization_Penalty_Neutral>
0.000234891

> <r_epik_State_Penalty>
0.0200719

> <r_epik_Charging_Adjusted_Penalty>
0.0739194

> <i_epik_Tot_Q>
1

> <i_epik_Tot_abs_Q>
1

> <r_epik_Metal_State_Penalty>
0.0199414

> <b_epik_Metal_Only>
0

> <s_lp_Force_Field>
OPLS_2005

> <r_lp_Energy>
56.6778

> <b_lp_Chiralities_Consistent>
1

> <s_lp_Variant>
AV-unprocessed.smi:193-5

> <Gold.Version>
5.8.1

> <Gold.Id.Protein>
6NUR|6NUR_protein|mol2

> <Gold.PLP.Fitness>
50.7026

> <Gold.PLP.PLP>
-42.1652

> <Gold.PLP.part.hbond>
-2.6053

> <Gold.PLP.part.metal>
0.0000

> <Gold.PLP.part.buried>
-3.9473

> <Gold.PLP.part.nonpolar>
-35.2473

> <Gold.PLP.part.repulsive>
0.1793

> <Gold.PLP.ligand.clash>
0.0000

> <Gold.PLP.ligand.torsion>
1.0943

> <Gold.PLP.Chemscore.Hbond>
2.1353

> <Gold.PLP.Chemscore.CHOScore>
1.0000

> <Gold.PLP.Chemscore.Metal>
0.0000

> <Gold.Chemscore.Hbonds>
donor molecule, donor type, donor heavy atom, donor atom, acceptor molecule, acceptor atom, score
      L1  H    24    62       P1  7948  2.00
      P1  H  7997  8009       L1     8  0.10
      L1  C    12    37       P1  8028  1.00

> <Gold.PLP.Chemscore.Internal.Correction>
1.3202

> <Gold.Rescore>
     Score         DG    S(hbond)    S(metal)    S(lipo)     H(rot)  DE(clash)    DE(int)     intcor
     11.50     -16.74       1.18        0.00     104.86       1.93       1.53       3.71       ----

> <Gold.Chemscore.Fitness>
11.4986

> <Gold.Chemscore.DG>
-16.7412

> <Gold.Chemscore.ZeroCoef>
-5.4800

> <Gold.Chemscore.Hbond>
1.1771

> <Gold.Chemscore.Metal>
0.0000

> <Gold.Chemscore.Lipo>
104.8552

> <Gold.Chemscore.Internal_Hbond>
0.0000

> <Gold.Chemscore.DEClash>
1.5344

> <Gold.Chemscore.DEInternal>
3.7081

> <Gold.Chemscore.Rot>
1.9290

> <Gold.Chemscore.Internal.Correction>
   9.000000E+99

> <Gold.Chemscore.Hbonds>
donor molecule, donor type, donor heavy atom, donor atom, acceptor molecule, acceptor atom, score
      L1  H    24    62       P1  7948  1.00

> <Gold.Chemscore.Hbond.Weighted>
-3.9314

> <Gold.Chemscore.Metal.Weighted>
-0.0000

> <Gold.Chemscore.Lipo.Weighted>
-12.2681

> <Gold.Chemscore.Internal_Hbond.Weighted>
0.0000

> <Gold.Chemscore.DEClash.Weighted>
1.5344

> <Gold.Chemscore.DEInternal.Weighted>
3.7081

> <Gold.Chemscore.Rot.Weighted>
4.9383

> <Gold.Chemscore.Internal.Correction.Weighted>
   9.000000E+99

> <Gold.Protein.RotatedTorsions>
[ 6907 6896 6895 6894 ] final  -43.23 input  -60.11 | X-H torsion
[ 7974 7965 7964 7962 ] final  120.35 input  175.53 | X-H torsion
[ 8008 7997 7996 7995 ] final  151.37 input   59.86 | X-H torsion
[ 10167 10162 10161 10158 ] final -159.17 input  -65.29 | X-H torsion
[ 10718 10713 10712 10709 ] final -161.20 input   66.30 | X-H torsion
[ 10763 10752 10751 10750 ] final   62.25 input  -60.55 | X-H torsion
[ 11005 11000 10999 10996 ] final -179.23 input  -57.11 | X-H torsion

> <Gold.Protein.ActiveResidues>
 VAL166  LYS551  ARG553  GLY616  TRP617  ASP618  TYR619  PRO620  LYS621  CYS622 
 ASP623  PHE694  ASN695  SER759  ASP760  ASP761  ALA762  ILE779  LEU786  VAL792 
 PHE793  MET794  SER795  GLU796  ALA797  LYS798  CYS799  TRP800  GLU811  SER814 

> <Gold.Protein.RotatedAtoms>
  150.9462  134.8867  159.7643 H   0  0  0  0  0  0  0  0  0  0  0  0  # atno 6907 bound_to 6896
  152.5101  134.3871  159.9381 H   0  0  0  0  0  0  0  0  0  0  0  0  # atno 6908 bound_to 6896
  151.3889  133.3755  159.2753 H   0  0  0  0  0  0  0  0  0  0  0  0  # atno 6909 bound_to 6896
  145.1322  139.3320  143.4659 H   0  0  0  0  0  0  0  0  0  0  0  0  # atno 7974 bound_to 7965
  156.2676  140.2049  156.6165 H   0  0  0  0  0  0  0  0  0  0  0  0  # atno 8008 bound_to 7997
  154.6790  140.0542  157.0270 H   0  0  0  0  0  0  0  0  0  0  0  0  # atno 8009 bound_to 7997
  155.1028  140.3207  155.4545 H   0  0  0  0  0  0  0  0  0  0  0  0  # atno 8010 bound_to 7997
  139.6635  143.9870  152.2240 H   0  0  0  0  0  0  0  0  0  0  0  0  # atno 10167 bound_to 10162
  156.5929  130.8778  151.2894 H   0  0  0  0  0  0  0  0  0  0  0  0  # atno 10718 bound_to 10713
  152.9977  135.5471  154.6164 H   0  0  0  0  0  0  0  0  0  0  0  0  # atno 10763 bound_to 10752
  154.5473  135.2824  155.1043 H   0  0  0  0  0  0  0  0  0  0  0  0  # atno 10764 bound_to 10752
  154.2297  135.6436  153.5224 H   0  0  0  0  0  0  0  0  0  0  0  0  # atno 10765 bound_to 10752
  140.4210  134.6606  157.4664 H   0  0  0  0  0  0  0  0  0  0  0  0  # atno 11005 bound_to 11000
  146.3513  140.1326  142.8597 LP  0  0  0  0  0  0  0  0  0  0  0  0  # atno 17320 bound_to 7965
  145.0622  140.9096  143.4931 LP  0  0  0  0  0  0  0  0  0  0  0  0  # atno 17321 bound_to 7965
  139.9615  144.6554  150.8075 LP  0  0  0  0  0  0  0  0  0  0  0  0  # atno 17342 bound_to 10162
  140.7590  143.3119  151.2824 LP  0  0  0  0  0  0  0  0  0  0  0  0  # atno 17343 bound_to 10162
  157.7299  130.9678  150.1808 LP  0  0  0  0  0  0  0  0  0  0  0  0  # atno 17370 bound_to 10713
  156.2534  130.3703  149.8208 LP  0  0  0  0  0  0  0  0  0  0  0  0  # atno 17371 bound_to 10713
  140.0200  134.6561  155.9253 LP  0  0  0  0  0  0  0  0  0  0  0  0  # atno 17394 bound_to 11000
  141.1784  133.6543  156.4920 LP  0  0  0  0  0  0  0  0  0  0  0  0  # atno 17395 bound_to 11000

$$$$
