AV-unprocessed.smi:2168|AV-procd|sdf|8819|dock10
  -GOLD-   2272012 13D 1   1.00000     0.00000
 Structure written by MMmdl.
 47 48  0  0  0  0  0  0  0  0  2 V2000
  154.5088  132.5385  157.4143 C   0  0  0  0  0  0  0  0  0  0  0  0
  154.6728  131.0774  156.9708 C   0  0  0  0  0  0  0  0  0  0  0  0
  153.4687  130.5403  156.3083 N   0  0  0  0  0  0  0  0  0  0  0  0
  153.6856  129.6002  155.1909 C   0  0  0  0  0  0  0  0  0  0  0  0
  155.0247  129.8233  154.4695 C   0  0  0  0  0  0  0  0  0  0  0  0
  151.9213  130.6327  157.0936 S   0  0  0  0  0  0  0  0  0  0  0  0
  151.4753  129.2771  157.4495 O   0  0  0  0  0  0  0  0  0  0  0  0
  151.9606  131.7050  158.1001 O   0  0  0  0  0  0  0  0  0  0  0  0
  150.9615  131.1715  155.7671 N   0  0  0  0  0  0  0  0  0  0  0  0
  149.9979  132.2508  155.9671 C   0  0  0  0  0  0  0  0  0  0  0  0
  149.0471  132.3986  154.7949 C   0  0  0  0  0  0  0  0  0  0  0  0
  148.1918  131.3413  154.4219 C   0  0  0  0  0  0  0  0  0  0  0  0
  147.3007  131.5175  153.3432 C   0  0  0  0  0  0  0  0  0  0  0  0
  147.2705  132.7501  152.6460 C   0  0  0  0  0  0  0  0  0  0  0  0
  146.3923  132.9863  151.5661 N   0  0  0  0  0  0  0  0  0  0  0  0
  145.4624  134.1012  151.7270 C   0  0  0  0  0  0  0  0  0  0  0  0
  144.8024  134.4464  150.3813 C   0  0  0  0  0  0  0  0  0  0  0  0
  144.1893  133.2842  149.8340 O   0  0  0  0  0  0  0  0  0  0  0  0
  145.1392  132.2570  149.5741 C   0  0  0  0  0  0  0  0  0  0  0  0
  145.8103  131.8287  150.8899 C   0  0  0  0  0  0  0  0  0  0  0  0
  148.1139  133.7344  153.0465 N   0  3  0  0  0  0  0  0  0  0  0  0
  148.9850  133.6061  154.0702 C   0  0  0  0  0  0  0  0  0  0  0  0
  155.4356  132.9087  157.8527 H   0  0  0  0  0  0  0  0  0  0  0  0
  153.7309  132.6445  158.1700 H   0  0  0  0  0  0  0  0  0  0  0  0
  154.2618  133.1906  156.5771 H   0  0  0  0  0  0  0  0  0  0  0  0
  155.5259  130.9924  156.2982 H   0  0  0  0  0  0  0  0  0  0  0  0
  154.9089  130.4555  157.8349 H   0  0  0  0  0  0  0  0  0  0  0  0
  153.6492  128.5827  155.5807 H   0  0  0  0  0  0  0  0  0  0  0  0
  152.8643  129.6803  154.4779 H   0  0  0  0  0  0  0  0  0  0  0  0
  155.1056  129.1644  153.6049 H   0  0  0  0  0  0  0  0  0  0  0  0
  155.8710  129.6036  155.1195 H   0  0  0  0  0  0  0  0  0  0  0  0
  155.1330  130.8470  154.1133 H   0  0  0  0  0  0  0  0  0  0  0  0
  150.6232  130.4131  155.1750 H   0  0  0  0  0  0  0  0  0  0  0  0
  149.4128  132.0344  156.8611 H   0  0  0  0  0  0  0  0  0  0  0  0
  150.5319  133.1829  156.1565 H   0  0  0  0  0  0  0  0  0  0  0  0
  148.2066  130.4062  154.9628 H   0  0  0  0  0  0  0  0  0  0  0  0
  146.6352  130.7094  153.0796 H   0  0  0  0  0  0  0  0  0  0  0  0
  144.6998  133.8203  152.4544 H   0  0  0  0  0  0  0  0  0  0  0  0
  145.9584  134.9901  152.1134 H   0  0  0  0  0  0  0  0  0  0  0  0
  144.0425  135.2149  150.5229 H   0  0  0  0  0  0  0  0  0  0  0  0
  145.5353  134.8494  149.6805 H   0  0  0  0  0  0  0  0  0  0  0  0
  144.6294  131.4079  149.1189 H   0  0  0  0  0  0  0  0  0  0  0  0
  145.8812  132.6060  148.8539 H   0  0  0  0  0  0  0  0  0  0  0  0
  146.5813  131.0882  150.6734 H   0  0  0  0  0  0  0  0  0  0  0  0
  145.0780  131.3572  151.5466 H   0  0  0  0  0  0  0  0  0  0  0  0
  149.5931  134.4729  154.2851 H   0  0  0  0  0  0  0  0  0  0  0  0
  148.0895  134.6233  152.5469 H   0  0  0  0  0  0  0  0  0  0  0  0
  1  2  1  0  0  0  0
  1 23  1  0  0  0  0
  1 24  1  0  0  0  0
  1 25  1  0  0  0  0
  2  3  1  0  0  0  0
  2 26  1  0  0  0  0
  2 27  1  0  0  0  0
  3  4  1  0  0  0  0
  3  6  1  0  0  0  0
  4  5  1  0  0  0  0
  4 28  1  0  0  0  0
  4 29  1  0  0  0  0
  5 30  1  0  0  0  0
  5 31  1  0  0  0  0
  5 32  1  0  0  0  0
  6  7  2  0  0  0  0
  6  8  2  0  0  0  0
  6  9  1  0  0  0  0
  9 10  1  0  0  0  0
  9 33  1  0  0  0  0
 10 11  1  0  0  0  0
 10 34  1  0  0  0  0
 10 35  1  0  0  0  0
 11 22  1  0  0  0  0
 11 12  2  0  0  0  0
 12 13  1  0  0  0  0
 12 36  1  0  0  0  0
 13 14  2  0  0  0  0
 13 37  1  0  0  0  0
 14 15  1  0  0  0  0
 14 21  1  0  0  0  0
 15 20  1  0  0  0  0
 15 16  1  0  0  0  0
 16 17  1  0  0  0  0
 16 38  1  0  0  0  0
 16 39  1  0  0  0  0
 17 18  1  0  0  0  0
 17 40  1  0  0  0  0
 17 41  1  0  0  0  0
 18 19  1  0  0  0  0
 19 20  1  0  0  0  0
 19 42  1  0  0  0  0
 19 43  1  0  0  0  0
 20 44  1  0  0  0  0
 20 45  1  0  0  0  0
 21 22  2  0  0  0  0
 21 47  1  0  0  0  0
 22 46  1  0  0  0  0
M  CHG  1  21   1
M  END
> <s_m_source_file>
AV-unprocessed.smi

> <i_m_source_file_index>
2168

> <i_lp_mmshare_version>
43012

> <i_f3d_flags>
0

> <s_epik_input>
W0NIM11bQ0gyXU4oW0NIMl1bQ0gzXSlTKD1PKSg9TylbTkhdW0NIMl1jMVtjSF1bY0hdYyhuW2NIXTEpTjJbQ0gyXVtDSDJdT1tDSDJdW0NIMl0y

> <s_epik_cmdline>
J2VwaWtfcHl0aG9uJywgJy1waCcsICc3LjAnLCAnLXRuJywgJzgnLCAnLW1hJywgJzIwMCcsICctbWV0YWxfYmluZGluZycsICctaW1hZScsICc8aW5maWxlLm1hZT4nLCAnLW9tYWUnLCAnPG91dGZpbGUubWFlPic=

> <r_lp_tautomer_probability>
0.999994

> <r_epik_Ionization_Penalty>
2.66893

> <r_epik_Ionization_Penalty_Charging>
2.61323

> <r_epik_Ionization_Penalty_Neutral>
0.0557011

> <r_epik_State_Penalty>
2.68492

> <r_epik_Charging_Adjusted_Penalty>
5.29815

> <i_epik_Tot_Q>
1

> <i_epik_Tot_abs_Q>
1

> <r_epik_Metal_State_Penalty>
5.63236

> <b_epik_Metal_Only>
0

> <s_lp_Force_Field>
OPLS_2005

> <r_lp_Energy>
21.5493

> <b_lp_Chiralities_Consistent>
1

> <s_lp_Variant>
AV-unprocessed.smi:2168-2

> <Gold.Version>
5.8.1

> <Gold.Id.Protein>
6NUR|6NUR_protein|mol2

> <Gold.PLP.Fitness>
42.6284

> <Gold.PLP.PLP>
-35.1290

> <Gold.PLP.part.hbond>
-2.0000

> <Gold.PLP.part.metal>
0.0000

> <Gold.PLP.part.buried>
-3.3028

> <Gold.PLP.part.nonpolar>
-30.2057

> <Gold.PLP.part.repulsive>
0.3568

> <Gold.PLP.ligand.clash>
0.0000

> <Gold.PLP.ligand.torsion>
2.0836

> <Gold.PLP.Chemscore.Hbond>
2.9520

> <Gold.PLP.Chemscore.CHOScore>
0.0000

> <Gold.PLP.Chemscore.Metal>
0.0000

> <Gold.Chemscore.Hbonds>
donor molecule, donor type, donor heavy atom, donor atom, acceptor molecule, acceptor atom, score
      L1  H    21    47       P1  7948  2.00
      P1  H  6896  6909       L1     8  1.00

> <Gold.PLP.Chemscore.Internal.Correction>
2.8106

> <Gold.Rescore>
     Score         DG    S(hbond)    S(metal)    S(lipo)     H(rot)  DE(clash)    DE(int)     intcor
     13.08     -14.76       1.75        0.00      72.91       1.99       0.01       1.67       ----

> <Gold.Chemscore.Fitness>
13.0815

> <Gold.Chemscore.DG>
-14.7637

> <Gold.Chemscore.ZeroCoef>
-5.4800

> <Gold.Chemscore.Hbond>
1.7532

> <Gold.Chemscore.Metal>
0.0000

> <Gold.Chemscore.Lipo>
72.9107

> <Gold.Chemscore.Internal_Hbond>
0.0000

> <Gold.Chemscore.DEClash>
0.0095

> <Gold.Chemscore.DEInternal>
1.6728

> <Gold.Chemscore.Rot>
1.9932

> <Gold.Chemscore.Internal.Correction>
   9.000000E+99

> <Gold.Chemscore.Hbonds>
donor molecule, donor type, donor heavy atom, donor atom, acceptor molecule, acceptor atom, score
      L1  H    21    47       P1  7948  0.48
      P1  H  6896  6909       L1     8  0.97

> <Gold.Chemscore.Hbond.Weighted>
-5.8557

> <Gold.Chemscore.Metal.Weighted>
-0.0000

> <Gold.Chemscore.Lipo.Weighted>
-8.5306

> <Gold.Chemscore.Internal_Hbond.Weighted>
0.0000

> <Gold.Chemscore.DEClash.Weighted>
0.0095

> <Gold.Chemscore.DEInternal.Weighted>
1.6728

> <Gold.Chemscore.Rot.Weighted>
5.1025

> <Gold.Chemscore.Internal.Correction.Weighted>
   9.000000E+99

> <Gold.Protein.RotatedTorsions>
[ 6907 6896 6895 6894 ] final  -54.85 input  -60.11 | X-H torsion
[ 7974 7965 7964 7962 ] final  -40.49 input  175.53 | X-H torsion
[ 8008 7997 7996 7995 ] final  -35.68 input   59.86 | X-H torsion
[ 10167 10162 10161 10158 ] final  -43.77 input  -65.29 | X-H torsion
[ 10718 10713 10712 10709 ] final  -39.47 input   66.30 | X-H torsion
[ 10763 10752 10751 10750 ] final   43.22 input  -60.55 | X-H torsion
[ 11005 11000 10999 10996 ] final  -80.06 input  -57.11 | X-H torsion

> <Gold.Protein.ActiveResidues>
 VAL166  LYS551  ARG553  GLY616  TRP617  ASP618  TYR619  PRO620  LYS621  CYS622 
 ASP623  PHE694  ASN695  SER759  ASP760  ASP761  ALA762  ILE779  LEU786  VAL792 
 PHE793  MET794  SER795  GLU796  ALA797  LYS798  CYS799  TRP800  GLU811  SER814 

> <Gold.Protein.RotatedAtoms>
  150.8302  134.7551  159.6846 H   0  0  0  0  0  0  0  0  0  0  0  0  # atno 6907 bound_to 6896
  152.4407  134.5593  159.9899 H   0  0  0  0  0  0  0  0  0  0  0  0  # atno 6908 bound_to 6896
  151.5755  133.3347  159.3034 H   0  0  0  0  0  0  0  0  0  0  0  0  # atno 6909 bound_to 6896
  146.0299  140.6744  142.9137 H   0  0  0  0  0  0  0  0  0  0  0  0  # atno 7974 bound_to 7965
  154.4090  140.1651  156.2250 H   0  0  0  0  0  0  0  0  0  0  0  0  # atno 8008 bound_to 7997
  155.9331  140.3413  155.6242 H   0  0  0  0  0  0  0  0  0  0  0  0  # atno 8009 bound_to 7997
  155.7082  140.0753  157.2373 H   0  0  0  0  0  0  0  0  0  0  0  0  # atno 8010 bound_to 7997
  140.6921  143.2965  151.3400 H   0  0  0  0  0  0  0  0  0  0  0  0  # atno 10167 bound_to 10162
  156.2921  130.4229  149.8228 H   0  0  0  0  0  0  0  0  0  0  0  0  # atno 10718 bound_to 10713
  152.9865  135.6108  154.3075 H   0  0  0  0  0  0  0  0  0  0  0  0  # atno 10763 bound_to 10752
  154.2792  135.2777  155.2706 H   0  0  0  0  0  0  0  0  0  0  0  0  # atno 10764 bound_to 10752
  154.5052  135.5856  153.6619 H   0  0  0  0  0  0  0  0  0  0  0  0  # atno 10765 bound_to 10752
  141.1668  133.7133  156.8216 H   0  0  0  0  0  0  0  0  0  0  0  0  # atno 11005 bound_to 11000
  144.7026  140.3717  143.7144 LP  0  0  0  0  0  0  0  0  0  0  0  0  # atno 17320 bound_to 7965
  145.7057  139.1672  143.2567 LP  0  0  0  0  0  0  0  0  0  0  0  0  # atno 17321 bound_to 7965
  139.6336  144.0673  152.2497 LP  0  0  0  0  0  0  0  0  0  0  0  0  # atno 17342 bound_to 10162
  140.0156  144.6191  150.7610 LP  0  0  0  0  0  0  0  0  0  0  0  0  # atno 17343 bound_to 10162
  156.5637  130.8395  151.3336 LP  0  0  0  0  0  0  0  0  0  0  0  0  # atno 17370 bound_to 10713
  157.7345  130.9747  150.2033 LP  0  0  0  0  0  0  0  0  0  0  0  0  # atno 17371 bound_to 10713
  140.2115  134.8824  157.3279 LP  0  0  0  0  0  0  0  0  0  0  0  0  # atno 17394 bound_to 11000
  140.2082  134.4171  155.7626 LP  0  0  0  0  0  0  0  0  0  0  0  0  # atno 17395 bound_to 11000

$$$$
