AV-unprocessed.smi:688|AV-procd|sdf|3356|dock3
  -GOLD-   22720 0333D 1   1.00000     0.00000
 Structure written by MMmdl.
 35 36  0  0  0  0  0  0  0  0  2 V2000
  152.3176  137.0021  159.4598 O   0  0  0  0  0  0  0  0  0  0  0  0
  151.9373  137.4782  158.3910 C   0  0  0  0  0  0  0  0  0  0  0  0
  152.8014  137.9651  157.4527 N   0  5  0  0  0  0  0  0  0  0  0  0
  152.3976  138.4920  156.2556 C   0  0  0  0  0  0  0  0  0  0  0  0
  153.1956  138.9328  155.4277 O   0  0  0  0  0  0  0  0  0  0  0  0
  151.0620  138.5307  155.9708 N   0  0  0  0  0  0  0  0  0  0  0  0
  150.5384  139.0733  154.7090 C   0  0  0  0  0  0  0  0  0  0  0  0
  149.4554  140.1487  154.9479 C   0  0  2  0  0  0  0  0  0  0  0  0
  148.7220  140.2958  153.7474 O   0  0  0  0  0  0  0  0  0  0  0  0
  150.0705  141.5198  155.2755 C   0  0  0  0  0  0  0  0  0  0  0  0
  150.6505  141.4687  156.5689 O   0  0  0  0  0  0  0  0  0  0  0  0
  151.1049  142.7325  157.0242 C   0  0  0  0  0  0  0  0  0  0  0  0
  151.7989  142.6268  158.3686 C   0  0  0  0  0  0  0  0  0  0  0  0
  152.2047  141.3667  158.8570 C   0  0  0  0  0  0  0  0  0  0  0  0
  152.8368  141.2627  160.1115 C   0  0  0  0  0  0  0  0  0  0  0  0
  153.0616  142.4181  160.8851 C   0  0  0  0  0  0  0  0  0  0  0  0
  153.8374  142.2913  162.4210 Cl  0  0  0  0  0  0  0  0  0  0  0  0
  152.6504  143.6769  160.4045 C   0  0  0  0  0  0  0  0  0  0  0  0
  152.0175  143.7809  159.1504 C   0  0  0  0  0  0  0  0  0  0  0  0
  150.1302  138.0534  156.9074 C   0  0  0  0  0  0  0  0  0  0  0  0
  150.5080  137.5355  158.0923 C   0  0  0  0  0  0  0  0  0  0  0  0
  149.3390  136.9582  159.2262 Cl  0  0  0  0  0  0  0  0  0  0  0  0
  151.3701  139.5004  154.1461 H   0  0  0  0  0  0  0  0  0  0  0  0
  150.1584  138.2775  154.0660 H   0  0  0  0  0  0  0  0  0  0  0  0
  148.7899  139.8478  155.7583 H   0  0  0  0  0  0  0  0  0  0  0  0
  149.3046  140.1404  153.0201 H   0  0  0  0  0  0  0  0  0  0  0  0
  150.8609  141.7492  154.5591 H   0  0  0  0  0  0  0  0  0  0  0  0
  149.3280  142.3168  155.2036 H   0  0  0  0  0  0  0  0  0  0  0  0
  151.7880  143.1627  156.2897 H   0  0  0  0  0  0  0  0  0  0  0  0
  150.2629  143.4188  157.1264 H   0  0  0  0  0  0  0  0  0  0  0  0
  152.0335  140.4765  158.2696 H   0  0  0  0  0  0  0  0  0  0  0  0
  153.1479  140.2956  160.4785 H   0  0  0  0  0  0  0  0  0  0  0  0
  152.8192  144.5641  160.9969 H   0  0  0  0  0  0  0  0  0  0  0  0
  151.7035  144.7498  158.7906 H   0  0  0  0  0  0  0  0  0  0  0  0
  149.0961  138.1387  156.6065 H   0  0  0  0  0  0  0  0  0  0  0  0
  1  2  2  0  0  0  0
  2 21  1  0  0  0  0
  2  3  1  0  0  0  0
  3  4  1  0  0  0  0
  4  5  2  0  0  0  0
  4  6  1  0  0  0  0
  6  7  1  0  0  0  0
  6 20  1  0  0  0  0
  7  8  1  0  0  0  0
  7 23  1  0  0  0  0
  7 24  1  0  0  0  0
  8  9  1  0  0  0  0
  8 10  1  0  0  0  0
  8 25  1  0  0  0  0
  9 26  1  0  0  0  0
 10 11  1  0  0  0  0
 10 27  1  0  0  0  0
 10 28  1  0  0  0  0
 11 12  1  0  0  0  0
 12 13  1  0  0  0  0
 12 29  1  0  0  0  0
 12 30  1  0  0  0  0
 13 19  1  0  0  0  0
 13 14  2  0  0  0  0
 14 15  1  0  0  0  0
 14 31  1  0  0  0  0
 15 16  2  0  0  0  0
 15 32  1  0  0  0  0
 16 17  1  0  0  0  0
 16 18  1  0  0  0  0
 18 19  2  0  0  0  0
 18 33  1  0  0  0  0
 19 34  1  0  0  0  0
 20 21  2  0  0  0  0
 20 35  1  0  0  0  0
 21 22  1  0  0  0  0
M  CHG  1   3  -1
M  END
> <s_m_source_file>
AV-unprocessed.smi

> <i_m_source_file_index>
688

> <i_lp_mmshare_version>
43012

> <i_f3d_flags>
0

> <s_epik_input>
Tz1jMVtuSF1jKD1PKW4oW2NIXWMxQ2wpW0NIMl1bQ0BIXShbT0hdKVtDSDJdT1tDSDJdYzJbY0hdW2NIXWMoQ2wpW2NIXVtjSF0y

> <s_epik_cmdline>
J2VwaWtfcHl0aG9uJywgJy1waCcsICc3LjAnLCAnLXRuJywgJzgnLCAnLW1hJywgJzIwMCcsICctbWV0YWxfYmluZGluZycsICctaW1hZScsICc8aW5maWxlLm1hZT4nLCAnLW9tYWUnLCAnPG91dGZpbGUubWFlPic=

> <r_epik_Ionization_Penalty>
1.82111

> <r_epik_Ionization_Penalty_Charging>
5.03334e-08

> <r_epik_Ionization_Penalty_Neutral>
1.82111

> <r_epik_State_Penalty>
1.93633

> <r_epik_Charging_Adjusted_Penalty>
1.93633

> <i_epik_Tot_Q>
-1

> <i_epik_Tot_abs_Q>
1

> <r_epik_Metal_State_Penalty>
0.0147818

> <b_epik_Metal_Only>
0

> <s_lp_Force_Field>
OPLS_2005

> <r_lp_Energy>
25.7398

> <b_lp_Chiralities_Consistent>
1

> <s_lp_Variant>
AV-unprocessed.smi:688-3

> <Gold.Version>
5.8.1

> <Gold.Id.Protein>
6NUR|6NUR_protein|mol2

> <Gold.PLP.Fitness>
51.7949

> <Gold.PLP.PLP>
-43.6255

> <Gold.PLP.part.hbond>
-3.0000

> <Gold.PLP.part.metal>
0.0000

> <Gold.PLP.part.buried>
-5.6776

> <Gold.PLP.part.nonpolar>
-34.2271

> <Gold.PLP.part.repulsive>
0.0634

> <Gold.PLP.ligand.clash>
0.0000

> <Gold.PLP.ligand.torsion>
0.4985

> <Gold.PLP.Chemscore.Hbond>
2.9833

> <Gold.PLP.Chemscore.CHOScore>
0.0000

> <Gold.PLP.Chemscore.Metal>
0.0000

> <Gold.Chemscore.Hbonds>
donor molecule, donor type, donor heavy atom, donor atom, acceptor molecule, acceptor atom, score
      L1  H     9    26       P1  7957  1.00
      P1  H  6896  6908       L1     1  1.00
      P1  H  7997  8008       L1     5  1.00

> <Gold.PLP.Chemscore.Internal.Correction>
0.2166

> <Gold.Rescore>
     Score         DG    S(hbond)    S(metal)    S(lipo)     H(rot)  DE(clash)    DE(int)     intcor
     20.22     -20.74       2.87        0.00     110.91       2.85       0.00       0.52       ----

> <Gold.Chemscore.Fitness>
20.2177

> <Gold.Chemscore.DG>
-20.7358

> <Gold.Chemscore.ZeroCoef>
-5.4800

> <Gold.Chemscore.Hbond>
2.8701

> <Gold.Chemscore.Metal>
0.0000

> <Gold.Chemscore.Lipo>
110.9079

> <Gold.Chemscore.Internal_Hbond>
0.0000

> <Gold.Chemscore.DEClash>
0.0000

> <Gold.Chemscore.DEInternal>
0.5181

> <Gold.Chemscore.Rot>
2.8542

> <Gold.Chemscore.Internal.Correction>
   9.000000E+99

> <Gold.Chemscore.Hbonds>
donor molecule, donor type, donor heavy atom, donor atom, acceptor molecule, acceptor atom, score
      L1  H     9    26       P1  7957  0.94
      P1  H  6896  6908       L1     1  0.90
      P1  H  7997  8008       L1     5  0.80

> <Gold.Chemscore.Hbond.Weighted>
-9.5862

> <Gold.Chemscore.Metal.Weighted>
-0.0000

> <Gold.Chemscore.Lipo.Weighted>
-12.9762

> <Gold.Chemscore.Internal_Hbond.Weighted>
0.0000

> <Gold.Chemscore.DEClash.Weighted>
0.0000

> <Gold.Chemscore.DEInternal.Weighted>
0.5181

> <Gold.Chemscore.Rot.Weighted>
7.3067

> <Gold.Chemscore.Internal.Correction.Weighted>
   9.000000E+99

> <Gold.Protein.RotatedTorsions>
[ 6907 6896 6895 6894 ] final -115.55 input  -60.11 | X-H torsion
[ 7974 7965 7964 7962 ] final -144.15 input  175.53 | X-H torsion
[ 8008 7997 7996 7995 ] final  -34.37 input   59.86 | X-H torsion
[ 10167 10162 10161 10158 ] final  159.48 input  -65.29 | X-H torsion
[ 10718 10713 10712 10709 ] final  168.97 input   66.30 | X-H torsion
[ 10763 10752 10751 10750 ] final  146.95 input  -60.55 | X-H torsion
[ 11005 11000 10999 10996 ] final   18.65 input  -57.11 | X-H torsion

> <Gold.Protein.ActiveResidues>
 VAL166  LYS551  ARG553  GLY616  TRP617  ASP618  TYR619  PRO620  LYS621  CYS622 
 ASP623  PHE694  ASN695  SER759  ASP760  ASP761  ALA762  ILE779  LEU786  VAL792 
 PHE793  MET794  SER795  GLU796  ALA797  LYS798  CYS799  TRP800  GLU811  SER814 

> <Gold.Protein.RotatedAtoms>
  150.7987  133.8642  159.3240 H   0  0  0  0  0  0  0  0  0  0  0  0  # atno 6907 bound_to 6896
  151.6460  135.1005  160.0160 H   0  0  0  0  0  0  0  0  0  0  0  0  # atno 6908 bound_to 6896
  152.4072  133.6867  159.6401 H   0  0  0  0  0  0  0  0  0  0  0  0  # atno 6909 bound_to 6896
  144.8318  140.5746  143.5510 H   0  0  0  0  0  0  0  0  0  0  0  0  # atno 7974 bound_to 7965
  154.4123  140.1686  156.2038 H   0  0  0  0  0  0  0  0  0  0  0  0  # atno 8008 bound_to 7997
  155.9502  140.3401  155.6378 H   0  0  0  0  0  0  0  0  0  0  0  0  # atno 8009 bound_to 7997
  155.6880  140.0730  157.2450 H   0  0  0  0  0  0  0  0  0  0  0  0  # atno 8010 bound_to 7997
  139.4833  144.4726  151.8556 H   0  0  0  0  0  0  0  0  0  0  0  0  # atno 10167 bound_to 10162
  157.0295  131.0255  151.2749 H   0  0  0  0  0  0  0  0  0  0  0  0  # atno 10718 bound_to 10713
  154.0303  135.2898  155.3369 H   0  0  0  0  0  0  0  0  0  0  0  0  # atno 10763 bound_to 10752
  154.6992  135.5195  153.8505 H   0  0  0  0  0  0  0  0  0  0  0  0  # atno 10764 bound_to 10752
  153.0643  135.6625  154.0516 H   0  0  0  0  0  0  0  0  0  0  0  0  # atno 10765 bound_to 10752
  140.4225  134.1504  155.7674 H   0  0  0  0  0  0  0  0  0  0  0  0  # atno 11005 bound_to 11000
  145.4879  139.1490  143.3726 LP  0  0  0  0  0  0  0  0  0  0  0  0  # atno 17320 bound_to 7965
  146.2620  140.5017  142.8849 LP  0  0  0  0  0  0  0  0  0  0  0  0  # atno 17321 bound_to 7965
  140.4196  144.2261  150.5887 LP  0  0  0  0  0  0  0  0  0  0  0  0  # atno 17342 bound_to 10162
  140.4887  143.2354  151.8850 LP  0  0  0  0  0  0  0  0  0  0  0  0  # atno 17343 bound_to 10162
  157.5189  130.7985  149.7786 LP  0  0  0  0  0  0  0  0  0  0  0  0  # atno 17370 bound_to 10713
  156.0074  130.3849  150.2381 LP  0  0  0  0  0  0  0  0  0  0  0  0  # atno 17371 bound_to 10713
  141.1778  133.8477  157.1361 LP  0  0  0  0  0  0  0  0  0  0  0  0  # atno 17394 bound_to 11000
  140.0190  134.9954  157.0553 LP  0  0  0  0  0  0  0  0  0  0  0  0  # atno 17395 bound_to 11000

$$$$
