AV-unprocessed.smi:1209|AV-procd|sdf|5072|dock7
  -GOLD-   22720 4113D 1   1.00000     0.00000
 Structure written by MMmdl.
 49 51  0  0  0  0  0  0  0  0  2 V2000
  147.1664  133.8598  162.1521 C   0  0  0  0  0  0  0  0  0  0  0  0
  147.7985  135.0538  161.5229 C   0  0  0  0  0  0  0  0  0  0  0  0
  148.5432  135.2254  160.3912 C   0  0  0  0  0  0  0  0  0  0  0  0
  148.8205  136.6205  160.3795 C   0  0  0  0  0  0  0  0  0  0  0  0
  149.6051  137.4120  159.3672 C   0  0  0  0  0  0  0  0  0  0  0  0
  148.8876  137.6152  158.1029 N   0  0  0  0  0  0  0  0  0  0  0  0
  147.4788  137.9095  158.3515 C   0  0  0  0  0  0  0  0  0  0  0  0
  149.4848  138.6864  157.3036 C   0  0  0  0  0  0  0  0  0  0  0  0
  150.7469  138.2894  156.5040 C   0  0  1  0  0  0  0  0  0  0  0  0
  150.3710  138.0781  155.1602 O   0  0  0  0  0  0  0  0  0  0  0  0
  151.8429  139.3739  156.5173 C   0  0  0  0  0  0  0  0  0  0  0  0
  151.2976  140.7361  156.5783 N   0  0  0  0  0  0  0  0  0  0  0  0
  150.4164  141.3666  155.7548 C   0  0  0  0  0  0  0  0  0  0  0  0
  150.2204  142.6211  156.2473 N   0  3  0  0  0  0  0  0  0  0  0  0
  150.9944  142.7967  157.3967 C   0  0  0  0  0  0  0  0  0  0  0  0
  151.1331  143.8895  158.2443 C   0  0  0  0  0  0  0  0  0  0  0  0
  152.0144  143.7477  159.3401 C   0  0  0  0  0  0  0  0  0  0  0  0
  152.1897  144.9231  160.2865 C   0  0  0  0  0  0  0  0  0  0  0  0
  152.7229  142.5372  159.5562 C   0  0  0  0  0  0  0  0  0  0  0  0
  153.6676  142.3959  160.7377 C   0  0  0  0  0  0  0  0  0  0  0  0
  152.5679  141.4374  158.6824 C   0  0  0  0  0  0  0  0  0  0  0  0
  151.6933  141.5930  157.6102 C   0  0  0  0  0  0  0  0  0  0  0  0
  148.2885  137.2348  161.4232 N   0  0  0  0  0  0  0  0  0  0  0  0
  147.6317  136.2419  162.1589 O   0  0  0  0  0  0  0  0  0  0  0  0
  147.6225  132.9399  161.7856 H   0  0  0  0  0  0  0  0  0  0  0  0
  146.1008  133.8236  161.9251 H   0  0  0  0  0  0  0  0  0  0  0  0
  147.2816  133.8846  163.2359 H   0  0  0  0  0  0  0  0  0  0  0  0
  148.8404  134.4716  159.6778 H   0  0  0  0  0  0  0  0  0  0  0  0
  149.8907  138.3794  159.7841 H   0  0  0  0  0  0  0  0  0  0  0  0
  150.5413  136.8863  159.1915 H   0  0  0  0  0  0  0  0  0  0  0  0
  146.9386  138.0404  157.4133 H   0  0  0  0  0  0  0  0  0  0  0  0
  147.3641  138.8221  158.9381 H   0  0  0  0  0  0  0  0  0  0  0  0
  146.9916  137.0964  158.8901 H   0  0  0  0  0  0  0  0  0  0  0  0
  148.7504  139.0760  156.5965 H   0  0  0  0  0  0  0  0  0  0  0  0
  149.7102  139.5205  157.9683 H   0  0  0  0  0  0  0  0  0  0  0  0
  151.1742  137.3588  156.8716 H   0  0  0  0  0  0  0  0  0  0  0  0
  151.1034  137.6932  154.7028 H   0  0  0  0  0  0  0  0  0  0  0  0
  152.5177  139.2402  157.3642 H   0  0  0  0  0  0  0  0  0  0  0  0
  152.4553  139.3060  155.6169 H   0  0  0  0  0  0  0  0  0  0  0  0
  149.9497  140.9449  154.8761 H   0  0  0  0  0  0  0  0  0  0  0  0
  150.5915  144.8084  158.0737 H   0  0  0  0  0  0  0  0  0  0  0  0
  151.8764  144.6522  161.2950 H   0  0  0  0  0  0  0  0  0  0  0  0
  151.5949  145.7813  159.9720 H   0  0  0  0  0  0  0  0  0  0  0  0
  153.2334  145.2362  160.3192 H   0  0  0  0  0  0  0  0  0  0  0  0
  154.1201  141.4043  160.7712 H   0  0  0  0  0  0  0  0  0  0  0  0
  153.1338  142.5492  161.6756 H   0  0  0  0  0  0  0  0  0  0  0  0
  154.4735  143.1274  160.6733 H   0  0  0  0  0  0  0  0  0  0  0  0
  153.1078  140.5159  158.8449 H   0  0  0  0  0  0  0  0  0  0  0  0
  149.6040  143.3052  155.8275 H   0  0  0  0  0  0  0  0  0  0  0  0
  1  2  1  0  0  0  0
  1 25  1  0  0  0  0
  1 26  1  0  0  0  0
  1 27  1  0  0  0  0
  2 24  1  0  0  0  0
  2  3  2  0  0  0  0
  3  4  1  0  0  0  0
  3 28  1  0  0  0  0
  4  5  1  0  0  0  0
  4 23  2  0  0  0  0
  5  6  1  0  0  0  0
  5 29  1  0  0  0  0
  5 30  1  0  0  0  0
  6  7  1  0  0  0  0
  6  8  1  0  0  0  0
  7 31  1  0  0  0  0
  7 32  1  0  0  0  0
  7 33  1  0  0  0  0
  8  9  1  0  0  0  0
  8 34  1  0  0  0  0
  8 35  1  0  0  0  0
  9 10  1  0  0  0  0
  9 11  1  0  0  0  0
  9 36  1  0  0  0  0
 10 37  1  0  0  0  0
 11 12  1  0  0  0  0
 11 38  1  0  0  0  0
 11 39  1  0  0  0  0
 12 22  1  0  0  0  0
 12 13  1  0  0  0  0
 13 14  2  0  0  0  0
 13 40  1  0  0  0  0
 14 15  1  0  0  0  0
 14 49  1  0  0  0  0
 15 22  2  0  0  0  0
 15 16  1  0  0  0  0
 16 17  2  0  0  0  0
 16 41  1  0  0  0  0
 17 18  1  0  0  0  0
 17 19  1  0  0  0  0
 18 42  1  0  0  0  0
 18 43  1  0  0  0  0
 18 44  1  0  0  0  0
 19 20  1  0  0  0  0
 19 21  2  0  0  0  0
 20 45  1  0  0  0  0
 20 46  1  0  0  0  0
 20 47  1  0  0  0  0
 21 22  1  0  0  0  0
 21 48  1  0  0  0  0
 23 24  1  0  0  0  0
M  CHG  1  14   1
M  END
> <s_m_source_file>
AV-unprocessed.smi

> <i_m_source_file_index>
1209

> <i_lp_mmshare_version>
43012

> <i_f3d_flags>
0

> <s_epik_input>
W0NIM11jMVtjSF1jKG5vMSlbQ0gyXU4oW0NIM10pW0NIMl1bQ0BIXShbT0hdKVtDSDJdbihbY0hdbjIpYyhjMjMpW2NIXWMoW0NIM10pYyhbY0hdMylbQ0gzXQ==

> <s_epik_cmdline>
J2VwaWtfcHl0aG9uJywgJy1waCcsICc3LjAnLCAnLXRuJywgJzgnLCAnLW1hJywgJzIwMCcsICctbWV0YWxfYmluZGluZycsICctaW1hZScsICc8aW5maWxlLm1hZT4nLCAnLW9tYWUnLCAnPG91dGZpbGUubWFlPic=

> <r_epik_Ionization_Penalty>
1.23608

> <r_epik_Ionization_Penalty_Charging>
1.21624

> <r_epik_Ionization_Penalty_Neutral>
0.0198409

> <r_epik_State_Penalty>
1.27749

> <r_epik_Charging_Adjusted_Penalty>
2.49372

> <i_epik_Tot_Q>
1

> <i_epik_Tot_abs_Q>
1

> <r_epik_Metal_State_Penalty>
1.34809

> <b_epik_Metal_Only>
0

> <s_lp_Force_Field>
OPLS_2005

> <r_lp_Energy>
23.0789

> <b_lp_Chiralities_Consistent>
1

> <s_lp_Variant>
AV-unprocessed.smi:1209-4

> <Gold.Version>
5.8.1

> <Gold.Id.Protein>
6NUR|6NUR_protein|mol2

> <Gold.PLP.Fitness>
55.0193

> <Gold.PLP.PLP>
-46.6270

> <Gold.PLP.part.hbond>
-3.0000

> <Gold.PLP.part.metal>
0.0000

> <Gold.PLP.part.buried>
-5.8954

> <Gold.PLP.part.nonpolar>
-37.7603

> <Gold.PLP.part.repulsive>
0.1122

> <Gold.PLP.ligand.clash>
0.0000

> <Gold.PLP.ligand.torsion>
1.4534

> <Gold.PLP.Chemscore.Hbond>
3.7360

> <Gold.PLP.Chemscore.CHOScore>
0.0000

> <Gold.PLP.Chemscore.Metal>
0.0000

> <Gold.Chemscore.Hbonds>
donor molecule, donor type, donor heavy atom, donor atom, acceptor molecule, acceptor atom, score
      L1  H    14    49       P1  8028  2.00
      P1  H  6931  6943       L1    23  0.54
      P1  H  6934  6947       L1    23  0.38

> <Gold.PLP.Chemscore.Internal.Correction>
0.0910

> <Gold.Rescore>
     Score         DG    S(hbond)    S(metal)    S(lipo)     H(rot)  DE(clash)    DE(int)     intcor
     20.07     -21.70       2.48        0.00     123.19       2.53       0.20       1.43       ----

> <Gold.Chemscore.Fitness>
20.0700

> <Gold.Chemscore.DG>
-21.6998

> <Gold.Chemscore.ZeroCoef>
-5.4800

> <Gold.Chemscore.Hbond>
2.4772

> <Gold.Chemscore.Metal>
0.0000

> <Gold.Chemscore.Lipo>
123.1935

> <Gold.Chemscore.Internal_Hbond>
0.0000

> <Gold.Chemscore.DEClash>
0.2014

> <Gold.Chemscore.DEInternal>
1.4283

> <Gold.Chemscore.Rot>
2.5265

> <Gold.Chemscore.Internal.Correction>
   9.000000E+99

> <Gold.Chemscore.Hbonds>
donor molecule, donor type, donor heavy atom, donor atom, acceptor molecule, acceptor atom, score
      L1  H    14    49       P1  8028  0.97
      P1  H  6931  6943       L1    23  0.47
      P1  H  6934  6947       L1    23  0.32

> <Gold.Chemscore.Hbond.Weighted>
-8.2739

> <Gold.Chemscore.Metal.Weighted>
-0.0000

> <Gold.Chemscore.Lipo.Weighted>
-14.4136

> <Gold.Chemscore.Internal_Hbond.Weighted>
0.0000

> <Gold.Chemscore.DEClash.Weighted>
0.2014

> <Gold.Chemscore.DEInternal.Weighted>
1.4283

> <Gold.Chemscore.Rot.Weighted>
6.4677

> <Gold.Chemscore.Internal.Correction.Weighted>
   9.000000E+99

> <Gold.Protein.RotatedTorsions>
[ 6907 6896 6895 6894 ] final  -33.00 input  -60.11 | X-H torsion
[ 7974 7965 7964 7962 ] final   -5.12 input  175.53 | X-H torsion
[ 8008 7997 7996 7995 ] final -101.54 input   59.86 | X-H torsion
[ 10167 10162 10161 10158 ] final    9.31 input  -65.29 | X-H torsion
[ 10718 10713 10712 10709 ] final  115.78 input   66.30 | X-H torsion
[ 10763 10752 10751 10750 ] final  -26.95 input  -60.55 | X-H torsion
[ 11005 11000 10999 10996 ] final  158.71 input  -57.11 | X-H torsion

> <Gold.Protein.ActiveResidues>
 VAL166  LYS551  ARG553  GLY616  TRP617  ASP618  TYR619  PRO620  LYS621  CYS622 
 ASP623  PHE694  ASN695  SER759  ASP760  ASP761  ALA762  ILE779  LEU786  VAL792 
 PHE793  MET794  SER795  GLU796  ALA797  LYS798  CYS799  TRP800  GLU811  SER814 

> <Gold.Protein.RotatedAtoms>
  151.0714  134.9800  159.8309 H   0  0  0  0  0  0  0  0  0  0  0  0  # atno 6907 bound_to 6896
  152.5409  134.2295  159.8829 H   0  0  0  0  0  0  0  0  0  0  0  0  # atno 6908 bound_to 6896
  151.2320  133.4402  159.2637 H   0  0  0  0  0  0  0  0  0  0  0  0  # atno 6909 bound_to 6896
  146.2359  140.1973  142.8333 H   0  0  0  0  0  0  0  0  0  0  0  0  # atno 7974 bound_to 7965
  154.8440  140.0434  157.1560 H   0  0  0  0  0  0  0  0  0  0  0  0  # atno 8008 bound_to 7997
  154.9016  140.3001  155.5294 H   0  0  0  0  0  0  0  0  0  0  0  0  # atno 8009 bound_to 7997
  156.2993  140.2375  156.4044 H   0  0  0  0  0  0  0  0  0  0  0  0  # atno 8010 bound_to 7997
  140.6263  143.8094  150.7237 H   0  0  0  0  0  0  0  0  0  0  0  0  # atno 10167 bound_to 10162
  157.6201  131.1017  150.7379 H   0  0  0  0  0  0  0  0  0  0  0  0  # atno 10718 bound_to 10713
  153.7243  135.6943  153.5005 H   0  0  0  0  0  0  0  0  0  0  0  0  # atno 10763 bound_to 10752
  153.2181  135.4379  155.0457 H   0  0  0  0  0  0  0  0  0  0  0  0  # atno 10764 bound_to 10752
  154.8274  135.3454  154.6775 H   0  0  0  0  0  0  0  0  0  0  0  0  # atno 10765 bound_to 10752
  140.1892  134.8420  157.2892 H   0  0  0  0  0  0  0  0  0  0  0  0  # atno 11005 bound_to 11000
  144.9810  140.8459  143.5397 LP  0  0  0  0  0  0  0  0  0  0  0  0  # atno 17320 bound_to 7965
  145.1966  139.2273  143.5215 LP  0  0  0  0  0  0  0  0  0  0  0  0  # atno 17321 bound_to 7965
  140.1696  143.4206  152.2010 LP  0  0  0  0  0  0  0  0  0  0  0  0  # atno 17342 bound_to 10162
  139.5483  144.7316  151.4515 LP  0  0  0  0  0  0  0  0  0  0  0  0  # atno 17343 bound_to 10162
  156.7738  130.4837  149.5413 LP  0  0  0  0  0  0  0  0  0  0  0  0  # atno 17370 bound_to 10713
  156.1342  130.6199  151.0376 LP  0  0  0  0  0  0  0  0  0  0  0  0  # atno 17371 bound_to 10713
  140.2179  134.4059  155.7580 LP  0  0  0  0  0  0  0  0  0  0  0  0  # atno 17394 bound_to 11000
  141.2226  133.7151  156.8443 LP  0  0  0  0  0  0  0  0  0  0  0  0  # atno 17395 bound_to 11000

$$$$
