AV-unprocessed.smi:26|AV-procd|sdf|183|dock10
  -GOLD-   2262015443D 1   1.00000     0.00000
 Structure written by MMmdl.
 58 61  0  0  0  0  0  0  0  0  1 V2000
  152.5790  142.2214  160.5520 C   0  0  0  0  0  0  0  0  0  0  0  0
  152.1739  141.7735  159.1837 C   0  0  0  0  0  0  0  0  0  0  0  0
  152.4013  140.5736  158.5800 C   0  0  0  0  0  0  0  0  0  0  0  0
  151.8256  140.6026  157.2818 C   0  0  0  0  0  0  0  0  0  0  0  0
  151.8317  139.5297  156.2535 C   0  0  0  0  0  0  0  0  0  0  0  0
  152.8636  139.0373  155.7948 O   0  0  0  0  0  0  0  0  0  0  0  0
  150.4460  139.0452  155.7866 C   0  0  0  0  0  0  0  0  0  0  0  0
  150.0880  137.7333  156.3128 N   0  0  0  0  0  0  0  0  0  0  0  0
  149.0163  137.6622  157.2376 C   0  0  0  0  0  0  0  0  0  0  0  0
  148.3915  138.6622  157.5957 O   0  0  0  0  0  0  0  0  0  0  0  0
  148.7127  136.3162  157.7089 C   0  0  0  0  0  0  0  0  0  0  0  0
  147.7095  136.1281  158.5830 F   0  0  0  0  0  0  0  0  0  0  0  0
  149.4216  135.2505  157.2788 C   0  0  0  0  0  0  0  0  0  0  0  0
  150.4720  135.3473  156.3840 N   0  0  0  0  0  0  0  0  0  0  0  0
  151.1602  134.0792  155.9268 C   0  0  2  0  0  0  0  0  0  0  0  0
  150.3056  133.2101  154.9916 C   0  0  0  0  0  0  0  0  0  0  0  0
  150.7355  131.8204  155.4090 C   0  0  0  0  0  0  0  0  0  0  0  0
  150.9663  131.9956  156.9061 C   0  0  0  0  0  0  0  0  0  0  0  0
  151.4968  133.3110  157.0459 O   0  0  0  0  0  0  0  0  0  0  0  0
  150.8152  136.6107  155.8466 C   0  0  0  0  0  0  0  0  0  0  0  0
  151.7017  136.7266  154.9988 O   0  0  0  0  0  0  0  0  0  0  0  0
  151.2370  141.8367  157.1202 C   0  0  0  0  0  0  0  0  0  0  0  0
  150.4774  142.3853  155.9430 C   0  0  0  0  0  0  0  0  0  0  0  0
  151.4720  142.5776  158.2881 N   0  0  0  0  0  0  0  0  0  0  0  0
  151.0518  143.9589  158.5719 C   0  0  2  0  0  0  0  0  0  0  0  0
  152.2347  144.8137  159.0691 C   0  0  0  0  0  0  0  0  0  0  0  0
  149.7699  144.0183  159.4084 C   0  0  0  0  0  0  0  0  0  0  0  0
  148.6571  143.2436  159.0092 C   0  0  0  0  0  0  0  0  0  0  0  0
  147.4572  143.2772  159.7452 C   0  0  0  0  0  0  0  0  0  0  0  0
  147.3551  144.0922  160.8875 C   0  0  0  0  0  0  0  0  0  0  0  0
  148.4540  144.8736  161.2908 C   0  0  0  0  0  0  0  0  0  0  0  0
  149.6544  144.8404  160.5546 C   0  0  0  0  0  0  0  0  0  0  0  0
  153.0404  141.4040  161.1064 H   0  0  0  0  0  0  0  0  0  0  0  0
  151.7169  142.5632  161.1248 H   0  0  0  0  0  0  0  0  0  0  0  0
  153.3035  143.0340  160.4975 H   0  0  0  0  0  0  0  0  0  0  0  0
  152.9359  139.7521  159.0337 H   0  0  0  0  0  0  0  0  0  0  0  0
  149.6675  139.7506  156.0815 H   0  0  0  0  0  0  0  0  0  0  0  0
  150.3940  138.9984  154.6979 H   0  0  0  0  0  0  0  0  0  0  0  0
  149.1477  134.2773  157.6596 H   0  0  0  0  0  0  0  0  0  0  0  0
  152.0870  134.3954  155.4465 H   0  0  0  0  0  0  0  0  0  0  0  0
  149.2407  133.3513  155.1703 H   0  0  0  0  0  0  0  0  0  0  0  0
  150.5171  133.4361  153.9465 H   0  0  0  0  0  0  0  0  0  0  0  0
  149.9950  131.0545  155.1775 H   0  0  0  0  0  0  0  0  0  0  0  0
  151.6707  131.5539  154.9150 H   0  0  0  0  0  0  0  0  0  0  0  0
  150.0239  131.9247  157.4496 H   0  0  0  0  0  0  0  0  0  0  0  0
  151.6463  131.2481  157.3150 H   0  0  0  0  0  0  0  0  0  0  0  0
  151.1562  142.6051  155.1191 H   0  0  0  0  0  0  0  0  0  0  0  0
  149.9269  143.2931  156.1667 H   0  0  0  0  0  0  0  0  0  0  0  0
  149.7403  141.6652  155.5886 H   0  0  0  0  0  0  0  0  0  0  0  0
  150.7463  144.4169  157.6330 H   0  0  0  0  0  0  0  0  0  0  0  0
  151.9570  145.8658  159.1385 H   0  0  0  0  0  0  0  0  0  0  0  0
  153.0724  144.7497  158.3739 H   0  0  0  0  0  0  0  0  0  0  0  0
  152.6022  144.5010  160.0453 H   0  0  0  0  0  0  0  0  0  0  0  0
  148.7228  142.6162  158.1322 H   0  0  0  0  0  0  0  0  0  0  0  0
  146.6151  142.6778  159.4318 H   0  0  0  0  0  0  0  0  0  0  0  0
  146.4351  144.1191  161.4527 H   0  0  0  0  0  0  0  0  0  0  0  0
  148.3763  145.5014  162.1662 H   0  0  0  0  0  0  0  0  0  0  0  0
  150.4791  145.4506  160.8893 H   0  0  0  0  0  0  0  0  0  0  0  0
  1  2  1  0  0  0  0
  1 33  1  0  0  0  0
  1 34  1  0  0  0  0
  1 35  1  0  0  0  0
  2 24  1  0  0  0  0
  2  3  2  0  0  0  0
  3  4  1  0  0  0  0
  3 36  1  0  0  0  0
  4  5  1  0  0  0  0
  4 22  2  0  0  0  0
  5  6  2  0  0  0  0
  5  7  1  0  0  0  0
  7  8  1  0  0  0  0
  7 37  1  0  0  0  0
  7 38  1  0  0  0  0
  8 20  1  0  0  0  0
  8  9  1  0  0  0  0
  9 10  2  0  0  0  0
  9 11  1  0  0  0  0
 11 12  1  0  0  0  0
 11 13  2  0  0  0  0
 13 14  1  0  0  0  0
 13 39  1  0  0  0  0
 14 15  1  0  0  0  0
 14 20  1  0  0  0  0
 15 19  1  0  0  0  0
 15 16  1  0  0  0  0
 15 40  1  0  0  0  0
 16 17  1  0  0  0  0
 16 41  1  0  0  0  0
 16 42  1  0  0  0  0
 17 18  1  0  0  0  0
 17 43  1  0  0  0  0
 17 44  1  0  0  0  0
 18 19  1  0  0  0  0
 18 45  1  0  0  0  0
 18 46  1  0  0  0  0
 20 21  2  0  0  0  0
 22 23  1  0  0  0  0
 22 24  1  0  0  0  0
 23 47  1  0  0  0  0
 23 48  1  0  0  0  0
 23 49  1  0  0  0  0
 24 25  1  0  0  0  0
 25 26  1  0  0  0  0
 25 27  1  0  0  0  0
 25 50  1  0  0  0  0
 26 51  1  0  0  0  0
 26 52  1  0  0  0  0
 26 53  1  0  0  0  0
 27 32  1  0  0  0  0
 27 28  2  0  0  0  0
 28 29  1  0  0  0  0
 28 54  1  0  0  0  0
 29 30  2  0  0  0  0
 29 55  1  0  0  0  0
 30 31  1  0  0  0  0
 30 56  1  0  0  0  0
 31 32  2  0  0  0  0
 31 57  1  0  0  0  0
 32 58  1  0  0  0  0
M  END
> <s_m_source_file>
AV-unprocessed.smi

> <i_m_source_file_index>
26

> <i_lp_mmshare_version>
43012

> <i_f3d_flags>
0

> <s_epik_input>
W2NIXTFbY0hdW2NIXVtjSF1bY0hdYzFbQ0BASF0oW0NIM10pbjJjKFtDSDNdKWMoW2NIXWMyW0NIM10pQyg9TylbQ0gyXW4zYyg9TyljKEYpW2NIXW4oYzM9TylbQ0BASF00W0NIMl1bQ0gyXVtDSDJdTzQ=

> <s_epik_cmdline>
J2VwaWtfcHl0aG9uJywgJy1waCcsICc3LjAnLCAnLXRuJywgJzgnLCAnLW1hJywgJzIwMCcsICctbWV0YWxfYmluZGluZycsICctaW1hZScsICc8aW5maWxlLm1hZT4nLCAnLW9tYWUnLCAnPG91dGZpbGUubWFlPic=

> <r_lp_tautomer_probability>
1

> <r_epik_Ionization_Penalty>
5.02402e-09

> <r_epik_Ionization_Penalty_Charging>
5.01743e-09

> <r_epik_Ionization_Penalty_Neutral>
6.58831e-12

> <r_epik_State_Penalty>
-0

> <r_epik_Charging_Adjusted_Penalty>
5.01743e-09

> <i_epik_Tot_Q>
0

> <i_epik_Tot_abs_Q>
0

> <r_epik_Metal_State_Penalty>
-0

> <b_epik_Metal_Only>
0

> <s_epik_Chemistry_Notes>
This compound contains an acetal/aminal-like group ( X-CH(R)-Y where X, Y are N, S, or O) that may be acid/base labile, releasing an aldehyde.

> <s_lp_Force_Field>
OPLS_2005

> <r_lp_Energy>
45.9461

> <b_lp_Chiralities_Consistent>
1

> <s_lp_Variant>
AV-unprocessed.smi:26-1

> <Gold.Version>
5.8.1

> <Gold.Id.Protein>
6NUR|6NUR_protein|mol2

> <Gold.PLP.Fitness>
53.8633

> <Gold.PLP.PLP>
-49.7631

> <Gold.PLP.part.hbond>
-3.0000

> <Gold.PLP.part.metal>
0.0000

> <Gold.PLP.part.buried>
-6.7420

> <Gold.PLP.part.nonpolar>
-40.2885

> <Gold.PLP.part.repulsive>
0.1063

> <Gold.PLP.ligand.clash>
0.0000

> <Gold.PLP.ligand.torsion>
2.0998

> <Gold.PLP.Chemscore.Hbond>
2.6560

> <Gold.PLP.Chemscore.CHOScore>
0.0000

> <Gold.PLP.Chemscore.Metal>
0.0000

> <Gold.Chemscore.Hbonds>
donor molecule, donor type, donor heavy atom, donor atom, acceptor molecule, acceptor atom, score
      P1  H  6896  6908       L1    19  0.24
      P1  H  7997  8008       L1     6  1.00
      P1  H 10752 10763       L1    21  1.00

> <Gold.PLP.Chemscore.Internal.Correction>
0.3319

> <Gold.Rescore>
     Score         DG    S(hbond)    S(metal)    S(lipo)     H(rot)  DE(clash)    DE(int)     intcor
     18.65     -23.51       2.54        0.00     121.83       1.84       0.06       4.80       ----

> <Gold.Chemscore.Fitness>
18.6490

> <Gold.Chemscore.DG>
-23.5097

> <Gold.Chemscore.ZeroCoef>
-5.4800

> <Gold.Chemscore.Hbond>
2.5378

> <Gold.Chemscore.Metal>
0.0000

> <Gold.Chemscore.Lipo>
121.8256

> <Gold.Chemscore.Internal_Hbond>
0.0000

> <Gold.Chemscore.DEClash>
0.0567

> <Gold.Chemscore.DEInternal>
4.8040

> <Gold.Chemscore.Rot>
1.8359

> <Gold.Chemscore.Internal.Correction>
   9.000000E+99

> <Gold.Chemscore.Hbonds>
donor molecule, donor type, donor heavy atom, donor atom, acceptor molecule, acceptor atom, score
      P1  H  6896  6908       L1    19  0.05
      P1  H  7997  8008       L1     6  0.74
      P1  H 10752 10763       L1    21  1.00

> <Gold.Chemscore.Hbond.Weighted>
-8.4761

> <Gold.Chemscore.Metal.Weighted>
-0.0000

> <Gold.Chemscore.Lipo.Weighted>
-14.2536

> <Gold.Chemscore.Internal_Hbond.Weighted>
0.0000

> <Gold.Chemscore.DEClash.Weighted>
0.0567

> <Gold.Chemscore.DEInternal.Weighted>
4.8040

> <Gold.Chemscore.Rot.Weighted>
4.7000

> <Gold.Chemscore.Internal.Correction.Weighted>
   9.000000E+99

> <Gold.Protein.RotatedTorsions>
[ 6907 6896 6895 6894 ] final  104.78 input  -60.11 | X-H torsion
[ 7974 7965 7964 7962 ] final -141.21 input  175.53 | X-H torsion
[ 8008 7997 7996 7995 ] final  -39.65 input   59.86 | X-H torsion
[ 10167 10162 10161 10158 ] final -167.64 input  -65.29 | X-H torsion
[ 10718 10713 10712 10709 ] final   13.08 input   66.30 | X-H torsion
[ 10763 10752 10751 10750 ] final   54.93 input  -60.55 | X-H torsion
[ 11005 11000 10999 10996 ] final -110.14 input  -57.11 | X-H torsion

> <Gold.Protein.ActiveResidues>
 VAL166  LYS551  ARG553  GLY616  TRP617  ASP618  TYR619  PRO620  LYS621  CYS622 
 ASP623  PHE694  ASN695  SER759  ASP760  ASP761  ALA762  ILE779  LEU786  VAL792 
 PHE793  MET794  SER795  GLU796  ALA797  LYS798  CYS799  TRP800  GLU811  SER814 

> <Gold.Protein.RotatedAtoms>
  152.5253  133.9626  159.7723 H   0  0  0  0  0  0  0  0  0  0  0  0  # atno 6907 bound_to 6896
  150.9913  133.6138  159.2715 H   0  0  0  0  0  0  0  0  0  0  0  0  # atno 6908 bound_to 6896
  151.3280  135.0841  159.9382 H   0  0  0  0  0  0  0  0  0  0  0  0  # atno 6909 bound_to 6896
  144.8537  140.6107  143.5373 H   0  0  0  0  0  0  0  0  0  0  0  0  # atno 7974 bound_to 7965
  154.4020  140.1546  156.2898 H   0  0  0  0  0  0  0  0  0  0  0  0  # atno 8008 bound_to 7997
  155.8796  140.3444  155.5856 H   0  0  0  0  0  0  0  0  0  0  0  0  # atno 8009 bound_to 7997
  155.7682  140.0827  157.2111 H   0  0  0  0  0  0  0  0  0  0  0  0  # atno 8010 bound_to 7997
  139.6036  144.0959  152.1769 H   0  0  0  0  0  0  0  0  0  0  0  0  # atno 10167 bound_to 10162
  157.0194  130.6149  149.5719 H   0  0  0  0  0  0  0  0  0  0  0  0  # atno 10718 bound_to 10713
  152.9810  135.5728  154.4984 H   0  0  0  0  0  0  0  0  0  0  0  0  # atno 10763 bound_to 10752
  154.4508  135.2778  155.1785 H   0  0  0  0  0  0  0  0  0  0  0  0  # atno 10764 bound_to 10752
  154.3413  135.6229  153.5651 H   0  0  0  0  0  0  0  0  0  0  0  0  # atno 10765 bound_to 10752
  141.0808  133.9222  157.2291 H   0  0  0  0  0  0  0  0  0  0  0  0  # atno 11005 bound_to 11000
  145.4449  139.1531  143.3950 LP  0  0  0  0  0  0  0  0  0  0  0  0  # atno 17320 bound_to 7965
  146.2806  140.4572  142.8778 LP  0  0  0  0  0  0  0  0  0  0  0  0  # atno 17321 bound_to 7965
  140.0561  144.5894  150.7298 LP  0  0  0  0  0  0  0  0  0  0  0  0  # atno 17342 bound_to 10162
  140.7268  143.2645  151.4092 LP  0  0  0  0  0  0  0  0  0  0  0  0  # atno 17343 bound_to 10162
  156.0107  130.5199  150.7980 LP  0  0  0  0  0  0  0  0  0  0  0  0  # atno 17370 bound_to 10713
  157.5261  131.0934  151.0016 LP  0  0  0  0  0  0  0  0  0  0  0  0  # atno 17371 bound_to 10713
  139.9622  135.0151  156.9292 LP  0  0  0  0  0  0  0  0  0  0  0  0  # atno 17394 bound_to 11000
  140.5471  134.0663  155.7358 LP  0  0  0  0  0  0  0  0  0  0  0  0  # atno 17395 bound_to 11000

$$$$
