AV-unprocessed.smi:235|AV-procd|sdf|1803|dock4
  -GOLD-   2262020373D 1   1.00000     0.00000
 Structure written by MMmdl.
 54 58  0  0  0  0  0  0  0  0  1 V2000
  151.1254  142.9259  158.0429 O   0  0  0  0  0  0  0  0  0  0  0  0
  151.2939  141.9443  158.7678 C   0  0  0  0  0  0  0  0  0  0  0  0
  151.8408  142.0132  159.9901 N   0  0  0  0  0  0  0  0  0  0  0  0
  152.2912  143.2050  160.6323 C   0  0  0  0  0  0  0  0  0  0  0  0
  151.5285  143.6765  161.8514 C   0  0  0  0  0  0  0  0  0  0  0  0
  151.3987  144.4244  160.5534 C   0  0  0  0  0  0  0  0  0  0  0  0
  150.8924  140.5416  158.2905 C   0  0  2  0  0  0  0  0  0  0  0  0
  151.8165  139.4548  158.8544 C   0  0  0  0  0  0  0  0  0  0  0  0
  151.6590  138.3204  157.8496 C   0  0  0  0  0  0  0  0  0  0  0  0
  151.5166  139.0576  156.5180 C   0  0  0  0  0  0  0  0  0  0  0  0
  151.0132  140.3906  156.8386 N   0  0  0  0  0  0  0  0  0  0  0  0
  149.9467  140.8032  156.1188 C   0  0  0  0  0  0  0  0  0  0  0  0
  149.9617  140.5511  154.7875 N   0  0  0  0  0  0  0  0  0  0  0  0
  148.9368  140.9410  154.0235 C   0  0  0  0  0  0  0  0  0  0  0  0
  147.8228  141.5833  154.3836 N   0  0  0  0  0  0  0  0  0  0  0  0
  147.8067  141.8355  155.7243 C   0  0  0  0  0  0  0  0  0  0  0  0
  148.8202  141.4847  156.6590 C   0  0  0  0  0  0  0  0  0  0  0  0
  148.4611  141.9092  157.9328 N   0  0  0  0  0  0  0  0  0  0  0  0
  147.2997  142.4794  157.7604 C   0  0  0  0  0  0  0  0  0  0  0  0
  146.8279  142.4723  156.4665 N   0  0  0  0  0  0  0  0  0  0  0  0
  145.5695  143.0277  155.9949 C   0  0  0  0  0  0  0  0  0  0  0  0
  145.6978  143.8356  154.6840 C   0  0  1  0  0  0  0  0  0  0  0  0
  145.7536  142.9406  153.5905 O   0  0  0  0  0  0  0  0  0  0  0  0
  144.5414  144.8275  154.4445 C   0  0  2  0  0  0  0  0  0  0  0  0
  144.6600  145.6437  153.1568 C   0  0  0  0  0  0  0  0  0  0  0  0
  143.8550  146.8996  153.4543 C   0  0  0  0  0  0  0  0  0  0  0  0
  143.6868  146.8836  154.9763 C   0  0  0  0  0  0  0  0  0  0  0  0
  144.5412  145.8452  155.4336 O   0  0  0  0  0  0  0  0  0  0  0  0
  151.9442  141.1526  160.5078 H   0  0  0  0  0  0  0  0  0  0  0  0
  153.3632  143.3980  160.6347 H   0  0  0  0  0  0  0  0  0  0  0  0
  150.6740  143.0866  162.1778 H   0  0  0  0  0  0  0  0  0  0  0  0
  152.0997  144.1484  162.6482 H   0  0  0  0  0  0  0  0  0  0  0  0
  151.8828  145.3966  160.4838 H   0  0  0  0  0  0  0  0  0  0  0  0
  150.4574  144.3337  160.0146 H   0  0  0  0  0  0  0  0  0  0  0  0
  149.8674  140.3326  158.6040 H   0  0  0  0  0  0  0  0  0  0  0  0
  152.8554  139.7899  158.8696 H   0  0  0  0  0  0  0  0  0  0  0  0
  151.5440  139.1552  159.8668 H   0  0  0  0  0  0  0  0  0  0  0  0
  152.4926  137.6180  157.8606 H   0  0  0  0  0  0  0  0  0  0  0  0
  150.7448  137.7655  158.0644 H   0  0  0  0  0  0  0  0  0  0  0  0
  152.4930  139.1756  156.0474 H   0  0  0  0  0  0  0  0  0  0  0  0
  150.8863  138.5030  155.8206 H   0  0  0  0  0  0  0  0  0  0  0  0
  149.0214  140.7040  152.9732 H   0  0  0  0  0  0  0  0  0  0  0  0
  146.7463  142.9170  158.5788 H   0  0  0  0  0  0  0  0  0  0  0  0
  144.8674  142.2049  155.8551 H   0  0  0  0  0  0  0  0  0  0  0  0
  145.1490  143.6525  156.7840 H   0  0  0  0  0  0  0  0  0  0  0  0
  146.6410  144.3823  154.7109 H   0  0  0  0  0  0  0  0  0  0  0  0
  146.6272  142.5842  153.5376 H   0  0  0  0  0  0  0  0  0  0  0  0
  143.5774  144.3157  154.4640 H   0  0  0  0  0  0  0  0  0  0  0  0
  145.7010  145.9135  152.9736 H   0  0  0  0  0  0  0  0  0  0  0  0
  144.2951  145.1033  152.2828 H   0  0  0  0  0  0  0  0  0  0  0  0
  144.3835  147.7910  153.1145 H   0  0  0  0  0  0  0  0  0  0  0  0
  142.8824  146.8764  152.9615 H   0  0  0  0  0  0  0  0  0  0  0  0
  143.9472  147.8368  155.4371 H   0  0  0  0  0  0  0  0  0  0  0  0
  142.6570  146.6447  155.2458 H   0  0  0  0  0  0  0  0  0  0  0  0
  1  2  2  0  0  0  0
  2  3  1  0  0  0  0
  2  7  1  0  0  0  0
  3  4  1  0  0  0  0
  3 29  1  0  0  0  0
  4  6  1  0  0  0  0
  4  5  1  0  0  0  0
  4 30  1  0  0  0  0
  5  6  1  0  0  0  0
  5 31  1  0  0  0  0
  5 32  1  0  0  0  0
  6 33  1  0  0  0  0
  6 34  1  0  0  0  0
  7 11  1  0  0  0  0
  7  8  1  0  0  0  0
  7 35  1  0  0  0  0
  8  9  1  0  0  0  0
  8 36  1  0  0  0  0
  8 37  1  0  0  0  0
  9 10  1  0  0  0  0
  9 38  1  0  0  0  0
  9 39  1  0  0  0  0
 10 11  1  0  0  0  0
 10 40  1  0  0  0  0
 10 41  1  0  0  0  0
 11 12  1  0  0  0  0
 12 17  1  0  0  0  0
 12 13  2  0  0  0  0
 13 14  1  0  0  0  0
 14 15  2  0  0  0  0
 14 42  1  0  0  0  0
 15 16  1  0  0  0  0
 16 20  1  0  0  0  0
 16 17  2  0  0  0  0
 17 18  1  0  0  0  0
 18 19  2  0  0  0  0
 19 20  1  0  0  0  0
 19 43  1  0  0  0  0
 20 21  1  0  0  0  0
 21 22  1  0  0  0  0
 21 44  1  0  0  0  0
 21 45  1  0  0  0  0
 22 23  1  0  0  0  0
 22 24  1  0  0  0  0
 22 46  1  0  0  0  0
 23 47  1  0  0  0  0
 24 28  1  0  0  0  0
 24 25  1  0  0  0  0
 24 48  1  0  0  0  0
 25 26  1  0  0  0  0
 25 49  1  0  0  0  0
 25 50  1  0  0  0  0
 26 27  1  0  0  0  0
 26 51  1  0  0  0  0
 26 52  1  0  0  0  0
 27 28  1  0  0  0  0
 27 53  1  0  0  0  0
 27 54  1  0  0  0  0
M  END
> <s_m_source_file>
AV-unprocessed.smi

> <i_m_source_file_index>
235

> <i_lp_mmshare_version>
43012

> <i_f3d_flags>
0

> <s_epik_input>
W0NIMl0xW0NIMl1bQ0hdMVtOSF1DKD1PKVtDQEBIXTJbQ0gyXVtDSDJdW0NIMl1OMmMobltjSF1uMyljKGMzNCluW2NIXW40W0NIMl1bQ0BIXShbT0hdKVtDQEBIXTVbQ0gyXVtDSDJdW0NIMl1PNQ==

> <s_epik_cmdline>
J2VwaWtfcHl0aG9uJywgJy1waCcsICc3LjAnLCAnLXRuJywgJzgnLCAnLW1hJywgJzIwMCcsICctbWV0YWxfYmluZGluZycsICctaW1hZScsICc8aW5maWxlLm1hZT4nLCAnLW9tYWUnLCAnPG91dGZpbGUubWFlPic=

> <r_lp_tautomer_probability>
1

> <r_epik_Ionization_Penalty>
0.000526714

> <r_epik_Ionization_Penalty_Charging>
0

> <r_epik_Ionization_Penalty_Neutral>
0.000526714

> <r_epik_State_Penalty>
0.000272704

> <r_epik_Charging_Adjusted_Penalty>
0.000272704

> <i_epik_Tot_Q>
0

> <i_epik_Tot_abs_Q>
0

> <r_epik_Metal_State_Penalty>
-0

> <b_epik_Metal_Only>
0

> <s_lp_Force_Field>
OPLS_2005

> <r_lp_Energy>
60.0351

> <b_lp_Chiralities_Consistent>
1

> <s_lp_Variant>
AV-unprocessed.smi:235-3

> <Gold.Version>
5.8.1

> <Gold.Id.Protein>
6NUR|6NUR_protein|mol2

> <Gold.PLP.Fitness>
49.7738

> <Gold.PLP.PLP>
-47.1552

> <Gold.PLP.part.hbond>
-1.4107

> <Gold.PLP.part.metal>
0.0000

> <Gold.PLP.part.buried>
-7.9370

> <Gold.PLP.part.nonpolar>
-38.1849

> <Gold.PLP.part.repulsive>
0.5919

> <Gold.PLP.ligand.clash>
0.0000

> <Gold.PLP.ligand.torsion>
1.5673

> <Gold.PLP.Chemscore.Hbond>
0.8320

> <Gold.PLP.Chemscore.CHOScore>
1.0000

> <Gold.PLP.Chemscore.Metal>
0.0000

> <Gold.Chemscore.Hbonds>
donor molecule, donor type, donor heavy atom, donor atom, acceptor molecule, acceptor atom, score
      P1  H  7989  7998       L1    13  0.67
      L1  C    14    42       P1  7957  0.96

> <Gold.PLP.Chemscore.Internal.Correction>
0.2573

> <Gold.Rescore>
     Score         DG    S(hbond)    S(metal)    S(lipo)     H(rot)  DE(clash)    DE(int)     intcor
      6.39     -10.79       0.73        0.00      90.10       3.00       0.22       4.18       ----

> <Gold.Chemscore.Fitness>
6.3851

> <Gold.Chemscore.DG>
-10.7932

> <Gold.Chemscore.ZeroCoef>
-5.4800

> <Gold.Chemscore.Hbond>
0.7331

> <Gold.Chemscore.Metal>
0.0000

> <Gold.Chemscore.Lipo>
90.1021

> <Gold.Chemscore.Internal_Hbond>
0.0000

> <Gold.Chemscore.DEClash>
0.2247

> <Gold.Chemscore.DEInternal>
4.1834

> <Gold.Chemscore.Rot>
2.9989

> <Gold.Chemscore.Internal.Correction>
   9.000000E+99

> <Gold.Chemscore.Hbonds>
donor molecule, donor type, donor heavy atom, donor atom, acceptor molecule, acceptor atom, score
      P1  H  7989  7998       L1    13  0.19

> <Gold.Chemscore.Hbond.Weighted>
-2.4484

> <Gold.Chemscore.Metal.Weighted>
-0.0000

> <Gold.Chemscore.Lipo.Weighted>
-10.5419

> <Gold.Chemscore.Internal_Hbond.Weighted>
0.0000

> <Gold.Chemscore.DEClash.Weighted>
0.2247

> <Gold.Chemscore.DEInternal.Weighted>
4.1834

> <Gold.Chemscore.Rot.Weighted>
7.6772

> <Gold.Chemscore.Internal.Correction.Weighted>
   9.000000E+99

> <Gold.Protein.RotatedTorsions>
[ 6907 6896 6895 6894 ] final  -89.75 input  -60.11 | X-H torsion
[ 7974 7965 7964 7962 ] final -105.77 input  175.53 | X-H torsion
[ 8008 7997 7996 7995 ] final  125.58 input   59.86 | X-H torsion
[ 10167 10162 10161 10158 ] final -150.69 input  -65.29 | X-H torsion
[ 10718 10713 10712 10709 ] final  123.29 input   66.30 | X-H torsion
[ 10763 10752 10751 10750 ] final  -51.75 input  -60.55 | X-H torsion
[ 11005 11000 10999 10996 ] final -142.42 input  -57.11 | X-H torsion

> <Gold.Protein.ActiveResidues>
 VAL166  LYS551  ARG553  GLY616  TRP617  ASP618  TYR619  PRO620  LYS621  CYS622 
 ASP623  PHE694  ASN695  SER759  ASP760  ASP761  ALA762  ILE779  LEU786  VAL792 
 PHE793  MET794  SER795  GLU796  ALA797  LYS798  CYS799  TRP800  GLU811  SER814 

> <Gold.Protein.RotatedAtoms>
  150.6876  134.2539  159.4521 H   0  0  0  0  0  0  0  0  0  0  0  0  # atno 6907 bound_to 6896
  152.0474  134.9672  160.0583 H   0  0  0  0  0  0  0  0  0  0  0  0  # atno 6908 bound_to 6896
  152.1149  133.4286  159.4685 H   0  0  0  0  0  0  0  0  0  0  0  0  # atno 6909 bound_to 6896
  145.2263  140.9153  143.3230 H   0  0  0  0  0  0  0  0  0  0  0  0  # atno 7974 bound_to 7965
  156.2838  140.2713  156.1972 H   0  0  0  0  0  0  0  0  0  0  0  0  # atno 8008 bound_to 7997
  155.0398  140.0386  157.2523 H   0  0  0  0  0  0  0  0  0  0  0  0  # atno 8009 bound_to 7997
  154.7284  140.2701  155.6483 H   0  0  0  0  0  0  0  0  0  0  0  0  # atno 8010 bound_to 7997
  139.7333  143.8775  152.2541 H   0  0  0  0  0  0  0  0  0  0  0  0  # atno 10167 bound_to 10162
  157.5676  131.1085  150.8426 H   0  0  0  0  0  0  0  0  0  0  0  0  # atno 10718 bound_to 10713
  154.1316  135.6519  153.4923 H   0  0  0  0  0  0  0  0  0  0  0  0  # atno 10763 bound_to 10752
  153.0193  135.5294  154.6996 H   0  0  0  0  0  0  0  0  0  0  0  0  # atno 10764 bound_to 10752
  154.6232  135.2967  155.0273 H   0  0  0  0  0  0  0  0  0  0  0  0  # atno 10765 bound_to 10752
  140.8227  134.2611  157.4893 H   0  0  0  0  0  0  0  0  0  0  0  0  # atno 11005 bound_to 11000
  144.9718  139.3872  143.6305 LP  0  0  0  0  0  0  0  0  0  0  0  0  # atno 17320 bound_to 7965
  146.3364  139.8820  142.8823 LP  0  0  0  0  0  0  0  0  0  0  0  0  # atno 17321 bound_to 7965
  139.8704  144.7071  150.8994 LP  0  0  0  0  0  0  0  0  0  0  0  0  # atno 17342 bound_to 10162
  140.7775  143.3743  151.1592 LP  0  0  0  0  0  0  0  0  0  0  0  0  # atno 17343 bound_to 10162
  156.8906  130.5211  149.5286 LP  0  0  0  0  0  0  0  0  0  0  0  0  # atno 17370 bound_to 10713
  156.0723  130.5753  150.9407 LP  0  0  0  0  0  0  0  0  0  0  0  0  # atno 17371 bound_to 10713
  139.8708  134.9544  156.4175 LP  0  0  0  0  0  0  0  0  0  0  0  0  # atno 17394 bound_to 11000
  140.9081  133.7731  155.9759 LP  0  0  0  0  0  0  0  0  0  0  0  0  # atno 17395 bound_to 11000

$$$$
