AV-unprocessed.smi:2688|AV-procd|sdf|10386|dock8
  -GOLD-   2272014423D 1   1.00000     0.00000
 Structure written by MMmdl.
 51 54  0  0  0  0  0  0  0  0  1 V2000
  153.4116  142.5205  160.4077 C   0  0  0  0  0  0  0  0  0  0  0  0
  152.5733  142.0629  159.2514 C   0  0  0  0  0  0  0  0  0  0  0  0
  151.5058  142.8659  158.6861 C   0  0  0  0  0  0  0  0  0  0  0  0
  150.7989  142.3855  157.6406 C   0  0  0  0  0  0  0  0  0  0  0  0
  151.0817  141.0746  157.0599 C   0  0  0  0  0  0  0  0  0  0  0  0
  150.4595  140.6109  156.1044 O   0  0  0  0  0  0  0  0  0  0  0  0
  152.1053  140.4101  157.6746 N   0  0  0  0  0  0  0  0  0  0  0  0
  152.5395  139.0854  157.2085 C   0  0  0  0  0  0  0  0  0  0  0  0
  153.8479  138.6196  157.8630 C   0  0  0  0  0  0  0  0  0  0  0  0
  154.9342  139.0380  157.4598 O   0  0  0  0  0  0  0  0  0  0  0  0
  153.7271  137.7603  158.8867 N   0  0  0  0  0  0  0  0  0  0  0  0
  154.8450  137.1835  159.6246 C   0  0  0  0  0  0  0  0  0  0  0  0
  155.8074  138.2822  160.1230 C   0  0  0  0  0  0  0  0  0  0  0  0
  156.5719  137.9827  161.4372 C   0  0  0  0  0  0  0  0  0  0  0  0
  157.3749  136.6565  161.3396 C   0  0  0  0  0  0  0  0  0  0  0  0
  158.0772  136.3518  162.6804 C   0  0  1  0  0  0  0  0  0  0  0  0
  159.0458  137.5021  163.0283 C   0  0  0  0  0  0  0  0  0  0  0  0
  158.2497  138.8185  163.1557 C   0  0  2  0  0  0  0  0  0  0  0  0
  157.1970  138.6787  164.2744 C   0  0  0  0  0  0  0  0  0  0  0  0
  156.2347  137.5262  163.9216 C   0  0  2  0  0  0  0  0  0  0  0  0
  157.0236  136.2068  163.7972 C   0  0  0  0  0  0  0  0  0  0  0  0
  155.5336  137.8340  162.5823 C   0  0  0  0  0  0  0  0  0  0  0  0
  157.5471  139.1304  161.8156 C   0  0  0  0  0  0  0  0  0  0  0  0
  152.8291  140.8993  158.7498 N   0  0  0  0  0  0  0  0  0  0  0  0
  153.1164  143.5164  160.7390 H   0  0  0  0  0  0  0  0  0  0  0  0
  154.4657  142.5600  160.1312 H   0  0  0  0  0  0  0  0  0  0  0  0
  153.3084  141.8420  161.2549 H   0  0  0  0  0  0  0  0  0  0  0  0
  151.2855  143.8376  159.1033 H   0  0  0  0  0  0  0  0  0  0  0  0
  150.0046  142.9847  157.2200 H   0  0  0  0  0  0  0  0  0  0  0  0
  151.7717  138.3390  157.4204 H   0  0  0  0  0  0  0  0  0  0  0  0
  152.6500  139.0915  156.1224 H   0  0  0  0  0  0  0  0  0  0  0  0
  152.7991  137.4715  159.1605 H   0  0  0  0  0  0  0  0  0  0  0  0
  154.4602  136.5837  160.4494 H   0  0  0  0  0  0  0  0  0  0  0  0
  155.3628  136.4978  158.9548 H   0  0  0  0  0  0  0  0  0  0  0  0
  156.5288  138.4887  159.3311 H   0  0  0  0  0  0  0  0  0  0  0  0
  155.2467  139.2088  160.2558 H   0  0  0  0  0  0  0  0  0  0  0  0
  156.7138  135.8318  161.0690 H   0  0  0  0  0  0  0  0  0  0  0  0
  158.1277  136.7147  160.5539 H   0  0  0  0  0  0  0  0  0  0  0  0
  158.6383  135.4211  162.5906 H   0  0  0  0  0  0  0  0  0  0  0  0
  159.5698  137.2854  163.9600 H   0  0  0  0  0  0  0  0  0  0  0  0
  159.8127  137.5965  162.2587 H   0  0  0  0  0  0  0  0  0  0  0  0
  158.9330  139.6312  163.4037 H   0  0  0  0  0  0  0  0  0  0  0  0
  157.6838  138.4856  165.2313 H   0  0  0  0  0  0  0  0  0  0  0  0
  156.6437  139.6113  164.3924 H   0  0  0  0  0  0  0  0  0  0  0  0
  155.4857  137.4269  164.7079 H   0  0  0  0  0  0  0  0  0  0  0  0
  156.3472  135.3807  163.5745 H   0  0  0  0  0  0  0  0  0  0  0  0
  157.5070  135.9637  164.7442 H   0  0  0  0  0  0  0  0  0  0  0  0
  154.9440  138.7469  162.6790 H   0  0  0  0  0  0  0  0  0  0  0  0
  154.8241  137.0389  162.3483 H   0  0  0  0  0  0  0  0  0  0  0  0
  158.3029  139.2658  161.0418 H   0  0  0  0  0  0  0  0  0  0  0  0
  157.0093  140.0767  161.8883 H   0  0  0  0  0  0  0  0  0  0  0  0
  1  2  1  0  0  0  0
  1 25  1  0  0  0  0
  1 26  1  0  0  0  0
  1 27  1  0  0  0  0
  2 24  2  0  0  0  0
  2  3  1  0  0  0  0
  3  4  2  0  0  0  0
  3 28  1  0  0  0  0
  4  5  1  0  0  0  0
  4 29  1  0  0  0  0
  5  6  2  0  0  0  0
  5  7  1  0  0  0  0
  7  8  1  0  0  0  0
  7 24  1  0  0  0  0
  8  9  1  0  0  0  0
  8 30  1  0  0  0  0
  8 31  1  0  0  0  0
  9 10  2  0  0  0  0
  9 11  1  0  0  0  0
 11 12  1  0  0  0  0
 11 32  1  0  0  0  0
 12 13  1  0  0  0  0
 12 33  1  0  0  0  0
 12 34  1  0  0  0  0
 13 14  1  0  0  0  0
 13 35  1  0  0  0  0
 13 36  1  0  0  0  0
 14 22  1  0  0  0  0
 14 23  1  0  0  0  0
 14 15  1  0  0  0  0
 15 16  1  0  0  0  0
 15 37  1  0  0  0  0
 15 38  1  0  0  0  0
 16 21  1  0  0  0  0
 16 17  1  0  0  0  0
 16 39  1  0  0  0  0
 17 18  1  0  0  0  0
 17 40  1  0  0  0  0
 17 41  1  0  0  0  0
 18 19  1  0  0  0  0
 18 23  1  0  0  0  0
 18 42  1  0  0  0  0
 19 20  1  0  0  0  0
 19 43  1  0  0  0  0
 19 44  1  0  0  0  0
 20 21  1  0  0  0  0
 20 22  1  0  0  0  0
 20 45  1  0  0  0  0
 21 46  1  0  0  0  0
 21 47  1  0  0  0  0
 22 48  1  0  0  0  0
 22 49  1  0  0  0  0
 23 50  1  0  0  0  0
 23 51  1  0  0  0  0
M  END
> <s_m_source_file>
AV-unprocessed.smi

> <i_m_source_file_index>
2688

> <i_lp_mmshare_version>
43012

> <i_f3d_flags>
0

> <s_epik_input>
W0NIM11jMVtjSF1bY0hdYyg9TyluKG4xKVtDSDJdQyg9TylbTkhdW0NIMl1bQ0gyXUMyM1tDSDJdW0NASF00W0NIMl1bQ0BASF0oW0NIMl0zKVtDSDJdW0NASF0oW0NIMl00KVtDSDJdMg==

> <s_epik_cmdline>
J2VwaWtfcHl0aG9uJywgJy1waCcsICc3LjAnLCAnLXRuJywgJzgnLCAnLW1hJywgJzIwMCcsICctbWV0YWxfYmluZGluZycsICctaW1hZScsICc8aW5maWxlLm1hZT4nLCAnLW9tYWUnLCAnPG91dGZpbGUubWFlPic=

> <r_lp_tautomer_probability>
1

> <r_epik_Ionization_Penalty>
8.74812e-07

> <r_epik_Ionization_Penalty_Charging>
8.53005e-07

> <r_epik_Ionization_Penalty_Neutral>
2.18061e-08

> <r_epik_State_Penalty>
-0

> <r_epik_Charging_Adjusted_Penalty>
8.53005e-07

> <i_epik_Tot_Q>
0

> <i_epik_Tot_abs_Q>
0

> <r_epik_Metal_State_Penalty>
-0

> <b_epik_Metal_Only>
0

> <s_lp_Force_Field>
OPLS_2005

> <r_lp_Energy>
47.4944

> <b_lp_Chiralities_Consistent>
1

> <s_lp_Variant>
AV-unprocessed.smi:2688-1

> <Gold.Version>
5.8.1

> <Gold.Id.Protein>
6NUR|6NUR_protein|mol2

> <Gold.PLP.Fitness>
42.1606

> <Gold.PLP.PLP>
-39.1845

> <Gold.PLP.part.hbond>
-1.8764

> <Gold.PLP.part.metal>
0.0000

> <Gold.PLP.part.buried>
-3.6665

> <Gold.PLP.part.nonpolar>
-33.4722

> <Gold.PLP.part.repulsive>
0.1529

> <Gold.PLP.ligand.clash>
0.0000

> <Gold.PLP.ligand.torsion>
0.5972

> <Gold.PLP.Chemscore.Hbond>
1.3810

> <Gold.PLP.Chemscore.CHOScore>
0.0000

> <Gold.PLP.Chemscore.Metal>
0.0000

> <Gold.PLP.Chemscore.Internal.Correction>
0.0272

> <Gold.Rescore>
     Score         DG    S(hbond)    S(metal)    S(lipo)     H(rot)  DE(clash)    DE(int)     intcor
     15.92     -17.68       0.94        0.00     115.28       1.73       0.00       1.76       ----

> <Gold.Chemscore.Fitness>
15.9187

> <Gold.Chemscore.DG>
-17.6832

> <Gold.Chemscore.ZeroCoef>
-5.4800

> <Gold.Chemscore.Hbond>
0.9437

> <Gold.Chemscore.Metal>
0.0000

> <Gold.Chemscore.Lipo>
115.2825

> <Gold.Chemscore.Internal_Hbond>
0.0000

> <Gold.Chemscore.DEClash>
0.0021

> <Gold.Chemscore.DEInternal>
1.7623

> <Gold.Chemscore.Rot>
1.7331

> <Gold.Chemscore.Internal.Correction>
   9.000000E+99

> <Gold.Chemscore.Hbond.Weighted>
-3.1519

> <Gold.Chemscore.Metal.Weighted>
-0.0000

> <Gold.Chemscore.Lipo.Weighted>
-13.4881

> <Gold.Chemscore.Internal_Hbond.Weighted>
0.0000

> <Gold.Chemscore.DEClash.Weighted>
0.0021

> <Gold.Chemscore.DEInternal.Weighted>
1.7623

> <Gold.Chemscore.Rot.Weighted>
4.4367

> <Gold.Chemscore.Internal.Correction.Weighted>
   9.000000E+99

> <Gold.Protein.RotatedTorsions>
[ 6907 6896 6895 6894 ] final   71.34 input  -60.11 | X-H torsion
[ 7974 7965 7964 7962 ] final   36.00 input  175.53 | X-H torsion
[ 8008 7997 7996 7995 ] final  138.14 input   59.86 | X-H torsion
[ 10167 10162 10161 10158 ] final -170.10 input  -65.29 | X-H torsion
[ 10718 10713 10712 10709 ] final  158.33 input   66.30 | X-H torsion
[ 10763 10752 10751 10750 ] final  -60.31 input  -60.55 | X-H torsion
[ 11005 11000 10999 10996 ] final  -75.25 input  -57.11 | X-H torsion

> <Gold.Protein.ActiveResidues>
 VAL166  LYS551  ARG553  GLY616  TRP617  ASP618  TYR619  PRO620  LYS621  CYS622 
 ASP623  PHE694  ASN695  SER759  ASP760  ASP761  ALA762  ILE779  LEU786  VAL792 
 PHE793  MET794  SER795  GLU796  ALA797  LYS798  CYS799  TRP800  GLU811  SER814 

> <Gold.Protein.RotatedAtoms>
  152.4804  134.4735  159.9642 H   0  0  0  0  0  0  0  0  0  0  0  0  # atno 6907 bound_to 6896
  151.4742  133.3555  159.2836 H   0  0  0  0  0  0  0  0  0  0  0  0  # atno 6908 bound_to 6896
  150.8872  134.8297  159.7328 H   0  0  0  0  0  0  0  0  0  0  0  0  # atno 6909 bound_to 6896
  146.1243  139.6072  142.9269 H   0  0  0  0  0  0  0  0  0  0  0  0  # atno 7974 bound_to 7965
  156.2999  140.2401  156.4024 H   0  0  0  0  0  0  0  0  0  0  0  0  # atno 8008 bound_to 7997
  154.8515  140.0424  157.1627 H   0  0  0  0  0  0  0  0  0  0  0  0  # atno 8009 bound_to 7997
  154.8994  140.2974  155.5330 H   0  0  0  0  0  0  0  0  0  0  0  0  # atno 8010 bound_to 7997
  139.5882  144.1272  152.1602 H   0  0  0  0  0  0  0  0  0  0  0  0  # atno 10167 bound_to 10162
  157.1793  131.0628  151.2140 H   0  0  0  0  0  0  0  0  0  0  0  0  # atno 10718 bound_to 10713
  154.2673  135.6297  153.5297 H   0  0  0  0  0  0  0  0  0  0  0  0  # atno 10763 bound_to 10752
  152.9886  135.5602  154.5639 H   0  0  0  0  0  0  0  0  0  0  0  0  # atno 10764 bound_to 10752
  154.5201  135.2882  155.1245 H   0  0  0  0  0  0  0  0  0  0  0  0  # atno 10765 bound_to 10752
  141.1643  133.6940  156.7488 H   0  0  0  0  0  0  0  0  0  0  0  0  # atno 11005 bound_to 11000
  145.5399  141.0421  143.2336 LP  0  0  0  0  0  0  0  0  0  0  0  0  # atno 17320 bound_to 7965
  144.7627  139.6919  143.7228 LP  0  0  0  0  0  0  0  0  0  0  0  0  # atno 17321 bound_to 7965
  140.0840  144.5677  150.7102 LP  0  0  0  0  0  0  0  0  0  0  0  0  # atno 17342 bound_to 10162
  140.7150  143.2537  151.4463 LP  0  0  0  0  0  0  0  0  0  0  0  0  # atno 17343 bound_to 10162
  157.3968  130.7311  149.6737 LP  0  0  0  0  0  0  0  0  0  0  0  0  # atno 17370 bound_to 10713
  155.9726  130.4131  150.4068 LP  0  0  0  0  0  0  0  0  0  0  0  0  # atno 17371 bound_to 10713
  140.2619  134.8460  157.3767 LP  0  0  0  0  0  0  0  0  0  0  0  0  # atno 17394 bound_to 11000
  140.1603  134.4737  155.7899 LP  0  0  0  0  0  0  0  0  0  0  0  0  # atno 17395 bound_to 11000

$$$$
