AV-unprocessed.smi:1662|AV-procd|sdf|6661|dock4
  -GOLD-   22720 7373D 1   1.00000     0.00000
 Structure written by MMmdl.
 47 48  0  0  0  0  0  0  0  0  1 V2000
  151.3117  144.3312  160.7720 C   0  0  0  0  0  0  0  0  0  0  0  0
  151.7927  143.0753  160.0957 C   0  0  0  0  0  0  0  0  0  0  0  0
  151.2630  142.7934  158.9509 N   0  0  0  0  0  0  0  0  0  0  0  0
  151.6307  141.6633  158.2463 N   0  0  0  0  0  0  0  0  0  0  0  0
  150.9091  141.4871  156.9773 C   0  0  0  0  0  0  0  0  0  0  0  0
  149.4030  141.2454  157.1570 C   0  0  0  0  0  0  0  0  0  0  0  0
  148.8813  141.3061  158.2713 O   0  0  0  0  0  0  0  0  0  0  0  0
  148.7160  140.9944  156.0317 N   0  0  0  0  0  0  0  0  0  0  0  0
  147.2771  140.7373  155.9327 C   0  0  2  0  0  0  0  0  0  0  0  0
  146.9168  139.4792  156.7439 C   0  0  0  0  0  0  0  0  0  0  0  0
  147.4602  138.2006  156.0897 C   0  0  0  0  0  0  0  0  0  0  0  0
  146.9781  138.0782  154.6382 C   0  0  0  0  0  0  0  0  0  0  0  0
  147.3503  139.3147  153.7938 C   0  0  1  0  0  0  0  0  0  0  0  0
  146.8503  139.1256  152.3503 C   0  0  0  0  0  0  0  0  0  0  0  0
  146.8117  140.6138  154.4567 C   0  0  2  0  0  0  0  0  0  0  0  0
  147.1404  141.8870  153.6509 C   0  0  0  0  0  0  0  0  0  0  0  0
  152.5678  140.7617  158.6591 C   0  0  0  0  0  0  0  0  0  0  0  0
  152.8711  139.7701  157.9936 O   0  0  0  0  0  0  0  0  0  0  0  0
  153.1644  141.0876  159.9563 C   0  0  0  0  0  0  0  0  0  0  0  0
  154.1493  140.1679  160.4269 C   0  0  0  0  0  0  0  0  0  0  0  0
  154.9541  139.4359  160.8231 N   0  0  0  0  0  0  0  0  0  0  0  0
  152.8039  142.1885  160.6625 C   0  0  0  0  0  0  0  0  0  0  0  0
  153.3916  142.5695  162.0144 C   0  0  0  0  0  0  0  0  0  0  0  0
  152.1443  145.0039  160.9784 H   0  0  0  0  0  0  0  0  0  0  0  0
  150.8221  144.0975  161.7176 H   0  0  0  0  0  0  0  0  0  0  0  0
  150.5946  144.8759  160.1559 H   0  0  0  0  0  0  0  0  0  0  0  0
  151.0361  142.3692  156.3472 H   0  0  0  0  0  0  0  0  0  0  0  0
  151.3436  140.6606  156.4114 H   0  0  0  0  0  0  0  0  0  0  0  0
  149.2331  140.9741  155.1649 H   0  0  0  0  0  0  0  0  0  0  0  0
  146.7342  141.5688  156.3856 H   0  0  0  0  0  0  0  0  0  0  0  0
  147.2919  139.5665  157.7646 H   0  0  0  0  0  0  0  0  0  0  0  0
  145.8316  139.4040  156.8260 H   0  0  0  0  0  0  0  0  0  0  0  0
  148.5505  138.2010  156.1166 H   0  0  0  0  0  0  0  0  0  0  0  0
  147.1398  137.3286  156.6606 H   0  0  0  0  0  0  0  0  0  0  0  0
  147.4056  137.1796  154.1924 H   0  0  0  0  0  0  0  0  0  0  0  0
  145.8959  137.9394  154.6287 H   0  0  0  0  0  0  0  0  0  0  0  0
  148.4389  139.3753  153.7541 H   0  0  0  0  0  0  0  0  0  0  0  0
  145.7610  139.1334  152.3033 H   0  0  0  0  0  0  0  0  0  0  0  0
  147.1923  138.1754  151.9396 H   0  0  0  0  0  0  0  0  0  0  0  0
  147.2211  139.9072  151.6876 H   0  0  0  0  0  0  0  0  0  0  0  0
  145.7234  140.5359  154.4793 H   0  0  0  0  0  0  0  0  0  0  0  0
  148.2104  141.9812  153.4641 H   0  0  0  0  0  0  0  0  0  0  0  0
  146.8164  142.7805  154.1855 H   0  0  0  0  0  0  0  0  0  0  0  0
  146.6331  141.8954  152.6867 H   0  0  0  0  0  0  0  0  0  0  0  0
  154.0737  141.8105  162.3966 H   0  0  0  0  0  0  0  0  0  0  0  0
  152.6021  142.6973  162.7559 H   0  0  0  0  0  0  0  0  0  0  0  0
  153.9474  143.5046  161.9378 H   0  0  0  0  0  0  0  0  0  0  0  0
  1  2  1  0  0  0  0
  1 24  1  0  0  0  0
  1 25  1  0  0  0  0
  1 26  1  0  0  0  0
  2 22  1  0  0  0  0
  2  3  2  0  0  0  0
  3  4  1  0  0  0  0
  4  5  1  0  0  0  0
  4 17  1  0  0  0  0
  5  6  1  0  0  0  0
  5 27  1  0  0  0  0
  5 28  1  0  0  0  0
  6  7  2  0  0  0  0
  6  8  1  0  0  0  0
  8  9  1  0  0  0  0
  8 29  1  0  0  0  0
  9 15  1  0  0  0  0
  9 10  1  0  0  0  0
  9 30  1  0  0  0  0
 10 11  1  0  0  0  0
 10 31  1  0  0  0  0
 10 32  1  0  0  0  0
 11 12  1  0  0  0  0
 11 33  1  0  0  0  0
 11 34  1  0  0  0  0
 12 13  1  0  0  0  0
 12 35  1  0  0  0  0
 12 36  1  0  0  0  0
 13 14  1  0  0  0  0
 13 15  1  0  0  0  0
 13 37  1  0  0  0  0
 14 38  1  0  0  0  0
 14 39  1  0  0  0  0
 14 40  1  0  0  0  0
 15 16  1  0  0  0  0
 15 41  1  0  0  0  0
 16 42  1  0  0  0  0
 16 43  1  0  0  0  0
 16 44  1  0  0  0  0
 17 18  2  0  0  0  0
 17 19  1  0  0  0  0
 19 20  1  0  0  0  0
 19 22  2  0  0  0  0
 20 21  3  0  0  0  0
 22 23  1  0  0  0  0
 23 45  1  0  0  0  0
 23 46  1  0  0  0  0
 23 47  1  0  0  0  0
M  END
> <s_m_source_file>
AV-unprocessed.smi

> <i_m_source_file_index>
1662

> <i_lp_mmshare_version>
43012

> <i_f3d_flags>
0

> <s_epik_input>
TiNDYyhjMVtDSDNdKWMoPU8pbihuYzFbQ0gzXSlbQ0gyXUMoPU8pW05IXVtDQEBIXTJbQ0gyXVtDSDJdW0NIMl1bQ0BASF0oW0NIM10pW0NASF0yW0NIM10=

> <s_epik_cmdline>
J2VwaWtfcHl0aG9uJywgJy1waCcsICc3LjAnLCAnLXRuJywgJzgnLCAnLW1hJywgJzIwMCcsICctbWV0YWxfYmluZGluZycsICctaW1hZScsICc8aW5maWxlLm1hZT4nLCAnLW9tYWUnLCAnPG91dGZpbGUubWFlPic=

> <r_lp_tautomer_probability>
1

> <r_epik_Ionization_Penalty>
1.90709e-08

> <r_epik_Ionization_Penalty_Charging>
2.37982e-11

> <r_epik_Ionization_Penalty_Neutral>
1.90471e-08

> <r_epik_State_Penalty>
-0

> <r_epik_Charging_Adjusted_Penalty>
2.37982e-11

> <i_epik_Tot_Q>
0

> <i_epik_Tot_abs_Q>
0

> <r_epik_Metal_State_Penalty>
-0

> <b_epik_Metal_Only>
0

> <s_lp_Force_Field>
OPLS_2005

> <r_lp_Energy>
26.4332

> <b_lp_Chiralities_Consistent>
1

> <s_lp_Variant>
AV-unprocessed.smi:1662-5

> <Gold.Version>
5.8.1

> <Gold.Id.Protein>
6NUR|6NUR_protein|mol2

> <Gold.PLP.Fitness>
40.6509

> <Gold.PLP.PLP>
-37.7651

> <Gold.PLP.part.hbond>
-1.0000

> <Gold.PLP.part.metal>
0.0000

> <Gold.PLP.part.buried>
-6.1793

> <Gold.PLP.part.nonpolar>
-30.4212

> <Gold.PLP.part.repulsive>
0.1098

> <Gold.PLP.ligand.clash>
0.0000

> <Gold.PLP.ligand.torsion>
0.0629

> <Gold.PLP.Chemscore.Hbond>
1.0000

> <Gold.PLP.Chemscore.CHOScore>
0.0000

> <Gold.PLP.Chemscore.Metal>
0.0000

> <Gold.Chemscore.Hbonds>
donor molecule, donor type, donor heavy atom, donor atom, acceptor molecule, acceptor atom, score
      P1  H  7997  8010       L1    18  1.00

> <Gold.PLP.Chemscore.Internal.Correction>
0.0116

> <Gold.Rescore>
     Score         DG    S(hbond)    S(metal)    S(lipo)     H(rot)  DE(clash)    DE(int)     intcor
     14.04     -15.54       0.97        0.00      90.05       1.45       0.10       1.40       ----

> <Gold.Chemscore.Fitness>
14.0411

> <Gold.Chemscore.DG>
-15.5424

> <Gold.Chemscore.ZeroCoef>
-5.4800

> <Gold.Chemscore.Hbond>
0.9700

> <Gold.Chemscore.Metal>
0.0000

> <Gold.Chemscore.Lipo>
90.0469

> <Gold.Chemscore.Internal_Hbond>
0.0000

> <Gold.Chemscore.DEClash>
0.1029

> <Gold.Chemscore.DEInternal>
1.3985

> <Gold.Chemscore.Rot>
1.4504

> <Gold.Chemscore.Internal.Correction>
   9.000000E+99

> <Gold.Chemscore.Hbonds>
donor molecule, donor type, donor heavy atom, donor atom, acceptor molecule, acceptor atom, score
      P1  H  7997  8010       L1    18  0.83

> <Gold.Chemscore.Hbond.Weighted>
-3.2399

> <Gold.Chemscore.Metal.Weighted>
-0.0000

> <Gold.Chemscore.Lipo.Weighted>
-10.5355

> <Gold.Chemscore.Internal_Hbond.Weighted>
0.0000

> <Gold.Chemscore.DEClash.Weighted>
0.1029

> <Gold.Chemscore.DEInternal.Weighted>
1.3985

> <Gold.Chemscore.Rot.Weighted>
3.7129

> <Gold.Chemscore.Internal.Correction.Weighted>
   9.000000E+99

> <Gold.Protein.RotatedTorsions>
[ 6907 6896 6895 6894 ] final   68.81 input  -60.11 | X-H torsion
[ 7974 7965 7964 7962 ] final  101.32 input  175.53 | X-H torsion
[ 8008 7997 7996 7995 ] final   47.80 input   59.86 | X-H torsion
[ 10167 10162 10161 10158 ] final   87.87 input  -65.29 | X-H torsion
[ 10718 10713 10712 10709 ] final  -49.36 input   66.30 | X-H torsion
[ 10763 10752 10751 10750 ] final   84.28 input  -60.55 | X-H torsion
[ 11005 11000 10999 10996 ] final   90.84 input  -57.11 | X-H torsion

> <Gold.Protein.ActiveResidues>
 VAL166  LYS551  ARG553  GLY616  TRP617  ASP618  TYR619  PRO620  LYS621  CYS622 
 ASP623  PHE694  ASN695  SER759  ASP760  ASP761  ALA762  ILE779  LEU786  VAL792 
 PHE793  MET794  SER795  GLU796  ALA797  LYS798  CYS799  TRP800  GLU811  SER814 

> <Gold.Protein.RotatedAtoms>
  152.4645  134.5107  159.9752 H   0  0  0  0  0  0  0  0  0  0  0  0  # atno 6907 bound_to 6896
  151.5148  133.3472  159.2899 H   0  0  0  0  0  0  0  0  0  0  0  0  # atno 6908 bound_to 6896
  150.8623  134.8007  159.7154 H   0  0  0  0  0  0  0  0  0  0  0  0  # atno 6909 bound_to 6896
  145.3738  139.2393  143.3440 H   0  0  0  0  0  0  0  0  0  0  0  0  # atno 7974 bound_to 7965
  155.3750  140.3425  155.4244 H   0  0  0  0  0  0  0  0  0  0  0  0  # atno 8008 bound_to 7997
  156.1641  140.1610  156.8595 H   0  0  0  0  0  0  0  0  0  0  0  0  # atno 8009 bound_to 7997
  154.5168  140.0776  156.8079 H   0  0  0  0  0  0  0  0  0  0  0  0  # atno 8010 bound_to 7997
  139.8730  144.6482  150.8928 H   0  0  0  0  0  0  0  0  0  0  0  0  # atno 10167 bound_to 10162
  156.1901  130.4152  149.9384 H   0  0  0  0  0  0  0  0  0  0  0  0  # atno 10718 bound_to 10713
  153.1368  135.4660  154.9434 H   0  0  0  0  0  0  0  0  0  0  0  0  # atno 10763 bound_to 10752
  154.7712  135.3159  154.8187 H   0  0  0  0  0  0  0  0  0  0  0  0  # atno 10764 bound_to 10752
  153.8718  135.6903  153.4828 H   0  0  0  0  0  0  0  0  0  0  0  0  # atno 10765 bound_to 10752
  139.8849  134.8638  156.3342 H   0  0  0  0  0  0  0  0  0  0  0  0  # atno 11005 bound_to 11000
  146.2873  140.4394  142.8753 LP  0  0  0  0  0  0  0  0  0  0  0  0  # atno 17320 bound_to 7965
  144.8557  140.7066  143.6140 LP  0  0  0  0  0  0  0  0  0  0  0  0  # atno 17321 bound_to 7965
  140.7757  143.3648  151.1760 LP  0  0  0  0  0  0  0  0  0  0  0  0  # atno 17342 bound_to 10162
  139.7266  143.9139  152.3005 LP  0  0  0  0  0  0  0  0  0  0  0  0  # atno 17343 bound_to 10162
  156.7127  130.8976  151.3611 LP  0  0  0  0  0  0  0  0  0  0  0  0  # atno 17370 bound_to 10713
  157.6923  130.9246  150.0549 LP  0  0  0  0  0  0  0  0  0  0  0  0  # atno 17371 bound_to 10713
  140.9703  133.7332  156.0524 LP  0  0  0  0  0  0  0  0  0  0  0  0  # atno 17394 bound_to 11000
  140.7880  134.3650  157.5472 LP  0  0  0  0  0  0  0  0  0  0  0  0  # atno 17395 bound_to 11000

$$$$
