AV-unprocessed.smi:2807|AV-procd|sdf|10821|dock9
  -GOLD-   2272015263D 1   1.00000     0.00000
 Structure written by MMmdl.
 31 32  0  0  0  0  0  0  0  0  2 V2000
  151.3206  140.5006  157.8498 O   0  0  0  0  0  0  0  0  0  0  0  0
  150.6555  141.4984  157.5477 C   0  0  0  0  0  0  0  0  0  0  0  0
  149.8087  141.6960  156.4972 N   0  5  0  0  0  0  0  0  0  0  0  0
  148.7788  140.7417  156.0713 C   0  0  1  0  0  0  0  0  0  0  0  0
  147.3935  141.2839  156.4545 C   0  0  0  0  0  0  0  0  0  0  0  0
  146.9235  142.1688  155.2846 C   0  0  0  0  0  0  0  0  0  0  0  0
  147.8578  141.8713  154.1017 C   0  0  0  0  0  0  0  0  0  0  0  0
  148.6808  140.6520  154.5348 C   0  0  1  0  0  0  0  0  0  0  0  0
  149.9229  140.5695  153.8613 O   0  0  0  0  0  0  0  0  0  0  0  0
  150.7755  142.7592  158.4292 C   0  0  0  0  0  0  0  0  0  0  0  0
  151.2233  143.7805  157.6910 F   0  0  0  0  0  0  0  0  0  0  0  0
  149.5626  143.0910  158.8785 F   0  0  0  0  0  0  0  0  0  0  0  0
  151.6852  142.4967  159.6293 C   0  0  0  0  0  0  0  0  0  0  0  0
  153.0021  142.0192  159.4400 C   0  0  0  0  0  0  0  0  0  0  0  0
  153.8154  141.8119  160.5702 C   0  0  0  0  0  0  0  0  0  0  0  0
  153.2867  142.0844  161.8459 C   0  0  0  0  0  0  0  0  0  0  0  0
  151.9619  142.5549  161.9336 C   0  0  0  0  0  0  0  0  0  0  0  0
  151.1734  142.7554  160.8569 N   0  0  0  0  0  0  0  0  0  0  0  0
  148.9290  139.7513  156.5039 H   0  0  0  0  0  0  0  0  0  0  0  0
  146.7040  140.4455  156.5602 H   0  0  0  0  0  0  0  0  0  0  0  0
  147.3889  141.8161  157.4069 H   0  0  0  0  0  0  0  0  0  0  0  0
  145.8848  141.9514  155.0330 H   0  0  0  0  0  0  0  0  0  0  0  0
  146.9763  143.2262  155.5489 H   0  0  0  0  0  0  0  0  0  0  0  0
  147.3099  141.6857  153.1775 H   0  0  0  0  0  0  0  0  0  0  0  0
  148.5063  142.7327  153.9246 H   0  0  0  0  0  0  0  0  0  0  0  0
  148.1160  139.7517  154.2885 H   0  0  0  0  0  0  0  0  0  0  0  0
  149.7556  140.2844  152.9760 H   0  0  0  0  0  0  0  0  0  0  0  0
  153.3824  141.8280  158.4476 H   0  0  0  0  0  0  0  0  0  0  0  0
  154.8276  141.4523  160.4597 H   0  0  0  0  0  0  0  0  0  0  0  0
  153.8816  141.9389  162.7351 H   0  0  0  0  0  0  0  0  0  0  0  0
  151.5229  142.7747  162.8956 H   0  0  0  0  0  0  0  0  0  0  0  0
  1  2  2  0  0  0  0
  2  3  1  0  0  0  0
  2 10  1  0  0  0  0
  3  4  1  0  0  0  0
  4  8  1  0  0  0  0
  4  5  1  0  0  0  0
  4 19  1  0  0  0  0
  5  6  1  0  0  0  0
  5 20  1  0  0  0  0
  5 21  1  0  0  0  0
  6  7  1  0  0  0  0
  6 22  1  0  0  0  0
  6 23  1  0  0  0  0
  7  8  1  0  0  0  0
  7 24  1  0  0  0  0
  7 25  1  0  0  0  0
  8  9  1  0  0  0  0
  8 26  1  0  0  0  0
  9 27  1  0  0  0  0
 10 11  1  0  0  0  0
 10 12  1  0  0  0  0
 10 13  1  0  0  0  0
 13 18  1  0  0  0  0
 13 14  2  0  0  0  0
 14 15  1  0  0  0  0
 14 28  1  0  0  0  0
 15 16  2  0  0  0  0
 15 29  1  0  0  0  0
 16 17  1  0  0  0  0
 16 30  1  0  0  0  0
 17 18  2  0  0  0  0
 17 31  1  0  0  0  0
M  CHG  1   3  -1
M  END
> <s_m_source_file>
AV-unprocessed.smi

> <i_m_source_file_index>
2807

> <i_lp_mmshare_version>
43012

> <i_f3d_flags>
0

> <s_epik_input>
bjFbY0hdW2NIXVtjSF1bY0hdYzFDKEYpKEYpQyg9TylbTkhdW0NAQEhdMltDSDJdW0NIMl1bQ0gyXVtDQEhdMltPSF0=

> <s_epik_cmdline>
J2VwaWtfcHl0aG9uJywgJy1waCcsICc3LjAnLCAnLXRuJywgJzgnLCAnLW1hJywgJzIwMCcsICctbWV0YWxfYmluZGluZycsICctaW1hZScsICc8aW5maWxlLm1hZT4nLCAnLW9tYWUnLCAnPG91dGZpbGUubWFlPic=

> <r_lp_tautomer_probability>
1

> <r_epik_Ionization_Penalty>
5.72231

> <r_epik_Ionization_Penalty_Charging>
5.72231

> <r_epik_Ionization_Penalty_Neutral>
5.49816e-06

> <r_epik_State_Penalty>
5.72227

> <r_epik_Charging_Adjusted_Penalty>
11.4446

> <i_epik_Tot_Q>
-1

> <i_epik_Tot_abs_Q>
1

> <r_epik_Metal_State_Penalty>
1.70075

> <b_epik_Metal_Only>
1

> <s_lp_Force_Field>
OPLS_2005

> <r_lp_Energy>
37.2022

> <b_lp_Chiralities_Consistent>
1

> <s_lp_Variant>
AV-unprocessed.smi:2807-6

> <Gold.Version>
5.8.1

> <Gold.Id.Protein>
6NUR|6NUR_protein|mol2

> <Gold.PLP.Fitness>
41.6620

> <Gold.PLP.PLP>
-38.0509

> <Gold.PLP.part.hbond>
-3.0000

> <Gold.PLP.part.metal>
0.0000

> <Gold.PLP.part.buried>
-4.6398

> <Gold.PLP.part.nonpolar>
-31.1078

> <Gold.PLP.part.repulsive>
0.1689

> <Gold.PLP.ligand.clash>
0.0000

> <Gold.PLP.ligand.torsion>
0.7270

> <Gold.PLP.Chemscore.Hbond>
1.6696

> <Gold.PLP.Chemscore.CHOScore>
0.0000

> <Gold.PLP.Chemscore.Metal>
0.0000

> <Gold.Chemscore.Hbonds>
donor molecule, donor type, donor heavy atom, donor atom, acceptor molecule, acceptor atom, score
      L1  H     9    27       P1  7957  1.00
      P1  H  7989  7998       L1     9  0.34

> <Gold.PLP.Chemscore.Internal.Correction>
0.0563

> <Gold.Rescore>
     Score         DG    S(hbond)    S(metal)    S(lipo)     H(rot)  DE(clash)    DE(int)     intcor
     11.95     -15.04       1.17        0.00      91.97       2.00       1.05       2.05       ----

> <Gold.Chemscore.Fitness>
11.9458

> <Gold.Chemscore.DG>
-15.0421

> <Gold.Chemscore.ZeroCoef>
-5.4800

> <Gold.Chemscore.Hbond>
1.1714

> <Gold.Chemscore.Metal>
0.0000

> <Gold.Chemscore.Lipo>
91.9701

> <Gold.Chemscore.Internal_Hbond>
0.0000

> <Gold.Chemscore.DEClash>
1.0511

> <Gold.Chemscore.DEInternal>
2.0452

> <Gold.Chemscore.Rot>
1.9964

> <Gold.Chemscore.Internal.Correction>
   9.000000E+99

> <Gold.Chemscore.Hbonds>
donor molecule, donor type, donor heavy atom, donor atom, acceptor molecule, acceptor atom, score
      L1  H     9    27       P1  7957  1.00
      P1  H  7989  7998       L1     9  0.02

> <Gold.Chemscore.Hbond.Weighted>
-3.9125

> <Gold.Chemscore.Metal.Weighted>
-0.0000

> <Gold.Chemscore.Lipo.Weighted>
-10.7605

> <Gold.Chemscore.Internal_Hbond.Weighted>
0.0000

> <Gold.Chemscore.DEClash.Weighted>
1.0511

> <Gold.Chemscore.DEInternal.Weighted>
2.0452

> <Gold.Chemscore.Rot.Weighted>
5.1108

> <Gold.Chemscore.Internal.Correction.Weighted>
   9.000000E+99

> <Gold.Protein.RotatedTorsions>
[ 6907 6896 6895 6894 ] final   90.33 input  -60.11 | X-H torsion
[ 7974 7965 7964 7962 ] final -168.66 input  175.53 | X-H torsion
[ 8008 7997 7996 7995 ] final   17.30 input   59.86 | X-H torsion
[ 10167 10162 10161 10158 ] final  -68.32 input  -65.29 | X-H torsion
[ 10718 10713 10712 10709 ] final -103.74 input   66.30 | X-H torsion
[ 10763 10752 10751 10750 ] final -120.00 input  -60.55 | X-H torsion
[ 11005 11000 10999 10996 ] final  -93.57 input  -57.11 | X-H torsion

> <Gold.Protein.ActiveResidues>
 VAL166  LYS551  ARG553  GLY616  TRP617  ASP618  TYR619  PRO620  LYS621  CYS622 
 ASP623  PHE694  ASN695  SER759  ASP760  ASP761  ALA762  ILE779  LEU786  VAL792 
 PHE793  MET794  SER795  GLU796  ALA797  LYS798  CYS799  TRP800  GLU811  SER814 

> <Gold.Protein.RotatedAtoms>
  152.5443  134.1828  159.8642 H   0  0  0  0  0  0  0  0  0  0  0  0  # atno 6907 bound_to 6896
  151.1830  133.4707  159.2601 H   0  0  0  0  0  0  0  0  0  0  0  0  # atno 6908 bound_to 6896
  151.1160  135.0064  159.8571 H   0  0  0  0  0  0  0  0  0  0  0  0  # atno 6909 bound_to 6896
  144.7199  140.2337  143.6301 H   0  0  0  0  0  0  0  0  0  0  0  0  # atno 7974 bound_to 7965
  154.8894  140.2984  155.5379 H   0  0  0  0  0  0  0  0  0  0  0  0  # atno 8008 bound_to 7997
  156.3021  140.2427  156.3841 H   0  0  0  0  0  0  0  0  0  0  0  0  # atno 8009 bound_to 7997
  154.8635  140.0404  157.1669 H   0  0  0  0  0  0  0  0  0  0  0  0  # atno 8010 bound_to 7997
  140.5516  143.2312  151.6900 H   0  0  0  0  0  0  0  0  0  0  0  0  # atno 10167 bound_to 10162
  156.0277  130.5482  150.7297 H   0  0  0  0  0  0  0  0  0  0  0  0  # atno 10718 bound_to 10713
  154.8632  135.4218  154.2389 H   0  0  0  0  0  0  0  0  0  0  0  0  # atno 10763 bound_to 10752
  153.3358  135.6991  153.6914 H   0  0  0  0  0  0  0  0  0  0  0  0  # atno 10764 bound_to 10752
  153.5912  135.3554  155.2884 H   0  0  0  0  0  0  0  0  0  0  0  0  # atno 10765 bound_to 10752
  141.1494  133.7896  157.0177 H   0  0  0  0  0  0  0  0  0  0  0  0  # atno 11005 bound_to 11000
  145.8386  139.2119  143.1840 LP  0  0  0  0  0  0  0  0  0  0  0  0  # atno 17320 bound_to 7965
  146.0366  140.8206  142.9849 LP  0  0  0  0  0  0  0  0  0  0  0  0  # atno 17321 bound_to 7965
  139.5030  144.3808  152.0378 LP  0  0  0  0  0  0  0  0  0  0  0  0  # atno 17342 bound_to 10162
  140.2926  144.3737  150.6084 LP  0  0  0  0  0  0  0  0  0  0  0  0  # atno 17343 bound_to 10162
  157.4892  131.0909  151.0446 LP  0  0  0  0  0  0  0  0  0  0  0  0  # atno 17370 bound_to 10713
  157.0858  130.5922  149.5429 LP  0  0  0  0  0  0  0  0  0  0  0  0  # atno 17371 bound_to 10713
  140.0836  134.9634  157.1664 LP  0  0  0  0  0  0  0  0  0  0  0  0  # atno 17394 bound_to 11000
  140.3542  134.2565  155.7194 LP  0  0  0  0  0  0  0  0  0  0  0  0  # atno 17395 bound_to 11000

$$$$
