AV-unprocessed.smi:1809|AV-procd|sdf|7332|dock2
  -GOLD-   22720 8593D 1   1.00000     0.00000
 Structure written by MMmdl.
 38 40  0  0  0  0  0  0  0  0  2 V2000
  146.8555  133.6073  162.0972 C   0  0  0  0  0  0  0  0  0  0  0  0
  147.3109  134.8813  161.4720 C   0  0  0  0  0  0  0  0  0  0  0  0
  147.2065  136.0635  162.0839 N   0  0  0  0  0  0  0  0  0  0  0  0
  147.6966  137.1011  161.3037 N   0  0  0  0  0  0  0  0  0  0  0  0
  148.1734  136.6889  160.1202 C   0  0  0  0  0  0  0  0  0  0  0  0
  148.6883  137.5374  159.2150 N   0  5  0  0  0  0  0  0  0  0  0  0
  149.9555  137.3679  158.7734 C   0  0  0  0  0  0  0  0  0  0  0  0
  150.5116  136.2915  158.5423 O   0  0  0  0  0  0  0  0  0  0  0  0
  150.6205  138.5151  158.5857 N   0  0  0  0  0  0  0  0  0  0  0  0
  151.9951  138.6201  158.1137 C   0  0  0  0  0  0  0  0  0  0  0  0
  152.5505  140.0295  158.3607 C   0  0  1  0  0  0  0  0  0  0  0  0
  151.6308  141.1214  157.7663 C   0  0  0  0  0  0  0  0  0  0  0  0
  152.1224  142.4361  158.1320 N   0  0  0  0  0  0  0  0  0  0  0  0
  151.3270  143.5697  157.7215 C   0  0  0  0  0  0  0  0  0  0  0  0
  151.8528  144.7326  158.5817 C   0  0  0  0  0  0  0  0  0  0  0  0
  152.5507  144.0438  159.7761 C   0  0  0  0  0  0  0  0  0  0  0  0
  152.2092  142.5684  159.5613 C   0  0  2  0  0  0  0  0  0  0  0  0
  153.1673  141.5214  160.1461 C   0  0  0  0  0  0  0  0  0  0  0  0
  152.6830  140.2288  159.7747 O   0  0  0  0  0  0  0  0  0  0  0  0
  148.0301  134.9487  159.8721 S   0  0  0  0  0  0  0  0  0  0  0  0
  147.5712  133.2878  162.8548 H   0  0  0  0  0  0  0  0  0  0  0  0
  146.7705  132.8245  161.3433 H   0  0  0  0  0  0  0  0  0  0  0  0
  145.8817  133.7446  162.5679 H   0  0  0  0  0  0  0  0  0  0  0  0
  150.1335  139.3778  158.7798 H   0  0  0  0  0  0  0  0  0  0  0  0
  152.6032  137.8827  158.6397 H   0  0  0  0  0  0  0  0  0  0  0  0
  152.0412  138.3783  157.0507 H   0  0  0  0  0  0  0  0  0  0  0  0
  153.5383  140.1100  157.9033 H   0  0  0  0  0  0  0  0  0  0  0  0
  151.5894  141.0289  156.6806 H   0  0  0  0  0  0  0  0  0  0  0  0
  150.6126  140.9888  158.1355 H   0  0  0  0  0  0  0  0  0  0  0  0
  151.4198  143.7614  156.6523 H   0  0  0  0  0  0  0  0  0  0  0  0
  150.2737  143.3905  157.9437 H   0  0  0  0  0  0  0  0  0  0  0  0
  152.5673  145.3389  158.0240 H   0  0  0  0  0  0  0  0  0  0  0  0
  151.0390  145.3838  158.9024 H   0  0  0  0  0  0  0  0  0  0  0  0
  153.6288  144.2024  159.7246 H   0  0  0  0  0  0  0  0  0  0  0  0
  152.1987  144.4118  160.7402 H   0  0  0  0  0  0  0  0  0  0  0  0
  151.2204  142.3933  159.9910 H   0  0  0  0  0  0  0  0  0  0  0  0
  154.1830  141.6609  159.7724 H   0  0  0  0  0  0  0  0  0  0  0  0
  153.2048  141.5951  161.2331 H   0  0  0  0  0  0  0  0  0  0  0  0
  1  2  1  0  0  0  0
  1 21  1  0  0  0  0
  1 22  1  0  0  0  0
  1 23  1  0  0  0  0
  2 20  1  0  0  0  0
  2  3  2  0  0  0  0
  3  4  1  0  0  0  0
  4  5  2  0  0  0  0
  5  6  1  0  0  0  0
  5 20  1  0  0  0  0
  6  7  1  0  0  0  0
  7  8  2  0  0  0  0
  7  9  1  0  0  0  0
  9 10  1  0  0  0  0
  9 24  1  0  0  0  0
 10 11  1  0  0  0  0
 10 25  1  0  0  0  0
 10 26  1  0  0  0  0
 11 19  1  0  0  0  0
 11 12  1  0  0  0  0
 11 27  1  0  0  0  0
 12 13  1  0  0  0  0
 12 28  1  0  0  0  0
 12 29  1  0  0  0  0
 13 17  1  0  0  0  0
 13 14  1  0  0  0  0
 14 15  1  0  0  0  0
 14 30  1  0  0  0  0
 14 31  1  0  0  0  0
 15 16  1  0  0  0  0
 15 32  1  0  0  0  0
 15 33  1  0  0  0  0
 16 17  1  0  0  0  0
 16 34  1  0  0  0  0
 16 35  1  0  0  0  0
 17 18  1  0  0  0  0
 17 36  1  0  0  0  0
 18 19  1  0  0  0  0
 18 37  1  0  0  0  0
 18 38  1  0  0  0  0
M  CHG  1   6  -1
M  END
> <s_m_source_file>
AV-unprocessed.smi

> <i_m_source_file_index>
1809

> <i_lp_mmshare_version>
43012

> <i_f3d_flags>
0

> <s_epik_input>
W0NIM11jMW5uYyhzMSlbTkhdQyg9TylbTkhdW0NIMl1bQ0BIXShbQ0gyXTIpT1tDSDJdW0NAQEhdKE4yMylbQ0gyXVtDSDJdW0NIMl0z

> <s_epik_cmdline>
J2VwaWtfcHl0aG9uJywgJy1waCcsICc3LjAnLCAnLXRuJywgJzgnLCAnLW1hJywgJzIwMCcsICctbWV0YWxfYmluZGluZycsICctaW1hZScsICc8aW5maWxlLm1hZT4nLCAnLW9tYWUnLCAnPG91dGZpbGUubWFlPic=

> <r_lp_tautomer_probability>
1

> <r_epik_Ionization_Penalty>
4.48809

> <r_epik_Ionization_Penalty_Charging>
3.27284

> <r_epik_Ionization_Penalty_Neutral>
1.21525

> <r_epik_State_Penalty>
4.69427

> <r_epik_Charging_Adjusted_Penalty>
7.96711

> <i_epik_Tot_Q>
-1

> <i_epik_Tot_abs_Q>
1

> <r_epik_Metal_State_Penalty>
1.91976

> <b_epik_Metal_Only>
1

> <s_lp_Force_Field>
OPLS_2005

> <r_lp_Energy>
45.7242

> <b_lp_Chiralities_Consistent>
1

> <s_lp_Variant>
AV-unprocessed.smi:1809-24

> <Gold.Version>
5.8.1

> <Gold.Id.Protein>
6NUR|6NUR_protein|mol2

> <Gold.PLP.Fitness>
46.4501

> <Gold.PLP.PLP>
-40.1966

> <Gold.PLP.part.hbond>
-4.2218

> <Gold.PLP.part.metal>
0.0000

> <Gold.PLP.part.buried>
-3.7340

> <Gold.PLP.part.nonpolar>
-32.5309

> <Gold.PLP.part.repulsive>
0.1790

> <Gold.PLP.ligand.clash>
0.0000

> <Gold.PLP.ligand.torsion>
0.9441

> <Gold.PLP.Chemscore.Hbond>
2.7056

> <Gold.PLP.Chemscore.CHOScore>
0.0000

> <Gold.PLP.Chemscore.Metal>
0.0000

> <Gold.Chemscore.Hbonds>
donor molecule, donor type, donor heavy atom, donor atom, acceptor molecule, acceptor atom, score
      P1  H  6896  6909       L1     8  0.91
      P1  H  6931  6943       L1     4  1.00
      P1  H  6934  6947       L1     4  0.85

> <Gold.PLP.Chemscore.Internal.Correction>
0.0250

> <Gold.Rescore>
     Score         DG    S(hbond)    S(metal)    S(lipo)     H(rot)  DE(clash)    DE(int)     intcor
     19.20     -20.31       2.20        0.00      92.42       1.31       0.01       1.11       ----

> <Gold.Chemscore.Fitness>
19.1997

> <Gold.Chemscore.DG>
-20.3130

> <Gold.Chemscore.ZeroCoef>
-5.4800

> <Gold.Chemscore.Hbond>
2.2040

> <Gold.Chemscore.Metal>
0.0000

> <Gold.Chemscore.Lipo>
92.4176

> <Gold.Chemscore.Internal_Hbond>
0.0000

> <Gold.Chemscore.DEClash>
0.0052

> <Gold.Chemscore.DEInternal>
1.1080

> <Gold.Chemscore.Rot>
1.3051

> <Gold.Chemscore.Internal.Correction>
   9.000000E+99

> <Gold.Chemscore.Hbonds>
donor molecule, donor type, donor heavy atom, donor atom, acceptor molecule, acceptor atom, score
      P1  H  6896  6909       L1     8  0.90
      P1  H  6931  6943       L1     4  0.37
      P1  H  6934  6947       L1     4  0.31

> <Gold.Chemscore.Hbond.Weighted>
-7.3613

> <Gold.Chemscore.Metal.Weighted>
-0.0000

> <Gold.Chemscore.Lipo.Weighted>
-10.8129

> <Gold.Chemscore.Internal_Hbond.Weighted>
0.0000

> <Gold.Chemscore.DEClash.Weighted>
0.0052

> <Gold.Chemscore.DEInternal.Weighted>
1.1080

> <Gold.Chemscore.Rot.Weighted>
3.3412

> <Gold.Chemscore.Internal.Correction.Weighted>
   9.000000E+99

> <Gold.Protein.RotatedTorsions>
[ 6907 6896 6895 6894 ] final   73.47 input  -60.11 | X-H torsion
[ 7974 7965 7964 7962 ] final  -50.99 input  175.53 | X-H torsion
[ 8008 7997 7996 7995 ] final  -57.04 input   59.86 | X-H torsion
[ 10167 10162 10161 10158 ] final  -65.91 input  -65.29 | X-H torsion
[ 10718 10713 10712 10709 ] final -139.13 input   66.30 | X-H torsion
[ 10763 10752 10751 10750 ] final  -62.58 input  -60.55 | X-H torsion
[ 11005 11000 10999 10996 ] final  -71.26 input  -57.11 | X-H torsion

> <Gold.Protein.ActiveResidues>
 VAL166  LYS551  ARG553  GLY616  TRP617  ASP618  TYR619  PRO620  LYS621  CYS622 
 ASP623  PHE694  ASN695  SER759  ASP760  ASP761  ALA762  ILE779  LEU786  VAL792 
 PHE793  MET794  SER795  GLU796  ALA797  LYS798  CYS799  TRP800  GLU811  SER814 

> <Gold.Protein.RotatedAtoms>
  152.4925  134.4416  159.9545 H   0  0  0  0  0  0  0  0  0  0  0  0  # atno 6907 bound_to 6896
  151.4401  133.3640  159.2788 H   0  0  0  0  0  0  0  0  0  0  0  0  # atno 6908 bound_to 6896
  150.9094  134.8533  159.7475 H   0  0  0  0  0  0  0  0  0  0  0  0  # atno 6909 bound_to 6896
  145.9238  140.7810  142.9634 H   0  0  0  0  0  0  0  0  0  0  0  0  # atno 7974 bound_to 7965
  154.4253  140.1116  156.5734 H   0  0  0  0  0  0  0  0  0  0  0  0  # atno 8008 bound_to 7997
  155.6188  140.3495  155.4626 H   0  0  0  0  0  0  0  0  0  0  0  0  # atno 8009 bound_to 7997
  156.0041  140.1205  157.0508 H   0  0  0  0  0  0  0  0  0  0  0  0  # atno 8010 bound_to 7997
  140.5695  143.2317  151.6566 H   0  0  0  0  0  0  0  0  0  0  0  0  # atno 10167 bound_to 10162
  156.3072  130.7462  151.1528 H   0  0  0  0  0  0  0  0  0  0  0  0  # atno 10718 bound_to 10713
  154.3020  135.6233  153.5428 H   0  0  0  0  0  0  0  0  0  0  0  0  # atno 10763 bound_to 10752
  152.9839  135.5680  154.5273 H   0  0  0  0  0  0  0  0  0  0  0  0  # atno 10764 bound_to 10752
  154.4906  135.2867  155.1476 H   0  0  0  0  0  0  0  0  0  0  0  0  # atno 10765 bound_to 10752
  141.1589  133.6812  156.6878 H   0  0  0  0  0  0  0  0  0  0  0  0  # atno 11005 bound_to 11000
  144.6756  140.2018  143.7386 LP  0  0  0  0  0  0  0  0  0  0  0  0  # atno 17320 bound_to 7965
  145.8515  139.2178  143.1769 LP  0  0  0  0  0  0  0  0  0  0  0  0  # atno 17321 bound_to 7965
  139.5110  144.3523  152.0640 LP  0  0  0  0  0  0  0  0  0  0  0  0  # atno 17342 bound_to 10162
  140.2659  144.4017  150.6168 LP  0  0  0  0  0  0  0  0  0  0  0  0  # atno 17343 bound_to 10162
  157.7382  131.0543  150.5306 LP  0  0  0  0  0  0  0  0  0  0  0  0  # atno 17370 bound_to 10713
  156.5441  130.4215  149.6139 LP  0  0  0  0  0  0  0  0  0  0  0  0  # atno 17371 bound_to 10713
  140.3053  134.8130  157.4132 LP  0  0  0  0  0  0  0  0  0  0  0  0  # atno 17394 bound_to 11000
  140.1226  134.5200  155.8171 LP  0  0  0  0  0  0  0  0  0  0  0  0  # atno 17395 bound_to 11000

$$$$
