AV-unprocessed.smi:2340|AV-procd|sdf|9347|dock1
  -GOLD-   2272012563D 1   1.00000     0.00000
 Structure written by MMmdl.
 40 41  0  0  0  0  0  0  0  0  1 V2000
  152.0803  144.9447  159.4262 C   0  0  0  0  0  0  0  0  0  0  0  0
  152.1652  143.4610  159.2554 C   0  0  0  0  0  0  0  0  0  0  0  0
  153.0311  142.6036  159.8868 C   0  0  0  0  0  0  0  0  0  0  0  0
  152.7984  140.9543  159.3768 S   0  0  0  0  0  0  0  0  0  0  0  0
  151.5100  141.4979  158.3073 C   0  0  0  0  0  0  0  0  0  0  0  0
  150.7557  140.5769  157.3966 C   0  0  1  0  0  0  0  0  0  0  0  0
  150.8369  141.0251  155.9302 C   0  0  0  0  0  0  0  0  0  0  0  0
  151.1247  139.0901  157.5914 C   0  0  0  0  0  0  0  0  0  0  0  0
  150.1811  138.3943  158.4651 N   0  0  0  0  0  0  0  0  0  0  0  0
  150.2573  137.1048  158.8254 C   0  0  0  0  0  0  0  0  0  0  0  0
  151.1192  136.3231  158.4241 O   0  0  0  0  0  0  0  0  0  0  0  0
  149.2855  136.7729  159.6863 N   0  0  0  0  0  0  0  0  0  0  0  0
  149.1175  135.4575  160.3049 C   0  0  1  0  0  0  0  0  0  0  0  0
  149.1478  135.5738  161.8281 C   0  0  0  0  0  0  0  0  0  0  0  0
  147.9177  134.7974  162.2858 C   0  0  0  0  0  0  0  0  0  0  0  0
  147.0090  134.9650  161.2123 O   0  0  0  0  0  0  0  0  0  0  0  0
  147.7480  134.8021  160.0106 C   0  0  1  0  0  0  0  0  0  0  0  0
  146.9414  135.3409  158.8180 C   0  0  0  0  0  0  0  0  0  0  0  0
  151.3001  142.8163  158.3678 N   0  0  0  0  0  0  0  0  0  0  0  0
  152.8047  145.3049  160.1571 H   0  0  0  0  0  0  0  0  0  0  0  0
  151.0897  145.2459  159.7668 H   0  0  0  0  0  0  0  0  0  0  0  0
  152.2787  145.4589  158.4856 H   0  0  0  0  0  0  0  0  0  0  0  0
  153.7928  142.8413  160.6144 H   0  0  0  0  0  0  0  0  0  0  0  0
  149.7063  140.6698  157.6795 H   0  0  0  0  0  0  0  0  0  0  0  0
  150.4763  142.0474  155.8115 H   0  0  0  0  0  0  0  0  0  0  0  0
  150.2298  140.3844  155.2900 H   0  0  0  0  0  0  0  0  0  0  0  0
  151.8619  140.9876  155.5605 H   0  0  0  0  0  0  0  0  0  0  0  0
  151.1279  138.5814  156.6271 H   0  0  0  0  0  0  0  0  0  0  0  0
  152.1413  139.0064  157.9797 H   0  0  0  0  0  0  0  0  0  0  0  0
  149.4293  138.9479  158.8490 H   0  0  0  0  0  0  0  0  0  0  0  0
  148.6205  137.4851  159.9501 H   0  0  0  0  0  0  0  0  0  0  0  0
  149.9126  134.7841  159.9792 H   0  0  0  0  0  0  0  0  0  0  0  0
  150.0679  135.1817  162.2622 H   0  0  0  0  0  0  0  0  0  0  0  0
  149.0527  136.6141  162.1432 H   0  0  0  0  0  0  0  0  0  0  0  0
  148.1481  133.7378  162.4073 H   0  0  0  0  0  0  0  0  0  0  0  0
  147.5083  135.1706  163.2246 H   0  0  0  0  0  0  0  0  0  0  0  0
  147.9031  133.7309  159.8684 H   0  0  0  0  0  0  0  0  0  0  0  0
  147.4987  135.2363  157.8869 H   0  0  0  0  0  0  0  0  0  0  0  0
  146.6875  136.3934  158.9463 H   0  0  0  0  0  0  0  0  0  0  0  0
  146.0068  134.7911  158.7063 H   0  0  0  0  0  0  0  0  0  0  0  0
  1  2  1  0  0  0  0
  1 20  1  0  0  0  0
  1 21  1  0  0  0  0
  1 22  1  0  0  0  0
  2 19  1  0  0  0  0
  2  3  2  0  0  0  0
  3  4  1  0  0  0  0
  3 23  1  0  0  0  0
  4  5  1  0  0  0  0
  5  6  1  0  0  0  0
  5 19  2  0  0  0  0
  6  7  1  0  0  0  0
  6  8  1  0  0  0  0
  6 24  1  0  0  0  0
  7 25  1  0  0  0  0
  7 26  1  0  0  0  0
  7 27  1  0  0  0  0
  8  9  1  0  0  0  0
  8 28  1  0  0  0  0
  8 29  1  0  0  0  0
  9 10  1  0  0  0  0
  9 30  1  0  0  0  0
 10 11  2  0  0  0  0
 10 12  1  0  0  0  0
 12 13  1  0  0  0  0
 12 31  1  0  0  0  0
 13 17  1  0  0  0  0
 13 14  1  0  0  0  0
 13 32  1  0  0  0  0
 14 15  1  0  0  0  0
 14 33  1  0  0  0  0
 14 34  1  0  0  0  0
 15 16  1  0  0  0  0
 15 35  1  0  0  0  0
 15 36  1  0  0  0  0
 16 17  1  0  0  0  0
 17 18  1  0  0  0  0
 17 37  1  0  0  0  0
 18 38  1  0  0  0  0
 18 39  1  0  0  0  0
 18 40  1  0  0  0  0
M  END
> <s_m_source_file>
AV-unprocessed.smi

> <i_m_source_file_index>
2340

> <i_lp_mmshare_version>
43012

> <i_f3d_flags>
0

> <s_epik_input>
W0NIM11jMVtjSF1zYyhuMSlbQ0BIXShbQ0gzXSlbQ0gyXVtOSF1DKD1PKVtOSF1bQ0BASF0yW0NIMl1bQ0gyXU9bQ0BIXTJbQ0gzXQ==

> <s_epik_cmdline>
J2VwaWtfcHl0aG9uJywgJy1waCcsICc3LjAnLCAnLXRuJywgJzgnLCAnLW1hJywgJzIwMCcsICctbWV0YWxfYmluZGluZycsICctaW1hZScsICc8aW5maWxlLm1hZT4nLCAnLW9tYWUnLCAnPG91dGZpbGUubWFlPic=

> <r_epik_Ionization_Penalty>
0.00156622

> <r_epik_Ionization_Penalty_Charging>
0

> <r_epik_Ionization_Penalty_Neutral>
0.00156622

> <r_epik_State_Penalty>
0.00101902

> <r_epik_Charging_Adjusted_Penalty>
0.00101902

> <i_epik_Tot_Q>
0

> <i_epik_Tot_abs_Q>
0

> <r_epik_Metal_State_Penalty>
-0

> <b_epik_Metal_Only>
0

> <s_lp_Force_Field>
OPLS_2005

> <r_lp_Energy>
5.75985

> <b_lp_Chiralities_Consistent>
1

> <s_lp_Variant>
AV-unprocessed.smi:2340-4

> <Gold.Version>
5.8.1

> <Gold.Id.Protein>
6NUR|6NUR_protein|mol2

> <Gold.PLP.Fitness>
38.0240

> <Gold.PLP.PLP>
-36.1514

> <Gold.PLP.part.hbond>
-1.0000

> <Gold.PLP.part.metal>
0.0000

> <Gold.PLP.part.buried>
-4.8513

> <Gold.PLP.part.nonpolar>
-30.8808

> <Gold.PLP.part.repulsive>
0.8769

> <Gold.PLP.ligand.clash>
0.0000

> <Gold.PLP.ligand.torsion>
0.6275

> <Gold.PLP.Chemscore.Hbond>
1.0000

> <Gold.PLP.Chemscore.CHOScore>
0.0000

> <Gold.PLP.Chemscore.Metal>
0.0000

> <Gold.Chemscore.Hbonds>
donor molecule, donor type, donor heavy atom, donor atom, acceptor molecule, acceptor atom, score
      P1  H  6896  6907       L1    11  0.58

> <Gold.PLP.Chemscore.Internal.Correction>
0.1277

> <Gold.Rescore>
     Score         DG    S(hbond)    S(metal)    S(lipo)     H(rot)  DE(clash)    DE(int)     intcor
     15.18     -16.15       0.98        0.00      96.86       1.53       0.31       0.66       ----

> <Gold.Chemscore.Fitness>
15.1774

> <Gold.Chemscore.DG>
-16.1473

> <Gold.Chemscore.ZeroCoef>
-5.4800

> <Gold.Chemscore.Hbond>
0.9755

> <Gold.Chemscore.Metal>
0.0000

> <Gold.Chemscore.Lipo>
96.8597

> <Gold.Chemscore.Internal_Hbond>
0.0000

> <Gold.Chemscore.DEClash>
0.3149

> <Gold.Chemscore.DEInternal>
0.6550

> <Gold.Chemscore.Rot>
1.5325

> <Gold.Chemscore.Internal.Correction>
   9.000000E+99

> <Gold.Chemscore.Hbonds>
donor molecule, donor type, donor heavy atom, donor atom, acceptor molecule, acceptor atom, score
      P1  H  6896  6907       L1    11  0.14

> <Gold.Chemscore.Hbond.Weighted>
-3.2581

> <Gold.Chemscore.Metal.Weighted>
-0.0000

> <Gold.Chemscore.Lipo.Weighted>
-11.3326

> <Gold.Chemscore.Internal_Hbond.Weighted>
0.0000

> <Gold.Chemscore.DEClash.Weighted>
0.3149

> <Gold.Chemscore.DEInternal.Weighted>
0.6550

> <Gold.Chemscore.Rot.Weighted>
3.9233

> <Gold.Chemscore.Internal.Correction.Weighted>
   9.000000E+99

> <Gold.Protein.RotatedTorsions>
[ 6907 6896 6895 6894 ] final  -48.48 input  -60.11 | X-H torsion
[ 7974 7965 7964 7962 ] final   -0.97 input  175.53 | X-H torsion
[ 8008 7997 7996 7995 ] final  -87.91 input   59.86 | X-H torsion
[ 10167 10162 10161 10158 ] final    8.03 input  -65.29 | X-H torsion
[ 10718 10713 10712 10709 ] final   10.92 input   66.30 | X-H torsion
[ 10763 10752 10751 10750 ] final  115.99 input  -60.55 | X-H torsion
[ 11005 11000 10999 10996 ] final  -16.35 input  -57.11 | X-H torsion

> <Gold.Protein.ActiveResidues>
 VAL166  LYS551  ARG553  GLY616  TRP617  ASP618  TYR619  PRO620  LYS621  CYS622 
 ASP623  PHE694  ASN695  SER759  ASP760  ASP761  ALA762  ILE779  LEU786  VAL792 
 PHE793  MET794  SER795  GLU796  ALA797  LYS798  CYS799  TRP800  GLU811  SER814 

> <Gold.Protein.RotatedAtoms>
  150.8901  134.8303  159.7286 H   0  0  0  0  0  0  0  0  0  0  0  0  # atno 6907 bound_to 6896
  152.4832  134.4662  159.9630 H   0  0  0  0  0  0  0  0  0  0  0  0  # atno 6908 bound_to 6896
  151.4725  133.3526  159.2861 H   0  0  0  0  0  0  0  0  0  0  0  0  # atno 6909 bound_to 6896
  146.2422  140.1350  142.8337 H   0  0  0  0  0  0  0  0  0  0  0  0  # atno 7974 bound_to 7965
  154.6687  140.0560  157.0141 H   0  0  0  0  0  0  0  0  0  0  0  0  # atno 8008 bound_to 7997
  155.1121  140.3239  155.4500 H   0  0  0  0  0  0  0  0  0  0  0  0  # atno 8009 bound_to 7997
  156.2648  140.2012  156.6245 H   0  0  0  0  0  0  0  0  0  0  0  0  # atno 8010 bound_to 7997
  140.6338  143.7934  150.7331 H   0  0  0  0  0  0  0  0  0  0  0  0  # atno 10167 bound_to 10162
  156.9880  130.6031  149.5683 H   0  0  0  0  0  0  0  0  0  0  0  0  # atno 10718 bound_to 10713
  153.5305  135.3579  155.2673 H   0  0  0  0  0  0  0  0  0  0  0  0  # atno 10763 bound_to 10752
  154.8727  135.4067  154.3157 H   0  0  0  0  0  0  0  0  0  0  0  0  # atno 10764 bound_to 10752
  153.3844  135.7069  153.6608 H   0  0  0  0  0  0  0  0  0  0  0  0  # atno 10765 bound_to 10752
  140.8059  133.8178  155.9515 H   0  0  0  0  0  0  0  0  0  0  0  0  # atno 11005 bound_to 11000
  145.0295  140.8859  143.5118 LP  0  0  0  0  0  0  0  0  0  0  0  0  # atno 17320 bound_to 7965
  145.1411  139.2571  143.5489 LP  0  0  0  0  0  0  0  0  0  0  0  0  # atno 17321 bound_to 7965
  140.1551  143.4324  152.2105 LP  0  0  0  0  0  0  0  0  0  0  0  0  # atno 17342 bound_to 10162
  139.5549  144.7366  151.4323 LP  0  0  0  0  0  0  0  0  0  0  0  0  # atno 17343 bound_to 10162
  156.0218  130.5313  150.8297 LP  0  0  0  0  0  0  0  0  0  0  0  0  # atno 17370 bound_to 10713
  157.5479  131.0943  150.9737 LP  0  0  0  0  0  0  0  0  0  0  0  0  # atno 17371 bound_to 10713
  140.9247  134.2097  157.4903 LP  0  0  0  0  0  0  0  0  0  0  0  0  # atno 17394 bound_to 11000
  139.8718  134.9807  156.5088 LP  0  0  0  0  0  0  0  0  0  0  0  0  # atno 17395 bound_to 11000

$$$$
