AV-unprocessed.smi:2331|AV-procd|sdf|9317|dock2
  -GOLD-   2272012533D 1   1.00000     0.00000
 Structure written by MMmdl.
 50 51  0  0  0  0  0  0  0  0  2 V2000
  153.3662  141.5560  161.4513 C   0  0  0  0  0  0  0  0  0  0  0  0
  153.4510  141.1870  159.9554 C   0  0  0  0  0  0  0  0  0  0  0  0
  154.9214  141.3933  159.5169 C   0  0  0  0  0  0  0  0  0  0  0  0
  153.1013  139.6857  159.7852 C   0  0  0  0  0  0  0  0  0  0  0  0
  153.8437  138.8463  160.7213 N   0  0  0  0  0  0  0  0  0  0  0  0
  153.6764  137.5259  160.8962 C   0  0  0  0  0  0  0  0  0  0  0  0
  152.8760  136.8639  160.2355 O   0  0  0  0  0  0  0  0  0  0  0  0
  154.5210  136.9877  161.8086 N   0  0  0  0  0  0  0  0  0  0  0  0
  155.1437  137.7636  162.8912 C   0  0  0  0  0  0  0  0  0  0  0  0
  155.6930  136.7573  163.8999 C   0  0  0  0  0  0  0  0  0  0  0  0
  154.9409  135.4695  163.5969 C   0  0  0  0  0  0  0  0  0  0  0  0
  154.6149  135.5446  162.0940 C   0  0  2  0  0  0  0  0  0  0  0  0
  155.6103  134.7659  161.1648 C   0  0  0  0  0  0  0  0  0  0  0  0
  155.6325  133.2692  161.5339 C   0  0  0  0  0  0  0  0  0  0  0  0
  155.3207  134.8985  159.6563 C   0  0  0  0  0  0  0  0  0  0  0  0
  156.9286  135.2407  161.3631 O   0  0  0  0  0  0  0  0  0  0  0  0
  152.4648  142.0599  159.1527 C   0  0  0  0  0  0  0  0  0  0  0  0
  152.5411  143.4769  159.1286 C   0  0  0  0  0  0  0  0  0  0  0  0
  151.6189  144.2151  158.3594 C   0  0  0  0  0  0  0  0  0  0  0  0
  150.6676  143.5745  157.6487 N   0  3  0  0  0  0  0  0  0  0  0  0
  150.5502  142.2307  157.6365 C   0  0  0  0  0  0  0  0  0  0  0  0
  151.4449  141.4419  158.3868 C   0  0  0  0  0  0  0  0  0  0  0  0
  154.0705  140.9715  162.0445 H   0  0  0  0  0  0  0  0  0  0  0  0
  152.3743  141.3737  161.8648 H   0  0  0  0  0  0  0  0  0  0  0  0
  153.5994  142.6092  161.6122 H   0  0  0  0  0  0  0  0  0  0  0  0
  155.5979  140.7709  160.1040 H   0  0  0  0  0  0  0  0  0  0  0  0
  155.2420  142.4266  159.6558 H   0  0  0  0  0  0  0  0  0  0  0  0
  155.0795  141.1302  158.4703 H   0  0  0  0  0  0  0  0  0  0  0  0
  152.0261  139.5385  159.9041 H   0  0  0  0  0  0  0  0  0  0  0  0
  153.3426  139.3461  158.7775 H   0  0  0  0  0  0  0  0  0  0  0  0
  154.5420  139.3052  161.2874 H   0  0  0  0  0  0  0  0  0  0  0  0
  155.9357  138.4112  162.5121 H   0  0  0  0  0  0  0  0  0  0  0  0
  154.3937  138.3934  163.3732 H   0  0  0  0  0  0  0  0  0  0  0  0
  156.7607  136.6129  163.7330 H   0  0  0  0  0  0  0  0  0  0  0  0
  155.5645  137.0840  164.9321 H   0  0  0  0  0  0  0  0  0  0  0  0
  155.5021  134.5839  163.8929 H   0  0  0  0  0  0  0  0  0  0  0  0
  154.0093  135.4620  164.1646 H   0  0  0  0  0  0  0  0  0  0  0  0
  153.6273  135.1004  161.9549 H   0  0  0  0  0  0  0  0  0  0  0  0
  154.6499  132.8174  161.3948 H   0  0  0  0  0  0  0  0  0  0  0  0
  155.9245  133.1020  162.5702 H   0  0  0  0  0  0  0  0  0  0  0  0
  156.3357  132.7150  160.9107 H   0  0  0  0  0  0  0  0  0  0  0  0
  154.3174  134.5475  159.4148 H   0  0  0  0  0  0  0  0  0  0  0  0
  156.0198  134.3056  159.0653 H   0  0  0  0  0  0  0  0  0  0  0  0
  155.4113  135.9282  159.3102 H   0  0  0  0  0  0  0  0  0  0  0  0
  157.5264  134.6612  160.9159 H   0  0  0  0  0  0  0  0  0  0  0  0
  153.2919  144.0196  159.6821 H   0  0  0  0  0  0  0  0  0  0  0  0
  151.6158  145.2933  158.2910 H   0  0  0  0  0  0  0  0  0  0  0  0
  149.7513  141.8291  157.0301 H   0  0  0  0  0  0  0  0  0  0  0  0
  151.3456  140.3667  158.3652 H   0  0  0  0  0  0  0  0  0  0  0  0
  150.0113  144.1287  157.0981 H   0  0  0  0  0  0  0  0  0  0  0  0
  1  2  1  0  0  0  0
  1 23  1  0  0  0  0
  1 24  1  0  0  0  0
  1 25  1  0  0  0  0
  2  3  1  0  0  0  0
  2  4  1  0  0  0  0
  2 17  1  0  0  0  0
  3 26  1  0  0  0  0
  3 27  1  0  0  0  0
  3 28  1  0  0  0  0
  4  5  1  0  0  0  0
  4 29  1  0  0  0  0
  4 30  1  0  0  0  0
  5  6  1  0  0  0  0
  5 31  1  0  0  0  0
  6  7  2  0  0  0  0
  6  8  1  0  0  0  0
  8 12  1  0  0  0  0
  8  9  1  0  0  0  0
  9 10  1  0  0  0  0
  9 32  1  0  0  0  0
  9 33  1  0  0  0  0
 10 11  1  0  0  0  0
 10 34  1  0  0  0  0
 10 35  1  0  0  0  0
 11 12  1  0  0  0  0
 11 36  1  0  0  0  0
 11 37  1  0  0  0  0
 12 13  1  0  0  0  0
 12 38  1  0  0  0  0
 13 14  1  0  0  0  0
 13 15  1  0  0  0  0
 13 16  1  0  0  0  0
 14 39  1  0  0  0  0
 14 40  1  0  0  0  0
 14 41  1  0  0  0  0
 15 42  1  0  0  0  0
 15 43  1  0  0  0  0
 15 44  1  0  0  0  0
 16 45  1  0  0  0  0
 17 22  1  0  0  0  0
 17 18  2  0  0  0  0
 18 19  1  0  0  0  0
 18 46  1  0  0  0  0
 19 20  2  0  0  0  0
 19 47  1  0  0  0  0
 20 21  1  0  0  0  0
 20 50  1  0  0  0  0
 21 22  2  0  0  0  0
 21 48  1  0  0  0  0
 22 49  1  0  0  0  0
M  CHG  1  20   1
M  END
> <s_m_source_file>
AV-unprocessed.smi

> <i_m_source_file_index>
2331

> <i_lp_mmshare_version>
43012

> <i_f3d_flags>
0

> <s_epik_input>
W2NIXTFbY0hdbltjSF1bY0hdYzFDKFtDSDNdKShbQ0gzXSlbQ0gyXVtOSF1DKD1PKU4yW0NIMl1bQ0gyXVtDSDJdW0NASF0yQyhbQ0gzXSkoW0NIM10pW09IXQ==

> <s_epik_cmdline>
J2VwaWtfcHl0aG9uJywgJy1waCcsICc3LjAnLCAnLXRuJywgJzgnLCAnLW1hJywgJzIwMCcsICctbWV0YWxfYmluZGluZycsICctaW1hZScsICc8aW5maWxlLm1hZT4nLCAnLW9tYWUnLCAnPG91dGZpbGUubWFlPic=

> <r_epik_Ionization_Penalty>
1.40501

> <r_epik_Ionization_Penalty_Charging>
1.40494

> <r_epik_Ionization_Penalty_Neutral>
7.00889e-05

> <r_epik_State_Penalty>
1.48741

> <r_epik_Charging_Adjusted_Penalty>
2.89235

> <i_epik_Tot_Q>
1

> <i_epik_Tot_abs_Q>
1

> <r_epik_Metal_State_Penalty>
1.54092

> <b_epik_Metal_Only>
0

> <s_lp_Force_Field>
OPLS_2005

> <r_lp_Energy>
57.0606

> <b_lp_Chiralities_Consistent>
1

> <s_lp_Variant>
AV-unprocessed.smi:2331-4

> <Gold.Version>
5.8.1

> <Gold.Id.Protein>
6NUR|6NUR_protein|mol2

> <Gold.PLP.Fitness>
53.0362

> <Gold.PLP.PLP>
-44.2125

> <Gold.PLP.part.hbond>
-1.9686

> <Gold.PLP.part.metal>
0.0000

> <Gold.PLP.part.buried>
-5.4021

> <Gold.PLP.part.nonpolar>
-37.0811

> <Gold.PLP.part.repulsive>
0.0395

> <Gold.PLP.ligand.clash>
0.0000

> <Gold.PLP.ligand.torsion>
0.2194

> <Gold.PLP.Chemscore.Hbond>
3.0000

> <Gold.PLP.Chemscore.CHOScore>
0.0000

> <Gold.PLP.Chemscore.Metal>
0.0000

> <Gold.Chemscore.Hbonds>
donor molecule, donor type, donor heavy atom, donor atom, acceptor molecule, acceptor atom, score
      L1  H    20    50       P1  8028  2.00
      P1  H  6896  6908       L1     7  1.00

> <Gold.PLP.Chemscore.Internal.Correction>
0.2624

> <Gold.Rescore>
     Score         DG    S(hbond)    S(metal)    S(lipo)     H(rot)  DE(clash)    DE(int)     intcor
     21.49     -21.87       1.93        0.00     129.08       2.02       0.04       0.34       ----

> <Gold.Chemscore.Fitness>
21.4921

> <Gold.Chemscore.DG>
-21.8726

> <Gold.Chemscore.ZeroCoef>
-5.4800

> <Gold.Chemscore.Hbond>
1.9339

> <Gold.Chemscore.Metal>
0.0000

> <Gold.Chemscore.Lipo>
129.0811

> <Gold.Chemscore.Internal_Hbond>
0.0000

> <Gold.Chemscore.DEClash>
0.0417

> <Gold.Chemscore.DEInternal>
0.3388

> <Gold.Chemscore.Rot>
2.0192

> <Gold.Chemscore.Internal.Correction>
   9.000000E+99

> <Gold.Chemscore.Hbonds>
donor molecule, donor type, donor heavy atom, donor atom, acceptor molecule, acceptor atom, score
      L1  H    20    50       P1  8028  0.82
      P1  H  6896  6908       L1     7  0.96

> <Gold.Chemscore.Hbond.Weighted>
-6.4593

> <Gold.Chemscore.Metal.Weighted>
-0.0000

> <Gold.Chemscore.Lipo.Weighted>
-15.1025

> <Gold.Chemscore.Internal_Hbond.Weighted>
0.0000

> <Gold.Chemscore.DEClash.Weighted>
0.0417

> <Gold.Chemscore.DEInternal.Weighted>
0.3388

> <Gold.Chemscore.Rot.Weighted>
5.1691

> <Gold.Chemscore.Internal.Correction.Weighted>
   9.000000E+99

> <Gold.Protein.RotatedTorsions>
[ 6907 6896 6895 6894 ] final  -94.69 input  -60.11 | X-H torsion
[ 7974 7965 7964 7962 ] final -126.00 input  175.53 | X-H torsion
[ 8008 7997 7996 7995 ] final  142.67 input   59.86 | X-H torsion
[ 10167 10162 10161 10158 ] final -105.53 input  -65.29 | X-H torsion
[ 10718 10713 10712 10709 ] final -123.20 input   66.30 | X-H torsion
[ 10763 10752 10751 10750 ] final   28.37 input  -60.55 | X-H torsion
[ 11005 11000 10999 10996 ] final  112.79 input  -57.11 | X-H torsion

> <Gold.Protein.ActiveResidues>
 VAL166  LYS551  ARG553  GLY616  TRP617  ASP618  TYR619  PRO620  LYS621  CYS622 
 ASP623  PHE694  ASN695  SER759  ASP760  ASP761  ALA762  ILE779  LEU786  VAL792 
 PHE793  MET794  SER795  GLU796  ALA797  LYS798  CYS799  TRP800  GLU811  SER814 

> <Gold.Protein.RotatedAtoms>
  150.6947  134.1774  159.4235 H   0  0  0  0  0  0  0  0  0  0  0  0  # atno 6907 bound_to 6896
  151.9749  135.0055  160.0564 H   0  0  0  0  0  0  0  0  0  0  0  0  # atno 6908 bound_to 6896
  152.1808  133.4671  159.4994 H   0  0  0  0  0  0  0  0  0  0  0  0  # atno 6909 bound_to 6896
  144.9917  140.7738  143.4550 H   0  0  0  0  0  0  0  0  0  0  0  0  # atno 7974 bound_to 7965
  156.2945  140.2283  156.4765 H   0  0  0  0  0  0  0  0  0  0  0  0  # atno 8008 bound_to 7997
  154.7890  140.0455  157.1207 H   0  0  0  0  0  0  0  0  0  0  0  0  # atno 8009 bound_to 7997
  154.9668  140.3061  155.5009 H   0  0  0  0  0  0  0  0  0  0  0  0  # atno 8010 bound_to 7997
  140.1976  143.3843  152.1156 H   0  0  0  0  0  0  0  0  0  0  0  0  # atno 10167 bound_to 10162
  156.1482  130.6515  150.9874 H   0  0  0  0  0  0  0  0  0  0  0  0  # atno 10718 bound_to 10713
  153.0496  135.6515  154.0727 H   0  0  0  0  0  0  0  0  0  0  0  0  # atno 10763 bound_to 10752
  154.0418  135.2903  155.3355 H   0  0  0  0  0  0  0  0  0  0  0  0  # atno 10764 bound_to 10752
  154.6776  135.5332  153.8287 H   0  0  0  0  0  0  0  0  0  0  0  0  # atno 10765 bound_to 10752
  139.8936  134.9537  156.6640 H   0  0  0  0  0  0  0  0  0  0  0  0  # atno 11005 bound_to 11000
  145.2276  139.2130  143.5060 LP  0  0  0  0  0  0  0  0  0  0  0  0  # atno 17320 bound_to 7965
  146.3433  140.2147  142.8590 LP  0  0  0  0  0  0  0  0  0  0  0  0  # atno 17321 bound_to 7965
  139.5230  144.7066  151.5335 LP  0  0  0  0  0  0  0  0  0  0  0  0  # atno 17342 bound_to 10162
  140.6413  143.8884  150.6694 LP  0  0  0  0  0  0  0  0  0  0  0  0  # atno 17343 bound_to 10162
  157.6635  131.0876  150.7784 LP  0  0  0  0  0  0  0  0  0  0  0  0  # atno 17370 bound_to 10713
  156.7854  130.4872  149.5394 LP  0  0  0  0  0  0  0  0  0  0  0  0  # atno 17371 bound_to 10713
  140.7425  133.8966  155.8288 LP  0  0  0  0  0  0  0  0  0  0  0  0  # atno 17394 bound_to 11000
  141.0066  134.1077  157.4264 LP  0  0  0  0  0  0  0  0  0  0  0  0  # atno 17395 bound_to 11000

$$$$
