AV-unprocessed.smi:1157|AV-procd|sdf|4907|dock6
  -GOLD-   22720 3483D 1   1.00000     0.00000
 Structure written by MMmdl.
 55 57  0  0  0  0  0  0  0  0  2 V2000
  147.7483  132.9499  155.5117 C   0  0  0  0  0  0  0  0  0  0  0  0
  147.9591  134.3380  154.8560 C   0  0  0  0  0  0  0  0  0  0  0  0
  147.2623  135.3619  155.7868 C   0  0  0  0  0  0  0  0  0  0  0  0
  149.4787  134.6708  154.7562 C   0  0  0  0  0  0  0  0  0  0  0  0
  149.7593  136.1052  154.6997 N   0  0  0  0  0  0  0  0  0  0  0  0
  150.1900  136.8561  155.7238 C   0  0  0  0  0  0  0  0  0  0  0  0
  150.3861  136.4115  156.8546 O   0  0  0  0  0  0  0  0  0  0  0  0
  150.3467  138.1382  155.3529 N   0  0  0  0  0  0  0  0  0  0  0  0
  150.7810  139.2402  156.1381 C   0  0  0  0  0  0  0  0  0  0  0  0
  151.3689  139.1264  157.4195 C   0  0  0  0  0  0  0  0  0  0  0  0
  151.7755  140.2959  158.0897 C   0  0  0  0  0  0  0  0  0  0  0  0
  151.5955  141.5506  157.4606 C   0  0  0  0  0  0  0  0  0  0  0  0
  151.9838  142.7441  158.1007 N   0  0  0  0  0  0  0  0  0  0  0  0
  152.1939  142.8109  159.5387 C   0  0  0  0  0  0  0  0  0  0  0  0
  152.4562  144.2892  159.8220 C   0  0  0  0  0  0  0  0  0  0  0  0
  151.6078  145.0004  158.7677 C   0  0  0  0  0  0  0  0  0  0  0  0
  151.6339  144.0520  157.5635 C   0  0  0  0  0  0  0  0  0  0  0  0
  151.0383  141.6563  156.2308 N   0  0  0  0  0  0  0  0  0  0  0  0
  150.6517  140.5326  155.5918 C   0  0  0  0  0  0  0  0  0  0  0  0
  147.3039  134.3544  153.4981 N   0  3  0  0  0  0  0  0  0  0  0  0
  147.5679  133.1691  152.6336 C   0  0  0  0  0  0  0  0  0  0  0  0
  147.0030  133.3926  151.2206 C   0  0  0  0  0  0  0  0  0  0  0  0
  145.6103  133.6602  151.2966 O   0  0  0  0  0  0  0  0  0  0  0  0
  145.3430  134.8395  152.0416 C   0  0  0  0  0  0  0  0  0  0  0  0
  145.8459  134.6653  153.4842 C   0  0  0  0  0  0  0  0  0  0  0  0
  148.0110  132.9572  156.5700 H   0  0  0  0  0  0  0  0  0  0  0  0
  148.3645  132.1765  155.0535 H   0  0  0  0  0  0  0  0  0  0  0  0
  146.7068  132.6328  155.4464 H   0  0  0  0  0  0  0  0  0  0  0  0
  147.5711  135.2386  156.8255 H   0  0  0  0  0  0  0  0  0  0  0  0
  146.1778  135.2490  155.7614 H   0  0  0  0  0  0  0  0  0  0  0  0
  147.5002  136.3921  155.5226 H   0  0  0  0  0  0  0  0  0  0  0  0
  150.0339  134.2224  155.5803 H   0  0  0  0  0  0  0  0  0  0  0  0
  149.9017  134.2434  153.8478 H   0  0  0  0  0  0  0  0  0  0  0  0
  149.6199  136.5586  153.8084 H   0  0  0  0  0  0  0  0  0  0  0  0
  150.0694  138.3652  154.4092 H   0  0  0  0  0  0  0  0  0  0  0  0
  151.5279  138.1720  157.8966 H   0  0  0  0  0  0  0  0  0  0  0  0
  152.2150  140.2139  159.0726 H   0  0  0  0  0  0  0  0  0  0  0  0
  151.2939  142.4735  160.0546 H   0  0  0  0  0  0  0  0  0  0  0  0
  153.0297  142.1851  159.8538 H   0  0  0  0  0  0  0  0  0  0  0  0
  152.2017  144.5777  160.8421 H   0  0  0  0  0  0  0  0  0  0  0  0
  153.5110  144.5155  159.6590 H   0  0  0  0  0  0  0  0  0  0  0  0
  150.5843  145.0989  159.1317 H   0  0  0  0  0  0  0  0  0  0  0  0
  151.9744  145.9989  158.5275 H   0  0  0  0  0  0  0  0  0  0  0  0
  152.3994  144.3552  156.8485 H   0  0  0  0  0  0  0  0  0  0  0  0
  150.6701  144.0448  157.0537 H   0  0  0  0  0  0  0  0  0  0  0  0
  150.2196  140.6733  154.6116 H   0  0  0  0  0  0  0  0  0  0  0  0
  148.6336  132.9728  152.5355 H   0  0  0  0  0  0  0  0  0  0  0  0
  147.1137  132.2771  153.0656 H   0  0  0  0  0  0  0  0  0  0  0  0
  147.5183  134.2137  150.7197 H   0  0  0  0  0  0  0  0  0  0  0  0
  147.1572  132.5024  150.6105 H   0  0  0  0  0  0  0  0  0  0  0  0
  145.8123  135.7021  151.5657 H   0  0  0  0  0  0  0  0  0  0  0  0
  144.2681  135.0210  152.0387 H   0  0  0  0  0  0  0  0  0  0  0  0
  145.2830  133.8651  153.9649 H   0  0  0  0  0  0  0  0  0  0  0  0
  145.6255  135.5833  154.0252 H   0  0  0  0  0  0  0  0  0  0  0  0
  147.7397  135.1294  153.0185 H   0  0  0  0  0  0  0  0  0  0  0  0
  1  2  1  0  0  0  0
  1 26  1  0  0  0  0
  1 27  1  0  0  0  0
  1 28  1  0  0  0  0
  2  3  1  0  0  0  0
  2  4  1  0  0  0  0
  2 20  1  0  0  0  0
  3 29  1  0  0  0  0
  3 30  1  0  0  0  0
  3 31  1  0  0  0  0
  4  5  1  0  0  0  0
  4 32  1  0  0  0  0
  4 33  1  0  0  0  0
  5  6  1  0  0  0  0
  5 34  1  0  0  0  0
  6  7  2  0  0  0  0
  6  8  1  0  0  0  0
  8  9  1  0  0  0  0
  8 35  1  0  0  0  0
  9 19  1  0  0  0  0
  9 10  2  0  0  0  0
 10 11  1  0  0  0  0
 10 36  1  0  0  0  0
 11 12  2  0  0  0  0
 11 37  1  0  0  0  0
 12 13  1  0  0  0  0
 12 18  1  0  0  0  0
 13 17  1  0  0  0  0
 13 14  1  0  0  0  0
 14 15  1  0  0  0  0
 14 38  1  0  0  0  0
 14 39  1  0  0  0  0
 15 16  1  0  0  0  0
 15 40  1  0  0  0  0
 15 41  1  0  0  0  0
 16 17  1  0  0  0  0
 16 42  1  0  0  0  0
 16 43  1  0  0  0  0
 17 44  1  0  0  0  0
 17 45  1  0  0  0  0
 18 19  2  0  0  0  0
 19 46  1  0  0  0  0
 20 25  1  0  0  0  0
 20 21  1  0  0  0  0
 20 55  1  0  0  0  0
 21 22  1  0  0  0  0
 21 47  1  0  0  0  0
 21 48  1  0  0  0  0
 22 23  1  0  0  0  0
 22 49  1  0  0  0  0
 22 50  1  0  0  0  0
 23 24  1  0  0  0  0
 24 25  1  0  0  0  0
 24 51  1  0  0  0  0
 24 52  1  0  0  0  0
 25 53  1  0  0  0  0
 25 54  1  0  0  0  0
M  CHG  1  20   1
M  END
> <s_m_source_file>
AV-unprocessed.smi

> <i_m_source_file_index>
1157

> <i_lp_mmshare_version>
43012

> <i_f3d_flags>
0

> <s_epik_input>
W0NIMl0xW0NIMl1PW0NIMl1bQ0gyXU4xQyhbQ0gzXSkoW0NIM10pW0NIMl1bTkhdQyg9TylbTkhdYzJbY0hdW2NIXWMobltjSF0yKU4zW0NIMl1bQ0gyXVtDSDJdW0NIMl0z

> <s_epik_cmdline>
J2VwaWtfcHl0aG9uJywgJy1waCcsICc3LjAnLCAnLXRuJywgJzgnLCAnLW1hJywgJzIwMCcsICctbWV0YWxfYmluZGluZycsICctaW1hZScsICc8aW5maWxlLm1hZT4nLCAnLW9tYWUnLCAnPG91dGZpbGUubWFlPic=

> <r_lp_tautomer_probability>
1

> <r_epik_Ionization_Penalty>
0.687101

> <r_epik_Ionization_Penalty_Charging>
0.602531

> <r_epik_Ionization_Penalty_Neutral>
0.0845707

> <r_epik_State_Penalty>
0.681137

> <r_epik_Charging_Adjusted_Penalty>
1.28367

> <i_epik_Tot_Q>
1

> <i_epik_Tot_abs_Q>
1

> <r_epik_Metal_State_Penalty>
0.680046

> <b_epik_Metal_Only>
0

> <s_lp_Force_Field>
OPLS_2005

> <r_lp_Energy>
50.3969

> <b_lp_Chiralities_Consistent>
1

> <s_lp_Variant>
AV-unprocessed.smi:1157-2

> <Gold.Version>
5.8.1

> <Gold.Id.Protein>
6NUR|6NUR_protein|mol2

> <Gold.PLP.Fitness>
45.8318

> <Gold.PLP.PLP>
-39.4564

> <Gold.PLP.part.hbond>
-2.0000

> <Gold.PLP.part.metal>
0.0000

> <Gold.PLP.part.buried>
-5.3822

> <Gold.PLP.part.nonpolar>
-32.2230

> <Gold.PLP.part.repulsive>
0.2821

> <Gold.PLP.ligand.clash>
0.0000

> <Gold.PLP.ligand.torsion>
1.2522

> <Gold.PLP.Chemscore.Hbond>
2.8640

> <Gold.PLP.Chemscore.CHOScore>
0.0000

> <Gold.PLP.Chemscore.Metal>
0.0000

> <Gold.Chemscore.Hbonds>
donor molecule, donor type, donor heavy atom, donor atom, acceptor molecule, acceptor atom, score
      L1  H     5    34       P1  7948  0.81
      L1  H    20    55       P1  7948  2.00

> <Gold.PLP.Chemscore.Internal.Correction>
0.2879

> <Gold.Rescore>
     Score         DG    S(hbond)    S(metal)    S(lipo)     H(rot)  DE(clash)    DE(int)     intcor
     16.86     -19.12       1.62        0.00     101.46       1.42       0.07       2.19       ----

> <Gold.Chemscore.Fitness>
16.8571

> <Gold.Chemscore.DG>
-19.1178

> <Gold.Chemscore.ZeroCoef>
-5.4800

> <Gold.Chemscore.Hbond>
1.6206

> <Gold.Chemscore.Metal>
0.0000

> <Gold.Chemscore.Lipo>
101.4626

> <Gold.Chemscore.Internal_Hbond>
0.0000

> <Gold.Chemscore.DEClash>
0.0735

> <Gold.Chemscore.DEInternal>
2.1872

> <Gold.Chemscore.Rot>
1.4243

> <Gold.Chemscore.Internal.Correction>
   9.000000E+99

> <Gold.Chemscore.Hbonds>
donor molecule, donor type, donor heavy atom, donor atom, acceptor molecule, acceptor atom, score
      L1  H     5    34       P1  7948  0.53
      L1  H    20    55       P1  7948  0.97

> <Gold.Chemscore.Hbond.Weighted>
-5.4128

> <Gold.Chemscore.Metal.Weighted>
-0.0000

> <Gold.Chemscore.Lipo.Weighted>
-11.8711

> <Gold.Chemscore.Internal_Hbond.Weighted>
0.0000

> <Gold.Chemscore.DEClash.Weighted>
0.0735

> <Gold.Chemscore.DEInternal.Weighted>
2.1872

> <Gold.Chemscore.Rot.Weighted>
3.6462

> <Gold.Chemscore.Internal.Correction.Weighted>
   9.000000E+99

> <Gold.Protein.RotatedTorsions>
[ 6907 6896 6895 6894 ] final  -50.33 input  -60.11 | X-H torsion
[ 7974 7965 7964 7962 ] final -100.54 input  175.53 | X-H torsion
[ 8008 7997 7996 7995 ] final -106.45 input   59.86 | X-H torsion
[ 10167 10162 10161 10158 ] final -102.81 input  -65.29 | X-H torsion
[ 10718 10713 10712 10709 ] final   29.37 input   66.30 | X-H torsion
[ 10763 10752 10751 10750 ] final   45.73 input  -60.55 | X-H torsion
[ 11005 11000 10999 10996 ] final   44.11 input  -57.11 | X-H torsion

> <Gold.Protein.ActiveResidues>
 VAL166  LYS551  ARG553  GLY616  TRP617  ASP618  TYR619  PRO620  LYS621  CYS622 
 ASP623  PHE694  ASN695  SER759  ASP760  ASP761  ALA762  ILE779  LEU786  VAL792 
 PHE793  MET794  SER795  GLU796  ALA797  LYS798  CYS799  TRP800  GLU811  SER814 

> <Gold.Protein.RotatedAtoms>
  150.8717  134.8092  159.7159 H   0  0  0  0  0  0  0  0  0  0  0  0  # atno 6907 bound_to 6896
  152.4719  134.4936  159.9713 H   0  0  0  0  0  0  0  0  0  0  0  0  # atno 6908 bound_to 6896
  151.5023  133.3463  159.2906 H   0  0  0  0  0  0  0  0  0  0  0  0  # atno 6909 bound_to 6896
  145.2933  140.9358  143.2865 H   0  0  0  0  0  0  0  0  0  0  0  0  # atno 7974 bound_to 7965
  154.9147  140.0409  157.1965 H   0  0  0  0  0  0  0  0  0  0  0  0  # atno 8008 bound_to 7997
  154.8313  140.2899  155.5699 H   0  0  0  0  0  0  0  0  0  0  0  0  # atno 8009 bound_to 7997
  156.2987  140.2500  156.3239 H   0  0  0  0  0  0  0  0  0  0  0  0  # atno 8010 bound_to 7997
  140.2267  143.3636  152.0923 H   0  0  0  0  0  0  0  0  0  0  0  0  # atno 10167 bound_to 10162
  157.2456  130.7090  149.6380 H   0  0  0  0  0  0  0  0  0  0  0  0  # atno 10718 bound_to 10713
  152.9820  135.6030  154.3484 H   0  0  0  0  0  0  0  0  0  0  0  0  # atno 10763 bound_to 10752
  154.3176  135.2770  155.2537 H   0  0  0  0  0  0  0  0  0  0  0  0  # atno 10764 bound_to 10752
  154.4719  135.5939  153.6383 H   0  0  0  0  0  0  0  0  0  0  0  0  # atno 10765 bound_to 10752
  140.1582  134.4375  155.8335 H   0  0  0  0  0  0  0  0  0  0  0  0  # atno 11005 bound_to 11000
  144.9155  139.4476  143.6566 LP  0  0  0  0  0  0  0  0  0  0  0  0  # atno 17320 bound_to 7965
  146.3177  139.7986  142.8970 LP  0  0  0  0  0  0  0  0  0  0  0  0  # atno 17321 bound_to 7965
  139.5124  144.6917  151.5742 LP  0  0  0  0  0  0  0  0  0  0  0  0  # atno 17342 bound_to 10162
  140.6215  143.9248  150.6530 LP  0  0  0  0  0  0  0  0  0  0  0  0  # atno 17343 bound_to 10162
  155.9668  130.4444  150.5459 LP  0  0  0  0  0  0  0  0  0  0  0  0  # atno 17370 bound_to 10713
  157.3332  131.0703  151.1845 LP  0  0  0  0  0  0  0  0  0  0  0  0  # atno 17371 bound_to 10713
  141.2206  133.6901  156.7545 LP  0  0  0  0  0  0  0  0  0  0  0  0  # atno 17394 bound_to 11000
  140.2522  134.8532  157.3678 LP  0  0  0  0  0  0  0  0  0  0  0  0  # atno 17395 bound_to 11000

$$$$
