AV-unprocessed.smi:2859|AV-procd|sdf|11005|dock9
  -GOLD-   2272015463D 1   1.00000     0.00000
 Structure written by MMmdl.
 51 52  0  0  0  0  0  0  0  0  1 V2000
  152.2599  144.2409  161.2767 C   0  0  0  0  0  0  0  0  0  0  0  0
  151.6212  144.0698  159.8830 C   0  0  0  0  0  0  0  0  0  0  0  0
  150.0836  144.1141  160.0009 C   0  0  0  0  0  0  0  0  0  0  0  0
  152.0573  145.2746  159.0196 C   0  0  0  0  0  0  0  0  0  0  0  0
  152.0544  142.7245  159.2760 C   0  0  0  0  0  0  0  0  0  0  0  0
  151.4748  142.1689  158.1101 C   0  0  0  0  0  0  0  0  0  0  0  0
  151.9575  140.9071  157.6830 C   0  0  0  0  0  0  0  0  0  0  0  0
  151.4572  140.2425  156.5406 N   0  0  0  0  0  0  0  0  0  0  0  0
  152.4002  139.5463  155.6715 C   0  0  0  0  0  0  0  0  0  0  0  0
  151.6514  138.6257  154.6957 C   0  0  0  0  0  0  0  0  0  0  0  0
  150.6899  139.3817  153.9701 O   0  0  0  0  0  0  0  0  0  0  0  0
  149.6922  139.9450  154.8222 C   0  0  2  0  0  0  0  0  0  0  0  0
  148.6409  140.6559  153.9563 C   0  0  0  0  0  0  0  0  0  0  0  0
  147.8518  139.8915  153.1959 N   0  0  0  0  0  0  0  0  0  0  0  0
  148.5256  141.8801  153.9807 O   0  0  0  0  0  0  0  0  0  0  0  0
  150.3632  140.9054  155.8304 C   0  0  0  0  0  0  0  0  0  0  0  0
  152.9406  140.2868  158.3753 N   0  0  0  0  0  0  0  0  0  0  0  0
  153.4631  140.9029  159.4403 C   0  0  0  0  0  0  0  0  0  0  0  0
  154.4691  140.1108  160.2915 C   0  0  0  0  0  0  0  0  0  0  0  0
  153.9110  138.7130  160.6470 C   0  0  0  0  0  0  0  0  0  0  0  0
  154.7428  140.8204  161.6390 C   0  0  0  0  0  0  0  0  0  0  0  0
  155.7901  139.9611  159.5151 C   0  0  0  0  0  0  0  0  0  0  0  0
  153.0386  142.0702  159.9336 N   0  0  0  0  0  0  0  0  0  0  0  0
  151.9829  145.1949  161.7265 H   0  0  0  0  0  0  0  0  0  0  0  0
  153.3485  144.2083  161.2183 H   0  0  0  0  0  0  0  0  0  0  0  0
  151.9441  143.4572  161.9663 H   0  0  0  0  0  0  0  0  0  0  0  0
  149.7041  143.3263  160.6525 H   0  0  0  0  0  0  0  0  0  0  0  0
  149.6091  143.9905  159.0267 H   0  0  0  0  0  0  0  0  0  0  0  0
  149.7433  145.0639  160.4147 H   0  0  0  0  0  0  0  0  0  0  0  0
  151.7411  146.2172  159.4683 H   0  0  0  0  0  0  0  0  0  0  0  0
  151.6188  145.2351  158.0216 H   0  0  0  0  0  0  0  0  0  0  0  0
  153.1416  145.3213  158.9110 H   0  0  0  0  0  0  0  0  0  0  0  0
  150.6850  142.6764  157.5807 H   0  0  0  0  0  0  0  0  0  0  0  0
  152.9914  140.2783  155.1199 H   0  0  0  0  0  0  0  0  0  0  0  0
  153.0883  138.9427  156.2641 H   0  0  0  0  0  0  0  0  0  0  0  0
  152.3519  138.1747  153.9931 H   0  0  0  0  0  0  0  0  0  0  0  0
  151.1629  137.8077  155.2276 H   0  0  0  0  0  0  0  0  0  0  0  0
  149.1850  139.1414  155.3594 H   0  0  0  0  0  0  0  0  0  0  0  0
  147.1423  140.3223  152.6207 H   0  0  0  0  0  0  0  0  0  0  0  0
  147.9613  138.8880  153.2071 H   0  0  0  0  0  0  0  0  0  0  0  0
  149.6061  141.2666  156.5267 H   0  0  0  0  0  0  0  0  0  0  0  0
  150.7643  141.7791  155.3144 H   0  0  0  0  0  0  0  0  0  0  0  0
  154.5980  138.1633  161.2915 H   0  0  0  0  0  0  0  0  0  0  0  0
  153.7520  138.0983  159.7605 H   0  0  0  0  0  0  0  0  0  0  0  0
  152.9578  138.7879  161.1719 H   0  0  0  0  0  0  0  0  0  0  0  0
  153.8217  140.9711  162.2035 H   0  0  0  0  0  0  0  0  0  0  0  0
  155.2090  141.7966  161.4993 H   0  0  0  0  0  0  0  0  0  0  0  0
  155.4186  140.2369  162.2650 H   0  0  0  0  0  0  0  0  0  0  0  0
  156.5285  139.4014  160.0898 H   0  0  0  0  0  0  0  0  0  0  0  0
  156.2232  140.9341  159.2806 H   0  0  0  0  0  0  0  0  0  0  0  0
  155.6377  139.4338  158.5726 H   0  0  0  0  0  0  0  0  0  0  0  0
  1  2  1  0  0  0  0
  1 24  1  0  0  0  0
  1 25  1  0  0  0  0
  1 26  1  0  0  0  0
  2  3  1  0  0  0  0
  2  4  1  0  0  0  0
  2  5  1  0  0  0  0
  3 27  1  0  0  0  0
  3 28  1  0  0  0  0
  3 29  1  0  0  0  0
  4 30  1  0  0  0  0
  4 31  1  0  0  0  0
  4 32  1  0  0  0  0
  5 23  1  0  0  0  0
  5  6  2  0  0  0  0
  6  7  1  0  0  0  0
  6 33  1  0  0  0  0
  7  8  1  0  0  0  0
  7 17  2  0  0  0  0
  8 16  1  0  0  0  0
  8  9  1  0  0  0  0
  9 10  1  0  0  0  0
  9 34  1  0  0  0  0
  9 35  1  0  0  0  0
 10 11  1  0  0  0  0
 10 36  1  0  0  0  0
 10 37  1  0  0  0  0
 11 12  1  0  0  0  0
 12 13  1  0  0  0  0
 12 16  1  0  0  0  0
 12 38  1  0  0  0  0
 13 14  1  0  0  0  0
 13 15  2  0  0  0  0
 14 39  1  0  0  0  0
 14 40  1  0  0  0  0
 16 41  1  0  0  0  0
 16 42  1  0  0  0  0
 17 18  1  0  0  0  0
 18 19  1  0  0  0  0
 18 23  2  0  0  0  0
 19 20  1  0  0  0  0
 19 21  1  0  0  0  0
 19 22  1  0  0  0  0
 20 43  1  0  0  0  0
 20 44  1  0  0  0  0
 20 45  1  0  0  0  0
 21 46  1  0  0  0  0
 21 47  1  0  0  0  0
 21 48  1  0  0  0  0
 22 49  1  0  0  0  0
 22 50  1  0  0  0  0
 22 51  1  0  0  0  0
M  END
> <s_m_source_file>
AV-unprocessed.smi

> <i_m_source_file_index>
2859

> <i_lp_mmshare_version>
43012

> <i_f3d_flags>
0

> <s_epik_input>
W0NIM11DKFtDSDNdKShbQ0gzXSljMVtjSF1jKG5jKG4xKUMoW0NIM10pKFtDSDNdKVtDSDNdKU4yW0NIMl1bQ0gyXU9bQ0BIXShbQ0gyXTIpQyg9TylbTkgyXQ==

> <s_epik_cmdline>
J2VwaWtfcHl0aG9uJywgJy1waCcsICc3LjAnLCAnLXRuJywgJzgnLCAnLW1hJywgJzIwMCcsICctbWV0YWxfYmluZGluZycsICctaW1hZScsICc8aW5maWxlLm1hZT4nLCAnLW9tYWUnLCAnPG91dGZpbGUubWFlPic=

> <r_lp_tautomer_probability>
1

> <r_epik_Ionization_Penalty>
0.0011326

> <r_epik_Ionization_Penalty_Charging>
0

> <r_epik_Ionization_Penalty_Neutral>
0.0011326

> <r_epik_State_Penalty>
0.000721507

> <r_epik_Charging_Adjusted_Penalty>
0.000721507

> <i_epik_Tot_Q>
0

> <i_epik_Tot_abs_Q>
0

> <r_epik_Metal_State_Penalty>
-0

> <b_epik_Metal_Only>
0

> <s_lp_Force_Field>
OPLS_2005

> <r_lp_Energy>
9.68103

> <b_lp_Chiralities_Consistent>
1

> <s_lp_Variant>
AV-unprocessed.smi:2859-2

> <Gold.Version>
5.8.1

> <Gold.Id.Protein>
6NUR|6NUR_protein|mol2

> <Gold.PLP.Fitness>
50.7168

> <Gold.PLP.PLP>
-45.9268

> <Gold.PLP.part.hbond>
-3.8072

> <Gold.PLP.part.metal>
0.0000

> <Gold.PLP.part.buried>
-2.5784

> <Gold.PLP.part.nonpolar>
-39.4819

> <Gold.PLP.part.repulsive>
0.7013

> <Gold.PLP.ligand.clash>
0.0000

> <Gold.PLP.ligand.torsion>
0.9508

> <Gold.PLP.Chemscore.Hbond>
2.0316

> <Gold.PLP.Chemscore.CHOScore>
0.0000

> <Gold.PLP.Chemscore.Metal>
0.0000

> <Gold.Chemscore.Hbonds>
donor molecule, donor type, donor heavy atom, donor atom, acceptor molecule, acceptor atom, score
      P1  H  7989  7998       L1    11  1.00
      P1  H  7997  8009       L1    17  0.68
      P1  H  8011  8017       L1    15  0.34

> <Gold.PLP.Chemscore.Internal.Correction>
0.5969

> <Gold.Rescore>
     Score         DG    S(hbond)    S(metal)    S(lipo)     H(rot)  DE(clash)    DE(int)     intcor
     15.54     -16.97       0.69        0.00     118.51       1.83       0.67       0.76       ----

> <Gold.Chemscore.Fitness>
15.5392

> <Gold.Chemscore.DG>
-16.9680

> <Gold.Chemscore.ZeroCoef>
-5.4800

> <Gold.Chemscore.Hbond>
0.6923

> <Gold.Chemscore.Metal>
0.0000

> <Gold.Chemscore.Lipo>
118.5147

> <Gold.Chemscore.Internal_Hbond>
0.0000

> <Gold.Chemscore.DEClash>
0.6694

> <Gold.Chemscore.DEInternal>
0.7593

> <Gold.Chemscore.Rot>
1.8323

> <Gold.Chemscore.Internal.Correction>
   9.000000E+99

> <Gold.Chemscore.Hbonds>
donor molecule, donor type, donor heavy atom, donor atom, acceptor molecule, acceptor atom, score
      P1  H  7989  7998       L1    11  0.14
      P1  H  7997  8009       L1    17  0.18
      P1  H  8011  8017       L1    15  0.10

> <Gold.Chemscore.Hbond.Weighted>
-2.3124

> <Gold.Chemscore.Metal.Weighted>
-0.0000

> <Gold.Chemscore.Lipo.Weighted>
-13.8662

> <Gold.Chemscore.Internal_Hbond.Weighted>
0.0000

> <Gold.Chemscore.DEClash.Weighted>
0.6694

> <Gold.Chemscore.DEInternal.Weighted>
0.7593

> <Gold.Chemscore.Rot.Weighted>
4.6907

> <Gold.Chemscore.Internal.Correction.Weighted>
   9.000000E+99

> <Gold.Protein.RotatedTorsions>
[ 6907 6896 6895 6894 ] final  -52.21 input  -60.11 | X-H torsion
[ 7974 7965 7964 7962 ] final -135.63 input  175.53 | X-H torsion
[ 8008 7997 7996 7995 ] final  152.99 input   59.86 | X-H torsion
[ 10167 10162 10161 10158 ] final  -27.15 input  -65.29 | X-H torsion
[ 10718 10713 10712 10709 ] final  162.32 input   66.30 | X-H torsion
[ 10763 10752 10751 10750 ] final -100.31 input  -60.55 | X-H torsion
[ 11005 11000 10999 10996 ] final  -97.75 input  -57.11 | X-H torsion

> <Gold.Protein.ActiveResidues>
 VAL166  LYS551  ARG553  GLY616  TRP617  ASP618  TYR619  PRO620  LYS621  CYS622 
 ASP623  PHE694  ASN695  SER759  ASP760  ASP761  ALA762  ILE779  LEU786  VAL792 
 PHE793  MET794  SER795  GLU796  ALA797  LYS798  CYS799  TRP800  GLU811  SER814 

> <Gold.Protein.RotatedAtoms>
  150.8539  134.7871  159.7029 H   0  0  0  0  0  0  0  0  0  0  0  0  # atno 6907 bound_to 6896
  152.4596  134.5211  159.9793 H   0  0  0  0  0  0  0  0  0  0  0  0  # atno 6908 bound_to 6896
  151.5327  133.3408  159.2957 H   0  0  0  0  0  0  0  0  0  0  0  0  # atno 6909 bound_to 6896
  144.8997  140.6755  143.5093 H   0  0  0  0  0  0  0  0  0  0  0  0  # atno 7974 bound_to 7965
  156.2603  140.2006  156.6420 H   0  0  0  0  0  0  0  0  0  0  0  0  # atno 8008 bound_to 7997
  154.6602  140.0561  157.0079 H   0  0  0  0  0  0  0  0  0  0  0  0  # atno 8009 bound_to 7997
  155.1287  140.3231  155.4482 H   0  0  0  0  0  0  0  0  0  0  0  0  # atno 8010 bound_to 7997
  140.7279  143.4118  151.1094 H   0  0  0  0  0  0  0  0  0  0  0  0  # atno 10167 bound_to 10162
  157.1242  131.0500  151.2401 H   0  0  0  0  0  0  0  0  0  0  0  0  # atno 10718 bound_to 10713
  154.7569  135.4940  153.9391 H   0  0  0  0  0  0  0  0  0  0  0  0  # atno 10763 bound_to 10752
  153.1206  135.6731  153.9350 H   0  0  0  0  0  0  0  0  0  0  0  0  # atno 10764 bound_to 10752
  153.9083  135.3102  155.3427 H   0  0  0  0  0  0  0  0  0  0  0  0  # atno 10765 bound_to 10752
  141.1368  133.8194  157.0747 H   0  0  0  0  0  0  0  0  0  0  0  0  # atno 11005 bound_to 11000
  145.3637  139.1675  143.4369 LP  0  0  0  0  0  0  0  0  0  0  0  0  # atno 17320 bound_to 7965
  146.3101  140.3702  142.8673 LP  0  0  0  0  0  0  0  0  0  0  0  0  # atno 17321 bound_to 7965
  139.7752  143.8436  152.3128 LP  0  0  0  0  0  0  0  0  0  0  0  0  # atno 17342 bound_to 10162
  139.8368  144.7228  150.9381 LP  0  0  0  0  0  0  0  0  0  0  0  0  # atno 17343 bound_to 10162
  157.4450  130.7565  149.7101 LP  0  0  0  0  0  0  0  0  0  0  0  0  # atno 17370 bound_to 10713
  155.9822  130.4012  150.3431 LP  0  0  0  0  0  0  0  0  0  0  0  0  # atno 17371 bound_to 10713
  140.0489  134.9816  157.1099 LP  0  0  0  0  0  0  0  0  0  0  0  0  # atno 17394 bound_to 11000
  140.4020  134.2072  155.7163 LP  0  0  0  0  0  0  0  0  0  0  0  0  # atno 17395 bound_to 11000

$$$$
