AV-unprocessed.smi:2448|AV-procd|sdf|9655|dock7
  -GOLD-   2272013293D 1   1.00000     0.00000
 Structure written by MMmdl.
 38 39  0  0  0  0  0  0  0  0  2 V2000
  149.4185  143.3535  159.1402 O   0  0  0  0  0  0  0  0  0  0  0  0
  150.7047  143.1414  158.5823 C   0  0  1  0  0  0  0  0  0  0  0  0
  150.5591  142.2274  157.3490 C   0  0  0  0  0  0  0  0  0  0  0  0
  149.2828  142.4545  156.6345 N   0  3  0  0  0  0  0  0  0  0  0  0
  148.7794  141.2983  155.8554 C   0  0  2  0  0  0  0  0  0  0  0  0
  149.7303  140.9625  154.6838 C   0  0  0  0  0  0  0  0  0  0  0  0
  150.5382  139.6958  154.8993 C   0  0  0  0  0  0  0  0  0  0  0  0
  150.2040  138.5033  154.2242 C   0  0  0  0  0  0  0  0  0  0  0  0
  151.0030  137.3625  154.4406 C   0  0  0  0  0  0  0  0  0  0  0  0
  152.0736  137.3536  155.2632 N   0  0  0  0  0  0  0  0  0  0  0  0
  152.3839  138.4967  155.9113 C   0  0  0  0  0  0  0  0  0  0  0  0
  151.6517  139.6923  155.7640 C   0  0  0  0  0  0  0  0  0  0  0  0
  147.3509  141.5922  155.3579 C   0  0  0  0  0  0  0  0  0  0  0  0
  146.7718  140.4582  154.9626 F   0  0  0  0  0  0  0  0  0  0  0  0
  146.6168  142.1334  156.3307 F   0  0  0  0  0  0  0  0  0  0  0  0
  147.3854  142.4293  154.3214 F   0  0  0  0  0  0  0  0  0  0  0  0
  151.2782  144.5176  158.2061 C   0  0  0  0  0  0  0  0  0  0  0  0
  151.6835  145.2272  159.5020 C   0  0  0  0  0  0  0  0  0  0  0  0
  152.2641  143.9610  160.6584 S   0  0  0  0  0  0  0  0  0  0  0  0
  151.6520  142.5795  159.6577 C   0  0  0  0  0  0  0  0  0  0  0  0
  149.4490  143.1655  160.0654 H   0  0  0  0  0  0  0  0  0  0  0  0
  151.3996  142.3893  156.6740 H   0  0  0  0  0  0  0  0  0  0  0  0
  150.6031  141.1808  157.6540 H   0  0  0  0  0  0  0  0  0  0  0  0
  148.5858  142.6872  157.3279 H   0  0  0  0  0  0  0  0  0  0  0  0
  148.7156  140.4303  156.5145 H   0  0  0  0  0  0  0  0  0  0  0  0
  149.1565  140.8386  153.7647 H   0  0  0  0  0  0  0  0  0  0  0  0
  150.4114  141.7951  154.5018 H   0  0  0  0  0  0  0  0  0  0  0  0
  149.3607  138.4587  153.5506 H   0  0  0  0  0  0  0  0  0  0  0  0
  150.7782  136.4342  153.9364 H   0  0  0  0  0  0  0  0  0  0  0  0
  153.2441  138.4595  156.5632 H   0  0  0  0  0  0  0  0  0  0  0  0
  151.9438  140.5830  156.3010 H   0  0  0  0  0  0  0  0  0  0  0  0
  152.1684  144.3827  157.5901 H   0  0  0  0  0  0  0  0  0  0  0  0
  150.5772  145.1150  157.6212 H   0  0  0  0  0  0  0  0  0  0  0  0
  152.4488  145.9852  159.3333 H   0  0  0  0  0  0  0  0  0  0  0  0
  150.8189  145.7224  159.9453 H   0  0  0  0  0  0  0  0  0  0  0  0
  151.1788  141.8230  160.2847 H   0  0  0  0  0  0  0  0  0  0  0  0
  152.5192  142.1148  159.1867 H   0  0  0  0  0  0  0  0  0  0  0  0
  149.3870  143.2406  156.0089 H   0  0  0  0  0  0  0  0  0  0  0  0
  1  2  1  0  0  0  0
  1 21  1  0  0  0  0
  2 20  1  0  0  0  0
  2  3  1  0  0  0  0
  2 17  1  0  0  0  0
  3  4  1  0  0  0  0
  3 22  1  0  0  0  0
  3 23  1  0  0  0  0
  4  5  1  0  0  0  0
  4 24  1  0  0  0  0
  4 38  1  0  0  0  0
  5  6  1  0  0  0  0
  5 13  1  0  0  0  0
  5 25  1  0  0  0  0
  6  7  1  0  0  0  0
  6 26  1  0  0  0  0
  6 27  1  0  0  0  0
  7 12  1  0  0  0  0
  7  8  2  0  0  0  0
  8  9  1  0  0  0  0
  8 28  1  0  0  0  0
  9 10  2  0  0  0  0
  9 29  1  0  0  0  0
 10 11  1  0  0  0  0
 11 12  2  0  0  0  0
 11 30  1  0  0  0  0
 12 31  1  0  0  0  0
 13 14  1  0  0  0  0
 13 15  1  0  0  0  0
 13 16  1  0  0  0  0
 17 18  1  0  0  0  0
 17 32  1  0  0  0  0
 17 33  1  0  0  0  0
 18 19  1  0  0  0  0
 18 34  1  0  0  0  0
 18 35  1  0  0  0  0
 19 20  1  0  0  0  0
 20 36  1  0  0  0  0
 20 37  1  0  0  0  0
M  CHG  1   4   1
M  END
> <s_m_source_file>
AV-unprocessed.smi

> <i_m_source_file_index>
2448

> <i_lp_mmshare_version>
43012

> <i_f3d_flags>
0

> <s_epik_input>
W0NIMl0xU1tDSDJdW0NIMl1bQ0BAXTEoW09IXSlbQ0gyXVtOSF1bQ0BASF0oQyhGKShGKUYpW0NIMl1jMltjSF1bY0hdbltjSF1bY0hdMg==

> <s_epik_cmdline>
J2VwaWtfcHl0aG9uJywgJy1waCcsICc3LjAnLCAnLXRuJywgJzgnLCAnLW1hJywgJzIwMCcsICctbWV0YWxfYmluZGluZycsICctaW1hZScsICc8aW5maWxlLm1hZT4nLCAnLW9tYWUnLCAnPG91dGZpbGUubWFlPic=

> <r_epik_Ionization_Penalty>
1.19945

> <r_epik_Ionization_Penalty_Charging>
1.19892

> <r_epik_Ionization_Penalty_Neutral>
0.000532129

> <r_epik_State_Penalty>
0.752927

> <r_epik_Charging_Adjusted_Penalty>
1.95185

> <i_epik_Tot_Q>
1

> <i_epik_Tot_abs_Q>
1

> <r_epik_Metal_State_Penalty>
0.804507

> <b_epik_Metal_Only>
0

> <s_lp_Force_Field>
OPLS_2005

> <r_lp_Energy>
24.3965

> <b_lp_Chiralities_Consistent>
1

> <s_lp_Variant>
AV-unprocessed.smi:2448-5

> <Gold.Version>
5.8.1

> <Gold.Id.Protein>
6NUR|6NUR_protein|mol2

> <Gold.PLP.Fitness>
51.6088

> <Gold.PLP.PLP>
-43.9792

> <Gold.PLP.part.hbond>
-2.7624

> <Gold.PLP.part.metal>
0.0000

> <Gold.PLP.part.buried>
-1.8170

> <Gold.PLP.part.nonpolar>
-39.4478

> <Gold.PLP.part.repulsive>
0.0884

> <Gold.PLP.ligand.clash>
0.0000

> <Gold.PLP.ligand.torsion>
1.7983

> <Gold.PLP.Chemscore.Hbond>
2.6758

> <Gold.PLP.Chemscore.CHOScore>
0.8805

> <Gold.PLP.Chemscore.Metal>
0.0000

> <Gold.Chemscore.Hbonds>
donor molecule, donor type, donor heavy atom, donor atom, acceptor molecule, acceptor atom, score
      L1  H     4    38       P1  8028  1.82
      P1  H 10752 10765       L1    10  0.56
      L1  C     9    29       P1  7948  0.14
      L1  C     9    29       P1  7949  0.69

> <Gold.PLP.Chemscore.Internal.Correction>
0.5574

> <Gold.Rescore>
     Score         DG    S(hbond)    S(metal)    S(lipo)     H(rot)  DE(clash)    DE(int)     intcor
     17.06     -19.23       1.86        0.00     116.60       2.39       0.07       2.10       ----

> <Gold.Chemscore.Fitness>
17.0618

> <Gold.Chemscore.DG>
-19.2323

> <Gold.Chemscore.ZeroCoef>
-5.4800

> <Gold.Chemscore.Hbond>
1.8622

> <Gold.Chemscore.Metal>
0.0000

> <Gold.Chemscore.Lipo>
116.5997

> <Gold.Chemscore.Internal_Hbond>
0.0000

> <Gold.Chemscore.DEClash>
0.0715

> <Gold.Chemscore.DEInternal>
2.0990

> <Gold.Chemscore.Rot>
2.3866

> <Gold.Chemscore.Internal.Correction>
   9.000000E+99

> <Gold.Chemscore.Hbonds>
donor molecule, donor type, donor heavy atom, donor atom, acceptor molecule, acceptor atom, score
      L1  H     4    38       P1  8028  0.87
      P1  H 10752 10765       L1    10  0.08

> <Gold.Chemscore.Hbond.Weighted>
-6.2198

> <Gold.Chemscore.Metal.Weighted>
-0.0000

> <Gold.Chemscore.Lipo.Weighted>
-13.6422

> <Gold.Chemscore.Internal_Hbond.Weighted>
0.0000

> <Gold.Chemscore.DEClash.Weighted>
0.0715

> <Gold.Chemscore.DEInternal.Weighted>
2.0990

> <Gold.Chemscore.Rot.Weighted>
6.1096

> <Gold.Chemscore.Internal.Correction.Weighted>
   9.000000E+99

> <Gold.Protein.RotatedTorsions>
[ 6907 6896 6895 6894 ] final  -47.75 input  -60.11 | X-H torsion
[ 7974 7965 7964 7962 ] final   -4.83 input  175.53 | X-H torsion
[ 8008 7997 7996 7995 ] final  122.02 input   59.86 | X-H torsion
[ 10167 10162 10161 10158 ] final  123.95 input  -65.29 | X-H torsion
[ 10718 10713 10712 10709 ] final  152.09 input   66.30 | X-H torsion
[ 10763 10752 10751 10750 ] final  171.37 input  -60.55 | X-H torsion
[ 11005 11000 10999 10996 ] final   56.49 input  -57.11 | X-H torsion

> <Gold.Protein.ActiveResidues>
 VAL166  LYS551  ARG553  GLY616  TRP617  ASP618  TYR619  PRO620  LYS621  CYS622 
 ASP623  PHE694  ASN695  SER759  ASP760  ASP761  ALA762  ILE779  LEU786  VAL792 
 PHE793  MET794  SER795  GLU796  ALA797  LYS798  CYS799  TRP800  GLU811  SER814 

> <Gold.Protein.RotatedAtoms>
  150.8975  134.8385  159.7336 H   0  0  0  0  0  0  0  0  0  0  0  0  # atno 6907 bound_to 6896
  152.4873  134.4553  159.9597 H   0  0  0  0  0  0  0  0  0  0  0  0  # atno 6908 bound_to 6896
  151.4608  133.3554  159.2844 H   0  0  0  0  0  0  0  0  0  0  0  0  # atno 6909 bound_to 6896
  146.2365  140.1930  142.8333 H   0  0  0  0  0  0  0  0  0  0  0  0  # atno 7974 bound_to 7965
  156.2711  140.2795  156.1401 H   0  0  0  0  0  0  0  0  0  0  0  0  # atno 8008 bound_to 7997
  155.0962  140.0389  157.2701 H   0  0  0  0  0  0  0  0  0  0  0  0  # atno 8009 bound_to 7997
  154.6850  140.2617  155.6875 H   0  0  0  0  0  0  0  0  0  0  0  0  # atno 8010 bound_to 7997
  139.5770  144.6968  151.3628 H   0  0  0  0  0  0  0  0  0  0  0  0  # atno 10167 bound_to 10162
  157.2623  131.0800  151.1657 H   0  0  0  0  0  0  0  0  0  0  0  0  # atno 10718 bound_to 10713
  154.4109  135.2756  155.2037 H   0  0  0  0  0  0  0  0  0  0  0  0  # atno 10763 bound_to 10752
  154.4023  135.6041  153.5908 H   0  0  0  0  0  0  0  0  0  0  0  0  # atno 10764 bound_to 10752
  152.9831  135.5929  154.4390 H   0  0  0  0  0  0  0  0  0  0  0  0  # atno 10765 bound_to 10752
  140.0525  134.5717  155.9247 H   0  0  0  0  0  0  0  0  0  0  0  0  # atno 11005 bound_to 11000
  144.9842  140.8488  143.5378 LP  0  0  0  0  0  0  0  0  0  0  0  0  # atno 17320 bound_to 7965
  145.1927  139.2292  143.5234 LP  0  0  0  0  0  0  0  0  0  0  0  0  # atno 17321 bound_to 7965
  140.7051  143.7533  150.7469 LP  0  0  0  0  0  0  0  0  0  0  0  0  # atno 17342 bound_to 10162
  140.1055  143.4748  152.2400 LP  0  0  0  0  0  0  0  0  0  0  0  0  # atno 17343 bound_to 10162
  157.3162  130.6914  149.6243 LP  0  0  0  0  0  0  0  0  0  0  0  0  # atno 17370 bound_to 10713
  155.9664  130.4349  150.5068 LP  0  0  0  0  0  0  0  0  0  0  0  0  # atno 17371 bound_to 10713
  141.1937  133.6580  156.5559 LP  0  0  0  0  0  0  0  0  0  0  0  0  # atno 17394 bound_to 11000
  140.3895  134.7452  157.4712 LP  0  0  0  0  0  0  0  0  0  0  0  0  # atno 17395 bound_to 11000

$$$$
