AV-unprocessed.smi:150|AV-procd|sdf|1242|dock3
  -GOLD-   2262018463D 1   1.00000     0.00000
 Structure written by MMmdl.
 55 57  0  0  0  0  0  0  0  0  1 V2000
  151.2236  142.5897  156.7182 C   0  0  0  0  0  0  0  0  0  0  0  0
  150.7280  141.1500  156.9404 C   0  0  0  0  0  0  0  0  0  0  0  0
  151.1121  140.6701  158.3487 C   0  0  0  0  0  0  0  0  0  0  0  0
  151.2617  140.1683  155.8716 C   0  0  0  0  0  0  0  0  0  0  0  0
  150.4056  138.8941  155.6397 C   0  0  2  0  0  0  0  0  0  0  0  0
  151.1090  137.8411  154.7472 C   0  0  0  0  0  0  0  0  0  0  0  0
  152.0926  137.1563  155.4938 O   0  0  0  0  0  0  0  0  0  0  0  0
  149.0471  139.2208  155.1738 N   0  0  0  0  0  0  0  0  0  0  0  0
  148.9111  140.2711  154.1689 C   0  0  0  0  0  0  0  0  0  0  0  0
  148.0308  138.3159  155.1708 C   0  0  0  0  0  0  0  0  0  0  0  0
  147.7114  137.6380  156.3045 N   0  0  0  0  0  0  0  0  0  0  0  0
  146.7257  136.7362  156.3027 C   0  0  0  0  0  0  0  0  0  0  0  0
  145.9445  136.3569  155.2906 N   0  0  0  0  0  0  0  0  0  0  0  0
  146.2611  137.0262  154.1458 C   0  0  0  0  0  0  0  0  0  0  0  0
  147.2779  138.0127  153.9995 C   0  0  0  0  0  0  0  0  0  0  0  0
  147.2938  138.4809  152.6905 N   0  0  0  0  0  0  0  0  0  0  0  0
  146.3466  137.8077  152.0978 C   0  0  0  0  0  0  0  0  0  0  0  0
  145.6813  136.9041  152.8949 N   0  0  0  0  0  0  0  0  0  0  0  0
  144.5907  136.0282  152.4939 C   0  0  0  0  0  0  0  0  0  0  0  0
  145.0235  134.8546  151.5794 C   0  0  0  0  0  0  0  0  0  0  0  0
  145.5556  135.4064  150.3876 O   0  0  0  0  0  0  0  0  0  0  0  0
  146.1264  134.0227  152.2652 C   0  0  0  0  0  0  0  0  0  0  0  0
  146.4659  132.7441  151.4790 C   0  0  0  0  0  0  0  0  0  0  0  0
  145.2885  131.9732  151.2733 O   0  0  0  0  0  0  0  0  0  0  0  0
  144.3208  132.6516  150.4824 C   0  0  0  0  0  0  0  0  0  0  0  0
  143.8474  133.9268  151.2026 C   0  0  0  0  0  0  0  0  0  0  0  0
  152.3129  142.6350  156.6955 H   0  0  0  0  0  0  0  0  0  0  0  0
  150.8823  143.2482  157.5174 H   0  0  0  0  0  0  0  0  0  0  0  0
  150.8522  143.0079  155.7834 H   0  0  0  0  0  0  0  0  0  0  0  0
  149.6397  141.1634  156.9015 H   0  0  0  0  0  0  0  0  0  0  0  0
  152.1948  140.6374  158.4754 H   0  0  0  0  0  0  0  0  0  0  0  0
  150.7239  139.6702  158.5448 H   0  0  0  0  0  0  0  0  0  0  0  0
  150.7074  141.3325  159.1144 H   0  0  0  0  0  0  0  0  0  0  0  0
  151.3662  140.7164  154.9343 H   0  0  0  0  0  0  0  0  0  0  0  0
  152.2732  139.8712  156.1483 H   0  0  0  0  0  0  0  0  0  0  0  0
  150.2616  138.4264  156.6130 H   0  0  0  0  0  0  0  0  0  0  0  0
  150.4222  137.1267  154.2968 H   0  0  0  0  0  0  0  0  0  0  0  0
  151.6290  138.3222  153.9207 H   0  0  0  0  0  0  0  0  0  0  0  0
  152.9131  137.6160  155.4020 H   0  0  0  0  0  0  0  0  0  0  0  0
  148.3150  141.0954  154.5602 H   0  0  0  0  0  0  0  0  0  0  0  0
  148.4302  139.8960  153.2642 H   0  0  0  0  0  0  0  0  0  0  0  0
  149.8829  140.6742  153.8832 H   0  0  0  0  0  0  0  0  0  0  0  0
  146.5377  136.2477  157.2474 H   0  0  0  0  0  0  0  0  0  0  0  0
  146.1094  137.9483  151.0532 H   0  0  0  0  0  0  0  0  0  0  0  0
  144.1053  135.6490  153.3946 H   0  0  0  0  0  0  0  0  0  0  0  0
  143.8449  136.6397  151.9842 H   0  0  0  0  0  0  0  0  0  0  0  0
  145.5547  134.7382  149.7194 H   0  0  0  0  0  0  0  0  0  0  0  0
  147.0254  134.6235  152.4098 H   0  0  0  0  0  0  0  0  0  0  0  0
  145.7911  133.7324  153.2620 H   0  0  0  0  0  0  0  0  0  0  0  0
  146.9321  132.9808  150.5213 H   0  0  0  0  0  0  0  0  0  0  0  0
  147.1833  132.1434  152.0383 H   0  0  0  0  0  0  0  0  0  0  0  0
  144.7354  132.8851  149.5007 H   0  0  0  0  0  0  0  0  0  0  0  0
  143.4754  131.9841  150.3153 H   0  0  0  0  0  0  0  0  0  0  0  0
  143.3158  133.6354  152.1094 H   0  0  0  0  0  0  0  0  0  0  0  0
  143.1238  134.4498  150.5765 H   0  0  0  0  0  0  0  0  0  0  0  0
  1  2  1  0  0  0  0
  1 27  1  0  0  0  0
  1 28  1  0  0  0  0
  1 29  1  0  0  0  0
  2  3  1  0  0  0  0
  2  4  1  0  0  0  0
  2 30  1  0  0  0  0
  3 31  1  0  0  0  0
  3 32  1  0  0  0  0
  3 33  1  0  0  0  0
  4  5  1  0  0  0  0
  4 34  1  0  0  0  0
  4 35  1  0  0  0  0
  5  6  1  0  0  0  0
  5  8  1  0  0  0  0
  5 36  1  0  0  0  0
  6  7  1  0  0  0  0
  6 37  1  0  0  0  0
  6 38  1  0  0  0  0
  7 39  1  0  0  0  0
  8  9  1  0  0  0  0
  8 10  1  0  0  0  0
  9 40  1  0  0  0  0
  9 41  1  0  0  0  0
  9 42  1  0  0  0  0
 10 15  1  0  0  0  0
 10 11  2  0  0  0  0
 11 12  1  0  0  0  0
 12 13  2  0  0  0  0
 12 43  1  0  0  0  0
 13 14  1  0  0  0  0
 14 18  1  0  0  0  0
 14 15  2  0  0  0  0
 15 16  1  0  0  0  0
 16 17  2  0  0  0  0
 17 18  1  0  0  0  0
 17 44  1  0  0  0  0
 18 19  1  0  0  0  0
 19 20  1  0  0  0  0
 19 45  1  0  0  0  0
 19 46  1  0  0  0  0
 20 26  1  0  0  0  0
 20 21  1  0  0  0  0
 20 22  1  0  0  0  0
 21 47  1  0  0  0  0
 22 23  1  0  0  0  0
 22 48  1  0  0  0  0
 22 49  1  0  0  0  0
 23 24  1  0  0  0  0
 23 50  1  0  0  0  0
 23 51  1  0  0  0  0
 24 25  1  0  0  0  0
 25 26  1  0  0  0  0
 25 52  1  0  0  0  0
 25 53  1  0  0  0  0
 26 54  1  0  0  0  0
 26 55  1  0  0  0  0
M  END
> <s_m_source_file>
AV-unprocessed.smi

> <i_m_source_file_index>
150

> <i_lp_mmshare_version>
43012

> <i_f3d_flags>
0

> <s_epik_input>
W0NIM11bQ0hdKFtDSDNdKVtDSDJdW0NASF0oW0NIMl1bT0hdKU4oW0NIM10pYyhuW2NIXW4xKWMoYzEyKW5bY0hdbjJbQ0gyXUMzKFtPSF0pW0NIMl1bQ0gyXU9bQ0gyXVtDSDJdMw==

> <s_epik_cmdline>
J2VwaWtfcHl0aG9uJywgJy1waCcsICc3LjAnLCAnLXRuJywgJzgnLCAnLW1hJywgJzIwMCcsICctbWV0YWxfYmluZGluZycsICctaW1hZScsICc8aW5maWxlLm1hZT4nLCAnLW9tYWUnLCAnPG91dGZpbGUubWFlPic=

> <r_lp_tautomer_probability>
1

> <r_epik_Ionization_Penalty>
0.00548416

> <r_epik_Ionization_Penalty_Charging>
0

> <r_epik_Ionization_Penalty_Neutral>
0.00548416

> <r_epik_State_Penalty>
0.0038135

> <r_epik_Charging_Adjusted_Penalty>
0.0038135

> <i_epik_Tot_Q>
0

> <i_epik_Tot_abs_Q>
0

> <r_epik_Metal_State_Penalty>
-0

> <b_epik_Metal_Only>
0

> <s_lp_Force_Field>
OPLS_2005

> <r_lp_Energy>
31.7552

> <b_lp_Chiralities_Consistent>
1

> <s_lp_Variant>
AV-unprocessed.smi:150-1

> <Gold.Version>
5.8.1

> <Gold.Id.Protein>
6NUR|6NUR_protein|mol2

> <Gold.PLP.Fitness>
45.9703

> <Gold.PLP.PLP>
-39.8314

> <Gold.PLP.part.hbond>
-3.0000

> <Gold.PLP.part.metal>
0.0000

> <Gold.PLP.part.buried>
-3.4915

> <Gold.PLP.part.nonpolar>
-34.4413

> <Gold.PLP.part.repulsive>
0.5020

> <Gold.PLP.ligand.clash>
0.0000

> <Gold.PLP.ligand.torsion>
1.6478

> <Gold.PLP.Chemscore.Hbond>
1.7680

> <Gold.PLP.Chemscore.CHOScore>
1.0000

> <Gold.PLP.Chemscore.Metal>
0.0000

> <Gold.Chemscore.Hbonds>
donor molecule, donor type, donor heavy atom, donor atom, acceptor molecule, acceptor atom, score
      L1  H    21    47       P1  7921  0.41
      P1  H 10752 10765       L1     7  0.27
      L1  C    17    44       P1 10171  0.75

> <Gold.PLP.Chemscore.Internal.Correction>
1.1306

> <Gold.Rescore>
     Score         DG    S(hbond)    S(metal)    S(lipo)     H(rot)  DE(clash)    DE(int)     intcor
      8.82     -11.89       1.58        0.00      84.07       3.40       0.10       2.96       ----

> <Gold.Chemscore.Fitness>
8.8227

> <Gold.Chemscore.DG>
-11.8892

> <Gold.Chemscore.ZeroCoef>
-5.4800

> <Gold.Chemscore.Hbond>
1.5795

> <Gold.Chemscore.Metal>
0.0000

> <Gold.Chemscore.Lipo>
84.0722

> <Gold.Chemscore.Internal_Hbond>
0.0000

> <Gold.Chemscore.DEClash>
0.1045

> <Gold.Chemscore.DEInternal>
2.9620

> <Gold.Chemscore.Rot>
3.3995

> <Gold.Chemscore.Internal.Correction>
   9.000000E+99

> <Gold.Chemscore.Hbonds>
donor molecule, donor type, donor heavy atom, donor atom, acceptor molecule, acceptor atom, score
      L1  H    21    47       P1  7921  0.40

> <Gold.Chemscore.Hbond.Weighted>
-5.2755

> <Gold.Chemscore.Metal.Weighted>
-0.0000

> <Gold.Chemscore.Lipo.Weighted>
-9.8364

> <Gold.Chemscore.Internal_Hbond.Weighted>
0.0000

> <Gold.Chemscore.DEClash.Weighted>
0.1045

> <Gold.Chemscore.DEInternal.Weighted>
2.9620

> <Gold.Chemscore.Rot.Weighted>
8.7028

> <Gold.Chemscore.Internal.Correction.Weighted>
   9.000000E+99

> <Gold.Protein.RotatedTorsions>
[ 6907 6896 6895 6894 ] final  -30.95 input  -60.11 | X-H torsion
[ 7974 7965 7964 7962 ] final   35.93 input  175.53 | X-H torsion
[ 8008 7997 7996 7995 ] final  129.77 input   59.86 | X-H torsion
[ 10167 10162 10161 10158 ] final  -69.62 input  -65.29 | X-H torsion
[ 10718 10713 10712 10709 ] final -107.91 input   66.30 | X-H torsion
[ 10763 10752 10751 10750 ] final  171.72 input  -60.55 | X-H torsion
[ 11005 11000 10999 10996 ] final  101.77 input  -57.11 | X-H torsion

> <Gold.Protein.ActiveResidues>
 VAL166  LYS551  ARG553  GLY616  TRP617  ASP618  TYR619  PRO620  LYS621  CYS622 
 ASP623  PHE694  ASN695  SER759  ASP760  ASP761  ALA762  ILE779  LEU786  VAL792 
 PHE793  MET794  SER795  GLU796  ALA797  LYS798  CYS799  TRP800  GLU811  SER814 

> <Gold.Protein.RotatedAtoms>
  151.0987  134.9959  159.8437 H   0  0  0  0  0  0  0  0  0  0  0  0  # atno 6907 bound_to 6896
  152.5435  134.1977  159.8709 H   0  0  0  0  0  0  0  0  0  0  0  0  # atno 6908 bound_to 6896
  151.2018  133.4562  159.2629 H   0  0  0  0  0  0  0  0  0  0  0  0  # atno 6909 bound_to 6896
  146.1248  139.6080  142.9266 H   0  0  0  0  0  0  0  0  0  0  0  0  # atno 7974 bound_to 7965
  156.2942  140.2612  156.2653 H   0  0  0  0  0  0  0  0  0  0  0  0  # atno 8008 bound_to 7997
  154.9748  140.0390  157.2269 H   0  0  0  0  0  0  0  0  0  0  0  0  # atno 8009 bound_to 7997
  154.7825  140.2797  155.6057 H   0  0  0  0  0  0  0  0  0  0  0  0  # atno 8010 bound_to 7997
  140.5416  143.2315  151.7079 H   0  0  0  0  0  0  0  0  0  0  0  0  # atno 10167 bound_to 10162
  156.0459  130.5686  150.7887 H   0  0  0  0  0  0  0  0  0  0  0  0  # atno 10718 bound_to 10713
  154.4159  135.2757  155.2006 H   0  0  0  0  0  0  0  0  0  0  0  0  # atno 10763 bound_to 10752
  154.3972  135.6052  153.5880 H   0  0  0  0  0  0  0  0  0  0  0  0  # atno 10764 bound_to 10752
  152.9832  135.5917  154.4448 H   0  0  0  0  0  0  0  0  0  0  0  0  # atno 10765 bound_to 10752
  139.8774  134.9197  156.4957 H   0  0  0  0  0  0  0  0  0  0  0  0  # atno 11005 bound_to 11000
  145.5390  141.0422  143.2341 LP  0  0  0  0  0  0  0  0  0  0  0  0  # atno 17320 bound_to 7965
  144.7631  139.6909  143.7226 LP  0  0  0  0  0  0  0  0  0  0  0  0  # atno 17321 bound_to 7965
  139.4991  144.3960  152.0231 LP  0  0  0  0  0  0  0  0  0  0  0  0  # atno 17342 bound_to 10162
  140.3069  144.3582  150.6044 LP  0  0  0  0  0  0  0  0  0  0  0  0  # atno 17343 bound_to 10162
  157.5334  131.0937  150.9924 LP  0  0  0  0  0  0  0  0  0  0  0  0  # atno 17370 bound_to 10713
  157.0225  130.5679  149.5333 LP  0  0  0  0  0  0  0  0  0  0  0  0  # atno 17371 bound_to 10713
  140.8626  133.8048  155.9281 LP  0  0  0  0  0  0  0  0  0  0  0  0  # atno 17394 bound_to 11000
  140.9034  134.2351  157.5029 LP  0  0  0  0  0  0  0  0  0  0  0  0  # atno 17395 bound_to 11000

$$$$
