AV-unprocessed.smi:342|AV-procd|sdf|2385|dock10
  -GOLD-   2262022313D 1   1.00000     0.00000
 Structure written by MMmdl.
 41 43  0  0  0  0  0  0  0  0  1 V2000
  152.7250  139.7533  155.7388 O   0  0  0  0  0  0  0  0  0  0  0  0
  151.3817  140.1724  155.8790 C   0  0  1  0  0  0  0  0  0  0  0  0
  150.5134  139.3942  154.8694 C   0  0  0  0  0  0  0  0  0  0  0  0
  149.1076  139.7964  154.7989 N   0  0  0  0  0  0  0  0  0  0  0  0
  148.9885  141.2106  154.4591 C   0  0  0  0  0  0  0  0  0  0  0  0
  147.5206  141.6631  154.3780 C   0  0  0  0  0  0  0  0  0  0  0  0
  146.8288  140.8615  153.4268 O   0  0  0  0  0  0  0  0  0  0  0  0
  146.8775  139.4743  153.7424 C   0  0  0  0  0  0  0  0  0  0  0  0
  148.3428  139.0124  153.8296 C   0  0  0  0  0  0  0  0  0  0  0  0
  150.9142  139.9287  157.3285 C   0  0  0  0  0  0  0  0  0  0  0  0
  151.7009  140.6675  158.3089 N   0  0  0  0  0  0  0  0  0  0  0  0
  152.6427  140.1992  159.1702 C   0  0  0  0  0  0  0  0  0  0  0  0
  153.0169  138.7444  159.2442 C   0  0  0  0  0  0  0  0  0  0  0  0
  153.6313  138.3523  158.1269 F   0  0  0  0  0  0  0  0  0  0  0  0
  153.8482  138.5271  160.2635 F   0  0  0  0  0  0  0  0  0  0  0  0
  151.9361  137.9802  159.4007 F   0  0  0  0  0  0  0  0  0  0  0  0
  153.2004  141.1160  159.9647 N   0  0  0  0  0  0  0  0  0  0  0  0
  152.5603  142.2800  159.5903 C   0  0  0  0  0  0  0  0  0  0  0  0
  152.7088  143.6026  160.0651 C   0  0  0  0  0  0  0  0  0  0  0  0
  151.9265  144.6459  159.5281 C   0  0  0  0  0  0  0  0  0  0  0  0
  150.9854  144.3814  158.5123 C   0  0  0  0  0  0  0  0  0  0  0  0
  150.8224  143.0705  158.0248 C   0  0  0  0  0  0  0  0  0  0  0  0
  151.6092  142.0332  158.5612 C   0  0  0  0  0  0  0  0  0  0  0  0
  152.8129  139.2941  154.9177 H   0  0  0  0  0  0  0  0  0  0  0  0
  151.3408  141.2415  155.6801 H   0  0  0  0  0  0  0  0  0  0  0  0
  150.9694  139.4985  153.8835 H   0  0  0  0  0  0  0  0  0  0  0  0
  150.5625  138.3294  155.1030 H   0  0  0  0  0  0  0  0  0  0  0  0
  149.5085  141.8152  155.2032 H   0  0  0  0  0  0  0  0  0  0  0  0
  149.4777  141.4044  153.5032 H   0  0  0  0  0  0  0  0  0  0  0  0
  147.0366  141.5843  155.3529 H   0  0  0  0  0  0  0  0  0  0  0  0
  147.4621  142.7083  154.0742 H   0  0  0  0  0  0  0  0  0  0  0  0
  146.3581  139.2901  154.6842 H   0  0  0  0  0  0  0  0  0  0  0  0
  146.3490  138.9145  152.9705 H   0  0  0  0  0  0  0  0  0  0  0  0
  148.8038  139.0908  152.8438 H   0  0  0  0  0  0  0  0  0  0  0  0
  148.3534  137.9568  154.0966 H   0  0  0  0  0  0  0  0  0  0  0  0
  149.8739  140.2373  157.4368 H   0  0  0  0  0  0  0  0  0  0  0  0
  150.9370  138.8647  157.5592 H   0  0  0  0  0  0  0  0  0  0  0  0
  153.4250  143.8144  160.8451 H   0  0  0  0  0  0  0  0  0  0  0  0
  152.0480  145.6532  159.8986 H   0  0  0  0  0  0  0  0  0  0  0  0
  150.3884  145.1854  158.1072 H   0  0  0  0  0  0  0  0  0  0  0  0
  150.1018  142.8660  157.2472 H   0  0  0  0  0  0  0  0  0  0  0  0
  1  2  1  0  0  0  0
  1 24  1  0  0  0  0
  2  3  1  0  0  0  0
  2 10  1  0  0  0  0
  2 25  1  0  0  0  0
  3  4  1  0  0  0  0
  3 26  1  0  0  0  0
  3 27  1  0  0  0  0
  4  9  1  0  0  0  0
  4  5  1  0  0  0  0
  5  6  1  0  0  0  0
  5 28  1  0  0  0  0
  5 29  1  0  0  0  0
  6  7  1  0  0  0  0
  6 30  1  0  0  0  0
  6 31  1  0  0  0  0
  7  8  1  0  0  0  0
  8  9  1  0  0  0  0
  8 32  1  0  0  0  0
  8 33  1  0  0  0  0
  9 34  1  0  0  0  0
  9 35  1  0  0  0  0
 10 11  1  0  0  0  0
 10 36  1  0  0  0  0
 10 37  1  0  0  0  0
 11 23  1  0  0  0  0
 11 12  1  0  0  0  0
 12 13  1  0  0  0  0
 12 17  2  0  0  0  0
 13 14  1  0  0  0  0
 13 15  1  0  0  0  0
 13 16  1  0  0  0  0
 17 18  1  0  0  0  0
 18 23  2  0  0  0  0
 18 19  1  0  0  0  0
 19 20  2  0  0  0  0
 19 38  1  0  0  0  0
 20 21  1  0  0  0  0
 20 39  1  0  0  0  0
 21 22  2  0  0  0  0
 21 40  1  0  0  0  0
 22 23  1  0  0  0  0
 22 41  1  0  0  0  0
M  END
> <s_m_source_file>
AV-unprocessed.smi

> <i_m_source_file_index>
342

> <i_lp_mmshare_version>
43012

> <i_f3d_flags>
0

> <s_epik_input>
W2NIXTFbY0hdW2NIXVtjSF1jKGMxMiluKGMobjIpQyhGKShGKUYpW0NIMl1bQ0BIXShbT0hdKVtDSDJdTjNbQ0gyXVtDSDJdT1tDSDJdW0NIMl0z

> <s_epik_cmdline>
J2VwaWtfcHl0aG9uJywgJy1waCcsICc3LjAnLCAnLXRuJywgJzgnLCAnLW1hJywgJzIwMCcsICctbWV0YWxfYmluZGluZycsICctaW1hZScsICc8aW5maWxlLm1hZT4nLCAnLW9tYWUnLCAnPG91dGZpbGUubWFlPic=

> <r_epik_Ionization_Penalty>
0.263195

> <r_epik_Ionization_Penalty_Charging>
0

> <r_epik_Ionization_Penalty_Neutral>
0.263195

> <r_epik_State_Penalty>
0.254683

> <r_epik_Charging_Adjusted_Penalty>
0.254683

> <i_epik_Tot_Q>
0

> <i_epik_Tot_abs_Q>
0

> <r_epik_Metal_State_Penalty>
0.254691

> <b_epik_Metal_Only>
0

> <s_lp_Force_Field>
OPLS_2005

> <r_lp_Energy>
34.5572

> <b_lp_Chiralities_Consistent>
1

> <s_lp_Variant>
AV-unprocessed.smi:342-2

> <Gold.Version>
5.8.1

> <Gold.Id.Protein>
6NUR|6NUR_protein|mol2

> <Gold.PLP.Fitness>
50.6784

> <Gold.PLP.PLP>
-48.2889

> <Gold.PLP.part.hbond>
-1.0000

> <Gold.PLP.part.metal>
0.0000

> <Gold.PLP.part.buried>
-5.3027

> <Gold.PLP.part.nonpolar>
-42.8844

> <Gold.PLP.part.repulsive>
0.2808

> <Gold.PLP.ligand.clash>
0.0000

> <Gold.PLP.ligand.torsion>
0.3301

> <Gold.PLP.Chemscore.Hbond>
1.0000

> <Gold.PLP.Chemscore.CHOScore>
0.0000

> <Gold.PLP.Chemscore.Metal>
0.0000

> <Gold.Chemscore.Hbonds>
donor molecule, donor type, donor heavy atom, donor atom, acceptor molecule, acceptor atom, score
      P1  H  7997  8009       L1     1  1.00

> <Gold.PLP.Chemscore.Internal.Correction>
0.0498

> <Gold.Rescore>
     Score         DG    S(hbond)    S(metal)    S(lipo)     H(rot)  DE(clash)    DE(int)     intcor
     15.60     -17.46       0.99        0.00     123.23       2.24       0.02       1.84       ----

> <Gold.Chemscore.Fitness>
15.6007

> <Gold.Chemscore.DG>
-17.4609

> <Gold.Chemscore.ZeroCoef>
-5.4800

> <Gold.Chemscore.Hbond>
0.9889

> <Gold.Chemscore.Metal>
0.0000

> <Gold.Chemscore.Lipo>
123.2297

> <Gold.Chemscore.Internal_Hbond>
0.0000

> <Gold.Chemscore.DEClash>
0.0245

> <Gold.Chemscore.DEInternal>
1.8356

> <Gold.Chemscore.Rot>
2.2421

> <Gold.Chemscore.Internal.Correction>
   9.000000E+99

> <Gold.Chemscore.Hbonds>
donor molecule, donor type, donor heavy atom, donor atom, acceptor molecule, acceptor atom, score
      P1  H  7997  8009       L1     1  0.26

> <Gold.Chemscore.Hbond.Weighted>
-3.3029

> <Gold.Chemscore.Metal.Weighted>
-0.0000

> <Gold.Chemscore.Lipo.Weighted>
-14.4179

> <Gold.Chemscore.Internal_Hbond.Weighted>
0.0000

> <Gold.Chemscore.DEClash.Weighted>
0.0245

> <Gold.Chemscore.DEInternal.Weighted>
1.8356

> <Gold.Chemscore.Rot.Weighted>
5.7399

> <Gold.Chemscore.Internal.Correction.Weighted>
   9.000000E+99

> <Gold.Protein.RotatedTorsions>
[ 6907 6896 6895 6894 ] final  166.07 input  -60.11 | X-H torsion
[ 7974 7965 7964 7962 ] final  -83.35 input  175.53 | X-H torsion
[ 8008 7997 7996 7995 ] final -144.79 input   59.86 | X-H torsion
[ 10167 10162 10161 10158 ] final  -52.03 input  -65.29 | X-H torsion
[ 10718 10713 10712 10709 ] final  130.44 input   66.30 | X-H torsion
[ 10763 10752 10751 10750 ] final -150.05 input  -60.55 | X-H torsion
[ 11005 11000 10999 10996 ] final -115.65 input  -57.11 | X-H torsion

> <Gold.Protein.ActiveResidues>
 VAL166  LYS551  ARG553  GLY616  TRP617  ASP618  TYR619  PRO620  LYS621  CYS622 
 ASP623  PHE694  ASN695  SER759  ASP760  ASP761  ALA762  ILE779  LEU786  VAL792 
 PHE793  MET794  SER795  GLU796  ALA797  LYS798  CYS799  TRP800  GLU811  SER814 

> <Gold.Protein.RotatedAtoms>
  151.8846  133.3502  159.3777 H   0  0  0  0  0  0  0  0  0  0  0  0  # atno 6907 bound_to 6896
  150.7119  134.4985  159.5559 H   0  0  0  0  0  0  0  0  0  0  0  0  # atno 6908 bound_to 6896
  152.2543  134.8101  160.0492 H   0  0  0  0  0  0  0  0  0  0  0  0  # atno 6909 bound_to 6896
  145.5212  140.9531  143.1654 H   0  0  0  0  0  0  0  0  0  0  0  0  # atno 7974 bound_to 7965
  155.5327  140.0601  157.2885 H   0  0  0  0  0  0  0  0  0  0  0  0  # atno 8008 bound_to 7997
  154.4479  140.1933  156.0556 H   0  0  0  0  0  0  0  0  0  0  0  0  # atno 8009 bound_to 7997
  156.0640  140.3268  155.7500 H   0  0  0  0  0  0  0  0  0  0  0  0  # atno 8010 bound_to 7997
  140.6558  143.2598  151.4589 H   0  0  0  0  0  0  0  0  0  0  0  0  # atno 10167 bound_to 10162
  157.5061  131.1095  150.9359 H   0  0  0  0  0  0  0  0  0  0  0  0  # atno 10718 bound_to 10713
  154.8142  135.3294  154.7222 H   0  0  0  0  0  0  0  0  0  0  0  0  # atno 10763 bound_to 10752
  153.7866  135.6914  153.4883 H   0  0  0  0  0  0  0  0  0  0  0  0  # atno 10764 bound_to 10752
  153.1944  135.4539  155.0137 H   0  0  0  0  0  0  0  0  0  0  0  0  # atno 10765 bound_to 10752
  141.0474  133.9742  157.2895 H   0  0  0  0  0  0  0  0  0  0  0  0  # atno 11005 bound_to 11000
  144.7675  139.6811  143.7208 LP  0  0  0  0  0  0  0  0  0  0  0  0  # atno 17320 bound_to 7965
  146.2105  139.5458  142.9684 LP  0  0  0  0  0  0  0  0  0  0  0  0  # atno 17321 bound_to 7965
  139.5781  144.1773  152.1931 LP  0  0  0  0  0  0  0  0  0  0  0  0  # atno 17342 bound_to 10162
  140.1089  144.5474  150.6938 LP  0  0  0  0  0  0  0  0  0  0  0  0  # atno 17343 bound_to 10162
  157.0014  130.5601  149.5312 LP  0  0  0  0  0  0  0  0  0  0  0  0  # atno 17370 bound_to 10713
  156.0259  130.5353  150.8405 LP  0  0  0  0  0  0  0  0  0  0  0  0  # atno 17371 bound_to 10713
  139.9322  135.0199  156.8439 LP  0  0  0  0  0  0  0  0  0  0  0  0  # atno 17394 bound_to 11000
  140.6121  134.0072  155.7581 LP  0  0  0  0  0  0  0  0  0  0  0  0  # atno 17395 bound_to 11000

$$$$
