AV-unprocessed.smi:1491|AV-procd|sdf|6032|dock1
  -GOLD-   22720 6133D 1   1.00000     0.00000
 Structure written by MMmdl.
 39 40  0  0  0  0  0  0  0  0  2 V2000
  144.5439  137.0875  152.4334 O   0  0  0  0  0  0  0  0  0  0  0  0
  145.7325  136.7753  152.3649 C   0  0  0  0  0  0  0  0  0  0  0  0
  146.7207  137.4461  152.9729 N   0  0  0  0  0  0  0  0  0  0  0  0
  146.5468  138.6356  153.8022 C   0  0  0  0  0  0  0  0  0  0  0  0
  147.0329  139.9275  153.1147 C   0  0  0  0  0  0  0  0  0  0  0  0
  148.0319  140.6500  153.9069 N   0  0  0  0  0  0  0  0  0  0  0  0
  149.2137  140.1583  154.3990 C   0  0  0  0  0  0  0  0  0  0  0  0
  149.8161  141.1902  155.0713 C   0  0  0  0  0  0  0  0  0  0  0  0
  148.9762  142.2662  154.9624 N   0  3  0  0  0  0  0  0  0  0  0  0
  147.8916  141.9357  154.2537 C   0  0  0  0  0  0  0  0  0  0  0  0
  146.1946  135.7152  151.6876 N   0  0  0  0  0  0  0  0  0  0  0  0
  145.3691  134.7710  150.9407 C   0  0  2  0  0  0  0  0  0  0  0  0
  144.1420  134.3427  151.7730 C   0  0  0  0  0  0  0  0  0  0  0  0
  143.2990  133.2936  151.0298 C   0  0  0  0  0  0  0  0  0  0  0  0
  144.1508  132.0751  150.6350 C   0  0  1  0  0  0  0  0  0  0  0  0
  143.3627  131.1680  149.8938 O   0  0  0  0  0  0  0  0  0  0  0  0
  145.3701  132.4992  149.7987 C   0  0  0  0  0  0  0  0  0  0  0  0
  146.2143  133.5460  150.5436 C   0  0  0  0  0  0  0  0  0  0  0  0
  147.6655  137.1119  152.8497 H   0  0  0  0  0  0  0  0  0  0  0  0
  145.4890  138.7231  154.0520 H   0  0  0  0  0  0  0  0  0  0  0  0
  147.0746  138.4962  154.7470 H   0  0  0  0  0  0  0  0  0  0  0  0
  147.4776  139.6931  152.1465 H   0  0  0  0  0  0  0  0  0  0  0  0
  146.2029  140.6075  152.9186 H   0  0  0  0  0  0  0  0  0  0  0  0
  149.5299  139.1379  154.2351 H   0  0  0  0  0  0  0  0  0  0  0  0
  150.7542  141.2381  155.6047 H   0  0  0  0  0  0  0  0  0  0  0  0
  147.0659  142.5805  154.0098 H   0  0  0  0  0  0  0  0  0  0  0  0
  147.1895  135.5448  151.6897 H   0  0  0  0  0  0  0  0  0  0  0  0
  145.0225  135.2527  150.0241 H   0  0  0  0  0  0  0  0  0  0  0  0
  144.4687  133.9321  152.7295 H   0  0  0  0  0  0  0  0  0  0  0  0
  143.5217  135.2090  152.0048 H   0  0  0  0  0  0  0  0  0  0  0  0
  142.4633  132.9805  151.6566 H   0  0  0  0  0  0  0  0  0  0  0  0
  142.8646  133.7472  150.1379 H   0  0  0  0  0  0  0  0  0  0  0  0
  144.4909  131.5642  151.5367 H   0  0  0  0  0  0  0  0  0  0  0  0
  142.4516  131.3620  150.0528 H   0  0  0  0  0  0  0  0  0  0  0  0
  145.9849  131.6295  149.5638 H   0  0  0  0  0  0  0  0  0  0  0  0
  145.0408  132.9131  148.8445 H   0  0  0  0  0  0  0  0  0  0  0  0
  147.0504  133.8564  149.9158 H   0  0  0  0  0  0  0  0  0  0  0  0
  146.6490  133.0906  151.4346 H   0  0  0  0  0  0  0  0  0  0  0  0
  149.1482  143.1808  155.3612 H   0  0  0  0  0  0  0  0  0  0  0  0
  1  2  2  0  0  0  0
  2  3  1  0  0  0  0
  2 11  1  0  0  0  0
  3  4  1  0  0  0  0
  3 19  1  0  0  0  0
  4  5  1  0  0  0  0
  4 20  1  0  0  0  0
  4 21  1  0  0  0  0
  5  6  1  0  0  0  0
  5 22  1  0  0  0  0
  5 23  1  0  0  0  0
  6 10  1  0  0  0  0
  6  7  1  0  0  0  0
  7  8  2  0  0  0  0
  7 24  1  0  0  0  0
  8  9  1  0  0  0  0
  8 25  1  0  0  0  0
  9 10  2  0  0  0  0
  9 39  1  0  0  0  0
 10 26  1  0  0  0  0
 11 12  1  0  0  0  0
 11 27  1  0  0  0  0
 12 18  1  0  0  0  0
 12 13  1  0  0  0  0
 12 28  1  0  0  0  0
 13 14  1  0  0  0  0
 13 29  1  0  0  0  0
 13 30  1  0  0  0  0
 14 15  1  0  0  0  0
 14 31  1  0  0  0  0
 14 32  1  0  0  0  0
 15 16  1  0  0  0  0
 15 17  1  0  0  0  0
 15 33  1  0  0  0  0
 16 34  1  0  0  0  0
 17 18  1  0  0  0  0
 17 35  1  0  0  0  0
 17 36  1  0  0  0  0
 18 37  1  0  0  0  0
 18 38  1  0  0  0  0
M  CHG  1   9   1
M  END
> <s_m_source_file>
AV-unprocessed.smi

> <i_m_source_file_index>
1491

> <i_lp_mmshare_version>
43012

> <i_f3d_flags>
0

> <s_epik_input>
W0NIMl0xW0NIMl1bQ0BIXShbT0hdKVtDSDJdW0NIMl1bQ0BIXTFbTkhdQyg9TylbTkhdW0NIMl1bQ0gyXW4yW2NIXVtjSF1uW2NIXTI=

> <s_epik_cmdline>
J2VwaWtfcHl0aG9uJywgJy1waCcsICc3LjAnLCAnLXRuJywgJzgnLCAnLW1hJywgJzIwMCcsICctbWV0YWxfYmluZGluZycsICctaW1hZScsICc8aW5maWxlLm1hZT4nLCAnLW9tYWUnLCAnPG91dGZpbGUubWFlPic=

> <r_lp_tautomer_probability>
1

> <r_epik_Ionization_Penalty>
0.254652

> <r_epik_Ionization_Penalty_Charging>
0

> <r_epik_Ionization_Penalty_Neutral>
0.254652

> <r_epik_State_Penalty>
0.246077

> <r_epik_Charging_Adjusted_Penalty>
0.246077

> <i_epik_Tot_Q>
1

> <i_epik_Tot_abs_Q>
1

> <r_epik_Metal_State_Penalty>
0.536042

> <b_epik_Metal_Only>
0

> <s_lp_Force_Field>
OPLS_2005

> <r_lp_Energy>
9.33043

> <b_lp_Chiralities_Consistent>
1

> <s_lp_Variant>
AV-unprocessed.smi:1491-1

> <Gold.Version>
5.8.1

> <Gold.Id.Protein>
6NUR|6NUR_protein|mol2

> <Gold.PLP.Fitness>
49.6045

> <Gold.PLP.PLP>
-34.0453

> <Gold.PLP.part.hbond>
-4.7761

> <Gold.PLP.part.metal>
0.0000

> <Gold.PLP.part.buried>
-0.5288

> <Gold.PLP.part.nonpolar>
-29.4853

> <Gold.PLP.part.repulsive>
0.7441

> <Gold.PLP.ligand.clash>
0.0000

> <Gold.PLP.ligand.torsion>
0.6091

> <Gold.PLP.Chemscore.Hbond>
5.5840

> <Gold.PLP.Chemscore.CHOScore>
0.0000

> <Gold.PLP.Chemscore.Metal>
0.0000

> <Gold.Chemscore.Hbonds>
donor molecule, donor type, donor heavy atom, donor atom, acceptor molecule, acceptor atom, score
      L1  H     3    19       P1  7948  1.00
      L1  H     9    39       P1  8028  2.00
      L1  H    11    27       P1  7948  0.99
      L1  H    16    34       P1 10952  0.62
      P1  H 10785 10796       L1    16  0.91

> <Gold.PLP.Chemscore.Internal.Correction>
0.0255

> <Gold.Rescore>
     Score         DG    S(hbond)    S(metal)    S(lipo)     H(rot)  DE(clash)    DE(int)     intcor
     16.69     -20.03       3.91        0.00      70.69       2.65       1.38       1.96       ----

> <Gold.Chemscore.Fitness>
16.6890

> <Gold.Chemscore.DG>
-20.0271

> <Gold.Chemscore.ZeroCoef>
-5.4800

> <Gold.Chemscore.Hbond>
3.9129

> <Gold.Chemscore.Metal>
0.0000

> <Gold.Chemscore.Lipo>
70.6948

> <Gold.Chemscore.Internal_Hbond>
0.0000

> <Gold.Chemscore.DEClash>
1.3785

> <Gold.Chemscore.DEInternal>
1.9596

> <Gold.Chemscore.Rot>
2.6536

> <Gold.Chemscore.Internal.Correction>
   9.000000E+99

> <Gold.Chemscore.Hbonds>
donor molecule, donor type, donor heavy atom, donor atom, acceptor molecule, acceptor atom, score
      L1  H     3    19       P1  7948  0.95
      L1  H     9    39       P1  8028  0.96
      L1  H    11    27       P1  7948  0.94
      L1  H    16    34       P1 10952  0.54
      P1  H 10785 10796       L1    16  0.19

> <Gold.Chemscore.Hbond.Weighted>
-13.0691

> <Gold.Chemscore.Metal.Weighted>
-0.0000

> <Gold.Chemscore.Lipo.Weighted>
-8.2713

> <Gold.Chemscore.Internal_Hbond.Weighted>
0.0000

> <Gold.Chemscore.DEClash.Weighted>
1.3785

> <Gold.Chemscore.DEInternal.Weighted>
1.9596

> <Gold.Chemscore.Rot.Weighted>
6.7933

> <Gold.Chemscore.Internal.Correction.Weighted>
   9.000000E+99

> <Gold.Protein.RotatedTorsions>
[ 6907 6896 6895 6894 ] final    1.89 input  -60.11 | X-H torsion
[ 7974 7965 7964 7962 ] final -102.77 input  175.53 | X-H torsion
[ 8008 7997 7996 7995 ] final   99.21 input   59.86 | X-H torsion
[ 10167 10162 10161 10158 ] final   31.64 input  -65.29 | X-H torsion
[ 10718 10713 10712 10709 ] final  -51.69 input   66.30 | X-H torsion
[ 10763 10752 10751 10750 ] final  -54.81 input  -60.55 | X-H torsion
[ 11005 11000 10999 10996 ] final  -51.69 input  -57.11 | X-H torsion

> <Gold.Protein.ActiveResidues>
 VAL166  LYS551  ARG553  GLY616  TRP617  ASP618  TYR619  PRO620  LYS621  CYS622 
 ASP623  PHE694  ASN695  SER759  ASP760  ASP761  ALA762  ILE779  LEU786  VAL792 
 PHE793  MET794  SER795  GLU796  ALA797  LYS798  CYS799  TRP800  GLU811  SER814 

> <Gold.Protein.RotatedAtoms>
  151.5999  135.1048  160.0057 H   0  0  0  0  0  0  0  0  0  0  0  0  # atno 6907 bound_to 6896
  152.4263  133.7196  159.6536 H   0  0  0  0  0  0  0  0  0  0  0  0  # atno 6908 bound_to 6896
  150.8152  133.8278  159.3186 H   0  0  0  0  0  0  0  0  0  0  0  0  # atno 6909 bound_to 6896
  145.2645  140.9279  143.3021 H   0  0  0  0  0  0  0  0  0  0  0  0  # atno 7974 bound_to 7965
  156.1082  140.3232  155.8036 H   0  0  0  0  0  0  0  0  0  0  0  0  # atno 8008 bound_to 7997
  155.4719  140.0547  157.2995 H   0  0  0  0  0  0  0  0  0  0  0  0  # atno 8009 bound_to 7997
  154.4742  140.2025  155.9934 H   0  0  0  0  0  0  0  0  0  0  0  0  # atno 8010 bound_to 7997
  140.4570  144.0963  150.6204 H   0  0  0  0  0  0  0  0  0  0  0  0  # atno 10167 bound_to 10162
  156.1688  130.4149  149.9680 H   0  0  0  0  0  0  0  0  0  0  0  0  # atno 10718 bound_to 10713
  154.1807  135.6444  153.5033 H   0  0  0  0  0  0  0  0  0  0  0  0  # atno 10763 bound_to 10752
  153.0060  135.5405  154.6517 H   0  0  0  0  0  0  0  0  0  0  0  0  # atno 10764 bound_to 10752
  154.5880  135.2931  155.0637 H   0  0  0  0  0  0  0  0  0  0  0  0  # atno 10765 bound_to 10752
  141.0885  133.6637  156.3915 H   0  0  0  0  0  0  0  0  0  0  0  0  # atno 11005 bound_to 11000
  144.9389  139.4212  143.6459 LP  0  0  0  0  0  0  0  0  0  0  0  0  # atno 17320 bound_to 7965
  146.3265  139.8338  142.8903 LP  0  0  0  0  0  0  0  0  0  0  0  0  # atno 17321 bound_to 7965
  140.4139  143.2644  151.9799 LP  0  0  0  0  0  0  0  0  0  0  0  0  # atno 17342 bound_to 10162
  139.4802  144.5891  151.7802 LP  0  0  0  0  0  0  0  0  0  0  0  0  # atno 17343 bound_to 10162
  156.7486  130.9107  151.3636 LP  0  0  0  0  0  0  0  0  0  0  0  0  # atno 17370 bound_to 10713
  157.6787  130.9119  150.0214 LP  0  0  0  0  0  0  0  0  0  0  0  0  # atno 17371 bound_to 10713
  140.5308  134.6214  157.5349 LP  0  0  0  0  0  0  0  0  0  0  0  0  # atno 17394 bound_to 11000
  139.9706  134.7299  156.0048 LP  0  0  0  0  0  0  0  0  0  0  0  0  # atno 17395 bound_to 11000

$$$$
