AV-unprocessed.smi:1240|AV-procd|sdf|5200|dock8
  -GOLD-   22720 4283D 1   1.00000     0.00000
 Structure written by MMmdl.
 48 50  0  0  0  0  0  0  0  0  2 V2000
  144.4935  136.3132  152.2484 O   0  0  0  0  0  0  0  0  0  0  0  0
  145.6998  136.1116  152.1091 C   0  0  0  0  0  0  0  0  0  0  0  0
  146.6428  136.9029  152.6401 N   0  0  0  0  0  0  0  0  0  0  0  0
  146.3805  138.0902  153.4456 C   0  0  0  0  0  0  0  0  0  0  0  0
  147.6151  139.0218  153.6212 C   0  0  1  0  0  0  0  0  0  0  0  0
  147.3530  140.2571  154.5296 C   0  0  2  0  0  0  0  0  0  0  0  0
  145.9728  140.8896  154.4145 C   0  0  0  0  0  0  0  0  0  0  0  0
  146.1863  142.3179  154.9153 C   0  0  0  0  0  0  0  0  0  0  0  0
  147.5834  142.5703  154.8202 O   0  0  0  0  0  0  0  0  0  0  0  0
  148.2214  141.4714  154.1889 C   0  0  0  0  0  0  0  0  0  0  0  0
  148.8086  138.2704  154.1150 N   0  3  0  0  0  0  0  0  0  0  0  0
  150.0503  139.0636  154.3008 C   0  0  0  0  0  0  0  0  0  0  0  0
  151.2243  138.1272  154.6317 C   0  0  0  0  0  0  0  0  0  0  0  0
  150.9149  137.3695  155.7956 O   0  0  0  0  0  0  0  0  0  0  0  0
  149.7688  136.5465  155.6115 C   0  0  0  0  0  0  0  0  0  0  0  0
  148.5436  137.4245  155.3046 C   0  0  0  0  0  0  0  0  0  0  0  0
  146.2491  135.1012  151.4134 N   0  0  0  0  0  0  0  0  0  0  0  0
  145.6019  134.0308  150.7387 C   0  0  0  0  0  0  0  0  0  0  0  0
  146.4066  132.9785  150.2552 C   0  0  0  0  0  0  0  0  0  0  0  0
  145.7877  131.8964  149.5981 C   0  0  0  0  0  0  0  0  0  0  0  0
  144.4539  131.8058  149.4137 N   0  0  0  0  0  0  0  0  0  0  0  0
  143.6834  132.8067  149.8900 C   0  0  0  0  0  0  0  0  0  0  0  0
  144.2007  133.9340  150.5598 C   0  0  0  0  0  0  0  0  0  0  0  0
  147.6108  136.6701  152.4715 H   0  0  0  0  0  0  0  0  0  0  0  0
  145.5681  138.6296  152.9586 H   0  0  0  0  0  0  0  0  0  0  0  0
  145.9944  137.7652  154.4122 H   0  0  0  0  0  0  0  0  0  0  0  0
  147.8897  139.4124  152.6402 H   0  0  0  0  0  0  0  0  0  0  0  0
  147.5199  139.9940  155.5749 H   0  0  0  0  0  0  0  0  0  0  0  0
  145.6509  140.9114  153.3722 H   0  0  0  0  0  0  0  0  0  0  0  0
  145.2102  140.3689  154.9935 H   0  0  0  0  0  0  0  0  0  0  0  0
  145.6181  143.0399  154.3280 H   0  0  0  0  0  0  0  0  0  0  0  0
  145.8835  142.4166  155.9583 H   0  0  0  0  0  0  0  0  0  0  0  0
  149.2500  141.3679  154.5358 H   0  0  0  0  0  0  0  0  0  0  0  0
  148.2413  141.6461  153.1119 H   0  0  0  0  0  0  0  0  0  0  0  0
  150.2815  139.6311  153.3997 H   0  0  0  0  0  0  0  0  0  0  0  0
  149.9248  139.7812  155.1125 H   0  0  0  0  0  0  0  0  0  0  0  0
  151.4403  137.4612  153.7947 H   0  0  0  0  0  0  0  0  0  0  0  0
  152.1279  138.7078  154.8182 H   0  0  0  0  0  0  0  0  0  0  0  0
  149.9467  135.8307  154.8072 H   0  0  0  0  0  0  0  0  0  0  0  0
  149.5991  135.9685  156.5201 H   0  0  0  0  0  0  0  0  0  0  0  0
  148.3130  138.0485  156.1685 H   0  0  0  0  0  0  0  0  0  0  0  0
  147.6757  136.7883  155.1274 H   0  0  0  0  0  0  0  0  0  0  0  0
  147.2537  135.1228  151.3183 H   0  0  0  0  0  0  0  0  0  0  0  0
  147.4795  132.9972  150.3781 H   0  0  0  0  0  0  0  0  0  0  0  0
  146.3812  131.0807  149.2126 H   0  0  0  0  0  0  0  0  0  0  0  0
  142.6188  132.7034  149.7392 H   0  0  0  0  0  0  0  0  0  0  0  0
  143.5183  134.6838  150.9283 H   0  0  0  0  0  0  0  0  0  0  0  0
  149.0177  137.6130  153.3771 H   0  0  0  0  0  0  0  0  0  0  0  0
  1  2  2  0  0  0  0
  2  3  1  0  0  0  0
  2 17  1  0  0  0  0
  3  4  1  0  0  0  0
  3 24  1  0  0  0  0
  4  5  1  0  0  0  0
  4 25  1  0  0  0  0
  4 26  1  0  0  0  0
  5  6  1  0  0  0  0
  5 11  1  0  0  0  0
  5 27  1  0  0  0  0
  6 10  1  0  0  0  0
  6  7  1  0  0  0  0
  6 28  1  0  0  0  0
  7  8  1  0  0  0  0
  7 29  1  0  0  0  0
  7 30  1  0  0  0  0
  8  9  1  0  0  0  0
  8 31  1  0  0  0  0
  8 32  1  0  0  0  0
  9 10  1  0  0  0  0
 10 33  1  0  0  0  0
 10 34  1  0  0  0  0
 11 16  1  0  0  0  0
 11 12  1  0  0  0  0
 11 48  1  0  0  0  0
 12 13  1  0  0  0  0
 12 35  1  0  0  0  0
 12 36  1  0  0  0  0
 13 14  1  0  0  0  0
 13 37  1  0  0  0  0
 13 38  1  0  0  0  0
 14 15  1  0  0  0  0
 15 16  1  0  0  0  0
 15 39  1  0  0  0  0
 15 40  1  0  0  0  0
 16 41  1  0  0  0  0
 16 42  1  0  0  0  0
 17 18  1  0  0  0  0
 17 43  1  0  0  0  0
 18 23  1  0  0  0  0
 18 19  2  0  0  0  0
 19 20  1  0  0  0  0
 19 44  1  0  0  0  0
 20 21  2  0  0  0  0
 20 45  1  0  0  0  0
 21 22  1  0  0  0  0
 22 23  2  0  0  0  0
 22 46  1  0  0  0  0
 23 47  1  0  0  0  0
M  CHG  1  11   1
M  END
> <s_m_source_file>
AV-unprocessed.smi

> <i_m_source_file_index>
1240

> <i_lp_mmshare_version>
43012

> <i_f3d_flags>
0

> <s_epik_input>
W2NIXTFbY0hdbltjSF1bY0hdYzFbTkhdQyg9TylbTkhdW0NIMl1bQ0BIXShbQ0BASF0yW0NIMl1bQ0gyXU9bQ0gyXTIpTjNbQ0gyXVtDSDJdT1tDSDJdW0NIMl0z

> <s_epik_cmdline>
J2VwaWtfcHl0aG9uJywgJy1waCcsICc3LjAnLCAnLXRuJywgJzgnLCAnLW1hJywgJzIwMCcsICctbWV0YWxfYmluZGluZycsICctaW1hZScsICc8aW5maWxlLm1hZT4nLCAnLW9tYWUnLCAnPG91dGZpbGUubWFlPic=

> <r_epik_Ionization_Penalty>
1.08433

> <r_epik_Ionization_Penalty_Charging>
0.98326

> <r_epik_Ionization_Penalty_Neutral>
0.10107

> <r_epik_State_Penalty>
1.11265

> <r_epik_Charging_Adjusted_Penalty>
2.09591

> <i_epik_Tot_Q>
1

> <i_epik_Tot_abs_Q>
1

> <r_epik_Metal_State_Penalty>
1.10731

> <b_epik_Metal_Only>
0

> <s_lp_Force_Field>
OPLS_2005

> <r_lp_Energy>
42.8142

> <b_lp_Chiralities_Consistent>
1

> <s_lp_Variant>
AV-unprocessed.smi:1240-6

> <Gold.Version>
5.8.1

> <Gold.Id.Protein>
6NUR|6NUR_protein|mol2

> <Gold.PLP.Fitness>
49.0249

> <Gold.PLP.PLP>
-33.3940

> <Gold.PLP.part.hbond>
-3.9023

> <Gold.PLP.part.metal>
0.0000

> <Gold.PLP.part.buried>
-3.6571

> <Gold.PLP.part.nonpolar>
-30.7706

> <Gold.PLP.part.repulsive>
3.6949

> <Gold.PLP.ligand.clash>
0.0000

> <Gold.PLP.ligand.torsion>
0.7122

> <Gold.PLP.Chemscore.Hbond>
4.1372

> <Gold.PLP.Chemscore.CHOScore>
1.4609

> <Gold.PLP.Chemscore.Metal>
0.0000

> <Gold.Chemscore.Hbonds>
donor molecule, donor type, donor heavy atom, donor atom, acceptor molecule, acceptor atom, score
      L1  H     3    24       P1  7948  1.00
      L1  H    11    48       P1  7948  2.00
      L1  H    17    43       P1  7948  0.84
      P1  H 10785 10796       L1    21  0.31
      L1  C    20    45       P1 10747  0.27
      L1  C    22    46       P1 10186  0.97

> <Gold.PLP.Chemscore.Internal.Correction>
0.2608

> <Gold.Rescore>
     Score         DG    S(hbond)    S(metal)    S(lipo)     H(rot)  DE(clash)    DE(int)     intcor
     18.07     -21.81       2.82        0.00      96.19       1.70       1.65       2.09       ----

> <Gold.Chemscore.Fitness>
18.0660

> <Gold.Chemscore.DG>
-21.8099

> <Gold.Chemscore.ZeroCoef>
-5.4800

> <Gold.Chemscore.Hbond>
2.8243

> <Gold.Chemscore.Metal>
0.0000

> <Gold.Chemscore.Lipo>
96.1897

> <Gold.Chemscore.Internal_Hbond>
0.0000

> <Gold.Chemscore.DEClash>
1.6539

> <Gold.Chemscore.DEInternal>
2.0900

> <Gold.Chemscore.Rot>
1.7021

> <Gold.Chemscore.Internal.Correction>
   9.000000E+99

> <Gold.Chemscore.Hbonds>
donor molecule, donor type, donor heavy atom, donor atom, acceptor molecule, acceptor atom, score
      L1  H     3    24       P1  7948  0.93
      L1  H    11    48       P1  7948  0.93
      L1  H    17    43       P1  7948  0.55
      P1  H 10785 10796       L1    21  0.25

> <Gold.Chemscore.Hbond.Weighted>
-9.4332

> <Gold.Chemscore.Metal.Weighted>
-0.0000

> <Gold.Chemscore.Lipo.Weighted>
-11.2542

> <Gold.Chemscore.Internal_Hbond.Weighted>
0.0000

> <Gold.Chemscore.DEClash.Weighted>
1.6539

> <Gold.Chemscore.DEInternal.Weighted>
2.0900

> <Gold.Chemscore.Rot.Weighted>
4.3575

> <Gold.Chemscore.Internal.Correction.Weighted>
   9.000000E+99

> <Gold.Protein.RotatedTorsions>
[ 6907 6896 6895 6894 ] final -139.65 input  -60.11 | X-H torsion
[ 7974 7965 7964 7962 ] final -171.63 input  175.53 | X-H torsion
[ 8008 7997 7996 7995 ] final  -69.04 input   59.86 | X-H torsion
[ 10167 10162 10161 10158 ] final  105.20 input  -65.29 | X-H torsion
[ 10718 10713 10712 10709 ] final   91.46 input   66.30 | X-H torsion
[ 10763 10752 10751 10750 ] final  -34.19 input  -60.55 | X-H torsion
[ 11005 11000 10999 10996 ] final   73.00 input  -57.11 | X-H torsion

> <Gold.Protein.ActiveResidues>
 VAL166  LYS551  ARG553  GLY616  TRP617  ASP618  TYR619  PRO620  LYS621  CYS622 
 ASP623  PHE694  ASN695  SER759  ASP760  ASP761  ALA762  ILE779  LEU786  VAL792 
 PHE793  MET794  SER795  GLU796  ALA797  LYS798  CYS799  TRP800  GLU811  SER814 

> <Gold.Protein.RotatedAtoms>
  151.0505  133.5628  159.2642 H   0  0  0  0  0  0  0  0  0  0  0  0  # atno 6907 bound_to 6896
  151.2640  135.0662  159.9119 H   0  0  0  0  0  0  0  0  0  0  0  0  # atno 6908 bound_to 6896
  152.5381  134.0246  159.8051 H   0  0  0  0  0  0  0  0  0  0  0  0  # atno 6909 bound_to 6896
  144.7155  140.1893  143.6350 H   0  0  0  0  0  0  0  0  0  0  0  0  # atno 7974 bound_to 7965
  154.4910  140.0861  156.7594 H   0  0  0  0  0  0  0  0  0  0  0  0  # atno 8008 bound_to 7997
  155.4231  140.3446  155.4255 H   0  0  0  0  0  0  0  0  0  0  0  0  # atno 8009 bound_to 7997
  156.1329  140.1506  156.9026 H   0  0  0  0  0  0  0  0  0  0  0  0  # atno 8010 bound_to 7997
  139.7113  144.7077  151.1023 H   0  0  0  0  0  0  0  0  0  0  0  0  # atno 10167 bound_to 10162
  157.6960  131.0408  150.3733 H   0  0  0  0  0  0  0  0  0  0  0  0  # atno 10718 bound_to 10713
  153.8427  135.6856  153.4801 H   0  0  0  0  0  0  0  0  0  0  0  0  # atno 10763 bound_to 10752
  153.1444  135.4644  154.9542 H   0  0  0  0  0  0  0  0  0  0  0  0  # atno 10764 bound_to 10752
  154.7838  135.3277  154.7879 H   0  0  0  0  0  0  0  0  0  0  0  0  # atno 10765 bound_to 10752
  139.9462  134.7309  156.0974 H   0  0  0  0  0  0  0  0  0  0  0  0  # atno 11005 bound_to 11000
  145.8784  139.2309  143.1620 LP  0  0  0  0  0  0  0  0  0  0  0  0  # atno 17320 bound_to 7965
  146.0019  140.8513  143.0014 LP  0  0  0  0  0  0  0  0  0  0  0  0  # atno 17321 bound_to 7965
  140.7734  143.5289  150.9446 LP  0  0  0  0  0  0  0  0  0  0  0  0  # atno 17342 bound_to 10162
  139.8974  143.6878  152.3136 LP  0  0  0  0  0  0  0  0  0  0  0  0  # atno 17343 bound_to 10162
  156.4155  130.3942  149.6861 LP  0  0  0  0  0  0  0  0  0  0  0  0  # atno 17370 bound_to 10713
  156.4131  130.7731  151.2745 LP  0  0  0  0  0  0  0  0  0  0  0  0  # atno 17371 bound_to 10713
  141.1113  133.6642  156.2985 LP  0  0  0  0  0  0  0  0  0  0  0  0  # atno 17394 bound_to 11000
  140.5829  134.5728  157.5483 LP  0  0  0  0  0  0  0  0  0  0  0  0  # atno 17395 bound_to 11000

$$$$
