AV-unprocessed.smi:246|AV-procd|sdf|1885|dock6
  -GOLD-   2262020543D 1   1.00000     0.00000
 Structure written by MMmdl.
 57 60  0  0  0  0  0  0  0  0  1 V2000
  152.3128  144.7139  158.8185 C   0  0  0  0  0  0  0  0  0  0  0  0
  151.0909  143.8943  159.2551 C   0  0  0  0  0  0  0  0  0  0  0  0
  151.4402  142.8878  160.1951 O   0  0  0  0  0  0  0  0  0  0  0  0
  152.3960  141.9517  159.7186 C   0  0  0  0  0  0  0  0  0  0  0  0
  151.6655  140.8321  158.9720 C   0  0  0  0  0  0  0  0  0  0  0  0
  150.8371  141.4071  157.9727 O   0  0  0  0  0  0  0  0  0  0  0  0
  150.6037  140.5496  156.8653 C   0  0  2  0  0  0  0  0  0  0  0  0
  150.1636  141.3489  155.6395 C   0  0  0  0  0  0  0  0  0  0  0  0
  149.4139  140.3082  154.8103 C   0  0  0  0  0  0  0  0  0  0  0  0
  148.7870  139.4338  155.7922 N   0  0  0  0  0  0  0  0  0  0  0  0
  148.1605  138.2835  155.4330 C   0  0  0  0  0  0  0  0  0  0  0  0
  148.4444  137.1439  156.1182 N   0  0  0  0  0  0  0  0  0  0  0  0
  147.8441  135.9931  155.8020 C   0  0  0  0  0  0  0  0  0  0  0  0
  146.9443  135.7573  154.8463 N   0  0  0  0  0  0  0  0  0  0  0  0
  146.6645  136.8904  154.1422 C   0  0  0  0  0  0  0  0  0  0  0  0
  147.2218  138.1831  154.3633 C   0  0  0  0  0  0  0  0  0  0  0  0
  146.6984  139.0797  153.4372 N   0  0  0  0  0  0  0  0  0  0  0  0
  145.8743  138.3645  152.7223 C   0  0  0  0  0  0  0  0  0  0  0  0
  145.7890  137.0397  153.0811 N   0  0  0  0  0  0  0  0  0  0  0  0
  144.9481  136.0299  152.4626 C   0  0  0  0  0  0  0  0  0  0  0  0
  145.6451  135.3392  151.2744 C   0  0  2  0  0  0  0  0  0  0  0  0
  145.1982  135.9263  150.0670 O   0  0  0  0  0  0  0  0  0  0  0  0
  145.3607  133.8268  151.2292 C   0  0  1  0  0  0  0  0  0  0  0  0
  143.9228  133.4619  150.8555 C   0  0  0  0  0  0  0  0  0  0  0  0
  144.0481  132.0703  150.2553 C   0  0  0  0  0  0  0  0  0  0  0  0
  145.5452  131.9189  149.9737 C   0  0  0  0  0  0  0  0  0  0  0  0
  146.0945  133.2124  150.1809 O   0  0  0  0  0  0  0  0  0  0  0  0
  149.4392  139.5735  157.0876 C   0  0  0  0  0  0  0  0  0  0  0  0
  151.5082  139.9946  156.6090 H   0  0  0  0  0  0  0  0  0  0  0  0
  152.0419  145.4190  158.0327 H   0  0  0  0  0  0  0  0  0  0  0  0
  153.0971  144.0659  158.4272 H   0  0  0  0  0  0  0  0  0  0  0  0
  152.7325  145.2901  159.6425 H   0  0  0  0  0  0  0  0  0  0  0  0
  150.3035  144.5402  159.6463 H   0  0  0  0  0  0  0  0  0  0  0  0
  150.6742  143.3947  158.3805 H   0  0  0  0  0  0  0  0  0  0  0  0
  153.1328  142.4196  159.0658 H   0  0  0  0  0  0  0  0  0  0  0  0
  152.9332  141.5276  160.5679 H   0  0  0  0  0  0  0  0  0  0  0  0
  152.3972  140.1773  158.4965 H   0  0  0  0  0  0  0  0  0  0  0  0
  151.0881  140.2253  159.6705 H   0  0  0  0  0  0  0  0  0  0  0  0
  149.4781  142.1433  155.9387 H   0  0  0  0  0  0  0  0  0  0  0  0
  150.9963  141.8041  155.1028 H   0  0  0  0  0  0  0  0  0  0  0  0
  148.6767  140.7708  154.1531 H   0  0  0  0  0  0  0  0  0  0  0  0
  150.1121  139.7350  154.1985 H   0  0  0  0  0  0  0  0  0  0  0  0
  148.1232  135.1398  156.4023 H   0  0  0  0  0  0  0  0  0  0  0  0
  145.2994  138.7864  151.9106 H   0  0  0  0  0  0  0  0  0  0  0  0
  144.6875  135.2961  153.2262 H   0  0  0  0  0  0  0  0  0  0  0  0
  144.0128  136.4928  152.1451 H   0  0  0  0  0  0  0  0  0  0  0  0
  146.7219  135.4996  151.3472 H   0  0  0  0  0  0  0  0  0  0  0  0
  145.5959  135.4652  149.3442 H   0  0  0  0  0  0  0  0  0  0  0  0
  145.6321  133.3553  152.1762 H   0  0  0  0  0  0  0  0  0  0  0  0
  143.2459  133.4949  151.7097 H   0  0  0  0  0  0  0  0  0  0  0  0
  143.5429  134.1509  150.0998 H   0  0  0  0  0  0  0  0  0  0  0  0
  143.7086  131.3023  150.9513 H   0  0  0  0  0  0  0  0  0  0  0  0
  143.4545  131.9849  149.3448 H   0  0  0  0  0  0  0  0  0  0  0  0
  145.9994  131.2191  150.6766 H   0  0  0  0  0  0  0  0  0  0  0  0
  145.7469  131.5650  148.9626 H   0  0  0  0  0  0  0  0  0  0  0  0
  149.8008  138.6221  157.4785 H   0  0  0  0  0  0  0  0  0  0  0  0
  148.7178  139.9850  157.7942 H   0  0  0  0  0  0  0  0  0  0  0  0
  1  2  1  0  0  0  0
  1 30  1  0  0  0  0
  1 31  1  0  0  0  0
  1 32  1  0  0  0  0
  2  3  1  0  0  0  0
  2 33  1  0  0  0  0
  2 34  1  0  0  0  0
  3  4  1  0  0  0  0
  4  5  1  0  0  0  0
  4 35  1  0  0  0  0
  4 36  1  0  0  0  0
  5  6  1  0  0  0  0
  5 37  1  0  0  0  0
  5 38  1  0  0  0  0
  6  7  1  0  0  0  0
  7 29  1  0  0  0  0
  7 28  1  0  0  0  0
  7  8  1  0  0  0  0
  8  9  1  0  0  0  0
  8 39  1  0  0  0  0
  8 40  1  0  0  0  0
  9 10  1  0  0  0  0
  9 41  1  0  0  0  0
  9 42  1  0  0  0  0
 10 11  1  0  0  0  0
 10 28  1  0  0  0  0
 11 16  1  0  0  0  0
 11 12  2  0  0  0  0
 12 13  1  0  0  0  0
 13 14  2  0  0  0  0
 13 43  1  0  0  0  0
 14 15  1  0  0  0  0
 15 19  1  0  0  0  0
 15 16  2  0  0  0  0
 16 17  1  0  0  0  0
 17 18  2  0  0  0  0
 18 19  1  0  0  0  0
 18 44  1  0  0  0  0
 19 20  1  0  0  0  0
 20 21  1  0  0  0  0
 20 45  1  0  0  0  0
 20 46  1  0  0  0  0
 21 22  1  0  0  0  0
 21 23  1  0  0  0  0
 21 47  1  0  0  0  0
 22 48  1  0  0  0  0
 23 27  1  0  0  0  0
 23 24  1  0  0  0  0
 23 49  1  0  0  0  0
 24 25  1  0  0  0  0
 24 50  1  0  0  0  0
 24 51  1  0  0  0  0
 25 26  1  0  0  0  0
 25 52  1  0  0  0  0
 25 53  1  0  0  0  0
 26 27  1  0  0  0  0
 26 54  1  0  0  0  0
 26 55  1  0  0  0  0
 28 56  1  0  0  0  0
 28 57  1  0  0  0  0
M  END
> <s_m_source_file>
AV-unprocessed.smi

> <i_m_source_file_index>
246

> <i_lp_mmshare_version>
43012

> <i_f3d_flags>
0

> <s_epik_input>
W0NIM11bQ0gyXU9bQ0gyXVtDSDJdT1tDQEhdMVtDSDJdW0NIMl1OKFtDSDJdMSljKG5bY0hdbjIpYyhjMjMpbltjSF1uM1tDSDJdW0NASF0oW09IXSlbQ0BASF00W0NIMl1bQ0gyXVtDSDJdTzQ=

> <s_epik_cmdline>
J2VwaWtfcHl0aG9uJywgJy1waCcsICc3LjAnLCAnLXRuJywgJzgnLCAnLW1hJywgJzIwMCcsICctbWV0YWxfYmluZGluZycsICctaW1hZScsICc8aW5maWxlLm1hZT4nLCAnLW9tYWUnLCAnPG91dGZpbGUubWFlPic=

> <r_lp_tautomer_probability>
1

> <r_epik_Ionization_Penalty>
0.0024631

> <r_epik_Ionization_Penalty_Charging>
0

> <r_epik_Ionization_Penalty_Neutral>
0.0024631

> <r_epik_State_Penalty>
0.00162428

> <r_epik_Charging_Adjusted_Penalty>
0.00162428

> <i_epik_Tot_Q>
0

> <i_epik_Tot_abs_Q>
0

> <r_epik_Metal_State_Penalty>
-0

> <b_epik_Metal_Only>
0

> <s_lp_Force_Field>
OPLS_2005

> <r_lp_Energy>
48.9745

> <b_lp_Chiralities_Consistent>
1

> <s_lp_Variant>
AV-unprocessed.smi:246-6

> <Gold.Version>
5.8.1

> <Gold.Id.Protein>
6NUR|6NUR_protein|mol2

> <Gold.PLP.Fitness>
47.8055

> <Gold.PLP.PLP>
-43.2127

> <Gold.PLP.part.hbond>
-2.0488

> <Gold.PLP.part.metal>
0.0000

> <Gold.PLP.part.buried>
-6.9710

> <Gold.PLP.part.nonpolar>
-35.6719

> <Gold.PLP.part.repulsive>
1.0537

> <Gold.PLP.ligand.clash>
0.0000

> <Gold.PLP.ligand.torsion>
2.0067

> <Gold.PLP.Chemscore.Hbond>
1.0000

> <Gold.PLP.Chemscore.CHOScore>
1.6931

> <Gold.PLP.Chemscore.Metal>
0.0000

> <Gold.Chemscore.Hbonds>
donor molecule, donor type, donor heavy atom, donor atom, acceptor molecule, acceptor atom, score
      L1  H    22    48       P1  7921  1.00
      L1  C    18    44       P1 10171  0.99
      L1  C    18    44       P1 10175  0.76

> <Gold.PLP.Chemscore.Internal.Correction>
0.5269

> <Gold.Rescore>
     Score         DG    S(hbond)    S(metal)    S(lipo)     H(rot)  DE(clash)    DE(int)     intcor
     11.25     -13.78       0.99        0.00     110.65       3.10       0.33       2.20       ----

> <Gold.Chemscore.Fitness>
11.2476

> <Gold.Chemscore.DG>
-13.7773

> <Gold.Chemscore.ZeroCoef>
-5.4800

> <Gold.Chemscore.Hbond>
0.9861

> <Gold.Chemscore.Metal>
0.0000

> <Gold.Chemscore.Lipo>
110.6531

> <Gold.Chemscore.Internal_Hbond>
0.0000

> <Gold.Chemscore.DEClash>
0.3340

> <Gold.Chemscore.DEInternal>
2.1956

> <Gold.Chemscore.Rot>
3.1026

> <Gold.Chemscore.Internal.Correction>
   9.000000E+99

> <Gold.Chemscore.Hbonds>
donor molecule, donor type, donor heavy atom, donor atom, acceptor molecule, acceptor atom, score
      L1  H    22    48       P1  7921  1.00

> <Gold.Chemscore.Hbond.Weighted>
-3.2935

> <Gold.Chemscore.Metal.Weighted>
-0.0000

> <Gold.Chemscore.Lipo.Weighted>
-12.9464

> <Gold.Chemscore.Internal_Hbond.Weighted>
0.0000

> <Gold.Chemscore.DEClash.Weighted>
0.3340

> <Gold.Chemscore.DEInternal.Weighted>
2.1956

> <Gold.Chemscore.Rot.Weighted>
7.9426

> <Gold.Chemscore.Internal.Correction.Weighted>
   9.000000E+99

> <Gold.Protein.RotatedTorsions>
[ 6907 6896 6895 6894 ] final  134.04 input  -60.11 | X-H torsion
[ 7974 7965 7964 7962 ] final -144.33 input  175.53 | X-H torsion
[ 8008 7997 7996 7995 ] final   30.72 input   59.86 | X-H torsion
[ 10167 10162 10161 10158 ] final  175.29 input  -65.29 | X-H torsion
[ 10718 10713 10712 10709 ] final -113.35 input   66.30 | X-H torsion
[ 10763 10752 10751 10750 ] final  -50.41 input  -60.55 | X-H torsion
[ 11005 11000 10999 10996 ] final  -45.40 input  -57.11 | X-H torsion

> <Gold.Protein.ActiveResidues>
 VAL166  LYS551  ARG553  GLY616  TRP617  ASP618  TYR619  PRO620  LYS621  CYS622 
 ASP623  PHE694  ASN695  SER759  ASP760  ASP761  ALA762  ILE779  LEU786  VAL792 
 PHE793  MET794  SER795  GLU796  ALA797  LYS798  CYS799  TRP800  GLU811  SER814 

> <Gold.Protein.RotatedAtoms>
  152.3155  133.5798  159.5709 H   0  0  0  0  0  0  0  0  0  0  0  0  # atno 6907 bound_to 6896
  150.7344  134.0089  159.3672 H   0  0  0  0  0  0  0  0  0  0  0  0  # atno 6908 bound_to 6896
  151.7978  135.0718  160.0447 H   0  0  0  0  0  0  0  0  0  0  0  0  # atno 6909 bound_to 6896
  144.8305  140.5724  143.5518 H   0  0  0  0  0  0  0  0  0  0  0  0  # atno 7974 bound_to 7965
  155.0950  140.3224  155.4563 H   0  0  0  0  0  0  0  0  0  0  0  0  # atno 8008 bound_to 7997
  156.2732  140.2071  156.6023 H   0  0  0  0  0  0  0  0  0  0  0  0  # atno 8009 bound_to 7997
  154.6874  140.0520  157.0315 H   0  0  0  0  0  0  0  0  0  0  0  0  # atno 8010 bound_to 7997
  139.5172  144.3048  152.0345 H   0  0  0  0  0  0  0  0  0  0  0  0  # atno 10167 bound_to 10162
  156.0761  130.5968  150.8630 H   0  0  0  0  0  0  0  0  0  0  0  0  # atno 10718 bound_to 10713
  154.1100  135.6550  153.4883 H   0  0  0  0  0  0  0  0  0  0  0  0  # atno 10763 bound_to 10752
  153.0260  135.5245  154.7201 H   0  0  0  0  0  0  0  0  0  0  0  0  # atno 10764 bound_to 10752
  154.6379  135.2984  155.0109 H   0  0  0  0  0  0  0  0  0  0  0  0  # atno 10765 bound_to 10752
  141.0513  133.6742  156.3008 H   0  0  0  0  0  0  0  0  0  0  0  0  # atno 11005 bound_to 11000
  145.4905  139.1489  143.3712 LP  0  0  0  0  0  0  0  0  0  0  0  0  # atno 17320 bound_to 7965
  146.2609  140.5043  142.8854 LP  0  0  0  0  0  0  0  0  0  0  0  0  # atno 17321 bound_to 7965
  140.2495  144.4184  150.6227 LP  0  0  0  0  0  0  0  0  0  0  0  0  # atno 17342 bound_to 10162
  140.6235  143.2178  151.6646 LP  0  0  0  0  0  0  0  0  0  0  0  0  # atno 17343 bound_to 10162
  157.5857  131.0945  150.9200 LP  0  0  0  0  0  0  0  0  0  0  0  0  # atno 17370 bound_to 10713
  156.9386  130.5376  149.5280 LP  0  0  0  0  0  0  0  0  0  0  0  0  # atno 17371 bound_to 10713
  140.6050  134.5516  157.5524 LP  0  0  0  0  0  0  0  0  0  0  0  0  # atno 17394 bound_to 11000
  139.9353  134.7888  156.0821 LP  0  0  0  0  0  0  0  0  0  0  0  0  # atno 17395 bound_to 11000

$$$$
