AV-unprocessed.smi:1247|AV-procd|sdf|5244|dock3
  -GOLD-   22720 4353D 1   1.00000     0.00000
 Structure written by MMmdl.
 46 47  0  0  0  0  0  0  0  0  1 V2000
  146.9419  134.4168  162.5539 C   0  0  0  0  0  0  0  0  0  0  0  0
  147.5263  135.0863  161.3451 C   0  0  0  0  0  0  0  0  0  0  0  0
  147.9467  136.4415  161.2095 C   0  0  0  0  0  0  0  0  0  0  0  0
  148.3888  136.4913  159.9156 C   0  0  0  0  0  0  0  0  0  0  0  0
  148.9149  137.5419  159.2316 N   0  0  0  0  0  0  0  0  0  0  0  0
  150.1716  137.7078  158.7836 C   0  0  0  0  0  0  0  0  0  0  0  0
  151.0986  136.9139  158.9463 O   0  0  0  0  0  0  0  0  0  0  0  0
  150.3019  138.8702  158.1286 N   0  0  0  0  0  0  0  0  0  0  0  0
  151.5357  139.3541  157.5213 C   0  0  0  0  0  0  0  0  0  0  0  0
  152.5766  139.7277  158.5931 C   0  0  0  0  0  0  0  0  0  0  0  0
  152.5864  141.1380  158.9776 N   0  0  0  0  0  0  0  0  0  0  0  0
  151.3260  141.8130  158.6748 C   0  0  0  0  0  0  0  0  0  0  0  0
  151.3211  143.2922  159.1112 C   0  0  2  0  0  0  0  0  0  0  0  0
  152.1677  144.1985  158.2011 C   0  0  0  0  0  0  0  0  0  0  0  0
  151.7079  143.4079  160.4815 O   0  0  0  0  0  0  0  0  0  0  0  0
  152.9355  142.7666  160.8223 C   0  0  1  0  0  0  0  0  0  0  0  0
  153.1524  142.9243  162.3309 C   0  0  0  0  0  0  0  0  0  0  0  0
  152.8743  141.2881  160.3984 C   0  0  0  0  0  0  0  0  0  0  0  0
  148.2371  135.2472  159.3452 N   0  0  0  0  0  0  0  0  0  0  0  0
  148.5632  134.8031  158.0039 C   0  0  0  0  0  0  0  0  0  0  0  0
  147.7003  134.3819  160.2323 N   0  0  0  0  0  0  0  0  0  0  0  0
  146.9213  135.0940  163.4081 H   0  0  0  0  0  0  0  0  0  0  0  0
  147.5260  133.5417  162.8399 H   0  0  0  0  0  0  0  0  0  0  0  0
  145.9192  134.0897  162.3651 H   0  0  0  0  0  0  0  0  0  0  0  0
  147.9216  137.2262  161.9503 H   0  0  0  0  0  0  0  0  0  0  0  0
  148.2711  138.2951  159.0389 H   0  0  0  0  0  0  0  0  0  0  0  0
  149.4897  139.4633  158.0422 H   0  0  0  0  0  0  0  0  0  0  0  0
  151.9406  138.6043  156.8393 H   0  0  0  0  0  0  0  0  0  0  0  0
  151.2769  140.2206  156.9138 H   0  0  0  0  0  0  0  0  0  0  0  0
  152.4305  139.1056  159.4773 H   0  0  0  0  0  0  0  0  0  0  0  0
  153.5626  139.4683  158.2051 H   0  0  0  0  0  0  0  0  0  0  0  0
  151.1104  141.7620  157.6081 H   0  0  0  0  0  0  0  0  0  0  0  0
  150.5089  141.2950  159.1792 H   0  0  0  0  0  0  0  0  0  0  0  0
  150.2943  143.6544  159.0523 H   0  0  0  0  0  0  0  0  0  0  0  0
  151.7873  144.1849  157.1796 H   0  0  0  0  0  0  0  0  0  0  0  0
  153.2103  143.8836  158.1632 H   0  0  0  0  0  0  0  0  0  0  0  0
  152.1428  145.2313  158.5490 H   0  0  0  0  0  0  0  0  0  0  0  0
  153.7585  143.2601  160.3045 H   0  0  0  0  0  0  0  0  0  0  0  0
  154.0875  142.4588  162.6432 H   0  0  0  0  0  0  0  0  0  0  0  0
  152.3424  142.4630  162.8964 H   0  0  0  0  0  0  0  0  0  0  0  0
  153.1962  143.9772  162.6102 H   0  0  0  0  0  0  0  0  0  0  0  0
  152.1129  140.7715  160.9851 H   0  0  0  0  0  0  0  0  0  0  0  0
  153.8255  140.8091  160.6337 H   0  0  0  0  0  0  0  0  0  0  0  0
  149.6208  134.9793  157.8068 H   0  0  0  0  0  0  0  0  0  0  0  0
  147.9671  135.3590  157.2797 H   0  0  0  0  0  0  0  0  0  0  0  0
  148.3558  133.7382  157.8901 H   0  0  0  0  0  0  0  0  0  0  0  0
  1  2  1  0  0  0  0
  1 22  1  0  0  0  0
  1 23  1  0  0  0  0
  1 24  1  0  0  0  0
  2 21  2  0  0  0  0
  2  3  1  0  0  0  0
  3  4  2  0  0  0  0
  3 25  1  0  0  0  0
  4  5  1  0  0  0  0
  4 19  1  0  0  0  0
  5  6  1  0  0  0  0
  5 26  1  0  0  0  0
  6  7  2  0  0  0  0
  6  8  1  0  0  0  0
  8  9  1  0  0  0  0
  8 27  1  0  0  0  0
  9 10  1  0  0  0  0
  9 28  1  0  0  0  0
  9 29  1  0  0  0  0
 10 11  1  0  0  0  0
 10 30  1  0  0  0  0
 10 31  1  0  0  0  0
 11 18  1  0  0  0  0
 11 12  1  0  0  0  0
 12 13  1  0  0  0  0
 12 32  1  0  0  0  0
 12 33  1  0  0  0  0
 13 14  1  0  0  0  0
 13 15  1  0  0  0  0
 13 34  1  0  0  0  0
 14 35  1  0  0  0  0
 14 36  1  0  0  0  0
 14 37  1  0  0  0  0
 15 16  1  0  0  0  0
 16 17  1  0  0  0  0
 16 18  1  0  0  0  0
 16 38  1  0  0  0  0
 17 39  1  0  0  0  0
 17 40  1  0  0  0  0
 17 41  1  0  0  0  0
 18 42  1  0  0  0  0
 18 43  1  0  0  0  0
 19 20  1  0  0  0  0
 19 21  1  0  0  0  0
 20 44  1  0  0  0  0
 20 45  1  0  0  0  0
 20 46  1  0  0  0  0
M  END
> <s_m_source_file>
AV-unprocessed.smi

> <i_m_source_file_index>
1247

> <i_lp_mmshare_version>
43012

> <i_f3d_flags>
0

> <s_epik_input>
W0NIM11jMVtjSF1jKG4objEpW0NIM10pW05IXUMoPU8pW05IXVtDSDJdW0NIMl1OMltDSDJdW0NAQEhdKFtDSDNdKU9bQ0BASF0oW0NIM10pW0NIMl0y

> <s_epik_cmdline>
J2VwaWtfcHl0aG9uJywgJy1waCcsICc3LjAnLCAnLXRuJywgJzgnLCAnLW1hJywgJzIwMCcsICctbWV0YWxfYmluZGluZycsICctaW1hZScsICc8aW5maWxlLm1hZT4nLCAnLW9tYWUnLCAnPG91dGZpbGUubWFlPic=

> <r_lp_tautomer_probability>
1

> <r_epik_Ionization_Penalty>
0.233972

> <r_epik_Ionization_Penalty_Charging>
0

> <r_epik_Ionization_Penalty_Neutral>
0.233972

> <r_epik_State_Penalty>
0.224627

> <r_epik_Charging_Adjusted_Penalty>
0.224627

> <i_epik_Tot_Q>
0

> <i_epik_Tot_abs_Q>
0

> <r_epik_Metal_State_Penalty>
0.224624

> <b_epik_Metal_Only>
0

> <s_lp_Force_Field>
OPLS_2005

> <r_lp_Energy>
23.1298

> <b_lp_Chiralities_Consistent>
1

> <s_lp_Variant>
AV-unprocessed.smi:1247-2

> <Gold.Version>
5.8.1

> <Gold.Id.Protein>
6NUR|6NUR_protein|mol2

> <Gold.PLP.Fitness>
40.5543

> <Gold.PLP.PLP>
-41.2694

> <Gold.PLP.part.hbond>
-1.0261

> <Gold.PLP.part.metal>
0.0000

> <Gold.PLP.part.buried>
-6.3165

> <Gold.PLP.part.nonpolar>
-34.0257

> <Gold.PLP.part.repulsive>
0.4156

> <Gold.PLP.ligand.clash>
0.9368

> <Gold.PLP.ligand.torsion>
1.4214

> <Gold.PLP.Chemscore.Hbond>
1.0000

> <Gold.PLP.Chemscore.CHOScore>
0.0000

> <Gold.PLP.Chemscore.Metal>
0.0000

> <Gold.Chemscore.Hbonds>
donor molecule, donor type, donor heavy atom, donor atom, acceptor molecule, acceptor atom, score
      P1  H  6896  6907       L1     7  1.00

> <Gold.PLP.Chemscore.Internal.Correction>
0.0644

> <Gold.Rescore>
     Score         DG    S(hbond)    S(metal)    S(lipo)     H(rot)  DE(clash)    DE(int)     intcor
     15.42     -16.82       0.97        0.00     101.82       1.48       0.00       1.40       ----

> <Gold.Chemscore.Fitness>
15.4165

> <Gold.Chemscore.DG>
-16.8182

> <Gold.Chemscore.ZeroCoef>
-5.4800

> <Gold.Chemscore.Hbond>
0.9651

> <Gold.Chemscore.Metal>
0.0000

> <Gold.Chemscore.Lipo>
101.8233

> <Gold.Chemscore.Internal_Hbond>
0.0000

> <Gold.Chemscore.DEClash>
0.0038

> <Gold.Chemscore.DEInternal>
1.3979

> <Gold.Chemscore.Rot>
1.4838

> <Gold.Chemscore.Internal.Correction>
   9.000000E+99

> <Gold.Chemscore.Hbonds>
donor molecule, donor type, donor heavy atom, donor atom, acceptor molecule, acceptor atom, score
      P1  H  6896  6907       L1     7  0.91

> <Gold.Chemscore.Hbond.Weighted>
-3.2233

> <Gold.Chemscore.Metal.Weighted>
-0.0000

> <Gold.Chemscore.Lipo.Weighted>
-11.9133

> <Gold.Chemscore.Internal_Hbond.Weighted>
0.0000

> <Gold.Chemscore.DEClash.Weighted>
0.0038

> <Gold.Chemscore.DEInternal.Weighted>
1.3979

> <Gold.Chemscore.Rot.Weighted>
3.7985

> <Gold.Chemscore.Internal.Correction.Weighted>
   9.000000E+99

> <Gold.Protein.RotatedTorsions>
[ 6907 6896 6895 6894 ] final  -21.84 input  -60.11 | X-H torsion
[ 7974 7965 7964 7962 ] final   23.79 input  175.53 | X-H torsion
[ 8008 7997 7996 7995 ] final   86.90 input   59.86 | X-H torsion
[ 10167 10162 10161 10158 ] final  130.73 input  -65.29 | X-H torsion
[ 10718 10713 10712 10709 ] final   86.43 input   66.30 | X-H torsion
[ 10763 10752 10751 10750 ] final   52.57 input  -60.55 | X-H torsion
[ 11005 11000 10999 10996 ] final  -22.23 input  -57.11 | X-H torsion

> <Gold.Protein.ActiveResidues>
 VAL166  LYS551  ARG553  GLY616  TRP617  ASP618  TYR619  PRO620  LYS621  CYS622 
 ASP623  PHE694  ASN695  SER759  ASP760  ASP761  ALA762  ILE779  LEU786  VAL792 
 PHE793  MET794  SER795  GLU796  ALA797  LYS798  CYS799  TRP800  GLU811  SER814 

> <Gold.Protein.RotatedAtoms>
  151.2274  135.0541  159.8973 H   0  0  0  0  0  0  0  0  0  0  0  0  # atno 6907 bound_to 6896
  152.5409  134.0575  159.8147 H   0  0  0  0  0  0  0  0  0  0  0  0  # atno 6908 bound_to 6896
  151.0749  133.5387  159.2656 H   0  0  0  0  0  0  0  0  0  0  0  0  # atno 6909 bound_to 6896
  146.1968  139.7696  142.8791 H   0  0  0  0  0  0  0  0  0  0  0  0  # atno 7974 bound_to 7965
  155.9686  140.3387  155.6555 H   0  0  0  0  0  0  0  0  0  0  0  0  # atno 8008 bound_to 7997
  155.6705  140.0726  157.2540 H   0  0  0  0  0  0  0  0  0  0  0  0  # atno 8009 bound_to 7997
  154.4160  140.1692  156.1861 H   0  0  0  0  0  0  0  0  0  0  0  0  # atno 8010 bound_to 7997
  139.5416  144.6736  151.4605 H   0  0  0  0  0  0  0  0  0  0  0  0  # atno 10167 bound_to 10162
  157.6928  131.0215  150.2971 H   0  0  0  0  0  0  0  0  0  0  0  0  # atno 10718 bound_to 10713
  152.9789  135.5808  154.4599 H   0  0  0  0  0  0  0  0  0  0  0  0  # atno 10763 bound_to 10752
  154.4177  135.2771  155.1998 H   0  0  0  0  0  0  0  0  0  0  0  0  # atno 10764 bound_to 10752
  154.3760  135.6157  153.5819 H   0  0  0  0  0  0  0  0  0  0  0  0  # atno 10765 bound_to 10752
  140.8637  133.7770  156.0104 H   0  0  0  0  0  0  0  0  0  0  0  0  # atno 11005 bound_to 11000
  145.3617  141.0327  143.3281 LP  0  0  0  0  0  0  0  0  0  0  0  0  # atno 17320 bound_to 7965
  144.8598  139.5195  143.6818 LP  0  0  0  0  0  0  0  0  0  0  0  0  # atno 17321 bound_to 7965
  140.6649  143.8420  150.6930 LP  0  0  0  0  0  0  0  0  0  0  0  0  # atno 17342 bound_to 10162
  140.1826  143.4102  152.1922 LP  0  0  0  0  0  0  0  0  0  0  0  0  # atno 17343 bound_to 10162
  156.3493  130.3828  149.7343 LP  0  0  0  0  0  0  0  0  0  0  0  0  # atno 17370 bound_to 10713
  156.4826  130.8048  151.3062 LP  0  0  0  0  0  0  0  0  0  0  0  0  # atno 17371 bound_to 10713
  140.8654  134.2791  157.5215 LP  0  0  0  0  0  0  0  0  0  0  0  0  # atno 17394 bound_to 11000
  139.8708  134.9540  156.4161 LP  0  0  0  0  0  0  0  0  0  0  0  0  # atno 17395 bound_to 11000

$$$$
