AV-unprocessed.smi:2640|AV-procd|sdf|10268|dock6
  -GOLD-   2272014283D 1   1.00000     0.00000
 Structure written by MMmdl.
 42 43  0  0  0  0  0  0  0  0  2 V2000
  146.5622  139.7676  153.6950 O   0  0  0  0  0  0  0  0  0  0  0  0
  147.1647  139.0469  152.8988 C   0  0  0  0  0  0  0  0  0  0  0  0
  146.5192  138.6486  151.5713 C   0  0  0  0  0  0  0  0  0  0  0  0
  146.6251  137.1964  151.3242 N   0  3  0  0  0  0  0  0  0  0  0  0
  145.5020  136.4073  151.8644 C   0  0  0  0  0  0  0  0  0  0  0  0
  144.7641  135.6634  150.7415 C   0  0  0  0  0  0  0  0  0  0  0  0
  144.8657  134.2242  150.8879 N   0  0  0  0  0  0  0  0  0  0  0  0
  143.8527  133.3041  151.0571 C   0  0  0  0  0  0  0  0  0  0  0  0
  144.4338  132.0712  151.1387 C   0  0  0  0  0  0  0  0  0  0  0  0
  145.8237  132.3423  151.0018 C   0  0  0  0  0  0  0  0  0  0  0  0
  146.0788  133.6323  150.8511 N   0  0  0  0  0  0  0  0  0  0  0  0
  148.4021  138.5756  153.1225 N   0  0  0  0  0  0  0  0  0  0  0  0
  149.1935  138.8110  154.3330 C   0  0  2  0  0  0  0  0  0  0  0  0
  148.2861  138.5192  155.5499 C   0  0  0  0  0  0  0  0  0  0  0  0
  149.0619  138.1900  156.8374 C   0  0  0  0  0  0  0  0  0  0  0  0
  149.9126  139.3409  157.3958 C   0  0  0  0  0  0  0  0  0  0  0  0
  151.0330  139.8001  156.4472 C   0  0  0  0  0  0  0  0  0  0  0  0
  150.5288  140.6404  155.3688 N   0  0  0  0  0  0  0  0  0  0  0  0
  149.6769  140.2794  154.3974 C   0  0  0  0  0  0  0  0  0  0  0  0
  149.2858  141.1064  153.5732 O   0  0  0  0  0  0  0  0  0  0  0  0
  145.4688  138.9417  151.5913 H   0  0  0  0  0  0  0  0  0  0  0  0
  146.9966  139.1897  150.7529 H   0  0  0  0  0  0  0  0  0  0  0  0
  146.6770  137.0480  150.3265 H   0  0  0  0  0  0  0  0  0  0  0  0
  145.8873  135.6980  152.5982 H   0  0  0  0  0  0  0  0  0  0  0  0
  144.8132  137.0721  152.3874 H   0  0  0  0  0  0  0  0  0  0  0  0
  143.7081  135.9373  150.7352 H   0  0  0  0  0  0  0  0  0  0  0  0
  145.1692  135.9406  149.7670 H   0  0  0  0  0  0  0  0  0  0  0  0
  142.8145  133.5981  151.1050 H   0  0  0  0  0  0  0  0  0  0  0  0
  143.9410  131.1196  151.2732 H   0  0  0  0  0  0  0  0  0  0  0  0
  146.6486  131.6451  151.0065 H   0  0  0  0  0  0  0  0  0  0  0  0
  148.8237  137.9901  152.4160 H   0  0  0  0  0  0  0  0  0  0  0  0
  150.0498  138.1339  154.3328 H   0  0  0  0  0  0  0  0  0  0  0  0
  147.5926  139.3432  155.7274 H   0  0  0  0  0  0  0  0  0  0  0  0
  147.6591  137.6542  155.3271 H   0  0  0  0  0  0  0  0  0  0  0  0
  148.3481  137.8859  157.6036 H   0  0  0  0  0  0  0  0  0  0  0  0
  149.6977  137.3210  156.6643 H   0  0  0  0  0  0  0  0  0  0  0  0
  149.2760  140.1853  157.6635 H   0  0  0  0  0  0  0  0  0  0  0  0
  150.3672  139.0030  158.3276 H   0  0  0  0  0  0  0  0  0  0  0  0
  151.7539  140.3964  157.0070 H   0  0  0  0  0  0  0  0  0  0  0  0
  151.5856  138.9499  156.0454 H   0  0  0  0  0  0  0  0  0  0  0  0
  150.8328  141.6034  155.3766 H   0  0  0  0  0  0  0  0  0  0  0  0
  147.4839  136.8667  151.7416 H   0  0  0  0  0  0  0  0  0  0  0  0
  1  2  2  0  0  0  0
  2  3  1  0  0  0  0
  2 12  1  0  0  0  0
  3  4  1  0  0  0  0
  3 21  1  0  0  0  0
  3 22  1  0  0  0  0
  4  5  1  0  0  0  0
  4 23  1  0  0  0  0
  4 42  1  0  0  0  0
  5  6  1  0  0  0  0
  5 24  1  0  0  0  0
  5 25  1  0  0  0  0
  6  7  1  0  0  0  0
  6 26  1  0  0  0  0
  6 27  1  0  0  0  0
  7 11  1  0  0  0  0
  7  8  1  0  0  0  0
  8  9  2  0  0  0  0
  8 28  1  0  0  0  0
  9 10  1  0  0  0  0
  9 29  1  0  0  0  0
 10 11  2  0  0  0  0
 10 30  1  0  0  0  0
 12 13  1  0  0  0  0
 12 31  1  0  0  0  0
 13 19  1  0  0  0  0
 13 14  1  0  0  0  0
 13 32  1  0  0  0  0
 14 15  1  0  0  0  0
 14 33  1  0  0  0  0
 14 34  1  0  0  0  0
 15 16  1  0  0  0  0
 15 35  1  0  0  0  0
 15 36  1  0  0  0  0
 16 17  1  0  0  0  0
 16 37  1  0  0  0  0
 16 38  1  0  0  0  0
 17 18  1  0  0  0  0
 17 39  1  0  0  0  0
 17 40  1  0  0  0  0
 18 19  1  0  0  0  0
 18 41  1  0  0  0  0
 19 20  2  0  0  0  0
M  CHG  1   4   1
M  END
> <s_m_source_file>
AV-unprocessed.smi

> <i_m_source_file_index>
2640

> <i_lp_mmshare_version>
43012

> <i_f3d_flags>
0

> <s_epik_input>
Tz1DMVtOSF1bQ0gyXVtDSDJdW0NIMl1bQ0gyXVtDQEhdMVtOSF1DKD1PKVtDSDJdW05IXVtDSDJdW0NIMl1uMltjSF1bY0hdW2NIXW4y

> <s_epik_cmdline>
J2VwaWtfcHl0aG9uJywgJy1waCcsICc3LjAnLCAnLXRuJywgJzgnLCAnLW1hJywgJzIwMCcsICctbWV0YWxfYmluZGluZycsICctaW1hZScsICc8aW5maWxlLm1hZT4nLCAnLW9tYWUnLCAnPG91dGZpbGUubWFlPic=

> <r_lp_tautomer_probability>
1

> <r_epik_Ionization_Penalty>
0.245908

> <r_epik_Ionization_Penalty_Charging>
0.245903

> <r_epik_Ionization_Penalty_Neutral>
5.38378e-06

> <r_epik_State_Penalty>
0.237496

> <r_epik_Charging_Adjusted_Penalty>
0.483398

> <i_epik_Tot_Q>
1

> <i_epik_Tot_abs_Q>
1

> <r_epik_Metal_State_Penalty>
0.237698

> <b_epik_Metal_Only>
0

> <s_lp_Force_Field>
OPLS_2005

> <r_lp_Energy>
8.65948

> <b_lp_Chiralities_Consistent>
1

> <s_lp_Variant>
AV-unprocessed.smi:2640-1

> <Gold.Version>
5.8.1

> <Gold.Id.Protein>
6NUR|6NUR_protein|mol2

> <Gold.PLP.Fitness>
49.1258

> <Gold.PLP.PLP>
-33.7807

> <Gold.PLP.part.hbond>
-5.0000

> <Gold.PLP.part.metal>
0.0000

> <Gold.PLP.part.buried>
-5.9785

> <Gold.PLP.part.nonpolar>
-27.4030

> <Gold.PLP.part.repulsive>
2.9710

> <Gold.PLP.ligand.clash>
0.0000

> <Gold.PLP.ligand.torsion>
1.1679

> <Gold.PLP.Chemscore.Hbond>
3.8720

> <Gold.PLP.Chemscore.CHOScore>
2.0000

> <Gold.PLP.Chemscore.Metal>
0.0000

> <Gold.Chemscore.Hbonds>
donor molecule, donor type, donor heavy atom, donor atom, acceptor molecule, acceptor atom, score
      L1  H     4    42       P1  7948  2.00
      L1  H    12    31       P1  7948  0.88
      P1  H  8011  8017       L1    20  1.00
      L1  C     8    28       P1 10186  1.00
      L1  C    10    30       P1 10747  0.92

> <Gold.PLP.Chemscore.Internal.Correction>
0.0650

> <Gold.Rescore>
     Score         DG    S(hbond)    S(metal)    S(lipo)     H(rot)  DE(clash)    DE(int)     intcor
     11.53     -15.80       2.76        0.00      62.84       2.45       1.54       2.73       ----

> <Gold.Chemscore.Fitness>
11.5295

> <Gold.Chemscore.DG>
-15.7955

> <Gold.Chemscore.ZeroCoef>
-5.4800

> <Gold.Chemscore.Hbond>
2.7620

> <Gold.Chemscore.Metal>
0.0000

> <Gold.Chemscore.Lipo>
62.8428

> <Gold.Chemscore.Internal_Hbond>
0.0000

> <Gold.Chemscore.DEClash>
1.5370

> <Gold.Chemscore.DEInternal>
2.7290

> <Gold.Chemscore.Rot>
2.4462

> <Gold.Chemscore.Internal.Correction>
   9.000000E+99

> <Gold.Chemscore.Hbonds>
donor molecule, donor type, donor heavy atom, donor atom, acceptor molecule, acceptor atom, score
      L1  H     4    42       P1  7948  0.97
      L1  H    12    31       P1  7948  0.86
      P1  H  8011  8017       L1    20  0.95

> <Gold.Chemscore.Hbond.Weighted>
-9.2252

> <Gold.Chemscore.Metal.Weighted>
-0.0000

> <Gold.Chemscore.Lipo.Weighted>
-7.3526

> <Gold.Chemscore.Internal_Hbond.Weighted>
0.0000

> <Gold.Chemscore.DEClash.Weighted>
1.5370

> <Gold.Chemscore.DEInternal.Weighted>
2.7290

> <Gold.Chemscore.Rot.Weighted>
6.2623

> <Gold.Chemscore.Internal.Correction.Weighted>
   9.000000E+99

> <Gold.Protein.RotatedTorsions>
[ 6907 6896 6895 6894 ] final  -74.29 input  -60.11 | X-H torsion
[ 7974 7965 7964 7962 ] final  160.07 input  175.53 | X-H torsion
[ 8008 7997 7996 7995 ] final   21.34 input   59.86 | X-H torsion
[ 10167 10162 10161 10158 ] final   -7.06 input  -65.29 | X-H torsion
[ 10718 10713 10712 10709 ] final -119.31 input   66.30 | X-H torsion
[ 10763 10752 10751 10750 ] final   79.80 input  -60.55 | X-H torsion
[ 11005 11000 10999 10996 ] final  123.00 input  -57.11 | X-H torsion

> <Gold.Protein.ActiveResidues>
 VAL166  LYS551  ARG553  GLY616  TRP617  ASP618  TYR619  PRO620  LYS621  CYS622 
 ASP623  PHE694  ASN695  SER759  ASP760  ASP761  ALA762  ILE779  LEU786  VAL792 
 PHE793  MET794  SER795  GLU796  ALA797  LYS798  CYS799  TRP800  GLU811  SER814 

> <Gold.Protein.RotatedAtoms>
  150.7098  134.4891  159.5506 H   0  0  0  0  0  0  0  0  0  0  0  0  # atno 6907 bound_to 6896
  152.2512  134.8128  160.0455 H   0  0  0  0  0  0  0  0  0  0  0  0  # atno 6908 bound_to 6896
  151.8874  133.3473  159.3824 H   0  0  0  0  0  0  0  0  0  0  0  0  # atno 6909 bound_to 6896
  144.7756  139.7706  143.6280 H   0  0  0  0  0  0  0  0  0  0  0  0  # atno 7974 bound_to 7965
  154.9492  140.3063  155.5083 H   0  0  0  0  0  0  0  0  0  0  0  0  # atno 8008 bound_to 7997
  156.2989  140.2322  156.4506 H   0  0  0  0  0  0  0  0  0  0  0  0  # atno 8009 bound_to 7997
  154.8071  140.0430  157.1304 H   0  0  0  0  0  0  0  0  0  0  0  0  # atno 8010 bound_to 7997
  140.7017  143.6123  150.8692 H   0  0  0  0  0  0  0  0  0  0  0  0  # atno 10167 bound_to 10162
  156.1171  130.6294  150.9400 H   0  0  0  0  0  0  0  0  0  0  0  0  # atno 10718 bound_to 10713
  153.0981  135.4826  154.8817 H   0  0  0  0  0  0  0  0  0  0  0  0  # atno 10763 bound_to 10752
  154.7348  135.3068  154.8832 H   0  0  0  0  0  0  0  0  0  0  0  0  # atno 10764 bound_to 10752
  153.9457  135.6829  153.4797 H   0  0  0  0  0  0  0  0  0  0  0  0  # atno 10765 bound_to 10752
  139.9293  134.9641  156.8194 H   0  0  0  0  0  0  0  0  0  0  0  0  # atno 11005 bound_to 11000
  146.1933  139.5186  142.9791 LP  0  0  0  0  0  0  0  0  0  0  0  0  # atno 17320 bound_to 7965
  145.6195  141.0325  143.1922 LP  0  0  0  0  0  0  0  0  0  0  0  0  # atno 17321 bound_to 7965
  139.9846  143.5914  152.2931 LP  0  0  0  0  0  0  0  0  0  0  0  0  # atno 17342 bound_to 10162
  139.6547  144.7662  151.2079 LP  0  0  0  0  0  0  0  0  0  0  0  0  # atno 17343 bound_to 10162
  157.6355  131.0916  150.8357 LP  0  0  0  0  0  0  0  0  0  0  0  0  # atno 17370 bound_to 10713
  156.8459  130.5064  149.5316 LP  0  0  0  0  0  0  0  0  0  0  0  0  # atno 17371 bound_to 10713
  140.6247  133.9961  155.7634 LP  0  0  0  0  0  0  0  0  0  0  0  0  # atno 17394 bound_to 11000
  141.0872  133.9973  157.3295 LP  0  0  0  0  0  0  0  0  0  0  0  0  # atno 17395 bound_to 11000

$$$$
