AV-unprocessed.smi:155|AV-procd|sdf|1280|dock3
  -GOLD-   2262018553D 1   1.00000     0.00000
 Structure written by MMmdl.
 64 67  0  0  0  0  0  0  0  0  3 V2000
  152.1824  144.7658  157.8788 C   0  0  0  0  0  0  0  0  0  0  0  0
  150.9661  143.9240  157.8124 N   0  3  0  0  0  0  0  0  0  0  0  0
  150.3409  143.7845  159.1480 C   0  0  0  0  0  0  0  0  0  0  0  0
  151.2270  142.6271  157.1303 C   0  0  0  0  0  0  0  0  0  0  0  0
  150.0295  141.6484  157.1692 C   0  0  0  0  0  0  0  0  0  0  0  0
  150.0201  140.6566  156.0598 N   0  3  1  0  0  0  0  0  0  0  0  0
  148.9048  140.8558  155.0958 C   0  0  0  0  0  0  0  0  0  0  0  0
  148.2346  139.5100  154.7679 C   0  0  0  0  0  0  0  0  0  0  0  0
  149.0926  138.5727  153.8973 C   0  0  0  0  0  0  0  0  0  0  0  0
  150.4292  138.3444  154.4449 N   0  0  0  0  0  0  0  0  0  0  0  0
  150.6641  137.4146  155.4206 C   0  0  0  0  0  0  0  0  0  0  0  0
  151.7712  136.6333  155.2938 N   0  0  0  0  0  0  0  0  0  0  0  0
  152.0806  135.7154  156.2115 C   0  0  0  0  0  0  0  0  0  0  0  0
  151.4338  135.4161  157.3357 N   0  0  0  0  0  0  0  0  0  0  0  0
  150.3147  136.1800  157.4787 C   0  0  0  0  0  0  0  0  0  0  0  0
  149.8590  137.1945  156.5837 C   0  0  0  0  0  0  0  0  0  0  0  0
  148.6965  137.7609  157.0973 N   0  0  0  0  0  0  0  0  0  0  0  0
  148.4755  137.1201  158.2108 C   0  0  0  0  0  0  0  0  0  0  0  0
  149.3948  136.1439  158.5118 N   0  0  0  0  0  0  0  0  0  0  0  0
  149.3908  135.2791  159.6814 C   0  0  0  0  0  0  0  0  0  0  0  0
  148.1696  135.4648  160.6122 C   0  0  2  0  0  0  0  0  0  0  0  0
  148.2804  136.6537  161.3703 O   0  0  0  0  0  0  0  0  0  0  0  0
  147.8515  134.2671  161.5365 C   0  0  2  0  0  0  0  0  0  0  0  0
  147.6533  132.9197  160.8352 C   0  0  0  0  0  0  0  0  0  0  0  0
  146.8186  132.1714  161.8497 C   0  0  0  0  0  0  0  0  0  0  0  0
  145.9067  133.2773  162.3718 C   0  0  0  0  0  0  0  0  0  0  0  0
  146.6856  134.4688  162.3326 O   0  0  0  0  0  0  0  0  0  0  0  0
  151.3777  139.4483  154.2643 C   0  0  0  0  0  0  0  0  0  0  0  0
  151.3477  140.4946  155.4020 C   0  0  0  0  0  0  0  0  0  0  0  0
  152.9585  144.2847  158.4758 H   0  0  0  0  0  0  0  0  0  0  0  0
  151.9590  145.7350  158.3264 H   0  0  0  0  0  0  0  0  0  0  0  0
  152.5829  144.9526  156.8817 H   0  0  0  0  0  0  0  0  0  0  0  0
  150.9543  143.1666  159.8046 H   0  0  0  0  0  0  0  0  0  0  0  0
  149.3498  143.3406  159.0804 H   0  0  0  0  0  0  0  0  0  0  0  0
  150.2163  144.7585  159.6224 H   0  0  0  0  0  0  0  0  0  0  0  0
  151.4099  142.8420  156.0765 H   0  0  0  0  0  0  0  0  0  0  0  0
  152.1522  142.1831  157.4961 H   0  0  0  0  0  0  0  0  0  0  0  0
  150.0468  141.1456  158.1370 H   0  0  0  0  0  0  0  0  0  0  0  0
  149.0927  142.2066  157.1389 H   0  0  0  0  0  0  0  0  0  0  0  0
  148.1385  141.5031  155.5228 H   0  0  0  0  0  0  0  0  0  0  0  0
  149.2480  141.3635  154.1931 H   0  0  0  0  0  0  0  0  0  0  0  0
  147.9520  139.0133  155.6959 H   0  0  0  0  0  0  0  0  0  0  0  0
  147.2997  139.7011  154.2407 H   0  0  0  0  0  0  0  0  0  0  0  0
  148.5818  137.6301  153.7077 H   0  0  0  0  0  0  0  0  0  0  0  0
  149.2040  139.0214  152.9095 H   0  0  0  0  0  0  0  0  0  0  0  0
  152.9760  135.1424  156.0196 H   0  0  0  0  0  0  0  0  0  0  0  0
  147.6233  137.3334  158.8399 H   0  0  0  0  0  0  0  0  0  0  0  0
  149.4439  134.2449  159.3391 H   0  0  0  0  0  0  0  0  0  0  0  0
  150.3089  135.4590  160.2420 H   0  0  0  0  0  0  0  0  0  0  0  0
  147.3019  135.6078  159.9674 H   0  0  0  0  0  0  0  0  0  0  0  0
  147.7873  136.5495  162.1695 H   0  0  0  0  0  0  0  0  0  0  0  0
  148.6764  134.1530  162.2415 H   0  0  0  0  0  0  0  0  0  0  0  0
  147.0882  133.0293  159.9089 H   0  0  0  0  0  0  0  0  0  0  0  0
  148.5935  132.4194  160.6020 H   0  0  0  0  0  0  0  0  0  0  0  0
  146.2693  131.3328  161.4211 H   0  0  0  0  0  0  0  0  0  0  0  0
  147.4521  131.7935  162.6531 H   0  0  0  0  0  0  0  0  0  0  0  0
  145.0480  133.4044  161.7116 H   0  0  0  0  0  0  0  0  0  0  0  0
  145.5350  133.0754  163.3765 H   0  0  0  0  0  0  0  0  0  0  0  0
  152.3908  139.0730  154.1150 H   0  0  0  0  0  0  0  0  0  0  0  0
  151.1319  139.9520  153.3288 H   0  0  0  0  0  0  0  0  0  0  0  0
  151.6989  141.4547  155.0216 H   0  0  0  0  0  0  0  0  0  0  0  0
  152.0717  140.1825  156.1525 H   0  0  0  0  0  0  0  0  0  0  0  0
  150.3132  144.4336  157.2337 H   0  0  0  0  0  0  0  0  0  0  0  0
  149.8164  139.7701  156.4978 H   0  0  0  0  0  0  0  0  0  0  0  0
  1  2  1  0  0  0  0
  1 30  1  0  0  0  0
  1 31  1  0  0  0  0
  1 32  1  0  0  0  0
  2  3  1  0  0  0  0
  2  4  1  0  0  0  0
  2 63  1  0  0  0  0
  3 33  1  0  0  0  0
  3 34  1  0  0  0  0
  3 35  1  0  0  0  0
  4  5  1  0  0  0  0
  4 36  1  0  0  0  0
  4 37  1  0  0  0  0
  5  6  1  0  0  0  0
  5 38  1  0  0  0  0
  5 39  1  0  0  0  0
  6 29  1  0  0  0  0
  6  7  1  0  0  0  0
  6 64  1  0  0  0  0
  7  8  1  0  0  0  0
  7 40  1  0  0  0  0
  7 41  1  0  0  0  0
  8  9  1  0  0  0  0
  8 42  1  0  0  0  0
  8 43  1  0  0  0  0
  9 10  1  0  0  0  0
  9 44  1  0  0  0  0
  9 45  1  0  0  0  0
 10 11  1  0  0  0  0
 10 28  1  0  0  0  0
 11 16  1  0  0  0  0
 11 12  2  0  0  0  0
 12 13  1  0  0  0  0
 13 14  2  0  0  0  0
 13 46  1  0  0  0  0
 14 15  1  0  0  0  0
 15 19  1  0  0  0  0
 15 16  2  0  0  0  0
 16 17  1  0  0  0  0
 17 18  2  0  0  0  0
 18 19  1  0  0  0  0
 18 47  1  0  0  0  0
 19 20  1  0  0  0  0
 20 21  1  0  0  0  0
 20 48  1  0  0  0  0
 20 49  1  0  0  0  0
 21 22  1  0  0  0  0
 21 23  1  0  0  0  0
 21 50  1  0  0  0  0
 22 51  1  0  0  0  0
 23 27  1  0  0  0  0
 23 24  1  0  0  0  0
 23 52  1  0  0  0  0
 24 25  1  0  0  0  0
 24 53  1  0  0  0  0
 24 54  1  0  0  0  0
 25 26  1  0  0  0  0
 25 55  1  0  0  0  0
 25 56  1  0  0  0  0
 26 27  1  0  0  0  0
 26 57  1  0  0  0  0
 26 58  1  0  0  0  0
 28 29  1  0  0  0  0
 28 59  1  0  0  0  0
 28 60  1  0  0  0  0
 29 61  1  0  0  0  0
 29 62  1  0  0  0  0
M  CHG  1   2   1
M  CHG  1   6   1
M  END
> <s_m_source_file>
AV-unprocessed.smi

> <i_m_source_file_index>
155

> <i_lp_mmshare_version>
43012

> <i_f3d_flags>
0

> <s_epik_input>
W0NIM11OKFtDSDNdKVtDSDJdW0NIMl1OMVtDSDJdW0NIMl1bQ0gyXU4oW0NIMl1bQ0gyXTEpYyhuW2NIXW4yKWMoYzIzKW5bY0hdbjNbQ0gyXVtDQEhdKFtPSF0pW0NAQEhdNFtDSDJdW0NIMl1bQ0gyXU80

> <s_epik_cmdline>
J2VwaWtfcHl0aG9uJywgJy1waCcsICc3LjAnLCAnLXRuJywgJzgnLCAnLW1hJywgJzIwMCcsICctbWV0YWxfYmluZGluZycsICctaW1hZScsICc8aW5maWxlLm1hZT4nLCAnLW9tYWUnLCAnPG91dGZpbGUubWFlPic=

> <r_lp_tautomer_probability>
1

> <r_epik_Ionization_Penalty>
3.0333

> <r_epik_Ionization_Penalty_Charging>
3.03317

> <r_epik_Ionization_Penalty_Neutral>
0.000131872

> <r_epik_State_Penalty>
1.99939

> <r_epik_Charging_Adjusted_Penalty>
5.03256

> <i_epik_Tot_Q>
2

> <i_epik_Tot_abs_Q>
2

> <r_epik_Metal_State_Penalty>
2.00021

> <b_epik_Metal_Only>
0

> <s_lp_Force_Field>
OPLS_2005

> <r_lp_Energy>
60.5665

> <b_lp_Chiralities_Consistent>
1

> <s_lp_Variant>
AV-unprocessed.smi:155-14

> <Gold.Version>
5.8.1

> <Gold.Id.Protein>
6NUR|6NUR_protein|mol2

> <Gold.PLP.Fitness>
54.7262

> <Gold.PLP.PLP>
-44.0467

> <Gold.PLP.part.hbond>
-4.6296

> <Gold.PLP.part.metal>
0.0000

> <Gold.PLP.part.buried>
-3.1563

> <Gold.PLP.part.nonpolar>
-36.3221

> <Gold.PLP.part.repulsive>
0.1193

> <Gold.PLP.ligand.clash>
0.0880

> <Gold.PLP.ligand.torsion>
1.9956

> <Gold.PLP.Chemscore.Hbond>
4.8130

> <Gold.PLP.Chemscore.CHOScore>
0.0000

> <Gold.PLP.Chemscore.Metal>
0.0000

> <Gold.Chemscore.Hbonds>
donor molecule, donor type, donor heavy atom, donor atom, acceptor molecule, acceptor atom, score
      L1  H     2    63       P1  8028  1.59
      P1  H  6931  6943       L1    22  0.70

> <Gold.PLP.Chemscore.Internal.Correction>
0.3198

> <Gold.Rescore>
     Score         DG    S(hbond)    S(metal)    S(lipo)     H(rot)  DE(clash)    DE(int)     intcor
     16.74     -20.12       2.82        0.00     104.85       2.75       0.08       3.31       ----

> <Gold.Chemscore.Fitness>
16.7379

> <Gold.Chemscore.DG>
-20.1243

> <Gold.Chemscore.ZeroCoef>
-5.4800

> <Gold.Chemscore.Hbond>
2.8189

> <Gold.Chemscore.Metal>
0.0000

> <Gold.Chemscore.Lipo>
104.8507

> <Gold.Chemscore.Internal_Hbond>
0.0000

> <Gold.Chemscore.DEClash>
0.0810

> <Gold.Chemscore.DEInternal>
3.3054

> <Gold.Chemscore.Rot>
2.7493

> <Gold.Chemscore.Internal.Correction>
   9.000000E+99

> <Gold.Chemscore.Hbonds>
donor molecule, donor type, donor heavy atom, donor atom, acceptor molecule, acceptor atom, score
      L1  H     2    63       P1  8028  0.51
      P1  H  6931  6943       L1    22  0.07

> <Gold.Chemscore.Hbond.Weighted>
-9.4151

> <Gold.Chemscore.Metal.Weighted>
-0.0000

> <Gold.Chemscore.Lipo.Weighted>
-12.2675

> <Gold.Chemscore.Internal_Hbond.Weighted>
0.0000

> <Gold.Chemscore.DEClash.Weighted>
0.0810

> <Gold.Chemscore.DEInternal.Weighted>
3.3054

> <Gold.Chemscore.Rot.Weighted>
7.0383

> <Gold.Chemscore.Internal.Correction.Weighted>
   9.000000E+99

> <Gold.Protein.RotatedTorsions>
[ 6907 6896 6895 6894 ] final  -72.28 input  -60.11 | X-H torsion
[ 7974 7965 7964 7962 ] final  -21.50 input  175.53 | X-H torsion
[ 8008 7997 7996 7995 ] final  -13.72 input   59.86 | X-H torsion
[ 10167 10162 10161 10158 ] final -118.32 input  -65.29 | X-H torsion
[ 10718 10713 10712 10709 ] final -151.32 input   66.30 | X-H torsion
[ 10763 10752 10751 10750 ] final   60.03 input  -60.55 | X-H torsion
[ 11005 11000 10999 10996 ] final  119.10 input  -57.11 | X-H torsion

> <Gold.Protein.ActiveResidues>
 VAL166  LYS551  ARG553  GLY616  TRP617  ASP618  TYR619  PRO620  LYS621  CYS622 
 ASP623  PHE694  ASN695  SER759  ASP760  ASP761  ALA762  ILE779  LEU786  VAL792 
 PHE793  MET794  SER795  GLU796  ALA797  LYS798  CYS799  TRP800  GLU811  SER814 

> <Gold.Protein.RotatedAtoms>
  150.7176  134.5186  159.5642 H   0  0  0  0  0  0  0  0  0  0  0  0  # atno 6907 bound_to 6896
  152.2746  134.7892  160.0417 H   0  0  0  0  0  0  0  0  0  0  0  0  # atno 6908 bound_to 6896
  151.8560  133.3413  159.3725 H   0  0  0  0  0  0  0  0  0  0  0  0  # atno 6909 bound_to 6896
  146.1729  140.4349  142.8525 H   0  0  0  0  0  0  0  0  0  0  0  0  # atno 7974 bound_to 7965
  154.5269  140.2242  155.8873 H   0  0  0  0  0  0  0  0  0  0  0  0  # atno 8008 bound_to 7997
  156.1723  140.3119  155.8960 H   0  0  0  0  0  0  0  0  0  0  0  0  # atno 8009 bound_to 7997
  155.3532  140.0457  157.3037 H   0  0  0  0  0  0  0  0  0  0  0  0  # atno 8010 bound_to 7997
  140.0588  143.4988  152.2043 H   0  0  0  0  0  0  0  0  0  0  0  0  # atno 10167 bound_to 10162
  156.4577  130.8198  151.2429 H   0  0  0  0  0  0  0  0  0  0  0  0  # atno 10718 bound_to 10713
  152.9910  135.5550  154.5809 H   0  0  0  0  0  0  0  0  0  0  0  0  # atno 10763 bound_to 10752
  154.5190  135.2806  155.1281 H   0  0  0  0  0  0  0  0  0  0  0  0  # atno 10764 bound_to 10752
  154.2642  135.6375  153.5338 H   0  0  0  0  0  0  0  0  0  0  0  0  # atno 10765 bound_to 10752
  139.9134  134.9626  156.7604 H   0  0  0  0  0  0  0  0  0  0  0  0  # atno 11005 bound_to 11000
  144.8191  140.6520  143.6364 LP  0  0  0  0  0  0  0  0  0  0  0  0  # atno 17320 bound_to 7965
  145.4290  139.1552  143.4033 LP  0  0  0  0  0  0  0  0  0  0  0  0  # atno 17321 bound_to 7965
  139.5907  144.7549  151.3409 LP  0  0  0  0  0  0  0  0  0  0  0  0  # atno 17342 bound_to 10162
  140.7182  143.7209  150.7696 LP  0  0  0  0  0  0  0  0  0  0  0  0  # atno 17343 bound_to 10162
  157.7499  131.0117  150.3357 LP  0  0  0  0  0  0  0  0  0  0  0  0  # atno 17370 bound_to 10713
  156.3750  130.3870  149.7146 LP  0  0  0  0  0  0  0  0  0  0  0  0  # atno 17371 bound_to 10713
  140.6701  133.9567  155.7852 LP  0  0  0  0  0  0  0  0  0  0  0  0  # atno 17394 bound_to 11000
  141.0583  134.0384  157.3693 LP  0  0  0  0  0  0  0  0  0  0  0  0  # atno 17395 bound_to 11000

$$$$
