AV-unprocessed.smi:2875|AV-procd|sdf|11041|dock6
  -GOLD-   2272015503D 1   1.00000     0.00000
 Structure written by MMmdl.
 39 39  0  0  0  0  0  0  0  0  2 V2000
  146.4648  133.1568  151.1299 C   0  0  0  0  0  0  0  0  0  0  0  0
  147.0239  133.0724  152.5568 C   0  0  0  0  0  0  0  0  0  0  0  0
  148.5639  133.0104  152.6351 C   0  0  0  0  0  0  0  0  0  0  0  0
  149.0617  132.8145  154.0169 N   0  0  0  0  0  0  0  0  0  0  0  0
  149.4384  133.9423  154.7973 C   0  0  0  0  0  0  0  0  0  0  0  0
  149.3530  135.2107  154.2411 N   0  0  0  0  0  0  0  0  0  0  0  0
  149.8918  133.7704  156.0684 C   0  0  0  0  0  0  0  0  0  0  0  0
  150.2310  134.8611  156.8951 N   0  0  0  0  0  0  0  0  0  0  0  0
  151.4629  135.5982  156.5654 C   0  0  0  0  0  0  0  0  0  0  0  0
  151.1651  136.9956  155.9982 C   0  0  0  0  0  0  0  0  0  0  0  0
  152.2382  137.4008  155.1654 O   0  0  0  0  0  0  0  0  0  0  0  0
  152.1066  138.7380  154.7192 C   0  0  0  0  0  0  0  0  0  0  0  0
  149.4957  135.1957  157.9883 C   0  0  0  0  0  0  0  0  0  0  0  0
  148.3083  134.3163  158.4001 C   0  0  0  0  0  0  0  0  0  0  0  0
  149.7620  136.1705  158.6929 O   0  0  0  0  0  0  0  0  0  0  0  0
  149.9506  132.4105  156.6213 C   0  0  0  0  0  0  0  0  0  0  0  0
  150.3204  132.2275  157.7817 O   0  0  0  0  0  0  0  0  0  0  0  0
  149.5836  131.3822  155.8127 N   0  5  0  0  0  0  0  0  0  0  0  0
  149.1431  131.5496  154.5336 C   0  0  0  0  0  0  0  0  0  0  0  0
  148.8141  130.5904  153.8340 O   0  0  0  0  0  0  0  0  0  0  0  0
  145.3750  133.1498  151.1414 H   0  0  0  0  0  0  0  0  0  0  0  0
  146.7962  132.3121  150.5261 H   0  0  0  0  0  0  0  0  0  0  0  0
  146.7813  134.0735  150.6319 H   0  0  0  0  0  0  0  0  0  0  0  0
  146.6579  133.9223  153.1335 H   0  0  0  0  0  0  0  0  0  0  0  0
  146.6142  132.1861  153.0419 H   0  0  0  0  0  0  0  0  0  0  0  0
  148.9177  132.1980  151.9979 H   0  0  0  0  0  0  0  0  0  0  0  0
  148.9873  133.8952  152.1619 H   0  0  0  0  0  0  0  0  0  0  0  0
  149.0304  135.3578  153.2958 H   0  0  0  0  0  0  0  0  0  0  0  0
  149.6515  136.0320  154.7472 H   0  0  0  0  0  0  0  0  0  0  0  0
  152.0888  135.6881  157.4549 H   0  0  0  0  0  0  0  0  0  0  0  0
  152.0665  135.0451  155.8445 H   0  0  0  0  0  0  0  0  0  0  0  0
  150.2235  136.9984  155.4471 H   0  0  0  0  0  0  0  0  0  0  0  0
  151.0619  137.7080  156.8177 H   0  0  0  0  0  0  0  0  0  0  0  0
  152.9589  138.9996  154.0921 H   0  0  0  0  0  0  0  0  0  0  0  0
  152.0781  139.4333  155.5591 H   0  0  0  0  0  0  0  0  0  0  0  0
  151.2007  138.8666  154.1256 H   0  0  0  0  0  0  0  0  0  0  0  0
  148.5888  133.2629  158.4298 H   0  0  0  0  0  0  0  0  0  0  0  0
  147.4760  134.4392  157.7073 H   0  0  0  0  0  0  0  0  0  0  0  0
  147.9554  134.5917  159.3942 H   0  0  0  0  0  0  0  0  0  0  0  0
  1  2  1  0  0  0  0
  1 21  1  0  0  0  0
  1 22  1  0  0  0  0
  1 23  1  0  0  0  0
  2  3  1  0  0  0  0
  2 24  1  0  0  0  0
  2 25  1  0  0  0  0
  3  4  1  0  0  0  0
  3 26  1  0  0  0  0
  3 27  1  0  0  0  0
  4 19  1  0  0  0  0
  4  5  1  0  0  0  0
  5  6  1  0  0  0  0
  5  7  2  0  0  0  0
  6 28  1  0  0  0  0
  6 29  1  0  0  0  0
  7  8  1  0  0  0  0
  7 16  1  0  0  0  0
  8  9  1  0  0  0  0
  8 13  1  0  0  0  0
  9 10  1  0  0  0  0
  9 30  1  0  0  0  0
  9 31  1  0  0  0  0
 10 11  1  0  0  0  0
 10 32  1  0  0  0  0
 10 33  1  0  0  0  0
 11 12  1  0  0  0  0
 12 34  1  0  0  0  0
 12 35  1  0  0  0  0
 12 36  1  0  0  0  0
 13 14  1  0  0  0  0
 13 15  2  0  0  0  0
 14 37  1  0  0  0  0
 14 38  1  0  0  0  0
 14 39  1  0  0  0  0
 16 17  2  0  0  0  0
 16 18  1  0  0  0  0
 18 19  1  0  0  0  0
 19 20  2  0  0  0  0
M  CHG  1  18  -1
M  END
> <s_m_source_file>
AV-unprocessed.smi

> <i_m_source_file_index>
2875

> <i_lp_mmshare_version>
43012

> <i_f3d_flags>
0

> <s_epik_input>
W0NIM11bQ0gyXVtDSDJdbjFjKFtOSDJdKWMoYyg9TylbbkhdYzE9TylOKEMoPU8pW0NIM10pW0NIMl1bQ0gyXU9bQ0gzXQ==

> <s_epik_cmdline>
J2VwaWtfcHl0aG9uJywgJy1waCcsICc3LjAnLCAnLXRuJywgJzgnLCAnLW1hJywgJzIwMCcsICctbWV0YWxfYmluZGluZycsICctaW1hZScsICc8aW5maWxlLm1hZT4nLCAnLW9tYWUnLCAnPG91dGZpbGUubWFlPic=

> <r_lp_tautomer_probability>
1

> <r_epik_Ionization_Penalty>
7.11914

> <r_epik_Ionization_Penalty_Charging>
0.302695

> <r_epik_Ionization_Penalty_Neutral>
6.81644

> <r_epik_State_Penalty>
6.81644

> <r_epik_Charging_Adjusted_Penalty>
7.11913

> <i_epik_Tot_Q>
-1

> <i_epik_Tot_abs_Q>
1

> <r_epik_Metal_State_Penalty>
2.72963

> <b_epik_Metal_Only>
1

> <s_epik_Chemistry_Notes>
This compound has an imine and may undergo hydrolysis.

> <s_lp_Force_Field>
OPLS_2005

> <r_lp_Energy>
36.1064

> <b_lp_Chiralities_Consistent>
1

> <s_lp_Variant>
AV-unprocessed.smi:2875-2

> <Gold.Version>
5.8.1

> <Gold.Id.Protein>
6NUR|6NUR_protein|mol2

> <Gold.PLP.Fitness>
35.1070

> <Gold.PLP.PLP>
-27.1053

> <Gold.PLP.part.hbond>
-3.9867

> <Gold.PLP.part.metal>
0.0000

> <Gold.PLP.part.buried>
-0.3835

> <Gold.PLP.part.nonpolar>
-23.1544

> <Gold.PLP.part.repulsive>
0.1699

> <Gold.PLP.ligand.clash>
0.0000

> <Gold.PLP.ligand.torsion>
1.9627

> <Gold.PLP.Chemscore.Hbond>
3.1975

> <Gold.PLP.Chemscore.CHOScore>
0.0000

> <Gold.PLP.Chemscore.Metal>
0.0000

> <Gold.Chemscore.Hbonds>
donor molecule, donor type, donor heavy atom, donor atom, acceptor molecule, acceptor atom, score
      L1  H     6    28       P1  7948  1.00
      P1  H  6896  6907       L1    17  0.96
      P1  H  6896  6908       L1    15  0.45
      P1  H 10752 10765       L1    11  0.75

> <Gold.PLP.Chemscore.Internal.Correction>
2.3345

> <Gold.Rescore>
     Score         DG    S(hbond)    S(metal)    S(lipo)     H(rot)  DE(clash)    DE(int)     intcor
     11.65     -13.91       2.67        0.00      40.52       2.04       0.01       2.26       ----

> <Gold.Chemscore.Fitness>
11.6452

> <Gold.Chemscore.DG>
-13.9138

> <Gold.Chemscore.ZeroCoef>
-5.4800

> <Gold.Chemscore.Hbond>
2.6701

> <Gold.Chemscore.Metal>
0.0000

> <Gold.Chemscore.Lipo>
40.5166

> <Gold.Chemscore.Internal_Hbond>
0.0000

> <Gold.Chemscore.DEClash>
0.0126

> <Gold.Chemscore.DEInternal>
2.2560

> <Gold.Chemscore.Rot>
2.0409

> <Gold.Chemscore.Internal.Correction>
   9.000000E+99

> <Gold.Chemscore.Hbonds>
donor molecule, donor type, donor heavy atom, donor atom, acceptor molecule, acceptor atom, score
      L1  H     6    28       P1  7948  0.48
      P1  H  6896  6907       L1    17  0.90
      P1  H  6896  6908       L1    15  0.02
      P1  H 10752 10765       L1    11  0.22

> <Gold.Chemscore.Hbond.Weighted>
-8.9180

> <Gold.Chemscore.Metal.Weighted>
-0.0000

> <Gold.Chemscore.Lipo.Weighted>
-4.7404

> <Gold.Chemscore.Internal_Hbond.Weighted>
0.0000

> <Gold.Chemscore.DEClash.Weighted>
0.0126

> <Gold.Chemscore.DEInternal.Weighted>
2.2560

> <Gold.Chemscore.Rot.Weighted>
5.2246

> <Gold.Chemscore.Internal.Correction.Weighted>
   9.000000E+99

> <Gold.Protein.RotatedTorsions>
[ 6907 6896 6895 6894 ] final -151.76 input  -60.11 | X-H torsion
[ 7974 7965 7964 7962 ] final   43.55 input  175.53 | X-H torsion
[ 8008 7997 7996 7995 ] final -138.11 input   59.86 | X-H torsion
[ 10167 10162 10161 10158 ] final -112.23 input  -65.29 | X-H torsion
[ 10718 10713 10712 10709 ] final   79.49 input   66.30 | X-H torsion
[ 10763 10752 10751 10750 ] final -178.72 input  -60.55 | X-H torsion
[ 11005 11000 10999 10996 ] final  -39.27 input  -57.11 | X-H torsion

> <Gold.Protein.ActiveResidues>
 VAL166  LYS551  ARG553  GLY616  TRP617  ASP618  TYR619  PRO620  LYS621  CYS622 
 ASP623  PHE694  ASN695  SER759  ASP760  ASP761  ALA762  ILE779  LEU786  VAL792 
 PHE793  MET794  SER795  GLU796  ALA797  LYS798  CYS799  TRP800  GLU811  SER814 

> <Gold.Protein.RotatedAtoms>
  151.2178  133.4519  159.2599 H   0  0  0  0  0  0  0  0  0  0  0  0  # atno 6907 bound_to 6896
  151.0914  134.9918  159.8414 H   0  0  0  0  0  0  0  0  0  0  0  0  # atno 6908 bound_to 6896
  152.5435  134.2112  159.8803 H   0  0  0  0  0  0  0  0  0  0  0  0  # atno 6909 bound_to 6896
  146.0646  139.5174  142.9637 H   0  0  0  0  0  0  0  0  0  0  0  0  # atno 7974 bound_to 7965
  155.4229  140.0520  157.3024 H   0  0  0  0  0  0  0  0  0  0  0  0  # atno 8008 bound_to 7997
  154.4894  140.2114  155.9540 H   0  0  0  0  0  0  0  0  0  0  0  0  # atno 8009 bound_to 7997
  156.1321  140.3170  155.8370 H   0  0  0  0  0  0  0  0  0  0  0  0  # atno 8010 bound_to 7997
  140.1250  143.4410  152.1666 H   0  0  0  0  0  0  0  0  0  0  0  0  # atno 10167 bound_to 10162
  157.6778  130.9916  150.1940 H   0  0  0  0  0  0  0  0  0  0  0  0  # atno 10718 bound_to 10713
  154.5441  135.2808  155.1069 H   0  0  0  0  0  0  0  0  0  0  0  0  # atno 10763 bound_to 10752
  154.2540  135.6334  153.5254 H   0  0  0  0  0  0  0  0  0  0  0  0  # atno 10764 bound_to 10752
  152.9986  135.5589  154.5989 H   0  0  0  0  0  0  0  0  0  0  0  0  # atno 10765 bound_to 10752
  141.0089  133.6917  156.2164 H   0  0  0  0  0  0  0  0  0  0  0  0  # atno 11005 bound_to 11000
  145.6501  141.0265  143.1765 LP  0  0  0  0  0  0  0  0  0  0  0  0  # atno 17320 bound_to 7965
  144.7194  139.8081  143.7387 LP  0  0  0  0  0  0  0  0  0  0  0  0  # atno 17321 bound_to 7965
  139.5549  144.7365  151.4325 LP  0  0  0  0  0  0  0  0  0  0  0  0  # atno 17342 bound_to 10162
  140.6850  143.7995  150.7173 LP  0  0  0  0  0  0  0  0  0  0  0  0  # atno 17343 bound_to 10162
  156.2645  130.3714  149.8095 LP  0  0  0  0  0  0  0  0  0  0  0  0  # atno 17370 bound_to 10713
  156.5830  130.8474  151.3388 LP  0  0  0  0  0  0  0  0  0  0  0  0  # atno 17371 bound_to 10713
  140.6766  134.4812  157.5588 LP  0  0  0  0  0  0  0  0  0  0  0  0  # atno 17394 bound_to 11000
  139.9079  134.8409  156.1637 LP  0  0  0  0  0  0  0  0  0  0  0  0  # atno 17395 bound_to 11000

$$$$
