AV-unprocessed.smi:1144|AV-procd|sdf|4880|dock6
  -GOLD-   22720 3453D 1   1.00000     0.00000
 Structure written by MMmdl.
 34 35  0  0  0  0  0  0  0  0  1 V2000
  147.0357  142.2443  156.9889 C   0  0  0  0  0  0  0  0  0  0  0  0
  147.7386  141.3187  156.1136 N   0  0  0  0  0  0  0  0  0  0  0  0
  147.5741  141.6777  154.7113 C   0  0  0  0  0  0  0  0  0  0  0  0
  148.3347  140.7140  153.7852 C   0  0  0  0  0  0  0  0  0  0  0  0
  149.7085  140.6808  154.1599 O   0  0  0  0  0  0  0  0  0  0  0  0
  149.9110  140.2703  155.5110 C   0  0  1  0  0  0  0  0  0  0  0  0
  151.4185  140.2671  155.7973 C   0  0  0  0  0  0  0  0  0  0  0  0
  151.7064  139.8422  157.1590 N   0  0  0  0  0  0  0  0  0  0  0  0
  152.2702  140.6568  158.1222 C   0  0  0  0  0  0  0  0  0  0  0  0
  153.3377  140.1552  158.7475 N   0  0  0  0  0  0  0  0  0  0  0  0
  153.9130  140.9264  159.6951 C   0  0  0  0  0  0  0  0  0  0  0  0
  153.4154  142.2046  160.0159 C   0  0  0  0  0  0  0  0  0  0  0  0
  152.2813  142.6347  159.2914 C   0  0  0  0  0  0  0  0  0  0  0  0
  151.6342  143.9904  159.5300 C   0  0  0  0  0  0  0  0  0  0  0  0
  150.4388  144.0282  158.9407 F   0  0  0  0  0  0  0  0  0  0  0  0
  151.4717  144.2322  160.8313 F   0  0  0  0  0  0  0  0  0  0  0  0
  152.3996  144.9521  159.0140 F   0  0  0  0  0  0  0  0  0  0  0  0
  151.7131  141.8526  158.3444 N   0  0  0  0  0  0  0  0  0  0  0  0
  149.1580  141.2470  156.4366 C   0  0  0  0  0  0  0  0  0  0  0  0
  145.9713  142.2659  156.7529 H   0  0  0  0  0  0  0  0  0  0  0  0
  147.4269  143.2574  156.8871 H   0  0  0  0  0  0  0  0  0  0  0  0
  147.1384  141.9439  158.0319 H   0  0  0  0  0  0  0  0  0  0  0  0
  146.5152  141.6743  154.4496 H   0  0  0  0  0  0  0  0  0  0  0  0
  147.9342  142.6943  154.5454 H   0  0  0  0  0  0  0  0  0  0  0  0
  147.9115  139.7096  153.8387 H   0  0  0  0  0  0  0  0  0  0  0  0
  148.2552  141.0417  152.7486 H   0  0  0  0  0  0  0  0  0  0  0  0
  149.5130  139.2630  155.6490 H   0  0  0  0  0  0  0  0  0  0  0  0
  151.9366  139.6156  155.0924 H   0  0  0  0  0  0  0  0  0  0  0  0
  151.8188  141.2724  155.6605 H   0  0  0  0  0  0  0  0  0  0  0  0
  151.5413  138.8770  157.4050 H   0  0  0  0  0  0  0  0  0  0  0  0
  154.7770  140.5209  160.2006 H   0  0  0  0  0  0  0  0  0  0  0  0
  153.8824  142.8138  160.7755 H   0  0  0  0  0  0  0  0  0  0  0  0
  149.6043  142.2397  156.3557 H   0  0  0  0  0  0  0  0  0  0  0  0
  149.2831  140.9337  157.4739 H   0  0  0  0  0  0  0  0  0  0  0  0
  1  2  1  0  0  0  0
  1 20  1  0  0  0  0
  1 21  1  0  0  0  0
  1 22  1  0  0  0  0
  2 19  1  0  0  0  0
  2  3  1  0  0  0  0
  3  4  1  0  0  0  0
  3 23  1  0  0  0  0
  3 24  1  0  0  0  0
  4  5  1  0  0  0  0
  4 25  1  0  0  0  0
  4 26  1  0  0  0  0
  5  6  1  0  0  0  0
  6  7  1  0  0  0  0
  6 19  1  0  0  0  0
  6 27  1  0  0  0  0
  7  8  1  0  0  0  0
  7 28  1  0  0  0  0
  7 29  1  0  0  0  0
  8  9  1  0  0  0  0
  8 30  1  0  0  0  0
  9 18  1  0  0  0  0
  9 10  2  0  0  0  0
 10 11  1  0  0  0  0
 11 12  2  0  0  0  0
 11 31  1  0  0  0  0
 12 13  1  0  0  0  0
 12 32  1  0  0  0  0
 13 14  1  0  0  0  0
 13 18  2  0  0  0  0
 14 15  1  0  0  0  0
 14 16  1  0  0  0  0
 14 17  1  0  0  0  0
 19 33  1  0  0  0  0
 19 34  1  0  0  0  0
M  END
> <s_m_source_file>
AV-unprocessed.smi

> <i_m_source_file_index>
1144

> <i_lp_mmshare_version>
43012

> <i_f3d_flags>
0

> <s_epik_input>
W0NIM11OMVtDSDJdW0NIMl1PW0NASF0oW0NIMl0xKVtDSDJdW05IXWMybltjSF1bY0hdYyhuMilDKEYpKEYpRg==

> <s_epik_cmdline>
J2VwaWtfcHl0aG9uJywgJy1waCcsICc3LjAnLCAnLXRuJywgJzgnLCAnLW1hJywgJzIwMCcsICctbWV0YWxfYmluZGluZycsICctaW1hZScsICc8aW5maWxlLm1hZT4nLCAnLW9tYWUnLCAnPG91dGZpbGUubWFlPic=

> <r_lp_tautomer_probability>
1

> <r_epik_Ionization_Penalty>
0.797829

> <r_epik_Ionization_Penalty_Charging>
0

> <r_epik_Ionization_Penalty_Neutral>
0.797829

> <r_epik_State_Penalty>
0.828842

> <r_epik_Charging_Adjusted_Penalty>
0.828842

> <i_epik_Tot_Q>
0

> <i_epik_Tot_abs_Q>
0

> <r_epik_Metal_State_Penalty>
0.828842

> <b_epik_Metal_Only>
0

> <s_lp_Force_Field>
OPLS_2005

> <r_lp_Energy>
13.1173

> <b_lp_Chiralities_Consistent>
1

> <s_lp_Variant>
AV-unprocessed.smi:1144-5

> <Gold.Version>
5.8.1

> <Gold.Id.Protein>
6NUR|6NUR_protein|mol2

> <Gold.PLP.Fitness>
41.9850

> <Gold.PLP.PLP>
-39.2337

> <Gold.PLP.part.hbond>
-2.0000

> <Gold.PLP.part.metal>
0.0000

> <Gold.PLP.part.buried>
-3.1534

> <Gold.PLP.part.nonpolar>
-33.6685

> <Gold.PLP.part.repulsive>
0.6173

> <Gold.PLP.ligand.clash>
0.0000

> <Gold.PLP.ligand.torsion>
0.9435

> <Gold.PLP.Chemscore.Hbond>
1.5452

> <Gold.PLP.Chemscore.CHOScore>
0.0000

> <Gold.PLP.Chemscore.Metal>
0.0000

> <Gold.Chemscore.Hbonds>
donor molecule, donor type, donor heavy atom, donor atom, acceptor molecule, acceptor atom, score
      P1  H  7989  7998       L1     5  0.64
      P1  H  7997  8008       L1    10  0.78

> <Gold.PLP.Chemscore.Internal.Correction>
0.0028

> <Gold.Rescore>
     Score         DG    S(hbond)    S(metal)    S(lipo)     H(rot)  DE(clash)    DE(int)     intcor
     13.44     -14.22       0.95        0.00      76.44       1.31       0.06       0.72       ----

> <Gold.Chemscore.Fitness>
13.4376

> <Gold.Chemscore.DG>
-14.2169

> <Gold.Chemscore.ZeroCoef>
-5.4800

> <Gold.Chemscore.Hbond>
0.9459

> <Gold.Chemscore.Metal>
0.0000

> <Gold.Chemscore.Lipo>
76.4419

> <Gold.Chemscore.Internal_Hbond>
0.0000

> <Gold.Chemscore.DEClash>
0.0593

> <Gold.Chemscore.DEInternal>
0.7200

> <Gold.Chemscore.Rot>
1.3149

> <Gold.Chemscore.Internal.Correction>
   9.000000E+99

> <Gold.Chemscore.Hbonds>
donor molecule, donor type, donor heavy atom, donor atom, acceptor molecule, acceptor atom, score
      P1  H  7989  7998       L1     5  0.24
      P1  H  7997  8008       L1    10  0.12

> <Gold.Chemscore.Hbond.Weighted>
-3.1594

> <Gold.Chemscore.Metal.Weighted>
-0.0000

> <Gold.Chemscore.Lipo.Weighted>
-8.9437

> <Gold.Chemscore.Internal_Hbond.Weighted>
0.0000

> <Gold.Chemscore.DEClash.Weighted>
0.0593

> <Gold.Chemscore.DEInternal.Weighted>
0.7200

> <Gold.Chemscore.Rot.Weighted>
3.3662

> <Gold.Chemscore.Internal.Correction.Weighted>
   9.000000E+99

> <Gold.Protein.RotatedTorsions>
[ 6907 6896 6895 6894 ] final  127.77 input  -60.11 | X-H torsion
[ 7974 7965 7964 7962 ] final  -69.66 input  175.53 | X-H torsion
[ 8008 7997 7996 7995 ] final  -97.20 input   59.86 | X-H torsion
[ 10167 10162 10161 10158 ] final -157.71 input  -65.29 | X-H torsion
[ 10718 10713 10712 10709 ] final    4.35 input   66.30 | X-H torsion
[ 10763 10752 10751 10750 ] final  116.08 input  -60.55 | X-H torsion
[ 11005 11000 10999 10996 ] final  158.26 input  -57.11 | X-H torsion

> <Gold.Protein.ActiveResidues>
 VAL166  LYS551  ARG553  GLY616  TRP617  ASP618  TYR619  PRO620  LYS621  CYS622 
 ASP623  PHE694  ASN695  SER759  ASP760  ASP761  ALA762  ILE779  LEU786  VAL792 
 PHE793  MET794  SER795  GLU796  ALA797  LYS798  CYS799  TRP800  GLU811  SER814 

> <Gold.Protein.RotatedAtoms>
  152.3782  133.6510  159.6139 H   0  0  0  0  0  0  0  0  0  0  0  0  # atno 6907 bound_to 6896
  150.7720  133.9158  159.3392 H   0  0  0  0  0  0  0  0  0  0  0  0  # atno 6908 bound_to 6896
  151.6969  135.0938  160.0295 H   0  0  0  0  0  0  0  0  0  0  0  0  # atno 6909 bound_to 6896
  145.7010  140.9116  143.0731 H   0  0  0  0  0  0  0  0  0  0  0  0  # atno 7974 bound_to 7965
  154.7845  140.0465  157.1153 H   0  0  0  0  0  0  0  0  0  0  0  0  # atno 8008 bound_to 7997
  154.9665  140.3084  155.4987 H   0  0  0  0  0  0  0  0  0  0  0  0  # atno 8009 bound_to 7997
  156.2941  140.2261  156.4754 H   0  0  0  0  0  0  0  0  0  0  0  0  # atno 8010 bound_to 7997
  139.6749  143.9681  152.2305 H   0  0  0  0  0  0  0  0  0  0  0  0  # atno 10167 bound_to 10162
  156.8913  130.5688  149.5650 H   0  0  0  0  0  0  0  0  0  0  0  0  # atno 10718 bound_to 10713
  153.5319  135.3576  155.2679 H   0  0  0  0  0  0  0  0  0  0  0  0  # atno 10763 bound_to 10752
  154.8726  135.4070  154.3142 H   0  0  0  0  0  0  0  0  0  0  0  0  # atno 10764 bound_to 10752
  153.3832  135.7069  153.6617 H   0  0  0  0  0  0  0  0  0  0  0  0  # atno 10765 bound_to 10752
  140.1848  134.8450  157.2844 H   0  0  0  0  0  0  0  0  0  0  0  0  # atno 11005 bound_to 11000
  144.6969  139.8947  143.7455 LP  0  0  0  0  0  0  0  0  0  0  0  0  # atno 17320 bound_to 7965
  146.0798  139.3786  143.0471 LP  0  0  0  0  0  0  0  0  0  0  0  0  # atno 17321 bound_to 7965
  139.9455  144.6654  150.8224 LP  0  0  0  0  0  0  0  0  0  0  0  0  # atno 17342 bound_to 10162
  140.7632  143.3216  151.2609 LP  0  0  0  0  0  0  0  0  0  0  0  0  # atno 17343 bound_to 10162
  156.0627  130.5677  150.9226 LP  0  0  0  0  0  0  0  0  0  0  0  0  # atno 17370 bound_to 10713
  157.6082  131.0938  150.8842 LP  0  0  0  0  0  0  0  0  0  0  0  0  # atno 17371 bound_to 10713
  140.2226  134.4005  155.7558 LP  0  0  0  0  0  0  0  0  0  0  0  0  # atno 17394 bound_to 11000
  141.2224  133.7174  156.8515 LP  0  0  0  0  0  0  0  0  0  0  0  0  # atno 17395 bound_to 11000

$$$$
