AV-unprocessed.smi:265|AV-procd|sdf|2017|dock6
  -GOLD-   2262021213D 1   1.00000     0.00000
 Structure written by MMmdl.
 52 56  0  0  0  0  0  0  0  0  1 V2000
  152.2331  131.8671  156.0578 C   0  0  0  0  0  0  0  0  0  0  0  0
  151.1902  132.8219  156.6595 C   0  0  2  0  0  0  0  0  0  0  0  0
  150.4405  132.1833  157.6922 O   0  0  0  0  0  0  0  0  0  0  0  0
  149.0496  132.4281  157.5201 C   0  0  0  0  0  0  0  0  0  0  0  0
  148.9690  133.6397  156.5980 C   0  0  0  0  0  0  0  0  0  0  0  0
  150.1642  133.4331  155.6771 C   0  0  2  0  0  0  0  0  0  0  0  0
  149.8076  132.4858  154.6841 O   0  0  0  0  0  0  0  0  0  0  0  0
  150.6425  134.6953  154.9129 C   0  0  0  0  0  0  0  0  0  0  0  0
  150.8094  135.8849  155.7332 N   0  0  0  0  0  0  0  0  0  0  0  0
  150.8508  135.9400  157.1092 C   0  0  0  0  0  0  0  0  0  0  0  0
  151.0109  137.1320  157.6163 N   0  0  0  0  0  0  0  0  0  0  0  0
  151.1071  137.9577  156.5044 C   0  0  0  0  0  0  0  0  0  0  0  0
  151.2873  139.3532  156.3256 C   0  0  0  0  0  0  0  0  0  0  0  0
  151.3992  140.1982  157.3717 N   0  0  0  0  0  0  0  0  0  0  0  0
  152.5135  139.8786  158.2645 C   0  0  0  0  0  0  0  0  0  0  0  0
  152.4669  140.7419  159.5398 C   0  0  0  0  0  0  0  0  0  0  0  0
  152.4034  142.2276  159.1598 C   0  0  2  0  0  0  0  0  0  0  0  0
  152.2506  143.0644  160.2961 O   0  0  0  0  0  0  0  0  0  0  0  0
  152.3537  144.4596  159.9905 C   0  0  0  0  0  0  0  0  0  0  0  0
  151.5184  144.8672  158.7572 C   0  0  0  0  0  0  0  0  0  0  0  0
  151.3223  146.0564  158.5172 O   0  0  0  0  0  0  0  0  0  0  0  0
  151.0612  143.8950  157.9505 N   0  0  0  0  0  0  0  0  0  0  0  0
  151.1794  142.4773  158.2639 C   0  0  1  0  0  0  0  0  0  0  0  0
  151.2712  141.6073  157.0003 C   0  0  0  0  0  0  0  0  0  0  0  0
  151.3443  139.8336  155.0558 N   0  0  0  0  0  0  0  0  0  0  0  0
  151.2305  138.9937  154.0219 C   0  0  0  0  0  0  0  0  0  0  0  0
  151.0536  137.6701  154.0359 N   0  0  0  0  0  0  0  0  0  0  0  0
  150.9944  137.1905  155.3119 C   0  0  0  0  0  0  0  0  0  0  0  0
  153.3242  142.4936  158.6358 H   0  0  0  0  0  0  0  0  0  0  0  0
  150.2761  142.2001  158.8106 H   0  0  0  0  0  0  0  0  0  0  0  0
  152.8004  132.3561  155.2657 H   0  0  0  0  0  0  0  0  0  0  0  0
  151.7688  130.9736  155.6400 H   0  0  0  0  0  0  0  0  0  0  0  0
  152.9408  131.5412  156.8201 H   0  0  0  0  0  0  0  0  0  0  0  0
  151.7231  133.6237  157.1681 H   0  0  0  0  0  0  0  0  0  0  0  0
  148.5952  131.5559  157.0487 H   0  0  0  0  0  0  0  0  0  0  0  0
  148.5523  132.5938  158.4759 H   0  0  0  0  0  0  0  0  0  0  0  0
  148.0167  133.7176  156.0721 H   0  0  0  0  0  0  0  0  0  0  0  0
  149.0901  134.5378  157.2023 H   0  0  0  0  0  0  0  0  0  0  0  0
  148.8721  132.5232  154.5559 H   0  0  0  0  0  0  0  0  0  0  0  0
  151.5944  134.4914  154.4204 H   0  0  0  0  0  0  0  0  0  0  0  0
  149.9380  134.9364  154.1157 H   0  0  0  0  0  0  0  0  0  0  0  0
  150.7483  135.0614  157.7298 H   0  0  0  0  0  0  0  0  0  0  0  0
  152.4805  138.8216  158.5323 H   0  0  0  0  0  0  0  0  0  0  0  0
  153.4562  140.0457  157.7412 H   0  0  0  0  0  0  0  0  0  0  0  0
  151.5942  140.4726  160.1361 H   0  0  0  0  0  0  0  0  0  0  0  0
  153.3426  140.5466  160.1589 H   0  0  0  0  0  0  0  0  0  0  0  0
  152.0364  145.0378  160.8586 H   0  0  0  0  0  0  0  0  0  0  0  0
  153.3989  144.7082  159.8023 H   0  0  0  0  0  0  0  0  0  0  0  0
  150.5417  144.1524  157.1239 H   0  0  0  0  0  0  0  0  0  0  0  0
  152.1299  141.9084  156.3981 H   0  0  0  0  0  0  0  0  0  0  0  0
  150.3805  141.7454  156.3855 H   0  0  0  0  0  0  0  0  0  0  0  0
  151.2886  139.4468  153.0431 H   0  0  0  0  0  0  0  0  0  0  0  0
  1  2  1  0  0  0  0
  1 31  1  0  0  0  0
  1 32  1  0  0  0  0
  1 33  1  0  0  0  0
  2  6  1  0  0  0  0
  2  3  1  0  0  0  0
  2 34  1  0  0  0  0
  3  4  1  0  0  0  0
  4  5  1  0  0  0  0
  4 35  1  0  0  0  0
  4 36  1  0  0  0  0
  5  6  1  0  0  0  0
  5 37  1  0  0  0  0
  5 38  1  0  0  0  0
  6  7  1  0  0  0  0
  6  8  1  0  0  0  0
  7 39  1  0  0  0  0
  8  9  1  0  0  0  0
  8 40  1  0  0  0  0
  8 41  1  0  0  0  0
  9 28  1  0  0  0  0
  9 10  1  0  0  0  0
 10 11  2  0  0  0  0
 10 42  1  0  0  0  0
 11 12  1  0  0  0  0
 12 28  2  0  0  0  0
 12 13  1  0  0  0  0
 13 14  1  0  0  0  0
 13 25  2  0  0  0  0
 14 24  1  0  0  0  0
 14 15  1  0  0  0  0
 15 16  1  0  0  0  0
 15 43  1  0  0  0  0
 15 44  1  0  0  0  0
 16 17  1  0  0  0  0
 16 45  1  0  0  0  0
 16 46  1  0  0  0  0
 17 29  1  0  0  0  0
 17 23  1  0  0  0  0
 17 18  1  0  0  0  0
 18 19  1  0  0  0  0
 19 20  1  0  0  0  0
 19 47  1  0  0  0  0
 19 48  1  0  0  0  0
 20 21  2  0  0  0  0
 20 22  1  0  0  0  0
 22 23  1  0  0  0  0
 22 49  1  0  0  0  0
 23 30  1  0  0  0  0
 23 24  1  0  0  0  0
 24 50  1  0  0  0  0
 24 51  1  0  0  0  0
 25 26  1  0  0  0  0
 26 27  2  0  0  0  0
 26 52  1  0  0  0  0
 27 28  1  0  0  0  0
M  END
> <s_m_source_file>
AV-unprocessed.smi

> <i_m_source_file_index>
265

> <i_lp_mmshare_version>
43012

> <i_f3d_flags>
0

> <s_epik_input>
W0NIMl0xW0NIMl1PW0NAQEhdKFtDSDNdKVtDQEBdMShbT0hdKVtDSDJdbihbY0hdbjIpYyhjMjMpbltjSF1uYzNOKFtDSDJdW0NIMl00KVtDSDJdW0NAQEhdKFtDQEhdNDUpW05IXUMoPU8pW0NIMl1PNQ==

> <s_epik_cmdline>
J2VwaWtfcHl0aG9uJywgJy1waCcsICc3LjAnLCAnLXRuJywgJzgnLCAnLW1hJywgJzIwMCcsICctbWV0YWxfYmluZGluZycsICctaW1hZScsICc8aW5maWxlLm1hZT4nLCAnLW9tYWUnLCAnPG91dGZpbGUubWFlPic=

> <r_lp_tautomer_probability>
1

> <r_epik_Ionization_Penalty>
0.00221504

> <r_epik_Ionization_Penalty_Charging>
0

> <r_epik_Ionization_Penalty_Neutral>
0.00221504

> <r_epik_State_Penalty>
-0

> <r_epik_Charging_Adjusted_Penalty>
0

> <i_epik_Tot_Q>
0

> <i_epik_Tot_abs_Q>
0

> <r_epik_Metal_State_Penalty>
-0

> <b_epik_Metal_Only>
0

> <s_lp_Force_Field>
OPLS_2005

> <r_lp_Energy>
49.4841

> <b_lp_Chiralities_Consistent>
1

> <s_lp_Variant>
AV-unprocessed.smi:265-3

> <Gold.Version>
5.8.1

> <Gold.Id.Protein>
6NUR|6NUR_protein|mol2

> <Gold.PLP.Fitness>
39.8695

> <Gold.PLP.PLP>
-32.2952

> <Gold.PLP.part.hbond>
-4.3074

> <Gold.PLP.part.metal>
0.0000

> <Gold.PLP.part.buried>
-1.0503

> <Gold.PLP.part.nonpolar>
-26.4314

> <Gold.PLP.part.repulsive>
0.9796

> <Gold.PLP.ligand.clash>
0.0000

> <Gold.PLP.ligand.torsion>
0.3919

> <Gold.PLP.Chemscore.Hbond>
1.7125

> <Gold.PLP.Chemscore.CHOScore>
1.0000

> <Gold.PLP.Chemscore.Metal>
0.0000

> <Gold.Chemscore.Hbonds>
donor molecule, donor type, donor heavy atom, donor atom, acceptor molecule, acceptor atom, score
      L1  H    22    49       P1  8028  0.44
      P1  H  6896  6908       L1     3  0.63
      L1  C    26    52       P1  7957  0.91

> <Gold.PLP.Chemscore.Internal.Correction>
0.2206

> <Gold.Rescore>
     Score         DG    S(hbond)    S(metal)    S(lipo)     H(rot)  DE(clash)    DE(int)     intcor
      7.37      -8.93       0.00        0.00      78.62       2.25       0.21       1.35       ----

> <Gold.Chemscore.Fitness>
7.3721

> <Gold.Chemscore.DG>
-8.9316

> <Gold.Chemscore.ZeroCoef>
-5.4800

> <Gold.Chemscore.Hbond>
0.0004

> <Gold.Chemscore.Metal>
0.0000

> <Gold.Chemscore.Lipo>
78.6181

> <Gold.Chemscore.Internal_Hbond>
0.0000

> <Gold.Chemscore.DEClash>
0.2118

> <Gold.Chemscore.DEInternal>
1.3477

> <Gold.Chemscore.Rot>
2.2453

> <Gold.Chemscore.Internal.Correction>
   9.000000E+99

> <Gold.Chemscore.Hbonds>
donor molecule, donor type, donor heavy atom, donor atom, acceptor molecule, acceptor atom, score
      L1  H    22    49       P1  8028  0.41
      P1  H  6896  6908       L1     3  0.05

> <Gold.Chemscore.Hbond.Weighted>
-0.0012

> <Gold.Chemscore.Metal.Weighted>
-0.0000

> <Gold.Chemscore.Lipo.Weighted>
-9.1983

> <Gold.Chemscore.Internal_Hbond.Weighted>
0.0000

> <Gold.Chemscore.DEClash.Weighted>
0.2118

> <Gold.Chemscore.DEInternal.Weighted>
1.3477

> <Gold.Chemscore.Rot.Weighted>
5.7479

> <Gold.Chemscore.Internal.Correction.Weighted>
   9.000000E+99

> <Gold.Protein.RotatedTorsions>
[ 6907 6896 6895 6894 ] final   91.24 input  -60.11 | X-H torsion
[ 7974 7965 7964 7962 ] final   99.73 input  175.53 | X-H torsion
[ 8008 7997 7996 7995 ] final   46.99 input   59.86 | X-H torsion
[ 10167 10162 10161 10158 ] final   51.42 input  -65.29 | X-H torsion
[ 10718 10713 10712 10709 ] final  110.62 input   66.30 | X-H torsion
[ 10763 10752 10751 10750 ] final   99.47 input  -60.55 | X-H torsion
[ 11005 11000 10999 10996 ] final   85.15 input  -57.11 | X-H torsion

> <Gold.Protein.ActiveResidues>
 VAL166  LYS551  ARG553  GLY616  TRP617  ASP618  TYR619  PRO620  LYS621  CYS622 
 ASP623  PHE694  ASN695  SER759  ASP760  ASP761  ALA762  ILE779  LEU786  VAL792 
 PHE793  MET794  SER795  GLU796  ALA797  LYS798  CYS799  TRP800  GLU811  SER814 

> <Gold.Protein.RotatedAtoms>
  152.5449  134.1688  159.8587 H   0  0  0  0  0  0  0  0  0  0  0  0  # atno 6907 bound_to 6896
  151.1700  133.4783  159.2601 H   0  0  0  0  0  0  0  0  0  0  0  0  # atno 6908 bound_to 6896
  151.1285  135.0129  159.8626 H   0  0  0  0  0  0  0  0  0  0  0  0  # atno 6909 bound_to 6896
  145.3950  139.2356  143.3331 H   0  0  0  0  0  0  0  0  0  0  0  0  # atno 7974 bound_to 7965
  155.3616  140.3419  155.4241 H   0  0  0  0  0  0  0  0  0  0  0  0  # atno 8008 bound_to 7997
  156.1710  140.1632  156.8481 H   0  0  0  0  0  0  0  0  0  0  0  0  # atno 8009 bound_to 7997
  154.5233  140.0762  156.8195 H   0  0  0  0  0  0  0  0  0  0  0  0  # atno 8010 bound_to 7997
  140.2621  144.3361  150.6315 H   0  0  0  0  0  0  0  0  0  0  0  0  # atno 10167 bound_to 10162
  157.6485  131.0936  150.6628 H   0  0  0  0  0  0  0  0  0  0  0  0  # atno 10718 bound_to 10713
  153.3018  135.4112  155.1259 H   0  0  0  0  0  0  0  0  0  0  0  0  # atno 10763 bound_to 10752
  154.8551  135.3543  154.5841 H   0  0  0  0  0  0  0  0  0  0  0  0  # atno 10764 bound_to 10752
  153.6267  135.7062  153.5349 H   0  0  0  0  0  0  0  0  0  0  0  0  # atno 10765 bound_to 10752
  139.8980  134.8266  156.2542 H   0  0  0  0  0  0  0  0  0  0  0  0  # atno 11005 bound_to 11000
  146.2779  140.4639  142.8788 LP  0  0  0  0  0  0  0  0  0  0  0  0  # atno 17320 bound_to 7965
  144.8414  140.6862  143.6227 LP  0  0  0  0  0  0  0  0  0  0  0  0  # atno 17321 bound_to 7965
  140.5957  143.2167  151.7168 LP  0  0  0  0  0  0  0  0  0  0  0  0  # atno 17342 bound_to 10162
  139.5014  144.3870  152.0318 LP  0  0  0  0  0  0  0  0  0  0  0  0  # atno 17343 bound_to 10162
  156.6942  130.4604  149.5591 LP  0  0  0  0  0  0  0  0  0  0  0  0  # atno 17370 bound_to 10713
  156.1840  130.6517  151.0985 LP  0  0  0  0  0  0  0  0  0  0  0  0  # atno 17371 bound_to 10713
  141.0204  133.7044  156.1259 LP  0  0  0  0  0  0  0  0  0  0  0  0  # atno 17394 bound_to 11000
  140.7241  134.4326  157.5572 LP  0  0  0  0  0  0  0  0  0  0  0  0  # atno 17395 bound_to 11000

$$$$
