AV-unprocessed.smi:341|AV-procd|sdf|2383|dock6
  -GOLD-   2262022313D 1   1.00000     0.00000
 Structure written by MMmdl.
 44 46  0  0  0  0  0  0  0  0  1 V2000
  152.2841  142.9695  158.5072 C   0  0  0  0  0  0  0  0  0  0  0  0
  150.9920  142.1429  158.4927 C   0  0  0  0  0  0  0  0  0  0  0  0
  150.9449  141.2564  157.3326 N   0  0  0  0  0  0  0  0  0  0  0  0
  151.8669  140.3265  156.9890 C   0  0  0  0  0  0  0  0  0  0  0  0
  152.8948  140.0617  157.6122 O   0  0  0  0  0  0  0  0  0  0  0  0
  151.4630  139.7390  155.8377 N   0  0  0  0  0  0  0  0  0  0  0  0
  152.1577  138.6755  155.1127 C   0  0  0  0  0  0  0  0  0  0  0  0
  151.1799  137.5950  154.6076 C   0  0  1  0  0  0  0  0  0  0  0  0
  151.9049  136.7105  153.7760 O   0  0  0  0  0  0  0  0  0  0  0  0
  150.6009  136.7617  155.7634 C   0  0  0  0  0  0  0  0  0  0  0  0
  149.5850  135.9099  155.2499 O   0  0  0  0  0  0  0  0  0  0  0  0
  149.8508  134.5612  155.1500 C   0  0  0  0  0  0  0  0  0  0  0  0
  149.0818  133.8252  154.2251 C   0  0  0  0  0  0  0  0  0  0  0  0
  149.2841  132.4419  154.0562 C   0  0  0  0  0  0  0  0  0  0  0  0
  150.2648  131.7753  154.8164 C   0  0  0  0  0  0  0  0  0  0  0  0
  150.4762  130.3477  154.6448 C   0  0  0  0  0  0  0  0  0  0  0  0
  150.6446  129.2112  154.5080 N   0  0  0  0  0  0  0  0  0  0  0  0
  151.0400  132.4990  155.7438 C   0  0  0  0  0  0  0  0  0  0  0  0
  150.8360  133.8828  155.9114 C   0  0  0  0  0  0  0  0  0  0  0  0
  150.2492  140.3120  155.4314 C   0  0  0  0  0  0  0  0  0  0  0  0
  149.4301  140.0545  154.3180 C   0  0  0  0  0  0  0  0  0  0  0  0
  148.2487  140.8222  154.1925 C   0  0  0  0  0  0  0  0  0  0  0  0
  147.9167  141.8085  155.1573 C   0  0  0  0  0  0  0  0  0  0  0  0
  148.7584  142.0468  156.2690 C   0  0  0  0  0  0  0  0  0  0  0  0
  149.9244  141.2682  156.3709 C   0  0  0  0  0  0  0  0  0  0  0  0
  152.3142  143.6272  159.3758 H   0  0  0  0  0  0  0  0  0  0  0  0
  152.3637  143.5926  157.6158 H   0  0  0  0  0  0  0  0  0  0  0  0
  153.1638  142.3264  158.5469 H   0  0  0  0  0  0  0  0  0  0  0  0
  150.9163  141.5583  159.4107 H   0  0  0  0  0  0  0  0  0  0  0  0
  150.1250  142.8040  158.4838 H   0  0  0  0  0  0  0  0  0  0  0  0
  152.7520  139.0833  154.2940 H   0  0  0  0  0  0  0  0  0  0  0  0
  152.8778  138.2273  155.7990 H   0  0  0  0  0  0  0  0  0  0  0  0
  150.3658  138.0556  154.0462 H   0  0  0  0  0  0  0  0  0  0  0  0
  151.4218  136.5904  152.9729 H   0  0  0  0  0  0  0  0  0  0  0  0
  151.3877  136.1967  156.2668 H   0  0  0  0  0  0  0  0  0  0  0  0
  150.1456  137.4267  156.4989 H   0  0  0  0  0  0  0  0  0  0  0  0
  148.3276  134.3277  153.6373 H   0  0  0  0  0  0  0  0  0  0  0  0
  148.6831  131.8985  153.3410 H   0  0  0  0  0  0  0  0  0  0  0  0
  151.7954  131.9979  156.3322 H   0  0  0  0  0  0  0  0  0  0  0  0
  151.4498  134.4013  156.6320 H   0  0  0  0  0  0  0  0  0  0  0  0
  149.6866  139.3030  153.5862 H   0  0  0  0  0  0  0  0  0  0  0  0
  147.5921  140.6558  153.3515 H   0  0  0  0  0  0  0  0  0  0  0  0
  147.0105  142.3844  155.0417 H   0  0  0  0  0  0  0  0  0  0  0  0
  148.5112  142.7968  157.0055 H   0  0  0  0  0  0  0  0  0  0  0  0
  1  2  1  0  0  0  0
  1 26  1  0  0  0  0
  1 27  1  0  0  0  0
  1 28  1  0  0  0  0
  2  3  1  0  0  0  0
  2 29  1  0  0  0  0
  2 30  1  0  0  0  0
  3 25  1  0  0  0  0
  3  4  1  0  0  0  0
  4  5  2  0  0  0  0
  4  6  1  0  0  0  0
  6  7  1  0  0  0  0
  6 20  1  0  0  0  0
  7  8  1  0  0  0  0
  7 31  1  0  0  0  0
  7 32  1  0  0  0  0
  8  9  1  0  0  0  0
  8 10  1  0  0  0  0
  8 33  1  0  0  0  0
  9 34  1  0  0  0  0
 10 11  1  0  0  0  0
 10 35  1  0  0  0  0
 10 36  1  0  0  0  0
 11 12  1  0  0  0  0
 12 19  1  0  0  0  0
 12 13  2  0  0  0  0
 13 14  1  0  0  0  0
 13 37  1  0  0  0  0
 14 15  2  0  0  0  0
 14 38  1  0  0  0  0
 15 16  1  0  0  0  0
 15 18  1  0  0  0  0
 16 17  3  0  0  0  0
 18 19  2  0  0  0  0
 18 39  1  0  0  0  0
 19 40  1  0  0  0  0
 20 25  2  0  0  0  0
 20 21  1  0  0  0  0
 21 22  2  0  0  0  0
 21 41  1  0  0  0  0
 22 23  1  0  0  0  0
 22 42  1  0  0  0  0
 23 24  2  0  0  0  0
 23 43  1  0  0  0  0
 24 25  1  0  0  0  0
 24 44  1  0  0  0  0
M  END
> <s_m_source_file>
AV-unprocessed.smi

> <i_m_source_file_index>
341

> <i_lp_mmshare_version>
43012

> <i_f3d_flags>
0

> <s_epik_input>
W2NIXTFbY0hdW2NIXVtjSF1jKGMxMiluKFtDSDJdW0NIM10pYyg9TyluMltDSDJdW0NASF0oW09IXSlbQ0gyXU9jM1tjSF1bY0hdYyhDI04pW2NIXVtjSF0z

> <s_epik_cmdline>
J2VwaWtfcHl0aG9uJywgJy1waCcsICc3LjAnLCAnLXRuJywgJzgnLCAnLW1hJywgJzIwMCcsICctbWV0YWxfYmluZGluZycsICctaW1hZScsICc8aW5maWxlLm1hZT4nLCAnLW9tYWUnLCAnPG91dGZpbGUubWFlPic=

> <r_lp_tautomer_probability>
1

> <r_epik_Ionization_Penalty>
2.40146e-06

> <r_epik_Ionization_Penalty_Charging>
2.16099e-09

> <r_epik_Ionization_Penalty_Neutral>
2.3993e-06

> <r_epik_State_Penalty>
-0

> <r_epik_Charging_Adjusted_Penalty>
2.16099e-09

> <i_epik_Tot_Q>
0

> <i_epik_Tot_abs_Q>
0

> <r_epik_Metal_State_Penalty>
-0

> <b_epik_Metal_Only>
0

> <s_lp_Force_Field>
OPLS_2005

> <r_lp_Energy>
47.9836

> <b_lp_Chiralities_Consistent>
1

> <s_lp_Variant>
AV-unprocessed.smi:341-2

> <Gold.Version>
5.8.1

> <Gold.Id.Protein>
6NUR|6NUR_protein|mol2

> <Gold.PLP.Fitness>
53.4976

> <Gold.PLP.PLP>
-46.3738

> <Gold.PLP.part.hbond>
-2.8797

> <Gold.PLP.part.metal>
0.0000

> <Gold.PLP.part.buried>
0.4518

> <Gold.PLP.part.nonpolar>
-44.1049

> <Gold.PLP.part.repulsive>
0.2406

> <Gold.PLP.ligand.clash>
0.0000

> <Gold.PLP.ligand.torsion>
0.9837

> <Gold.PLP.Chemscore.Hbond>
3.0000

> <Gold.PLP.Chemscore.CHOScore>
0.0000

> <Gold.PLP.Chemscore.Metal>
0.0000

> <Gold.Chemscore.Hbonds>
donor molecule, donor type, donor heavy atom, donor atom, acceptor molecule, acceptor atom, score
      L1  H     9    34       P1  7949  1.00
      P1  H  7997  8010       L1     5  0.94
      P1  H 10752 10763       L1     9  0.99

> <Gold.PLP.Chemscore.Internal.Correction>
0.0911

> <Gold.Rescore>
     Score         DG    S(hbond)    S(metal)    S(lipo)     H(rot)  DE(clash)    DE(int)     intcor
     17.38     -19.77       2.55        0.00     103.53       2.48       0.57       1.82       ----

> <Gold.Chemscore.Fitness>
17.3806

> <Gold.Chemscore.DG>
-19.7716

> <Gold.Chemscore.ZeroCoef>
-5.4800

> <Gold.Chemscore.Hbond>
2.5506

> <Gold.Chemscore.Metal>
0.0000

> <Gold.Chemscore.Lipo>
103.5310

> <Gold.Chemscore.Internal_Hbond>
0.0000

> <Gold.Chemscore.DEClash>
0.5697

> <Gold.Chemscore.DEInternal>
1.8212

> <Gold.Chemscore.Rot>
2.4768

> <Gold.Chemscore.Internal.Correction>
   9.000000E+99

> <Gold.Chemscore.Hbonds>
donor molecule, donor type, donor heavy atom, donor atom, acceptor molecule, acceptor atom, score
      L1  H     9    34       P1  7949  0.85
      P1  H  7997  8010       L1     5  0.91
      P1  H 10752 10763       L1     9  0.81

> <Gold.Chemscore.Hbond.Weighted>
-8.5191

> <Gold.Chemscore.Metal.Weighted>
-0.0000

> <Gold.Chemscore.Lipo.Weighted>
-12.1131

> <Gold.Chemscore.Internal_Hbond.Weighted>
0.0000

> <Gold.Chemscore.DEClash.Weighted>
0.5697

> <Gold.Chemscore.DEInternal.Weighted>
1.8212

> <Gold.Chemscore.Rot.Weighted>
6.3407

> <Gold.Chemscore.Internal.Correction.Weighted>
   9.000000E+99

> <Gold.Protein.RotatedTorsions>
[ 6907 6896 6895 6894 ] final   88.69 input  -60.11 | X-H torsion
[ 7974 7965 7964 7962 ] final   -6.67 input  175.53 | X-H torsion
[ 8008 7997 7996 7995 ] final   35.94 input   59.86 | X-H torsion
[ 10167 10162 10161 10158 ] final   -7.84 input  -65.29 | X-H torsion
[ 10718 10713 10712 10709 ] final  121.47 input   66.30 | X-H torsion
[ 10763 10752 10751 10750 ] final   22.72 input  -60.55 | X-H torsion
[ 11005 11000 10999 10996 ] final -161.74 input  -57.11 | X-H torsion

> <Gold.Protein.ActiveResidues>
 VAL166  LYS551  ARG553  GLY616  TRP617  ASP618  TYR619  PRO620  LYS621  CYS622 
 ASP623  PHE694  ASN695  SER759  ASP760  ASP761  ALA762  ILE779  LEU786  VAL792 
 PHE793  MET794  SER795  GLU796  ALA797  LYS798  CYS799  TRP800  GLU811  SER814 

> <Gold.Protein.RotatedAtoms>
  152.5428  134.2082  159.8738 H   0  0  0  0  0  0  0  0  0  0  0  0  # atno 6907 bound_to 6896
  151.2066  133.4573  159.2605 H   0  0  0  0  0  0  0  0  0  0  0  0  # atno 6908 bound_to 6896
  151.0937  134.9944  159.8471 H   0  0  0  0  0  0  0  0  0  0  0  0  # atno 6909 bound_to 6896
  146.2325  140.2205  142.8337 H   0  0  0  0  0  0  0  0  0  0  0  0  # atno 7974 bound_to 7965
  155.1793  140.3298  155.4378 H   0  0  0  0  0  0  0  0  0  0  0  0  # atno 8008 bound_to 7997
  156.2482  140.1929  156.6843 H   0  0  0  0  0  0  0  0  0  0  0  0  # atno 8009 bound_to 7997
  154.6282  140.0586  156.9686 H   0  0  0  0  0  0  0  0  0  0  0  0  # atno 8010 bound_to 7997
  140.7041  143.6036  150.8773 H   0  0  0  0  0  0  0  0  0  0  0  0  # atno 10167 bound_to 10162
  157.5815  131.1074  150.8177 H   0  0  0  0  0  0  0  0  0  0  0  0  # atno 10718 bound_to 10713
  153.0894  135.6642  153.9885 H   0  0  0  0  0  0  0  0  0  0  0  0  # atno 10763 bound_to 10752
  153.9486  135.2986  155.3441 H   0  0  0  0  0  0  0  0  0  0  0  0  # atno 10764 bound_to 10752
  154.7306  135.5124  153.9031 H   0  0  0  0  0  0  0  0  0  0  0  0  # atno 10765 bound_to 10752
  140.6170  134.4790  157.5220 H   0  0  0  0  0  0  0  0  0  0  0  0  # atno 11005 bound_to 11000
  144.9635  140.8299  143.5499 LP  0  0  0  0  0  0  0  0  0  0  0  0  # atno 17320 bound_to 7965
  145.2179  139.2173  143.5109 LP  0  0  0  0  0  0  0  0  0  0  0  0  # atno 17321 bound_to 7965
  139.9760  143.6004  152.2958 LP  0  0  0  0  0  0  0  0  0  0  0  0  # atno 17342 bound_to 10162
  139.6608  144.7662  151.1967 LP  0  0  0  0  0  0  0  0  0  0  0  0  # atno 17343 bound_to 10162
  156.8622  130.5117  149.5303 LP  0  0  0  0  0  0  0  0  0  0  0  0  # atno 17370 bound_to 10713
  156.0861  130.5859  150.9651 LP  0  0  0  0  0  0  0  0  0  0  0  0  # atno 17371 bound_to 10713
  139.9169  134.8228  156.1338 LP  0  0  0  0  0  0  0  0  0  0  0  0  # atno 17394 bound_to 11000
  141.0769  133.6771  156.2254 LP  0  0  0  0  0  0  0  0  0  0  0  0  # atno 17395 bound_to 11000

$$$$
