AV-unprocessed.smi:987|AV-procd|sdf|4322|dock2
  -GOLD-   22720 2223D 1   1.00000     0.00000
 Structure written by MMmdl.
 50 52  0  0  0  0  0  0  0  0  1 V2000
  151.5986  145.0584  158.6657 C   0  0  0  0  0  0  0  0  0  0  0  0
  152.0805  143.6564  158.2779 C   0  0  2  0  0  0  0  0  0  0  0  0
  150.9786  142.8400  157.5775 C   0  0  0  0  0  0  0  0  0  0  0  0
  151.4365  141.4755  157.3245 N   0  0  0  0  0  0  0  0  0  0  0  0
  150.6658  140.6669  156.4612 C   0  0  0  0  0  0  0  0  0  0  0  0
  149.4669  140.0743  156.9224 C   0  0  0  0  0  0  0  0  0  0  0  0
  148.7157  139.2714  156.0435 C   0  0  0  0  0  0  0  0  0  0  0  0
  149.1698  139.0819  154.7241 C   0  0  0  0  0  0  0  0  0  0  0  0
  148.4022  138.2493  153.8656 N   0  0  0  0  0  0  0  0  0  0  0  0
  147.0651  138.1586  153.7640 C   0  0  0  0  0  0  0  0  0  0  0  0
  146.2557  138.7687  154.4622 O   0  0  0  0  0  0  0  0  0  0  0  0
  146.7124  137.2941  152.8022 N   0  0  0  0  0  0  0  0  0  0  0  0
  145.3445  136.9595  152.4135 C   0  0  0  0  0  0  0  0  0  0  0  0
  145.3097  135.9529  151.2548 C   0  0  0  0  0  0  0  0  0  0  0  0
  145.6624  136.7016  150.1075 O   0  0  0  0  0  0  0  0  0  0  0  0
  146.1351  134.6637  151.4168 C   0  0  0  0  0  0  0  0  0  0  0  0
  145.0016  133.8798  150.7530 C   0  0  0  0  0  0  0  0  0  0  0  0
  144.0731  135.0503  151.0801 C   0  0  0  0  0  0  0  0  0  0  0  0
  150.3879  139.7004  154.3557 C   0  0  0  0  0  0  0  0  0  0  0  0
  151.1122  140.4685  155.1966 N   0  0  0  0  0  0  0  0  0  0  0  0
  151.9586  140.8130  158.5167 C   0  0  0  0  0  0  0  0  0  0  0  0
  153.0308  141.6888  159.1925 C   0  0  2  0  0  0  0  0  0  0  0  0
  153.5182  141.0849  160.5136 C   0  0  0  0  0  0  0  0  0  0  0  0
  152.4837  142.9765  159.4636 O   0  0  0  0  0  0  0  0  0  0  0  0
  151.2851  145.6221  157.7868 H   0  0  0  0  0  0  0  0  0  0  0  0
  152.3924  145.6223  159.1560 H   0  0  0  0  0  0  0  0  0  0  0  0
  150.7522  145.0091  159.3513 H   0  0  0  0  0  0  0  0  0  0  0  0
  152.9408  143.7575  157.6137 H   0  0  0  0  0  0  0  0  0  0  0  0
  150.0809  142.8086  158.1967 H   0  0  0  0  0  0  0  0  0  0  0  0
  150.7108  143.3262  156.6384 H   0  0  0  0  0  0  0  0  0  0  0  0
  149.1251  140.2111  157.9374 H   0  0  0  0  0  0  0  0  0  0  0  0
  147.8010  138.8076  156.3830 H   0  0  0  0  0  0  0  0  0  0  0  0
  148.9348  137.6190  153.2841 H   0  0  0  0  0  0  0  0  0  0  0  0
  147.4484  136.8393  152.2822 H   0  0  0  0  0  0  0  0  0  0  0  0
  144.8244  136.5680  153.2890 H   0  0  0  0  0  0  0  0  0  0  0  0
  144.8037  137.8680  152.1437 H   0  0  0  0  0  0  0  0  0  0  0  0
  145.0519  137.4207  150.0496 H   0  0  0  0  0  0  0  0  0  0  0  0
  147.0752  134.6462  150.8640 H   0  0  0  0  0  0  0  0  0  0  0  0
  146.2843  134.3789  152.4595 H   0  0  0  0  0  0  0  0  0  0  0  0
  145.1517  133.7468  149.6806 H   0  0  0  0  0  0  0  0  0  0  0  0
  144.7446  132.9427  151.2473 H   0  0  0  0  0  0  0  0  0  0  0  0
  143.5229  134.8929  152.0087 H   0  0  0  0  0  0  0  0  0  0  0  0
  143.4059  135.3364  150.2664 H   0  0  0  0  0  0  0  0  0  0  0  0
  150.8231  139.5726  153.3772 H   0  0  0  0  0  0  0  0  0  0  0  0
  151.1321  140.6328  159.2054 H   0  0  0  0  0  0  0  0  0  0  0  0
  152.3903  139.8415  158.2807 H   0  0  0  0  0  0  0  0  0  0  0  0
  153.8881  141.7978  158.5258 H   0  0  0  0  0  0  0  0  0  0  0  0
  153.9580  140.0999  160.3555 H   0  0  0  0  0  0  0  0  0  0  0  0
  152.6986  140.9759  161.2244 H   0  0  0  0  0  0  0  0  0  0  0  0
  154.2773  141.7176  160.9740 H   0  0  0  0  0  0  0  0  0  0  0  0
  1  2  1  0  0  0  0
  1 25  1  0  0  0  0
  1 26  1  0  0  0  0
  1 27  1  0  0  0  0
  2 24  1  0  0  0  0
  2  3  1  0  0  0  0
  2 28  1  0  0  0  0
  3  4  1  0  0  0  0
  3 29  1  0  0  0  0
  3 30  1  0  0  0  0
  4  5  1  0  0  0  0
  4 21  1  0  0  0  0
  5 20  1  0  0  0  0
  5  6  2  0  0  0  0
  6  7  1  0  0  0  0
  6 31  1  0  0  0  0
  7  8  2  0  0  0  0
  7 32  1  0  0  0  0
  8  9  1  0  0  0  0
  8 19  1  0  0  0  0
  9 10  1  0  0  0  0
  9 33  1  0  0  0  0
 10 11  2  0  0  0  0
 10 12  1  0  0  0  0
 12 13  1  0  0  0  0
 12 34  1  0  0  0  0
 13 14  1  0  0  0  0
 13 35  1  0  0  0  0
 13 36  1  0  0  0  0
 14 18  1  0  0  0  0
 14 15  1  0  0  0  0
 14 16  1  0  0  0  0
 15 37  1  0  0  0  0
 16 17  1  0  0  0  0
 16 38  1  0  0  0  0
 16 39  1  0  0  0  0
 17 18  1  0  0  0  0
 17 40  1  0  0  0  0
 17 41  1  0  0  0  0
 18 42  1  0  0  0  0
 18 43  1  0  0  0  0
 19 20  2  0  0  0  0
 19 44  1  0  0  0  0
 21 22  1  0  0  0  0
 21 45  1  0  0  0  0
 21 46  1  0  0  0  0
 22 23  1  0  0  0  0
 22 24  1  0  0  0  0
 22 47  1  0  0  0  0
 23 48  1  0  0  0  0
 23 49  1  0  0  0  0
 23 50  1  0  0  0  0
M  END
> <s_m_source_file>
AV-unprocessed.smi

> <i_m_source_file_index>
987

> <i_lp_mmshare_version>
43012

> <i_f3d_flags>
0

> <s_epik_input>
W0NIM11bQ0BASF0xW0NIMl1OKFtDSDJdW0NASF0oTzEpW0NIM10pYzJbY0hdW2NIXWMoW2NIXW4yKVtOSF1DKD1PKVtOSF1bQ0gyXUMzKFtPSF0pW0NIMl1bQ0gyXVtDSDJdMw==

> <s_epik_cmdline>
J2VwaWtfcHl0aG9uJywgJy1waCcsICc3LjAnLCAnLXRuJywgJzgnLCAnLW1hJywgJzIwMCcsICctbWV0YWxfYmluZGluZycsICctaW1hZScsICc8aW5maWxlLm1hZT4nLCAnLW9tYWUnLCAnPG91dGZpbGUubWFlPic=

> <r_lp_tautomer_probability>
1

> <r_epik_Ionization_Penalty>
0.00275455

> <r_epik_Ionization_Penalty_Charging>
0

> <r_epik_Ionization_Penalty_Neutral>
0.00275455

> <r_epik_State_Penalty>
0.00189097

> <r_epik_Charging_Adjusted_Penalty>
0.00189097

> <i_epik_Tot_Q>
0

> <i_epik_Tot_abs_Q>
0

> <r_epik_Metal_State_Penalty>
-0

> <b_epik_Metal_Only>
0

> <s_lp_Force_Field>
OPLS_2005

> <r_lp_Energy>
27.7236

> <b_lp_Chiralities_Consistent>
1

> <s_lp_Variant>
AV-unprocessed.smi:987-2

> <Gold.Version>
5.8.1

> <Gold.Id.Protein>
6NUR|6NUR_protein|mol2

> <Gold.PLP.Fitness>
54.1043

> <Gold.PLP.PLP>
-43.3548

> <Gold.PLP.part.hbond>
-4.6483

> <Gold.PLP.part.metal>
0.0000

> <Gold.PLP.part.buried>
-5.2050

> <Gold.PLP.part.nonpolar>
-34.1883

> <Gold.PLP.part.repulsive>
0.2078

> <Gold.PLP.ligand.clash>
0.0000

> <Gold.PLP.ligand.torsion>
0.7273

> <Gold.PLP.Chemscore.Hbond>
2.9920

> <Gold.PLP.Chemscore.CHOScore>
0.9342

> <Gold.PLP.Chemscore.Metal>
0.0000

> <Gold.Chemscore.Hbonds>
donor molecule, donor type, donor heavy atom, donor atom, acceptor molecule, acceptor atom, score
      L1  H     9    33       P1  7948  0.99
      L1  H    12    34       P1  7948  1.00
      L1  H    15    37       P1 10171  1.00
      L1  C    19    44       P1  7957  0.86

> <Gold.PLP.Chemscore.Internal.Correction>
0.4254

> <Gold.Rescore>
     Score         DG    S(hbond)    S(metal)    S(lipo)     H(rot)  DE(clash)    DE(int)     intcor
     20.70     -22.66       2.96        0.00     104.63       1.93       0.19       1.77       ----

> <Gold.Chemscore.Fitness>
20.6970

> <Gold.Chemscore.DG>
-22.6580

> <Gold.Chemscore.ZeroCoef>
-5.4800

> <Gold.Chemscore.Hbond>
2.9603

> <Gold.Chemscore.Metal>
0.0000

> <Gold.Chemscore.Lipo>
104.6292

> <Gold.Chemscore.Internal_Hbond>
0.0000

> <Gold.Chemscore.DEClash>
0.1917

> <Gold.Chemscore.DEInternal>
1.7693

> <Gold.Chemscore.Rot>
1.9340

> <Gold.Chemscore.Internal.Correction>
   9.000000E+99

> <Gold.Chemscore.Hbonds>
donor molecule, donor type, donor heavy atom, donor atom, acceptor molecule, acceptor atom, score
      L1  H     9    33       P1  7948  0.93
      L1  H    12    34       P1  7948  1.00
      L1  H    15    37       P1 10171  1.00

> <Gold.Chemscore.Hbond.Weighted>
-9.8873

> <Gold.Chemscore.Metal.Weighted>
-0.0000

> <Gold.Chemscore.Lipo.Weighted>
-12.2416

> <Gold.Chemscore.Internal_Hbond.Weighted>
0.0000

> <Gold.Chemscore.DEClash.Weighted>
0.1917

> <Gold.Chemscore.DEInternal.Weighted>
1.7693

> <Gold.Chemscore.Rot.Weighted>
4.9509

> <Gold.Chemscore.Internal.Correction.Weighted>
   9.000000E+99

> <Gold.Protein.RotatedTorsions>
[ 6907 6896 6895 6894 ] final -152.45 input  -60.11 | X-H torsion
[ 7974 7965 7964 7962 ] final   94.10 input  175.53 | X-H torsion
[ 8008 7997 7996 7995 ] final -158.25 input   59.86 | X-H torsion
[ 10167 10162 10161 10158 ] final  114.11 input  -65.29 | X-H torsion
[ 10718 10713 10712 10709 ] final   75.01 input   66.30 | X-H torsion
[ 10763 10752 10751 10750 ] final  146.27 input  -60.55 | X-H torsion
[ 11005 11000 10999 10996 ] final -115.46 input  -57.11 | X-H torsion

> <Gold.Protein.ActiveResidues>
 VAL166  LYS551  ARG553  GLY616  TRP617  ASP618  TYR619  PRO620  LYS621  CYS622 
 ASP623  PHE694  ASN695  SER759  ASP760  ASP761  ALA762  ILE779  LEU786  VAL792 
 PHE793  MET794  SER795  GLU796  ALA797  LYS798  CYS799  TRP800  GLU811  SER814 

> <Gold.Protein.RotatedAtoms>
  151.2279  133.4466  159.2602 H   0  0  0  0  0  0  0  0  0  0  0  0  # atno 6907 bound_to 6896
  151.0822  134.9865  159.8372 H   0  0  0  0  0  0  0  0  0  0  0  0  # atno 6908 bound_to 6896
  152.5425  134.2218  159.8843 H   0  0  0  0  0  0  0  0  0  0  0  0  # atno 6909 bound_to 6896
  145.4701  139.2282  143.2940 H   0  0  0  0  0  0  0  0  0  0  0  0  # atno 7974 bound_to 7965
  155.7448  140.0819  157.2229 H   0  0  0  0  0  0  0  0  0  0  0  0  # atno 8008 bound_to 7997
  154.4018  140.1571  156.2712 H   0  0  0  0  0  0  0  0  0  0  0  0  # atno 8009 bound_to 7997
  155.8987  140.3411  155.6012 H   0  0  0  0  0  0  0  0  0  0  0  0  # atno 8010 bound_to 7997
  139.6412  144.7124  151.2232 H   0  0  0  0  0  0  0  0  0  0  0  0  # atno 10167 bound_to 10162
  157.6616  130.9706  150.1292 H   0  0  0  0  0  0  0  0  0  0  0  0  # atno 10718 bound_to 10713
  154.0192  135.2907  155.3383 H   0  0  0  0  0  0  0  0  0  0  0  0  # atno 10763 bound_to 10752
  154.7056  135.5170  153.8594 H   0  0  0  0  0  0  0  0  0  0  0  0  # atno 10764 bound_to 10752
  153.0689  135.6640  154.0415 H   0  0  0  0  0  0  0  0  0  0  0  0  # atno 10765 bound_to 10752
  141.0486  133.9723  157.2875 H   0  0  0  0  0  0  0  0  0  0  0  0  # atno 11005 bound_to 11000
  146.2402  140.5478  142.8937 LP  0  0  0  0  0  0  0  0  0  0  0  0  # atno 17320 bound_to 7965
  144.7950  140.6106  143.6516 LP  0  0  0  0  0  0  0  0  0  0  0  0  # atno 17321 bound_to 7965
  140.7492  143.6308  150.8425 LP  0  0  0  0  0  0  0  0  0  0  0  0  # atno 17342 bound_to 10162
  139.9945  143.5810  152.2898 LP  0  0  0  0  0  0  0  0  0  0  0  0  # atno 17343 bound_to 10162
  156.2143  130.3669  149.8632 LP  0  0  0  0  0  0  0  0  0  0  0  0  # atno 17370 bound_to 10713
  156.6502  130.8740  151.3530 LP  0  0  0  0  0  0  0  0  0  0  0  0  # atno 17371 bound_to 10713
  139.9332  135.0198  156.8468 LP  0  0  0  0  0  0  0  0  0  0  0  0  # atno 17394 bound_to 11000
  140.6099  134.0092  155.7572 LP  0  0  0  0  0  0  0  0  0  0  0  0  # atno 17395 bound_to 11000

$$$$
