AV-unprocessed.smi:704|AV-procd|sdf|3444|dock1
  -GOLD-   22720 0433D 1   1.00000     0.00000
 Structure written by MMmdl.
 38 39  0  0  0  0  0  0  0  0  1 V2000
  147.5381  141.7806  153.8504 C   0  0  0  0  0  0  0  0  0  0  0  0
  148.6186  141.6247  154.7639 O   0  0  0  0  0  0  0  0  0  0  0  0
  149.4521  140.5320  154.6196 C   0  0  0  0  0  0  0  0  0  0  0  0
  149.1151  139.5782  153.7152 N   0  0  0  0  0  0  0  0  0  0  0  0
  149.9266  138.5099  153.5754 C   0  0  0  0  0  0  0  0  0  0  0  0
  151.1033  138.3325  154.3261 C   0  0  0  0  0  0  0  0  0  0  0  0
  151.4547  139.3201  155.2645 C   0  0  0  0  0  0  0  0  0  0  0  0
  150.6207  140.4545  155.4126 C   0  0  0  0  0  0  0  0  0  0  0  0
  150.8718  141.4964  156.3467 N   0  0  0  0  0  0  0  0  0  0  0  0
  151.6847  141.4798  157.4160 C   0  0  0  0  0  0  0  0  0  0  0  0
  152.3960  140.5343  157.7557 O   0  0  0  0  0  0  0  0  0  0  0  0
  151.6528  142.6516  158.0659 N   0  0  0  0  0  0  0  0  0  0  0  0
  152.4475  142.9756  159.2519 C   0  0  2  0  0  0  0  0  0  0  0  0
  152.4151  141.8258  160.2765 C   0  0  0  0  0  0  0  0  0  0  0  0
  152.2847  142.4691  161.6634 C   0  0  0  0  0  0  0  0  0  0  0  0
  152.4598  143.9749  161.4478 C   0  0  0  0  0  0  0  0  0  0  0  0
  151.9931  144.2508  160.0107 C   0  0  2  0  0  0  0  0  0  0  0  0
  150.4754  144.5339  159.9658 C   0  0  0  0  0  0  0  0  0  0  0  0
  149.9764  144.9707  158.8067 N   0  0  0  0  0  0  0  0  0  0  0  0
  149.7637  144.3551  160.9530 O   0  0  0  0  0  0  0  0  0  0  0  0
  146.9899  142.6905  154.0932 H   0  0  0  0  0  0  0  0  0  0  0  0
  146.8390  140.9457  153.9146 H   0  0  0  0  0  0  0  0  0  0  0  0
  147.8933  141.8732  152.8230 H   0  0  0  0  0  0  0  0  0  0  0  0
  149.6254  137.7709  152.8478 H   0  0  0  0  0  0  0  0  0  0  0  0
  151.7190  137.4560  154.1892 H   0  0  0  0  0  0  0  0  0  0  0  0
  152.3436  139.1816  155.8603 H   0  0  0  0  0  0  0  0  0  0  0  0
  150.4299  142.3797  156.1368 H   0  0  0  0  0  0  0  0  0  0  0  0
  151.0490  143.3784  157.7105 H   0  0  0  0  0  0  0  0  0  0  0  0
  153.4866  143.1168  158.9476 H   0  0  0  0  0  0  0  0  0  0  0  0
  151.5726  141.1540  160.1044 H   0  0  0  0  0  0  0  0  0  0  0  0
  153.3226  141.2253  160.2041 H   0  0  0  0  0  0  0  0  0  0  0  0
  151.2939  142.2657  162.0713 H   0  0  0  0  0  0  0  0  0  0  0  0
  153.0132  142.0737  162.3718 H   0  0  0  0  0  0  0  0  0  0  0  0
  151.9233  144.5594  162.1967 H   0  0  0  0  0  0  0  0  0  0  0  0
  153.5155  144.2348  161.5371 H   0  0  0  0  0  0  0  0  0  0  0  0
  152.5151  145.1225  159.6120 H   0  0  0  0  0  0  0  0  0  0  0  0
  148.9907  145.1751  158.7269 H   0  0  0  0  0  0  0  0  0  0  0  0
  150.5890  145.0998  158.0145 H   0  0  0  0  0  0  0  0  0  0  0  0
  1  2  1  0  0  0  0
  1 21  1  0  0  0  0
  1 22  1  0  0  0  0
  1 23  1  0  0  0  0
  2  3  1  0  0  0  0
  3  8  1  0  0  0  0
  3  4  2  0  0  0  0
  4  5  1  0  0  0  0
  5  6  2  0  0  0  0
  5 24  1  0  0  0  0
  6  7  1  0  0  0  0
  6 25  1  0  0  0  0
  7  8  2  0  0  0  0
  7 26  1  0  0  0  0
  8  9  1  0  0  0  0
  9 10  1  0  0  0  0
  9 27  1  0  0  0  0
 10 11  2  0  0  0  0
 10 12  1  0  0  0  0
 12 13  1  0  0  0  0
 12 28  1  0  0  0  0
 13 17  1  0  0  0  0
 13 14  1  0  0  0  0
 13 29  1  0  0  0  0
 14 15  1  0  0  0  0
 14 30  1  0  0  0  0
 14 31  1  0  0  0  0
 15 16  1  0  0  0  0
 15 32  1  0  0  0  0
 15 33  1  0  0  0  0
 16 17  1  0  0  0  0
 16 34  1  0  0  0  0
 16 35  1  0  0  0  0
 17 18  1  0  0  0  0
 17 36  1  0  0  0  0
 18 19  1  0  0  0  0
 18 20  2  0  0  0  0
 19 37  1  0  0  0  0
 19 38  1  0  0  0  0
M  END
> <s_m_source_file>
AV-unprocessed.smi

> <i_m_source_file_index>
704

> <i_lp_mmshare_version>
43012

> <i_f3d_flags>
0

> <s_epik_input>
W0NIM11PYzFuW2NIXVtjSF1bY0hdYzFbTkhdQyg9TylbTkhdW0NAQEhdMltDSDJdW0NIMl1bQ0gyXVtDQEhdMkMoPU8pW05IMl0=

> <s_epik_cmdline>
J2VwaWtfcHl0aG9uJywgJy1waCcsICc3LjAnLCAnLXRuJywgJzgnLCAnLW1hJywgJzIwMCcsICctbWV0YWxfYmluZGluZycsICctaW1hZScsICc8aW5maWxlLm1hZT4nLCAnLW9tYWUnLCAnPG91dGZpbGUubWFlPic=

> <r_lp_tautomer_probability>
1

> <r_epik_Ionization_Penalty>
9.09123e-05

> <r_epik_Ionization_Penalty_Charging>
0

> <r_epik_Ionization_Penalty_Neutral>
9.09123e-05

> <r_epik_State_Penalty>
-0

> <r_epik_Charging_Adjusted_Penalty>
0

> <i_epik_Tot_Q>
0

> <i_epik_Tot_abs_Q>
0

> <r_epik_Metal_State_Penalty>
-0

> <b_epik_Metal_Only>
0

> <s_lp_Force_Field>
OPLS_2005

> <r_lp_Energy>
16.4905

> <b_lp_Chiralities_Consistent>
1

> <s_lp_Variant>
AV-unprocessed.smi:704-3

> <Gold.Version>
5.8.1

> <Gold.Id.Protein>
6NUR|6NUR_protein|mol2

> <Gold.PLP.Fitness>
47.6683

> <Gold.PLP.PLP>
-42.2065

> <Gold.PLP.part.hbond>
-3.0000

> <Gold.PLP.part.metal>
0.0000

> <Gold.PLP.part.buried>
-5.8204

> <Gold.PLP.part.nonpolar>
-33.8176

> <Gold.PLP.part.repulsive>
1.4139

> <Gold.PLP.ligand.clash>
0.0000

> <Gold.PLP.ligand.torsion>
0.5322

> <Gold.PLP.Chemscore.Hbond>
1.1313

> <Gold.PLP.Chemscore.CHOScore>
1.0358

> <Gold.PLP.Chemscore.Metal>
0.0000

> <Gold.Chemscore.Hbonds>
donor molecule, donor type, donor heavy atom, donor atom, acceptor molecule, acceptor atom, score
      L1  H    19    37       P1  8029  0.64
      P1  H  6933  6944       L1    20  0.05
      P1  H  7997  8010       L1    11  0.24
      L1  C     5    24       P1  7948  0.68
      L1  C     5    24       P1  7957  0.02

> <Gold.PLP.Chemscore.Internal.Correction>
0.0251

> <Gold.Rescore>
     Score         DG    S(hbond)    S(metal)    S(lipo)     H(rot)  DE(clash)    DE(int)     intcor
     11.99     -15.63       1.05        0.00      97.70       1.86       0.57       3.08       ----

> <Gold.Chemscore.Fitness>
11.9878

> <Gold.Chemscore.DG>
-15.6316

> <Gold.Chemscore.ZeroCoef>
-5.4800

> <Gold.Chemscore.Hbond>
1.0464

> <Gold.Chemscore.Metal>
0.0000

> <Gold.Chemscore.Lipo>
97.6976

> <Gold.Chemscore.Internal_Hbond>
0.0000

> <Gold.Chemscore.DEClash>
0.5670

> <Gold.Chemscore.DEInternal>
3.0769

> <Gold.Chemscore.Rot>
1.8648

> <Gold.Chemscore.Internal.Correction>
   9.000000E+99

> <Gold.Chemscore.Hbonds>
donor molecule, donor type, donor heavy atom, donor atom, acceptor molecule, acceptor atom, score
      L1  H    19    37       P1  8029  0.62
      P1  H  6933  6944       L1    20  0.05
      P1  H  7997  8010       L1    11  0.24

> <Gold.Chemscore.Hbond.Weighted>
-3.4949

> <Gold.Chemscore.Metal.Weighted>
-0.0000

> <Gold.Chemscore.Lipo.Weighted>
-11.4306

> <Gold.Chemscore.Internal_Hbond.Weighted>
0.0000

> <Gold.Chemscore.DEClash.Weighted>
0.5670

> <Gold.Chemscore.DEInternal.Weighted>
3.0769

> <Gold.Chemscore.Rot.Weighted>
4.7739

> <Gold.Chemscore.Internal.Correction.Weighted>
   9.000000E+99

> <Gold.Protein.RotatedTorsions>
[ 6907 6896 6895 6894 ] final -116.69 input  -60.11 | X-H torsion
[ 7974 7965 7964 7962 ] final -151.92 input  175.53 | X-H torsion
[ 8008 7997 7996 7995 ] final   42.40 input   59.86 | X-H torsion
[ 10167 10162 10161 10158 ] final  154.92 input  -65.29 | X-H torsion
[ 10718 10713 10712 10709 ] final -139.92 input   66.30 | X-H torsion
[ 10763 10752 10751 10750 ] final  -25.83 input  -60.55 | X-H torsion
[ 11005 11000 10999 10996 ] final   62.77 input  -57.11 | X-H torsion

> <Gold.Protein.ActiveResidues>
 VAL166  LYS551  ARG553  GLY616  TRP617  ASP618  TYR619  PRO620  LYS621  CYS622 
 ASP623  PHE694  ASN695  SER759  ASP760  ASP761  ALA762  ILE779  LEU786  VAL792 
 PHE793  MET794  SER795  GLU796  ALA797  LYS798  CYS799  TRP800  GLU811  SER814 

> <Gold.Protein.RotatedAtoms>
  150.8076  133.8481  159.3197 H   0  0  0  0  0  0  0  0  0  0  0  0  # atno 6907 bound_to 6896
  151.6276  135.1024  160.0124 H   0  0  0  0  0  0  0  0  0  0  0  0  # atno 6908 bound_to 6896
  152.4167  133.7010  159.6480 H   0  0  0  0  0  0  0  0  0  0  0  0  # atno 6909 bound_to 6896
  144.7823  140.4732  143.5831 H   0  0  0  0  0  0  0  0  0  0  0  0  # atno 7974 bound_to 7965
  155.2856  140.3375  155.4255 H   0  0  0  0  0  0  0  0  0  0  0  0  # atno 8008 bound_to 7997
  156.2070  140.1755  156.7819 H   0  0  0  0  0  0  0  0  0  0  0  0  # atno 8009 bound_to 7997
  154.5634  140.0683  156.8838 H   0  0  0  0  0  0  0  0  0  0  0  0  # atno 8010 bound_to 7997
  139.4822  144.5144  151.7974 H   0  0  0  0  0  0  0  0  0  0  0  0  # atno 10167 bound_to 10162
  156.3164  130.7510  151.1597 H   0  0  0  0  0  0  0  0  0  0  0  0  # atno 10718 bound_to 10713
  153.7061  135.6953  153.5050 H   0  0  0  0  0  0  0  0  0  0  0  0  # atno 10763 bound_to 10752
  153.2307  135.4338  155.0590 H   0  0  0  0  0  0  0  0  0  0  0  0  # atno 10764 bound_to 10752
  154.8329  135.3483  154.6599 H   0  0  0  0  0  0  0  0  0  0  0  0  # atno 10765 bound_to 10752
  140.0069  134.6355  155.9841 H   0  0  0  0  0  0  0  0  0  0  0  0  # atno 11005 bound_to 11000
  145.6017  139.1504  143.3125 LP  0  0  0  0  0  0  0  0  0  0  0  0  # atno 17320 bound_to 7965
  146.2037  140.6138  142.9091 LP  0  0  0  0  0  0  0  0  0  0  0  0  # atno 17321 bound_to 7965
  140.4651  144.1667  150.5911 LP  0  0  0  0  0  0  0  0  0  0  0  0  # atno 17342 bound_to 10162
  140.4443  143.2513  151.9432 LP  0  0  0  0  0  0  0  0  0  0  0  0  # atno 17343 bound_to 10162
  157.7402  131.0519  150.5180 LP  0  0  0  0  0  0  0  0  0  0  0  0  # atno 17370 bound_to 10713
  156.5326  130.4188  149.6194 LP  0  0  0  0  0  0  0  0  0  0  0  0  # atno 17371 bound_to 10713
  141.1683  133.6537  156.4560 LP  0  0  0  0  0  0  0  0  0  0  0  0  # atno 17394 bound_to 11000
  140.4624  134.6829  157.5091 LP  0  0  0  0  0  0  0  0  0  0  0  0  # atno 17395 bound_to 11000

$$$$
