AV-unprocessed.smi:249|AV-procd|sdf|1902|dock2
  -GOLD-   2262020573D 1   1.00000     0.00000
 Structure written by MMmdl.
 64 67  0  0  0  0  0  0  0  0  2 V2000
  146.7628  145.3409  160.7355 C   0  0  0  0  0  0  0  0  0  0  0  0
  148.2587  144.9861  160.7510 C   0  0  0  0  0  0  0  0  0  0  0  0
  148.6988  144.2099  159.5549 N   0  3  2  0  0  0  0  0  0  0  0  0
  147.8223  143.0282  159.3104 C   0  0  0  0  0  0  0  0  0  0  0  0
  148.1848  142.2955  158.0121 C   0  0  0  0  0  0  0  0  0  0  0  0
  149.6531  141.8419  158.0389 C   0  0  1  0  0  0  0  0  0  0  0  0
  150.0441  141.0550  156.8616 N   0  0  0  0  0  0  0  0  0  0  0  0
  150.1153  141.7570  155.5850 C   0  0  0  0  0  0  0  0  0  0  0  0
  151.0178  140.1273  157.0242 C   0  0  0  0  0  0  0  0  0  0  0  0
  151.1956  139.1608  156.0852 N   0  0  0  0  0  0  0  0  0  0  0  0
  152.1562  138.2445  156.2418 C   0  0  0  0  0  0  0  0  0  0  0  0
  153.0297  138.1135  157.2427 N   0  0  0  0  0  0  0  0  0  0  0  0
  152.8452  139.0770  158.1901 C   0  0  0  0  0  0  0  0  0  0  0  0
  151.8708  140.1129  158.1599 C   0  0  0  0  0  0  0  0  0  0  0  0
  151.9808  140.9044  159.2964 N   0  0  0  0  0  0  0  0  0  0  0  0
  152.9650  140.3647  159.9637 C   0  0  0  0  0  0  0  0  0  0  0  0
  153.5441  139.2667  159.3679 N   0  0  0  0  0  0  0  0  0  0  0  0
  154.6478  138.4750  159.8812 C   0  0  0  0  0  0  0  0  0  0  0  0
  154.1919  137.3296  160.8185 C   0  0  1  0  0  0  0  0  0  0  0  0
  155.0162  136.0347  160.6197 C   0  0  0  0  0  0  0  0  0  0  0  0
  154.7794  135.4611  159.3504 O   0  0  0  0  0  0  0  0  0  0  0  0
  154.1551  137.7897  162.2977 C   0  0  2  0  0  0  0  0  0  0  0  0
  155.4643  138.3450  162.8311 C   0  0  0  0  0  0  0  0  0  0  0  0
  155.2604  138.2513  164.3387 C   0  0  0  0  0  0  0  0  0  0  0  0
  154.4650  137.0899  164.5432 O   0  0  0  0  0  0  0  0  0  0  0  0
  153.8976  136.6650  163.3075 C   0  0  0  0  0  0  0  0  0  0  0  0
  150.5379  143.0768  158.2848 C   0  0  0  0  0  0  0  0  0  0  0  0
  150.1475  143.8208  159.5805 C   0  0  1  0  0  0  0  0  0  0  0  0
  151.1006  145.0208  159.7621 C   0  0  0  0  0  0  0  0  0  0  0  0
  146.5294  146.0341  161.5441 H   0  0  0  0  0  0  0  0  0  0  0  0
  146.1247  144.4695  160.8775 H   0  0  0  0  0  0  0  0  0  0  0  0
  146.4806  145.8230  159.7990 H   0  0  0  0  0  0  0  0  0  0  0  0
  148.7842  145.9367  160.8015 H   0  0  0  0  0  0  0  0  0  0  0  0
  148.5126  144.4422  161.6620 H   0  0  0  0  0  0  0  0  0  0  0  0
  147.8900  142.3431  160.1571 H   0  0  0  0  0  0  0  0  0  0  0  0
  146.7792  143.3302  159.2342 H   0  0  0  0  0  0  0  0  0  0  0  0
  147.5218  141.4392  157.8871 H   0  0  0  0  0  0  0  0  0  0  0  0
  148.0026  142.9571  157.1645 H   0  0  0  0  0  0  0  0  0  0  0  0
  149.7803  141.1778  158.8953 H   0  0  0  0  0  0  0  0  0  0  0  0
  150.1995  141.0481  154.7602 H   0  0  0  0  0  0  0  0  0  0  0  0
  150.9725  142.4296  155.5464 H   0  0  0  0  0  0  0  0  0  0  0  0
  149.2129  142.3474  155.4250 H   0  0  0  0  0  0  0  0  0  0  0  0
  152.2360  137.5105  155.4534 H   0  0  0  0  0  0  0  0  0  0  0  0
  153.3020  140.7578  160.9122 H   0  0  0  0  0  0  0  0  0  0  0  0
  155.2085  138.0731  159.0363 H   0  0  0  0  0  0  0  0  0  0  0  0
  155.3235  139.1533  160.4026 H   0  0  0  0  0  0  0  0  0  0  0  0
  153.1671  137.0814  160.5383 H   0  0  0  0  0  0  0  0  0  0  0  0
  156.0828  136.2332  160.7208 H   0  0  0  0  0  0  0  0  0  0  0  0
  154.7772  135.2980  161.3869 H   0  0  0  0  0  0  0  0  0  0  0  0
  155.6026  135.1567  158.9993 H   0  0  0  0  0  0  0  0  0  0  0  0
  153.3830  138.5504  162.4252 H   0  0  0  0  0  0  0  0  0  0  0  0
  156.3005  137.7139  162.5266 H   0  0  0  0  0  0  0  0  0  0  0  0
  155.6662  139.3648  162.5025 H   0  0  0  0  0  0  0  0  0  0  0  0
  156.2012  138.1945  164.8863 H   0  0  0  0  0  0  0  0  0  0  0  0
  154.7078  139.1186  164.7012 H   0  0  0  0  0  0  0  0  0  0  0  0
  152.8359  136.4443  163.4219 H   0  0  0  0  0  0  0  0  0  0  0  0
  154.4006  135.7462  163.0027 H   0  0  0  0  0  0  0  0  0  0  0  0
  151.5810  142.7637  158.3445 H   0  0  0  0  0  0  0  0  0  0  0  0
  150.4680  143.7687  157.4441 H   0  0  0  0  0  0  0  0  0  0  0  0
  150.2974  143.1418  160.4217 H   0  0  0  0  0  0  0  0  0  0  0  0
  152.1380  144.7181  159.6157 H   0  0  0  0  0  0  0  0  0  0  0  0
  151.0526  145.4435  160.7650 H   0  0  0  0  0  0  0  0  0  0  0  0
  150.8872  145.8130  159.0437 H   0  0  0  0  0  0  0  0  0  0  0  0
  148.5861  144.8235  158.7605 H   0  0  0  0  0  0  0  0  0  0  0  0
  1  2  1  0  0  0  0
  1 30  1  0  0  0  0
  1 31  1  0  0  0  0
  1 32  1  0  0  0  0
  2  3  1  0  0  0  0
  2 33  1  0  0  0  0
  2 34  1  0  0  0  0
  3 28  1  0  0  0  0
  3  4  1  0  0  0  0
  3 64  1  0  0  0  0
  4  5  1  0  0  0  0
  4 35  1  0  0  0  0
  4 36  1  0  0  0  0
  5  6  1  0  0  0  0
  5 37  1  0  0  0  0
  5 38  1  0  0  0  0
  6  7  1  0  0  0  0
  6 27  1  0  0  0  0
  6 39  1  0  0  0  0
  7  8  1  0  0  0  0
  7  9  1  0  0  0  0
  8 40  1  0  0  0  0
  8 41  1  0  0  0  0
  8 42  1  0  0  0  0
  9 14  1  0  0  0  0
  9 10  2  0  0  0  0
 10 11  1  0  0  0  0
 11 12  2  0  0  0  0
 11 43  1  0  0  0  0
 12 13  1  0  0  0  0
 13 17  1  0  0  0  0
 13 14  2  0  0  0  0
 14 15  1  0  0  0  0
 15 16  2  0  0  0  0
 16 17  1  0  0  0  0
 16 44  1  0  0  0  0
 17 18  1  0  0  0  0
 18 19  1  0  0  0  0
 18 45  1  0  0  0  0
 18 46  1  0  0  0  0
 19 20  1  0  0  0  0
 19 22  1  0  0  0  0
 19 47  1  0  0  0  0
 20 21  1  0  0  0  0
 20 48  1  0  0  0  0
 20 49  1  0  0  0  0
 21 50  1  0  0  0  0
 22 26  1  0  0  0  0
 22 23  1  0  0  0  0
 22 51  1  0  0  0  0
 23 24  1  0  0  0  0
 23 52  1  0  0  0  0
 23 53  1  0  0  0  0
 24 25  1  0  0  0  0
 24 54  1  0  0  0  0
 24 55  1  0  0  0  0
 25 26  1  0  0  0  0
 26 56  1  0  0  0  0
 26 57  1  0  0  0  0
 27 28  1  0  0  0  0
 27 58  1  0  0  0  0
 27 59  1  0  0  0  0
 28 29  1  0  0  0  0
 28 60  1  0  0  0  0
 29 61  1  0  0  0  0
 29 62  1  0  0  0  0
 29 63  1  0  0  0  0
M  CHG  1   3   1
M  END
> <s_m_source_file>
AV-unprocessed.smi

> <i_m_source_file_index>
249

> <i_lp_mmshare_version>
43012

> <i_f3d_flags>
0

> <s_epik_input>
W0NIM11bQ0gyXU4xW0NIMl1bQ0gyXVtDQEhdKFtDSDJdW0NASF0xW0NIM10pTihbQ0gzXSljKG5bY0hdbjIpYyhjMjMpbltjSF1uM1tDSDJdW0NASF0oW0NIMl1bT0hdKVtDQEBIXTRbQ0gyXVtDSDJdT1tDSDJdNA==

> <s_epik_cmdline>
J2VwaWtfcHl0aG9uJywgJy1waCcsICc3LjAnLCAnLXRuJywgJzgnLCAnLW1hJywgJzIwMCcsICctbWV0YWxfYmluZGluZycsICctaW1hZScsICc8aW5maWxlLm1hZT4nLCAnLW9tYWUnLCAnPG91dGZpbGUubWFlPic=

> <r_lp_tautomer_probability>
1

> <r_epik_Ionization_Penalty>
0.00294688

> <r_epik_Ionization_Penalty_Charging>
0.00169971

> <r_epik_Ionization_Penalty_Neutral>
0.00124717

> <r_epik_State_Penalty>
-0

> <r_epik_Charging_Adjusted_Penalty>
0.00169971

> <i_epik_Tot_Q>
1

> <i_epik_Tot_abs_Q>
1

> <r_epik_Metal_State_Penalty>
-0

> <b_epik_Metal_Only>
0

> <s_lp_Force_Field>
OPLS_2005

> <r_lp_Energy>
53.6229

> <b_lp_Chiralities_Consistent>
1

> <s_lp_Variant>
AV-unprocessed.smi:249-5

> <Gold.Version>
5.8.1

> <Gold.Id.Protein>
6NUR|6NUR_protein|mol2

> <Gold.PLP.Fitness>
50.8171

> <Gold.PLP.PLP>
-44.1558

> <Gold.PLP.part.hbond>
-2.0000

> <Gold.PLP.part.metal>
0.0000

> <Gold.PLP.part.buried>
-7.4059

> <Gold.PLP.part.nonpolar>
-35.1319

> <Gold.PLP.part.repulsive>
0.2998

> <Gold.PLP.ligand.clash>
0.0000

> <Gold.PLP.ligand.torsion>
1.6180

> <Gold.PLP.Chemscore.Hbond>
3.0000

> <Gold.PLP.Chemscore.CHOScore>
0.0000

> <Gold.PLP.Chemscore.Metal>
0.0000

> <Gold.Chemscore.Hbonds>
donor molecule, donor type, donor heavy atom, donor atom, acceptor molecule, acceptor atom, score
      L1  H     3    64       P1  8029  2.00

> <Gold.PLP.Chemscore.Internal.Correction>
0.8973

> <Gold.Rescore>
     Score         DG    S(hbond)    S(metal)    S(lipo)     H(rot)  DE(clash)    DE(int)     intcor
     10.67     -16.31       1.96        0.00     100.09       2.90       1.23       4.41       ----

> <Gold.Chemscore.Fitness>
10.6665

> <Gold.Chemscore.DG>
-16.3060

> <Gold.Chemscore.ZeroCoef>
-5.4800

> <Gold.Chemscore.Hbond>
1.9584

> <Gold.Chemscore.Metal>
0.0000

> <Gold.Chemscore.Lipo>
100.0898

> <Gold.Chemscore.Internal_Hbond>
0.0000

> <Gold.Chemscore.DEClash>
1.2265

> <Gold.Chemscore.DEInternal>
4.4130

> <Gold.Chemscore.Rot>
2.9006

> <Gold.Chemscore.Internal.Correction>
   9.000000E+99

> <Gold.Chemscore.Hbonds>
donor molecule, donor type, donor heavy atom, donor atom, acceptor molecule, acceptor atom, score
      L1  H     3    64       P1  8029  0.96

> <Gold.Chemscore.Hbond.Weighted>
-6.5412

> <Gold.Chemscore.Metal.Weighted>
-0.0000

> <Gold.Chemscore.Lipo.Weighted>
-11.7105

> <Gold.Chemscore.Internal_Hbond.Weighted>
0.0000

> <Gold.Chemscore.DEClash.Weighted>
1.2265

> <Gold.Chemscore.DEInternal.Weighted>
4.4130

> <Gold.Chemscore.Rot.Weighted>
7.4256

> <Gold.Chemscore.Internal.Correction.Weighted>
   9.000000E+99

> <Gold.Protein.RotatedTorsions>
[ 6907 6896 6895 6894 ] final  -41.99 input  -60.11 | X-H torsion
[ 7974 7965 7964 7962 ] final   64.05 input  175.53 | X-H torsion
[ 8008 7997 7996 7995 ] final   44.47 input   59.86 | X-H torsion
[ 10167 10162 10161 10158 ] final   86.48 input  -65.29 | X-H torsion
[ 10718 10713 10712 10709 ] final  126.15 input   66.30 | X-H torsion
[ 10763 10752 10751 10750 ] final  -67.95 input  -60.55 | X-H torsion
[ 11005 11000 10999 10996 ] final   38.01 input  -57.11 | X-H torsion

> <Gold.Protein.ActiveResidues>
 VAL166  LYS551  ARG553  GLY616  TRP617  ASP618  TYR619  PRO620  LYS621  CYS622 
 ASP623  PHE694  ASN695  SER759  ASP760  ASP761  ALA762  ILE779  LEU786  VAL792 
 PHE793  MET794  SER795  GLU796  ALA797  LYS798  CYS799  TRP800  GLU811  SER814 

> <Gold.Protein.RotatedAtoms>
  150.9604  134.8992  159.7726 H   0  0  0  0  0  0  0  0  0  0  0  0  # atno 6907 bound_to 6896
  152.5154  134.3681  159.9318 H   0  0  0  0  0  0  0  0  0  0  0  0  # atno 6908 bound_to 6896
  151.3694  133.3820  159.2732 H   0  0  0  0  0  0  0  0  0  0  0  0  # atno 6909 bound_to 6896
  145.8547  139.3276  143.0854 H   0  0  0  0  0  0  0  0  0  0  0  0  # atno 7974 bound_to 7965
  155.3198  140.3396  155.4241 H   0  0  0  0  0  0  0  0  0  0  0  0  # atno 8008 bound_to 7997
  156.1915  140.1699  156.8121 H   0  0  0  0  0  0  0  0  0  0  0  0  # atno 8009 bound_to 7997
  154.5447  140.0717  156.8553 H   0  0  0  0  0  0  0  0  0  0  0  0  # atno 8010 bound_to 7997
  139.8871  144.6407  150.8779 H   0  0  0  0  0  0  0  0  0  0  0  0  # atno 10167 bound_to 10162
  157.5443  131.1096  150.8807 H   0  0  0  0  0  0  0  0  0  0  0  0  # atno 10718 bound_to 10713
  154.3819  135.6072  153.5795 H   0  0  0  0  0  0  0  0  0  0  0  0  # atno 10763 bound_to 10752
  152.9788  135.5863  154.4400 H   0  0  0  0  0  0  0  0  0  0  0  0  # atno 10764 bound_to 10752
  154.4171  135.2845  155.1977 H   0  0  0  0  0  0  0  0  0  0  0  0  # atno 10765 bound_to 10752
  140.2169  134.3688  155.8023 H   0  0  0  0  0  0  0  0  0  0  0  0  # atno 11005 bound_to 11000
  145.9317  140.9044  143.0353 LP  0  0  0  0  0  0  0  0  0  0  0  0  # atno 17320 bound_to 7965
  144.6728  140.1427  143.7436 LP  0  0  0  0  0  0  0  0  0  0  0  0  # atno 17321 bound_to 7965
  140.7733  143.3539  151.1959 LP  0  0  0  0  0  0  0  0  0  0  0  0  # atno 17342 bound_to 10162
  139.7143  143.9326  152.2960 LP  0  0  0  0  0  0  0  0  0  0  0  0  # atno 17343 bound_to 10162
  156.9350  130.5364  149.5279 LP  0  0  0  0  0  0  0  0  0  0  0  0  # atno 17370 bound_to 10713
  156.0523  130.5590  150.9015 LP  0  0  0  0  0  0  0  0  0  0  0  0  # atno 17371 bound_to 10713
  141.2224  133.7172  156.8510 LP  0  0  0  0  0  0  0  0  0  0  0  0  # atno 17394 bound_to 11000
  140.1891  134.8978  157.3039 LP  0  0  0  0  0  0  0  0  0  0  0  0  # atno 17395 bound_to 11000

$$$$
