AV-unprocessed.smi:2198|AV-procd|sdf|8920|dock6
  -GOLD-   2272012133D 1   1.00000     0.00000
 Structure written by MMmdl.
 42 43  0  0  0  0  0  0  0  0  2 V2000
  150.0910  134.4178  155.1272 C   0  0  0  0  0  0  0  0  0  0  0  0
  150.1336  135.9292  155.2004 C   0  0  0  0  0  0  0  0  0  0  0  0
  149.0681  136.5699  155.4975 N   0  0  0  0  0  0  0  0  0  0  0  0
  149.0995  137.9736  155.5586 C   0  0  0  0  0  0  0  0  0  0  0  0
  147.7871  138.6519  155.9102 C   0  0  0  0  0  0  0  0  0  0  0  0
  150.2481  138.6654  155.3082 C   0  0  0  0  0  0  0  0  0  0  0  0
  150.3316  140.1918  155.3481 C   0  0  0  0  0  0  0  0  0  0  0  0
  151.3563  140.7943  156.3126 C   0  0  0  0  0  0  0  0  0  0  0  0
  152.3526  140.1564  156.6547 O   0  0  0  0  0  0  0  0  0  0  0  0
  151.0872  142.0321  156.7548 N   0  0  0  0  0  0  0  0  0  0  0  0
  151.9031  142.7832  157.7038 C   0  0  1  0  0  0  0  0  0  0  0  0
  151.3722  144.2235  157.8187 C   0  0  0  0  0  0  0  0  0  0  0  0
  152.1745  145.0305  158.8510 C   0  0  0  0  0  0  0  0  0  0  0  0
  152.1752  144.3366  160.2220 C   0  0  0  0  0  0  0  0  0  0  0  0
  152.7073  142.8941  160.1257 C   0  0  1  0  0  0  0  0  0  0  0  0
  152.6981  142.2007  161.4954 C   0  0  0  0  0  0  0  0  0  0  0  0
  151.9056  142.0910  159.0830 C   0  0  0  0  0  0  0  0  0  0  0  0
  151.4574  137.8885  154.9828 C   0  0  0  0  0  0  0  0  0  0  0  0
  152.5253  138.4620  154.7713 O   0  0  0  0  0  0  0  0  0  0  0  0
  151.3428  136.5305  154.9324 N   0  5  0  0  0  0  0  0  0  0  0  0
  149.1718  134.0294  155.5678 H   0  0  0  0  0  0  0  0  0  0  0  0
  150.9351  133.9853  155.6654 H   0  0  0  0  0  0  0  0  0  0  0  0
  150.1387  134.0917  154.0881 H   0  0  0  0  0  0  0  0  0  0  0  0
  147.4143  139.2222  155.0593 H   0  0  0  0  0  0  0  0  0  0  0  0
  147.9150  139.3286  156.7551 H   0  0  0  0  0  0  0  0  0  0  0  0
  147.0263  137.9199  156.1840 H   0  0  0  0  0  0  0  0  0  0  0  0
  150.5179  140.5908  154.3504 H   0  0  0  0  0  0  0  0  0  0  0  0
  149.3504  140.5800  155.6219 H   0  0  0  0  0  0  0  0  0  0  0  0
  150.2482  142.4817  156.4184 H   0  0  0  0  0  0  0  0  0  0  0  0
  152.9278  142.8303  157.3297 H   0  0  0  0  0  0  0  0  0  0  0  0
  151.4192  144.7192  156.8482 H   0  0  0  0  0  0  0  0  0  0  0  0
  150.3204  144.2095  158.1089 H   0  0  0  0  0  0  0  0  0  0  0  0
  153.2007  145.1522  158.5019 H   0  0  0  0  0  0  0  0  0  0  0  0
  151.7583  146.0341  158.9432 H   0  0  0  0  0  0  0  0  0  0  0  0
  152.7819  144.9125  160.9219 H   0  0  0  0  0  0  0  0  0  0  0  0
  151.1620  144.3300  160.6258 H   0  0  0  0  0  0  0  0  0  0  0  0
  153.7436  142.9401  159.7879 H   0  0  0  0  0  0  0  0  0  0  0  0
  151.6866  142.1282  161.8961 H   0  0  0  0  0  0  0  0  0  0  0  0
  153.3036  142.7497  162.2172 H   0  0  0  0  0  0  0  0  0  0  0  0
  153.1026  141.1905  161.4273 H   0  0  0  0  0  0  0  0  0  0  0  0
  150.8793  141.9634  159.4308 H   0  0  0  0  0  0  0  0  0  0  0  0
  152.3257  141.0882  158.9933 H   0  0  0  0  0  0  0  0  0  0  0  0
  1  2  1  0  0  0  0
  1 21  1  0  0  0  0
  1 22  1  0  0  0  0
  1 23  1  0  0  0  0
  2 20  1  0  0  0  0
  2  3  2  0  0  0  0
  3  4  1  0  0  0  0
  4  5  1  0  0  0  0
  4  6  2  0  0  0  0
  5 24  1  0  0  0  0
  5 25  1  0  0  0  0
  5 26  1  0  0  0  0
  6  7  1  0  0  0  0
  6 18  1  0  0  0  0
  7  8  1  0  0  0  0
  7 27  1  0  0  0  0
  7 28  1  0  0  0  0
  8  9  2  0  0  0  0
  8 10  1  0  0  0  0
 10 11  1  0  0  0  0
 10 29  1  0  0  0  0
 11 17  1  0  0  0  0
 11 12  1  0  0  0  0
 11 30  1  0  0  0  0
 12 13  1  0  0  0  0
 12 31  1  0  0  0  0
 12 32  1  0  0  0  0
 13 14  1  0  0  0  0
 13 33  1  0  0  0  0
 13 34  1  0  0  0  0
 14 15  1  0  0  0  0
 14 35  1  0  0  0  0
 14 36  1  0  0  0  0
 15 16  1  0  0  0  0
 15 17  1  0  0  0  0
 15 37  1  0  0  0  0
 16 38  1  0  0  0  0
 16 39  1  0  0  0  0
 16 40  1  0  0  0  0
 17 41  1  0  0  0  0
 17 42  1  0  0  0  0
 18 19  2  0  0  0  0
 18 20  1  0  0  0  0
M  CHG  1  20  -1
M  END
> <s_m_source_file>
AV-unprocessed.smi

> <i_m_source_file_index>
2198

> <i_lp_mmshare_version>
43012

> <i_f3d_flags>
0

> <s_epik_input>
W0NIM11jMW5jKFtDSDNdKWMoYyg9TylbbkhdMSlbQ0gyXUMoPU8pW05IXVtDQEBIXTJbQ0gyXVtDSDJdW0NIMl1bQ0BASF0oW0NIM10pW0NIMl0y

> <s_epik_cmdline>
J2VwaWtfcHl0aG9uJywgJy1waCcsICc3LjAnLCAnLXRuJywgJzgnLCAnLW1hJywgJzIwMCcsICctbWV0YWxfYmluZGluZycsICctaW1hZScsICc8aW5maWxlLm1hZT4nLCAnLW9tYWUnLCAnPG91dGZpbGUubWFlPic=

> <r_lp_tautomer_probability>
0.839158

> <r_epik_Ionization_Penalty>
6.67193

> <r_epik_Ionization_Penalty_Charging>
7.66837e-08

> <r_epik_Ionization_Penalty_Neutral>
6.67193

> <r_epik_State_Penalty>
4.51643

> <r_epik_Charging_Adjusted_Penalty>
4.51643

> <i_epik_Tot_Q>
-1

> <i_epik_Tot_abs_Q>
1

> <r_epik_Metal_State_Penalty>
0.851582

> <b_epik_Metal_Only>
1

> <s_lp_Force_Field>
OPLS_2005

> <r_lp_Energy>
13.5939

> <b_lp_Chiralities_Consistent>
1

> <s_lp_Variant>
AV-unprocessed.smi:2198-10

> <Gold.Version>
5.8.1

> <Gold.Id.Protein>
6NUR|6NUR_protein|mol2

> <Gold.PLP.Fitness>
47.4194

> <Gold.PLP.PLP>
-39.2238

> <Gold.PLP.part.hbond>
-2.0000

> <Gold.PLP.part.metal>
0.0000

> <Gold.PLP.part.buried>
-5.4714

> <Gold.PLP.part.nonpolar>
-32.9309

> <Gold.PLP.part.repulsive>
0.3738

> <Gold.PLP.ligand.clash>
0.0000

> <Gold.PLP.ligand.torsion>
0.4040

> <Gold.PLP.Chemscore.Hbond>
3.0000

> <Gold.PLP.Chemscore.CHOScore>
0.0000

> <Gold.PLP.Chemscore.Metal>
0.0000

> <Gold.Chemscore.Hbonds>
donor molecule, donor type, donor heavy atom, donor atom, acceptor molecule, acceptor atom, score
      P1  H  7997  8010       L1     9  0.99
      P1  H 10752 10764       L1    20  2.00

> <Gold.PLP.Chemscore.Internal.Correction>
0.0037

> <Gold.Rescore>
     Score         DG    S(hbond)    S(metal)    S(lipo)     H(rot)  DE(clash)    DE(int)     intcor
     17.76     -19.68       1.91        0.00      98.34       1.45       0.11       1.81       ----

> <Gold.Chemscore.Fitness>
17.7614

> <Gold.Chemscore.DG>
-19.6799

> <Gold.Chemscore.ZeroCoef>
-5.4800

> <Gold.Chemscore.Hbond>
1.9143

> <Gold.Chemscore.Metal>
0.0000

> <Gold.Chemscore.Lipo>
98.3377

> <Gold.Chemscore.Internal_Hbond>
0.0000

> <Gold.Chemscore.DEClash>
0.1051

> <Gold.Chemscore.DEInternal>
1.8134

> <Gold.Chemscore.Rot>
1.4450

> <Gold.Chemscore.Internal.Correction>
   9.000000E+99

> <Gold.Chemscore.Hbonds>
donor molecule, donor type, donor heavy atom, donor atom, acceptor molecule, acceptor atom, score
      P1  H  7997  8010       L1     9  0.87
      P1  H 10752 10764       L1    20  0.88

> <Gold.Chemscore.Hbond.Weighted>
-6.3936

> <Gold.Chemscore.Metal.Weighted>
-0.0000

> <Gold.Chemscore.Lipo.Weighted>
-11.5055

> <Gold.Chemscore.Internal_Hbond.Weighted>
0.0000

> <Gold.Chemscore.DEClash.Weighted>
0.1051

> <Gold.Chemscore.DEInternal.Weighted>
1.8134

> <Gold.Chemscore.Rot.Weighted>
3.6992

> <Gold.Chemscore.Internal.Correction.Weighted>
   9.000000E+99

> <Gold.Protein.RotatedTorsions>
[ 6907 6896 6895 6894 ] final -151.33 input  -60.11 | X-H torsion
[ 7974 7965 7964 7962 ] final   82.67 input  175.53 | X-H torsion
[ 8008 7997 7996 7995 ] final   84.05 input   59.86 | X-H torsion
[ 10167 10162 10161 10158 ] final  -96.25 input  -65.29 | X-H torsion
[ 10718 10713 10712 10709 ] final  -88.63 input   66.30 | X-H torsion
[ 10763 10752 10751 10750 ] final  -71.23 input  -60.55 | X-H torsion
[ 11005 11000 10999 10996 ] final -130.26 input  -57.11 | X-H torsion

> <Gold.Protein.ActiveResidues>
 VAL166  LYS551  ARG553  GLY616  TRP617  ASP618  TYR619  PRO620  LYS621  CYS622 
 ASP623  PHE694  ASN695  SER759  ASP760  ASP761  ALA762  ILE779  LEU786  VAL792 
 PHE793  MET794  SER795  GLU796  ALA797  LYS798  CYS799  TRP800  GLU811  SER814 

> <Gold.Protein.RotatedAtoms>
  151.2116  133.4553  159.2598 H   0  0  0  0  0  0  0  0  0  0  0  0  # atno 6907 bound_to 6896
  151.0971  134.9951  159.8441 H   0  0  0  0  0  0  0  0  0  0  0  0  # atno 6908 bound_to 6896
  152.5440  134.2045  159.8778 H   0  0  0  0  0  0  0  0  0  0  0  0  # atno 6909 bound_to 6896
  145.6221  139.2388  143.2133 H   0  0  0  0  0  0  0  0  0  0  0  0  # atno 7974 bound_to 7965
  155.9320  140.3414  155.6256 H   0  0  0  0  0  0  0  0  0  0  0  0  # atno 8008 bound_to 7997
  155.7146  140.0776  157.2375 H   0  0  0  0  0  0  0  0  0  0  0  0  # atno 8009 bound_to 7997
  154.4087  140.1616  156.2321 H   0  0  0  0  0  0  0  0  0  0  0  0  # atno 8010 bound_to 7997
  140.2958  143.3193  152.0299 H   0  0  0  0  0  0  0  0  0  0  0  0  # atno 10167 bound_to 10162
  155.9983  130.4843  150.5049 H   0  0  0  0  0  0  0  0  0  0  0  0  # atno 10718 bound_to 10713
  154.4288  135.5969  153.6056 H   0  0  0  0  0  0  0  0  0  0  0  0  # atno 10763 bound_to 10752
  152.9798  135.5970  154.3864 H   0  0  0  0  0  0  0  0  0  0  0  0  # atno 10764 bound_to 10752
  154.3699  135.2841  155.2251 H   0  0  0  0  0  0  0  0  0  0  0  0  # atno 10765 bound_to 10752
  140.9361  134.1256  157.4192 H   0  0  0  0  0  0  0  0  0  0  0  0  # atno 11005 bound_to 11000
  146.1423  140.7040  142.9361 LP  0  0  0  0  0  0  0  0  0  0  0  0  # atno 17320 bound_to 7965
  144.7227  140.4426  143.6996 LP  0  0  0  0  0  0  0  0  0  0  0  0  # atno 17321 bound_to 7965
  139.4927  144.6492  151.6712 LP  0  0  0  0  0  0  0  0  0  0  0  0  # atno 17342 bound_to 10162
  140.5694  144.0135  150.6209 LP  0  0  0  0  0  0  0  0  0  0  0  0  # atno 17343 bound_to 10162
  157.3029  131.0649  151.2055 LP  0  0  0  0  0  0  0  0  0  0  0  0  # atno 17370 bound_to 10713
  157.3028  130.6851  149.6173 LP  0  0  0  0  0  0  0  0  0  0  0  0  # atno 17371 bound_to 10713
  139.8808  135.0021  156.6107 LP  0  0  0  0  0  0  0  0  0  0  0  0  # atno 17394 bound_to 11000
  140.7798  133.8669  155.8558 LP  0  0  0  0  0  0  0  0  0  0  0  0  # atno 17395 bound_to 11000

$$$$
