AV-unprocessed.smi:156|AV-procd|sdf|1289|dock2
  -GOLD-   2262018563D 1   1.00000     0.00000
 Structure written by MMmdl.
 51 53  0  0  0  0  0  0  0  0  1 V2000
  147.4021  135.7628  162.7238 C   0  0  0  0  0  0  0  0  0  0  0  0
  146.7692  135.2334  161.4208 C   0  0  2  0  0  0  0  0  0  0  0  0
  145.2768  134.8196  161.5758 C   0  0  1  0  0  0  0  0  0  0  0  0
  145.0378  133.8822  162.7749 C   0  0  0  0  0  0  0  0  0  0  0  0
  144.1349  136.2928  161.7123 S   0  0  0  0  0  0  0  0  0  0  0  0
  145.2918  137.7192  161.8661 C   0  0  0  0  0  0  0  0  0  0  0  0
  143.3894  136.4566  160.4554 O   0  0  0  0  0  0  0  0  0  0  0  0
  143.3938  136.1904  162.9789 O   0  0  0  0  0  0  0  0  0  0  0  0
  147.5867  134.1453  160.8686 N   0  0  0  0  0  0  0  0  0  0  0  0
  148.0361  133.0429  161.7144 C   0  0  0  0  0  0  0  0  0  0  0  0
  148.1419  134.2609  159.6323 C   0  0  0  0  0  0  0  0  0  0  0  0
  148.6050  133.1463  159.0062 N   0  0  0  0  0  0  0  0  0  0  0  0
  149.1556  133.2275  157.7921 C   0  0  0  0  0  0  0  0  0  0  0  0
  149.3492  134.3081  157.0357 N   0  0  0  0  0  0  0  0  0  0  0  0
  148.8984  135.4346  157.6582 C   0  0  0  0  0  0  0  0  0  0  0  0
  148.2781  135.4996  158.9391 C   0  0  0  0  0  0  0  0  0  0  0  0
  147.9504  136.8185  159.2317 N   0  0  0  0  0  0  0  0  0  0  0  0
  148.3497  137.4900  158.1873 C   0  0  0  0  0  0  0  0  0  0  0  0
  148.9501  136.7408  157.2009 N   0  0  0  0  0  0  0  0  0  0  0  0
  149.4923  137.2265  155.9387 C   0  0  0  0  0  0  0  0  0  0  0  0
  150.8462  137.9699  156.0527 C   0  0  0  0  0  0  0  0  0  0  0  0
  151.7660  137.1491  156.9675 C   0  0  0  0  0  0  0  0  0  0  0  0
  152.1491  135.9335  156.3562 O   0  0  0  0  0  0  0  0  0  0  0  0
  151.4812  138.4220  154.7265 C   0  0  0  0  0  0  0  0  0  0  0  0
  151.0514  139.7854  154.9227 O   0  0  0  0  0  0  0  0  0  0  0  0
  150.8100  139.4861  156.3136 C   0  0  0  0  0  0  0  0  0  0  0  0
  146.9423  136.6978  163.0422 H   0  0  0  0  0  0  0  0  0  0  0  0
  148.4643  135.9681  162.5865 H   0  0  0  0  0  0  0  0  0  0  0  0
  147.3055  135.0494  163.5421 H   0  0  0  0  0  0  0  0  0  0  0  0
  146.7750  136.0706  160.7242 H   0  0  0  0  0  0  0  0  0  0  0  0
  144.9617  134.2828  160.6807 H   0  0  0  0  0  0  0  0  0  0  0  0
  145.5621  132.9348  162.6553 H   0  0  0  0  0  0  0  0  0  0  0  0
  143.9818  133.6356  162.8830 H   0  0  0  0  0  0  0  0  0  0  0  0
  145.3716  134.3332  163.7092 H   0  0  0  0  0  0  0  0  0  0  0  0
  144.7150  138.6266  162.0423 H   0  0  0  0  0  0  0  0  0  0  0  0
  145.8601  137.8412  160.9448 H   0  0  0  0  0  0  0  0  0  0  0  0
  145.9721  137.5609  162.7018 H   0  0  0  0  0  0  0  0  0  0  0  0
  149.0948  132.8339  161.5570 H   0  0  0  0  0  0  0  0  0  0  0  0
  147.4696  132.1380  161.4953 H   0  0  0  0  0  0  0  0  0  0  0  0
  147.8989  133.2691  162.7711 H   0  0  0  0  0  0  0  0  0  0  0  0
  149.4913  132.2931  157.3671 H   0  0  0  0  0  0  0  0  0  0  0  0
  148.2196  138.5595  158.1129 H   0  0  0  0  0  0  0  0  0  0  0  0
  149.5758  136.3695  155.2698 H   0  0  0  0  0  0  0  0  0  0  0  0
  148.7428  137.8784  155.4880 H   0  0  0  0  0  0  0  0  0  0  0  0
  152.6622  137.7115  157.2315 H   0  0  0  0  0  0  0  0  0  0  0  0
  151.2657  136.9055  157.9054 H   0  0  0  0  0  0  0  0  0  0  0  0
  151.9224  135.2209  156.9342 H   0  0  0  0  0  0  0  0  0  0  0  0
  152.5697  138.3449  154.7065 H   0  0  0  0  0  0  0  0  0  0  0  0
  151.0544  137.9642  153.8354 H   0  0  0  0  0  0  0  0  0  0  0  0
  149.8563  139.8689  156.6726 H   0  0  0  0  0  0  0  0  0  0  0  0
  151.6241  139.8421  156.9474 H   0  0  0  0  0  0  0  0  0  0  0  0
  1  2  1  0  0  0  0
  1 27  1  0  0  0  0
  1 28  1  0  0  0  0
  1 29  1  0  0  0  0
  2  3  1  0  0  0  0
  2  9  1  0  0  0  0
  2 30  1  0  0  0  0
  3  4  1  0  0  0  0
  3  5  1  0  0  0  0
  3 31  1  0  0  0  0
  4 32  1  0  0  0  0
  4 33  1  0  0  0  0
  4 34  1  0  0  0  0
  5  6  1  0  0  0  0
  5  7  2  0  0  0  0
  5  8  2  0  0  0  0
  6 35  1  0  0  0  0
  6 36  1  0  0  0  0
  6 37  1  0  0  0  0
  9 10  1  0  0  0  0
  9 11  1  0  0  0  0
 10 38  1  0  0  0  0
 10 39  1  0  0  0  0
 10 40  1  0  0  0  0
 11 16  1  0  0  0  0
 11 12  2  0  0  0  0
 12 13  1  0  0  0  0
 13 14  2  0  0  0  0
 13 41  1  0  0  0  0
 14 15  1  0  0  0  0
 15 19  1  0  0  0  0
 15 16  2  0  0  0  0
 16 17  1  0  0  0  0
 17 18  2  0  0  0  0
 18 19  1  0  0  0  0
 18 42  1  0  0  0  0
 19 20  1  0  0  0  0
 20 21  1  0  0  0  0
 20 43  1  0  0  0  0
 20 44  1  0  0  0  0
 21 26  1  0  0  0  0
 21 22  1  0  0  0  0
 21 24  1  0  0  0  0
 22 23  1  0  0  0  0
 22 45  1  0  0  0  0
 22 46  1  0  0  0  0
 23 47  1  0  0  0  0
 24 25  1  0  0  0  0
 24 48  1  0  0  0  0
 24 49  1  0  0  0  0
 25 26  1  0  0  0  0
 26 50  1  0  0  0  0
 26 51  1  0  0  0  0
M  END
> <s_m_source_file>
AV-unprocessed.smi

> <i_m_source_file_index>
156

> <i_lp_mmshare_version>
43012

> <i_f3d_flags>
0

> <s_epik_input>
W0NIM11TKD1PKSg9TylbQ0BASF0oW0NIM10pW0NAQEhdKFtDSDNdKU4oW0NIM10pYyhuW2NIXW4xKWMoYzEyKW5bY0hdbjJbQ0gyXUMzKFtDSDJdW09IXSlbQ0gyXU9bQ0gyXTM=

> <s_epik_cmdline>
J2VwaWtfcHl0aG9uJywgJy1waCcsICc3LjAnLCAnLXRuJywgJzgnLCAnLW1hJywgJzIwMCcsICctbWV0YWxfYmluZGluZycsICctaW1hZScsICc8aW5maWxlLm1hZT4nLCAnLW9tYWUnLCAnPG91dGZpbGUubWFlPic=

> <r_lp_tautomer_probability>
1

> <r_epik_Ionization_Penalty>
0.00107697

> <r_epik_Ionization_Penalty_Charging>
0

> <r_epik_Ionization_Penalty_Neutral>
0.00107697

> <r_epik_State_Penalty>
0.000614712

> <r_epik_Charging_Adjusted_Penalty>
0.000614712

> <i_epik_Tot_Q>
0

> <i_epik_Tot_abs_Q>
0

> <r_epik_Metal_State_Penalty>
-0

> <b_epik_Metal_Only>
0

> <s_lp_Force_Field>
OPLS_2005

> <r_lp_Energy>
28.6083

> <b_lp_Chiralities_Consistent>
1

> <s_lp_Variant>
AV-unprocessed.smi:156-3

> <Gold.Version>
5.8.1

> <Gold.Id.Protein>
6NUR|6NUR_protein|mol2

> <Gold.PLP.Fitness>
36.3809

> <Gold.PLP.PLP>
-31.9180

> <Gold.PLP.part.hbond>
-2.1139

> <Gold.PLP.part.metal>
0.0000

> <Gold.PLP.part.buried>
-5.8168

> <Gold.PLP.part.nonpolar>
-23.6042

> <Gold.PLP.part.repulsive>
0.1328

> <Gold.PLP.ligand.clash>
0.0000

> <Gold.PLP.ligand.torsion>
1.3555

> <Gold.PLP.Chemscore.Hbond>
2.0000

> <Gold.PLP.Chemscore.CHOScore>
0.0000

> <Gold.PLP.Chemscore.Metal>
0.0000

> <Gold.Chemscore.Hbonds>
donor molecule, donor type, donor heavy atom, donor atom, acceptor molecule, acceptor atom, score
      P1  H  7989  7998       L1    25  1.00
      P1  H 10752 10764       L1    23  1.00

> <Gold.PLP.Chemscore.Internal.Correction>
1.1739

> <Gold.Rescore>
     Score         DG    S(hbond)    S(metal)    S(lipo)     H(rot)  DE(clash)    DE(int)     intcor
      9.22     -12.00       1.99        0.00      69.26       3.21       0.02       2.76       ----

> <Gold.Chemscore.Fitness>
9.2230

> <Gold.Chemscore.DG>
-11.9981

> <Gold.Chemscore.ZeroCoef>
-5.4800

> <Gold.Chemscore.Hbond>
1.9870

> <Gold.Chemscore.Metal>
0.0000

> <Gold.Chemscore.Lipo>
69.2584

> <Gold.Chemscore.Internal_Hbond>
0.0000

> <Gold.Chemscore.DEClash>
0.0158

> <Gold.Chemscore.DEInternal>
2.7594

> <Gold.Chemscore.Rot>
3.2115

> <Gold.Chemscore.Internal.Correction>
   9.000000E+99

> <Gold.Chemscore.Hbonds>
donor molecule, donor type, donor heavy atom, donor atom, acceptor molecule, acceptor atom, score
      P1  H  7989  7998       L1    25  0.74
      P1  H 10752 10764       L1    23  0.78

> <Gold.Chemscore.Hbond.Weighted>
-6.6364

> <Gold.Chemscore.Metal.Weighted>
-0.0000

> <Gold.Chemscore.Lipo.Weighted>
-8.1032

> <Gold.Chemscore.Internal_Hbond.Weighted>
0.0000

> <Gold.Chemscore.DEClash.Weighted>
0.0158

> <Gold.Chemscore.DEInternal.Weighted>
2.7594

> <Gold.Chemscore.Rot.Weighted>
8.2215

> <Gold.Chemscore.Internal.Correction.Weighted>
   9.000000E+99

> <Gold.Protein.RotatedTorsions>
[ 6907 6896 6895 6894 ] final    4.03 input  -60.11 | X-H torsion
[ 7974 7965 7964 7962 ] final  -50.06 input  175.53 | X-H torsion
[ 8008 7997 7996 7995 ] final  144.68 input   59.86 | X-H torsion
[ 10167 10162 10161 10158 ] final  -53.90 input  -65.29 | X-H torsion
[ 10718 10713 10712 10709 ] final  -82.85 input   66.30 | X-H torsion
[ 10763 10752 10751 10750 ] final  -17.93 input  -60.55 | X-H torsion
[ 11005 11000 10999 10996 ] final -137.91 input  -57.11 | X-H torsion

> <Gold.Protein.ActiveResidues>
 VAL166  LYS551  ARG553  GLY616  TRP617  ASP618  TYR619  PRO620  LYS621  CYS622 
 ASP623  PHE694  ASN695  SER759  ASP760  ASP761  ALA762  ILE779  LEU786  VAL792 
 PHE793  MET794  SER795  GLU796  ALA797  LYS798  CYS799  TRP800  GLU811  SER814 

> <Gold.Protein.RotatedAtoms>
  151.6348  135.1019  160.0128 H   0  0  0  0  0  0  0  0  0  0  0  0  # atno 6907 bound_to 6896
  152.4087  133.6925  159.6387 H   0  0  0  0  0  0  0  0  0  0  0  0  # atno 6908 bound_to 6896
  150.7979  133.8580  159.3265 H   0  0  0  0  0  0  0  0  0  0  0  0  # atno 6909 bound_to 6896
  145.9339  140.7724  142.9586 H   0  0  0  0  0  0  0  0  0  0  0  0  # atno 7974 bound_to 7965
  156.2902  140.2229  156.5093 H   0  0  0  0  0  0  0  0  0  0  0  0  # atno 8008 bound_to 7997
  154.7622  140.0472  157.1005 H   0  0  0  0  0  0  0  0  0  0  0  0  # atno 8009 bound_to 7997
  154.9976  140.3098  155.4883 H   0  0  0  0  0  0  0  0  0  0  0  0  # atno 8010 bound_to 7997
  140.6459  143.2535  151.4859 H   0  0  0  0  0  0  0  0  0  0  0  0  # atno 10167 bound_to 10162
  156.0027  130.4647  150.4168 H   0  0  0  0  0  0  0  0  0  0  0  0  # atno 10718 bound_to 10713
  153.5815  135.7005  153.5461 H   0  0  0  0  0  0  0  0  0  0  0  0  # atno 10763 bound_to 10752
  153.3257  135.4061  155.1453 H   0  0  0  0  0  0  0  0  0  0  0  0  # atno 10764 bound_to 10752
  154.8616  135.3706  154.5343 H   0  0  0  0  0  0  0  0  0  0  0  0  # atno 10765 bound_to 10752
  140.8666  134.2103  157.4676 H   0  0  0  0  0  0  0  0  0  0  0  0  # atno 11005 bound_to 11000
  144.6769  140.2171  143.7370 LP  0  0  0  0  0  0  0  0  0  0  0  0  # atno 17320 bound_to 7965
  145.8389  139.2121  143.1839 LP  0  0  0  0  0  0  0  0  0  0  0  0  # atno 17321 bound_to 7965
  139.5670  144.2018  152.1780 LP  0  0  0  0  0  0  0  0  0  0  0  0  # atno 17342 bound_to 10162
  140.1303  144.5294  150.6807 LP  0  0  0  0  0  0  0  0  0  0  0  0  # atno 17343 bound_to 10162
  157.2227  131.0486  151.2537 LP  0  0  0  0  0  0  0  0  0  0  0  0  # atno 17370 bound_to 10713
  157.3785  130.7219  149.6614 LP  0  0  0  0  0  0  0  0  0  0  0  0  # atno 17371 bound_to 10713
  139.8709  134.9755  156.4884 LP  0  0  0  0  0  0  0  0  0  0  0  0  # atno 17394 bound_to 11000
  140.8621  133.8051  155.9276 LP  0  0  0  0  0  0  0  0  0  0  0  0  # atno 17395 bound_to 11000

$$$$
