AV-unprocessed.smi:35|AV-procd|sdf|261|dock2
  -GOLD-   2262016 23D 1   1.00000     0.00000
 Structure written by MMmdl.
 29 30  0  0  0  0  0  0  0  0  1 V2000
  153.1304  139.3292  157.0614 O   0  0  0  0  0  0  0  0  0  0  0  0
  152.0096  139.6394  156.6636 C   0  0  0  0  0  0  0  0  0  0  0  0
  151.3854  140.7950  157.1423 N   0  0  0  0  0  0  0  0  0  0  0  0
  150.1204  141.2504  156.7645 C   0  0  0  0  0  0  0  0  0  0  0  0
  149.6769  142.2947  157.2401 O   0  0  0  0  0  0  0  0  0  0  0  0
  149.4092  140.4714  155.8241 N   0  0  0  0  0  0  0  0  0  0  0  0
  148.0371  140.9195  155.3663 C   0  0  2  0  0  0  0  0  0  0  0  0
  147.1237  139.9003  155.6404 O   0  0  0  0  0  0  0  0  0  0  0  0
  146.2132  139.7705  154.5538 C   0  0  2  0  0  0  0  0  0  0  0  0
  145.5473  138.3832  154.5466 C   0  0  0  0  0  0  0  0  0  0  0  0
  144.8606  138.1798  153.3300 O   0  0  0  0  0  0  0  0  0  0  0  0
  147.0767  140.0961  153.3272 C   0  0  2  0  0  0  0  0  0  0  0  0
  147.8107  138.9583  152.9043 O   0  0  0  0  0  0  0  0  0  0  0  0
  147.9751  141.2122  153.8511 C   0  0  2  0  0  0  0  0  0  0  0  0
  149.2237  141.2840  153.1830 O   0  0  0  0  0  0  0  0  0  0  0  0
  149.9917  139.3181  155.3156 C   0  0  0  0  0  0  0  0  0  0  0  0
  151.2206  138.8922  155.6903 C   0  0  0  0  0  0  0  0  0  0  0  0
  151.8741  137.2239  154.8457 Br  0  0  0  0  0  0  0  0  0  0  0  0
  151.8946  141.3495  157.8151 H   0  0  0  0  0  0  0  0  0  0  0  0
  147.7634  141.7841  155.9736 H   0  0  0  0  0  0  0  0  0  0  0  0
  145.4546  140.5506  154.6475 H   0  0  0  0  0  0  0  0  0  0  0  0
  146.3045  137.6027  154.6269 H   0  0  0  0  0  0  0  0  0  0  0  0
  144.8664  138.2641  155.3900 H   0  0  0  0  0  0  0  0  0  0  0  0
  144.7173  139.0202  152.9221 H   0  0  0  0  0  0  0  0  0  0  0  0
  146.4683  140.4343  152.4879 H   0  0  0  0  0  0  0  0  0  0  0  0
  148.2828  139.1841  152.1172 H   0  0  0  0  0  0  0  0  0  0  0  0
  147.4626  142.1672  153.7284 H   0  0  0  0  0  0  0  0  0  0  0  0
  149.2655  140.5743  152.5600 H   0  0  0  0  0  0  0  0  0  0  0  0
  149.4528  138.7294  154.5882 H   0  0  0  0  0  0  0  0  0  0  0  0
  1  2  2  0  0  0  0
  2 17  1  0  0  0  0
  2  3  1  0  0  0  0
  3 19  1  0  0  0  0
  3  4  1  0  0  0  0
  4  5  2  0  0  0  0
  4  6  1  0  0  0  0
  6  7  1  0  0  0  0
  6 16  1  0  0  0  0
  7 14  1  0  0  0  0
  7  8  1  0  0  0  0
  7 20  1  0  0  0  0
  8  9  1  0  0  0  0
  9 10  1  0  0  0  0
  9 12  1  0  0  0  0
  9 21  1  0  0  0  0
 10 11  1  0  0  0  0
 10 22  1  0  0  0  0
 10 23  1  0  0  0  0
 11 24  1  0  0  0  0
 12 13  1  0  0  0  0
 12 14  1  0  0  0  0
 12 25  1  0  0  0  0
 13 26  1  0  0  0  0
 14 15  1  0  0  0  0
 14 27  1  0  0  0  0
 15 28  1  0  0  0  0
 16 17  2  0  0  0  0
 16 29  1  0  0  0  0
 17 18  1  0  0  0  0
M  END
> <s_m_source_file>
AV-unprocessed.smi

> <i_m_source_file_index>
35

> <i_lp_mmshare_version>
43012

> <i_f3d_flags>
0

> <s_epik_input>
Tz1jMVtuSF1jKD1PKW4oW2NIXWMxQnIpW0NAQEhdMk9bQ0BASF0oW0NIMl1bT0hdKVtDQEBIXShbT0hdKVtDQEhdMltPSF0=

> <s_epik_cmdline>
J2VwaWtfcHl0aG9uJywgJy1waCcsICc3LjAnLCAnLXRuJywgJzgnLCAnLW1hJywgJzIwMCcsICctbWV0YWxfYmluZGluZycsICctaW1hZScsICc8aW5maWxlLm1hZT4nLCAnLW9tYWUnLCAnPG91dGZpbGUubWFlPic=

> <r_lp_tautomer_probability>
0.999537

> <r_epik_Ionization_Penalty>
0.10812

> <r_epik_Ionization_Penalty_Charging>
0.108119

> <r_epik_Ionization_Penalty_Neutral>
4.93006e-07

> <r_epik_State_Penalty>
0.0979238

> <r_epik_Charging_Adjusted_Penalty>
0.206043

> <i_epik_Tot_Q>
0

> <i_epik_Tot_abs_Q>
0

> <r_epik_Metal_State_Penalty>
3.07911

> <b_epik_Metal_Only>
0

> <s_epik_Chemistry_Notes>
This compound contains an acetal/aminal-like group ( X-CH(R)-Y where X, Y are N, S, or O) that may be acid/base labile, releasing an aldehyde.

> <s_lp_Force_Field>
OPLS_2005

> <r_lp_Energy>
38.5572

> <b_lp_Chiralities_Consistent>
1

> <s_lp_Variant>
AV-unprocessed.smi:35-15

> <Gold.Version>
5.8.1

> <Gold.Id.Protein>
6NUR|6NUR_protein|mol2

> <Gold.PLP.Fitness>
36.9182

> <Gold.PLP.PLP>
-22.0679

> <Gold.PLP.part.hbond>
-6.0671

> <Gold.PLP.part.metal>
0.0000

> <Gold.PLP.part.buried>
-2.1748

> <Gold.PLP.part.nonpolar>
-16.2736

> <Gold.PLP.part.repulsive>
1.0701

> <Gold.PLP.ligand.clash>
0.0000

> <Gold.PLP.ligand.torsion>
0.0603

> <Gold.PLP.Chemscore.Hbond>
4.9838

> <Gold.PLP.Chemscore.CHOScore>
0.0000

> <Gold.PLP.Chemscore.Metal>
0.0000

> <Gold.Chemscore.Hbonds>
donor molecule, donor type, donor heavy atom, donor atom, acceptor molecule, acceptor atom, score
      L1  H    11    24       P1 10175  1.00
      L1  H    13    26       P1  7957  1.00
      L1  H    15    28       P1  7957  0.99
      P1  H  7997  8009       L1     1  1.00
      P1  H  8011  8017       L1    15  0.99

> <Gold.PLP.Chemscore.Internal.Correction>
0.0196

> <Gold.Rescore>
     Score         DG    S(hbond)    S(metal)    S(lipo)     H(rot)  DE(clash)    DE(int)     intcor
     12.41     -13.82       4.04        0.00      36.24       3.67       0.30       1.11       ----

> <Gold.Chemscore.Fitness>
12.4130

> <Gold.Chemscore.DG>
-13.8235

> <Gold.Chemscore.ZeroCoef>
-5.4800

> <Gold.Chemscore.Hbond>
4.0417

> <Gold.Chemscore.Metal>
0.0000

> <Gold.Chemscore.Lipo>
36.2366

> <Gold.Chemscore.Internal_Hbond>
0.0000

> <Gold.Chemscore.DEClash>
0.3023

> <Gold.Chemscore.DEInternal>
1.1082

> <Gold.Chemscore.Rot>
3.6701

> <Gold.Chemscore.Internal.Correction>
   9.000000E+99

> <Gold.Chemscore.Hbonds>
donor molecule, donor type, donor heavy atom, donor atom, acceptor molecule, acceptor atom, score
      L1  H    11    24       P1 10175  0.97
      L1  H    13    26       P1  7957  0.98
      L1  H    15    28       P1  7957  0.88
      P1  H  7997  8009       L1     1  0.91
      P1  H  8011  8017       L1    15  0.23

> <Gold.Chemscore.Hbond.Weighted>
-13.4993

> <Gold.Chemscore.Metal.Weighted>
-0.0000

> <Gold.Chemscore.Lipo.Weighted>
-4.2397

> <Gold.Chemscore.Internal_Hbond.Weighted>
0.0000

> <Gold.Chemscore.DEClash.Weighted>
0.3023

> <Gold.Chemscore.DEInternal.Weighted>
1.1082

> <Gold.Chemscore.Rot.Weighted>
9.3955

> <Gold.Chemscore.Internal.Correction.Weighted>
   9.000000E+99

> <Gold.Protein.RotatedTorsions>
[ 6907 6896 6895 6894 ] final  -79.09 input  -60.11 | X-H torsion
[ 7974 7965 7964 7962 ] final  -73.68 input  175.53 | X-H torsion
[ 8008 7997 7996 7995 ] final -173.10 input   59.86 | X-H torsion
[ 10167 10162 10161 10158 ] final  173.29 input  -65.29 | X-H torsion
[ 10718 10713 10712 10709 ] final -148.71 input   66.30 | X-H torsion
[ 10763 10752 10751 10750 ] final  -62.10 input  -60.55 | X-H torsion
[ 11005 11000 10999 10996 ] final   51.31 input  -57.11 | X-H torsion

> <Gold.Protein.ActiveResidues>
 VAL166  LYS551  ARG553  GLY616  TRP617  ASP618  TYR619  PRO620  LYS621  CYS622 
 ASP623  PHE694  ASN695  SER759  ASP760  ASP761  ALA762  ILE779  LEU786  VAL792 
 PHE793  MET794  SER795  GLU796  ALA797  LYS798  CYS799  TRP800  GLU811  SER814 

> <Gold.Protein.RotatedAtoms>
  150.6957  134.4173  159.5188 H   0  0  0  0  0  0  0  0  0  0  0  0  # atno 6907 bound_to 6896
  152.1922  134.8659  160.0525 H   0  0  0  0  0  0  0  0  0  0  0  0  # atno 6908 bound_to 6896
  151.9611  133.3660  159.4072 H   0  0  0  0  0  0  0  0  0  0  0  0  # atno 6909 bound_to 6896
  145.6489  140.9288  143.0995 H   0  0  0  0  0  0  0  0  0  0  0  0  # atno 7974 bound_to 7965
  155.9531  140.1130  157.0960 H   0  0  0  0  0  0  0  0  0  0  0  0  # atno 8008 bound_to 7997
  154.4114  140.1196  156.5145 H   0  0  0  0  0  0  0  0  0  0  0  0  # atno 8009 bound_to 7997
  155.6817  140.3473  155.4860 H   0  0  0  0  0  0  0  0  0  0  0  0  # atno 8010 bound_to 7997
  139.5103  144.3277  152.0141 H   0  0  0  0  0  0  0  0  0  0  0  0  # atno 10167 bound_to 10162
  156.4238  130.8042  151.2266 H   0  0  0  0  0  0  0  0  0  0  0  0  # atno 10718 bound_to 10713
  154.2947  135.6246  153.5400 H   0  0  0  0  0  0  0  0  0  0  0  0  # atno 10763 bound_to 10752
  152.9848  135.5664  154.5351 H   0  0  0  0  0  0  0  0  0  0  0  0  # atno 10764 bound_to 10752
  154.4969  135.2870  155.1428 H   0  0  0  0  0  0  0  0  0  0  0  0  # atno 10765 bound_to 10752
  140.0943  134.5167  155.8822 H   0  0  0  0  0  0  0  0  0  0  0  0  # atno 11005 bound_to 11000
  144.7130  139.8301  143.7408 LP  0  0  0  0  0  0  0  0  0  0  0  0  # atno 17320 bound_to 7965
  146.1220  139.4239  143.0222 LP  0  0  0  0  0  0  0  0  0  0  0  0  # atno 17321 bound_to 7965
  140.2717  144.3956  150.6149 LP  0  0  0  0  0  0  0  0  0  0  0  0  # atno 17342 bound_to 10162
  140.6083  143.2168  151.6936 LP  0  0  0  0  0  0  0  0  0  0  0  0  # atno 17343 bound_to 10162
  157.7508  131.0220  150.3772 LP  0  0  0  0  0  0  0  0  0  0  0  0  # atno 17370 bound_to 10713
  156.4095  130.3931  149.6902 LP  0  0  0  0  0  0  0  0  0  0  0  0  # atno 17371 bound_to 10713
  141.2087  133.6676  156.6391 LP  0  0  0  0  0  0  0  0  0  0  0  0  # atno 17394 bound_to 11000
  140.3308  134.7930  157.4325 LP  0  0  0  0  0  0  0  0  0  0  0  0  # atno 17395 bound_to 11000

$$$$
