AV-unprocessed.smi:582|AV-procd|sdf|2996|dock1
  -GOLD-   2262023503D 1   1.00000     0.00000
 Structure written by MMmdl.
 27 28  0  0  0  0  0  0  0  0  3 V2000
  151.7728  134.8360  156.5485 O   0  0  0  0  0  0  0  0  0  0  0  0
  151.2149  133.7165  156.5610 C   0  0  0  0  0  0  0  0  0  0  0  0
  151.5634  132.7984  157.3357 O   0  5  0  0  0  0  0  0  0  0  0  0
  150.0810  133.4637  155.6084 C   0  0  0  0  0  0  0  0  0  0  0  0
  149.3547  132.2506  155.6479 C   0  0  0  0  0  0  0  0  0  0  0  0
  148.2957  132.0414  154.7406 C   0  0  0  0  0  0  0  0  0  0  0  0
  147.9759  133.0506  153.8037 C   0  0  0  0  0  0  0  0  0  0  0  0
  146.9438  132.9328  152.8641 N   0  0  0  0  0  0  0  0  0  0  0  0
  147.3606  133.2792  151.5115 C   0  0  0  0  0  0  0  0  0  0  0  0
  146.1530  133.2277  150.5600 C   0  0  0  0  0  0  0  0  0  0  0  0
  145.5465  131.9405  150.6307 O   0  0  0  0  0  0  0  0  0  0  0  0
  145.0723  131.6423  151.9407 C   0  0  0  0  0  0  0  0  0  0  0  0
  146.2521  131.6517  152.9276 C   0  0  0  0  0  0  0  0  0  0  0  0
  148.6922  134.1954  153.7964 N   0  3  0  0  0  0  0  0  0  0  0  0
  149.7135  134.4342  154.6486 C   0  0  0  0  0  0  0  0  0  0  0  0
  149.6004  131.4803  156.3646 H   0  0  0  0  0  0  0  0  0  0  0  0
  147.7405  131.1155  154.7685 H   0  0  0  0  0  0  0  0  0  0  0  0
  147.8002  134.2776  151.5042 H   0  0  0  0  0  0  0  0  0  0  0  0
  148.1291  132.5842  151.1706 H   0  0  0  0  0  0  0  0  0  0  0  0
  145.4245  133.9998  150.8128 H   0  0  0  0  0  0  0  0  0  0  0  0
  146.4728  133.4145  149.5348 H   0  0  0  0  0  0  0  0  0  0  0  0
  144.3103  132.3649  152.2371 H   0  0  0  0  0  0  0  0  0  0  0  0
  144.5960  130.6619  151.9320 H   0  0  0  0  0  0  0  0  0  0  0  0
  146.9431  130.8437  152.6838 H   0  0  0  0  0  0  0  0  0  0  0  0
  145.8925  131.4758  153.9424 H   0  0  0  0  0  0  0  0  0  0  0  0
  150.2020  135.3915  154.5345 H   0  0  0  0  0  0  0  0  0  0  0  0
  148.4520  134.9158  153.1155 H   0  0  0  0  0  0  0  0  0  0  0  0
  1  2  2  0  0  0  0
  2  3  1  0  0  0  0
  2  4  1  0  0  0  0
  4 15  1  0  0  0  0
  4  5  2  0  0  0  0
  5  6  1  0  0  0  0
  5 16  1  0  0  0  0
  6  7  2  0  0  0  0
  6 17  1  0  0  0  0
  7  8  1  0  0  0  0
  7 14  1  0  0  0  0
  8 13  1  0  0  0  0
  8  9  1  0  0  0  0
  9 10  1  0  0  0  0
  9 18  1  0  0  0  0
  9 19  1  0  0  0  0
 10 11  1  0  0  0  0
 10 20  1  0  0  0  0
 10 21  1  0  0  0  0
 11 12  1  0  0  0  0
 12 13  1  0  0  0  0
 12 22  1  0  0  0  0
 12 23  1  0  0  0  0
 13 24  1  0  0  0  0
 13 25  1  0  0  0  0
 14 15  2  0  0  0  0
 14 27  1  0  0  0  0
 15 26  1  0  0  0  0
M  CHG  1   3  -1
M  CHG  1  14   1
M  END
> <s_m_source_file>
AV-unprocessed.smi

> <i_m_source_file_index>
582

> <i_lp_mmshare_version>
43012

> <i_f3d_flags>
0

> <s_epik_input>
Tz1DKFtPSF0pYzFbY0hdW2NIXWMobltjSF0xKU4yW0NIMl1bQ0gyXU9bQ0gyXVtDSDJdMg==

> <s_epik_cmdline>
J2VwaWtfcHl0aG9uJywgJy1waCcsICc3LjAnLCAnLXRuJywgJzgnLCAnLW1hJywgJzIwMCcsICctbWV0YWxfYmluZGluZycsICctaW1hZScsICc8aW5maWxlLm1hZT4nLCAnLW9tYWUnLCAnPG91dGZpbGUubWFlPic=

> <r_epik_Ionization_Penalty>
2.51473

> <r_epik_Ionization_Penalty_Charging>
2.51473

> <r_epik_Ionization_Penalty_Neutral>
3.18713e-12

> <r_epik_State_Penalty>
2.68069

> <r_epik_Charging_Adjusted_Penalty>
5.19543

> <i_epik_Tot_Q>
0

> <i_epik_Tot_abs_Q>
2

> <r_epik_Metal_State_Penalty>
6.76699

> <b_epik_Metal_Only>
0

> <s_lp_Force_Field>
OPLS_2005

> <r_lp_Energy>
18.1108

> <b_lp_Chiralities_Consistent>
1

> <s_lp_Variant>
AV-unprocessed.smi:582-2

> <Gold.Version>
5.8.1

> <Gold.Id.Protein>
6NUR|6NUR_protein|mol2

> <Gold.PLP.Fitness>
39.2389

> <Gold.PLP.PLP>
-21.8742

> <Gold.PLP.part.hbond>
-3.0000

> <Gold.PLP.part.metal>
0.0000

> <Gold.PLP.part.buried>
-1.8189

> <Gold.PLP.part.nonpolar>
-16.2000

> <Gold.PLP.part.repulsive>
0.2372

> <Gold.PLP.ligand.clash>
0.0000

> <Gold.PLP.ligand.torsion>
0.1248

> <Gold.PLP.Chemscore.Hbond>
5.8400

> <Gold.PLP.Chemscore.CHOScore>
0.0000

> <Gold.PLP.Chemscore.Metal>
0.0000

> <Gold.Chemscore.Hbonds>
donor molecule, donor type, donor heavy atom, donor atom, acceptor molecule, acceptor atom, score
      L1  H    14    27       P1  7948  1.98
      P1  H  6896  6909       L1     3  1.89
      P1  H 10752 10763       L1     1  1.62

> <Gold.PLP.Chemscore.Internal.Correction>
0.0944

> <Gold.Rescore>
     Score         DG    S(hbond)    S(metal)    S(lipo)     H(rot)  DE(clash)    DE(int)     intcor
     16.45     -16.62       2.54        0.00      44.55       1.00       0.12       0.05       ----

> <Gold.Chemscore.Fitness>
16.4469

> <Gold.Chemscore.DG>
-16.6170

> <Gold.Chemscore.ZeroCoef>
-5.4800

> <Gold.Chemscore.Hbond>
2.5403

> <Gold.Chemscore.Metal>
0.0000

> <Gold.Chemscore.Lipo>
44.5506

> <Gold.Chemscore.Internal_Hbond>
0.0000

> <Gold.Chemscore.DEClash>
0.1226

> <Gold.Chemscore.DEInternal>
0.0475

> <Gold.Chemscore.Rot>
1.0000

> <Gold.Chemscore.Internal.Correction>
   9.000000E+99

> <Gold.Chemscore.Hbonds>
donor molecule, donor type, donor heavy atom, donor atom, acceptor molecule, acceptor atom, score
      L1  H    14    27       P1  7948  0.66
      P1  H  6896  6909       L1     3  0.77
      P1  H 10752 10763       L1     1  0.76

> <Gold.Chemscore.Hbond.Weighted>
-8.4846

> <Gold.Chemscore.Metal.Weighted>
-0.0000

> <Gold.Chemscore.Lipo.Weighted>
-5.2124

> <Gold.Chemscore.Internal_Hbond.Weighted>
0.0000

> <Gold.Chemscore.DEClash.Weighted>
0.1226

> <Gold.Chemscore.DEInternal.Weighted>
0.0475

> <Gold.Chemscore.Rot.Weighted>
2.5600

> <Gold.Chemscore.Internal.Correction.Weighted>
   9.000000E+99

> <Gold.Protein.RotatedTorsions>
[ 6907 6896 6895 6894 ] final  -50.71 input  -60.11 | X-H torsion
[ 7974 7965 7964 7962 ] final  -44.04 input  175.53 | X-H torsion
[ 8008 7997 7996 7995 ] final  -86.83 input   59.86 | X-H torsion
[ 10167 10162 10161 10158 ] final -128.89 input  -65.29 | X-H torsion
[ 10718 10713 10712 10709 ] final   50.89 input   66.30 | X-H torsion
[ 10763 10752 10751 10750 ] final   95.52 input  -60.55 | X-H torsion
[ 11005 11000 10999 10996 ] final -123.81 input  -57.11 | X-H torsion

> <Gold.Protein.ActiveResidues>
 VAL166  LYS551  ARG553  GLY616  TRP617  ASP618  TYR619  PRO620  LYS621  CYS622 
 ASP623  PHE694  ASN695  SER759  ASP760  ASP761  ALA762  ILE779  LEU786  VAL792 
 PHE793  MET794  SER795  GLU796  ALA797  LYS798  CYS799  TRP800  GLU811  SER814 

> <Gold.Protein.RotatedAtoms>
  150.8681  134.8049  159.7133 H   0  0  0  0  0  0  0  0  0  0  0  0  # atno 6907 bound_to 6896
  152.4695  134.4991  159.9729 H   0  0  0  0  0  0  0  0  0  0  0  0  # atno 6908 bound_to 6896
  151.5084  133.3451  159.2916 H   0  0  0  0  0  0  0  0  0  0  0  0  # atno 6909 bound_to 6896
  145.9960  140.7128  142.9293 H   0  0  0  0  0  0  0  0  0  0  0  0  # atno 7974 bound_to 7965
  154.6563  140.0573  157.0012 H   0  0  0  0  0  0  0  0  0  0  0  0  # atno 8008 bound_to 7997
  155.1295  140.3255  155.4459 H   0  0  0  0  0  0  0  0  0  0  0  0  # atno 8009 bound_to 7997
  156.2598  140.1983  156.6415 H   0  0  0  0  0  0  0  0  0  0  0  0  # atno 8010 bound_to 7997
  139.9456  143.6114  152.2491 H   0  0  0  0  0  0  0  0  0  0  0  0  # atno 10167 bound_to 10162
  157.4928  130.8387  149.8223 H   0  0  0  0  0  0  0  0  0  0  0  0  # atno 10718 bound_to 10713
  153.2542  135.4251  155.0828 H   0  0  0  0  0  0  0  0  0  0  0  0  # atno 10763 bound_to 10752
  154.8394  135.3433  154.6470 H   0  0  0  0  0  0  0  0  0  0  0  0  # atno 10764 bound_to 10752
  153.6891  135.7034  153.5152 H   0  0  0  0  0  0  0  0  0  0  0  0  # atno 10765 bound_to 10752
  140.9890  134.0566  157.3677 H   0  0  0  0  0  0  0  0  0  0  0  0  # atno 11005 bound_to 11000
  144.6904  140.3151  143.7241 LP  0  0  0  0  0  0  0  0  0  0  0  0  # atno 17320 bound_to 7965
  145.7559  139.1808  143.2295 LP  0  0  0  0  0  0  0  0  0  0  0  0  # atno 17321 bound_to 7965
  139.6670  144.7662  151.1855 LP  0  0  0  0  0  0  0  0  0  0  0  0  # atno 17342 bound_to 10162
  140.7598  143.5923  150.8783 LP  0  0  0  0  0  0  0  0  0  0  0  0  # atno 17343 bound_to 10162
  156.0183  130.3805  150.2041 LP  0  0  0  0  0  0  0  0  0  0  0  0  # atno 17370 bound_to 10713
  157.0229  130.9985  151.3334 LP  0  0  0  0  0  0  0  0  0  0  0  0  # atno 17371 bound_to 10713
  139.8983  135.0154  156.7144 LP  0  0  0  0  0  0  0  0  0  0  0  0  # atno 17394 bound_to 11000
  140.7070  133.9257  155.8060 LP  0  0  0  0  0  0  0  0  0  0  0  0  # atno 17395 bound_to 11000

$$$$
