AV-unprocessed.smi:287|AV-procd|sdf|2187|dock1
  -GOLD-   2262021573D 1   1.00000     0.00000
 Structure written by MMmdl.
 55 58  0  0  0  0  0  0  0  0  1 V2000
  151.5739  140.9228  158.8587 C   0  0  0  0  0  0  0  0  0  0  0  0
  150.9996  140.6352  157.5139 C   0  0  0  0  0  0  0  0  0  0  0  0
  149.9057  141.0900  156.8372 C   0  0  0  0  0  0  0  0  0  0  0  0
  149.8803  140.4277  155.5731 C   0  0  0  0  0  0  0  0  0  0  0  0
  148.8427  140.6254  154.4765 C   0  0  1  0  0  0  0  0  0  0  0  0
  147.7676  141.6153  154.9540 C   0  0  0  0  0  0  0  0  0  0  0  0
  149.3881  141.1966  153.3025 O   0  0  0  0  0  0  0  0  0  0  0  0
  148.1829  139.2977  154.0400 C   0  0  0  0  0  0  0  0  0  0  0  0
  147.5217  138.6042  155.1381 N   0  0  0  0  0  0  0  0  0  0  0  0
  147.0671  137.3421  154.9914 C   0  0  0  0  0  0  0  0  0  0  0  0
  147.3259  136.5057  156.0251 N   0  0  0  0  0  0  0  0  0  0  0  0
  146.9153  135.2350  155.9818 C   0  0  0  0  0  0  0  0  0  0  0  0
  146.2413  134.6087  155.0157 N   0  0  0  0  0  0  0  0  0  0  0  0
  145.9768  135.4454  153.9712 C   0  0  0  0  0  0  0  0  0  0  0  0
  146.3517  136.8157  153.8748 C   0  0  0  0  0  0  0  0  0  0  0  0
  145.9051  137.3249  152.6597 N   0  0  0  0  0  0  0  0  0  0  0  0
  145.3047  136.3188  152.0841 C   0  0  0  0  0  0  0  0  0  0  0  0
  145.3102  135.1440  152.8043 N   0  0  0  0  0  0  0  0  0  0  0  0
  144.7210  133.8087  152.4585 C   0  0  1  0  0  0  0  0  0  0  0  0
  144.0305  133.9303  151.2514 O   0  0  0  0  0  0  0  0  0  0  0  0
  144.8310  133.4221  150.1904 C   0  0  2  0  0  0  0  0  0  0  0  0
  143.9835  133.1179  148.9435 C   0  0  0  0  0  0  0  0  0  0  0  0
  143.4879  134.3205  148.3945 O   0  0  0  0  0  0  0  0  0  0  0  0
  145.5058  132.2124  150.8478 C   0  0  2  0  0  0  0  0  0  0  0  0
  144.6272  131.1023  150.8844 O   0  0  0  0  0  0  0  0  0  0  0  0
  145.7984  132.7127  152.2583 C   0  0  1  0  0  0  0  0  0  0  0  0
  147.1316  133.1898  152.3279 O   0  0  0  0  0  0  0  0  0  0  0  0
  150.9918  139.6197  155.5790 C   0  0  0  0  0  0  0  0  0  0  0  0
  151.5916  138.6743  154.5911 C   0  0  0  0  0  0  0  0  0  0  0  0
  151.6721  139.7352  156.7537 O   0  0  0  0  0  0  0  0  0  0  0  0
  144.0252  133.5980  153.2716 H   0  0  0  0  0  0  0  0  0  0  0  0
  145.6073  134.1489  149.9436 H   0  0  0  0  0  0  0  0  0  0  0  0
  146.4072  131.9099  150.3125 H   0  0  0  0  0  0  0  0  0  0  0  0
  145.6710  131.9314  153.0088 H   0  0  0  0  0  0  0  0  0  0  0  0
  150.9052  141.5577  159.4402 H   0  0  0  0  0  0  0  0  0  0  0  0
  152.5320  141.4347  158.7676 H   0  0  0  0  0  0  0  0  0  0  0  0
  151.7336  140.0002  159.4168 H   0  0  0  0  0  0  0  0  0  0  0  0
  149.1969  141.8152  157.2091 H   0  0  0  0  0  0  0  0  0  0  0  0
  147.2580  141.2449  155.8443 H   0  0  0  0  0  0  0  0  0  0  0  0
  147.0083  141.7822  154.1889 H   0  0  0  0  0  0  0  0  0  0  0  0
  148.2033  142.5834  155.2047 H   0  0  0  0  0  0  0  0  0  0  0  0
  149.5144  140.5098  152.6658 H   0  0  0  0  0  0  0  0  0  0  0  0
  147.4218  139.5251  153.2927 H   0  0  0  0  0  0  0  0  0  0  0  0
  148.9112  138.6402  153.5627 H   0  0  0  0  0  0  0  0  0  0  0  0
  147.4206  139.1346  155.9916 H   0  0  0  0  0  0  0  0  0  0  0  0
  147.1628  134.6346  156.8449 H   0  0  0  0  0  0  0  0  0  0  0  0
  144.8397  136.4159  151.1139 H   0  0  0  0  0  0  0  0  0  0  0  0
  144.5978  132.6388  148.1805 H   0  0  0  0  0  0  0  0  0  0  0  0
  143.1610  132.4402  149.1740 H   0  0  0  0  0  0  0  0  0  0  0  0
  142.6902  134.5507  148.8458 H   0  0  0  0  0  0  0  0  0  0  0  0
  145.1435  130.3112  150.8598 H   0  0  0  0  0  0  0  0  0  0  0  0
  147.3720  133.5258  151.4776 H   0  0  0  0  0  0  0  0  0  0  0  0
  151.6975  139.1495  153.6159 H   0  0  0  0  0  0  0  0  0  0  0  0
  150.9633  137.7913  154.4724 H   0  0  0  0  0  0  0  0  0  0  0  0
  152.5803  138.3436  154.9105 H   0  0  0  0  0  0  0  0  0  0  0  0
  1  2  1  0  0  0  0
  1 35  1  0  0  0  0
  1 36  1  0  0  0  0
  1 37  1  0  0  0  0
  2 30  1  0  0  0  0
  2  3  2  0  0  0  0
  3  4  1  0  0  0  0
  3 38  1  0  0  0  0
  4  5  1  0  0  0  0
  4 28  2  0  0  0  0
  5  6  1  0  0  0  0
  5  7  1  0  0  0  0
  5  8  1  0  0  0  0
  6 39  1  0  0  0  0
  6 40  1  0  0  0  0
  6 41  1  0  0  0  0
  7 42  1  0  0  0  0
  8  9  1  0  0  0  0
  8 43  1  0  0  0  0
  8 44  1  0  0  0  0
  9 10  1  0  0  0  0
  9 45  1  0  0  0  0
 10 15  1  0  0  0  0
 10 11  2  0  0  0  0
 11 12  1  0  0  0  0
 12 13  2  0  0  0  0
 12 46  1  0  0  0  0
 13 14  1  0  0  0  0
 14 18  1  0  0  0  0
 14 15  2  0  0  0  0
 15 16  1  0  0  0  0
 16 17  2  0  0  0  0
 17 18  1  0  0  0  0
 17 47  1  0  0  0  0
 18 19  1  0  0  0  0
 19 31  1  0  0  0  0
 19 26  1  0  0  0  0
 19 20  1  0  0  0  0
 20 21  1  0  0  0  0
 21 32  1  0  0  0  0
 21 22  1  0  0  0  0
 21 24  1  0  0  0  0
 22 23  1  0  0  0  0
 22 48  1  0  0  0  0
 22 49  1  0  0  0  0
 23 50  1  0  0  0  0
 24 33  1  0  0  0  0
 24 25  1  0  0  0  0
 24 26  1  0  0  0  0
 25 51  1  0  0  0  0
 26 34  1  0  0  0  0
 26 27  1  0  0  0  0
 27 52  1  0  0  0  0
 28 29  1  0  0  0  0
 28 30  1  0  0  0  0
 29 53  1  0  0  0  0
 29 54  1  0  0  0  0
 29 55  1  0  0  0  0
M  END
> <s_m_source_file>
AV-unprocessed.smi

> <i_m_source_file_index>
287

> <i_lp_mmshare_version>
43012

> <i_f3d_flags>
0

> <s_epik_input>
W0NIM11jMVtjSF1jKGMobzEpW0NIM10pW0NAQF0oW0NIM10pKFtPSF0pW0NIMl1bTkhdYyhuW2NIXW4yKWMoYzIzKW5bY0hdbjNbQ0BASF00T1tDQEhdKFtDSDJdW09IXSlbQ0BASF0oW09IXSlbQ0BIXTRbT0hd

> <s_epik_cmdline>
J2VwaWtfcHl0aG9uJywgJy1waCcsICc3LjAnLCAnLXRuJywgJzgnLCAnLW1hJywgJzIwMCcsICctbWV0YWxfYmluZGluZycsICctaW1hZScsICc8aW5maWxlLm1hZT4nLCAnLW9tYWUnLCAnPG91dGZpbGUubWFlPic=

> <r_lp_tautomer_probability>
1

> <r_epik_Ionization_Penalty>
0.000992612

> <r_epik_Ionization_Penalty_Charging>
0

> <r_epik_Ionization_Penalty_Neutral>
0.000992612

> <r_epik_State_Penalty>
-0

> <r_epik_Charging_Adjusted_Penalty>
0

> <i_epik_Tot_Q>
0

> <i_epik_Tot_abs_Q>
0

> <r_epik_Metal_State_Penalty>
-0

> <b_epik_Metal_Only>
0

> <s_epik_Chemistry_Notes>
This compound contains an acetal/aminal-like group ( X-CH(R)-Y where X, Y are N, S, or O) that may be acid/base labile, releasing an aldehyde.

> <s_lp_Force_Field>
OPLS_2005

> <r_lp_Energy>
42.7121

> <b_lp_Chiralities_Consistent>
1

> <s_lp_Variant>
AV-unprocessed.smi:287-11

> <Gold.Version>
5.8.1

> <Gold.Id.Protein>
6NUR|6NUR_protein|mol2

> <Gold.PLP.Fitness>
50.6050

> <Gold.PLP.PLP>
-41.0220

> <Gold.PLP.part.hbond>
-4.9814

> <Gold.PLP.part.metal>
0.0000

> <Gold.PLP.part.buried>
-5.4407

> <Gold.PLP.part.nonpolar>
-31.0283

> <Gold.PLP.part.repulsive>
0.4590

> <Gold.PLP.ligand.clash>
0.0000

> <Gold.PLP.ligand.torsion>
0.5336

> <Gold.PLP.Chemscore.Hbond>
2.8819

> <Gold.PLP.Chemscore.CHOScore>
0.6115

> <Gold.PLP.Chemscore.Metal>
0.0000

> <Gold.Chemscore.Hbonds>
donor molecule, donor type, donor heavy atom, donor atom, acceptor molecule, acceptor atom, score
      L1  H     7    42       P1  7957  0.99
      L1  H    23    50       P1 10186  1.00
      P1  H  8011  8017       L1     7  0.80
      L1  C    17    47       P1 10171  0.56

> <Gold.PLP.Chemscore.Internal.Correction>
0.1703

> <Gold.Rescore>
     Score         DG    S(hbond)    S(metal)    S(lipo)     H(rot)  DE(clash)    DE(int)     intcor
      8.71     -10.07       2.16        0.00      92.87       5.27       0.03       1.34       ----

> <Gold.Chemscore.Fitness>
8.7052

> <Gold.Chemscore.DG>
-10.0746

> <Gold.Chemscore.ZeroCoef>
-5.4800

> <Gold.Chemscore.Hbond>
2.1595

> <Gold.Chemscore.Metal>
0.0000

> <Gold.Chemscore.Lipo>
92.8698

> <Gold.Chemscore.Internal_Hbond>
0.0000

> <Gold.Chemscore.DEClash>
0.0282

> <Gold.Chemscore.DEInternal>
1.3412

> <Gold.Chemscore.Rot>
5.2672

> <Gold.Chemscore.Internal.Correction>
   9.000000E+99

> <Gold.Chemscore.Hbonds>
donor molecule, donor type, donor heavy atom, donor atom, acceptor molecule, acceptor atom, score
      L1  H     7    42       P1  7957  0.91
      L1  H    23    50       P1 10186  1.00
      P1  H  8011  8017       L1     7  0.11

> <Gold.Chemscore.Hbond.Weighted>
-7.2127

> <Gold.Chemscore.Metal.Weighted>
-0.0000

> <Gold.Chemscore.Lipo.Weighted>
-10.8658

> <Gold.Chemscore.Internal_Hbond.Weighted>
0.0000

> <Gold.Chemscore.DEClash.Weighted>
0.0282

> <Gold.Chemscore.DEInternal.Weighted>
1.3412

> <Gold.Chemscore.Rot.Weighted>
13.4839

> <Gold.Chemscore.Internal.Correction.Weighted>
   9.000000E+99

> <Gold.Protein.RotatedTorsions>
[ 6907 6896 6895 6894 ] final   31.97 input  -60.11 | X-H torsion
[ 7974 7965 7964 7962 ] final  173.86 input  175.53 | X-H torsion
[ 8008 7997 7996 7995 ] final  -11.42 input   59.86 | X-H torsion
[ 10167 10162 10161 10158 ] final -147.19 input  -65.29 | X-H torsion
[ 10718 10713 10712 10709 ] final -156.66 input   66.30 | X-H torsion
[ 10763 10752 10751 10750 ] final  -89.65 input  -60.55 | X-H torsion
[ 11005 11000 10999 10996 ] final  -35.87 input  -57.11 | X-H torsion

> <Gold.Protein.ActiveResidues>
 VAL166  LYS551  ARG553  GLY616  TRP617  ASP618  TYR619  PRO620  LYS621  CYS622 
 ASP623  PHE694  ASN695  SER759  ASP760  ASP761  ALA762  ILE779  LEU786  VAL792 
 PHE793  MET794  SER795  GLU796  ALA797  LYS798  CYS799  TRP800  GLU811  SER814 

> <Gold.Protein.RotatedAtoms>
  152.0679  134.9553  160.0574 H   0  0  0  0  0  0  0  0  0  0  0  0  # atno 6907 bound_to 6896
  152.0890  133.4186  159.4543 H   0  0  0  0  0  0  0  0  0  0  0  0  # atno 6908 bound_to 6896
  150.6836  134.2813  159.4672 H   0  0  0  0  0  0  0  0  0  0  0  0  # atno 6909 bound_to 6896
  144.7234  139.9711  143.6437 H   0  0  0  0  0  0  0  0  0  0  0  0  # atno 7974 bound_to 7965
  154.5466  140.2303  155.8552 H   0  0  0  0  0  0  0  0  0  0  0  0  # atno 8008 bound_to 7997
  156.1909  140.3077  155.9291 H   0  0  0  0  0  0  0  0  0  0  0  0  # atno 8009 bound_to 7997
  155.3152  140.0437  157.3027 H   0  0  0  0  0  0  0  0  0  0  0  0  # atno 8010 bound_to 7997
  139.7644  143.8329  152.2613 H   0  0  0  0  0  0  0  0  0  0  0  0  # atno 10167 bound_to 10162
  156.5296  130.8515  151.2711 H   0  0  0  0  0  0  0  0  0  0  0  0  # atno 10718 bound_to 10713
  154.6575  135.5333  153.7976 H   0  0  0  0  0  0  0  0  0  0  0  0  # atno 10763 bound_to 10752
  153.0422  135.6497  154.0923 H   0  0  0  0  0  0  0  0  0  0  0  0  # atno 10764 bound_to 10752
  154.0835  135.2945  155.3265 H   0  0  0  0  0  0  0  0  0  0  0  0  # atno 10765 bound_to 10752
  140.9830  133.7046  156.1717 H   0  0  0  0  0  0  0  0  0  0  0  0  # atno 11005 bound_to 11000
  146.0562  139.3559  143.0609 LP  0  0  0  0  0  0  0  0  0  0  0  0  # atno 17320 bound_to 7965
  145.8151  140.9706  143.0928 LP  0  0  0  0  0  0  0  0  0  0  0  0  # atno 17321 bound_to 7965
  139.8345  144.7238  150.9408 LP  0  0  0  0  0  0  0  0  0  0  0  0  # atno 17342 bound_to 10162
  140.7809  143.4039  151.1103 LP  0  0  0  0  0  0  0  0  0  0  0  0  # atno 17343 bound_to 10162
  157.7424  130.9889  150.2512 LP  0  0  0  0  0  0  0  0  0  0  0  0  # atno 17370 bound_to 10713
  156.3072  130.3767  149.7695 LP  0  0  0  0  0  0  0  0  0  0  0  0  # atno 17371 bound_to 10713
  140.7157  134.4413  157.5578 LP  0  0  0  0  0  0  0  0  0  0  0  0  # atno 17394 bound_to 11000
  139.8958  134.8674  156.2114 LP  0  0  0  0  0  0  0  0  0  0  0  0  # atno 17395 bound_to 11000

$$$$
