AV-unprocessed.smi:1543|AV-procd|sdf|6209|dock4
  -GOLD-   22720 6383D 1   1.00000     0.00000
 Structure written by MMmdl.
 49 50  0  0  0  0  0  0  0  0  2 V2000
  149.2968  141.2494  154.7818 C   0  0  0  0  0  0  0  0  0  0  0  0
  149.8543  139.8482  155.0550 C   0  0  1  0  0  0  0  0  0  0  0  0
  149.1818  138.7778  154.1782 C   0  0  0  0  0  0  0  0  0  0  0  0
  149.7592  137.4224  154.4102 N   0  3  2  0  0  0  0  0  0  0  0  0
  149.1883  136.5377  155.4986 C   0  0  0  0  0  0  0  0  0  0  0  0
  150.1023  136.6888  156.7384 C   0  0  0  0  0  0  0  0  0  0  0  0
  147.7516  136.9503  155.9061 C   0  0  0  0  0  0  0  0  0  0  0  0
  149.1943  135.0339  155.0777 C   0  0  0  0  0  0  0  0  0  0  0  0
  148.5430  134.7606  153.7953 N   0  0  0  0  0  0  0  0  0  0  0  0
  147.5132  133.9232  153.6017 C   0  0  0  0  0  0  0  0  0  0  0  0
  147.0016  133.2581  154.5022 O   0  0  0  0  0  0  0  0  0  0  0  0
  147.1234  133.9235  152.3156 N   0  0  0  0  0  0  0  0  0  0  0  0
  146.0816  133.1741  151.7046 C   0  0  0  0  0  0  0  0  0  0  0  0
  145.6423  131.9039  152.1506 C   0  0  0  0  0  0  0  0  0  0  0  0
  144.6104  131.2554  151.4453 C   0  0  0  0  0  0  0  0  0  0  0  0
  144.0606  131.8950  150.3175 C   0  0  0  0  0  0  0  0  0  0  0  0
  144.4778  133.0990  149.8736 N   0  0  0  0  0  0  0  0  0  0  0  0
  145.4677  133.7146  150.5546 C   0  0  0  0  0  0  0  0  0  0  0  0
  151.2434  137.4703  154.2696 C   0  0  0  0  0  0  0  0  0  0  0  0
  151.8882  138.6347  155.0631 C   0  0  1  0  0  0  0  0  0  0  0  0
  153.3782  138.7878  154.7383 C   0  0  0  0  0  0  0  0  0  0  0  0
  151.2420  139.8607  154.7444 O   0  0  0  0  0  0  0  0  0  0  0  0
  148.2309  141.2980  155.0065 H   0  0  0  0  0  0  0  0  0  0  0  0
  149.4325  141.5335  153.7380 H   0  0  0  0  0  0  0  0  0  0  0  0
  149.7993  141.9955  155.3978 H   0  0  0  0  0  0  0  0  0  0  0  0
  149.7100  139.6248  156.1119 H   0  0  0  0  0  0  0  0  0  0  0  0
  148.0978  138.8177  154.2548 H   0  0  0  0  0  0  0  0  0  0  0  0
  149.3795  139.0262  153.1344 H   0  0  0  0  0  0  0  0  0  0  0  0
  149.7544  136.0884  157.5795 H   0  0  0  0  0  0  0  0  0  0  0  0
  150.1492  137.7161  157.0974 H   0  0  0  0  0  0  0  0  0  0  0  0
  151.1231  136.3763  156.5158 H   0  0  0  0  0  0  0  0  0  0  0  0
  147.3782  136.3406  156.7284 H   0  0  0  0  0  0  0  0  0  0  0  0
  147.0461  136.8343  155.0849 H   0  0  0  0  0  0  0  0  0  0  0  0
  147.6965  137.9774  156.2645 H   0  0  0  0  0  0  0  0  0  0  0  0
  150.2151  134.6519  155.0341 H   0  0  0  0  0  0  0  0  0  0  0  0
  148.6736  134.4370  155.8277 H   0  0  0  0  0  0  0  0  0  0  0  0
  148.8955  135.2645  152.9942 H   0  0  0  0  0  0  0  0  0  0  0  0
  147.5920  134.5810  151.7093 H   0  0  0  0  0  0  0  0  0  0  0  0
  146.0796  131.4097  153.0036 H   0  0  0  0  0  0  0  0  0  0  0  0
  144.2515  130.2868  151.7598 H   0  0  0  0  0  0  0  0  0  0  0  0
  143.2686  131.4245  149.7538 H   0  0  0  0  0  0  0  0  0  0  0  0
  145.7770  134.6752  150.1690 H   0  0  0  0  0  0  0  0  0  0  0  0
  151.7089  136.5210  154.5306 H   0  0  0  0  0  0  0  0  0  0  0  0
  151.4548  137.6162  153.2094 H   0  0  0  0  0  0  0  0  0  0  0  0
  151.8022  138.4730  156.1361 H   0  0  0  0  0  0  0  0  0  0  0  0
  153.9285  137.8795  154.9846 H   0  0  0  0  0  0  0  0  0  0  0  0
  153.8188  139.6067  155.3071 H   0  0  0  0  0  0  0  0  0  0  0  0
  153.5339  138.9971  153.6796 H   0  0  0  0  0  0  0  0  0  0  0  0
  149.4605  136.9230  153.5845 H   0  0  0  0  0  0  0  0  0  0  0  0
  1  2  1  0  0  0  0
  1 23  1  0  0  0  0
  1 24  1  0  0  0  0
  1 25  1  0  0  0  0
  2 22  1  0  0  0  0
  2  3  1  0  0  0  0
  2 26  1  0  0  0  0
  3  4  1  0  0  0  0
  3 27  1  0  0  0  0
  3 28  1  0  0  0  0
  4  5  1  0  0  0  0
  4 19  1  0  0  0  0
  4 49  1  0  0  0  0
  5  6  1  0  0  0  0
  5  7  1  0  0  0  0
  5  8  1  0  0  0  0
  6 29  1  0  0  0  0
  6 30  1  0  0  0  0
  6 31  1  0  0  0  0
  7 32  1  0  0  0  0
  7 33  1  0  0  0  0
  7 34  1  0  0  0  0
  8  9  1  0  0  0  0
  8 35  1  0  0  0  0
  8 36  1  0  0  0  0
  9 10  1  0  0  0  0
  9 37  1  0  0  0  0
 10 11  2  0  0  0  0
 10 12  1  0  0  0  0
 12 13  1  0  0  0  0
 12 38  1  0  0  0  0
 13 18  1  0  0  0  0
 13 14  2  0  0  0  0
 14 15  1  0  0  0  0
 14 39  1  0  0  0  0
 15 16  2  0  0  0  0
 15 40  1  0  0  0  0
 16 17  1  0  0  0  0
 16 41  1  0  0  0  0
 17 18  2  0  0  0  0
 18 42  1  0  0  0  0
 19 20  1  0  0  0  0
 19 43  1  0  0  0  0
 19 44  1  0  0  0  0
 20 21  1  0  0  0  0
 20 22  1  0  0  0  0
 20 45  1  0  0  0  0
 21 46  1  0  0  0  0
 21 47  1  0  0  0  0
 21 48  1  0  0  0  0
M  CHG  1   4   1
M  END
> <s_m_source_file>
AV-unprocessed.smi

> <i_m_source_file_index>
1543

> <i_lp_mmshare_version>
43012

> <i_f3d_flags>
0

> <s_epik_input>
W0NIM11bQ0BASF0xW0NIMl1OKFtDSDJdW0NASF0oTzEpW0NIM10pQyhbQ0gzXSkoW0NIM10pW0NIMl1bTkhdQyg9TylbTkhdYzJbY0hdW2NIXVtjSF1uW2NIXTI=

> <s_epik_cmdline>
J2VwaWtfcHl0aG9uJywgJy1waCcsICc3LjAnLCAnLXRuJywgJzgnLCAnLW1hJywgJzIwMCcsICctbWV0YWxfYmluZGluZycsICctaW1hZScsICc8aW5maWxlLm1hZT4nLCAnLW9tYWUnLCAnPG91dGZpbGUubWFlPic=

> <r_epik_Ionization_Penalty>
0.60676

> <r_epik_Ionization_Penalty_Charging>
0.602531

> <r_epik_Ionization_Penalty_Neutral>
0.00422967

> <r_epik_State_Penalty>
0.607492

> <r_epik_Charging_Adjusted_Penalty>
1.21002

> <i_epik_Tot_Q>
1

> <i_epik_Tot_abs_Q>
1

> <r_epik_Metal_State_Penalty>
0.604589

> <b_epik_Metal_Only>
0

> <s_lp_Force_Field>
OPLS_2005

> <r_lp_Energy>
33.1144

> <b_lp_Chiralities_Consistent>
1

> <s_lp_Variant>
AV-unprocessed.smi:1543-5

> <Gold.Version>
5.8.1

> <Gold.Id.Protein>
6NUR|6NUR_protein|mol2

> <Gold.PLP.Fitness>
50.5236

> <Gold.PLP.PLP>
-35.8069

> <Gold.PLP.part.hbond>
-3.5510

> <Gold.PLP.part.metal>
0.0000

> <Gold.PLP.part.buried>
-0.7494

> <Gold.PLP.part.nonpolar>
-31.0785

> <Gold.PLP.part.repulsive>
0.3364

> <Gold.PLP.ligand.clash>
0.0000

> <Gold.PLP.ligand.torsion>
1.3021

> <Gold.PLP.Chemscore.Hbond>
4.4574

> <Gold.PLP.Chemscore.CHOScore>
1.2266

> <Gold.PLP.Chemscore.Metal>
0.0000

> <Gold.Chemscore.Hbonds>
donor molecule, donor type, donor heavy atom, donor atom, acceptor molecule, acceptor atom, score
      L1  H     4    49       P1  7948  2.00
      L1  H     9    37       P1  7948  0.81
      L1  H    12    38       P1  7948  0.69
      P1  H  7989  7998       L1    22  1.00
      L1  C    16    41       P1 10952  0.62
      L1  C    18    42       P1  7921  0.68

> <Gold.PLP.Chemscore.Internal.Correction>
0.2687

> <Gold.Rescore>
     Score         DG    S(hbond)    S(metal)    S(lipo)     H(rot)  DE(clash)    DE(int)     intcor
     20.28     -22.10       2.88        0.00      92.00       1.46       0.04       1.78       ----

> <Gold.Chemscore.Fitness>
20.2821

> <Gold.Chemscore.DG>
-22.1047

> <Gold.Chemscore.ZeroCoef>
-5.4800

> <Gold.Chemscore.Hbond>
2.8760

> <Gold.Chemscore.Metal>
0.0000

> <Gold.Chemscore.Lipo>
92.0046

> <Gold.Chemscore.Internal_Hbond>
0.0000

> <Gold.Chemscore.DEClash>
0.0398

> <Gold.Chemscore.DEInternal>
1.7828

> <Gold.Chemscore.Rot>
1.4632

> <Gold.Chemscore.Internal.Correction>
   9.000000E+99

> <Gold.Chemscore.Hbonds>
donor molecule, donor type, donor heavy atom, donor atom, acceptor molecule, acceptor atom, score
      L1  H     4    49       P1  7948  0.90
      L1  H     9    37       P1  7948  0.32
      L1  H    12    38       P1  7948  0.23
      P1  H  7989  7998       L1    22  0.88

> <Gold.Chemscore.Hbond.Weighted>
-9.6060

> <Gold.Chemscore.Metal.Weighted>
-0.0000

> <Gold.Chemscore.Lipo.Weighted>
-10.7645

> <Gold.Chemscore.Internal_Hbond.Weighted>
0.0000

> <Gold.Chemscore.DEClash.Weighted>
0.0398

> <Gold.Chemscore.DEInternal.Weighted>
1.7828

> <Gold.Chemscore.Rot.Weighted>
3.7459

> <Gold.Chemscore.Internal.Correction.Weighted>
   9.000000E+99

> <Gold.Protein.RotatedTorsions>
[ 6907 6896 6895 6894 ] final  -52.73 input  -60.11 | X-H torsion
[ 7974 7965 7964 7962 ] final -111.69 input  175.53 | X-H torsion
[ 8008 7997 7996 7995 ] final -126.11 input   59.86 | X-H torsion
[ 10167 10162 10161 10158 ] final   20.80 input  -65.29 | X-H torsion
[ 10718 10713 10712 10709 ] final -170.88 input   66.30 | X-H torsion
[ 10763 10752 10751 10750 ] final -112.46 input  -60.55 | X-H torsion
[ 11005 11000 10999 10996 ] final -171.36 input  -57.11 | X-H torsion

> <Gold.Protein.ActiveResidues>
 VAL166  LYS551  ARG553  GLY616  TRP617  ASP618  TYR619  PRO620  LYS621  CYS622 
 ASP623  PHE694  ASN695  SER759  ASP760  ASP761  ALA762  ILE779  LEU786  VAL792 
 PHE793  MET794  SER795  GLU796  ALA797  LYS798  CYS799  TRP800  GLU811  SER814 

> <Gold.Protein.RotatedAtoms>
  150.8491  134.7809  159.6993 H   0  0  0  0  0  0  0  0  0  0  0  0  # atno 6907 bound_to 6896
  152.4560  134.5287  159.9814 H   0  0  0  0  0  0  0  0  0  0  0  0  # atno 6908 bound_to 6896
  151.5411  133.3394  159.2971 H   0  0  0  0  0  0  0  0  0  0  0  0  # atno 6909 bound_to 6896
  145.1530  140.8839  143.3635 H   0  0  0  0  0  0  0  0  0  0  0  0  # atno 7974 bound_to 7965
  155.2244  140.0423  157.2953 H   0  0  0  0  0  0  0  0  0  0  0  0  # atno 8008 bound_to 7997
  154.5929  140.2431  155.7867 H   0  0  0  0  0  0  0  0  0  0  0  0  # atno 8009 bound_to 7997
  156.2271  140.2951  156.0103 H   0  0  0  0  0  0  0  0  0  0  0  0  # atno 8010 bound_to 7997
  140.5476  143.9567  150.6557 H   0  0  0  0  0  0  0  0  0  0  0  0  # atno 10167 bound_to 10162
  156.7327  130.9312  151.3105 H   0  0  0  0  0  0  0  0  0  0  0  0  # atno 10718 bound_to 10713
  154.8350  135.4490  154.1197 H   0  0  0  0  0  0  0  0  0  0  0  0  # atno 10763 bound_to 10752
  153.2436  135.6919  153.7762 H   0  0  0  0  0  0  0  0  0  0  0  0  # atno 10764 bound_to 10752
  153.7100  135.3358  155.3220 H   0  0  0  0  0  0  0  0  0  0  0  0  # atno 10765 bound_to 10752
  140.5091  134.5819  157.5013 H   0  0  0  0  0  0  0  0  0  0  0  0  # atno 11005 bound_to 11000
  145.0411  139.3259  143.5976 LP  0  0  0  0  0  0  0  0  0  0  0  0  # atno 17320 bound_to 7965
  146.3492  139.9784  142.8698 LP  0  0  0  0  0  0  0  0  0  0  0  0  # atno 17321 bound_to 7965
  140.2984  143.3277  152.0995 LP  0  0  0  0  0  0  0  0  0  0  0  0  # atno 17342 bound_to 10162
  139.5014  144.6712  151.6238 LP  0  0  0  0  0  0  0  0  0  0  0  0  # atno 17343 bound_to 10162
  157.6852  130.9178  150.0367 LP  0  0  0  0  0  0  0  0  0  0  0  0  # atno 17370 bound_to 10713
  156.1518  130.3642  149.9428 LP  0  0  0  0  0  0  0  0  0  0  0  0  # atno 17371 bound_to 10713
  139.9669  134.7358  156.0120 LP  0  0  0  0  0  0  0  0  0  0  0  0  # atno 17394 bound_to 11000
  141.1395  133.6568  156.3689 LP  0  0  0  0  0  0  0  0  0  0  0  0  # atno 17395 bound_to 11000

$$$$
