AV-unprocessed.smi:2100|AV-procd|sdf|8575|dock6
  -GOLD-   2272011303D 1   1.00000     0.00000
 Structure written by MMmdl.
 41 42  0  0  0  0  0  0  0  0  1 V2000
  149.1454  139.0555  153.3889 C   0  0  0  0  0  0  0  0  0  0  0  0
  149.7975  139.2386  154.7636 C   0  0  1  0  0  0  0  0  0  0  0  0
  150.2771  137.9018  155.3549 C   0  0  0  0  0  0  0  0  0  0  0  0
  151.0156  138.1169  156.6070 N   0  0  0  0  0  0  0  0  0  0  0  0
  151.3152  136.7232  157.5909 S   0  0  0  0  0  0  0  0  0  0  0  0
  152.4314  135.9633  157.0070 O   0  0  0  0  0  0  0  0  0  0  0  0
  151.3347  137.1508  158.9978 O   0  0  0  0  0  0  0  0  0  0  0  0
  149.8582  135.8470  157.3030 N   0  0  0  0  0  0  0  0  0  0  0  0
  149.0950  135.3137  158.4328 C   0  0  0  0  0  0  0  0  0  0  0  0
  148.7047  136.4300  159.4158 C   0  0  0  0  0  0  0  0  0  0  0  0
  147.6852  135.9941  160.4563 C   0  0  0  0  0  0  0  0  0  0  0  0
  147.8037  134.7404  161.0937 C   0  0  0  0  0  0  0  0  0  0  0  0
  146.8380  134.3798  162.0534 C   0  0  0  0  0  0  0  0  0  0  0  0
  145.7916  135.2794  162.3335 C   0  0  0  0  0  0  0  0  0  0  0  0
  145.7608  136.5071  161.6430 C   0  0  0  0  0  0  0  0  0  0  0  0
  146.6849  136.8644  160.7254 N   0  0  0  0  0  0  0  0  0  0  0  0
  152.1004  139.1048  156.4741 C   0  0  0  0  0  0  0  0  0  0  0  0
  151.6044  140.4065  155.8164 C   0  0  2  0  0  0  0  0  0  0  0  0
  150.7895  141.2964  156.7705 C   0  0  0  0  0  0  0  0  0  0  0  0
  150.9006  140.1240  154.6099 O   0  0  0  0  0  0  0  0  0  0  0  0
  148.2820  138.3924  153.4493 H   0  0  0  0  0  0  0  0  0  0  0  0
  149.8473  138.6278  152.6725 H   0  0  0  0  0  0  0  0  0  0  0  0
  148.8031  140.0108  152.9902 H   0  0  0  0  0  0  0  0  0  0  0  0
  149.0568  139.6846  155.4274 H   0  0  0  0  0  0  0  0  0  0  0  0
  149.4198  137.2544  155.5400 H   0  0  0  0  0  0  0  0  0  0  0  0
  150.9259  137.3801  154.6499 H   0  0  0  0  0  0  0  0  0  0  0  0
  149.9316  135.2023  156.5156 H   0  0  0  0  0  0  0  0  0  0  0  0
  148.2019  134.8044  158.0693 H   0  0  0  0  0  0  0  0  0  0  0  0
  149.7059  134.5659  158.9390 H   0  0  0  0  0  0  0  0  0  0  0  0
  149.5994  136.7809  159.9311 H   0  0  0  0  0  0  0  0  0  0  0  0
  148.3168  137.2920  158.8709 H   0  0  0  0  0  0  0  0  0  0  0  0
  148.6144  134.0681  160.8543 H   0  0  0  0  0  0  0  0  0  0  0  0
  146.8963  133.4286  162.5614 H   0  0  0  0  0  0  0  0  0  0  0  0
  145.0314  135.0349  163.0605 H   0  0  0  0  0  0  0  0  0  0  0  0
  144.9732  137.2214  161.8326 H   0  0  0  0  0  0  0  0  0  0  0  0
  152.5396  139.3215  157.4473 H   0  0  0  0  0  0  0  0  0  0  0  0
  152.8922  138.6656  155.8659 H   0  0  0  0  0  0  0  0  0  0  0  0
  152.4817  140.9838  155.5235 H   0  0  0  0  0  0  0  0  0  0  0  0
  151.4098  141.6325  157.5999 H   0  0  0  0  0  0  0  0  0  0  0  0
  149.9355  140.7724  157.1987 H   0  0  0  0  0  0  0  0  0  0  0  0
  150.4192  142.1833  156.2566 H   0  0  0  0  0  0  0  0  0  0  0  0
  1  2  1  0  0  0  0
  1 21  1  0  0  0  0
  1 22  1  0  0  0  0
  1 23  1  0  0  0  0
  2 20  1  0  0  0  0
  2  3  1  0  0  0  0
  2 24  1  0  0  0  0
  3  4  1  0  0  0  0
  3 25  1  0  0  0  0
  3 26  1  0  0  0  0
  4  5  1  0  0  0  0
  4 17  1  0  0  0  0
  5  6  2  0  0  0  0
  5  7  2  0  0  0  0
  5  8  1  0  0  0  0
  8  9  1  0  0  0  0
  8 27  1  0  0  0  0
  9 10  1  0  0  0  0
  9 28  1  0  0  0  0
  9 29  1  0  0  0  0
 10 11  1  0  0  0  0
 10 30  1  0  0  0  0
 10 31  1  0  0  0  0
 11 16  1  0  0  0  0
 11 12  2  0  0  0  0
 12 13  1  0  0  0  0
 12 32  1  0  0  0  0
 13 14  2  0  0  0  0
 13 33  1  0  0  0  0
 14 15  1  0  0  0  0
 14 34  1  0  0  0  0
 15 16  2  0  0  0  0
 15 35  1  0  0  0  0
 17 18  1  0  0  0  0
 17 36  1  0  0  0  0
 17 37  1  0  0  0  0
 18 19  1  0  0  0  0
 18 20  1  0  0  0  0
 18 38  1  0  0  0  0
 19 39  1  0  0  0  0
 19 40  1  0  0  0  0
 19 41  1  0  0  0  0
M  END
> <s_m_source_file>
AV-unprocessed.smi

> <i_m_source_file_index>
2100

> <i_lp_mmshare_version>
43012

> <i_f3d_flags>
0

> <s_epik_input>
W0NIM11bQ0BASF0xW0NIMl1OKFtDSDJdW0NASF0oTzEpW0NIM10pUyg9TykoPU8pW05IXVtDSDJdW0NIMl1jMltjSF1bY0hdW2NIXVtjSF1uMg==

> <s_epik_cmdline>
J2VwaWtfcHl0aG9uJywgJy1waCcsICc3LjAnLCAnLXRuJywgJzgnLCAnLW1hJywgJzIwMCcsICctbWV0YWxfYmluZGluZycsICctaW1hZScsICc8aW5maWxlLm1hZT4nLCAnLW9tYWUnLCAnPG91dGZpbGUubWFlPic=

> <r_epik_Ionization_Penalty>
0.085378

> <r_epik_Ionization_Penalty_Charging>
0

> <r_epik_Ionization_Penalty_Neutral>
0.085378

> <r_epik_State_Penalty>
0.0441186

> <r_epik_Charging_Adjusted_Penalty>
0.0441186

> <i_epik_Tot_Q>
0

> <i_epik_Tot_abs_Q>
0

> <r_epik_Metal_State_Penalty>
0.24397

> <b_epik_Metal_Only>
0

> <s_lp_Force_Field>
OPLS_2005

> <r_lp_Energy>
8.75792

> <b_lp_Chiralities_Consistent>
1

> <s_lp_Variant>
AV-unprocessed.smi:2100-3

> <Gold.Version>
5.8.1

> <Gold.Id.Protein>
6NUR|6NUR_protein|mol2

> <Gold.PLP.Fitness>
44.7187

> <Gold.PLP.PLP>
-32.5161

> <Gold.PLP.part.hbond>
-5.0000

> <Gold.PLP.part.metal>
0.0000

> <Gold.PLP.part.buried>
-2.3388

> <Gold.PLP.part.nonpolar>
-25.7330

> <Gold.PLP.part.repulsive>
0.1032

> <Gold.PLP.ligand.clash>
0.0000

> <Gold.PLP.ligand.torsion>
1.0092

> <Gold.PLP.Chemscore.Hbond>
4.4960

> <Gold.PLP.Chemscore.CHOScore>
0.0000

> <Gold.PLP.Chemscore.Metal>
0.0000

> <Gold.Chemscore.Hbonds>
donor molecule, donor type, donor heavy atom, donor atom, acceptor molecule, acceptor atom, score
      P1  H  6896  6909       L1     7  0.47
      P1  H  6934  6947       L1    16  0.52
      P1  H  7989  7998       L1    20  0.99
      P1  H 10752 10764       L1     6  0.70

> <Gold.PLP.Chemscore.Internal.Correction>
0.7330

> <Gold.Rescore>
     Score         DG    S(hbond)    S(metal)    S(lipo)     H(rot)  DE(clash)    DE(int)     intcor
     20.02     -22.46       3.54        0.00      81.26       1.71       0.30       2.14       ----

> <Gold.Chemscore.Fitness>
20.0173

> <Gold.Chemscore.DG>
-22.4562

> <Gold.Chemscore.ZeroCoef>
-5.4800

> <Gold.Chemscore.Hbond>
3.5436

> <Gold.Chemscore.Metal>
0.0000

> <Gold.Chemscore.Lipo>
81.2633

> <Gold.Chemscore.Internal_Hbond>
0.0000

> <Gold.Chemscore.DEClash>
0.2965

> <Gold.Chemscore.DEInternal>
2.1424

> <Gold.Chemscore.Rot>
1.7060

> <Gold.Chemscore.Internal.Correction>
   9.000000E+99

> <Gold.Chemscore.Hbonds>
donor molecule, donor type, donor heavy atom, donor atom, acceptor molecule, acceptor atom, score
      P1  H  6896  6909       L1     7  0.08
      P1  H  6934  6947       L1    16  0.37
      P1  H  7989  7998       L1    20  0.51
      P1  H 10752 10764       L1     6  0.68

> <Gold.Chemscore.Hbond.Weighted>
-11.8358

> <Gold.Chemscore.Metal.Weighted>
-0.0000

> <Gold.Chemscore.Lipo.Weighted>
-9.5078

> <Gold.Chemscore.Internal_Hbond.Weighted>
0.0000

> <Gold.Chemscore.DEClash.Weighted>
0.2965

> <Gold.Chemscore.DEInternal.Weighted>
2.1424

> <Gold.Chemscore.Rot.Weighted>
4.3674

> <Gold.Chemscore.Internal.Correction.Weighted>
   9.000000E+99

> <Gold.Protein.RotatedTorsions>
[ 6907 6896 6895 6894 ] final  100.05 input  -60.11 | X-H torsion
[ 7974 7965 7964 7962 ] final   88.06 input  175.53 | X-H torsion
[ 8008 7997 7996 7995 ] final  -26.06 input   59.86 | X-H torsion
[ 10167 10162 10161 10158 ] final  -19.00 input  -65.29 | X-H torsion
[ 10718 10713 10712 10709 ] final   89.57 input   66.30 | X-H torsion
[ 10763 10752 10751 10750 ] final  -32.92 input  -60.55 | X-H torsion
[ 11005 11000 10999 10996 ] final  163.74 input  -57.11 | X-H torsion

> <Gold.Protein.ActiveResidues>
 VAL166  LYS551  ARG553  GLY616  TRP617  ASP618  TYR619  PRO620  LYS621  CYS622 
 ASP623  PHE694  ASN695  SER759  ASP760  ASP761  ALA762  ILE779  LEU786  VAL792 
 PHE793  MET794  SER795  GLU796  ALA797  LYS798  CYS799  TRP800  GLU811  SER814 

> <Gold.Protein.RotatedAtoms>
  152.5380  134.0335  159.8035 H   0  0  0  0  0  0  0  0  0  0  0  0  # atno 6907 bound_to 6896
  151.0502  133.5623  159.2650 H   0  0  0  0  0  0  0  0  0  0  0  0  # atno 6908 bound_to 6896
  151.2560  135.0645  159.9133 H   0  0  0  0  0  0  0  0  0  0  0  0  # atno 6909 bound_to 6896
  145.5507  139.2295  143.2514 H   0  0  0  0  0  0  0  0  0  0  0  0  # atno 7974 bound_to 7965
  154.4444  140.1909  156.0717 H   0  0  0  0  0  0  0  0  0  0  0  0  # atno 8008 bound_to 7997
  156.0506  140.3309  155.7320 H   0  0  0  0  0  0  0  0  0  0  0  0  # atno 8009 bound_to 7997
  155.5562  140.0599  157.2830 H   0  0  0  0  0  0  0  0  0  0  0  0  # atno 8010 bound_to 7997
  140.7264  143.4862  151.0052 H   0  0  0  0  0  0  0  0  0  0  0  0  # atno 10167 bound_to 10162
  157.6956  131.0338  150.3446 H   0  0  0  0  0  0  0  0  0  0  0  0  # atno 10718 bound_to 10713
  153.8217  135.6873  153.4826 H   0  0  0  0  0  0  0  0  0  0  0  0  # atno 10763 bound_to 10752
  153.1565  135.4597  154.9709 H   0  0  0  0  0  0  0  0  0  0  0  0  # atno 10764 bound_to 10752
  154.7924  135.3306  154.7689 H   0  0  0  0  0  0  0  0  0  0  0  0  # atno 10765 bound_to 10752
  140.2389  134.8066  157.3391 H   0  0  0  0  0  0  0  0  0  0  0  0  # atno 11005 bound_to 11000
  146.1919  140.6329  142.9142 LP  0  0  0  0  0  0  0  0  0  0  0  0  # atno 17320 bound_to 7965
  144.7531  140.5240  143.6788 LP  0  0  0  0  0  0  0  0  0  0  0  0  # atno 17321 bound_to 7965
  139.8563  143.7372  152.3176 LP  0  0  0  0  0  0  0  0  0  0  0  0  # atno 17342 bound_to 10162
  139.7572  144.7517  151.0418 LP  0  0  0  0  0  0  0  0  0  0  0  0  # atno 17343 bound_to 10162
  156.3902  130.3896  149.7035 LP  0  0  0  0  0  0  0  0  0  0  0  0  # atno 17370 bound_to 10713
  156.4388  130.7851  151.2872 LP  0  0  0  0  0  0  0  0  0  0  0  0  # atno 17371 bound_to 10713
  140.1674  134.4652  155.7854 LP  0  0  0  0  0  0  0  0  0  0  0  0  # atno 17394 bound_to 11000
  141.2212  133.6927  156.7649 LP  0  0  0  0  0  0  0  0  0  0  0  0  # atno 17395 bound_to 11000

$$$$
