AV-unprocessed.smi:111|AV-procd|sdf|1080|dock9
  -GOLD-   2262018173D 1   1.00000     0.00000
 Structure written by MMmdl.
 46 48  0  0  0  0  0  0  0  0  1 V2000
  149.1006  137.3189  155.4173 O   0  0  0  0  0  0  0  0  0  0  0  0
  150.2606  137.5152  155.7840 C   0  0  0  0  0  0  0  0  0  0  0  0
  150.9059  136.7455  156.8413 C   0  0  0  0  0  0  0  0  0  0  0  0
  150.2191  135.7792  157.4742 F   0  0  0  0  0  0  0  0  0  0  0  0
  152.1835  136.9914  157.2015 C   0  0  0  0  0  0  0  0  0  0  0  0
  152.9612  137.9688  156.6052 N   0  0  0  0  0  0  0  0  0  0  0  0
  154.3902  138.2008  157.0415 C   0  0  1  0  0  0  0  0  0  0  0  0
  154.4441  138.5369  158.5361 C   0  0  0  0  0  0  0  0  0  0  0  0
  154.7861  137.1960  159.1493 C   0  0  0  0  0  0  0  0  0  0  0  0
  155.6801  136.5878  158.0760 C   0  0  0  0  0  0  0  0  0  0  0  0
  155.1214  137.0254  156.8412 O   0  0  0  0  0  0  0  0  0  0  0  0
  152.4108  138.7822  155.5905 C   0  0  0  0  0  0  0  0  0  0  0  0
  153.0779  139.6838  155.0781 O   0  0  0  0  0  0  0  0  0  0  0  0
  151.0719  138.5234  155.2055 N   0  0  0  0  0  0  0  0  0  0  0  0
  150.4706  139.3459  154.1630 C   0  0  0  0  0  0  0  0  0  0  0  0
  149.6721  140.5598  154.6937 C   0  0  2  0  0  0  0  0  0  0  0  0
  149.1709  141.2801  153.5865 O   0  0  0  0  0  0  0  0  0  0  0  0
  150.4791  141.5204  155.5996 C   0  0  0  0  0  0  0  0  0  0  0  0
  150.3845  141.1817  157.0973 C   0  0  0  0  0  0  0  0  0  0  0  0
  151.0931  142.2016  157.9733 C   0  0  0  0  0  0  0  0  0  0  0  0
  150.9492  143.5830  157.7235 C   0  0  0  0  0  0  0  0  0  0  0  0
  151.5905  144.5232  158.5533 C   0  0  0  0  0  0  0  0  0  0  0  0
  152.3837  144.0865  159.6317 C   0  0  0  0  0  0  0  0  0  0  0  0
  152.5362  142.7090  159.8792 C   0  0  0  0  0  0  0  0  0  0  0  0
  151.8915  141.7688  159.0528 C   0  0  0  0  0  0  0  0  0  0  0  0
  152.6048  136.3937  157.9959 H   0  0  0  0  0  0  0  0  0  0  0  0
  154.7895  138.9870  156.3991 H   0  0  0  0  0  0  0  0  0  0  0  0
  155.2527  139.2495  158.7028 H   0  0  0  0  0  0  0  0  0  0  0  0
  153.5122  138.9707  158.8991 H   0  0  0  0  0  0  0  0  0  0  0  0
  155.2783  137.2813  160.1183 H   0  0  0  0  0  0  0  0  0  0  0  0
  153.8860  136.5941  159.2740 H   0  0  0  0  0  0  0  0  0  0  0  0
  156.6957  136.9769  158.1607 H   0  0  0  0  0  0  0  0  0  0  0  0
  155.7251  135.5000  158.1315 H   0  0  0  0  0  0  0  0  0  0  0  0
  151.2418  139.6542  153.4566 H   0  0  0  0  0  0  0  0  0  0  0  0
  149.8261  138.6735  153.5927 H   0  0  0  0  0  0  0  0  0  0  0  0
  148.7939  140.1977  155.2253 H   0  0  0  0  0  0  0  0  0  0  0  0
  149.3377  140.7801  152.8023 H   0  0  0  0  0  0  0  0  0  0  0  0
  151.5304  141.5274  155.3195 H   0  0  0  0  0  0  0  0  0  0  0  0
  150.1455  142.5473  155.4419 H   0  0  0  0  0  0  0  0  0  0  0  0
  149.3365  141.1457  157.3962 H   0  0  0  0  0  0  0  0  0  0  0  0
  150.7879  140.1854  157.2831 H   0  0  0  0  0  0  0  0  0  0  0  0
  150.3378  143.9266  156.9020 H   0  0  0  0  0  0  0  0  0  0  0  0
  151.4720  145.5798  158.3634 H   0  0  0  0  0  0  0  0  0  0  0  0
  152.8741  144.8078  160.2686 H   0  0  0  0  0  0  0  0  0  0  0  0
  153.1461  142.3732  160.7040 H   0  0  0  0  0  0  0  0  0  0  0  0
  152.0068  140.7134  159.2518 H   0  0  0  0  0  0  0  0  0  0  0  0
  1  2  2  0  0  0  0
  2 14  1  0  0  0  0
  2  3  1  0  0  0  0
  3  4  1  0  0  0  0
  3  5  2  0  0  0  0
  5  6  1  0  0  0  0
  5 26  1  0  0  0  0
  6  7  1  0  0  0  0
  6 12  1  0  0  0  0
  7 11  1  0  0  0  0
  7  8  1  0  0  0  0
  7 27  1  0  0  0  0
  8  9  1  0  0  0  0
  8 28  1  0  0  0  0
  8 29  1  0  0  0  0
  9 10  1  0  0  0  0
  9 30  1  0  0  0  0
  9 31  1  0  0  0  0
 10 11  1  0  0  0  0
 10 32  1  0  0  0  0
 10 33  1  0  0  0  0
 12 13  2  0  0  0  0
 12 14  1  0  0  0  0
 14 15  1  0  0  0  0
 15 16  1  0  0  0  0
 15 34  1  0  0  0  0
 15 35  1  0  0  0  0
 16 17  1  0  0  0  0
 16 18  1  0  0  0  0
 16 36  1  0  0  0  0
 17 37  1  0  0  0  0
 18 19  1  0  0  0  0
 18 38  1  0  0  0  0
 18 39  1  0  0  0  0
 19 20  1  0  0  0  0
 19 40  1  0  0  0  0
 19 41  1  0  0  0  0
 20 25  1  0  0  0  0
 20 21  2  0  0  0  0
 21 22  1  0  0  0  0
 21 42  1  0  0  0  0
 22 23  2  0  0  0  0
 22 43  1  0  0  0  0
 23 24  1  0  0  0  0
 23 44  1  0  0  0  0
 24 25  2  0  0  0  0
 24 45  1  0  0  0  0
 25 46  1  0  0  0  0
M  END
> <s_m_source_file>
AV-unprocessed.smi

> <i_m_source_file_index>
111

> <i_lp_mmshare_version>
43012

> <i_f3d_flags>
0

> <s_epik_input>
TzFbQ0gyXVtDSDJdW0NIMl1bQ0BIXTFuKFtjSF1jKEYpYzI9TyljKD1PKW4yW0NIMl1bQ0BIXShbT0hdKVtDSDJdW0NIMl1jM1tjSF1bY0hdW2NIXVtjSF1bY0hdMw==

> <s_epik_cmdline>
J2VwaWtfcHl0aG9uJywgJy1waCcsICc3LjAnLCAnLXRuJywgJzgnLCAnLW1hJywgJzIwMCcsICctbWV0YWxfYmluZGluZycsICctaW1hZScsICc8aW5maWxlLm1hZT4nLCAnLW9tYWUnLCAnPG91dGZpbGUubWFlPic=

> <r_lp_tautomer_probability>
1

> <r_epik_Ionization_Penalty>
1.88248e-07

> <r_epik_Ionization_Penalty_Charging>
4.03974e-08

> <r_epik_Ionization_Penalty_Neutral>
1.47851e-07

> <r_epik_State_Penalty>
-0

> <r_epik_Charging_Adjusted_Penalty>
4.03974e-08

> <i_epik_Tot_Q>
0

> <i_epik_Tot_abs_Q>
0

> <r_epik_Metal_State_Penalty>
-0

> <b_epik_Metal_Only>
0

> <s_epik_Chemistry_Notes>
This compound contains an acetal/aminal-like group ( X-CH(R)-Y where X, Y are N, S, or O) that may be acid/base labile, releasing an aldehyde.

> <s_lp_Force_Field>
OPLS_2005

> <r_lp_Energy>
34.7798

> <b_lp_Chiralities_Consistent>
1

> <s_lp_Variant>
AV-unprocessed.smi:111-2

> <Gold.Version>
5.8.1

> <Gold.Id.Protein>
6NUR|6NUR_protein|mol2

> <Gold.PLP.Fitness>
50.7091

> <Gold.PLP.PLP>
-43.6931

> <Gold.PLP.part.hbond>
-5.0362

> <Gold.PLP.part.metal>
0.0000

> <Gold.PLP.part.buried>
-3.9719

> <Gold.PLP.part.nonpolar>
-33.8534

> <Gold.PLP.part.repulsive>
0.0579

> <Gold.PLP.ligand.clash>
0.0000

> <Gold.PLP.ligand.torsion>
1.0185

> <Gold.PLP.Chemscore.Hbond>
3.0000

> <Gold.PLP.Chemscore.CHOScore>
0.0000

> <Gold.PLP.Chemscore.Metal>
0.0000

> <Gold.Chemscore.Hbonds>
donor molecule, donor type, donor heavy atom, donor atom, acceptor molecule, acceptor atom, score
      L1  H    17    37       P1  7957  1.00
      P1  H  7989  7998       L1    13  0.02
      P1  H  7997  8008       L1    13  1.00

> <Gold.PLP.Chemscore.Internal.Correction>
0.0531

> <Gold.Rescore>
     Score         DG    S(hbond)    S(metal)    S(lipo)     H(rot)  DE(clash)    DE(int)     intcor
     20.64     -21.75       2.93        0.00     113.92       2.67       0.26       0.85       ----

> <Gold.Chemscore.Fitness>
20.6404

> <Gold.Chemscore.DG>
-21.7536

> <Gold.Chemscore.ZeroCoef>
-5.4800

> <Gold.Chemscore.Hbond>
2.9314

> <Gold.Chemscore.Metal>
0.0000

> <Gold.Chemscore.Lipo>
113.9228

> <Gold.Chemscore.Internal_Hbond>
0.0000

> <Gold.Chemscore.DEClash>
0.2627

> <Gold.Chemscore.DEInternal>
0.8505

> <Gold.Chemscore.Rot>
2.6743

> <Gold.Chemscore.Internal.Correction>
   9.000000E+99

> <Gold.Chemscore.Hbonds>
donor molecule, donor type, donor heavy atom, donor atom, acceptor molecule, acceptor atom, score
      L1  H    17    37       P1  7957  1.00
      P1  H  7989  7998       L1    13  0.03
      P1  H  7997  8008       L1    13  0.93
      P1  H 10752 10764       L1    11  0.04

> <Gold.Chemscore.Hbond.Weighted>
-9.7909

> <Gold.Chemscore.Metal.Weighted>
-0.0000

> <Gold.Chemscore.Lipo.Weighted>
-13.3290

> <Gold.Chemscore.Internal_Hbond.Weighted>
0.0000

> <Gold.Chemscore.DEClash.Weighted>
0.2627

> <Gold.Chemscore.DEInternal.Weighted>
0.8505

> <Gold.Chemscore.Rot.Weighted>
6.8463

> <Gold.Chemscore.Internal.Correction.Weighted>
   9.000000E+99

> <Gold.Protein.RotatedTorsions>
[ 6907 6896 6895 6894 ] final  113.97 input  -60.11 | X-H torsion
[ 7974 7965 7964 7962 ] final   24.71 input  175.53 | X-H torsion
[ 8008 7997 7996 7995 ] final  -20.33 input   59.86 | X-H torsion
[ 10167 10162 10161 10158 ] final -163.63 input  -65.29 | X-H torsion
[ 10718 10713 10712 10709 ] final  -34.00 input   66.30 | X-H torsion
[ 10763 10752 10751 10750 ] final   35.96 input  -60.55 | X-H torsion
[ 11005 11000 10999 10996 ] final  -19.31 input  -57.11 | X-H torsion

> <Gold.Protein.ActiveResidues>
 VAL166  LYS551  ARG553  GLY616  TRP617  ASP618  TYR619  PRO620  LYS621  CYS622 
 ASP623  PHE694  ASN695  SER759  ASP760  ASP761  ALA762  ILE779  LEU786  VAL792 
 PHE793  MET794  SER795  GLU796  ALA797  LYS798  CYS799  TRP800  GLU811  SER814 

> <Gold.Protein.RotatedAtoms>
  152.4830  133.8301  159.7098 H   0  0  0  0  0  0  0  0  0  0  0  0  # atno 6907 bound_to 6896
  150.8894  133.7254  159.2915 H   0  0  0  0  0  0  0  0  0  0  0  0  # atno 6908 bound_to 6896
  151.4732  135.1051  159.9809 H   0  0  0  0  0  0  0  0  0  0  0  0  # atno 6909 bound_to 6896
  146.1924  139.7567  142.8822 H   0  0  0  0  0  0  0  0  0  0  0  0  # atno 7974 bound_to 7965
  154.4777  140.2065  155.9838 H   0  0  0  0  0  0  0  0  0  0  0  0  # atno 8008 bound_to 7997
  156.1116  140.3228  155.8050 H   0  0  0  0  0  0  0  0  0  0  0  0  # atno 8009 bound_to 7997
  155.4625  140.0525  157.2980 H   0  0  0  0  0  0  0  0  0  0  0  0  # atno 8010 bound_to 7997
  139.6307  144.0445  152.2013 H   0  0  0  0  0  0  0  0  0  0  0  0  # atno 10167 bound_to 10162
  156.3559  130.4316  149.7665 H   0  0  0  0  0  0  0  0  0  0  0  0  # atno 10718 bound_to 10713
  153.0097  135.6319  154.1910 H   0  0  0  0  0  0  0  0  0  0  0  0  # atno 10763 bound_to 10752
  154.1652  135.2821  155.3099 H   0  0  0  0  0  0  0  0  0  0  0  0  # atno 10764 bound_to 10752
  154.5951  135.5605  153.7377 H   0  0  0  0  0  0  0  0  0  0  0  0  # atno 10765 bound_to 10752
  140.8354  133.7965  155.9804 H   0  0  0  0  0  0  0  0  0  0  0  0  # atno 11005 bound_to 11000
  145.3749  141.0349  143.3210 LP  0  0  0  0  0  0  0  0  0  0  0  0  # atno 17320 bound_to 7965
  144.8513  139.5317  143.6855 LP  0  0  0  0  0  0  0  0  0  0  0  0  # atno 17321 bound_to 7965
  140.0110  144.6224  150.7647 LP  0  0  0  0  0  0  0  0  0  0  0  0  # atno 17342 bound_to 10162
  140.7437  143.2850  151.3489 LP  0  0  0  0  0  0  0  0  0  0  0  0  # atno 17343 bound_to 10162
  156.4848  130.8057  151.3070 LP  0  0  0  0  0  0  0  0  0  0  0  0  # atno 17370 bound_to 10713
  157.7467  130.9994  150.2889 LP  0  0  0  0  0  0  0  0  0  0  0  0  # atno 17371 bound_to 10713
  140.8952  134.2446  157.5072 LP  0  0  0  0  0  0  0  0  0  0  0  0  # atno 17394 bound_to 11000
  139.8704  134.9681  156.4618 LP  0  0  0  0  0  0  0  0  0  0  0  0  # atno 17395 bound_to 11000

$$$$
