AV-unprocessed.smi:72|AV-procd|sdf|742|dock3
  -GOLD-   2262017 73D 1   1.00000     0.00000
 Structure written by MMmdl.
 28 29  0  0  0  0  0  0  0  0  2 V2000
  153.1727  138.6886  156.4159 N   0  0  0  0  0  0  0  0  0  0  0  0
  152.1572  139.1717  155.8457 C   0  0  0  0  0  0  0  0  0  0  0  0
  151.5549  138.4762  154.7291 N   0  0  0  0  0  0  0  0  0  0  0  0
  150.5246  139.0232  154.1605 C   0  0  0  0  0  0  0  0  0  0  0  0
  149.9882  140.3013  154.6084 N   0  0  0  0  0  0  0  0  0  0  0  0
  148.7758  140.9236  153.9496 C   0  0  1  0  0  0  0  0  0  0  0  0
  148.3175  140.0822  152.9297 O   0  0  0  0  0  0  0  0  0  0  0  0
  146.9079  139.9069  153.0348 C   0  0  1  0  0  0  0  0  0  0  0  0
  146.5051  138.5554  152.4253 C   0  0  0  0  0  0  0  0  0  0  0  0
  146.7576  138.5514  151.0364 O   0  0  0  0  0  0  0  0  0  0  0  0
  146.6771  139.9901  154.5438 C   0  0  2  0  0  0  0  0  0  0  0  0
  145.3315  140.2580  154.8914 O   0  0  0  0  0  0  0  0  0  0  0  0
  147.6407  141.0904  154.9725 C   0  0  2  0  0  0  0  0  0  0  0  0
  147.0719  142.3840  154.8878 O   0  0  0  0  0  0  0  0  0  0  0  0
  150.5762  140.9437  155.7298 C   0  0  0  0  0  0  0  0  0  0  0  0
  150.0757  141.9974  156.1246 O   0  0  0  0  0  0  0  0  0  0  0  0
  151.6558  140.3625  156.3239 N   0  5  0  0  0  0  0  0  0  0  0  0
  149.1168  141.8593  153.5034 H   0  0  0  0  0  0  0  0  0  0  0  0
  146.4011  140.7370  152.5384 H   0  0  0  0  0  0  0  0  0  0  0  0
  146.9815  139.0521  155.0108 H   0  0  0  0  0  0  0  0  0  0  0  0
  147.9985  140.9377  155.9919 H   0  0  0  0  0  0  0  0  0  0  0  0
  153.4745  137.8173  156.0048 H   0  0  0  0  0  0  0  0  0  0  0  0
  149.9988  138.5615  153.3243 H   0  0  0  0  0  0  0  0  0  0  0  0
  147.0287  137.7306  152.9097 H   0  0  0  0  0  0  0  0  0  0  0  0
  145.4369  138.3856  152.5624 H   0  0  0  0  0  0  0  0  0  0  0  0
  145.9432  138.3949  150.5835 H   0  0  0  0  0  0  0  0  0  0  0  0
  144.8169  140.2726  154.0990 H   0  0  0  0  0  0  0  0  0  0  0  0
  147.7557  143.0191  155.0386 H   0  0  0  0  0  0  0  0  0  0  0  0
  1  2  2  0  0  0  0
  1 22  1  0  0  0  0
  2 17  1  0  0  0  0
  2  3  1  0  0  0  0
  3  4  2  0  0  0  0
  4  5  1  0  0  0  0
  4 23  1  0  0  0  0
  5  6  1  0  0  0  0
  5 15  1  0  0  0  0
  6 18  1  0  0  0  0
  6 13  1  0  0  0  0
  6  7  1  0  0  0  0
  7  8  1  0  0  0  0
  8 19  1  0  0  0  0
  8  9  1  0  0  0  0
  8 11  1  0  0  0  0
  9 10  1  0  0  0  0
  9 24  1  0  0  0  0
  9 25  1  0  0  0  0
 10 26  1  0  0  0  0
 11 20  1  0  0  0  0
 11 12  1  0  0  0  0
 11 13  1  0  0  0  0
 12 27  1  0  0  0  0
 13 21  1  0  0  0  0
 13 14  1  0  0  0  0
 14 28  1  0  0  0  0
 15 16  2  0  0  0  0
 15 17  1  0  0  0  0
M  CHG  1  17  -1
M  END
> <s_m_source_file>
AV-unprocessed.smi

> <i_m_source_file_index>
72

> <i_lp_mmshare_version>
43012

> <i_f3d_flags>
0

> <s_epik_input>
W05IMl1jMW5bY0hdbihjKD1PKW4xKVtDQEBIXTJPW0NASF0oW0NIMl1bT0hdKVtDQEBIXShbT0hdKVtDQEhdMltPSF0=

> <s_epik_cmdline>
J2VwaWtfcHl0aG9uJywgJy1waCcsICc3LjAnLCAnLXRuJywgJzgnLCAnLW1hJywgJzIwMCcsICctbWV0YWxfYmluZGluZycsICctaW1hZScsICc8aW5maWxlLm1hZT4nLCAnLW9tYWUnLCAnPG91dGZpbGUubWFlPic=

> <r_lp_tautomer_probability>
7.17554e-07

> <r_epik_Ionization_Penalty>
12.8705

> <r_epik_Ionization_Penalty_Charging>
5.64144

> <r_epik_Ionization_Penalty_Neutral>
7.22905

> <r_epik_State_Penalty>
3.30104

> <r_epik_Charging_Adjusted_Penalty>
8.94249

> <i_epik_Tot_Q>
-1

> <i_epik_Tot_abs_Q>
1

> <r_epik_Metal_State_Penalty>
0.529074

> <b_epik_Metal_Only>
1

> <s_epik_Chemistry_Notes>
This compound contains an acetal/aminal-like group ( X-CH(R)-Y where X, Y are N, S, or O) that may be acid/base labile, releasing an aldehyde.

> <s_lp_Force_Field>
OPLS_2005

> <r_lp_Energy>
36.1714

> <b_lp_Chiralities_Consistent>
1

> <s_lp_Variant>
AV-unprocessed.smi:72-80

> <Gold.Version>
5.8.1

> <Gold.Id.Protein>
6NUR|6NUR_protein|mol2

> <Gold.PLP.Fitness>
39.9586

> <Gold.PLP.PLP>
-22.7299

> <Gold.PLP.part.hbond>
-5.5098

> <Gold.PLP.part.metal>
0.0000

> <Gold.PLP.part.buried>
-2.0776

> <Gold.PLP.part.nonpolar>
-21.7313

> <Gold.PLP.part.repulsive>
6.3379

> <Gold.PLP.ligand.clash>
0.0000

> <Gold.PLP.ligand.torsion>
0.0190

> <Gold.PLP.Chemscore.Hbond>
4.8045

> <Gold.PLP.Chemscore.CHOScore>
0.9439

> <Gold.PLP.Chemscore.Metal>
0.0000

> <Gold.Chemscore.Hbonds>
donor molecule, donor type, donor heavy atom, donor atom, acceptor molecule, acceptor atom, score
      L1  H    10    26       P1 10171  0.57
      L1  H    12    27       P1 10175  1.00
      L1  H    14    28       P1  8028  0.83
      P1  H  7954  7966       L1    10  1.00
      P1  H  7997  8009       L1     1  1.00
      L1  C     4    23       P1  7948  0.08
      L1  C     4    23       P1  7957  0.56

> <Gold.PLP.Chemscore.Internal.Correction>
0.0217

> <Gold.Rescore>
     Score         DG    S(hbond)    S(metal)    S(lipo)     H(rot)  DE(clash)    DE(int)     intcor
      5.44      -9.35       3.42        0.00      23.75       4.04       2.54       1.37       ----

> <Gold.Chemscore.Fitness>
5.4430

> <Gold.Chemscore.DG>
-9.3476

> <Gold.Chemscore.ZeroCoef>
-5.4800

> <Gold.Chemscore.Hbond>
3.4228

> <Gold.Chemscore.Metal>
0.0000

> <Gold.Chemscore.Lipo>
23.7494

> <Gold.Chemscore.Internal_Hbond>
0.0000

> <Gold.Chemscore.DEClash>
2.5358

> <Gold.Chemscore.DEInternal>
1.3689

> <Gold.Chemscore.Rot>
4.0403

> <Gold.Chemscore.Internal.Correction>
   9.000000E+99

> <Gold.Chemscore.Hbonds>
donor molecule, donor type, donor heavy atom, donor atom, acceptor molecule, acceptor atom, score
      L1  H    10    26       P1 10171  0.56
      L1  H    12    27       P1 10175  0.97
      L1  H    14    28       P1  8028  0.56
      P1  H  7954  7966       L1    10  0.57
      P1  H  7997  8009       L1     1  0.46

> <Gold.Chemscore.Hbond.Weighted>
-11.4320

> <Gold.Chemscore.Metal.Weighted>
-0.0000

> <Gold.Chemscore.Lipo.Weighted>
-2.7787

> <Gold.Chemscore.Internal_Hbond.Weighted>
0.0000

> <Gold.Chemscore.DEClash.Weighted>
2.5358

> <Gold.Chemscore.DEInternal.Weighted>
1.3689

> <Gold.Chemscore.Rot.Weighted>
10.3431

> <Gold.Chemscore.Internal.Correction.Weighted>
   9.000000E+99

> <Gold.Protein.RotatedTorsions>
[ 6907 6896 6895 6894 ] final   64.70 input  -60.11 | X-H torsion
[ 7974 7965 7964 7962 ] final  -19.07 input  175.53 | X-H torsion
[ 8008 7997 7996 7995 ] final -171.76 input   59.86 | X-H torsion
[ 10167 10162 10161 10158 ] final  160.27 input  -65.29 | X-H torsion
[ 10718 10713 10712 10709 ] final   28.94 input   66.30 | X-H torsion
[ 10763 10752 10751 10750 ] final   13.88 input  -60.55 | X-H torsion
[ 11005 11000 10999 10996 ] final  -52.17 input  -57.11 | X-H torsion

> <Gold.Protein.ActiveResidues>
 VAL166  LYS551  ARG553  GLY616  TRP617  ASP618  TYR619  PRO620  LYS621  CYS622 
 ASP623  PHE694  ASN695  SER759  ASP760  ASP761  ALA762  ILE779  LEU786  VAL792 
 PHE793  MET794  SER795  GLU796  ALA797  LYS798  CYS799  TRP800  GLU811  SER814 

> <Gold.Protein.RotatedAtoms>
  152.4352  134.5701  159.9918 H   0  0  0  0  0  0  0  0  0  0  0  0  # atno 6907 bound_to 6896
  151.5813  133.3371  159.3017 H   0  0  0  0  0  0  0  0  0  0  0  0  # atno 6908 bound_to 6896
  150.8249  134.7510  159.6869 H   0  0  0  0  0  0  0  0  0  0  0  0  # atno 6909 bound_to 6896
  146.1860  140.4011  142.8476 H   0  0  0  0  0  0  0  0  0  0  0  0  # atno 7974 bound_to 7965
  155.9357  140.1099  157.1096 H   0  0  0  0  0  0  0  0  0  0  0  0  # atno 8008 bound_to 7997
  154.4079  140.1229  156.4927 H   0  0  0  0  0  0  0  0  0  0  0  0  # atno 8009 bound_to 7997
  155.7024  140.3472  155.4941 H   0  0  0  0  0  0  0  0  0  0  0  0  # atno 8010 bound_to 7997
  139.4838  144.4650  151.8654 H   0  0  0  0  0  0  0  0  0  0  0  0  # atno 10167 bound_to 10162
  157.2400  130.7064  149.6354 H   0  0  0  0  0  0  0  0  0  0  0  0  # atno 10718 bound_to 10713
  153.1677  135.6807  153.8652 H   0  0  0  0  0  0  0  0  0  0  0  0  # atno 10763 bound_to 10752
  153.8026  135.3153  155.3393 H   0  0  0  0  0  0  0  0  0  0  0  0  # atno 10764 bound_to 10752
  154.7976  135.4797  154.0290 H   0  0  0  0  0  0  0  0  0  0  0  0  # atno 10765 bound_to 10752
  141.0910  133.6633  156.3985 H   0  0  0  0  0  0  0  0  0  0  0  0  # atno 11005 bound_to 11000
  144.8398  140.6839  143.6237 LP  0  0  0  0  0  0  0  0  0  0  0  0  # atno 17320 bound_to 7965
  145.3937  139.1611  143.4215 LP  0  0  0  0  0  0  0  0  0  0  0  0  # atno 17321 bound_to 7965
  140.4115  144.2363  150.5889 LP  0  0  0  0  0  0  0  0  0  0  0  0  # atno 17342 bound_to 10162
  140.4962  143.2332  151.8746 LP  0  0  0  0  0  0  0  0  0  0  0  0  # atno 17343 bound_to 10162
  155.9670  130.4461  150.5528 LP  0  0  0  0  0  0  0  0  0  0  0  0  # atno 17370 bound_to 10713
  157.3389  131.0713  151.1804 LP  0  0  0  0  0  0  0  0  0  0  0  0  # atno 17371 bound_to 10713
  140.5252  134.6266  157.5331 LP  0  0  0  0  0  0  0  0  0  0  0  0  # atno 17394 bound_to 11000
  139.9736  134.7252  155.9993 LP  0  0  0  0  0  0  0  0  0  0  0  0  # atno 17395 bound_to 11000

$$$$
