AV-unprocessed.smi:3112|AV-procd|sdf|11847|dock4
  -GOLD-   2272017223D 1   1.00000     0.00000
 Structure written by MMmdl.
 36 36  0  0  0  0  0  0  0  0  1 V2000
  151.2752  137.6648  154.7488 C   0  0  0  0  0  0  0  0  0  0  0  0
  152.3570  138.7484  154.8870 C   0  0  0  0  0  0  0  0  0  0  0  0
  151.9238  139.9947  155.6846 C   0  0  1  0  0  0  0  0  0  0  0  0
  150.6936  140.4627  155.1702 O   0  0  0  0  0  0  0  0  0  0  0  0
  151.7656  139.7265  157.1911 C   0  0  0  0  0  0  0  0  0  0  0  0
  151.9641  140.9514  157.9652 N   0  0  0  0  0  0  0  0  0  0  0  0
  152.4719  140.7693  159.3301 C   0  0  1  0  0  0  0  0  0  0  0  0
  153.5530  139.6752  159.3038 C   0  0  0  0  0  0  0  0  0  0  0  0
  153.0111  142.0801  159.9803 C   0  0  2  0  0  0  0  0  0  0  0  0
  153.4180  141.9702  161.4620 C   0  0  0  0  0  0  0  0  0  0  0  0
  152.1579  143.2399  159.7331 N   0  0  0  0  0  0  0  0  0  0  0  0
  151.8388  144.2609  160.6057 C   0  0  0  0  0  0  0  0  0  0  0  0
  151.0351  145.1386  159.9368 C   0  0  0  0  0  0  0  0  0  0  0  0
  150.9196  144.5681  158.6392 C   0  0  0  0  0  0  0  0  0  0  0  0
  151.5949  143.4375  158.5184 N   0  0  0  0  0  0  0  0  0  0  0  0
  151.6470  136.8240  154.1633 H   0  0  0  0  0  0  0  0  0  0  0  0
  150.3875  138.0478  154.2454 H   0  0  0  0  0  0  0  0  0  0  0  0
  150.9696  137.2764  155.7203 H   0  0  0  0  0  0  0  0  0  0  0  0
  153.2349  138.3092  155.3621 H   0  0  0  0  0  0  0  0  0  0  0  0
  152.6808  139.0545  153.8915 H   0  0  0  0  0  0  0  0  0  0  0  0
  152.6743  140.7709  155.5268 H   0  0  0  0  0  0  0  0  0  0  0  0
  150.1840  139.7158  154.8939 H   0  0  0  0  0  0  0  0  0  0  0  0
  150.8017  139.2653  157.3883 H   0  0  0  0  0  0  0  0  0  0  0  0
  152.5170  138.9985  157.4991 H   0  0  0  0  0  0  0  0  0  0  0  0
  152.5848  141.5701  157.4533 H   0  0  0  0  0  0  0  0  0  0  0  0
  151.6667  140.3874  159.9591 H   0  0  0  0  0  0  0  0  0  0  0  0
  153.9585  139.4975  160.3001 H   0  0  0  0  0  0  0  0  0  0  0  0
  154.3834  139.9395  158.6482 H   0  0  0  0  0  0  0  0  0  0  0  0
  153.1429  138.7300  158.9473 H   0  0  0  0  0  0  0  0  0  0  0  0
  153.9474  142.2917  159.4614 H   0  0  0  0  0  0  0  0  0  0  0  0
  154.0354  141.0891  161.6377 H   0  0  0  0  0  0  0  0  0  0  0  0
  152.5575  141.9203  162.1279 H   0  0  0  0  0  0  0  0  0  0  0  0
  153.9986  142.8421  161.7640 H   0  0  0  0  0  0  0  0  0  0  0  0
  152.2096  144.2785  161.6200 H   0  0  0  0  0  0  0  0  0  0  0  0
  150.5990  146.0509  160.3155 H   0  0  0  0  0  0  0  0  0  0  0  0
  150.3710  144.9403  157.7868 H   0  0  0  0  0  0  0  0  0  0  0  0
  1  2  1  0  0  0  0
  1 16  1  0  0  0  0
  1 17  1  0  0  0  0
  1 18  1  0  0  0  0
  2  3  1  0  0  0  0
  2 19  1  0  0  0  0
  2 20  1  0  0  0  0
  3  4  1  0  0  0  0
  3  5  1  0  0  0  0
  3 21  1  0  0  0  0
  4 22  1  0  0  0  0
  5  6  1  0  0  0  0
  5 23  1  0  0  0  0
  5 24  1  0  0  0  0
  6  7  1  0  0  0  0
  6 25  1  0  0  0  0
  7  8  1  0  0  0  0
  7  9  1  0  0  0  0
  7 26  1  0  0  0  0
  8 27  1  0  0  0  0
  8 28  1  0  0  0  0
  8 29  1  0  0  0  0
  9 10  1  0  0  0  0
  9 11  1  0  0  0  0
  9 30  1  0  0  0  0
 10 31  1  0  0  0  0
 10 32  1  0  0  0  0
 10 33  1  0  0  0  0
 11 15  1  0  0  0  0
 11 12  1  0  0  0  0
 12 13  2  0  0  0  0
 12 34  1  0  0  0  0
 13 14  1  0  0  0  0
 13 35  1  0  0  0  0
 14 15  2  0  0  0  0
 14 36  1  0  0  0  0
M  END
> <s_m_source_file>
AV-unprocessed.smi

> <i_m_source_file_index>
3112

> <i_lp_mmshare_version>
43012

> <i_f3d_flags>
0

> <s_epik_input>
W0NIM11bQ0gyXVtDQEhdKFtPSF0pW0NIMl1bTkhdW0NASF0oW0NIM10pW0NASF0oW0NIM10pbjFbY0hdW2NIXVtjSF1uMQ==

> <s_epik_cmdline>
J2VwaWtfcHl0aG9uJywgJy1waCcsICc3LjAnLCAnLXRuJywgJzgnLCAnLW1hJywgJzIwMCcsICctbWV0YWxfYmluZGluZycsICctaW1hZScsICc8aW5maWxlLm1hZT4nLCAnLW9tYWUnLCAnPG91dGZpbGUubWFlPic=

> <r_lp_tautomer_probability>
1

> <r_epik_Ionization_Penalty>
2.16876

> <r_epik_Ionization_Penalty_Charging>
0

> <r_epik_Ionization_Penalty_Neutral>
2.16876

> <r_epik_State_Penalty>
2.30854

> <r_epik_Charging_Adjusted_Penalty>
2.30854

> <i_epik_Tot_Q>
0

> <i_epik_Tot_abs_Q>
0

> <r_epik_Metal_State_Penalty>
2.3073

> <b_epik_Metal_Only>
0

> <s_lp_Force_Field>
OPLS_2005

> <r_lp_Energy>
21.8482

> <b_lp_Chiralities_Consistent>
1

> <s_lp_Variant>
AV-unprocessed.smi:3112-12

> <Gold.Version>
5.8.1

> <Gold.Id.Protein>
6NUR|6NUR_protein|mol2

> <Gold.PLP.Fitness>
44.4751

> <Gold.PLP.PLP>
-40.3471

> <Gold.PLP.part.hbond>
-1.0000

> <Gold.PLP.part.metal>
0.0000

> <Gold.PLP.part.buried>
-4.6539

> <Gold.PLP.part.nonpolar>
-34.4747

> <Gold.PLP.part.repulsive>
0.0581

> <Gold.PLP.ligand.clash>
0.0000

> <Gold.PLP.ligand.torsion>
1.1105

> <Gold.PLP.Chemscore.Hbond>
1.0000

> <Gold.PLP.Chemscore.CHOScore>
1.0000

> <Gold.PLP.Chemscore.Metal>
0.0000

> <Gold.Chemscore.Hbonds>
donor molecule, donor type, donor heavy atom, donor atom, acceptor molecule, acceptor atom, score
      P1  H  7989  7998       L1     4  0.40
      L1  C    14    36       P1  8028  0.67
      L1  C    14    36       P1  8029  0.23

> <Gold.PLP.Chemscore.Internal.Correction>
0.3490

> <Gold.Rescore>
     Score         DG    S(hbond)    S(metal)    S(lipo)     H(rot)  DE(clash)    DE(int)     intcor
     11.76     -13.96       0.96        0.00      95.70       2.31       0.00       2.19       ----

> <Gold.Chemscore.Fitness>
11.7612

> <Gold.Chemscore.DG>
-13.9565

> <Gold.Chemscore.ZeroCoef>
-5.4800

> <Gold.Chemscore.Hbond>
0.9565

> <Gold.Chemscore.Metal>
0.0000

> <Gold.Chemscore.Lipo>
95.7048

> <Gold.Chemscore.Internal_Hbond>
0.0000

> <Gold.Chemscore.DEClash>
0.0009

> <Gold.Chemscore.DEInternal>
2.1945

> <Gold.Chemscore.Rot>
2.3108

> <Gold.Chemscore.Internal.Correction>
   9.000000E+99

> <Gold.Chemscore.Hbond.Weighted>
-3.1947

> <Gold.Chemscore.Metal.Weighted>
-0.0000

> <Gold.Chemscore.Lipo.Weighted>
-11.1975

> <Gold.Chemscore.Internal_Hbond.Weighted>
0.0000

> <Gold.Chemscore.DEClash.Weighted>
0.0009

> <Gold.Chemscore.DEInternal.Weighted>
2.1945

> <Gold.Chemscore.Rot.Weighted>
5.9157

> <Gold.Chemscore.Internal.Correction.Weighted>
   9.000000E+99

> <Gold.Protein.RotatedTorsions>
[ 6907 6896 6895 6894 ] final  150.05 input  -60.11 | X-H torsion
[ 7974 7965 7964 7962 ] final   57.60 input  175.53 | X-H torsion
[ 8008 7997 7996 7995 ] final  -65.28 input   59.86 | X-H torsion
[ 10167 10162 10161 10158 ] final   86.57 input  -65.29 | X-H torsion
[ 10718 10713 10712 10709 ] final -128.27 input   66.30 | X-H torsion
[ 10763 10752 10751 10750 ] final  -65.66 input  -60.55 | X-H torsion
[ 11005 11000 10999 10996 ] final  -20.81 input  -57.11 | X-H torsion

> <Gold.Protein.ActiveResidues>
 VAL166  LYS551  ARG553  GLY616  TRP617  ASP618  TYR619  PRO620  LYS621  CYS622 
 ASP623  PHE694  ASN695  SER759  ASP760  ASP761  ALA762  ILE779  LEU786  VAL792 
 PHE793  MET794  SER795  GLU796  ALA797  LYS798  CYS799  TRP800  GLU811  SER814 

> <Gold.Protein.RotatedAtoms>
  152.1197  133.4346  159.4669 H   0  0  0  0  0  0  0  0  0  0  0  0  # atno 6907 bound_to 6896
  150.6871  134.2550  159.4535 H   0  0  0  0  0  0  0  0  0  0  0  0  # atno 6908 bound_to 6896
  152.0425  134.9702  160.0624 H   0  0  0  0  0  0  0  0  0  0  0  0  # atno 6909 bound_to 6896
  145.9273  139.3778  143.0442 H   0  0  0  0  0  0  0  0  0  0  0  0  # atno 7974 bound_to 7965
  154.4662  140.0936  156.7027 H   0  0  0  0  0  0  0  0  0  0  0  0  # atno 8008 bound_to 7997
  155.4851  140.3469  155.4327 H   0  0  0  0  0  0  0  0  0  0  0  0  # atno 8009 bound_to 7997
  156.0960  140.1410  156.9518 H   0  0  0  0  0  0  0  0  0  0  0  0  # atno 8010 bound_to 7997
  139.8862  144.6412  150.8788 H   0  0  0  0  0  0  0  0  0  0  0  0  # atno 10167 bound_to 10162
  156.1935  130.6811  151.0453 H   0  0  0  0  0  0  0  0  0  0  0  0  # atno 10718 bound_to 10713
  154.3482  135.6142  153.5630 H   0  0  0  0  0  0  0  0  0  0  0  0  # atno 10763 bound_to 10752
  152.9800  135.5786  154.4773 H   0  0  0  0  0  0  0  0  0  0  0  0  # atno 10764 bound_to 10752
  154.4490  135.2852  155.1772 H   0  0  0  0  0  0  0  0  0  0  0  0  # atno 10765 bound_to 10752
  140.8500  133.7863  155.9955 H   0  0  0  0  0  0  0  0  0  0  0  0  # atno 11005 bound_to 11000
  145.8473  140.9548  143.0768 LP  0  0  0  0  0  0  0  0  0  0  0  0  # atno 17320 bound_to 7965
  144.6760  140.0361  143.7482 LP  0  0  0  0  0  0  0  0  0  0  0  0  # atno 17321 bound_to 7965
  140.7735  143.3546  151.1947 LP  0  0  0  0  0  0  0  0  0  0  0  0  # atno 17342 bound_to 10162
  139.7151  143.9314  152.2963 LP  0  0  0  0  0  0  0  0  0  0  0  0  # atno 17343 bound_to 10162
  157.6943  131.0799  150.7014 LP  0  0  0  0  0  0  0  0  0  0  0  0  # atno 17370 bound_to 10713
  156.7071  130.4640  149.5557 LP  0  0  0  0  0  0  0  0  0  0  0  0  # atno 17371 bound_to 10713
  140.8800  134.2622  157.5148 LP  0  0  0  0  0  0  0  0  0  0  0  0  # atno 17394 bound_to 11000
  139.8704  134.9610  156.4383 LP  0  0  0  0  0  0  0  0  0  0  0  0  # atno 17395 bound_to 11000

$$$$
