AV-unprocessed.smi:438|AV-procd|sdf|2577|dock2
  -GOLD-   2262022563D 1   1.00000     0.00000
 Structure written by MMmdl.
 48 49  0  0  0  0  0  0  0  0  1 V2000
  148.9232  141.8659  157.0978 C   0  0  0  0  0  0  0  0  0  0  0  0
  149.2331  140.4624  156.6104 C   0  0  0  0  0  0  0  0  0  0  0  0
  149.4098  139.5313  157.5735 N   0  0  0  0  0  0  0  0  0  0  0  0
  149.6727  138.2905  157.1617 C   0  0  0  0  0  0  0  0  0  0  0  0
  149.9271  137.0646  158.4237 S   0  0  0  0  0  0  0  0  0  0  0  0
  148.5268  135.9464  158.1153 C   0  0  0  0  0  0  0  0  0  0  0  0
  148.3918  134.8865  159.2040 C   0  0  0  0  0  0  0  0  0  0  0  0
  148.7017  133.7194  158.9671 O   0  0  0  0  0  0  0  0  0  0  0  0
  147.9374  135.3121  160.3935 N   0  0  0  0  0  0  0  0  0  0  0  0
  147.7671  134.4965  161.5975 C   0  0  2  0  0  0  0  0  0  0  0  0
  146.9065  133.2576  161.2766 C   0  0  0  0  0  0  0  0  0  0  0  0
  145.4363  133.6217  161.0063 C   0  0  0  0  0  0  0  0  0  0  0  0
  144.8392  134.4251  162.1709 C   0  0  0  0  0  0  0  0  0  0  0  0
  145.6784  135.6763  162.4757 C   0  0  0  0  0  0  0  0  0  0  0  0
  147.1517  135.3172  162.7603 C   0  0  2  0  0  0  0  0  0  0  0  0
  147.9763  136.5650  163.1215 C   0  0  0  0  0  0  0  0  0  0  0  0
  149.7921  137.8629  155.9050 N   0  0  0  0  0  0  0  0  0  0  0  0
  149.6194  138.7818  154.9308 C   0  0  0  0  0  0  0  0  0  0  0  0
  149.7236  138.3659  153.6352 O   0  0  0  0  0  0  0  0  0  0  0  0
  149.3330  140.1367  155.2332 C   0  0  0  0  0  0  0  0  0  0  0  0
  149.1371  141.1730  154.1335 C   0  0  0  0  0  0  0  0  0  0  0  0
  147.8437  140.9382  153.3416 C   0  0  0  0  0  0  0  0  0  0  0  0
  147.9864  139.8003  152.5202 O   0  0  0  0  0  0  0  0  0  0  0  0
  148.0430  142.2641  156.5926 H   0  0  0  0  0  0  0  0  0  0  0  0
  149.7663  142.5283  156.9006 H   0  0  0  0  0  0  0  0  0  0  0  0
  148.7262  141.8803  158.1707 H   0  0  0  0  0  0  0  0  0  0  0  0
  147.6102  136.5345  158.0633 H   0  0  0  0  0  0  0  0  0  0  0  0
  148.6360  135.4496  157.1511 H   0  0  0  0  0  0  0  0  0  0  0  0
  147.7154  136.2930  160.4826 H   0  0  0  0  0  0  0  0  0  0  0  0
  148.7422  134.1321  161.9251 H   0  0  0  0  0  0  0  0  0  0  0  0
  147.3216  132.7199  160.4233 H   0  0  0  0  0  0  0  0  0  0  0  0
  146.9505  132.5656  162.1186 H   0  0  0  0  0  0  0  0  0  0  0  0
  145.3614  134.2009  160.0852 H   0  0  0  0  0  0  0  0  0  0  0  0
  144.8540  132.7139  160.8457 H   0  0  0  0  0  0  0  0  0  0  0  0
  143.8141  134.7137  161.9367 H   0  0  0  0  0  0  0  0  0  0  0  0
  144.7874  133.7950  163.0597 H   0  0  0  0  0  0  0  0  0  0  0  0
  145.6191  136.3697  161.6357 H   0  0  0  0  0  0  0  0  0  0  0  0
  145.2514  136.1978  163.3330 H   0  0  0  0  0  0  0  0  0  0  0  0
  147.1602  134.6735  163.6413 H   0  0  0  0  0  0  0  0  0  0  0  0
  147.9691  137.3016  162.3175 H   0  0  0  0  0  0  0  0  0  0  0  0
  149.0149  136.3032  163.3249 H   0  0  0  0  0  0  0  0  0  0  0  0
  147.5790  137.0503  164.0131 H   0  0  0  0  0  0  0  0  0  0  0  0
  149.9641  139.0659  153.0478 H   0  0  0  0  0  0  0  0  0  0  0  0
  149.1364  142.1752  154.5619 H   0  0  0  0  0  0  0  0  0  0  0  0
  149.9947  141.1481  153.4601 H   0  0  0  0  0  0  0  0  0  0  0  0
  146.9998  140.7866  154.0155 H   0  0  0  0  0  0  0  0  0  0  0  0
  147.6116  141.7997  152.7148 H   0  0  0  0  0  0  0  0  0  0  0  0
  148.7834  139.8886  152.0199 H   0  0  0  0  0  0  0  0  0  0  0  0
  1  2  1  0  0  0  0
  1 24  1  0  0  0  0
  1 25  1  0  0  0  0
  1 26  1  0  0  0  0
  2 20  1  0  0  0  0
  2  3  2  0  0  0  0
  3  4  1  0  0  0  0
  4  5  1  0  0  0  0
  4 17  2  0  0  0  0
  5  6  1  0  0  0  0
  6  7  1  0  0  0  0
  6 27  1  0  0  0  0
  6 28  1  0  0  0  0
  7  8  2  0  0  0  0
  7  9  1  0  0  0  0
  9 10  1  0  0  0  0
  9 29  1  0  0  0  0
 10 15  1  0  0  0  0
 10 11  1  0  0  0  0
 10 30  1  0  0  0  0
 11 12  1  0  0  0  0
 11 31  1  0  0  0  0
 11 32  1  0  0  0  0
 12 13  1  0  0  0  0
 12 33  1  0  0  0  0
 12 34  1  0  0  0  0
 13 14  1  0  0  0  0
 13 35  1  0  0  0  0
 13 36  1  0  0  0  0
 14 15  1  0  0  0  0
 14 37  1  0  0  0  0
 14 38  1  0  0  0  0
 15 16  1  0  0  0  0
 15 39  1  0  0  0  0
 16 40  1  0  0  0  0
 16 41  1  0  0  0  0
 16 42  1  0  0  0  0
 17 18  1  0  0  0  0
 18 19  1  0  0  0  0
 18 20  2  0  0  0  0
 19 43  1  0  0  0  0
 20 21  1  0  0  0  0
 21 22  1  0  0  0  0
 21 44  1  0  0  0  0
 21 45  1  0  0  0  0
 22 23  1  0  0  0  0
 22 46  1  0  0  0  0
 22 47  1  0  0  0  0
 23 48  1  0  0  0  0
M  END
> <s_m_source_file>
AV-unprocessed.smi

> <i_m_source_file_index>
438

> <i_lp_mmshare_version>
43012

> <i_f3d_flags>
0

> <s_epik_input>
W09IXVtDSDJdW0NIMl1jMWMoW09IXSluYyhuYzFbQ0gzXSlTW0NIMl1DKD1PKVtOSF1bQ0BASF0yW0NIMl1bQ0gyXVtDSDJdW0NIMl1bQ0BIXTJbQ0gzXQ==

> <s_epik_cmdline>
J2VwaWtfcHl0aG9uJywgJy1waCcsICc3LjAnLCAnLXRuJywgJzgnLCAnLW1hJywgJzIwMCcsICctbWV0YWxfYmluZGluZycsICctaW1hZScsICc8aW5maWxlLm1hZT4nLCAnLW9tYWUnLCAnPG91dGZpbGUubWFlPic=

> <r_lp_tautomer_probability>
0.0660145

> <r_epik_Ionization_Penalty>
2.91405

> <r_epik_Ionization_Penalty_Charging>
0

> <r_epik_Ionization_Penalty_Neutral>
2.91405

> <r_epik_State_Penalty>
2.44767

> <r_epik_Charging_Adjusted_Penalty>
2.44767

> <i_epik_Tot_Q>
0

> <i_epik_Tot_abs_Q>
0

> <r_epik_Metal_State_Penalty>
3.04288

> <b_epik_Metal_Only>
0

> <s_lp_Force_Field>
OPLS_2005

> <r_lp_Energy>
3.55381

> <b_lp_Chiralities_Consistent>
1

> <s_lp_Variant>
AV-unprocessed.smi:438-15

> <Gold.Version>
5.8.1

> <Gold.Id.Protein>
6NUR|6NUR_protein|mol2

> <Gold.PLP.Fitness>
45.2282

> <Gold.PLP.PLP>
-36.7997

> <Gold.PLP.part.hbond>
-4.0000

> <Gold.PLP.part.metal>
0.0000

> <Gold.PLP.part.buried>
-6.1484

> <Gold.PLP.part.nonpolar>
-27.0338

> <Gold.PLP.part.repulsive>
0.1230

> <Gold.PLP.ligand.clash>
0.0000

> <Gold.PLP.ligand.torsion>
0.3201

> <Gold.PLP.Chemscore.Hbond>
3.0000

> <Gold.PLP.Chemscore.CHOScore>
0.0000

> <Gold.PLP.Chemscore.Metal>
0.0000

> <Gold.Chemscore.Hbonds>
donor molecule, donor type, donor heavy atom, donor atom, acceptor molecule, acceptor atom, score
      L1  H    19    43       P1  7957  0.67
      L1  H    23    48       P1  7957  0.15
      P1  H  6896  6907       L1     8  0.75

> <Gold.PLP.Chemscore.Internal.Correction>
0.0688

> <Gold.Rescore>
     Score         DG    S(hbond)    S(metal)    S(lipo)     H(rot)  DE(clash)    DE(int)     intcor
     15.69     -16.27       2.91        0.00      84.26       3.44       0.17       0.40       ----

> <Gold.Chemscore.Fitness>
15.6931

> <Gold.Chemscore.DG>
-16.2670

> <Gold.Chemscore.ZeroCoef>
-5.4800

> <Gold.Chemscore.Hbond>
2.9116

> <Gold.Chemscore.Metal>
0.0000

> <Gold.Chemscore.Lipo>
84.2599

> <Gold.Chemscore.Internal_Hbond>
0.0000

> <Gold.Chemscore.DEClash>
0.1718

> <Gold.Chemscore.DEInternal>
0.4021

> <Gold.Chemscore.Rot>
3.4359

> <Gold.Chemscore.Internal.Correction>
   9.000000E+99

> <Gold.Chemscore.Hbonds>
donor molecule, donor type, donor heavy atom, donor atom, acceptor molecule, acceptor atom, score
      L1  H    19    43       P1  7957  0.60
      L1  H    23    48       P1  7957  0.18
      P1  H  6896  6907       L1     8  0.09

> <Gold.Chemscore.Hbond.Weighted>
-9.7246

> <Gold.Chemscore.Metal.Weighted>
-0.0000

> <Gold.Chemscore.Lipo.Weighted>
-9.8584

> <Gold.Chemscore.Internal_Hbond.Weighted>
0.0000

> <Gold.Chemscore.DEClash.Weighted>
0.1718

> <Gold.Chemscore.DEInternal.Weighted>
0.4021

> <Gold.Chemscore.Rot.Weighted>
8.7960

> <Gold.Chemscore.Internal.Correction.Weighted>
   9.000000E+99

> <Gold.Protein.RotatedTorsions>
[ 6907 6896 6895 6894 ] final -106.66 input  -60.11 | X-H torsion
[ 7974 7965 7964 7962 ] final  148.41 input  175.53 | X-H torsion
[ 8008 7997 7996 7995 ] final   45.18 input   59.86 | X-H torsion
[ 10167 10162 10161 10158 ] final -130.85 input  -65.29 | X-H torsion
[ 10718 10713 10712 10709 ] final  -60.24 input   66.30 | X-H torsion
[ 10763 10752 10751 10750 ] final -170.57 input  -60.55 | X-H torsion
[ 11005 11000 10999 10996 ] final   47.67 input  -57.11 | X-H torsion

> <Gold.Protein.ActiveResidues>
 VAL166  LYS551  ARG553  GLY616  TRP617  ASP618  TYR619  PRO620  LYS621  CYS622 
 ASP623  PHE694  ASN695  SER759  ASP760  ASP761  ALA762  ILE779  LEU786  VAL792 
 PHE793  MET794  SER795  GLU796  ALA797  LYS798  CYS799  TRP800  GLU811  SER814 

> <Gold.Protein.RotatedAtoms>
  150.7401  133.9943  159.3617 H   0  0  0  0  0  0  0  0  0  0  0  0  # atno 6907 bound_to 6896
  151.7893  135.0738  160.0394 H   0  0  0  0  0  0  0  0  0  0  0  0  # atno 6908 bound_to 6896
  152.3219  133.5826  159.5786 H   0  0  0  0  0  0  0  0  0  0  0  0  # atno 6909 bound_to 6896
  144.8516  139.6151  143.5971 H   0  0  0  0  0  0  0  0  0  0  0  0  # atno 7974 bound_to 7965
  155.3315  140.3403  155.4239 H   0  0  0  0  0  0  0  0  0  0  0  0  # atno 8008 bound_to 7997
  156.1859  140.1680  156.8223 H   0  0  0  0  0  0  0  0  0  0  0  0  # atno 8009 bound_to 7997
  154.5385  140.0730  156.8453 H   0  0  0  0  0  0  0  0  0  0  0  0  # atno 8010 bound_to 7997
  139.9251  143.6337  152.2544 H   0  0  0  0  0  0  0  0  0  0  0  0  # atno 10167 bound_to 10162
  156.1004  130.4187  150.0827 H   0  0  0  0  0  0  0  0  0  0  0  0  # atno 10718 bound_to 10713
  154.6400  135.2897  155.0115 H   0  0  0  0  0  0  0  0  0  0  0  0  # atno 10763 bound_to 10752
  154.1244  135.6543  153.4913 H   0  0  0  0  0  0  0  0  0  0  0  0  # atno 10764 bound_to 10752
  153.0322  135.5295  154.7263 H   0  0  0  0  0  0  0  0  0  0  0  0  # atno 10765 bound_to 10752
  140.1258  134.4769  155.8560 H   0  0  0  0  0  0  0  0  0  0  0  0  # atno 11005 bound_to 11000
  146.2789  139.6825  142.9243 LP  0  0  0  0  0  0  0  0  0  0  0  0  # atno 17320 bound_to 7965
  145.4489  141.0427  143.2815 LP  0  0  0  0  0  0  0  0  0  0  0  0  # atno 17321 bound_to 7965
  139.6829  144.7654  151.1576 LP  0  0  0  0  0  0  0  0  0  0  0  0  # atno 17342 bound_to 10162
  140.7652  143.5698  150.9008 LP  0  0  0  0  0  0  0  0  0  0  0  0  # atno 17343 bound_to 10162
  156.8816  130.9558  151.3599 LP  0  0  0  0  0  0  0  0  0  0  0  0  # atno 17370 bound_to 10713
  157.6173  130.8628  149.9050 LP  0  0  0  0  0  0  0  0  0  0  0  0  # atno 17371 bound_to 10713
  141.2161  133.6777  156.6976 LP  0  0  0  0  0  0  0  0  0  0  0  0  # atno 17394 bound_to 11000
  140.2905  134.8244  157.4013 LP  0  0  0  0  0  0  0  0  0  0  0  0  # atno 17395 bound_to 11000

$$$$
