AV-unprocessed.smi:670|AV-procd|sdf|3270|dock8
  -GOLD-   22720 0223D 1   1.00000     0.00000
 Structure written by MMmdl.
 45 46  0  0  0  0  0  0  0  0  1 V2000
  151.6552  145.4766  159.8336 C   0  0  0  0  0  0  0  0  0  0  0  0
  152.4943  144.2101  160.0643 C   0  0  1  0  0  0  0  0  0  0  0  0
  152.0959  143.4886  161.3680 C   0  0  0  0  0  0  0  0  0  0  0  0
  152.9626  142.2430  161.6119 C   0  0  0  0  0  0  0  0  0  0  0  0
  152.9155  141.2864  160.4118 C   0  0  0  0  0  0  0  0  0  0  0  0
  153.3167  142.0035  159.1129 C   0  0  0  0  0  0  0  0  0  0  0  0
  152.4390  143.2482  158.8557 C   0  0  1  0  0  0  0  0  0  0  0  0
  151.0842  142.8650  158.6496 O   0  0  0  0  0  0  0  0  0  0  0  0
  150.8291  142.2204  157.4104 C   0  0  0  0  0  0  0  0  0  0  0  0
  149.4668  141.5181  157.4965 C   0  0  0  0  0  0  0  0  0  0  0  0
  148.7645  141.5574  156.2184 N   0  0  0  0  0  0  0  0  0  0  0  0
  149.2523  141.1072  155.0531 C   0  0  0  0  0  0  0  0  0  0  0  0
  150.3837  140.6339  154.9349 O   0  0  0  0  0  0  0  0  0  0  0  0
  148.3131  141.2269  153.8439 C   0  0  0  0  0  0  0  0  0  0  0  0
  147.4475  140.0538  153.6541 N   0  0  0  0  0  0  0  0  0  0  0  0
  147.3583  139.6240  152.3386 N   0  0  0  0  0  0  0  0  0  0  0  0
  146.6407  138.5929  152.0445 C   0  0  0  0  0  0  0  0  0  0  0  0
  146.5831  138.1986  150.7302 O   0  0  0  0  0  0  0  0  0  0  0  0
  145.9151  137.8696  153.0658 C   0  0  0  0  0  0  0  0  0  0  0  0
  146.0043  138.2993  154.3434 C   0  0  0  0  0  0  0  0  0  0  0  0
  146.8109  139.4640  154.7124 C   0  0  0  0  0  0  0  0  0  0  0  0
  146.9101  139.8754  155.8679 O   0  0  0  0  0  0  0  0  0  0  0  0
  145.8308  138.6401  150.3676 H   0  0  0  0  0  0  0  0  0  0  0  0
  150.5952  145.2409  159.7355 H   0  0  0  0  0  0  0  0  0  0  0  0
  151.9670  145.9941  158.9261 H   0  0  0  0  0  0  0  0  0  0  0  0
  151.7634  146.1745  160.6644 H   0  0  0  0  0  0  0  0  0  0  0  0
  153.5302  144.5339  160.1750 H   0  0  0  0  0  0  0  0  0  0  0  0
  152.1922  144.1686  162.2151 H   0  0  0  0  0  0  0  0  0  0  0  0
  151.0454  143.1980  161.3257 H   0  0  0  0  0  0  0  0  0  0  0  0
  153.9939  142.5464  161.7959 H   0  0  0  0  0  0  0  0  0  0  0  0
  152.6269  141.7270  162.5117 H   0  0  0  0  0  0  0  0  0  0  0  0
  153.5771  140.4378  160.5868 H   0  0  0  0  0  0  0  0  0  0  0  0
  151.9095  140.8774  160.3087 H   0  0  0  0  0  0  0  0  0  0  0  0
  154.3609  142.3106  159.1823 H   0  0  0  0  0  0  0  0  0  0  0  0
  153.2682  141.3067  158.2770 H   0  0  0  0  0  0  0  0  0  0  0  0
  152.8069  143.7778  157.9749 H   0  0  0  0  0  0  0  0  0  0  0  0
  150.8160  142.9615  156.6103 H   0  0  0  0  0  0  0  0  0  0  0  0
  151.6074  141.4978  157.1663 H   0  0  0  0  0  0  0  0  0  0  0  0
  149.6042  140.4751  157.7826 H   0  0  0  0  0  0  0  0  0  0  0  0
  148.8529  141.9763  158.2735 H   0  0  0  0  0  0  0  0  0  0  0  0
  147.8268  141.9320  156.2272 H   0  0  0  0  0  0  0  0  0  0  0  0
  147.7044  142.1272  153.9478 H   0  0  0  0  0  0  0  0  0  0  0  0
  148.9250  141.3895  152.9548 H   0  0  0  0  0  0  0  0  0  0  0  0
  145.3177  137.0086  152.8044 H   0  0  0  0  0  0  0  0  0  0  0  0
  145.4667  137.7694  155.1160 H   0  0  0  0  0  0  0  0  0  0  0  0
  1  2  1  0  0  0  0
  1 24  1  0  0  0  0
  1 25  1  0  0  0  0
  1 26  1  0  0  0  0
  2  7  1  0  0  0  0
  2  3  1  0  0  0  0
  2 27  1  0  0  0  0
  3  4  1  0  0  0  0
  3 28  1  0  0  0  0
  3 29  1  0  0  0  0
  4  5  1  0  0  0  0
  4 30  1  0  0  0  0
  4 31  1  0  0  0  0
  5  6  1  0  0  0  0
  5 32  1  0  0  0  0
  5 33  1  0  0  0  0
  6  7  1  0  0  0  0
  6 34  1  0  0  0  0
  6 35  1  0  0  0  0
  7  8  1  0  0  0  0
  7 36  1  0  0  0  0
  8  9  1  0  0  0  0
  9 10  1  0  0  0  0
  9 37  1  0  0  0  0
  9 38  1  0  0  0  0
 10 11  1  0  0  0  0
 10 39  1  0  0  0  0
 10 40  1  0  0  0  0
 11 12  1  0  0  0  0
 11 41  1  0  0  0  0
 12 13  2  0  0  0  0
 12 14  1  0  0  0  0
 14 42  1  0  0  0  0
 14 43  1  0  0  0  0
 14 15  1  0  0  0  0
 15 16  1  0  0  0  0
 15 21  1  0  0  0  0
 16 17  2  0  0  0  0
 17 18  1  0  0  0  0
 17 19  1  0  0  0  0
 18 23  1  0  0  0  0
 19 44  1  0  0  0  0
 19 20  2  0  0  0  0
 20 45  1  0  0  0  0
 20 21  1  0  0  0  0
 21 22  2  0  0  0  0
M  END
> <s_m_source_file>
AV-unprocessed.smi

> <i_m_source_file_index>
670

> <i_lp_mmshare_version>
43012

> <i_f3d_flags>
0

> <s_epik_input>
W0NIM11bQ0BASF0xW0NIMl1bQ0gyXVtDSDJdW0NIMl1bQ0BIXTFPW0NIMl1bQ0gyXVtOSF1DKD1PKVtDSDJdbjJbbkhdYyg9TylbY0hdW2NIXWMyPU8=

> <s_epik_cmdline>
J2VwaWtfcHl0aG9uJywgJy1waCcsICc3LjAnLCAnLXRuJywgJzgnLCAnLW1hJywgJzIwMCcsICctbWV0YWxfYmluZGluZycsICctaW1hZScsICc8aW5maWxlLm1hZT4nLCAnLW9tYWUnLCAnPG91dGZpbGUubWFlPic=

> <r_lp_tautomer_probability>
0.9996

> <r_epik_Ionization_Penalty>
2.12726

> <r_epik_Ionization_Penalty_Charging>
3.83395e-08

> <r_epik_Ionization_Penalty_Neutral>
2.12726

> <r_epik_State_Penalty>
1.70432

> <r_epik_Charging_Adjusted_Penalty>
1.70432

> <i_epik_Tot_Q>
0

> <i_epik_Tot_abs_Q>
0

> <r_epik_Metal_State_Penalty>
1.70432

> <b_epik_Metal_Only>
0

> <s_lp_Force_Field>
OPLS_2005

> <r_lp_Energy>
19.8416

> <b_lp_Chiralities_Consistent>
1

> <s_lp_Variant>
AV-unprocessed.smi:670-6

> <Gold.Version>
5.8.1

> <Gold.Id.Protein>
6NUR|6NUR_protein|mol2

> <Gold.PLP.Fitness>
53.0363

> <Gold.PLP.PLP>
-46.2627

> <Gold.PLP.part.hbond>
-3.8816

> <Gold.PLP.part.metal>
0.0000

> <Gold.PLP.part.buried>
-7.3572

> <Gold.PLP.part.nonpolar>
-38.6951

> <Gold.PLP.part.repulsive>
3.8707

> <Gold.PLP.ligand.clash>
0.0000

> <Gold.PLP.ligand.torsion>
0.9643

> <Gold.PLP.Chemscore.Hbond>
2.8800

> <Gold.PLP.Chemscore.CHOScore>
0.0000

> <Gold.PLP.Chemscore.Metal>
0.0000

> <Gold.Chemscore.Hbonds>
donor molecule, donor type, donor heavy atom, donor atom, acceptor molecule, acceptor atom, score
      L1  H    18    23       P1 10171  1.00
      P1  H  7954  7966       L1    18  1.00
      P1  H  7989  7998       L1    13  0.91

> <Gold.PLP.Chemscore.Internal.Correction>
0.0621

> <Gold.Rescore>
     Score         DG    S(hbond)    S(metal)    S(lipo)     H(rot)  DE(clash)    DE(int)     intcor
     12.77     -19.47       2.81        0.00     107.05       3.09       1.41       5.28       ----

> <Gold.Chemscore.Fitness>
12.7731

> <Gold.Chemscore.DG>
-19.4678

> <Gold.Chemscore.ZeroCoef>
-5.4800

> <Gold.Chemscore.Hbond>
2.8064

> <Gold.Chemscore.Metal>
0.0000

> <Gold.Chemscore.Lipo>
107.0528

> <Gold.Chemscore.Internal_Hbond>
0.0000

> <Gold.Chemscore.DEClash>
1.4106

> <Gold.Chemscore.DEInternal>
5.2841

> <Gold.Chemscore.Rot>
3.0901

> <Gold.Chemscore.Internal.Correction>
   9.000000E+99

> <Gold.Chemscore.Hbonds>
donor molecule, donor type, donor heavy atom, donor atom, acceptor molecule, acceptor atom, score
      L1  H    18    23       P1 10171  0.90
      P1  H  7954  7966       L1    18  0.91
      P1  H  7989  7998       L1    13  0.89

> <Gold.Chemscore.Hbond.Weighted>
-9.3733

> <Gold.Chemscore.Metal.Weighted>
-0.0000

> <Gold.Chemscore.Lipo.Weighted>
-12.5252

> <Gold.Chemscore.Internal_Hbond.Weighted>
0.0000

> <Gold.Chemscore.DEClash.Weighted>
1.4106

> <Gold.Chemscore.DEInternal.Weighted>
5.2841

> <Gold.Chemscore.Rot.Weighted>
7.9106

> <Gold.Chemscore.Internal.Correction.Weighted>
   9.000000E+99

> <Gold.Protein.RotatedTorsions>
[ 6907 6896 6895 6894 ] final  174.22 input  -60.11 | X-H torsion
[ 7974 7965 7964 7962 ] final -131.01 input  175.53 | X-H torsion
[ 8008 7997 7996 7995 ] final -117.83 input   59.86 | X-H torsion
[ 10167 10162 10161 10158 ] final  -26.71 input  -65.29 | X-H torsion
[ 10718 10713 10712 10709 ] final   33.78 input   66.30 | X-H torsion
[ 10763 10752 10751 10750 ] final   36.86 input  -60.55 | X-H torsion
[ 11005 11000 10999 10996 ] final   45.16 input  -57.11 | X-H torsion

> <Gold.Protein.ActiveResidues>
 VAL166  LYS551  ARG553  GLY616  TRP617  ASP618  TYR619  PRO620  LYS621  CYS622 
 ASP623  PHE694  ASN695  SER759  ASP760  ASP761  ALA762  ILE779  LEU786  VAL792 
 PHE793  MET794  SER795  GLU796  ALA797  LYS798  CYS799  TRP800  GLU811  SER814 

> <Gold.Protein.RotatedAtoms>
  151.7558  133.3330  159.3403 H   0  0  0  0  0  0  0  0  0  0  0  0  # atno 6907 bound_to 6896
  150.7517  134.6151  159.6116 H   0  0  0  0  0  0  0  0  0  0  0  0  # atno 6908 bound_to 6896
  152.3438  134.7100  160.0307 H   0  0  0  0  0  0  0  0  0  0  0  0  # atno 6909 bound_to 6896
  144.9420  140.7249  143.4841 H   0  0  0  0  0  0  0  0  0  0  0  0  # atno 7974 bound_to 7965
  155.0899  140.0395  157.2665 H   0  0  0  0  0  0  0  0  0  0  0  0  # atno 8008 bound_to 7997
  154.6840  140.2639  155.6855 H   0  0  0  0  0  0  0  0  0  0  0  0  # atno 8009 bound_to 7997
  156.2705  140.2773  156.1394 H   0  0  0  0  0  0  0  0  0  0  0  0  # atno 8010 bound_to 7997
  140.7281  143.4155  151.1036 H   0  0  0  0  0  0  0  0  0  0  0  0  # atno 10167 bound_to 10162
  157.3021  130.7356  149.6673 H   0  0  0  0  0  0  0  0  0  0  0  0  # atno 10718 bound_to 10713
  153.0060  135.6294  154.2053 H   0  0  0  0  0  0  0  0  0  0  0  0  # atno 10763 bound_to 10752
  154.1796  135.2814  155.3058 H   0  0  0  0  0  0  0  0  0  0  0  0  # atno 10764 bound_to 10752
  154.5845  135.5637  153.7277 H   0  0  0  0  0  0  0  0  0  0  0  0  # atno 10765 bound_to 10752
  140.1485  134.4491  155.8398 H   0  0  0  0  0  0  0  0  0  0  0  0  # atno 11005 bound_to 11000
  145.2976  139.1861  143.4707 LP  0  0  0  0  0  0  0  0  0  0  0  0  # atno 17320 bound_to 7965
  146.3289  140.2962  142.8618 LP  0  0  0  0  0  0  0  0  0  0  0  0  # atno 17321 bound_to 7965
  139.7794  143.8378  152.3135 LP  0  0  0  0  0  0  0  0  0  0  0  0  # atno 17342 bound_to 10162
  139.8324  144.7248  150.9434 LP  0  0  0  0  0  0  0  0  0  0  0  0  # atno 17343 bound_to 10162
  155.9672  130.4277  150.4754 LP  0  0  0  0  0  0  0  0  0  0  0  0  # atno 17370 bound_to 10713
  157.2737  131.0592  151.2243 LP  0  0  0  0  0  0  0  0  0  0  0  0  # atno 17371 bound_to 10713
  141.2196  133.6862  156.7379 LP  0  0  0  0  0  0  0  0  0  0  0  0  # atno 17394 bound_to 11000
  140.2633  134.8449  157.3779 LP  0  0  0  0  0  0  0  0  0  0  0  0  # atno 17395 bound_to 11000

$$$$
