AV-unprocessed.smi:3335|AV-procd|sdf|12839|dock6
  -GOLD-   2272019223D 1   1.00000     0.00000
 Structure written by MMmdl.
 47 48  0  0  0  0  0  0  0  0  2 V2000
  143.7406  132.6721  149.6054 C   0  0  0  0  0  0  0  0  0  0  0  0
  143.9830  133.6582  150.7111 C   0  0  0  0  0  0  0  0  0  0  0  0
  143.4800  133.6206  152.0421 C   0  0  0  0  0  0  0  0  0  0  0  0
  143.8776  134.6510  152.7698 N   0  0  0  0  0  0  0  0  0  0  0  0
  144.6548  135.3784  151.9359 N   0  0  0  0  0  0  0  0  0  0  0  0
  145.2606  136.6231  152.3938 C   0  0  2  0  0  0  0  0  0  0  0  0
  145.9947  137.3037  151.2210 C   0  0  0  0  0  0  0  0  0  0  0  0
  146.1628  136.3986  153.6416 C   0  0  1  0  0  0  0  0  0  0  0  0
  146.7150  134.9652  153.7191 C   0  0  0  0  0  0  0  0  0  0  0  0
  147.3182  137.3329  153.6445 N   0  3  0  0  0  0  0  0  0  0  0  0
  148.0585  137.4728  154.9223 C   0  0  2  0  0  0  0  0  0  0  0  0
  147.0744  137.8249  156.0479 C   0  0  0  0  0  0  0  0  0  0  0  0
  149.1591  138.5477  154.8269 C   0  0  0  0  0  0  0  0  0  0  0  0
  148.8311  139.7130  154.5974 O   0  0  0  0  0  0  0  0  0  0  0  0
  150.4491  138.1898  155.0053 N   0  0  0  0  0  0  0  0  0  0  0  0
  151.6116  139.0766  154.9455 C   0  0  0  0  0  0  0  0  0  0  0  0
  152.8355  138.1616  154.9783 C   0  0  0  0  0  0  0  0  0  0  0  0
  152.3425  136.9080  155.6864 C   0  0  0  0  0  0  0  0  0  0  0  0
  150.8656  136.8201  155.3024 C   0  0  0  0  0  0  0  0  0  0  0  0
  144.7347  134.7988  150.6866 C   0  0  0  0  0  0  0  0  0  0  0  0
  142.9622  131.9542  149.8654 H   0  0  0  0  0  0  0  0  0  0  0  0
  144.6396  132.1012  149.3729 H   0  0  0  0  0  0  0  0  0  0  0  0
  143.4262  133.1668  148.6862 H   0  0  0  0  0  0  0  0  0  0  0  0
  142.8366  132.8817  152.4969 H   0  0  0  0  0  0  0  0  0  0  0  0
  144.4423  137.2843  152.6838 H   0  0  0  0  0  0  0  0  0  0  0  0
  146.2797  138.3272  151.4633 H   0  0  0  0  0  0  0  0  0  0  0  0
  145.3564  137.3554  150.3381 H   0  0  0  0  0  0  0  0  0  0  0  0
  146.8993  136.7611  150.9442 H   0  0  0  0  0  0  0  0  0  0  0  0
  145.5680  136.5557  154.5425 H   0  0  0  0  0  0  0  0  0  0  0  0
  145.9206  134.2330  153.8622 H   0  0  0  0  0  0  0  0  0  0  0  0
  147.3973  134.8556  154.5629 H   0  0  0  0  0  0  0  0  0  0  0  0
  147.2611  134.6979  152.8138 H   0  0  0  0  0  0  0  0  0  0  0  0
  147.9831  137.0067  152.9575 H   0  0  0  0  0  0  0  0  0  0  0  0
  148.4954  136.5078  155.1607 H   0  0  0  0  0  0  0  0  0  0  0  0
  147.5828  137.9154  157.0086 H   0  0  0  0  0  0  0  0  0  0  0  0
  146.3136  137.0510  156.1553 H   0  0  0  0  0  0  0  0  0  0  0  0
  146.5623  138.7684  155.8535 H   0  0  0  0  0  0  0  0  0  0  0  0
  151.6152  139.7001  154.0506 H   0  0  0  0  0  0  0  0  0  0  0  0
  151.6059  139.7307  155.8187 H   0  0  0  0  0  0  0  0  0  0  0  0
  153.1333  137.9114  153.9592 H   0  0  0  0  0  0  0  0  0  0  0  0
  153.6924  138.6186  155.4740 H   0  0  0  0  0  0  0  0  0  0  0  0
  152.9056  136.0160  155.4103 H   0  0  0  0  0  0  0  0  0  0  0  0
  152.4328  137.0396  156.7656 H   0  0  0  0  0  0  0  0  0  0  0  0
  150.2747  136.3740  156.1041 H   0  0  0  0  0  0  0  0  0  0  0  0
  150.7384  136.2089  154.4076 H   0  0  0  0  0  0  0  0  0  0  0  0
  145.3095  135.2437  149.8875 H   0  0  0  0  0  0  0  0  0  0  0  0
  146.9853  138.2417  153.3572 H   0  0  0  0  0  0  0  0  0  0  0  0
  1  2  1  0  0  0  0
  1 21  1  0  0  0  0
  1 22  1  0  0  0  0
  1 23  1  0  0  0  0
  2 20  2  0  0  0  0
  2  3  1  0  0  0  0
  3  4  2  0  0  0  0
  3 24  1  0  0  0  0
  4  5  1  0  0  0  0
  5  6  1  0  0  0  0
  5 20  1  0  0  0  0
  6  7  1  0  0  0  0
  6  8  1  0  0  0  0
  6 25  1  0  0  0  0
  7 26  1  0  0  0  0
  7 27  1  0  0  0  0
  7 28  1  0  0  0  0
  8  9  1  0  0  0  0
  8 10  1  0  0  0  0
  8 29  1  0  0  0  0
  9 30  1  0  0  0  0
  9 31  1  0  0  0  0
  9 32  1  0  0  0  0
 10 11  1  0  0  0  0
 10 33  1  0  0  0  0
 10 47  1  0  0  0  0
 11 12  1  0  0  0  0
 11 13  1  0  0  0  0
 11 34  1  0  0  0  0
 12 35  1  0  0  0  0
 12 36  1  0  0  0  0
 12 37  1  0  0  0  0
 13 14  2  0  0  0  0
 13 15  1  0  0  0  0
 15 19  1  0  0  0  0
 15 16  1  0  0  0  0
 16 17  1  0  0  0  0
 16 38  1  0  0  0  0
 16 39  1  0  0  0  0
 17 18  1  0  0  0  0
 17 40  1  0  0  0  0
 17 41  1  0  0  0  0
 18 19  1  0  0  0  0
 18 42  1  0  0  0  0
 18 43  1  0  0  0  0
 19 44  1  0  0  0  0
 19 45  1  0  0  0  0
 20 46  1  0  0  0  0
M  CHG  1  10   1
M  END
> <s_m_source_file>
AV-unprocessed.smi

> <i_m_source_file_index>
3335

> <i_lp_mmshare_version>
43012

> <i_f3d_flags>
0

> <s_epik_input>
W0NIM11jMVtjSF1ubihbY0hdMSlbQ0BIXShbQ0gzXSlbQ0BIXShbQ0gzXSlbTkhdW0NASF0oW0NIM10pQyg9TylOMltDSDJdW0NIMl1bQ0gyXVtDSDJdMg==

> <s_epik_cmdline>
J2VwaWtfcHl0aG9uJywgJy1waCcsICc3LjAnLCAnLXRuJywgJzgnLCAnLW1hJywgJzIwMCcsICctbWV0YWxfYmluZGluZycsICctaW1hZScsICc8aW5maWxlLm1hZT4nLCAnLW9tYWUnLCAnPG91dGZpbGUubWFlPic=

> <r_lp_tautomer_probability>
1

> <r_epik_Ionization_Penalty>
0.14175

> <r_epik_Ionization_Penalty_Charging>
0.141731

> <r_epik_Ionization_Penalty_Neutral>
1.91261e-05

> <r_epik_State_Penalty>
0.131043

> <r_epik_Charging_Adjusted_Penalty>
0.272773

> <i_epik_Tot_Q>
1

> <i_epik_Tot_abs_Q>
1

> <r_epik_Metal_State_Penalty>
0.131408

> <b_epik_Metal_Only>
0

> <s_lp_Force_Field>
OPLS_2005

> <r_lp_Energy>
35.8146

> <b_lp_Chiralities_Consistent>
1

> <s_lp_Variant>
AV-unprocessed.smi:3335-3

> <Gold.Version>
5.8.1

> <Gold.Id.Protein>
6NUR|6NUR_protein|mol2

> <Gold.PLP.Fitness>
39.9420

> <Gold.PLP.PLP>
-30.0995

> <Gold.PLP.part.hbond>
-1.0000

> <Gold.PLP.part.metal>
0.0000

> <Gold.PLP.part.buried>
2.0185

> <Gold.PLP.part.nonpolar>
-32.5533

> <Gold.PLP.part.repulsive>
0.4639

> <Gold.PLP.ligand.clash>
0.0000

> <Gold.PLP.ligand.torsion>
1.0996

> <Gold.PLP.Chemscore.Hbond>
2.0000

> <Gold.PLP.Chemscore.CHOScore>
1.9785

> <Gold.PLP.Chemscore.Metal>
0.0000

> <Gold.Chemscore.Hbonds>
donor molecule, donor type, donor heavy atom, donor atom, acceptor molecule, acceptor atom, score
      L1  H    10    33       P1  7948  2.00
      L1  C     3    24       P1 10957  0.84
      L1  C    20    46       P1  7921  1.00

> <Gold.PLP.Chemscore.Internal.Correction>
0.1061

> <Gold.Rescore>
     Score         DG    S(hbond)    S(metal)    S(lipo)     H(rot)  DE(clash)    DE(int)     intcor
      9.32     -13.61       1.00        0.00      77.67       1.68       1.70       2.59       ----

> <Gold.Chemscore.Fitness>
9.3243

> <Gold.Chemscore.DG>
-13.6065

> <Gold.Chemscore.ZeroCoef>
-5.4800

> <Gold.Chemscore.Hbond>
0.9983

> <Gold.Chemscore.Metal>
0.0000

> <Gold.Chemscore.Lipo>
77.6687

> <Gold.Chemscore.Internal_Hbond>
0.0000

> <Gold.Chemscore.DEClash>
1.6957

> <Gold.Chemscore.DEInternal>
2.5865

> <Gold.Chemscore.Rot>
1.6778

> <Gold.Chemscore.Internal.Correction>
   9.000000E+99

> <Gold.Chemscore.Hbonds>
donor molecule, donor type, donor heavy atom, donor atom, acceptor molecule, acceptor atom, score
      L1  H    10    33       P1  7948  1.00

> <Gold.Chemscore.Hbond.Weighted>
-3.3344

> <Gold.Chemscore.Metal.Weighted>
-0.0000

> <Gold.Chemscore.Lipo.Weighted>
-9.0872

> <Gold.Chemscore.Internal_Hbond.Weighted>
0.0000

> <Gold.Chemscore.DEClash.Weighted>
1.6957

> <Gold.Chemscore.DEInternal.Weighted>
2.5865

> <Gold.Chemscore.Rot.Weighted>
4.2952

> <Gold.Chemscore.Internal.Correction.Weighted>
   9.000000E+99

> <Gold.Protein.RotatedTorsions>
[ 6907 6896 6895 6894 ] final  -22.39 input  -60.11 | X-H torsion
[ 7974 7965 7964 7962 ] final  -53.97 input  175.53 | X-H torsion
[ 8008 7997 7996 7995 ] final -112.99 input   59.86 | X-H torsion
[ 10167 10162 10161 10158 ] final  -74.21 input  -65.29 | X-H torsion
[ 10718 10713 10712 10709 ] final  -34.23 input   66.30 | X-H torsion
[ 10763 10752 10751 10750 ] final  171.98 input  -60.55 | X-H torsion
[ 11005 11000 10999 10996 ] final  -73.91 input  -57.11 | X-H torsion

> <Gold.Protein.ActiveResidues>
 VAL166  LYS551  ARG553  GLY616  TRP617  ASP618  TYR619  PRO620  LYS621  CYS622 
 ASP623  PHE694  ASN695  SER759  ASP760  ASP761  ALA762  ILE779  LEU786  VAL792 
 PHE793  MET794  SER795  GLU796  ALA797  LYS798  CYS799  TRP800  GLU811  SER814 

> <Gold.Protein.RotatedAtoms>
  151.2193  135.0512  159.8943 H   0  0  0  0  0  0  0  0  0  0  0  0  # atno 6907 bound_to 6896
  152.5417  134.0658  159.8182 H   0  0  0  0  0  0  0  0  0  0  0  0  # atno 6908 bound_to 6896
  151.0822  133.5333  159.2651 H   0  0  0  0  0  0  0  0  0  0  0  0  # atno 6909 bound_to 6896
  145.8908  140.8072  142.9792 H   0  0  0  0  0  0  0  0  0  0  0  0  # atno 7974 bound_to 7965
  155.0138  140.0393  157.2410 H   0  0  0  0  0  0  0  0  0  0  0  0  # atno 8008 bound_to 7997
  154.7437  140.2753  155.6328 H   0  0  0  0  0  0  0  0  0  0  0  0  # atno 8009 bound_to 7997
  156.2870  140.2660  156.2171 H   0  0  0  0  0  0  0  0  0  0  0  0  # atno 8010 bound_to 7997
  140.5046  143.2355  151.7695 H   0  0  0  0  0  0  0  0  0  0  0  0  # atno 10167 bound_to 10162
  156.3531  130.4311  149.7687 H   0  0  0  0  0  0  0  0  0  0  0  0  # atno 10718 bound_to 10713
  154.4197  135.2757  155.1984 H   0  0  0  0  0  0  0  0  0  0  0  0  # atno 10763 bound_to 10752
  154.3935  135.6061  153.5860 H   0  0  0  0  0  0  0  0  0  0  0  0  # atno 10764 bound_to 10752
  152.9833  135.5909  154.4491 H   0  0  0  0  0  0  0  0  0  0  0  0  # atno 10765 bound_to 10752
  141.1629  133.6894  156.7284 H   0  0  0  0  0  0  0  0  0  0  0  0  # atno 11005 bound_to 11000
  144.6730  140.1527  143.7428 LP  0  0  0  0  0  0  0  0  0  0  0  0  # atno 17320 bound_to 7965
  145.8910  139.2376  143.1549 LP  0  0  0  0  0  0  0  0  0  0  0  0  # atno 17321 bound_to 7965
  139.4880  144.4475  151.9693 LP  0  0  0  0  0  0  0  0  0  0  0  0  # atno 17342 bound_to 10162
  140.3565  144.3025  150.5940 LP  0  0  0  0  0  0  0  0  0  0  0  0  # atno 17343 bound_to 10162
  156.4880  130.8072  151.3083 LP  0  0  0  0  0  0  0  0  0  0  0  0  # atno 17370 bound_to 10713
  157.7464  130.9984  150.2853 LP  0  0  0  0  0  0  0  0  0  0  0  0  # atno 17371 bound_to 10713
  140.2763  134.8352  157.3893 LP  0  0  0  0  0  0  0  0  0  0  0  0  # atno 17394 bound_to 11000
  140.1474  134.4893  155.7986 LP  0  0  0  0  0  0  0  0  0  0  0  0  # atno 17395 bound_to 11000

$$$$
