AV-unprocessed.smi:2131|AV-procd|sdf|8688|dock3
  -GOLD-   2272011443D 1   1.00000     0.00000
 Structure written by MMmdl.
 40 42  0  0  0  0  0  0  0  0  1 V2000
  150.4825  142.4128  156.7503 N   0  0  0  0  0  0  0  0  0  0  0  0
  151.0184  143.1511  157.4619 C   0  0  0  0  0  0  0  0  0  0  0  0
  151.6998  144.0893  158.3668 C   0  0  0  0  0  0  0  0  0  0  0  0
  152.4186  143.3730  159.4909 C   0  0  0  0  0  0  0  0  0  0  0  0
  152.2312  143.7818  160.8255 C   0  0  0  0  0  0  0  0  0  0  0  0
  152.9019  143.1150  161.8686 C   0  0  0  0  0  0  0  0  0  0  0  0
  153.7648  142.0332  161.5980 C   0  0  0  0  0  0  0  0  0  0  0  0
  154.3786  141.4378  162.6789 O   0  0  0  0  0  0  0  0  0  0  0  0
  155.1554  140.2685  162.4534 C   0  0  0  0  0  0  0  0  0  0  0  0
  155.6369  139.7232  163.8058 C   0  0  1  0  0  0  0  0  0  0  0  0
  156.0990  138.3998  163.6197 O   0  0  0  0  0  0  0  0  0  0  0  0
  156.7570  140.5846  164.4216 C   0  0  0  0  0  0  0  0  0  0  0  0
  156.4792  140.9559  165.7971 N   0  0  0  0  0  0  0  0  0  0  0  0
  156.4224  140.1380  166.8660 C   0  0  0  0  0  0  0  0  0  0  0  0
  156.1523  140.6931  168.0439 N   0  0  0  0  0  0  0  0  0  0  0  0
  156.0223  142.0279  167.7006 C   0  0  0  0  0  0  0  0  0  0  0  0
  155.7345  143.1571  168.5002 C   0  0  0  0  0  0  0  0  0  0  0  0
  155.6484  144.4399  167.9202 C   0  0  0  0  0  0  0  0  0  0  0  0
  155.8504  144.6141  166.5354 C   0  0  0  0  0  0  0  0  0  0  0  0
  156.1403  143.5043  165.7186 C   0  0  0  0  0  0  0  0  0  0  0  0
  156.2231  142.2260  166.3012 C   0  0  0  0  0  0  0  0  0  0  0  0
  153.9487  141.6270  160.2519 C   0  0  0  0  0  0  0  0  0  0  0  0
  153.2803  142.2953  159.2076 C   0  0  0  0  0  0  0  0  0  0  0  0
  152.4079  144.6790  157.7841 H   0  0  0  0  0  0  0  0  0  0  0  0
  150.9581  144.7763  158.7747 H   0  0  0  0  0  0  0  0  0  0  0  0
  151.5737  144.6082  161.0528 H   0  0  0  0  0  0  0  0  0  0  0  0
  152.7526  143.4380  162.8884 H   0  0  0  0  0  0  0  0  0  0  0  0
  154.5402  139.5183  161.9531 H   0  0  0  0  0  0  0  0  0  0  0  0
  156.0111  140.4880  161.8122 H   0  0  0  0  0  0  0  0  0  0  0  0
  154.7894  139.6791  164.4908 H   0  0  0  0  0  0  0  0  0  0  0  0
  156.7395  138.2100  164.2883 H   0  0  0  0  0  0  0  0  0  0  0  0
  157.7097  140.0537  164.3874 H   0  0  0  0  0  0  0  0  0  0  0  0
  156.8902  141.5008  163.8451 H   0  0  0  0  0  0  0  0  0  0  0  0
  156.5856  139.0740  166.7735 H   0  0  0  0  0  0  0  0  0  0  0  0
  155.5792  143.0358  169.5620 H   0  0  0  0  0  0  0  0  0  0  0  0
  155.4263  145.2951  168.5412 H   0  0  0  0  0  0  0  0  0  0  0  0
  155.7822  145.6006  166.1007 H   0  0  0  0  0  0  0  0  0  0  0  0
  156.2962  143.6336  164.6576 H   0  0  0  0  0  0  0  0  0  0  0  0
  154.5982  140.8047  159.9927 H   0  0  0  0  0  0  0  0  0  0  0  0
  153.4312  141.9778  158.1863 H   0  0  0  0  0  0  0  0  0  0  0  0
  1  2  3  0  0  0  0
  2  3  1  0  0  0  0
  3  4  1  0  0  0  0
  3 24  1  0  0  0  0
  3 25  1  0  0  0  0
  4 23  1  0  0  0  0
  4  5  2  0  0  0  0
  5  6  1  0  0  0  0
  5 26  1  0  0  0  0
  6  7  2  0  0  0  0
  6 27  1  0  0  0  0
  7  8  1  0  0  0  0
  7 22  1  0  0  0  0
  8  9  1  0  0  0  0
  9 10  1  0  0  0  0
  9 28  1  0  0  0  0
  9 29  1  0  0  0  0
 10 11  1  0  0  0  0
 10 12  1  0  0  0  0
 10 30  1  0  0  0  0
 11 31  1  0  0  0  0
 12 13  1  0  0  0  0
 12 32  1  0  0  0  0
 12 33  1  0  0  0  0
 13 21  1  0  0  0  0
 13 14  1  0  0  0  0
 14 15  2  0  0  0  0
 14 34  1  0  0  0  0
 15 16  1  0  0  0  0
 16 21  2  0  0  0  0
 16 17  1  0  0  0  0
 17 18  2  0  0  0  0
 17 35  1  0  0  0  0
 18 19  1  0  0  0  0
 18 36  1  0  0  0  0
 19 20  2  0  0  0  0
 19 37  1  0  0  0  0
 20 21  1  0  0  0  0
 20 38  1  0  0  0  0
 22 23  2  0  0  0  0
 22 39  1  0  0  0  0
 23 40  1  0  0  0  0
M  END
> <s_m_source_file>
AV-unprocessed.smi

> <i_m_source_file_index>
2131

> <i_lp_mmshare_version>
43012

> <i_f3d_flags>
0

> <s_epik_input>
TiNDW0NIMl1jMVtjSF1bY0hdYyhbY0hdW2NIXTEpT1tDSDJdW0NASF0oW09IXSlbQ0gyXW4oW2NIXW4yKWMoYzIzKVtjSF1bY0hdW2NIXVtjSF0z

> <s_epik_cmdline>
J2VwaWtfcHl0aG9uJywgJy1waCcsICc3LjAnLCAnLXRuJywgJzgnLCAnLW1hJywgJzIwMCcsICctbWV0YWxfYmluZGluZycsICctaW1hZScsICc8aW5maWxlLm1hZT4nLCAnLW9tYWUnLCAnPG91dGZpbGUubWFlPic=

> <r_lp_tautomer_probability>
1

> <r_epik_Ionization_Penalty>
0.0609831

> <r_epik_Ionization_Penalty_Charging>
0

> <r_epik_Ionization_Penalty_Neutral>
0.0609831

> <r_epik_State_Penalty>
0.0529032

> <r_epik_Charging_Adjusted_Penalty>
0.0529032

> <i_epik_Tot_Q>
0

> <i_epik_Tot_abs_Q>
0

> <r_epik_Metal_State_Penalty>
5.53344e-05

> <b_epik_Metal_Only>
0

> <s_lp_Force_Field>
OPLS_2005

> <r_lp_Energy>
14.7938

> <b_lp_Chiralities_Consistent>
1

> <s_lp_Variant>
AV-unprocessed.smi:2131-2

> <Gold.Version>
5.8.1

> <Gold.Id.Protein>
6NUR|6NUR_protein|mol2

> <Gold.PLP.Fitness>
51.9611

> <Gold.PLP.PLP>
-53.8716

> <Gold.PLP.part.hbond>
-1.1043

> <Gold.PLP.part.metal>
0.0000

> <Gold.PLP.part.buried>
-5.3069

> <Gold.PLP.part.nonpolar>
-47.0576

> <Gold.PLP.part.repulsive>
0.4726

> <Gold.PLP.ligand.clash>
0.0000

> <Gold.PLP.ligand.torsion>
0.9863

> <Gold.PLP.Chemscore.Hbond>
0.0000

> <Gold.PLP.Chemscore.CHOScore>
0.0000

> <Gold.PLP.Chemscore.Metal>
0.0000

> <Gold.PLP.Chemscore.Internal.Correction>
0.0622

> <Gold.Rescore>
     Score         DG    S(hbond)    S(metal)    S(lipo)     H(rot)  DE(clash)    DE(int)     intcor
     14.44     -15.40       0.00        0.00     144.28       2.72       0.12       0.84       ----

> <Gold.Chemscore.Fitness>
14.4425

> <Gold.Chemscore.DG>
-15.4014

> <Gold.Chemscore.ZeroCoef>
-5.4800

> <Gold.Chemscore.Hbond>
0.0000

> <Gold.Chemscore.Metal>
0.0000

> <Gold.Chemscore.Lipo>
144.2752

> <Gold.Chemscore.Internal_Hbond>
0.0000

> <Gold.Chemscore.DEClash>
0.1212

> <Gold.Chemscore.DEInternal>
0.8377

> <Gold.Chemscore.Rot>
2.7183

> <Gold.Chemscore.Internal.Correction>
   9.000000E+99

> <Gold.Chemscore.Hbond.Weighted>
-0.0000

> <Gold.Chemscore.Metal.Weighted>
-0.0000

> <Gold.Chemscore.Lipo.Weighted>
-16.8802

> <Gold.Chemscore.Internal_Hbond.Weighted>
0.0000

> <Gold.Chemscore.DEClash.Weighted>
0.1212

> <Gold.Chemscore.DEInternal.Weighted>
0.8377

> <Gold.Chemscore.Rot.Weighted>
6.9588

> <Gold.Chemscore.Internal.Correction.Weighted>
   9.000000E+99

> <Gold.Protein.RotatedTorsions>
[ 6907 6896 6895 6894 ] final  171.66 input  -60.11 | X-H torsion
[ 7974 7965 7964 7962 ] final   55.70 input  175.53 | X-H torsion
[ 8008 7997 7996 7995 ] final -131.34 input   59.86 | X-H torsion
[ 10167 10162 10161 10158 ] final   43.09 input  -65.29 | X-H torsion
[ 10718 10713 10712 10709 ] final  109.05 input   66.30 | X-H torsion
[ 10763 10752 10751 10750 ] final   51.50 input  -60.55 | X-H torsion
[ 11005 11000 10999 10996 ] final  116.28 input  -57.11 | X-H torsion

> <Gold.Protein.ActiveResidues>
 VAL166  LYS551  ARG553  GLY616  TRP617  ASP618  TYR619  PRO620  LYS621  CYS622 
 ASP623  PHE694  ASN695  SER759  ASP760  ASP761  ALA762  ILE779  LEU786  VAL792 
 PHE793  MET794  SER795  GLU796  ALA797  LYS798  CYS799  TRP800  GLU811  SER814 

> <Gold.Protein.RotatedAtoms>
  151.7966  133.3365  159.3514 H   0  0  0  0  0  0  0  0  0  0  0  0  # atno 6907 bound_to 6896
  150.7373  134.5793  159.5939 H   0  0  0  0  0  0  0  0  0  0  0  0  # atno 6908 bound_to 6896
  152.3172  134.7426  160.0373 H   0  0  0  0  0  0  0  0  0  0  0  0  # atno 6909 bound_to 6896
  145.9476  139.3943  143.0325 H   0  0  0  0  0  0  0  0  0  0  0  0  # atno 7974 bound_to 7965
  155.3108  140.0457  157.3035 H   0  0  0  0  0  0  0  0  0  0  0  0  # atno 8008 bound_to 7997
  154.5434  140.2295  155.8570 H   0  0  0  0  0  0  0  0  0  0  0  0  # atno 8009 bound_to 7997
  156.1902  140.3052  155.9323 H   0  0  0  0  0  0  0  0  0  0  0  0  # atno 8010 bound_to 7997
  140.3479  144.2388  150.6148 H   0  0  0  0  0  0  0  0  0  0  0  0  # atno 10167 bound_to 10162
  157.6559  131.0906  150.6396 H   0  0  0  0  0  0  0  0  0  0  0  0  # atno 10718 bound_to 10713
  152.9785  135.5844  154.4425 H   0  0  0  0  0  0  0  0  0  0  0  0  # atno 10763 bound_to 10752
  154.4025  135.2769  155.2090 H   0  0  0  0  0  0  0  0  0  0  0  0  # atno 10764 bound_to 10752
  154.3915  135.6124  153.5900 H   0  0  0  0  0  0  0  0  0  0  0  0  # atno 10765 bound_to 10752
  139.9036  134.9596  156.7174 H   0  0  0  0  0  0  0  0  0  0  0  0  # atno 11005 bound_to 11000
  145.8215  140.9676  143.0896 LP  0  0  0  0  0  0  0  0  0  0  0  0  # atno 17320 bound_to 7965
  144.6790  140.0047  143.7484 LP  0  0  0  0  0  0  0  0  0  0  0  0  # atno 17321 bound_to 7965
  140.5247  143.2257  151.8333 LP  0  0  0  0  0  0  0  0  0  0  0  0  # atno 17342 bound_to 10162
  139.4830  144.4794  151.9326 LP  0  0  0  0  0  0  0  0  0  0  0  0  # atno 17343 bound_to 10162
  156.6703  130.4537  149.5659 LP  0  0  0  0  0  0  0  0  0  0  0  0  # atno 17370 bound_to 10713
  156.2002  130.6615  151.1159 LP  0  0  0  0  0  0  0  0  0  0  0  0  # atno 17371 bound_to 10713
  140.7028  133.9292  155.8035 LP  0  0  0  0  0  0  0  0  0  0  0  0  # atno 17394 bound_to 11000
  141.0359  134.0690  157.3960 LP  0  0  0  0  0  0  0  0  0  0  0  0  # atno 17395 bound_to 11000

$$$$
