AV-unprocessed.smi:283|AV-procd|sdf|2130|dock4
  -GOLD-   2262021443D 1   1.00000     0.00000
 Structure written by MMmdl.
 48 51  0  0  0  0  0  0  0  0  1 V2000
  151.3594  139.7081  156.1022 C   0  0  0  0  0  0  0  0  0  0  0  0
  150.5341  140.2281  157.2934 C   0  0  1  0  0  0  0  0  0  0  0  0
  150.2918  139.1695  158.2729 N   0  0  0  0  0  0  0  0  0  0  0  0
  149.6076  138.0480  157.9553 C   0  0  0  0  0  0  0  0  0  0  0  0
  149.2694  137.7647  156.6702 N   0  0  0  0  0  0  0  0  0  0  0  0
  148.5873  136.6509  156.3880 C   0  0  0  0  0  0  0  0  0  0  0  0
  148.1527  135.7043  157.2234 N   0  0  0  0  0  0  0  0  0  0  0  0
  148.4869  135.9862  158.5163 C   0  0  0  0  0  0  0  0  0  0  0  0
  149.2044  137.1312  158.9601 C   0  0  0  0  0  0  0  0  0  0  0  0
  149.3492  137.0882  160.3395 N   0  0  0  0  0  0  0  0  0  0  0  0
  148.7429  135.9847  160.6863 C   0  0  0  0  0  0  0  0  0  0  0  0
  148.2100  135.2466  159.6469 N   0  0  0  0  0  0  0  0  0  0  0  0
  147.4280  133.9638  159.6721 C   0  0  2  0  0  0  0  0  0  0  0  0
  146.3971  134.1228  160.5967 O   0  0  0  0  0  0  0  0  0  0  0  0
  146.8111  133.6192  161.8602 C   0  0  1  0  0  0  0  0  0  0  0  0
  145.6059  133.3935  162.7915 C   0  0  0  0  0  0  0  0  0  0  0  0
  144.7024  132.4822  162.2032 O   0  0  0  0  0  0  0  0  0  0  0  0
  147.5948  132.3597  161.4594 C   0  0  1  0  0  0  0  0  0  0  0  0
  146.7171  131.2571  161.2943 O   0  0  0  0  0  0  0  0  0  0  0  0
  148.2822  132.7728  160.1515 C   0  0  1  0  0  0  0  0  0  0  0  0
  148.3441  131.7250  159.2014 O   0  0  0  0  0  0  0  0  0  0  0  0
  151.2190  141.4479  157.9077 C   0  0  0  0  0  0  0  0  0  0  0  0
  150.7687  142.7490  157.5814 C   0  0  0  0  0  0  0  0  0  0  0  0
  151.3834  143.8841  158.1425 C   0  0  0  0  0  0  0  0  0  0  0  0
  152.4528  143.7314  159.0428 C   0  0  0  0  0  0  0  0  0  0  0  0
  152.9012  142.4425  159.3850 C   0  0  0  0  0  0  0  0  0  0  0  0
  152.2889  141.3020  158.8273 C   0  0  0  0  0  0  0  0  0  0  0  0
  152.8705  139.7441  159.3022 Cl  0  0  0  0  0  0  0  0  0  0  0  0
  147.0338  133.8457  158.6623 H   0  0  0  0  0  0  0  0  0  0  0  0
  147.5020  134.3251  162.3227 H   0  0  0  0  0  0  0  0  0  0  0  0
  148.3244  132.0899  162.2236 H   0  0  0  0  0  0  0  0  0  0  0  0
  149.3039  133.0942  160.3494 H   0  0  0  0  0  0  0  0  0  0  0  0
  151.4967  140.4885  155.3534 H   0  0  0  0  0  0  0  0  0  0  0  0
  150.8749  138.8675  155.6063 H   0  0  0  0  0  0  0  0  0  0  0  0
  152.3485  139.3778  156.4209 H   0  0  0  0  0  0  0  0  0  0  0  0
  149.5591  140.5481  156.9284 H   0  0  0  0  0  0  0  0  0  0  0  0
  150.7198  139.3081  159.1769 H   0  0  0  0  0  0  0  0  0  0  0  0
  148.3566  136.4961  155.3443 H   0  0  0  0  0  0  0  0  0  0  0  0
  148.6745  135.6863  161.7218 H   0  0  0  0  0  0  0  0  0  0  0  0
  145.9197  133.0310  163.7709 H   0  0  0  0  0  0  0  0  0  0  0  0
  145.0696  134.3301  162.9465 H   0  0  0  0  0  0  0  0  0  0  0  0
  143.9050  132.4785  162.7101 H   0  0  0  0  0  0  0  0  0  0  0  0
  145.8336  131.5862  161.2288 H   0  0  0  0  0  0  0  0  0  0  0  0
  147.7180  131.9031  158.5162 H   0  0  0  0  0  0  0  0  0  0  0  0
  149.9428  142.8881  156.8996 H   0  0  0  0  0  0  0  0  0  0  0  0
  151.0319  144.8722  157.8839 H   0  0  0  0  0  0  0  0  0  0  0  0
  152.9252  144.6013  159.4748 H   0  0  0  0  0  0  0  0  0  0  0  0
  153.7173  142.3289  160.0833 H   0  0  0  0  0  0  0  0  0  0  0  0
  1  2  1  0  0  0  0
  1 33  1  0  0  0  0
  1 34  1  0  0  0  0
  1 35  1  0  0  0  0
  2  3  1  0  0  0  0
  2 22  1  0  0  0  0
  2 36  1  0  0  0  0
  3  4  1  0  0  0  0
  3 37  1  0  0  0  0
  4  9  1  0  0  0  0
  4  5  2  0  0  0  0
  5  6  1  0  0  0  0
  6  7  2  0  0  0  0
  6 38  1  0  0  0  0
  7  8  1  0  0  0  0
  8 12  1  0  0  0  0
  8  9  2  0  0  0  0
  9 10  1  0  0  0  0
 10 11  2  0  0  0  0
 11 12  1  0  0  0  0
 11 39  1  0  0  0  0
 12 13  1  0  0  0  0
 13 29  1  0  0  0  0
 13 20  1  0  0  0  0
 13 14  1  0  0  0  0
 14 15  1  0  0  0  0
 15 30  1  0  0  0  0
 15 16  1  0  0  0  0
 15 18  1  0  0  0  0
 16 17  1  0  0  0  0
 16 40  1  0  0  0  0
 16 41  1  0  0  0  0
 17 42  1  0  0  0  0
 18 31  1  0  0  0  0
 18 19  1  0  0  0  0
 18 20  1  0  0  0  0
 19 43  1  0  0  0  0
 20 32  1  0  0  0  0
 20 21  1  0  0  0  0
 21 44  1  0  0  0  0
 22 27  1  0  0  0  0
 22 23  2  0  0  0  0
 23 24  1  0  0  0  0
 23 45  1  0  0  0  0
 24 25  2  0  0  0  0
 24 46  1  0  0  0  0
 25 26  1  0  0  0  0
 25 47  1  0  0  0  0
 26 27  2  0  0  0  0
 26 48  1  0  0  0  0
 27 28  1  0  0  0  0
M  END
> <s_m_source_file>
AV-unprocessed.smi

> <i_m_source_file_index>
283

> <i_lp_mmshare_version>
43012

> <i_f3d_flags>
0

> <s_epik_input>
Q2xjMVtjSF1bY0hdW2NIXVtjSF1jMVtDQEhdKFtDSDNdKVtOSF1jKG5bY0hdbjIpYyhjMjMpbltjSF1uM1tDQEBIXTRPW0NASF0oW0NIMl1bT0hdKVtDQEBIXShbT0hdKVtDQEhdNFtPSF0=

> <s_epik_cmdline>
J2VwaWtfcHl0aG9uJywgJy1waCcsICc3LjAnLCAnLXRuJywgJzgnLCAnLW1hJywgJzIwMCcsICctbWV0YWxfYmluZGluZycsICctaW1hZScsICc8aW5maWxlLm1hZT4nLCAnLW9tYWUnLCAnPG91dGZpbGUubWFlPic=

> <r_lp_tautomer_probability>
1

> <r_epik_Ionization_Penalty>
0.000266407

> <r_epik_Ionization_Penalty_Charging>
0

> <r_epik_Ionization_Penalty_Neutral>
0.000266407

> <r_epik_State_Penalty>
-0

> <r_epik_Charging_Adjusted_Penalty>
0

> <i_epik_Tot_Q>
0

> <i_epik_Tot_abs_Q>
0

> <r_epik_Metal_State_Penalty>
-0

> <b_epik_Metal_Only>
0

> <s_epik_Chemistry_Notes>
This compound contains an acetal/aminal-like group ( X-CH(R)-Y where X, Y are N, S, or O) that may be acid/base labile, releasing an aldehyde.

> <s_lp_Force_Field>
OPLS_2005

> <r_lp_Energy>
48.0921

> <b_lp_Chiralities_Consistent>
1

> <s_lp_Variant>
AV-unprocessed.smi:283-6

> <Gold.Version>
5.8.1

> <Gold.Id.Protein>
6NUR|6NUR_protein|mol2

> <Gold.PLP.Fitness>
44.2160

> <Gold.PLP.PLP>
-43.8398

> <Gold.PLP.part.hbond>
-2.2578

> <Gold.PLP.part.metal>
0.0000

> <Gold.PLP.part.buried>
-5.9173

> <Gold.PLP.part.nonpolar>
-37.3381

> <Gold.PLP.part.repulsive>
0.1495

> <Gold.PLP.ligand.clash>
0.0000

> <Gold.PLP.ligand.torsion>
0.6528

> <Gold.PLP.Chemscore.Hbond>
0.5280

> <Gold.PLP.Chemscore.CHOScore>
0.0000

> <Gold.PLP.Chemscore.Metal>
0.0000

> <Gold.Chemscore.Hbonds>
donor molecule, donor type, donor heavy atom, donor atom, acceptor molecule, acceptor atom, score
      P1  H  6931  6943       L1    10  0.51

> <Gold.PLP.Chemscore.Internal.Correction>
0.0978

> <Gold.Rescore>
     Score         DG    S(hbond)    S(metal)    S(lipo)     H(rot)  DE(clash)    DE(int)     intcor
      7.81      -9.37       0.70        0.00     102.95       4.10       0.08       1.49       ----

> <Gold.Chemscore.Fitness>
7.8067

> <Gold.Chemscore.DG>
-9.3747

> <Gold.Chemscore.ZeroCoef>
-5.4800

> <Gold.Chemscore.Hbond>
0.6997

> <Gold.Chemscore.Metal>
0.0000

> <Gold.Chemscore.Lipo>
102.9530

> <Gold.Chemscore.Internal_Hbond>
0.0000

> <Gold.Chemscore.DEClash>
0.0811

> <Gold.Chemscore.DEInternal>
1.4869

> <Gold.Chemscore.Rot>
4.0968

> <Gold.Chemscore.Internal.Correction>
   9.000000E+99

> <Gold.Chemscore.Hbonds>
donor molecule, donor type, donor heavy atom, donor atom, acceptor molecule, acceptor atom, score
      P1  H  6931  6943       L1    10  0.22

> <Gold.Chemscore.Hbond.Weighted>
-2.3371

> <Gold.Chemscore.Metal.Weighted>
-0.0000

> <Gold.Chemscore.Lipo.Weighted>
-12.0455

> <Gold.Chemscore.Internal_Hbond.Weighted>
0.0000

> <Gold.Chemscore.DEClash.Weighted>
0.0811

> <Gold.Chemscore.DEInternal.Weighted>
1.4869

> <Gold.Chemscore.Rot.Weighted>
10.4879

> <Gold.Chemscore.Internal.Correction.Weighted>
   9.000000E+99

> <Gold.Protein.RotatedTorsions>
[ 6907 6896 6895 6894 ] final -166.63 input  -60.11 | X-H torsion
[ 7974 7965 7964 7962 ] final  116.81 input  175.53 | X-H torsion
[ 8008 7997 7996 7995 ] final   59.38 input   59.86 | X-H torsion
[ 10167 10162 10161 10158 ] final  148.47 input  -65.29 | X-H torsion
[ 10718 10713 10712 10709 ] final  -55.82 input   66.30 | X-H torsion
[ 10763 10752 10751 10750 ] final   19.94 input  -60.55 | X-H torsion
[ 11005 11000 10999 10996 ] final  -41.17 input  -57.11 | X-H torsion

> <Gold.Protein.ActiveResidues>
 VAL166  LYS551  ARG553  GLY616  TRP617  ASP618  TYR619  PRO620  LYS621  CYS622 
 ASP623  PHE694  ASN695  SER759  ASP760  ASP761  ALA762  ILE779  LEU786  VAL792 
 PHE793  MET794  SER795  GLU796  ALA797  LYS798  CYS799  TRP800  GLU811  SER814 

> <Gold.Protein.RotatedAtoms>
  151.4466  133.3629  159.2789 H   0  0  0  0  0  0  0  0  0  0  0  0  # atno 6907 bound_to 6896
  150.9120  134.8539  159.7442 H   0  0  0  0  0  0  0  0  0  0  0  0  # atno 6908 bound_to 6896
  152.4937  134.4396  159.9591 H   0  0  0  0  0  0  0  0  0  0  0  0  # atno 6909 bound_to 6896
  145.1750  139.3081  143.4448 H   0  0  0  0  0  0  0  0  0  0  0  0  # atno 7974 bound_to 7965
  155.5652  140.3489  155.4501 H   0  0  0  0  0  0  0  0  0  0  0  0  # atno 8008 bound_to 7997
  156.0485  140.1312  157.0102 H   0  0  0  0  0  0  0  0  0  0  0  0  # atno 8009 bound_to 7997
  154.4423  140.1009  156.6326 H   0  0  0  0  0  0  0  0  0  0  0  0  # atno 8010 bound_to 7997
  139.4874  144.5677  151.7114 H   0  0  0  0  0  0  0  0  0  0  0  0  # atno 10167 bound_to 10162
  156.1338  130.4158  150.0222 H   0  0  0  0  0  0  0  0  0  0  0  0  # atno 10718 bound_to 10713
  153.1120  135.6699  153.9484 H   0  0  0  0  0  0  0  0  0  0  0  0  # atno 10763 bound_to 10752
  153.9025  135.3034  155.3450 H   0  0  0  0  0  0  0  0  0  0  0  0  # atno 10764 bound_to 10752
  154.7538  135.5021  153.9415 H   0  0  0  0  0  0  0  0  0  0  0  0  # atno 10765 bound_to 10752
  141.0227  133.6855  156.2420 H   0  0  0  0  0  0  0  0  0  0  0  0  # atno 11005 bound_to 11000
  146.3462  140.1909  142.8589 LP  0  0  0  0  0  0  0  0  0  0  0  0  # atno 17320 bound_to 7965
  145.0194  140.8781  143.5176 LP  0  0  0  0  0  0  0  0  0  0  0  0  # atno 17321 bound_to 7965
  140.5258  144.0808  150.6037 LP  0  0  0  0  0  0  0  0  0  0  0  0  # atno 17342 bound_to 10162
  140.3781  143.2817  152.0202 LP  0  0  0  0  0  0  0  0  0  0  0  0  # atno 17343 bound_to 10162
  156.8127  130.9330  151.3643 LP  0  0  0  0  0  0  0  0  0  0  0  0  # atno 17370 bound_to 10713
  157.6513  130.8887  149.9638 LP  0  0  0  0  0  0  0  0  0  0  0  0  # atno 17371 bound_to 10713
  140.6546  134.5032  157.5580 LP  0  0  0  0  0  0  0  0  0  0  0  0  # atno 17394 bound_to 11000
  139.9156  134.8254  156.1378 LP  0  0  0  0  0  0  0  0  0  0  0  0  # atno 17395 bound_to 11000

$$$$
