AV-unprocessed.smi:845|AV-procd|sdf|3931|dock7
  -GOLD-   22720 1393D 1   1.00000     0.00000
 Structure written by MMmdl.
 42 43  0  0  0  0  0  0  0  0  3 V2000
  151.4283  137.7233  154.0666 C   0  0  0  0  0  0  0  0  0  0  0  0
  150.0459  138.3367  154.3500 C   0  0  0  0  0  0  0  0  0  0  0  0
  150.1848  139.7951  154.8206 C   0  0  0  0  0  0  0  0  0  0  0  0
  149.1918  137.4309  155.2843 C   0  0  2  0  0  0  0  0  0  0  0  0
  149.6997  137.3270  156.7475 C   0  0  0  0  0  0  0  0  0  0  0  0
  148.7997  136.5426  157.5892 N   0  0  0  0  0  0  0  0  0  0  0  0
  148.9910  136.2115  158.8743 C   0  0  0  0  0  0  0  0  0  0  0  0
  150.0226  136.5553  159.4558 O   0  0  0  0  0  0  0  0  0  0  0  0
  147.9673  135.5086  159.4081 N   0  5  0  0  0  0  0  0  0  0  0  0
  147.7297  135.5676  160.7284 C   0  0  0  0  0  0  0  0  0  0  0  0
  148.0311  136.6354  161.4766 N   0  0  0  0  0  0  0  0  0  0  0  0
  147.6938  136.4827  162.8227 C   0  0  0  0  0  0  0  0  0  0  0  0
  147.1147  135.2737  163.1042 C   0  0  0  0  0  0  0  0  0  0  0  0
  146.9742  134.2853  161.6785 S   0  0  0  0  0  0  0  0  0  0  0  0
  148.9248  136.1029  154.6477 N   0  3  0  0  0  0  0  0  0  0  0  0
  149.9087  135.0219  154.9205 C   0  0  0  0  0  0  0  0  0  0  0  0
  149.5877  133.7901  154.0598 C   0  0  0  0  0  0  0  0  0  0  0  0
  148.2654  133.3492  154.3442 O   0  0  0  0  0  0  0  0  0  0  0  0
  147.2931  134.3399  154.0333 C   0  0  0  0  0  0  0  0  0  0  0  0
  147.5455  135.6056  154.8711 C   0  0  0  0  0  0  0  0  0  0  0  0
  152.0399  137.6730  154.9676 H   0  0  0  0  0  0  0  0  0  0  0  0
  151.9740  138.3155  153.3313 H   0  0  0  0  0  0  0  0  0  0  0  0
  151.3379  136.7126  153.6673 H   0  0  0  0  0  0  0  0  0  0  0  0
  149.5440  138.3726  153.3832 H   0  0  0  0  0  0  0  0  0  0  0  0
  150.8035  139.8727  155.7143 H   0  0  0  0  0  0  0  0  0  0  0  0
  149.2172  140.2452  155.0383 H   0  0  0  0  0  0  0  0  0  0  0  0
  150.6561  140.4047  154.0492 H   0  0  0  0  0  0  0  0  0  0  0  0
  148.2317  137.9447  155.3579 H   0  0  0  0  0  0  0  0  0  0  0  0
  150.6660  136.8223  156.7630 H   0  0  0  0  0  0  0  0  0  0  0  0
  149.8677  138.3120  157.1838 H   0  0  0  0  0  0  0  0  0  0  0  0
  147.9391  136.2306  157.1633 H   0  0  0  0  0  0  0  0  0  0  0  0
  147.9016  137.2875  163.5121 H   0  0  0  0  0  0  0  0  0  0  0  0
  146.7631  134.9064  164.0564 H   0  0  0  0  0  0  0  0  0  0  0  0
  150.9235  135.3573  154.7131 H   0  0  0  0  0  0  0  0  0  0  0  0
  149.8750  134.7361  155.9726 H   0  0  0  0  0  0  0  0  0  0  0  0
  149.6916  134.0169  152.9975 H   0  0  0  0  0  0  0  0  0  0  0  0
  150.2850  132.9829  154.2841 H   0  0  0  0  0  0  0  0  0  0  0  0
  147.3216  134.5689  152.9670 H   0  0  0  0  0  0  0  0  0  0  0  0
  146.3014  133.9405  154.2460 H   0  0  0  0  0  0  0  0  0  0  0  0
  147.3987  135.3946  155.9316 H   0  0  0  0  0  0  0  0  0  0  0  0
  146.8200  136.3701  154.5902 H   0  0  0  0  0  0  0  0  0  0  0  0
  148.9792  136.2819  153.6552 H   0  0  0  0  0  0  0  0  0  0  0  0
  1  2  1  0  0  0  0
  1 21  1  0  0  0  0
  1 22  1  0  0  0  0
  1 23  1  0  0  0  0
  2  3  1  0  0  0  0
  2  4  1  0  0  0  0
  2 24  1  0  0  0  0
  3 25  1  0  0  0  0
  3 26  1  0  0  0  0
  3 27  1  0  0  0  0
  4  5  1  0  0  0  0
  4 15  1  0  0  0  0
  4 28  1  0  0  0  0
  5  6  1  0  0  0  0
  5 29  1  0  0  0  0
  5 30  1  0  0  0  0
  6  7  1  0  0  0  0
  6 31  1  0  0  0  0
  7  8  2  0  0  0  0
  7  9  1  0  0  0  0
  9 10  1  0  0  0  0
 10 14  1  0  0  0  0
 10 11  2  0  0  0  0
 11 12  1  0  0  0  0
 12 13  2  0  0  0  0
 12 32  1  0  0  0  0
 13 14  1  0  0  0  0
 13 33  1  0  0  0  0
 15 20  1  0  0  0  0
 15 16  1  0  0  0  0
 15 42  1  0  0  0  0
 16 17  1  0  0  0  0
 16 34  1  0  0  0  0
 16 35  1  0  0  0  0
 17 18  1  0  0  0  0
 17 36  1  0  0  0  0
 17 37  1  0  0  0  0
 18 19  1  0  0  0  0
 19 20  1  0  0  0  0
 19 38  1  0  0  0  0
 19 39  1  0  0  0  0
 20 40  1  0  0  0  0
 20 41  1  0  0  0  0
M  CHG  1   9  -1
M  CHG  1  15   1
M  END
> <s_m_source_file>
AV-unprocessed.smi

> <i_m_source_file_index>
845

> <i_lp_mmshare_version>
43012

> <i_f3d_flags>
0

> <s_epik_input>
W0NIMl0xW0NIMl1PW0NIMl1bQ0gyXU4xW0NASF0oW0NIXShbQ0gzXSlbQ0gzXSlbQ0gyXVtOSF1DKD1PKVtOSF1jMm5bY0hdW2NIXXMy

> <s_epik_cmdline>
J2VwaWtfcHl0aG9uJywgJy1waCcsICc3LjAnLCAnLXRuJywgJzgnLCAnLW1hJywgJzIwMCcsICctbWV0YWxfYmluZGluZycsICctaW1hZScsICc8aW5maWxlLm1hZT4nLCAnLW9tYWUnLCAnPG91dGZpbGUubWFlPic=

> <r_lp_tautomer_probability>
0.999

> <r_epik_Ionization_Penalty>
7.97104

> <r_epik_Ionization_Penalty_Charging>
6.58021

> <r_epik_Ionization_Penalty_Neutral>
1.39083

> <r_epik_State_Penalty>
6.69807

> <r_epik_Charging_Adjusted_Penalty>
13.2783

> <i_epik_Tot_Q>
0

> <i_epik_Tot_abs_Q>
2

> <r_epik_Metal_State_Penalty>
2.62985

> <b_epik_Metal_Only>
1

> <s_lp_Force_Field>
OPLS_2005

> <r_lp_Energy>
16.3382

> <b_lp_Chiralities_Consistent>
1

> <s_lp_Variant>
AV-unprocessed.smi:845-5

> <Gold.Version>
5.8.1

> <Gold.Id.Protein>
6NUR|6NUR_protein|mol2

> <Gold.PLP.Fitness>
43.0389

> <Gold.PLP.PLP>
-34.1506

> <Gold.PLP.part.hbond>
-3.0972

> <Gold.PLP.part.metal>
0.0000

> <Gold.PLP.part.buried>
-3.7211

> <Gold.PLP.part.nonpolar>
-26.6302

> <Gold.PLP.part.repulsive>
0.1149

> <Gold.PLP.ligand.clash>
0.0000

> <Gold.PLP.ligand.torsion>
1.1184

> <Gold.PLP.Chemscore.Hbond>
3.5500

> <Gold.PLP.Chemscore.CHOScore>
0.0000

> <Gold.PLP.Chemscore.Metal>
0.0000

> <Gold.Chemscore.Hbonds>
donor molecule, donor type, donor heavy atom, donor atom, acceptor molecule, acceptor atom, score
      L1  H    15    42       P1  7948  2.00
      P1  H  6896  6909       L1     8  1.00
      P1  H  6931  6943       L1    11  0.50

> <Gold.PLP.Chemscore.Internal.Correction>
0.4751

> <Gold.Rescore>
     Score         DG    S(hbond)    S(metal)    S(lipo)     H(rot)  DE(clash)    DE(int)     intcor
     13.84     -16.27       2.00        0.00      73.77       1.76       0.01       2.42       ----

> <Gold.Chemscore.Fitness>
13.8440

> <Gold.Chemscore.DG>
-16.2720

> <Gold.Chemscore.ZeroCoef>
-5.4800

> <Gold.Chemscore.Hbond>
1.9977

> <Gold.Chemscore.Metal>
0.0000

> <Gold.Chemscore.Lipo>
73.7729

> <Gold.Chemscore.Internal_Hbond>
0.0000

> <Gold.Chemscore.DEClash>
0.0111

> <Gold.Chemscore.DEInternal>
2.4169

> <Gold.Chemscore.Rot>
1.7623

> <Gold.Chemscore.Internal.Correction>
   9.000000E+99

> <Gold.Chemscore.Hbonds>
donor molecule, donor type, donor heavy atom, donor atom, acceptor molecule, acceptor atom, score
      L1  H    15    42       P1  7948  0.99
      P1  H  6896  6909       L1     8  0.70
      P1  H  6931  6943       L1    11  0.02

> <Gold.Chemscore.Hbond.Weighted>
-6.6722

> <Gold.Chemscore.Metal.Weighted>
-0.0000

> <Gold.Chemscore.Lipo.Weighted>
-8.6314

> <Gold.Chemscore.Internal_Hbond.Weighted>
0.0000

> <Gold.Chemscore.DEClash.Weighted>
0.0111

> <Gold.Chemscore.DEInternal.Weighted>
2.4169

> <Gold.Chemscore.Rot.Weighted>
4.5116

> <Gold.Chemscore.Internal.Correction.Weighted>
   9.000000E+99

> <Gold.Protein.RotatedTorsions>
[ 6907 6896 6895 6894 ] final   86.94 input  -60.11 | X-H torsion
[ 7974 7965 7964 7962 ] final -168.33 input  175.53 | X-H torsion
[ 8008 7997 7996 7995 ] final   13.81 input   59.86 | X-H torsion
[ 10167 10162 10161 10158 ] final   51.41 input  -65.29 | X-H torsion
[ 10718 10713 10712 10709 ] final   59.29 input   66.30 | X-H torsion
[ 10763 10752 10751 10750 ] final  138.83 input  -60.55 | X-H torsion
[ 11005 11000 10999 10996 ] final  108.51 input  -57.11 | X-H torsion

> <Gold.Protein.ActiveResidues>
 VAL166  LYS551  ARG553  GLY616  TRP617  ASP618  TYR619  PRO620  LYS621  CYS622 
 ASP623  PHE694  ASN695  SER759  ASP760  ASP761  ALA762  ILE779  LEU786  VAL792 
 PHE793  MET794  SER795  GLU796  ALA797  LYS798  CYS799  TRP800  GLU811  SER814 

> <Gold.Protein.RotatedAtoms>
  152.5403  134.2354  159.8840 H   0  0  0  0  0  0  0  0  0  0  0  0  # atno 6907 bound_to 6896
  151.2323  133.4437  159.2612 H   0  0  0  0  0  0  0  0  0  0  0  0  # atno 6908 bound_to 6896
  151.0703  134.9808  159.8361 H   0  0  0  0  0  0  0  0  0  0  0  0  # atno 6909 bound_to 6896
  144.7205  140.2385  143.6294 H   0  0  0  0  0  0  0  0  0  0  0  0  # atno 7974 bound_to 7965
  154.8396  140.2912  155.5668 H   0  0  0  0  0  0  0  0  0  0  0  0  # atno 8008 bound_to 7997
  156.3011  140.2516  156.3267 H   0  0  0  0  0  0  0  0  0  0  0  0  # atno 8009 bound_to 7997
  154.9140  140.0388  157.1951 H   0  0  0  0  0  0  0  0  0  0  0  0  # atno 8010 bound_to 7997
  140.2622  144.3360  150.6315 H   0  0  0  0  0  0  0  0  0  0  0  0  # atno 10167 bound_to 10162
  157.5664  130.8874  149.9194 H   0  0  0  0  0  0  0  0  0  0  0  0  # atno 10718 bound_to 10713
  153.8960  135.3027  155.3448 H   0  0  0  0  0  0  0  0  0  0  0  0  # atno 10763 bound_to 10752
  154.7693  135.4894  153.9620 H   0  0  0  0  0  0  0  0  0  0  0  0  # atno 10764 bound_to 10752
  153.1271  135.6795  153.9338 H   0  0  0  0  0  0  0  0  0  0  0  0  # atno 10765 bound_to 10752
  139.8845  134.9432  156.5984 H   0  0  0  0  0  0  0  0  0  0  0  0  # atno 11005 bound_to 11000
  145.8342  139.2100  143.1865 LP  0  0  0  0  0  0  0  0  0  0  0  0  # atno 17320 bound_to 7965
  146.0404  140.8171  142.9831 LP  0  0  0  0  0  0  0  0  0  0  0  0  # atno 17321 bound_to 7965
  140.5957  143.2167  151.7169 LP  0  0  0  0  0  0  0  0  0  0  0  0  # atno 17342 bound_to 10162
  139.5013  144.3871  152.0317 LP  0  0  0  0  0  0  0  0  0  0  0  0  # atno 17343 bound_to 10162
  156.0712  130.3685  150.0773 LP  0  0  0  0  0  0  0  0  0  0  0  0  # atno 17370 bound_to 10713
  156.8931  130.9595  151.3586 LP  0  0  0  0  0  0  0  0  0  0  0  0  # atno 17371 bound_to 10713
  140.7902  133.8588  155.8640 LP  0  0  0  0  0  0  0  0  0  0  0  0  # atno 17394 bound_to 11000
  140.9684  134.1564  157.4597 LP  0  0  0  0  0  0  0  0  0  0  0  0  # atno 17395 bound_to 11000

$$$$
