AV-unprocessed.smi:969|AV-procd|sdf|4290|dock4
  -GOLD-   22720 2193D 1   1.00000     0.00000
 Structure written by MMmdl.
 37 38  0  0  0  0  0  0  0  0  1 V2000
  146.2818  142.8245  154.5059 C   0  0  0  0  0  0  0  0  0  0  0  0
  147.4974  142.0372  153.9985 C   0  0  0  0  0  0  0  0  0  0  0  0
  147.0901  140.6715  153.4238 C   0  0  0  0  0  0  0  0  0  0  0  0
  148.4546  141.8679  155.0878 N   0  0  0  0  0  0  0  0  0  0  0  0
  149.6560  141.2756  154.9844 C   0  0  0  0  0  0  0  0  0  0  0  0
  150.0804  140.7739  153.9433 O   0  0  0  0  0  0  0  0  0  0  0  0
  150.4498  141.1942  156.2563 C   0  0  0  0  0  0  0  0  0  0  0  0
  150.0376  141.8547  157.4343 C   0  0  0  0  0  0  0  0  0  0  0  0
  150.8363  141.7589  158.5899 C   0  0  0  0  0  0  0  0  0  0  0  0
  152.0379  141.0133  158.5404 C   0  0  0  0  0  0  0  0  0  0  0  0
  152.8555  140.9054  159.6864 N   0  0  0  0  0  0  0  0  0  0  0  0
  153.0679  142.1441  160.4315 C   0  0  0  0  0  0  0  0  0  0  0  0
  153.7044  141.8443  161.7997 C   0  0  0  0  0  0  0  0  0  0  0  0
  154.9010  141.0942  161.6214 O   0  0  0  0  0  0  0  0  0  0  0  0
  154.6507  139.8403  160.9958 C   0  0  0  0  0  0  0  0  0  0  0  0
  154.0524  140.0705  159.5978 C   0  0  0  0  0  0  0  0  0  0  0  0
  152.4338  140.3841  157.4066 N   0  0  0  0  0  0  0  0  0  0  0  0
  151.6657  140.4794  156.3005 C   0  0  0  0  0  0  0  0  0  0  0  0
  145.5617  142.9923  153.7045 H   0  0  0  0  0  0  0  0  0  0  0  0
  146.5786  143.8013  154.8899 H   0  0  0  0  0  0  0  0  0  0  0  0
  145.7687  142.2919  155.3078 H   0  0  0  0  0  0  0  0  0  0  0  0
  147.9635  142.6229  153.2040 H   0  0  0  0  0  0  0  0  0  0  0  0
  146.3798  140.7885  152.6050 H   0  0  0  0  0  0  0  0  0  0  0  0
  146.6222  140.0444  154.1836 H   0  0  0  0  0  0  0  0  0  0  0  0
  147.9536  140.1323  153.0325 H   0  0  0  0  0  0  0  0  0  0  0  0
  148.1818  142.2272  155.9911 H   0  0  0  0  0  0  0  0  0  0  0  0
  149.1231  142.4291  157.4647 H   0  0  0  0  0  0  0  0  0  0  0  0
  150.5130  142.2454  159.4980 H   0  0  0  0  0  0  0  0  0  0  0  0
  153.7228  142.7948  159.8507 H   0  0  0  0  0  0  0  0  0  0  0  0
  152.1375  142.6884  160.5864 H   0  0  0  0  0  0  0  0  0  0  0  0
  153.9427  142.7751  162.3142 H   0  0  0  0  0  0  0  0  0  0  0  0
  153.0104  141.2964  162.4393 H   0  0  0  0  0  0  0  0  0  0  0  0
  155.5881  139.2893  160.9168 H   0  0  0  0  0  0  0  0  0  0  0  0
  153.9796  139.2406  161.6128 H   0  0  0  0  0  0  0  0  0  0  0  0
  153.8092  139.1076  159.1468 H   0  0  0  0  0  0  0  0  0  0  0  0
  154.7862  140.5576  158.9540 H   0  0  0  0  0  0  0  0  0  0  0  0
  152.0371  139.9611  155.4286 H   0  0  0  0  0  0  0  0  0  0  0  0
  1  2  1  0  0  0  0
  1 19  1  0  0  0  0
  1 20  1  0  0  0  0
  1 21  1  0  0  0  0
  2  3  1  0  0  0  0
  2  4  1  0  0  0  0
  2 22  1  0  0  0  0
  3 23  1  0  0  0  0
  3 24  1  0  0  0  0
  3 25  1  0  0  0  0
  4  5  1  0  0  0  0
  4 26  1  0  0  0  0
  5  6  2  0  0  0  0
  5  7  1  0  0  0  0
  7 18  1  0  0  0  0
  7  8  2  0  0  0  0
  8  9  1  0  0  0  0
  8 27  1  0  0  0  0
  9 10  2  0  0  0  0
  9 28  1  0  0  0  0
 10 11  1  0  0  0  0
 10 17  1  0  0  0  0
 11 16  1  0  0  0  0
 11 12  1  0  0  0  0
 12 13  1  0  0  0  0
 12 29  1  0  0  0  0
 12 30  1  0  0  0  0
 13 14  1  0  0  0  0
 13 31  1  0  0  0  0
 13 32  1  0  0  0  0
 14 15  1  0  0  0  0
 15 16  1  0  0  0  0
 15 33  1  0  0  0  0
 15 34  1  0  0  0  0
 16 35  1  0  0  0  0
 16 36  1  0  0  0  0
 17 18  2  0  0  0  0
 18 37  1  0  0  0  0
M  END
> <s_m_source_file>
AV-unprocessed.smi

> <i_m_source_file_index>
969

> <i_lp_mmshare_version>
43012

> <i_f3d_flags>
0

> <s_epik_input>
W0NIM11bQ0hdKFtDSDNdKVtOSF1DKD1PKWMxW2NIXVtjSF1jKG5bY0hdMSlOMltDSDJdW0NIMl1PW0NIMl1bQ0gyXTI=

> <s_epik_cmdline>
J2VwaWtfcHl0aG9uJywgJy1waCcsICc3LjAnLCAnLXRuJywgJzgnLCAnLW1hJywgJzIwMCcsICctbWV0YWxfYmluZGluZycsICctaW1hZScsICc8aW5maWxlLm1hZT4nLCAnLW9tYWUnLCAnPG91dGZpbGUubWFlPic=

> <r_lp_tautomer_probability>
1

> <r_epik_Ionization_Penalty>
1.69485e-05

> <r_epik_Ionization_Penalty_Charging>
0

> <r_epik_Ionization_Penalty_Neutral>
1.69485e-05

> <r_epik_State_Penalty>
-0

> <r_epik_Charging_Adjusted_Penalty>
0

> <i_epik_Tot_Q>
0

> <i_epik_Tot_abs_Q>
0

> <r_epik_Metal_State_Penalty>
-0

> <b_epik_Metal_Only>
0

> <s_lp_Force_Field>
OPLS_2005

> <r_lp_Energy>
18.964

> <b_lp_Chiralities_Consistent>
1

> <s_lp_Variant>
AV-unprocessed.smi:969-1

> <Gold.Version>
5.8.1

> <Gold.Id.Protein>
6NUR|6NUR_protein|mol2

> <Gold.PLP.Fitness>
42.5783

> <Gold.PLP.PLP>
-37.6788

> <Gold.PLP.part.hbond>
-3.9071

> <Gold.PLP.part.metal>
0.0000

> <Gold.PLP.part.buried>
-2.8945

> <Gold.PLP.part.nonpolar>
-30.6766

> <Gold.PLP.part.repulsive>
1.7099

> <Gold.PLP.ligand.clash>
0.0000

> <Gold.PLP.ligand.torsion>
0.2360

> <Gold.PLP.Chemscore.Hbond>
1.6755

> <Gold.PLP.Chemscore.CHOScore>
0.0000

> <Gold.PLP.Chemscore.Metal>
0.0000

> <Gold.Chemscore.Hbonds>
donor molecule, donor type, donor heavy atom, donor atom, acceptor molecule, acceptor atom, score
      P1  H  7989  7998       L1     6  0.58
      P1  H  7997  8009       L1    17  0.77
      P1  H  8011  8017       L1     6  0.27

> <Gold.PLP.Chemscore.Internal.Correction>
0.3449

> <Gold.Rescore>
     Score         DG    S(hbond)    S(metal)    S(lipo)     H(rot)  DE(clash)    DE(int)     intcor
     14.71     -16.83       1.64        0.00      75.84       1.18       1.12       1.00       ----

> <Gold.Chemscore.Fitness>
14.7111

> <Gold.Chemscore.DG>
-16.8294

> <Gold.Chemscore.ZeroCoef>
-5.4800

> <Gold.Chemscore.Hbond>
1.6418

> <Gold.Chemscore.Metal>
0.0000

> <Gold.Chemscore.Lipo>
75.8438

> <Gold.Chemscore.Internal_Hbond>
0.0000

> <Gold.Chemscore.DEClash>
1.1157

> <Gold.Chemscore.DEInternal>
1.0027

> <Gold.Chemscore.Rot>
1.1750

> <Gold.Chemscore.Internal.Correction>
   9.000000E+99

> <Gold.Chemscore.Hbonds>
donor molecule, donor type, donor heavy atom, donor atom, acceptor molecule, acceptor atom, score
      P1  H  7989  7998       L1     6  0.57
      P1  H  7997  8009       L1    17  0.29
      P1  H  8011  8017       L1     6  0.13

> <Gold.Chemscore.Hbond.Weighted>
-5.4837

> <Gold.Chemscore.Metal.Weighted>
-0.0000

> <Gold.Chemscore.Lipo.Weighted>
-8.8737

> <Gold.Chemscore.Internal_Hbond.Weighted>
0.0000

> <Gold.Chemscore.DEClash.Weighted>
1.1157

> <Gold.Chemscore.DEInternal.Weighted>
1.0027

> <Gold.Chemscore.Rot.Weighted>
3.0080

> <Gold.Chemscore.Internal.Correction.Weighted>
   9.000000E+99

> <Gold.Protein.RotatedTorsions>
[ 6907 6896 6895 6894 ] final  -97.89 input  -60.11 | X-H torsion
[ 7974 7965 7964 7962 ] final  -82.26 input  175.53 | X-H torsion
[ 8008 7997 7996 7995 ] final -177.98 input   59.86 | X-H torsion
[ 10167 10162 10161 10158 ] final   59.82 input  -65.29 | X-H torsion
[ 10718 10713 10712 10709 ] final  -71.31 input   66.30 | X-H torsion
[ 10763 10752 10751 10750 ] final   59.75 input  -60.55 | X-H torsion
[ 11005 11000 10999 10996 ] final  120.98 input  -57.11 | X-H torsion

> <Gold.Protein.ActiveResidues>
 VAL166  LYS551  ARG553  GLY616  TRP617  ASP618  TYR619  PRO620  LYS621  CYS622 
 ASP623  PHE694  ASN695  SER759  ASP760  ASP761  ALA762  ILE779  LEU786  VAL792 
 PHE793  MET794  SER795  GLU796  ALA797  LYS798  CYS799  TRP800  GLU811  SER814 

> <Gold.Protein.RotatedAtoms>
  150.7030  134.1279  159.4058 H   0  0  0  0  0  0  0  0  0  0  0  0  # atno 6907 bound_to 6896
  151.9265  135.0273  160.0535 H   0  0  0  0  0  0  0  0  0  0  0  0  # atno 6908 bound_to 6896
  152.2212  133.4950  159.5200 H   0  0  0  0  0  0  0  0  0  0  0  0  # atno 6909 bound_to 6896
  145.5357  140.9516  143.1579 H   0  0  0  0  0  0  0  0  0  0  0  0  # atno 7974 bound_to 7965
  156.0134  140.1245  157.0430 H   0  0  0  0  0  0  0  0  0  0  0  0  # atno 8008 bound_to 7997
  154.4284  140.1083  156.5931 H   0  0  0  0  0  0  0  0  0  0  0  0  # atno 8009 bound_to 7997
  155.6047  140.3471  155.4606 H   0  0  0  0  0  0  0  0  0  0  0  0  # atno 8010 bound_to 7997
  140.1723  144.4264  150.6655 H   0  0  0  0  0  0  0  0  0  0  0  0  # atno 10167 bound_to 10162
  156.0368  130.4349  150.2425 H   0  0  0  0  0  0  0  0  0  0  0  0  # atno 10718 bound_to 10713
  152.9902  135.5560  154.5763 H   0  0  0  0  0  0  0  0  0  0  0  0  # atno 10763 bound_to 10752
  154.5153  135.2804  155.1310 H   0  0  0  0  0  0  0  0  0  0  0  0  # atno 10764 bound_to 10752
  154.2685  135.6367  153.5354 H   0  0  0  0  0  0  0  0  0  0  0  0  # atno 10765 bound_to 10752
  139.9207  134.9637  156.7889 H   0  0  0  0  0  0  0  0  0  0  0  0  # atno 11005 bound_to 11000
  144.7603  139.6974  143.7237 LP  0  0  0  0  0  0  0  0  0  0  0  0  # atno 17320 bound_to 7965
  146.2015  139.5312  142.9740 LP  0  0  0  0  0  0  0  0  0  0  0  0  # atno 17321 bound_to 7965
  140.6574  143.2241  151.5937 LP  0  0  0  0  0  0  0  0  0  0  0  0  # atno 17342 bound_to 10162
  139.5332  144.2855  152.1195 LP  0  0  0  0  0  0  0  0  0  0  0  0  # atno 17343 bound_to 10162
  157.0523  131.0066  151.3249 LP  0  0  0  0  0  0  0  0  0  0  0  0  # atno 17370 bound_to 10713
  157.5131  130.7951  149.7726 LP  0  0  0  0  0  0  0  0  0  0  0  0  # atno 17371 bound_to 10713
  140.6483  133.9754  155.7742 LP  0  0  0  0  0  0  0  0  0  0  0  0  # atno 17394 bound_to 11000
  141.0725  134.0184  157.3506 LP  0  0  0  0  0  0  0  0  0  0  0  0  # atno 17395 bound_to 11000

$$$$
