AV-unprocessed.smi:2062|AV-procd|sdf|8397|dock5
  -GOLD-   2272011 83D 1   1.00000     0.00000
 Structure written by MMmdl.
 43 44  0  0  0  0  0  0  0  0  2 V2000
  145.9814  132.1041  149.6003 C   0  0  0  0  0  0  0  0  0  0  0  0
  145.4051  131.8955  151.0085 C   0  0  0  0  0  0  0  0  0  0  0  0
  143.9136  132.2692  151.0386 C   0  0  0  0  0  0  0  0  0  0  0  0
  146.2199  132.6910  152.0517 C   0  0  0  0  0  0  0  0  0  0  0  0
  147.5416  132.0760  152.3544 N   0  3  2  0  0  0  0  0  0  0  0  0
  147.4482  130.8464  153.1784 C   0  0  0  0  0  0  0  0  0  0  0  0
  147.2134  131.1874  154.6609 C   0  0  0  0  0  0  0  0  0  0  0  0
  148.2562  132.0387  155.1193 O   0  0  0  0  0  0  0  0  0  0  0  0
  148.2915  133.2809  154.4228 C   0  0  1  0  0  0  0  0  0  0  0  0
  149.3970  134.1540  155.0435 C   0  0  0  0  0  0  0  0  0  0  0  0
  149.4888  135.4591  154.3976 N   0  0  0  0  0  0  0  0  0  0  0  0
  149.4090  136.6365  155.0340 C   0  0  0  0  0  0  0  0  0  0  0  0
  149.2424  136.7371  156.2500 O   0  0  0  0  0  0  0  0  0  0  0  0
  149.5374  137.6647  154.1777 N   0  0  0  0  0  0  0  0  0  0  0  0
  149.5428  139.0540  154.4702 C   0  0  0  0  0  0  0  0  0  0  0  0
  148.5525  139.8958  154.1515 N   0  0  0  0  0  0  0  0  0  0  0  0
  148.8222  141.2028  154.5651 C   0  0  0  0  0  0  0  0  0  0  0  0
  150.0300  141.3384  155.2032 C   0  0  0  0  0  0  0  0  0  0  0  0
  150.8820  139.8212  155.3111 S   0  0  0  0  0  0  0  0  0  0  0  0
  148.5509  133.0053  152.9255 C   0  0  0  0  0  0  0  0  0  0  0  0
  145.9283  133.1510  149.2994 H   0  0  0  0  0  0  0  0  0  0  0  0
  145.4352  131.5177  148.8607 H   0  0  0  0  0  0  0  0  0  0  0  0
  147.0264  131.7965  149.5535 H   0  0  0  0  0  0  0  0  0  0  0  0
  145.4877  130.8307  151.2226 H   0  0  0  0  0  0  0  0  0  0  0  0
  143.7656  133.3286  150.8262 H   0  0  0  0  0  0  0  0  0  0  0  0
  143.4680  132.0585  152.0107 H   0  0  0  0  0  0  0  0  0  0  0  0
  143.3524  131.7015  150.2959 H   0  0  0  0  0  0  0  0  0  0  0  0
  146.3528  133.7218  151.7237 H   0  0  0  0  0  0  0  0  0  0  0  0
  145.6304  132.7454  152.9681 H   0  0  0  0  0  0  0  0  0  0  0  0
  146.6667  130.1855  152.8017 H   0  0  0  0  0  0  0  0  0  0  0  0
  148.3851  130.2964  153.0807 H   0  0  0  0  0  0  0  0  0  0  0  0
  146.2424  131.6613  154.8113 H   0  0  0  0  0  0  0  0  0  0  0  0
  147.2167  130.2763  155.2590 H   0  0  0  0  0  0  0  0  0  0  0  0
  147.3332  133.7877  154.5417 H   0  0  0  0  0  0  0  0  0  0  0  0
  149.2025  134.3081  156.1054 H   0  0  0  0  0  0  0  0  0  0  0  0
  150.3620  133.6491  154.9758 H   0  0  0  0  0  0  0  0  0  0  0  0
  149.6272  135.4644  153.3974 H   0  0  0  0  0  0  0  0  0  0  0  0
  149.6528  137.4273  153.2036 H   0  0  0  0  0  0  0  0  0  0  0  0
  148.0968  141.9772  154.3640 H   0  0  0  0  0  0  0  0  0  0  0  0
  150.4681  142.2354  155.6149 H   0  0  0  0  0  0  0  0  0  0  0  0
  149.5331  132.5454  152.8087 H   0  0  0  0  0  0  0  0  0  0  0  0
  148.5885  133.9382  152.3649 H   0  0  0  0  0  0  0  0  0  0  0  0
  147.8992  131.7778  151.4579 H   0  0  0  0  0  0  0  0  0  0  0  0
  1  2  1  0  0  0  0
  1 21  1  0  0  0  0
  1 22  1  0  0  0  0
  1 23  1  0  0  0  0
  2  3  1  0  0  0  0
  2  4  1  0  0  0  0
  2 24  1  0  0  0  0
  3 25  1  0  0  0  0
  3 26  1  0  0  0  0
  3 27  1  0  0  0  0
  4  5  1  0  0  0  0
  4 28  1  0  0  0  0
  4 29  1  0  0  0  0
  5 20  1  0  0  0  0
  5  6  1  0  0  0  0
  5 43  1  0  0  0  0
  6  7  1  0  0  0  0
  6 30  1  0  0  0  0
  6 31  1  0  0  0  0
  7  8  1  0  0  0  0
  7 32  1  0  0  0  0
  7 33  1  0  0  0  0
  8  9  1  0  0  0  0
  9 10  1  0  0  0  0
  9 20  1  0  0  0  0
  9 34  1  0  0  0  0
 10 11  1  0  0  0  0
 10 35  1  0  0  0  0
 10 36  1  0  0  0  0
 11 12  1  0  0  0  0
 11 37  1  0  0  0  0
 12 13  2  0  0  0  0
 12 14  1  0  0  0  0
 14 15  1  0  0  0  0
 14 38  1  0  0  0  0
 15 19  1  0  0  0  0
 15 16  2  0  0  0  0
 16 17  1  0  0  0  0
 17 18  2  0  0  0  0
 17 39  1  0  0  0  0
 18 19  1  0  0  0  0
 18 40  1  0  0  0  0
 20 41  1  0  0  0  0
 20 42  1  0  0  0  0
M  CHG  1   5   1
M  END
> <s_m_source_file>
AV-unprocessed.smi

> <i_m_source_file_index>
2062

> <i_lp_mmshare_version>
43012

> <i_f3d_flags>
0

> <s_epik_input>
W0NIM11bQ0hdKFtDSDNdKVtDSDJdTjFbQ0gyXVtDSDJdT1tDQEhdKFtDSDJdMSlbQ0gyXVtOSF1DKD1PKVtOSF1jMm5bY0hdW2NIXXMy

> <s_epik_cmdline>
J2VwaWtfcHl0aG9uJywgJy1waCcsICc3LjAnLCAnLXRuJywgJzgnLCAnLW1hJywgJzIwMCcsICctbWV0YWxfYmluZGluZycsICctaW1hZScsICc8aW5maWxlLm1hZT4nLCAnLW9tYWUnLCAnPG91dGZpbGUubWFlPic=

> <r_lp_tautomer_probability>
0.999

> <r_epik_Ionization_Penalty>
0.0985527

> <r_epik_Ionization_Penalty_Charging>
0.098413

> <r_epik_Ionization_Penalty_Neutral>
0.000139681

> <r_epik_State_Penalty>
0.0884988

> <r_epik_Charging_Adjusted_Penalty>
0.186912

> <i_epik_Tot_Q>
1

> <i_epik_Tot_abs_Q>
1

> <r_epik_Metal_State_Penalty>
0.141792

> <b_epik_Metal_Only>
0

> <s_lp_Force_Field>
OPLS_2005

> <r_lp_Energy>
17.4544

> <b_lp_Chiralities_Consistent>
1

> <s_lp_Variant>
AV-unprocessed.smi:2062-2

> <Gold.Version>
5.8.1

> <Gold.Id.Protein>
6NUR|6NUR_protein|mol2

> <Gold.PLP.Fitness>
44.0861

> <Gold.PLP.PLP>
-34.2352

> <Gold.PLP.part.hbond>
-3.0000

> <Gold.PLP.part.metal>
0.0000

> <Gold.PLP.part.buried>
-4.2235

> <Gold.PLP.part.nonpolar>
-28.1096

> <Gold.PLP.part.repulsive>
0.1839

> <Gold.PLP.ligand.clash>
0.0000

> <Gold.PLP.ligand.torsion>
0.9593

> <Gold.PLP.Chemscore.Hbond>
2.8960

> <Gold.PLP.Chemscore.CHOScore>
0.9968

> <Gold.PLP.Chemscore.Metal>
0.0000

> <Gold.Chemscore.Hbonds>
donor molecule, donor type, donor heavy atom, donor atom, acceptor molecule, acceptor atom, score
      L1  H     5    43       P1 10747  1.00
      L1  H    11    37       P1  7948  0.52
      L1  H    14    38       P1  7948  0.85

> <Gold.PLP.Chemscore.Internal.Correction>
0.0911

> <Gold.Rescore>
     Score         DG    S(hbond)    S(metal)    S(lipo)     H(rot)  DE(clash)    DE(int)     intcor
     17.27     -18.36       2.45        0.00      78.65       1.76       0.13       0.96       ----

> <Gold.Chemscore.Fitness>
17.2747

> <Gold.Chemscore.DG>
-18.3571

> <Gold.Chemscore.ZeroCoef>
-5.4800

> <Gold.Chemscore.Hbond>
2.4494

> <Gold.Chemscore.Metal>
0.0000

> <Gold.Chemscore.Lipo>
78.6453

> <Gold.Chemscore.Internal_Hbond>
0.0000

> <Gold.Chemscore.DEClash>
0.1262

> <Gold.Chemscore.DEInternal>
0.9562

> <Gold.Chemscore.Rot>
1.7599

> <Gold.Chemscore.Internal.Correction>
   9.000000E+99

> <Gold.Chemscore.Hbonds>
donor molecule, donor type, donor heavy atom, donor atom, acceptor molecule, acceptor atom, score
      L1  H     5    43       P1 10747  0.99
      L1  H    11    37       P1  7948  0.04
      L1  H    14    38       P1  7948  0.63

> <Gold.Chemscore.Hbond.Weighted>
-8.1810

> <Gold.Chemscore.Metal.Weighted>
-0.0000

> <Gold.Chemscore.Lipo.Weighted>
-9.2015

> <Gold.Chemscore.Internal_Hbond.Weighted>
0.0000

> <Gold.Chemscore.DEClash.Weighted>
0.1262

> <Gold.Chemscore.DEInternal.Weighted>
0.9562

> <Gold.Chemscore.Rot.Weighted>
4.5054

> <Gold.Chemscore.Internal.Correction.Weighted>
   9.000000E+99

> <Gold.Protein.RotatedTorsions>
[ 6907 6896 6895 6894 ] final   34.86 input  -60.11 | X-H torsion
[ 7974 7965 7964 7962 ] final   73.49 input  175.53 | X-H torsion
[ 8008 7997 7996 7995 ] final  -88.99 input   59.86 | X-H torsion
[ 10167 10162 10161 10158 ] final   33.18 input  -65.29 | X-H torsion
[ 10718 10713 10712 10709 ] final -162.71 input   66.30 | X-H torsion
[ 10763 10752 10751 10750 ] final   98.61 input  -60.55 | X-H torsion
[ 11005 11000 10999 10996 ] final  -91.15 input  -57.11 | X-H torsion

> <Gold.Protein.ActiveResidues>
 VAL166  LYS551  ARG553  GLY616  TRP617  ASP618  TYR619  PRO620  LYS621  CYS622 
 ASP623  PHE694  ASN695  SER759  ASP760  ASP761  ALA762  ILE779  LEU786  VAL792 
 PHE793  MET794  SER795  GLU796  ALA797  LYS798  CYS799  TRP800  GLU811  SER814 

> <Gold.Protein.RotatedAtoms>
  152.1082  134.9293  160.0567 H   0  0  0  0  0  0  0  0  0  0  0  0  # atno 6907 bound_to 6896
  152.0481  133.4002  159.4373 H   0  0  0  0  0  0  0  0  0  0  0  0  # atno 6908 bound_to 6896
  150.6842  134.3260  159.4850 H   0  0  0  0  0  0  0  0  0  0  0  0  # atno 6909 bound_to 6896
  145.7402  139.2718  143.1490 H   0  0  0  0  0  0  0  0  0  0  0  0  # atno 7974 bound_to 7965
  154.6813  140.0547  157.0268 H   0  0  0  0  0  0  0  0  0  0  0  0  # atno 8008 bound_to 7997
  155.0948  140.3223  155.4545 H   0  0  0  0  0  0  0  0  0  0  0  0  # atno 8009 bound_to 7997
  156.2695  140.2041  156.6075 H   0  0  0  0  0  0  0  0  0  0  0  0  # atno 8010 bound_to 7997
  140.4431  144.1159  150.6177 H   0  0  0  0  0  0  0  0  0  0  0  0  # atno 10167 bound_to 10162
  156.6143  130.8863  151.2943 H   0  0  0  0  0  0  0  0  0  0  0  0  # atno 10718 bound_to 10713
  153.2912  135.4142  155.1168 H   0  0  0  0  0  0  0  0  0  0  0  0  # atno 10763 bound_to 10752
  154.8521  135.3519  154.5979 H   0  0  0  0  0  0  0  0  0  0  0  0  # atno 10764 bound_to 10752
  153.6402  135.7057  153.5302 H   0  0  0  0  0  0  0  0  0  0  0  0  # atno 10765 bound_to 10752
  141.1551  133.7737  156.9838 H   0  0  0  0  0  0  0  0  0  0  0  0  # atno 11005 bound_to 11000
  146.0455  140.8122  142.9807 LP  0  0  0  0  0  0  0  0  0  0  0  0  # atno 17320 bound_to 7965
  144.6872  140.2974  143.7268 LP  0  0  0  0  0  0  0  0  0  0  0  0  # atno 17321 bound_to 7965
  140.4296  143.2574  151.9613 LP  0  0  0  0  0  0  0  0  0  0  0  0  # atno 17342 bound_to 10162
  139.4791  144.5756  151.8016 LP  0  0  0  0  0  0  0  0  0  0  0  0  # atno 17343 bound_to 10162
  157.7246  130.9604  150.1578 LP  0  0  0  0  0  0  0  0  0  0  0  0  # atno 17370 bound_to 10713
  156.2364  130.3687  149.8386 LP  0  0  0  0  0  0  0  0  0  0  0  0  # atno 17371 bound_to 10713
  140.1048  134.9513  157.1978 LP  0  0  0  0  0  0  0  0  0  0  0  0  # atno 17394 bound_to 11000
  140.3270  134.2852  155.7235 LP  0  0  0  0  0  0  0  0  0  0  0  0  # atno 17395 bound_to 11000

$$$$
