AV-unprocessed.smi:2567|AV-procd|sdf|10083|dock4
  -GOLD-   2272014113D 1   1.00000     0.00000
 Structure written by MMmdl.
 33 34  0  0  0  0  0  0  0  0  1 V2000
  151.9158  144.1919  161.0803 C   0  0  0  0  0  0  0  0  0  0  0  0
  151.6151  144.0622  159.5764 C   0  0  0  0  0  0  0  0  0  0  0  0
  150.2438  144.7005  159.2646 C   0  0  0  0  0  0  0  0  0  0  0  0
  152.6659  144.8494  158.7622 C   0  0  0  0  0  0  0  0  0  0  0  0
  151.6158  142.6028  159.1836 C   0  0  0  0  0  0  0  0  0  0  0  0
  151.5839  141.6353  160.1036 N   0  0  0  0  0  0  0  0  0  0  0  0
  151.4542  140.5226  159.3521 N   0  0  0  0  0  0  0  0  0  0  0  0
  151.3600  140.8665  158.0677 C   0  0  0  0  0  0  0  0  0  0  0  0
  151.1703  139.8526  156.9840 C   0  0  1  0  0  0  0  0  0  0  0  0
  151.0366  140.5006  155.5921 C   0  0  0  0  0  0  0  0  0  0  0  0
  150.9442  139.4693  154.5599 N   0  0  0  0  0  0  0  0  0  0  0  0
  152.0776  138.5483  154.6311 C   0  0  0  0  0  0  0  0  0  0  0  0
  152.1950  137.9515  156.0453 C   0  0  0  0  0  0  0  0  0  0  0  0
  152.3135  139.0014  156.9993 O   0  0  0  0  0  0  0  0  0  0  0  0
  151.4193  142.1829  157.8939 N   0  0  0  0  0  0  0  0  0  0  0  0
  151.4121  139.5928  159.7443 H   0  0  0  0  0  0  0  0  0  0  0  0
  151.9160  145.2354  161.3968 H   0  0  0  0  0  0  0  0  0  0  0  0
  152.8920  143.7727  161.3272 H   0  0  0  0  0  0  0  0  0  0  0  0
  151.1714  143.6658  161.6793 H   0  0  0  0  0  0  0  0  0  0  0  0
  149.4414  144.2362  159.8392 H   0  0  0  0  0  0  0  0  0  0  0  0
  149.9908  144.6041  158.2080 H   0  0  0  0  0  0  0  0  0  0  0  0
  150.2356  145.7635  159.5082 H   0  0  0  0  0  0  0  0  0  0  0  0
  152.6459  145.9111  159.0106 H   0  0  0  0  0  0  0  0  0  0  0  0
  152.4870  144.7606  157.6898 H   0  0  0  0  0  0  0  0  0  0  0  0
  153.6789  144.4966  158.9586 H   0  0  0  0  0  0  0  0  0  0  0  0
  150.2787  139.2652  157.2129 H   0  0  0  0  0  0  0  0  0  0  0  0
  150.1562  141.1430  155.5592 H   0  0  0  0  0  0  0  0  0  0  0  0
  151.8991  141.1396  155.3984 H   0  0  0  0  0  0  0  0  0  0  0  0
  150.9197  139.9068  153.6442 H   0  0  0  0  0  0  0  0  0  0  0  0
  151.9599  137.7518  153.8965 H   0  0  0  0  0  0  0  0  0  0  0  0
  152.9991  139.0741  154.3788 H   0  0  0  0  0  0  0  0  0  0  0  0
  151.3322  137.3252  156.2784 H   0  0  0  0  0  0  0  0  0  0  0  0
  153.0769  137.3144  156.1107 H   0  0  0  0  0  0  0  0  0  0  0  0
  1  2  1  0  0  0  0
  1 17  1  0  0  0  0
  1 18  1  0  0  0  0
  1 19  1  0  0  0  0
  2  3  1  0  0  0  0
  2  4  1  0  0  0  0
  2  5  1  0  0  0  0
  3 20  1  0  0  0  0
  3 21  1  0  0  0  0
  3 22  1  0  0  0  0
  4 23  1  0  0  0  0
  4 24  1  0  0  0  0
  4 25  1  0  0  0  0
  5 15  1  0  0  0  0
  5  6  2  0  0  0  0
  6  7  1  0  0  0  0
  7 16  1  0  0  0  0
  7  8  1  0  0  0  0
  8  9  1  0  0  0  0
  8 15  2  0  0  0  0
  9 14  1  0  0  0  0
  9 10  1  0  0  0  0
  9 26  1  0  0  0  0
 10 11  1  0  0  0  0
 10 27  1  0  0  0  0
 10 28  1  0  0  0  0
 11 12  1  0  0  0  0
 11 29  1  0  0  0  0
 12 13  1  0  0  0  0
 12 30  1  0  0  0  0
 12 31  1  0  0  0  0
 13 14  1  0  0  0  0
 13 32  1  0  0  0  0
 13 33  1  0  0  0  0
M  END
> <s_m_source_file>
AV-unprocessed.smi

> <i_m_source_file_index>
2567

> <i_lp_mmshare_version>
43012

> <i_f3d_flags>
0

> <s_epik_input>
W0NIM11DKFtDSDNdKShbQ0gzXSljMW5bbkhdYyhuMSlbQ0BASF0yW0NIMl1bTkhdW0NIMl1bQ0gyXU8y

> <s_epik_cmdline>
J2VwaWtfcHl0aG9uJywgJy1waCcsICc3LjAnLCAnLXRuJywgJzgnLCAnLW1hJywgJzIwMCcsICctbWV0YWxfYmluZGluZycsICctaW1hZScsICc8aW5maWxlLm1hZT4nLCAnLW9tYWUnLCAnPG91dGZpbGUubWFlPic=

> <r_epik_Ionization_Penalty>
0.981987

> <r_epik_Ionization_Penalty_Charging>
0

> <r_epik_Ionization_Penalty_Neutral>
0.981987

> <r_epik_State_Penalty>
2.09479

> <r_epik_Charging_Adjusted_Penalty>
2.09479

> <i_epik_Tot_Q>
0

> <i_epik_Tot_abs_Q>
0

> <r_epik_Metal_State_Penalty>
2.40362

> <b_epik_Metal_Only>
0

> <s_lp_Force_Field>
OPLS_2005

> <r_lp_Energy>
12.9727

> <b_lp_Chiralities_Consistent>
1

> <s_lp_Variant>
AV-unprocessed.smi:2567-8

> <Gold.Version>
5.8.1

> <Gold.Id.Protein>
6NUR|6NUR_protein|mol2

> <Gold.PLP.Fitness>
34.4248

> <Gold.PLP.PLP>
-31.7451

> <Gold.PLP.part.hbond>
-2.0000

> <Gold.PLP.part.metal>
0.0000

> <Gold.PLP.part.buried>
-4.6589

> <Gold.PLP.part.nonpolar>
-24.3046

> <Gold.PLP.part.repulsive>
0.1982

> <Gold.PLP.ligand.clash>
0.0000

> <Gold.PLP.ligand.torsion>
0.2619

> <Gold.PLP.Chemscore.Hbond>
1.0000

> <Gold.PLP.Chemscore.CHOScore>
0.0000

> <Gold.PLP.Chemscore.Metal>
0.0000

> <Gold.Chemscore.Hbonds>
donor molecule, donor type, donor heavy atom, donor atom, acceptor molecule, acceptor atom, score
      P1  H  7997  8009       L1    14  0.19

> <Gold.PLP.Chemscore.Internal.Correction>
0.2036

> <Gold.Rescore>
     Score         DG    S(hbond)    S(metal)    S(lipo)     H(rot)  DE(clash)    DE(int)     intcor
     14.15     -14.38       0.96        0.00      75.99       1.25       0.09       0.13       ----

> <Gold.Chemscore.Fitness>
14.1490

> <Gold.Chemscore.DG>
-14.3752

> <Gold.Chemscore.ZeroCoef>
-5.4800

> <Gold.Chemscore.Hbond>
0.9555

> <Gold.Chemscore.Metal>
0.0000

> <Gold.Chemscore.Lipo>
75.9912

> <Gold.Chemscore.Internal_Hbond>
0.0000

> <Gold.Chemscore.DEClash>
0.0922

> <Gold.Chemscore.DEInternal>
0.1340

> <Gold.Chemscore.Rot>
1.2450

> <Gold.Chemscore.Internal.Correction>
   9.000000E+99

> <Gold.Chemscore.Hbonds>
donor molecule, donor type, donor heavy atom, donor atom, acceptor molecule, acceptor atom, score
      P1  H  7997  8009       L1    14  0.13

> <Gold.Chemscore.Hbond.Weighted>
-3.1915

> <Gold.Chemscore.Metal.Weighted>
-0.0000

> <Gold.Chemscore.Lipo.Weighted>
-8.8910

> <Gold.Chemscore.Internal_Hbond.Weighted>
0.0000

> <Gold.Chemscore.DEClash.Weighted>
0.0922

> <Gold.Chemscore.DEInternal.Weighted>
0.1340

> <Gold.Chemscore.Rot.Weighted>
3.1872

> <Gold.Chemscore.Internal.Correction.Weighted>
   9.000000E+99

> <Gold.Protein.RotatedTorsions>
[ 6907 6896 6895 6894 ] final    7.01 input  -60.11 | X-H torsion
[ 7974 7965 7964 7962 ] final  -34.06 input  175.53 | X-H torsion
[ 8008 7997 7996 7995 ] final -179.23 input   59.86 | X-H torsion
[ 10167 10162 10161 10158 ] final   49.52 input  -65.29 | X-H torsion
[ 10718 10713 10712 10709 ] final   61.97 input   66.30 | X-H torsion
[ 10763 10752 10751 10750 ] final   92.64 input  -60.55 | X-H torsion
[ 11005 11000 10999 10996 ] final   -8.57 input  -57.11 | X-H torsion

> <Gold.Protein.ActiveResidues>
 VAL166  LYS551  ARG553  GLY616  TRP617  ASP618  TYR619  PRO620  LYS621  CYS622 
 ASP623  PHE694  ASN695  SER759  ASP760  ASP761  ALA762  ILE779  LEU786  VAL792 
 PHE793  MET794  SER795  GLU796  ALA797  LYS798  CYS799  TRP800  GLU811  SER814 

> <Gold.Protein.RotatedAtoms>
  151.6829  135.0959  160.0219 H   0  0  0  0  0  0  0  0  0  0  0  0  # atno 6907 bound_to 6896
  152.3825  133.6561  159.6181 H   0  0  0  0  0  0  0  0  0  0  0  0  # atno 6908 bound_to 6896
  150.7758  133.9007  159.3382 H   0  0  0  0  0  0  0  0  0  0  0  0  # atno 6909 bound_to 6896
  146.0860  140.5992  142.8886 H   0  0  0  0  0  0  0  0  0  0  0  0  # atno 7974 bound_to 7965
  156.0281  140.1276  157.0287 H   0  0  0  0  0  0  0  0  0  0  0  0  # atno 8008 bound_to 7997
  154.4338  140.1055  156.6130 H   0  0  0  0  0  0  0  0  0  0  0  0  # atno 8009 bound_to 7997
  155.5847  140.3468  155.4552 H   0  0  0  0  0  0  0  0  0  0  0  0  # atno 8010 bound_to 7997
  140.2820  144.3145  150.6262 H   0  0  0  0  0  0  0  0  0  0  0  0  # atno 10167 bound_to 10162
  157.5867  130.9024  149.9529 H   0  0  0  0  0  0  0  0  0  0  0  0  # atno 10718 bound_to 10713
  153.2214  135.4354  155.0494 H   0  0  0  0  0  0  0  0  0  0  0  0  # atno 10763 bound_to 10752
  154.8252  135.3357  154.6921 H   0  0  0  0  0  0  0  0  0  0  0  0  # atno 10764 bound_to 10752
  153.7353  135.7008  153.5035 H   0  0  0  0  0  0  0  0  0  0  0  0  # atno 10765 bound_to 10752
  140.7248  133.8798  155.8848 H   0  0  0  0  0  0  0  0  0  0  0  0  # atno 11005 bound_to 11000
  144.7326  140.4717  143.6926 LP  0  0  0  0  0  0  0  0  0  0  0  0  # atno 17320 bound_to 7965
  145.6128  139.1515  143.3066 LP  0  0  0  0  0  0  0  0  0  0  0  0  # atno 17321 bound_to 7965
  140.5803  143.2173  151.7440 LP  0  0  0  0  0  0  0  0  0  0  0  0  # atno 17342 bound_to 10162
  139.4960  144.4089  152.0102 LP  0  0  0  0  0  0  0  0  0  0  0  0  # atno 17343 bound_to 10162
  156.0917  130.3663  150.0382 LP  0  0  0  0  0  0  0  0  0  0  0  0  # atno 17370 bound_to 10713
  156.8512  130.9459  151.3625 LP  0  0  0  0  0  0  0  0  0  0  0  0  # atno 17371 bound_to 10713
  140.9972  134.1199  157.4352 LP  0  0  0  0  0  0  0  0  0  0  0  0  # atno 17394 bound_to 11000
  139.8839  135.0058  156.6336 LP  0  0  0  0  0  0  0  0  0  0  0  0  # atno 17395 bound_to 11000

$$$$
