AV-unprocessed.smi:2083|AV-procd|sdf|8500|dock7
  -GOLD-   2272011213D 1   1.00000     0.00000
 Structure written by MMmdl.
 44 45  0  0  0  0  0  0  0  0  3 V2000
  154.4084  131.9013  158.0193 C   0  0  0  0  0  0  0  0  0  0  0  0
  152.9882  131.8569  157.5693 C   0  0  0  0  0  0  0  0  0  0  0  0
  152.2694  130.9392  156.8572 C   0  0  0  0  0  0  0  0  0  0  0  0
  150.9736  131.5209  156.7935 C   0  0  0  0  0  0  0  0  0  0  0  0
  149.9008  130.9949  156.1827 N   0  5  0  0  0  0  0  0  0  0  0  0
  150.0554  130.2305  155.0782 C   0  0  0  0  0  0  0  0  0  0  0  0
  151.1198  129.7991  154.6288 O   0  0  0  0  0  0  0  0  0  0  0  0
  148.9044  129.9513  154.4500 N   0  0  0  0  0  0  0  0  0  0  0  0
  148.7701  129.1618  153.2292 C   0  0  0  0  0  0  0  0  0  0  0  0
  147.3345  129.2087  152.6346 C   0  0  2  0  0  0  0  0  0  0  0  0
  147.1466  128.0751  151.6012 C   0  0  0  0  0  0  0  0  0  0  0  0
  146.9642  130.5238  152.0157 N   0  3  2  0  0  0  0  0  0  0  0  0
  147.0144  131.7119  152.9173 C   0  0  0  0  0  0  0  0  0  0  0  0
  146.7607  133.0192  152.1478 C   0  0  0  0  0  0  0  0  0  0  0  0
  145.4363  132.9720  151.3776 C   0  0  0  0  0  0  0  0  0  0  0  0
  145.3666  131.7254  150.4810 C   0  0  1  0  0  0  0  0  0  0  0  0
  146.2687  131.8261  149.2382 C   0  0  0  0  0  0  0  0  0  0  0  0
  145.6519  130.4566  151.3085 C   0  0  0  0  0  0  0  0  0  0  0  0
  150.9163  132.6960  157.3974 N   0  0  0  0  0  0  0  0  0  0  0  0
  152.2031  132.9165  157.9026 O   0  0  0  0  0  0  0  0  0  0  0  0
  155.0782  132.0148  157.1669 H   0  0  0  0  0  0  0  0  0  0  0  0
  154.6760  130.9826  158.5411 H   0  0  0  0  0  0  0  0  0  0  0  0
  154.5803  132.7369  158.6981 H   0  0  0  0  0  0  0  0  0  0  0  0
  152.6132  130.0001  156.4502 H   0  0  0  0  0  0  0  0  0  0  0  0
  148.0554  130.3194  154.8543 H   0  0  0  0  0  0  0  0  0  0  0  0
  149.5108  129.5329  152.5193 H   0  0  0  0  0  0  0  0  0  0  0  0
  149.0464  128.1341  153.4670 H   0  0  0  0  0  0  0  0  0  0  0  0
  146.6426  129.0351  153.4602 H   0  0  0  0  0  0  0  0  0  0  0  0
  147.3373  127.0945  152.0375 H   0  0  0  0  0  0  0  0  0  0  0  0
  147.8276  128.1977  150.7586 H   0  0  0  0  0  0  0  0  0  0  0  0
  146.1351  128.0346  151.2011 H   0  0  0  0  0  0  0  0  0  0  0  0
  146.2848  131.5946  153.7201 H   0  0  0  0  0  0  0  0  0  0  0  0
  147.9958  131.8097  153.3795 H   0  0  0  0  0  0  0  0  0  0  0  0
  146.7532  133.8605  152.8414 H   0  0  0  0  0  0  0  0  0  0  0  0
  147.5847  133.2038  151.4580 H   0  0  0  0  0  0  0  0  0  0  0  0
  144.6101  132.9501  152.0899 H   0  0  0  0  0  0  0  0  0  0  0  0
  145.3065  133.8791  150.7864 H   0  0  0  0  0  0  0  0  0  0  0  0
  144.3430  131.6510  150.1118 H   0  0  0  0  0  0  0  0  0  0  0  0
  147.3250  131.8747  149.5029 H   0  0  0  0  0  0  0  0  0  0  0  0
  146.0320  132.7151  148.6532 H   0  0  0  0  0  0  0  0  0  0  0  0
  146.1339  130.9613  148.5878 H   0  0  0  0  0  0  0  0  0  0  0  0
  145.6017  129.5907  150.6506 H   0  0  0  0  0  0  0  0  0  0  0  0
  144.8615  130.3188  152.0484 H   0  0  0  0  0  0  0  0  0  0  0  0
  147.6652  130.6960  151.3095 H   0  0  0  0  0  0  0  0  0  0  0  0
  1  2  1  0  0  0  0
  1 21  1  0  0  0  0
  1 22  1  0  0  0  0
  1 23  1  0  0  0  0
  2 20  1  0  0  0  0
  2  3  2  0  0  0  0
  3  4  1  0  0  0  0
  3 24  1  0  0  0  0
  4  5  1  0  0  0  0
  4 19  2  0  0  0  0
  5  6  1  0  0  0  0
  6  7  2  0  0  0  0
  6  8  1  0  0  0  0
  8  9  1  0  0  0  0
  8 25  1  0  0  0  0
  9 10  1  0  0  0  0
  9 26  1  0  0  0  0
  9 27  1  0  0  0  0
 10 11  1  0  0  0  0
 10 12  1  0  0  0  0
 10 28  1  0  0  0  0
 11 29  1  0  0  0  0
 11 30  1  0  0  0  0
 11 31  1  0  0  0  0
 12 18  1  0  0  0  0
 12 13  1  0  0  0  0
 12 44  1  0  0  0  0
 13 14  1  0  0  0  0
 13 32  1  0  0  0  0
 13 33  1  0  0  0  0
 14 15  1  0  0  0  0
 14 34  1  0  0  0  0
 14 35  1  0  0  0  0
 15 16  1  0  0  0  0
 15 36  1  0  0  0  0
 15 37  1  0  0  0  0
 16 17  1  0  0  0  0
 16 18  1  0  0  0  0
 16 38  1  0  0  0  0
 17 39  1  0  0  0  0
 17 40  1  0  0  0  0
 17 41  1  0  0  0  0
 18 42  1  0  0  0  0
 18 43  1  0  0  0  0
 19 20  1  0  0  0  0
M  CHG  1   5  -1
M  CHG  1  12   1
M  END
> <s_m_source_file>
AV-unprocessed.smi

> <i_m_source_file_index>
2083

> <i_lp_mmshare_version>
43012

> <i_f3d_flags>
0

> <s_epik_input>
W0NIM11jMVtjSF1jKG5vMSlbTkhdQyg9TylbTkhdW0NIMl1bQ0BIXShbQ0gzXSlOMltDSDJdW0NIMl1bQ0gyXVtDQEBIXShbQ0gzXSlbQ0gyXTI=

> <s_epik_cmdline>
J2VwaWtfcHl0aG9uJywgJy1waCcsICc3LjAnLCAnLXRuJywgJzgnLCAnLW1hJywgJzIwMCcsICctbWV0YWxfYmluZGluZycsICctaW1hZScsICc8aW5maWxlLm1hZT4nLCAnLW9tYWUnLCAnPG91dGZpbGUubWFlPic=

> <r_epik_Ionization_Penalty>
6.22434

> <r_epik_Ionization_Penalty_Charging>
6.22425

> <r_epik_Ionization_Penalty_Neutral>
9.62407e-05

> <r_epik_State_Penalty>
6.22423

> <r_epik_Charging_Adjusted_Penalty>
12.4485

> <i_epik_Tot_Q>
0

> <i_epik_Tot_abs_Q>
2

> <r_epik_Metal_State_Penalty>
2.16764

> <b_epik_Metal_Only>
1

> <s_lp_Force_Field>
OPLS_2005

> <r_lp_Energy>
12.2094

> <b_lp_Chiralities_Consistent>
1

> <s_lp_Variant>
AV-unprocessed.smi:2083-11

> <Gold.Version>
5.8.1

> <Gold.Id.Protein>
6NUR|6NUR_protein|mol2

> <Gold.PLP.Fitness>
38.5851

> <Gold.PLP.PLP>
-34.1804

> <Gold.PLP.part.hbond>
-2.7817

> <Gold.PLP.part.metal>
0.0000

> <Gold.PLP.part.buried>
-4.1313

> <Gold.PLP.part.nonpolar>
-26.8870

> <Gold.PLP.part.repulsive>
0.1027

> <Gold.PLP.ligand.clash>
0.0000

> <Gold.PLP.ligand.torsion>
0.4228

> <Gold.PLP.Chemscore.Hbond>
1.7200

> <Gold.PLP.Chemscore.CHOScore>
0.0000

> <Gold.PLP.Chemscore.Metal>
0.0000

> <Gold.Chemscore.Hbonds>
donor molecule, donor type, donor heavy atom, donor atom, acceptor molecule, acceptor atom, score
      L1  H    12    44       P1 10747  1.00
      P1  H  6896  6908       L1    20  0.58

> <Gold.PLP.Chemscore.Internal.Correction>
0.0903

> <Gold.Rescore>
     Score         DG    S(hbond)    S(metal)    S(lipo)     H(rot)  DE(clash)    DE(int)     intcor
     14.95     -17.57       1.72        0.00      87.54       1.52       0.01       2.61       ----

> <Gold.Chemscore.Fitness>
14.9539

> <Gold.Chemscore.DG>
-17.5748

> <Gold.Chemscore.ZeroCoef>
-5.4800

> <Gold.Chemscore.Hbond>
1.7188

> <Gold.Chemscore.Metal>
0.0000

> <Gold.Chemscore.Lipo>
87.5432

> <Gold.Chemscore.Internal_Hbond>
0.0000

> <Gold.Chemscore.DEClash>
0.0111

> <Gold.Chemscore.DEInternal>
2.6098

> <Gold.Chemscore.Rot>
1.5190

> <Gold.Chemscore.Internal.Correction>
   9.000000E+99

> <Gold.Chemscore.Hbonds>
donor molecule, donor type, donor heavy atom, donor atom, acceptor molecule, acceptor atom, score
      L1  H    12    44       P1 10747  1.00
      P1  H  6896  6908       L1    20  0.48

> <Gold.Chemscore.Hbond.Weighted>
-5.7408

> <Gold.Chemscore.Metal.Weighted>
-0.0000

> <Gold.Chemscore.Lipo.Weighted>
-10.2426

> <Gold.Chemscore.Internal_Hbond.Weighted>
0.0000

> <Gold.Chemscore.DEClash.Weighted>
0.0111

> <Gold.Chemscore.DEInternal.Weighted>
2.6098

> <Gold.Chemscore.Rot.Weighted>
3.8886

> <Gold.Chemscore.Internal.Correction.Weighted>
   9.000000E+99

> <Gold.Protein.RotatedTorsions>
[ 6907 6896 6895 6894 ] final   22.88 input  -60.11 | X-H torsion
[ 7974 7965 7964 7962 ] final  -73.01 input  175.53 | X-H torsion
[ 8008 7997 7996 7995 ] final  -45.42 input   59.86 | X-H torsion
[ 10167 10162 10161 10158 ] final -135.94 input  -65.29 | X-H torsion
[ 10718 10713 10712 10709 ] final  -81.50 input   66.30 | X-H torsion
[ 10763 10752 10751 10750 ] final -167.71 input  -60.55 | X-H torsion
[ 11005 11000 10999 10996 ] final  -93.59 input  -57.11 | X-H torsion

> <Gold.Protein.ActiveResidues>
 VAL166  LYS551  ARG553  GLY616  TRP617  ASP618  TYR619  PRO620  LYS621  CYS622 
 ASP623  PHE694  ASN695  SER759  ASP760  ASP761  ALA762  ILE779  LEU786  VAL792 
 PHE793  MET794  SER795  GLU796  ALA797  LYS798  CYS799  TRP800  GLU811  SER814 

> <Gold.Protein.RotatedAtoms>
  151.9338  135.0244  160.0530 H   0  0  0  0  0  0  0  0  0  0  0  0  # atno 6907 bound_to 6896
  152.2095  133.4896  159.5111 H   0  0  0  0  0  0  0  0  0  0  0  0  # atno 6908 bound_to 6896
  150.6973  134.1402  159.4145 H   0  0  0  0  0  0  0  0  0  0  0  0  # atno 6909 bound_to 6896
  145.6577  140.9262  143.0950 H   0  0  0  0  0  0  0  0  0  0  0  0  # atno 7974 bound_to 7965
  154.4001  140.1397  156.3845 H   0  0  0  0  0  0  0  0  0  0  0  0  # atno 8008 bound_to 7997
  155.7972  140.3477  155.5362 H   0  0  0  0  0  0  0  0  0  0  0  0  # atno 8009 bound_to 7997
  155.8520  140.0943  157.1659 H   0  0  0  0  0  0  0  0  0  0  0  0  # atno 8010 bound_to 7997
  139.8728  143.6935  152.2637 H   0  0  0  0  0  0  0  0  0  0  0  0  # atno 10167 bound_to 10162
  156.0049  130.4606  150.3963 H   0  0  0  0  0  0  0  0  0  0  0  0  # atno 10718 bound_to 10713
  154.6703  135.2938  154.9750 H   0  0  0  0  0  0  0  0  0  0  0  0  # atno 10763 bound_to 10752
  154.0779  135.6608  153.4837 H   0  0  0  0  0  0  0  0  0  0  0  0  # atno 10764 bound_to 10752
  153.0483  135.5190  154.7696 H   0  0  0  0  0  0  0  0  0  0  0  0  # atno 10765 bound_to 10752
  141.1493  133.7898  157.0181 H   0  0  0  0  0  0  0  0  0  0  0  0  # atno 11005 bound_to 11000
  144.7100  139.8408  143.7417 LP  0  0  0  0  0  0  0  0  0  0  0  0  # atno 17320 bound_to 7965
  146.1151  139.4161  143.0263 LP  0  0  0  0  0  0  0  0  0  0  0  0  # atno 17321 bound_to 7965
  139.7268  144.7591  151.0867 LP  0  0  0  0  0  0  0  0  0  0  0  0  # atno 17342 bound_to 10162
  140.7758  143.5138  150.9619 LP  0  0  0  0  0  0  0  0  0  0  0  0  # atno 17343 bound_to 10162
  157.2034  131.0443  151.2638 LP  0  0  0  0  0  0  0  0  0  0  0  0  # atno 17370 bound_to 10713
  157.3954  130.7305  149.6728 LP  0  0  0  0  0  0  0  0  0  0  0  0  # atno 17371 bound_to 10713
  140.0834  134.9635  157.1660 LP  0  0  0  0  0  0  0  0  0  0  0  0  # atno 17394 bound_to 11000
  140.3545  134.2562  155.7194 LP  0  0  0  0  0  0  0  0  0  0  0  0  # atno 17395 bound_to 11000

$$$$
