AV-unprocessed.smi:1005|AV-procd|sdf|4372|dock9
  -GOLD-   22720 2283D 1   1.00000     0.00000
 Structure written by MMmdl.
 57 59  0  0  0  0  0  0  0  0  3 V2000
  152.8471  142.7015  161.4874 C   0  0  0  0  0  0  0  0  0  0  0  0
  152.2442  142.3457  160.1399 C   0  0  0  0  0  0  0  0  0  0  0  0
  152.5607  141.0998  159.5528 C   0  0  0  0  0  0  0  0  0  0  0  0
  152.0239  140.7326  158.2995 C   0  0  0  0  0  0  0  0  0  0  0  0
  152.2020  139.5848  157.5461 N   0  0  0  0  0  0  0  0  0  0  0  0
  151.4455  139.8410  156.4830 C   0  0  0  0  0  0  0  0  0  0  0  0
  150.7988  141.0223  156.4563 N   0  0  0  0  0  0  0  0  0  0  0  0
  149.9272  141.5167  155.4050 C   0  0  0  0  0  0  0  0  0  0  0  0
  149.1575  140.3855  154.6959 C   0  0  2  0  0  0  0  0  0  0  0  0
  150.0238  139.7152  153.7999 O   0  0  0  0  0  0  0  0  0  0  0  0
  147.9521  140.9283  153.9021 C   0  0  0  0  0  0  0  0  0  0  0  0
  146.7153  140.1331  154.1148 N   0  3  2  0  0  0  0  0  0  0  0  0
  145.9613  140.5682  155.3138 C   0  0  0  0  0  0  0  0  0  0  0  0
  144.6571  139.7656  155.4471 C   0  0  0  0  0  0  0  0  0  0  0  0
  144.9551  138.3749  155.4889 O   0  0  0  0  0  0  0  0  0  0  0  0
  145.5957  137.9208  154.3009 C   0  0  2  0  0  0  0  0  0  0  0  0
  145.8000  136.3984  154.4174 C   0  0  0  0  0  0  0  0  0  0  0  0
  146.2326  135.7724  153.1412 N   0  3  0  0  0  0  0  0  0  0  0  0
  146.2241  134.2912  153.1776 C   0  0  0  0  0  0  0  0  0  0  0  0
  145.4691  136.2877  151.9831 C   0  0  0  0  0  0  0  0  0  0  0  0
  146.9376  138.6662  154.1517 C   0  0  0  0  0  0  0  0  0  0  0  0
  151.1512  141.6512  157.6461 C   0  0  0  0  0  0  0  0  0  0  0  0
  150.8262  142.8923  158.2216 C   0  0  0  0  0  0  0  0  0  0  0  0
  151.3761  143.2462  159.4713 C   0  0  0  0  0  0  0  0  0  0  0  0
  151.0279  144.5937  160.0783 C   0  0  0  0  0  0  0  0  0  0  0  0
  153.4602  141.8883  161.8766 H   0  0  0  0  0  0  0  0  0  0  0  0
  152.0626  142.9063  162.2161 H   0  0  0  0  0  0  0  0  0  0  0  0
  153.4795  143.5853  161.4010 H   0  0  0  0  0  0  0  0  0  0  0  0
  153.2232  140.4144  160.0609 H   0  0  0  0  0  0  0  0  0  0  0  0
  151.3580  139.1296  155.6746 H   0  0  0  0  0  0  0  0  0  0  0  0
  149.2270  142.2255  155.8493 H   0  0  0  0  0  0  0  0  0  0  0  0
  150.5284  142.0816  154.6913 H   0  0  0  0  0  0  0  0  0  0  0  0
  148.8263  139.6710  155.4490 H   0  0  0  0  0  0  0  0  0  0  0  0
  149.7802  139.9476  152.9159 H   0  0  0  0  0  0  0  0  0  0  0  0
  147.7615  141.9712  154.1595 H   0  0  0  0  0  0  0  0  0  0  0  0
  148.2072  140.9177  152.8410 H   0  0  0  0  0  0  0  0  0  0  0  0
  146.5781  140.4318  156.2037 H   0  0  0  0  0  0  0  0  0  0  0  0
  145.7300  141.6317  155.2428 H   0  0  0  0  0  0  0  0  0  0  0  0
  144.1376  140.0441  156.3641 H   0  0  0  0  0  0  0  0  0  0  0  0
  143.9796  139.9807  154.6189 H   0  0  0  0  0  0  0  0  0  0  0  0
  144.9704  138.1498  153.4374 H   0  0  0  0  0  0  0  0  0  0  0  0
  146.5301  136.1679  155.1948 H   0  0  0  0  0  0  0  0  0  0  0  0
  144.8583  135.9512  154.7407 H   0  0  0  0  0  0  0  0  0  0  0  0
  145.2211  133.9102  153.3740 H   0  0  0  0  0  0  0  0  0  0  0  0
  146.8934  133.9029  153.9441 H   0  0  0  0  0  0  0  0  0  0  0  0
  146.5589  133.8827  152.2234 H   0  0  0  0  0  0  0  0  0  0  0  0
  144.4109  136.0373  152.0689 H   0  0  0  0  0  0  0  0  0  0  0  0
  145.8464  135.8636  151.0519 H   0  0  0  0  0  0  0  0  0  0  0  0
  145.5601  137.3720  151.9091 H   0  0  0  0  0  0  0  0  0  0  0  0
  147.4301  138.3348  153.2384 H   0  0  0  0  0  0  0  0  0  0  0  0
  147.6026  138.4193  154.9811 H   0  0  0  0  0  0  0  0  0  0  0  0
  150.1633  143.5687  157.7024 H   0  0  0  0  0  0  0  0  0  0  0  0
  150.3942  145.1789  159.4112 H   0  0  0  0  0  0  0  0  0  0  0  0
  151.9319  145.1722  160.2703 H   0  0  0  0  0  0  0  0  0  0  0  0
  150.4939  144.4621  161.0196 H   0  0  0  0  0  0  0  0  0  0  0  0
  147.1898  136.0587  152.9895 H   0  0  0  0  0  0  0  0  0  0  0  0
  146.1209  140.3263  153.3206 H   0  0  0  0  0  0  0  0  0  0  0  0
  1  2  1  0  0  0  0
  1 26  1  0  0  0  0
  1 27  1  0  0  0  0
  1 28  1  0  0  0  0
  2 24  1  0  0  0  0
  2  3  2  0  0  0  0
  3  4  1  0  0  0  0
  3 29  1  0  0  0  0
  4 22  2  0  0  0  0
  4  5  1  0  0  0  0
  5  6  2  0  0  0  0
  6  7  1  0  0  0  0
  6 30  1  0  0  0  0
  7  8  1  0  0  0  0
  7 22  1  0  0  0  0
  8  9  1  0  0  0  0
  8 31  1  0  0  0  0
  8 32  1  0  0  0  0
  9 10  1  0  0  0  0
  9 11  1  0  0  0  0
  9 33  1  0  0  0  0
 10 34  1  0  0  0  0
 11 12  1  0  0  0  0
 11 35  1  0  0  0  0
 11 36  1  0  0  0  0
 12 21  1  0  0  0  0
 12 13  1  0  0  0  0
 12 57  1  0  0  0  0
 13 14  1  0  0  0  0
 13 37  1  0  0  0  0
 13 38  1  0  0  0  0
 14 15  1  0  0  0  0
 14 39  1  0  0  0  0
 14 40  1  0  0  0  0
 15 16  1  0  0  0  0
 16 17  1  0  0  0  0
 16 21  1  0  0  0  0
 16 41  1  0  0  0  0
 17 18  1  0  0  0  0
 17 42  1  0  0  0  0
 17 43  1  0  0  0  0
 18 19  1  0  0  0  0
 18 20  1  0  0  0  0
 18 56  1  0  0  0  0
 19 44  1  0  0  0  0
 19 45  1  0  0  0  0
 19 46  1  0  0  0  0
 20 47  1  0  0  0  0
 20 48  1  0  0  0  0
 20 49  1  0  0  0  0
 21 50  1  0  0  0  0
 21 51  1  0  0  0  0
 22 23  1  0  0  0  0
 23 24  2  0  0  0  0
 23 52  1  0  0  0  0
 24 25  1  0  0  0  0
 25 53  1  0  0  0  0
 25 54  1  0  0  0  0
 25 55  1  0  0  0  0
M  CHG  1  12   1
M  CHG  1  18   1
M  END
> <s_m_source_file>
AV-unprocessed.smi

> <i_m_source_file_index>
1005

> <i_lp_mmshare_version>
43012

> <i_f3d_flags>
0

> <s_epik_input>
W0NIM11jKFtjSF0xKWMoW0NIM10pW2NIXWMoYzEyKW4oW2NIXW4yKVtDSDJdW0NASF0oW09IXSlbQ0gyXU4zW0NIMl1bQ0gyXU9bQ0BIXShbQ0gyXTMpW0NIMl1OKFtDSDNdKVtDSDNd

> <s_epik_cmdline>
J2VwaWtfcHl0aG9uJywgJy1waCcsICc3LjAnLCAnLXRuJywgJzgnLCAnLW1hJywgJzIwMCcsICctbWV0YWxfYmluZGluZycsICctaW1hZScsICc8aW5maWxlLm1hZT4nLCAnLW9tYWUnLCAnPG91dGZpbGUubWFlPic=

> <r_epik_Ionization_Penalty>
1.0968

> <r_epik_Ionization_Penalty_Charging>
1.0096

> <r_epik_Ionization_Penalty_Neutral>
0.0871956

> <r_epik_State_Penalty>
1.31185

> <r_epik_Charging_Adjusted_Penalty>
2.32145

> <i_epik_Tot_Q>
2

> <i_epik_Tot_abs_Q>
2

> <r_epik_Metal_State_Penalty>
1.22442

> <b_epik_Metal_Only>
0

> <s_lp_Force_Field>
OPLS_2005

> <r_lp_Energy>
33.8105

> <b_lp_Chiralities_Consistent>
1

> <s_lp_Variant>
AV-unprocessed.smi:1005-11

> <Gold.Version>
5.8.1

> <Gold.Id.Protein>
6NUR|6NUR_protein|mol2

> <Gold.PLP.Fitness>
55.2014

> <Gold.PLP.PLP>
-44.2981

> <Gold.PLP.part.hbond>
-3.6430

> <Gold.PLP.part.metal>
0.0000

> <Gold.PLP.part.buried>
-4.0591

> <Gold.PLP.part.nonpolar>
-35.7381

> <Gold.PLP.part.repulsive>
0.0503

> <Gold.PLP.ligand.clash>
0.0000

> <Gold.PLP.ligand.torsion>
1.5255

> <Gold.PLP.Chemscore.Hbond>
4.5510

> <Gold.PLP.Chemscore.CHOScore>
0.0000

> <Gold.PLP.Chemscore.Metal>
0.0000

> <Gold.Chemscore.Hbonds>
donor molecule, donor type, donor heavy atom, donor atom, acceptor molecule, acceptor atom, score
      L1  H    10    34       P1  7957  1.00
      L1  H    18    56       P1  7948  1.69
      P1  H  7989  7998       L1    10  0.18
      P1  H  7997  8010       L1     5  0.01

> <Gold.PLP.Chemscore.Internal.Correction>
0.3013

> <Gold.Rescore>
     Score         DG    S(hbond)    S(metal)    S(lipo)     H(rot)  DE(clash)    DE(int)     intcor
     20.32     -22.77       3.42        0.00     104.51       2.48       0.07       2.37       ----

> <Gold.Chemscore.Fitness>
20.3247

> <Gold.Chemscore.DG>
-22.7694

> <Gold.Chemscore.ZeroCoef>
-5.4800

> <Gold.Chemscore.Hbond>
3.4175

> <Gold.Chemscore.Metal>
0.0000

> <Gold.Chemscore.Lipo>
104.5069

> <Gold.Chemscore.Internal_Hbond>
0.0000

> <Gold.Chemscore.DEClash>
0.0736

> <Gold.Chemscore.DEInternal>
2.3710

> <Gold.Chemscore.Rot>
2.4814

> <Gold.Chemscore.Internal.Correction>
   9.000000E+99

> <Gold.Chemscore.Hbonds>
donor molecule, donor type, donor heavy atom, donor atom, acceptor molecule, acceptor atom, score
      L1  H    10    34       P1  7957  1.00
      L1  H    18    56       P1  7948  0.80

> <Gold.Chemscore.Hbond.Weighted>
-11.4144

> <Gold.Chemscore.Metal.Weighted>
-0.0000

> <Gold.Chemscore.Lipo.Weighted>
-12.2273

> <Gold.Chemscore.Internal_Hbond.Weighted>
0.0000

> <Gold.Chemscore.DEClash.Weighted>
0.0736

> <Gold.Chemscore.DEInternal.Weighted>
2.3710

> <Gold.Chemscore.Rot.Weighted>
6.3524

> <Gold.Chemscore.Internal.Correction.Weighted>
   9.000000E+99

> <Gold.Protein.RotatedTorsions>
[ 6907 6896 6895 6894 ] final -148.84 input  -60.11 | X-H torsion
[ 7974 7965 7964 7962 ] final   85.50 input  175.53 | X-H torsion
[ 8008 7997 7996 7995 ] final   65.92 input   59.86 | X-H torsion
[ 10167 10162 10161 10158 ] final  -50.43 input  -65.29 | X-H torsion
[ 10718 10713 10712 10709 ] final   77.50 input   66.30 | X-H torsion
[ 10763 10752 10751 10750 ] final -108.51 input  -60.55 | X-H torsion
[ 11005 11000 10999 10996 ] final -133.16 input  -57.11 | X-H torsion

> <Gold.Protein.ActiveResidues>
 VAL166  LYS551  ARG553  GLY616  TRP617  ASP618  TYR619  PRO620  LYS621  CYS622 
 ASP623  PHE694  ASN695  SER759  ASP760  ASP761  ALA762  ILE779  LEU786  VAL792 
 PHE793  MET794  SER795  GLU796  ALA797  LYS798  CYS799  TRP800  GLU811  SER814 

> <Gold.Protein.RotatedAtoms>
  151.1756  133.4757  159.2593 H   0  0  0  0  0  0  0  0  0  0  0  0  # atno 6907 bound_to 6896
  151.1311  135.0130  159.8593 H   0  0  0  0  0  0  0  0  0  0  0  0  # atno 6908 bound_to 6896
  152.5460  134.1659  159.8630 H   0  0  0  0  0  0  0  0  0  0  0  0  # atno 6909 bound_to 6896
  145.5847  139.2330  143.2333 H   0  0  0  0  0  0  0  0  0  0  0  0  # atno 7974 bound_to 7965
  155.6693  140.3497  155.4812 H   0  0  0  0  0  0  0  0  0  0  0  0  # atno 8008 bound_to 7997
  155.9701  140.1154  157.0842 H   0  0  0  0  0  0  0  0  0  0  0  0  # atno 8009 bound_to 7997
  154.4164  140.1158  156.5282 H   0  0  0  0  0  0  0  0  0  0  0  0  # atno 8010 bound_to 7997
  140.6638  143.2658  151.4358 H   0  0  0  0  0  0  0  0  0  0  0  0  # atno 10167 bound_to 10162
  157.6712  130.9824  150.1650 H   0  0  0  0  0  0  0  0  0  0  0  0  # atno 10718 bound_to 10713
  154.8139  135.4635  154.0591 H   0  0  0  0  0  0  0  0  0  0  0  0  # atno 10763 bound_to 10752
  153.2000  135.6867  153.8250 H   0  0  0  0  0  0  0  0  0  0  0  0  # atno 10764 bound_to 10752
  153.7738  135.3266  155.3333 H   0  0  0  0  0  0  0  0  0  0  0  0  # atno 10765 bound_to 10752
  140.9106  134.1573  157.4392 H   0  0  0  0  0  0  0  0  0  0  0  0  # atno 11005 bound_to 11000
  146.1691  140.6673  142.9242 LP  0  0  0  0  0  0  0  0  0  0  0  0  # atno 17320 bound_to 7965
  144.7378  140.4858  143.6891 LP  0  0  0  0  0  0  0  0  0  0  0  0  # atno 17321 bound_to 7965
  139.5880  144.1562  152.2052 LP  0  0  0  0  0  0  0  0  0  0  0  0  # atno 17342 bound_to 10162
  140.0908  144.5622  150.7056 LP  0  0  0  0  0  0  0  0  0  0  0  0  # atno 17343 bound_to 10162
  156.2417  130.3691  149.8329 LP  0  0  0  0  0  0  0  0  0  0  0  0  # atno 17370 bound_to 10713
  156.6127  130.8593  151.3458 LP  0  0  0  0  0  0  0  0  0  0  0  0  # atno 17371 bound_to 10713
  139.8757  134.9934  156.5643 LP  0  0  0  0  0  0  0  0  0  0  0  0  # atno 17394 bound_to 11000
  140.8115  133.8425  155.8814 LP  0  0  0  0  0  0  0  0  0  0  0  0  # atno 17395 bound_to 11000

$$$$
