AV-unprocessed.smi:1478|AV-procd|sdf|5982|dock1
  -GOLD-   22720 6 73D 1   1.00000     0.00000
 Structure written by MMmdl.
 46 47  0  0  0  0  0  0  0  0  1 V2000
  151.9082  143.3879  159.9278 C   0  0  0  0  0  0  0  0  0  0  0  0
  151.8801  142.9506  158.5803 O   0  0  0  0  0  0  0  0  0  0  0  0
  151.1219  141.7651  158.4105 C   0  0  0  0  0  0  0  0  0  0  0  0
  151.6076  141.0422  157.1451 C   0  0  0  0  0  0  0  0  0  0  0  0
  150.6929  139.9643  156.7554 N   0  0  0  0  0  0  0  0  0  0  0  0
  150.5213  138.9900  157.7250 N   0  0  0  0  0  0  0  0  0  0  0  0
  149.7427  137.9805  157.5018 C   0  0  0  0  0  0  0  0  0  0  0  0
  149.5280  136.9131  158.5183 C   0  0  0  0  0  0  0  0  0  0  0  0
  150.2527  136.8035  159.5088 O   0  0  0  0  0  0  0  0  0  0  0  0
  148.4893  136.0918  158.2789 N   0  0  0  0  0  0  0  0  0  0  0  0
  148.0720  134.9692  159.1185 C   0  0  0  0  0  0  0  0  0  0  0  0
  147.2446  135.3835  160.3694 C   0  0  0  0  0  0  0  0  0  0  0  0
  146.1054  136.3038  159.8495 C   0  0  0  0  0  0  0  0  0  0  0  0
  145.2227  135.8037  158.9785 N   0  0  0  0  0  0  0  0  0  0  0  0
  146.0311  137.4750  160.2184 O   0  0  0  0  0  0  0  0  0  0  0  0
  146.7017  134.1438  161.1380 C   0  0  0  0  0  0  0  0  0  0  0  0
  146.0319  134.5245  162.4738 C   0  0  0  0  0  0  0  0  0  0  0  0
  146.9544  135.2346  163.2915 O   0  0  0  0  0  0  0  0  0  0  0  0
  147.3986  136.4518  162.7034 C   0  0  0  0  0  0  0  0  0  0  0  0
  148.1364  136.1547  161.3829 C   0  0  0  0  0  0  0  0  0  0  0  0
  149.0404  137.8483  156.2361 C   0  0  0  0  0  0  0  0  0  0  0  0
  149.2193  138.8056  155.2998 C   0  0  0  0  0  0  0  0  0  0  0  0
  150.0928  139.9578  155.5269 C   0  0  0  0  0  0  0  0  0  0  0  0
  150.2745  140.8400  154.6883 O   0  0  0  0  0  0  0  0  0  0  0  0
  152.5022  144.2984  160.0054 H   0  0  0  0  0  0  0  0  0  0  0  0
  152.3580  142.6362  160.5781 H   0  0  0  0  0  0  0  0  0  0  0  0
  150.9037  143.6094  160.2907 H   0  0  0  0  0  0  0  0  0  0  0  0
  151.2374  141.1234  159.2854 H   0  0  0  0  0  0  0  0  0  0  0  0
  150.0625  142.0100  158.3183 H   0  0  0  0  0  0  0  0  0  0  0  0
  151.7018  141.7633  156.3309 H   0  0  0  0  0  0  0  0  0  0  0  0
  152.6136  140.6485  157.3014 H   0  0  0  0  0  0  0  0  0  0  0  0
  147.9464  136.2574  157.4434 H   0  0  0  0  0  0  0  0  0  0  0  0
  147.4768  134.3114  158.4832 H   0  0  0  0  0  0  0  0  0  0  0  0
  148.9397  134.3778  159.4180 H   0  0  0  0  0  0  0  0  0  0  0  0
  144.4737  136.3844  158.6303 H   0  0  0  0  0  0  0  0  0  0  0  0
  145.3075  134.8449  158.6736 H   0  0  0  0  0  0  0  0  0  0  0  0
  146.0161  133.5611  160.5217 H   0  0  0  0  0  0  0  0  0  0  0  0
  147.5219  133.4659  161.3730 H   0  0  0  0  0  0  0  0  0  0  0  0
  145.1309  135.1200  162.3224 H   0  0  0  0  0  0  0  0  0  0  0  0
  145.7232  133.6226  163.0025 H   0  0  0  0  0  0  0  0  0  0  0  0
  146.5551  137.1266  162.5514 H   0  0  0  0  0  0  0  0  0  0  0  0
  148.0733  136.9484  163.4008 H   0  0  0  0  0  0  0  0  0  0  0  0
  149.0230  135.5681  161.6245 H   0  0  0  0  0  0  0  0  0  0  0  0
  148.5118  137.0832  160.9506 H   0  0  0  0  0  0  0  0  0  0  0  0
  148.3894  137.0085  156.0406 H   0  0  0  0  0  0  0  0  0  0  0  0
  148.7035  138.7198  154.3546 H   0  0  0  0  0  0  0  0  0  0  0  0
  1  2  1  0  0  0  0
  1 25  1  0  0  0  0
  1 26  1  0  0  0  0
  1 27  1  0  0  0  0
  2  3  1  0  0  0  0
  3  4  1  0  0  0  0
  3 28  1  0  0  0  0
  3 29  1  0  0  0  0
  4  5  1  0  0  0  0
  4 30  1  0  0  0  0
  4 31  1  0  0  0  0
  5 23  1  0  0  0  0
  5  6  1  0  0  0  0
  6  7  2  0  0  0  0
  7  8  1  0  0  0  0
  7 21  1  0  0  0  0
  8  9  2  0  0  0  0
  8 10  1  0  0  0  0
 10 11  1  0  0  0  0
 10 32  1  0  0  0  0
 11 12  1  0  0  0  0
 11 33  1  0  0  0  0
 11 34  1  0  0  0  0
 12 20  1  0  0  0  0
 12 13  1  0  0  0  0
 12 16  1  0  0  0  0
 13 14  1  0  0  0  0
 13 15  2  0  0  0  0
 14 35  1  0  0  0  0
 14 36  1  0  0  0  0
 16 17  1  0  0  0  0
 16 37  1  0  0  0  0
 16 38  1  0  0  0  0
 17 18  1  0  0  0  0
 17 39  1  0  0  0  0
 17 40  1  0  0  0  0
 18 19  1  0  0  0  0
 19 20  1  0  0  0  0
 19 41  1  0  0  0  0
 19 42  1  0  0  0  0
 20 43  1  0  0  0  0
 20 44  1  0  0  0  0
 21 22  2  0  0  0  0
 21 45  1  0  0  0  0
 22 23  1  0  0  0  0
 22 46  1  0  0  0  0
 23 24  2  0  0  0  0
M  END
> <s_m_source_file>
AV-unprocessed.smi

> <i_m_source_file_index>
1478

> <i_lp_mmshare_version>
43012

> <i_f3d_flags>
0

> <s_epik_input>
W0NIM11PW0NIMl1bQ0gyXW4xbmMoW2NIXVtjSF1jMT1PKUMoPU8pW05IXVtDSDJdQzIoQyg9TylbTkgyXSlbQ0gyXVtDSDJdT1tDSDJdW0NIMl0y

> <s_epik_cmdline>
J2VwaWtfcHl0aG9uJywgJy1waCcsICc3LjAnLCAnLXRuJywgJzgnLCAnLW1hJywgJzIwMCcsICctbWV0YWxfYmluZGluZycsICctaW1hZScsICc8aW5maWxlLm1hZT4nLCAnLW9tYWUnLCAnPG91dGZpbGUubWFlPic=

> <r_lp_tautomer_probability>
1

> <r_epik_Ionization_Penalty>
1.88897e-06

> <r_epik_Ionization_Penalty_Charging>
5.89949e-09

> <r_epik_Ionization_Penalty_Neutral>
1.88307e-06

> <r_epik_State_Penalty>
-0

> <r_epik_Charging_Adjusted_Penalty>
5.89949e-09

> <i_epik_Tot_Q>
0

> <i_epik_Tot_abs_Q>
0

> <r_epik_Metal_State_Penalty>
-0

> <b_epik_Metal_Only>
0

> <s_lp_Force_Field>
OPLS_2005

> <r_lp_Energy>
34.3796

> <b_lp_Chiralities_Consistent>
1

> <s_lp_Variant>
AV-unprocessed.smi:1478-1

> <Gold.Version>
5.8.1

> <Gold.Id.Protein>
6NUR|6NUR_protein|mol2

> <Gold.PLP.Fitness>
40.0717

> <Gold.PLP.PLP>
-32.3392

> <Gold.PLP.part.hbond>
-3.5277

> <Gold.PLP.part.metal>
0.0000

> <Gold.PLP.part.buried>
-5.6975

> <Gold.PLP.part.nonpolar>
-23.0839

> <Gold.PLP.part.repulsive>
0.1951

> <Gold.PLP.ligand.clash>
0.0013

> <Gold.PLP.ligand.torsion>
0.4400

> <Gold.PLP.Chemscore.Hbond>
2.7680

> <Gold.PLP.Chemscore.CHOScore>
0.0000

> <Gold.PLP.Chemscore.Metal>
0.0000

> <Gold.Chemscore.Hbonds>
donor molecule, donor type, donor heavy atom, donor atom, acceptor molecule, acceptor atom, score
      P1  H  6896  6909       L1     9  1.00
      P1  H  6934  6947       L1    15  0.98
      P1  H  7989  7998       L1    24  0.77

> <Gold.PLP.Chemscore.Internal.Correction>
0.3098

> <Gold.Rescore>
     Score         DG    S(hbond)    S(metal)    S(lipo)     H(rot)  DE(clash)    DE(int)     intcor
     14.73     -17.00       2.85        0.00      76.15       2.69       0.15       2.12       ----

> <Gold.Chemscore.Fitness>
14.7251

> <Gold.Chemscore.DG>
-16.9956

> <Gold.Chemscore.ZeroCoef>
-5.4800

> <Gold.Chemscore.Hbond>
2.8455

> <Gold.Chemscore.Metal>
0.0000

> <Gold.Chemscore.Lipo>
76.1486

> <Gold.Chemscore.Internal_Hbond>
0.0000

> <Gold.Chemscore.DEClash>
0.1536

> <Gold.Chemscore.DEInternal>
2.1169

> <Gold.Chemscore.Rot>
2.6944

> <Gold.Chemscore.Internal.Correction>
   9.000000E+99

> <Gold.Chemscore.Hbonds>
donor molecule, donor type, donor heavy atom, donor atom, acceptor molecule, acceptor atom, score
      P1  H  6896  6909       L1     9  0.92
      P1  H  6934  6947       L1    15  0.92
      P1  H  7989  7998       L1    24  0.76

> <Gold.Chemscore.Hbond.Weighted>
-9.5039

> <Gold.Chemscore.Metal.Weighted>
-0.0000

> <Gold.Chemscore.Lipo.Weighted>
-8.9094

> <Gold.Chemscore.Internal_Hbond.Weighted>
0.0000

> <Gold.Chemscore.DEClash.Weighted>
0.1536

> <Gold.Chemscore.DEInternal.Weighted>
2.1169

> <Gold.Chemscore.Rot.Weighted>
6.8976

> <Gold.Chemscore.Internal.Correction.Weighted>
   9.000000E+99

> <Gold.Protein.RotatedTorsions>
[ 6907 6896 6895 6894 ] final  107.49 input  -60.11 | X-H torsion
[ 7974 7965 7964 7962 ] final  141.97 input  175.53 | X-H torsion
[ 8008 7997 7996 7995 ] final -127.36 input   59.86 | X-H torsion
[ 10167 10162 10161 10158 ] final   16.90 input  -65.29 | X-H torsion
[ 10718 10713 10712 10709 ] final  -82.30 input   66.30 | X-H torsion
[ 10763 10752 10751 10750 ] final -142.29 input  -60.55 | X-H torsion
[ 11005 11000 10999 10996 ] final -148.47 input  -57.11 | X-H torsion

> <Gold.Protein.ActiveResidues>
 VAL166  LYS551  ARG553  GLY616  TRP617  ASP618  TYR619  PRO620  LYS621  CYS622 
 ASP623  PHE694  ASN695  SER759  ASP760  ASP761  ALA762  ILE779  LEU786  VAL792 
 PHE793  MET794  SER795  GLU796  ALA797  LYS798  CYS799  TRP800  GLU811  SER814 

> <Gold.Protein.RotatedAtoms>
  152.5152  133.9227  159.7541 H   0  0  0  0  0  0  0  0  0  0  0  0  # atno 6907 bound_to 6896
  150.9595  133.6452  159.2764 H   0  0  0  0  0  0  0  0  0  0  0  0  # atno 6908 bound_to 6896
  151.3702  135.0926  159.9516 H   0  0  0  0  0  0  0  0  0  0  0  0  # atno 6909 bound_to 6896
  144.9049  139.5372  143.5736 H   0  0  0  0  0  0  0  0  0  0  0  0  # atno 7974 bound_to 7965
  155.2448  140.0430  157.2979 H   0  0  0  0  0  0  0  0  0  0  0  0  # atno 8008 bound_to 7997
  154.5805  140.2399  155.8030 H   0  0  0  0  0  0  0  0  0  0  0  0  # atno 8009 bound_to 7997
  156.2190  140.2976  155.9914 H   0  0  0  0  0  0  0  0  0  0  0  0  # atno 8010 bound_to 7997
  140.5764  143.9064  150.6754 H   0  0  0  0  0  0  0  0  0  0  0  0  # atno 10167 bound_to 10162
  156.0035  130.4630  150.4084 H   0  0  0  0  0  0  0  0  0  0  0  0  # atno 10718 bound_to 10713
  154.8514  135.3500  154.6004 H   0  0  0  0  0  0  0  0  0  0  0  0  # atno 10763 bound_to 10752
  153.6613  135.6989  153.5181 H   0  0  0  0  0  0  0  0  0  0  0  0  # atno 10764 bound_to 10752
  153.2815  135.4262  155.1041 H   0  0  0  0  0  0  0  0  0  0  0  0  # atno 10765 bound_to 10752
  140.7608  134.3300  157.5102 H   0  0  0  0  0  0  0  0  0  0  0  0  # atno 11005 bound_to 11000
  146.3128  139.7809  142.9006 LP  0  0  0  0  0  0  0  0  0  0  0  0  # atno 17320 bound_to 7965
  145.3553  141.0315  143.3315 LP  0  0  0  0  0  0  0  0  0  0  0  0  # atno 17321 bound_to 7965
  140.2552  143.3564  152.1371 LP  0  0  0  0  0  0  0  0  0  0  0  0  # atno 17342 bound_to 10162
  139.5145  144.6949  151.5658 LP  0  0  0  0  0  0  0  0  0  0  0  0  # atno 17343 bound_to 10162
  157.2149  131.0469  151.2579 LP  0  0  0  0  0  0  0  0  0  0  0  0  # atno 17370 bound_to 10713
  157.3855  130.7254  149.6660 LP  0  0  0  0  0  0  0  0  0  0  0  0  # atno 17371 bound_to 10713
  139.8771  134.9201  156.3243 LP  0  0  0  0  0  0  0  0  0  0  0  0  # atno 17394 bound_to 11000
  140.9664  133.7355  156.0473 LP  0  0  0  0  0  0  0  0  0  0  0  0  # atno 17395 bound_to 11000

$$$$
