AV-unprocessed.smi:2684|AV-procd|sdf|10378|dock4
  -GOLD-   2272014403D 1   1.00000     0.00000
 Structure written by MMmdl.
 45 46  0  0  0  0  0  0  0  0  2 V2000
  145.6115  130.7960  151.9763 C   0  0  0  0  0  0  0  0  0  0  0  0
  145.5450  132.2723  151.7111 C   0  0  0  0  0  0  0  0  0  0  0  0
  146.5332  133.0981  151.1036 C   0  0  0  0  0  0  0  0  0  0  0  0
  146.1548  134.3621  151.0021 N   0  0  0  0  0  0  0  0  0  0  0  0
  144.9158  134.3876  151.5371 N   0  0  0  0  0  0  0  0  0  0  0  0
  144.1700  135.6329  151.5737 C   0  0  0  0  0  0  0  0  0  0  0  0
  144.7663  136.6767  152.5467 C   0  0  2  0  0  0  0  0  0  0  0  0
  143.7780  136.9803  153.6808 C   0  0  0  0  0  0  0  0  0  0  0  0
  145.1078  137.9366  151.8460 N   0  3  0  0  0  0  0  0  0  0  0  0
  146.5300  138.3345  151.9237 C   0  0  0  0  0  0  0  0  0  0  0  0
  146.9591  138.6226  153.3688 C   0  0  0  0  0  0  0  0  0  0  0  0
  146.1703  138.3967  154.2845 O   0  0  0  0  0  0  0  0  0  0  0  0
  148.1924  139.0949  153.6272 N   0  0  0  0  0  0  0  0  0  0  0  0
  148.7859  139.4291  154.9216 C   0  0  0  0  0  0  0  0  0  0  0  0
  148.9812  140.9470  155.0862 C   0  0  0  0  0  0  0  0  0  0  0  0
  149.7330  141.2538  156.3916 C   0  0  0  0  0  0  0  0  0  0  0  0
  150.9812  140.5701  156.4069 O   0  0  0  0  0  0  0  0  0  0  0  0
  150.8396  139.1542  156.3695 C   0  0  0  0  0  0  0  0  0  0  0  0
  150.1458  138.7297  155.0644 C   0  0  0  0  0  0  0  0  0  0  0  0
  144.5275  133.1418  151.9835 C   0  0  0  0  0  0  0  0  0  0  0  0
  146.5603  130.3681  151.6525 H   0  0  0  0  0  0  0  0  0  0  0  0
  144.8216  130.2581  151.4515 H   0  0  0  0  0  0  0  0  0  0  0  0
  145.5033  130.5722  153.0378 H   0  0  0  0  0  0  0  0  0  0  0  0
  147.5063  132.8157  150.7294 H   0  0  0  0  0  0  0  0  0  0  0  0
  144.1234  136.0392  150.5623 H   0  0  0  0  0  0  0  0  0  0  0  0
  143.1433  135.3988  151.8588 H   0  0  0  0  0  0  0  0  0  0  0  0
  145.6684  136.2702  153.0076 H   0  0  0  0  0  0  0  0  0  0  0  0
  143.5319  136.0767  154.2395 H   0  0  0  0  0  0  0  0  0  0  0  0
  142.8462  137.3975  153.2970 H   0  0  0  0  0  0  0  0  0  0  0  0
  144.1980  137.6970  154.3873 H   0  0  0  0  0  0  0  0  0  0  0  0
  144.8411  137.8481  150.8759 H   0  0  0  0  0  0  0  0  0  0  0  0
  147.1460  137.5259  151.5295 H   0  0  0  0  0  0  0  0  0  0  0  0
  146.6976  139.1942  151.2835 H   0  0  0  0  0  0  0  0  0  0  0  0
  148.8007  139.2141  152.8296 H   0  0  0  0  0  0  0  0  0  0  0  0
  148.1484  139.0545  155.7214 H   0  0  0  0  0  0  0  0  0  0  0  0
  149.5486  141.3421  154.2425 H   0  0  0  0  0  0  0  0  0  0  0  0
  148.0233  141.4664  155.0870 H   0  0  0  0  0  0  0  0  0  0  0  0
  149.9175  142.3250  156.4745 H   0  0  0  0  0  0  0  0  0  0  0  0
  149.1377  140.9657  157.2596 H   0  0  0  0  0  0  0  0  0  0  0  0
  151.8286  138.7000  156.4327 H   0  0  0  0  0  0  0  0  0  0  0  0
  150.2772  138.8123  157.2395 H   0  0  0  0  0  0  0  0  0  0  0  0
  150.0184  137.6468  155.0474 H   0  0  0  0  0  0  0  0  0  0  0  0
  150.7870  138.9833  154.2187 H   0  0  0  0  0  0  0  0  0  0  0  0
  143.5635  132.9749  152.4417 H   0  0  0  0  0  0  0  0  0  0  0  0
  144.5679  138.6860  152.2550 H   0  0  0  0  0  0  0  0  0  0  0  0
  1  2  1  0  0  0  0
  1 21  1  0  0  0  0
  1 22  1  0  0  0  0
  1 23  1  0  0  0  0
  2 20  2  0  0  0  0
  2  3  1  0  0  0  0
  3  4  2  0  0  0  0
  3 24  1  0  0  0  0
  4  5  1  0  0  0  0
  5  6  1  0  0  0  0
  5 20  1  0  0  0  0
  6  7  1  0  0  0  0
  6 25  1  0  0  0  0
  6 26  1  0  0  0  0
  7  8  1  0  0  0  0
  7  9  1  0  0  0  0
  7 27  1  0  0  0  0
  8 28  1  0  0  0  0
  8 29  1  0  0  0  0
  8 30  1  0  0  0  0
  9 10  1  0  0  0  0
  9 31  1  0  0  0  0
  9 45  1  0  0  0  0
 10 11  1  0  0  0  0
 10 32  1  0  0  0  0
 10 33  1  0  0  0  0
 11 12  2  0  0  0  0
 11 13  1  0  0  0  0
 13 14  1  0  0  0  0
 13 34  1  0  0  0  0
 14 19  1  0  0  0  0
 14 15  1  0  0  0  0
 14 35  1  0  0  0  0
 15 16  1  0  0  0  0
 15 36  1  0  0  0  0
 15 37  1  0  0  0  0
 16 17  1  0  0  0  0
 16 38  1  0  0  0  0
 16 39  1  0  0  0  0
 17 18  1  0  0  0  0
 18 19  1  0  0  0  0
 18 40  1  0  0  0  0
 18 41  1  0  0  0  0
 19 42  1  0  0  0  0
 19 43  1  0  0  0  0
 20 44  1  0  0  0  0
M  CHG  1   9   1
M  END
> <s_m_source_file>
AV-unprocessed.smi

> <i_m_source_file_index>
2684

> <i_lp_mmshare_version>
43012

> <i_f3d_flags>
0

> <s_epik_input>
W0NIM11jMVtjSF1ubihbY0hdMSlbQ0gyXVtDQEhdKFtDSDNdKVtOSF1bQ0gyXUMoPU8pW05IXVtDSF0yW0NIMl1bQ0gyXU9bQ0gyXVtDSDJdMg==

> <s_epik_cmdline>
J2VwaWtfcHl0aG9uJywgJy1waCcsICc3LjAnLCAnLXRuJywgJzgnLCAnLW1hJywgJzIwMCcsICctbWV0YWxfYmluZGluZycsICctaW1hZScsICc8aW5maWxlLm1hZT4nLCAnLW9tYWUnLCAnPG91dGZpbGUubWFlPic=

> <r_lp_tautomer_probability>
1

> <r_epik_Ionization_Penalty>
0.128576

> <r_epik_Ionization_Penalty_Charging>
0.128567

> <r_epik_Ionization_Penalty_Neutral>
8.60003e-06

> <r_epik_State_Penalty>
0.117991

> <r_epik_Charging_Adjusted_Penalty>
0.246558

> <i_epik_Tot_Q>
1

> <i_epik_Tot_abs_Q>
1

> <r_epik_Metal_State_Penalty>
0.118015

> <b_epik_Metal_Only>
0

> <s_lp_Force_Field>
OPLS_2005

> <r_lp_Energy>
10.3737

> <b_lp_Chiralities_Consistent>
1

> <s_lp_Variant>
AV-unprocessed.smi:2684-1

> <Gold.Version>
5.8.1

> <Gold.Id.Protein>
6NUR|6NUR_protein|mol2

> <Gold.PLP.Fitness>
54.0981

> <Gold.PLP.PLP>
-38.2292

> <Gold.PLP.part.hbond>
-4.2608

> <Gold.PLP.part.metal>
0.0000

> <Gold.PLP.part.buried>
-4.2522

> <Gold.PLP.part.nonpolar>
-31.8081

> <Gold.PLP.part.repulsive>
0.4533

> <Gold.PLP.ligand.clash>
0.0000

> <Gold.PLP.ligand.torsion>
1.6708

> <Gold.PLP.Chemscore.Hbond>
4.5096

> <Gold.PLP.Chemscore.CHOScore>
1.8685

> <Gold.PLP.Chemscore.Metal>
0.0000

> <Gold.Chemscore.Hbonds>
donor molecule, donor type, donor heavy atom, donor atom, acceptor molecule, acceptor atom, score
      L1  H     9    31       P1 10171  0.77
      L1  H     9    45       P1 10175  2.00
      L1  H    13    34       P1  7957  1.00
      L1  C     3    24       P1 10747  1.00
      L1  C    20    44       P1 10957  0.38

> <Gold.PLP.Chemscore.Internal.Correction>
0.0761

> <Gold.Rescore>
     Score         DG    S(hbond)    S(metal)    S(lipo)     H(rot)  DE(clash)    DE(int)     intcor
     15.68     -20.09       2.88        0.00      87.46       2.04       0.02       4.39       ----

> <Gold.Chemscore.Fitness>
15.6782

> <Gold.Chemscore.DG>
-20.0875

> <Gold.Chemscore.ZeroCoef>
-5.4800

> <Gold.Chemscore.Hbond>
2.8762

> <Gold.Chemscore.Metal>
0.0000

> <Gold.Chemscore.Lipo>
87.4597

> <Gold.Chemscore.Internal_Hbond>
0.0000

> <Gold.Chemscore.DEClash>
0.0212

> <Gold.Chemscore.DEInternal>
4.3881

> <Gold.Chemscore.Rot>
2.0437

> <Gold.Chemscore.Internal.Correction>
   9.000000E+99

> <Gold.Chemscore.Hbonds>
donor molecule, donor type, donor heavy atom, donor atom, acceptor molecule, acceptor atom, score
      L1  H     9    31       P1 10171  0.77
      L1  H     9    45       P1 10175  0.97
      L1  H    13    34       P1  7957  0.93

> <Gold.Chemscore.Hbond.Weighted>
-9.6065

> <Gold.Chemscore.Metal.Weighted>
-0.0000

> <Gold.Chemscore.Lipo.Weighted>
-10.2328

> <Gold.Chemscore.Internal_Hbond.Weighted>
0.0000

> <Gold.Chemscore.DEClash.Weighted>
0.0212

> <Gold.Chemscore.DEInternal.Weighted>
4.3881

> <Gold.Chemscore.Rot.Weighted>
5.2318

> <Gold.Chemscore.Internal.Correction.Weighted>
   9.000000E+99

> <Gold.Protein.RotatedTorsions>
[ 6907 6896 6895 6894 ] final  152.73 input  -60.11 | X-H torsion
[ 7974 7965 7964 7962 ] final  167.48 input  175.53 | X-H torsion
[ 8008 7997 7996 7995 ] final  178.46 input   59.86 | X-H torsion
[ 10167 10162 10161 10158 ] final  -43.75 input  -65.29 | X-H torsion
[ 10718 10713 10712 10709 ] final    1.63 input   66.30 | X-H torsion
[ 10763 10752 10751 10750 ] final   79.60 input  -60.55 | X-H torsion
[ 11005 11000 10999 10996 ] final -105.01 input  -57.11 | X-H torsion

> <Gold.Protein.ActiveResidues>
 VAL166  LYS551  ARG553  GLY616  TRP617  ASP618  TYR619  PRO620  LYS621  CYS622 
 ASP623  PHE694  ASN695  SER759  ASP760  ASP761  ALA762  ILE779  LEU786  VAL792 
 PHE793  MET794  SER795  GLU796  ALA797  LYS798  CYS799  TRP800  GLU811  SER814 

> <Gold.Protein.RotatedAtoms>
  152.0827  133.4161  159.4508 H   0  0  0  0  0  0  0  0  0  0  0  0  # atno 6907 bound_to 6896
  150.6862  134.2963  159.4697 H   0  0  0  0  0  0  0  0  0  0  0  0  # atno 6908 bound_to 6896
  152.0807  134.9473  160.0624 H   0  0  0  0  0  0  0  0  0  0  0  0  # atno 6909 bound_to 6896
  144.7423  139.8768  143.6393 H   0  0  0  0  0  0  0  0  0  0  0  0  # atno 7974 bound_to 7965
  156.0544  140.1333  157.0014 H   0  0  0  0  0  0  0  0  0  0  0  0  # atno 8008 bound_to 7997
  154.4450  140.1004  156.6494 H   0  0  0  0  0  0  0  0  0  0  0  0  # atno 8009 bound_to 7997
  155.5474  140.3462  155.4463 H   0  0  0  0  0  0  0  0  0  0  0  0  # atno 8010 bound_to 7997
  140.6922  143.2966  151.3396 H   0  0  0  0  0  0  0  0  0  0  0  0  # atno 10167 bound_to 10162
  156.8510  130.5554  149.5670 H   0  0  0  0  0  0  0  0  0  0  0  0  # atno 10718 bound_to 10713
  153.0966  135.4834  154.8789 H   0  0  0  0  0  0  0  0  0  0  0  0  # atno 10763 bound_to 10752
  154.7331  135.3064  154.8860 H   0  0  0  0  0  0  0  0  0  0  0  0  # atno 10764 bound_to 10752
  153.9490  135.6825  153.4797 H   0  0  0  0  0  0  0  0  0  0  0  0  # atno 10765 bound_to 10752
  141.1074  133.8771  157.1681 H   0  0  0  0  0  0  0  0  0  0  0  0  # atno 11005 bound_to 11000
  146.1240  139.4263  143.0210 LP  0  0  0  0  0  0  0  0  0  0  0  0  # atno 17320 bound_to 7965
  145.7262  141.0058  143.1376 LP  0  0  0  0  0  0  0  0  0  0  0  0  # atno 17321 bound_to 7965
  139.6338  144.0670  152.2498 LP  0  0  0  0  0  0  0  0  0  0  0  0  # atno 17342 bound_to 10162
  140.0153  144.6193  150.7612 LP  0  0  0  0  0  0  0  0  0  0  0  0  # atno 17343 bound_to 10162
  156.0828  130.5834  150.9594 LP  0  0  0  0  0  0  0  0  0  0  0  0  # atno 17370 bound_to 10713
  157.6303  131.0921  150.8454 LP  0  0  0  0  0  0  0  0  0  0  0  0  # atno 17371 bound_to 10713
  139.9950  135.0050  157.0062 LP  0  0  0  0  0  0  0  0  0  0  0  0  # atno 17394 bound_to 11000
  140.4867  134.1235  155.7225 LP  0  0  0  0  0  0  0  0  0  0  0  0  # atno 17395 bound_to 11000

$$$$
