AV-unprocessed.smi:1574|AV-procd|sdf|6335|dock2
  -GOLD-   22720 6543D 1   1.00000     0.00000
 Structure written by MMmdl.
 40 41  0  0  0  0  0  0  0  0  1 V2000
  153.3066  141.8607  161.2073 C   0  0  0  0  0  0  0  0  0  0  0  0
  152.7919  143.0656  160.4035 C   0  0  2  0  0  0  0  0  0  0  0  0
  152.1718  144.1207  161.3416 C   0  0  0  0  0  0  0  0  0  0  0  0
  151.6445  145.3359  160.5637 C   0  0  0  0  0  0  0  0  0  0  0  0
  150.6315  144.9063  159.4943 C   0  0  0  0  0  0  0  0  0  0  0  0
  151.2429  143.8642  158.5483 C   0  0  0  0  0  0  0  0  0  0  0  0
  151.7809  142.6377  159.3158 C   0  0  1  0  0  0  0  0  0  0  0  0
  152.4571  141.7863  158.4007 O   0  0  0  0  0  0  0  0  0  0  0  0
  151.6033  141.0950  157.5005 C   0  0  0  0  0  0  0  0  0  0  0  0
  151.6751  139.5931  157.8117 C   0  0  0  0  0  0  0  0  0  0  0  0
  151.2982  138.7944  156.6506 N   0  0  0  0  0  0  0  0  0  0  0  0
  151.7567  138.9781  155.4026 C   0  0  0  0  0  0  0  0  0  0  0  0
  152.4993  139.9053  155.0816 O   0  0  0  0  0  0  0  0  0  0  0  0
  151.3243  137.9489  154.3585 C   0  0  0  0  0  0  0  0  0  0  0  0
  151.2471  136.6204  154.9380 N   0  0  0  0  0  0  0  0  0  0  0  0
  150.2928  135.6896  154.8733 C   0  0  0  0  0  0  0  0  0  0  0  0
  150.6220  134.6028  155.5544 N   0  0  0  0  0  0  0  0  0  0  0  0
  151.8699  134.9181  156.0656 N   0  0  0  0  0  0  0  0  0  0  0  0
  152.2452  136.1146  155.7047 N   0  0  0  0  0  0  0  0  0  0  0  0
  152.4914  141.3469  161.7179 H   0  0  0  0  0  0  0  0  0  0  0  0
  154.0283  142.1726  161.9629 H   0  0  0  0  0  0  0  0  0  0  0  0
  153.8036  141.1362  160.5620 H   0  0  0  0  0  0  0  0  0  0  0  0
  153.6490  143.5240  159.9073 H   0  0  0  0  0  0  0  0  0  0  0  0
  151.3553  143.6736  161.9105 H   0  0  0  0  0  0  0  0  0  0  0  0
  152.9111  144.4510  162.0719 H   0  0  0  0  0  0  0  0  0  0  0  0
  151.1825  146.0459  161.2501 H   0  0  0  0  0  0  0  0  0  0  0  0
  152.4771  145.8586  160.0908 H   0  0  0  0  0  0  0  0  0  0  0  0
  149.7441  144.4909  159.9731 H   0  0  0  0  0  0  0  0  0  0  0  0
  150.3006  145.7753  158.9249 H   0  0  0  0  0  0  0  0  0  0  0  0
  150.4986  143.5674  157.8101 H   0  0  0  0  0  0  0  0  0  0  0  0
  152.0588  144.3221  157.9909 H   0  0  0  0  0  0  0  0  0  0  0  0
  150.9561  142.1044  159.7928 H   0  0  0  0  0  0  0  0  0  0  0  0
  150.5823  141.4594  157.6197 H   0  0  0  0  0  0  0  0  0  0  0  0
  151.8846  141.2724  156.4624 H   0  0  0  0  0  0  0  0  0  0  0  0
  152.6909  139.3221  158.1008 H   0  0  0  0  0  0  0  0  0  0  0  0
  151.0320  139.3486  158.6585 H   0  0  0  0  0  0  0  0  0  0  0  0
  150.6880  138.0083  156.8218 H   0  0  0  0  0  0  0  0  0  0  0  0
  150.3479  138.2153  153.9517 H   0  0  0  0  0  0  0  0  0  0  0  0
  152.0289  137.9371  153.5255 H   0  0  0  0  0  0  0  0  0  0  0  0
  149.3652  135.8077  154.3332 H   0  0  0  0  0  0  0  0  0  0  0  0
  1  2  1  0  0  0  0
  1 20  1  0  0  0  0
  1 21  1  0  0  0  0
  1 22  1  0  0  0  0
  2  7  1  0  0  0  0
  2  3  1  0  0  0  0
  2 23  1  0  0  0  0
  3  4  1  0  0  0  0
  3 24  1  0  0  0  0
  3 25  1  0  0  0  0
  4  5  1  0  0  0  0
  4 26  1  0  0  0  0
  4 27  1  0  0  0  0
  5  6  1  0  0  0  0
  5 28  1  0  0  0  0
  5 29  1  0  0  0  0
  6  7  1  0  0  0  0
  6 30  1  0  0  0  0
  6 31  1  0  0  0  0
  7  8  1  0  0  0  0
  7 32  1  0  0  0  0
  8  9  1  0  0  0  0
  9 10  1  0  0  0  0
  9 33  1  0  0  0  0
  9 34  1  0  0  0  0
 10 11  1  0  0  0  0
 10 35  1  0  0  0  0
 10 36  1  0  0  0  0
 11 12  1  0  0  0  0
 11 37  1  0  0  0  0
 12 13  2  0  0  0  0
 12 14  1  0  0  0  0
 14 15  1  0  0  0  0
 14 38  1  0  0  0  0
 14 39  1  0  0  0  0
 15 19  1  0  0  0  0
 15 16  1  0  0  0  0
 16 17  2  0  0  0  0
 16 40  1  0  0  0  0
 17 18  1  0  0  0  0
 18 19  2  0  0  0  0
M  END
> <s_m_source_file>
AV-unprocessed.smi

> <i_m_source_file_index>
1574

> <i_lp_mmshare_version>
43012

> <i_f3d_flags>
0

> <s_epik_input>
W0NIM11bQ0BASF0xW0NIMl1bQ0gyXVtDSDJdW0NIMl1bQ0BIXTFPW0NIMl1bQ0gyXVtOSF1DKD1PKVtDSDJdbjJbY0hdbm5uMg==

> <s_epik_cmdline>
J2VwaWtfcHl0aG9uJywgJy1waCcsICc3LjAnLCAnLXRuJywgJzgnLCAnLW1hJywgJzIwMCcsICctbWV0YWxfYmluZGluZycsICctaW1hZScsICc8aW5maWxlLm1hZT4nLCAnLW9tYWUnLCAnPG91dGZpbGUubWFlPic=

> <r_lp_tautomer_probability>
1

> <r_epik_Ionization_Penalty>
1.44269e-06

> <r_epik_Ionization_Penalty_Charging>
0

> <r_epik_Ionization_Penalty_Neutral>
1.44269e-06

> <r_epik_State_Penalty>
-0

> <r_epik_Charging_Adjusted_Penalty>
0

> <i_epik_Tot_Q>
0

> <i_epik_Tot_abs_Q>
0

> <r_epik_Metal_State_Penalty>
-0

> <b_epik_Metal_Only>
0

> <s_lp_Force_Field>
OPLS_2005

> <r_lp_Energy>
11.219

> <b_lp_Chiralities_Consistent>
1

> <s_lp_Variant>
AV-unprocessed.smi:1574-1

> <Gold.Version>
5.8.1

> <Gold.Id.Protein>
6NUR|6NUR_protein|mol2

> <Gold.PLP.Fitness>
49.5488

> <Gold.PLP.PLP>
-41.5489

> <Gold.PLP.part.hbond>
-3.2787

> <Gold.PLP.part.metal>
0.0000

> <Gold.PLP.part.buried>
-2.9803

> <Gold.PLP.part.nonpolar>
-33.7021

> <Gold.PLP.part.repulsive>
0.1291

> <Gold.PLP.ligand.clash>
0.0000

> <Gold.PLP.ligand.torsion>
1.0904

> <Gold.PLP.Chemscore.Hbond>
2.3656

> <Gold.PLP.Chemscore.CHOScore>
0.9973

> <Gold.PLP.Chemscore.Metal>
0.0000

> <Gold.Chemscore.Hbonds>
donor molecule, donor type, donor heavy atom, donor atom, acceptor molecule, acceptor atom, score
      P1  H  7989  7998       L1    13  0.61
      P1  H  7997  8008       L1    13  0.75
      P1  H 10752 10763       L1    19  0.06
      L1  C    16    40       P1  7948  0.98

> <Gold.PLP.Chemscore.Internal.Correction>
0.0922

> <Gold.Rescore>
     Score         DG    S(hbond)    S(metal)    S(lipo)     H(rot)  DE(clash)    DE(int)     intcor
     14.08     -16.20       1.97        0.00      99.12       2.90       0.06       2.06       ----

> <Gold.Chemscore.Fitness>
14.0802

> <Gold.Chemscore.DG>
-16.2038

> <Gold.Chemscore.ZeroCoef>
-5.4800

> <Gold.Chemscore.Hbond>
1.9650

> <Gold.Chemscore.Metal>
0.0000

> <Gold.Chemscore.Lipo>
99.1226

> <Gold.Chemscore.Internal_Hbond>
0.0000

> <Gold.Chemscore.DEClash>
0.0635

> <Gold.Chemscore.DEInternal>
2.0602

> <Gold.Chemscore.Rot>
2.9050

> <Gold.Chemscore.Internal.Correction>
   9.000000E+99

> <Gold.Chemscore.Hbonds>
donor molecule, donor type, donor heavy atom, donor atom, acceptor molecule, acceptor atom, score
      P1  H  7989  7998       L1    13  0.40
      P1  H  7997  8008       L1    13  0.74

> <Gold.Chemscore.Hbond.Weighted>
-6.5632

> <Gold.Chemscore.Metal.Weighted>
-0.0000

> <Gold.Chemscore.Lipo.Weighted>
-11.5973

> <Gold.Chemscore.Internal_Hbond.Weighted>
0.0000

> <Gold.Chemscore.DEClash.Weighted>
0.0635

> <Gold.Chemscore.DEInternal.Weighted>
2.0602

> <Gold.Chemscore.Rot.Weighted>
7.4367

> <Gold.Chemscore.Internal.Correction.Weighted>
   9.000000E+99

> <Gold.Protein.RotatedTorsions>
[ 6907 6896 6895 6894 ] final -139.74 input  -60.11 | X-H torsion
[ 7974 7965 7964 7962 ] final  124.72 input  175.53 | X-H torsion
[ 8008 7997 7996 7995 ] final  -15.12 input   59.86 | X-H torsion
[ 10167 10162 10161 10158 ] final -100.93 input  -65.29 | X-H torsion
[ 10718 10713 10712 10709 ] final  -76.53 input   66.30 | X-H torsion
[ 10763 10752 10751 10750 ] final   91.31 input  -60.55 | X-H torsion
[ 11005 11000 10999 10996 ] final   30.79 input  -57.11 | X-H torsion

> <Gold.Protein.ActiveResidues>
 VAL166  LYS551  ARG553  GLY616  TRP617  ASP618  TYR619  PRO620  LYS621  CYS622 
 ASP623  PHE694  ASN695  SER759  ASP760  ASP761  ALA762  ILE779  LEU786  VAL792 
 PHE793  MET794  SER795  GLU796  ALA797  LYS798  CYS799  TRP800  GLU811  SER814 

> <Gold.Protein.RotatedAtoms>
  151.0517  133.5618  159.2641 H   0  0  0  0  0  0  0  0  0  0  0  0  # atno 6907 bound_to 6896
  151.2627  135.0658  159.9114 H   0  0  0  0  0  0  0  0  0  0  0  0  # atno 6908 bound_to 6896
  152.5383  134.0260  159.8057 H   0  0  0  0  0  0  0  0  0  0  0  0  # atno 6909 bound_to 6896
  145.0812  139.3656  143.4908 H   0  0  0  0  0  0  0  0  0  0  0  0  # atno 7974 bound_to 7965
  154.5155  140.2204  155.9074 H   0  0  0  0  0  0  0  0  0  0  0  0  # atno 8008 bound_to 7997
  156.1602  140.3143  155.8760 H   0  0  0  0  0  0  0  0  0  0  0  0  # atno 8009 bound_to 7997
  155.3766  140.0470  157.3035 H   0  0  0  0  0  0  0  0  0  0  0  0  # atno 8010 bound_to 7997
  140.2467  143.3501  152.0752 H   0  0  0  0  0  0  0  0  0  0  0  0  # atno 10167 bound_to 10162
  156.0172  130.4468  150.3208 H   0  0  0  0  0  0  0  0  0  0  0  0  # atno 10718 bound_to 10713
  153.2069  135.4402  155.0333 H   0  0  0  0  0  0  0  0  0  0  0  0  # atno 10763 bound_to 10752
  154.8178  135.3323  154.7128 H   0  0  0  0  0  0  0  0  0  0  0  0  # atno 10764 bound_to 10752
  153.7569  135.6994  153.4989 H   0  0  0  0  0  0  0  0  0  0  0  0  # atno 10765 bound_to 10752
  140.2907  134.2868  155.7777 H   0  0  0  0  0  0  0  0  0  0  0  0  # atno 11005 bound_to 11000
  146.3531  140.0603  142.8630 LP  0  0  0  0  0  0  0  0  0  0  0  0  # atno 17320 bound_to 7965
  145.1176  140.9443  143.4619 LP  0  0  0  0  0  0  0  0  0  0  0  0  # atno 17321 bound_to 7965
  139.5059  144.6804  151.6022 LP  0  0  0  0  0  0  0  0  0  0  0  0  # atno 17342 bound_to 10162
  140.6072  143.9502  150.6427 LP  0  0  0  0  0  0  0  0  0  0  0  0  # atno 17343 bound_to 10162
  157.1308  131.0271  151.2970 LP  0  0  0  0  0  0  0  0  0  0  0  0  # atno 17370 bound_to 10713
  157.4552  130.7621  149.7186 LP  0  0  0  0  0  0  0  0  0  0  0  0  # atno 17371 bound_to 10713
  141.2147  133.7583  156.9620 LP  0  0  0  0  0  0  0  0  0  0  0  0  # atno 17394 bound_to 11000
  140.1198  134.9424  157.2187 LP  0  0  0  0  0  0  0  0  0  0  0  0  # atno 17395 bound_to 11000

$$$$
