AV-unprocessed.smi:247|AV-procd|sdf|1889|dock2
  -GOLD-   2262020543D 1   1.00000     0.00000
 Structure written by MMmdl.
 61 65  0  0  0  0  0  0  0  0  1 V2000
  147.1451  137.3029  162.1303 O   0  0  0  0  0  0  0  0  0  0  0  0
  147.5295  135.9507  162.2839 C   0  0  0  0  0  0  0  0  0  0  0  0
  146.6082  134.9554  161.5242 C   0  0  0  0  0  0  0  0  0  0  0  0
  146.3409  135.5170  160.0917 C   0  0  0  0  0  0  0  0  0  0  0  0
  147.4687  136.2017  159.4752 N   0  0  0  0  0  0  0  0  0  0  0  0
  148.7591  135.7337  159.3644 C   0  0  0  0  0  0  0  0  0  0  0  0
  149.5941  136.5372  158.7646 N   0  0  0  0  0  0  0  0  0  0  0  0
  148.8169  137.6341  158.4138 C   0  0  0  0  0  0  0  0  0  0  0  0
  149.0828  138.8650  157.7519 C   0  0  0  0  0  0  0  0  0  0  0  0
  150.3174  139.1877  157.2919 N   0  0  0  0  0  0  0  0  0  0  0  0
  150.8824  138.2534  156.3320 C   0  0  0  0  0  0  0  0  0  0  0  0
  152.1061  138.9637  155.7661 C   0  0  0  0  0  0  0  0  0  0  0  0
  151.6802  140.4303  155.7561 C   0  0  0  0  0  0  0  0  0  0  0  0
  150.6628  140.5616  156.9069 C   0  0  2  0  0  0  0  0  0  0  0  0
  151.1828  141.4157  158.0992 C   0  0  2  0  0  0  0  0  0  0  0  0
  151.3456  142.9133  157.7419 C   0  0  0  0  0  0  0  0  0  0  0  0
  151.7498  143.6641  158.8816 O   0  0  0  0  0  0  0  0  0  0  0  0
  153.0175  143.2666  159.3886 C   0  0  0  0  0  0  0  0  0  0  0  0
  152.9429  141.8109  159.8683 C   0  0  0  0  0  0  0  0  0  0  0  0
  152.4978  140.8933  158.7218 C   0  0  1  0  0  0  0  0  0  0  0  0
  152.3279  139.5873  159.2359 O   0  0  0  0  0  0  0  0  0  0  0  0
  148.0425  139.7241  157.5877 N   0  0  0  0  0  0  0  0  0  0  0  0
  146.8260  139.4064  158.0387 C   0  0  0  0  0  0  0  0  0  0  0  0
  146.4354  138.3005  158.6742 N   0  0  0  0  0  0  0  0  0  0  0  0
  147.4756  137.4354  158.8464 C   0  0  0  0  0  0  0  0  0  0  0  0
  147.2704  133.5536  161.4841 C   0  0  0  0  0  0  0  0  0  0  0  0
  146.3149  132.4693  160.9544 C   0  0  0  0  0  0  0  0  0  0  0  0
  145.1372  132.4320  161.7513 O   0  0  0  0  0  0  0  0  0  0  0  0
  144.3999  133.6480  161.7145 C   0  0  0  0  0  0  0  0  0  0  0  0
  145.2546  134.8056  162.2658 C   0  0  0  0  0  0  0  0  0  0  0  0
  146.5854  137.5401  162.8540 H   0  0  0  0  0  0  0  0  0  0  0  0
  148.5593  135.8527  161.9395 H   0  0  0  0  0  0  0  0  0  0  0  0
  147.5315  135.7384  163.3531 H   0  0  0  0  0  0  0  0  0  0  0  0
  146.0300  134.7306  159.4061 H   0  0  0  0  0  0  0  0  0  0  0  0
  145.5045  136.2165  160.1227 H   0  0  0  0  0  0  0  0  0  0  0  0
  149.0668  134.7740  159.7534 H   0  0  0  0  0  0  0  0  0  0  0  0
  151.1570  137.3059  156.7956 H   0  0  0  0  0  0  0  0  0  0  0  0
  150.1555  138.0522  155.5434 H   0  0  0  0  0  0  0  0  0  0  0  0
  152.9549  138.8275  156.4369 H   0  0  0  0  0  0  0  0  0  0  0  0
  152.3927  138.5947  154.7813 H   0  0  0  0  0  0  0  0  0  0  0  0
  152.5275  141.1116  155.8394 H   0  0  0  0  0  0  0  0  0  0  0  0
  151.1828  140.6519  154.8112 H   0  0  0  0  0  0  0  0  0  0  0  0
  149.7946  141.0668  156.4841 H   0  0  0  0  0  0  0  0  0  0  0  0
  150.4233  141.3587  158.8811 H   0  0  0  0  0  0  0  0  0  0  0  0
  152.0699  143.0538  156.9378 H   0  0  0  0  0  0  0  0  0  0  0  0
  150.4016  143.3288  157.3906 H   0  0  0  0  0  0  0  0  0  0  0  0
  153.7857  143.3879  158.6231 H   0  0  0  0  0  0  0  0  0  0  0  0
  153.2867  143.9217  160.2173 H   0  0  0  0  0  0  0  0  0  0  0  0
  153.9125  141.4933  160.2536 H   0  0  0  0  0  0  0  0  0  0  0  0
  152.2376  141.7422  160.6980 H   0  0  0  0  0  0  0  0  0  0  0  0
  153.2874  140.8698  157.9708 H   0  0  0  0  0  0  0  0  0  0  0  0
  152.2027  138.9951  158.5099 H   0  0  0  0  0  0  0  0  0  0  0  0
  146.0566  140.1449  157.8686 H   0  0  0  0  0  0  0  0  0  0  0  0
  148.1901  133.5674  160.9005 H   0  0  0  0  0  0  0  0  0  0  0  0
  147.5710  133.2585  162.4898 H   0  0  0  0  0  0  0  0  0  0  0  0
  146.0588  132.6330  159.9074 H   0  0  0  0  0  0  0  0  0  0  0  0
  146.7981  131.4937  161.0065 H   0  0  0  0  0  0  0  0  0  0  0  0
  144.0525  133.8472  160.7007 H   0  0  0  0  0  0  0  0  0  0  0  0
  143.5059  133.5272  162.3266 H   0  0  0  0  0  0  0  0  0  0  0  0
  145.4241  134.6062  163.3241 H   0  0  0  0  0  0  0  0  0  0  0  0
  144.6909  135.7382  162.2241 H   0  0  0  0  0  0  0  0  0  0  0  0
  1  2  1  0  0  0  0
  1 31  1  0  0  0  0
  2  3  1  0  0  0  0
  2 32  1  0  0  0  0
  2 33  1  0  0  0  0
  3 30  1  0  0  0  0
  3  4  1  0  0  0  0
  3 26  1  0  0  0  0
  4  5  1  0  0  0  0
  4 34  1  0  0  0  0
  4 35  1  0  0  0  0
  5 25  1  0  0  0  0
  5  6  1  0  0  0  0
  6  7  2  0  0  0  0
  6 36  1  0  0  0  0
  7  8  1  0  0  0  0
  8 25  2  0  0  0  0
  8  9  1  0  0  0  0
  9 10  1  0  0  0  0
  9 22  2  0  0  0  0
 10 14  1  0  0  0  0
 10 11  1  0  0  0  0
 11 12  1  0  0  0  0
 11 37  1  0  0  0  0
 11 38  1  0  0  0  0
 12 13  1  0  0  0  0
 12 39  1  0  0  0  0
 12 40  1  0  0  0  0
 13 14  1  0  0  0  0
 13 41  1  0  0  0  0
 13 42  1  0  0  0  0
 14 15  1  0  0  0  0
 14 43  1  0  0  0  0
 15 20  1  0  0  0  0
 15 16  1  0  0  0  0
 15 44  1  0  0  0  0
 16 17  1  0  0  0  0
 16 45  1  0  0  0  0
 16 46  1  0  0  0  0
 17 18  1  0  0  0  0
 18 19  1  0  0  0  0
 18 47  1  0  0  0  0
 18 48  1  0  0  0  0
 19 20  1  0  0  0  0
 19 49  1  0  0  0  0
 19 50  1  0  0  0  0
 20 21  1  0  0  0  0
 20 51  1  0  0  0  0
 21 52  1  0  0  0  0
 22 23  1  0  0  0  0
 23 24  2  0  0  0  0
 23 53  1  0  0  0  0
 24 25  1  0  0  0  0
 26 27  1  0  0  0  0
 26 54  1  0  0  0  0
 26 55  1  0  0  0  0
 27 28  1  0  0  0  0
 27 56  1  0  0  0  0
 27 57  1  0  0  0  0
 28 29  1  0  0  0  0
 29 30  1  0  0  0  0
 29 58  1  0  0  0  0
 29 59  1  0  0  0  0
 30 60  1  0  0  0  0
 30 61  1  0  0  0  0
M  END
> <s_m_source_file>
AV-unprocessed.smi

> <i_m_source_file_index>
247

> <i_lp_mmshare_version>
43012

> <i_f3d_flags>
0

> <s_epik_input>
W0NIMl0xW0NIMl1PW0NIMl1bQ0gyXUMxKFtDSDJdW09IXSlbQ0gyXW4oW2NIXW4yKWMoYzIzKW5bY0hdbmMzTjRbQ0gyXVtDSDJdW0NIMl1bQ0BIXTRbQ0BASF01W0NIMl1PW0NIMl1bQ0gyXVtDQEhdNVtPSF0=

> <s_epik_cmdline>
J2VwaWtfcHl0aG9uJywgJy1waCcsICc3LjAnLCAnLXRuJywgJzgnLCAnLW1hJywgJzIwMCcsICctbWV0YWxfYmluZGluZycsICctaW1hZScsICc8aW5maWxlLm1hZT4nLCAnLW9tYWUnLCAnPG91dGZpbGUubWFlPic=

> <r_lp_tautomer_probability>
1

> <r_epik_Ionization_Penalty>
0.00362597

> <r_epik_Ionization_Penalty_Charging>
0

> <r_epik_Ionization_Penalty_Neutral>
0.00362597

> <r_epik_State_Penalty>
0.00241433

> <r_epik_Charging_Adjusted_Penalty>
0.00241433

> <i_epik_Tot_Q>
0

> <i_epik_Tot_abs_Q>
0

> <r_epik_Metal_State_Penalty>
-0

> <b_epik_Metal_Only>
0

> <s_lp_Force_Field>
OPLS_2005

> <r_lp_Energy>
60.2507

> <b_lp_Chiralities_Consistent>
1

> <s_lp_Variant>
AV-unprocessed.smi:247-2

> <Gold.Version>
5.8.1

> <Gold.Id.Protein>
6NUR|6NUR_protein|mol2

> <Gold.PLP.Fitness>
49.1390

> <Gold.PLP.PLP>
-46.9765

> <Gold.PLP.part.hbond>
-3.4992

> <Gold.PLP.part.metal>
0.0000

> <Gold.PLP.part.buried>
-2.9535

> <Gold.PLP.part.nonpolar>
-39.4822

> <Gold.PLP.part.repulsive>
0.1464

> <Gold.PLP.ligand.clash>
0.0000

> <Gold.PLP.ligand.torsion>
0.8634

> <Gold.PLP.Chemscore.Hbond>
1.1648

> <Gold.PLP.Chemscore.CHOScore>
0.0000

> <Gold.PLP.Chemscore.Metal>
0.0000

> <Gold.Chemscore.Hbonds>
donor molecule, donor type, donor heavy atom, donor atom, acceptor molecule, acceptor atom, score
      P1  H  6931  6943       L1     1  0.61
      P1  H  6934  6947       L1     1  0.62

> <Gold.PLP.Chemscore.Internal.Correction>
0.3948

> <Gold.Rescore>
     Score         DG    S(hbond)    S(metal)    S(lipo)     H(rot)  DE(clash)    DE(int)     intcor
     13.04     -13.74       0.71        0.00     121.03       3.23       0.06       0.64       ----

> <Gold.Chemscore.Fitness>
13.0412

> <Gold.Chemscore.DG>
-13.7404

> <Gold.Chemscore.ZeroCoef>
-5.4800

> <Gold.Chemscore.Hbond>
0.7076

> <Gold.Chemscore.Metal>
0.0000

> <Gold.Chemscore.Lipo>
121.0288

> <Gold.Chemscore.Internal_Hbond>
0.0000

> <Gold.Chemscore.DEClash>
0.0553

> <Gold.Chemscore.DEInternal>
0.6439

> <Gold.Chemscore.Rot>
3.2278

> <Gold.Chemscore.Internal.Correction>
   9.000000E+99

> <Gold.Chemscore.Hbonds>
donor molecule, donor type, donor heavy atom, donor atom, acceptor molecule, acceptor atom, score
      P1  H  6931  6943       L1     1  0.20
      P1  H  6934  6947       L1     1  0.23

> <Gold.Chemscore.Hbond.Weighted>
-2.3634

> <Gold.Chemscore.Metal.Weighted>
-0.0000

> <Gold.Chemscore.Lipo.Weighted>
-14.1604

> <Gold.Chemscore.Internal_Hbond.Weighted>
0.0000

> <Gold.Chemscore.DEClash.Weighted>
0.0553

> <Gold.Chemscore.DEInternal.Weighted>
0.6439

> <Gold.Chemscore.Rot.Weighted>
8.2633

> <Gold.Chemscore.Internal.Correction.Weighted>
   9.000000E+99

> <Gold.Protein.RotatedTorsions>
[ 6907 6896 6895 6894 ] final   65.32 input  -60.11 | X-H torsion
[ 7974 7965 7964 7962 ] final  -56.35 input  175.53 | X-H torsion
[ 8008 7997 7996 7995 ] final -156.25 input   59.86 | X-H torsion
[ 10167 10162 10161 10158 ] final -121.14 input  -65.29 | X-H torsion
[ 10718 10713 10712 10709 ] final  123.81 input   66.30 | X-H torsion
[ 10763 10752 10751 10750 ] final -177.70 input  -60.55 | X-H torsion
[ 11005 11000 10999 10996 ] final   88.80 input  -57.11 | X-H torsion

> <Gold.Protein.ActiveResidues>
 VAL166  LYS551  ARG553  GLY616  TRP617  ASP618  TYR619  PRO620  LYS621  CYS622 
 ASP623  PHE694  ASN695  SER759  ASP760  ASP761  ALA762  ILE779  LEU786  VAL792 
 PHE793  MET794  SER795  GLU796  ALA797  LYS798  CYS799  TRP800  GLU811  SER814 

> <Gold.Protein.RotatedAtoms>
  152.4398  134.5613  159.9894 H   0  0  0  0  0  0  0  0  0  0  0  0  # atno 6907 bound_to 6896
  151.5713  133.3384  159.2998 H   0  0  0  0  0  0  0  0  0  0  0  0  # atno 6908 bound_to 6896
  150.8303  134.7587  159.6912 H   0  0  0  0  0  0  0  0  0  0  0  0  # atno 6909 bound_to 6896
  145.8637  140.8267  142.9924 H   0  0  0  0  0  0  0  0  0  0  0  0  # atno 7974 bound_to 7965
  155.7142  140.0782  157.2358 H   0  0  0  0  0  0  0  0  0  0  0  0  # atno 8008 bound_to 7997
  154.4054  140.1624  156.2384 H   0  0  0  0  0  0  0  0  0  0  0  0  # atno 8009 bound_to 7997
  155.9255  140.3395  155.6209 H   0  0  0  0  0  0  0  0  0  0  0  0  # atno 8010 bound_to 7997
  140.0282  143.5274  152.2189 H   0  0  0  0  0  0  0  0  0  0  0  0  # atno 10167 bound_to 10162
  157.5635  131.1088  150.8496 H   0  0  0  0  0  0  0  0  0  0  0  0  # atno 10718 bound_to 10713
  154.5569  135.2817  155.0956 H   0  0  0  0  0  0  0  0  0  0  0  0  # atno 10763 bound_to 10752
  154.2380  135.6362  153.5201 H   0  0  0  0  0  0  0  0  0  0  0  0  # atno 10764 bound_to 10752
  153.0018  135.5553  154.6151 H   0  0  0  0  0  0  0  0  0  0  0  0  # atno 10765 bound_to 10752
  139.8888  134.8511  156.3052 H   0  0  0  0  0  0  0  0  0  0  0  0  # atno 11005 bound_to 11000
  144.6726  140.1133  143.7454 LP  0  0  0  0  0  0  0  0  0  0  0  0  # atno 17320 bound_to 7965
  145.9219  139.2551  143.1376 LP  0  0  0  0  0  0  0  0  0  0  0  0  # atno 17321 bound_to 7965
  139.6093  144.7604  151.2988 LP  0  0  0  0  0  0  0  0  0  0  0  0  # atno 17342 bound_to 10162
  140.7313  143.6855  150.7965 LP  0  0  0  0  0  0  0  0  0  0  0  0  # atno 17343 bound_to 10162
  156.8987  130.5239  149.5283 LP  0  0  0  0  0  0  0  0  0  0  0  0  # atno 17370 bound_to 10713
  156.0685  130.5723  150.9337 LP  0  0  0  0  0  0  0  0  0  0  0  0  # atno 17371 bound_to 10713
  140.9887  133.7222  156.0781 LP  0  0  0  0  0  0  0  0  0  0  0  0  # atno 17394 bound_to 11000
  140.7654  134.3893  157.5518 LP  0  0  0  0  0  0  0  0  0  0  0  0  # atno 17395 bound_to 11000

$$$$
