AV-unprocessed.smi:317|AV-procd|sdf|2329|dock10
  -GOLD-   2262022233D 1   1.00000     0.00000
 Structure written by MMmdl.
 40 41  0  0  0  0  0  0  0  0  2 V2000
  144.9492  135.8313  151.4724 C   0  0  0  0  0  0  0  0  0  0  0  0
  144.1311  136.5892  152.5336 C   0  0  1  0  0  0  0  0  0  0  0  0
  143.9732  135.8144  153.8553 C   0  0  0  0  0  0  0  0  0  0  0  0
  143.3739  134.5507  153.6501 O   0  0  0  0  0  0  0  0  0  0  0  0
  144.6914  137.9125  152.7970 N   0  0  0  0  0  0  0  0  0  0  0  0
  145.9323  138.1606  153.2390 C   0  0  0  0  0  0  0  0  0  0  0  0
  146.7604  137.2819  153.4778 O   0  0  0  0  0  0  0  0  0  0  0  0
  146.1334  139.4791  153.4011 N   0  0  0  0  0  0  0  0  0  0  0  0
  147.2939  140.1427  153.8927 C   0  0  0  0  0  0  0  0  0  0  0  0
  148.5616  139.5055  153.9100 C   0  0  0  0  0  0  0  0  0  0  0  0
  149.6831  140.1840  154.4231 C   0  0  0  0  0  0  0  0  0  0  0  0
  149.5230  141.4931  154.9081 C   0  0  0  0  0  0  0  0  0  0  0  0
  148.3093  142.0795  154.8600 N   0  3  0  0  0  0  0  0  0  0  0  0
  147.1953  141.4841  154.3650 C   0  0  0  0  0  0  0  0  0  0  0  0
  145.9933  142.2277  154.3651 N   0  0  0  0  0  0  0  0  0  0  0  0
  145.2820  142.4799  155.6129 C   0  0  0  0  0  0  0  0  0  0  0  0
  144.2726  143.5738  155.2771 C   0  0  0  0  0  0  0  0  0  0  0  0
  145.0342  144.4218  154.2625 C   0  0  0  0  0  0  0  0  0  0  0  0
  145.8924  143.4025  153.5047 C   0  0  0  0  0  0  0  0  0  0  0  0
  144.5257  134.8442  151.2854 H   0  0  0  0  0  0  0  0  0  0  0  0
  145.9855  135.6959  151.7831 H   0  0  0  0  0  0  0  0  0  0  0  0
  144.9576  136.3676  150.5230 H   0  0  0  0  0  0  0  0  0  0  0  0
  143.1241  136.7292  152.1363 H   0  0  0  0  0  0  0  0  0  0  0  0
  144.9378  135.6823  154.3467 H   0  0  0  0  0  0  0  0  0  0  0  0
  143.3432  136.3791  154.5433 H   0  0  0  0  0  0  0  0  0  0  0  0
  142.5287  134.5467  154.0734 H   0  0  0  0  0  0  0  0  0  0  0  0
  144.0765  138.6967  152.6351 H   0  0  0  0  0  0  0  0  0  0  0  0
  145.3271  140.0678  153.2523 H   0  0  0  0  0  0  0  0  0  0  0  0
  148.6960  138.5040  153.5306 H   0  0  0  0  0  0  0  0  0  0  0  0
  150.6513  139.7052  154.4447 H   0  0  0  0  0  0  0  0  0  0  0  0
  150.3238  142.0887  155.3218 H   0  0  0  0  0  0  0  0  0  0  0  0
  144.7936  141.5782  155.9833 H   0  0  0  0  0  0  0  0  0  0  0  0
  145.9696  142.8396  156.3795 H   0  0  0  0  0  0  0  0  0  0  0  0
  143.3890  143.1370  154.8094 H   0  0  0  0  0  0  0  0  0  0  0  0
  143.9503  144.1390  156.1521 H   0  0  0  0  0  0  0  0  0  0  0  0
  144.3769  144.9931  153.6062 H   0  0  0  0  0  0  0  0  0  0  0  0
  145.6792  145.1273  154.7882 H   0  0  0  0  0  0  0  0  0  0  0  0
  146.8715  143.8156  153.2573 H   0  0  0  0  0  0  0  0  0  0  0  0
  145.3976  143.1181  152.5755 H   0  0  0  0  0  0  0  0  0  0  0  0
  148.2274  143.0342  155.2101 H   0  0  0  0  0  0  0  0  0  0  0  0
  1  2  1  0  0  0  0
  1 20  1  0  0  0  0
  1 21  1  0  0  0  0
  1 22  1  0  0  0  0
  2  3  1  0  0  0  0
  2  5  1  0  0  0  0
  2 23  1  0  0  0  0
  3  4  1  0  0  0  0
  3 24  1  0  0  0  0
  3 25  1  0  0  0  0
  4 26  1  0  0  0  0
  5  6  1  0  0  0  0
  5 27  1  0  0  0  0
  6  7  2  0  0  0  0
  6  8  1  0  0  0  0
  8  9  1  0  0  0  0
  8 28  1  0  0  0  0
  9 14  1  0  0  0  0
  9 10  2  0  0  0  0
 10 11  1  0  0  0  0
 10 29  1  0  0  0  0
 11 12  2  0  0  0  0
 11 30  1  0  0  0  0
 12 13  1  0  0  0  0
 12 31  1  0  0  0  0
 13 14  2  0  0  0  0
 13 40  1  0  0  0  0
 14 15  1  0  0  0  0
 15 19  1  0  0  0  0
 15 16  1  0  0  0  0
 16 17  1  0  0  0  0
 16 32  1  0  0  0  0
 16 33  1  0  0  0  0
 17 18  1  0  0  0  0
 17 34  1  0  0  0  0
 17 35  1  0  0  0  0
 18 19  1  0  0  0  0
 18 36  1  0  0  0  0
 18 37  1  0  0  0  0
 19 38  1  0  0  0  0
 19 39  1  0  0  0  0
M  CHG  1  13   1
M  END
> <s_m_source_file>
AV-unprocessed.smi

> <i_m_source_file_index>
317

> <i_lp_mmshare_version>
43012

> <i_f3d_flags>
0

> <s_epik_input>
W09IXVtDSDJdW0NAQEhdKFtDSDNdKVtOSF1DKD1PKVtOSF1jMVtjSF1bY0hdW2NIXW5jMU4yW0NIMl1bQ0gyXVtDSDJdW0NIMl0y

> <s_epik_cmdline>
J2VwaWtfcHl0aG9uJywgJy1waCcsICc3LjAnLCAnLXRuJywgJzgnLCAnLW1hJywgJzIwMCcsICctbWV0YWxfYmluZGluZycsICctaW1hZScsICc8aW5maWxlLm1hZT4nLCAnLW9tYWUnLCAnPG91dGZpbGUubWFlPic=

> <r_lp_tautomer_probability>
0.999994

> <r_epik_Ionization_Penalty>
1.11558

> <r_epik_Ionization_Penalty_Charging>
1.11556

> <r_epik_Ionization_Penalty_Neutral>
2.02999e-05

> <r_epik_State_Penalty>
1.17393

> <r_epik_Charging_Adjusted_Penalty>
2.28949

> <i_epik_Tot_Q>
1

> <i_epik_Tot_abs_Q>
1

> <r_epik_Metal_State_Penalty>
1.25924

> <b_epik_Metal_Only>
0

> <s_lp_Force_Field>
OPLS_2005

> <r_lp_Energy>
42.0309

> <b_lp_Chiralities_Consistent>
1

> <s_lp_Variant>
AV-unprocessed.smi:317-4

> <Gold.Version>
5.8.1

> <Gold.Id.Protein>
6NUR|6NUR_protein|mol2

> <Gold.PLP.Fitness>
43.4232

> <Gold.PLP.PLP>
-31.6400

> <Gold.PLP.part.hbond>
-4.6828

> <Gold.PLP.part.metal>
0.0000

> <Gold.PLP.part.buried>
-6.3537

> <Gold.PLP.part.nonpolar>
-22.4267

> <Gold.PLP.part.repulsive>
1.7798

> <Gold.PLP.ligand.clash>
0.0000

> <Gold.PLP.ligand.torsion>
0.3067

> <Gold.PLP.Chemscore.Hbond>
4.0000

> <Gold.PLP.Chemscore.CHOScore>
0.0000

> <Gold.PLP.Chemscore.Metal>
0.0000

> <Gold.Chemscore.Hbonds>
donor molecule, donor type, donor heavy atom, donor atom, acceptor molecule, acceptor atom, score
      L1  H     5    27       P1 10175  1.00
      L1  H     8    28       P1 10175  1.00
      L1  H    13    40       P1  8028  2.00

> <Gold.PLP.Chemscore.Internal.Correction>
0.3966

> <Gold.Rescore>
     Score         DG    S(hbond)    S(metal)    S(lipo)     H(rot)  DE(clash)    DE(int)     intcor
     14.43     -16.77       2.90        0.00      59.75       2.11       0.64       1.69       ----

> <Gold.Chemscore.Fitness>
14.4327

> <Gold.Chemscore.DG>
-16.7656

> <Gold.Chemscore.ZeroCoef>
-5.4800

> <Gold.Chemscore.Hbond>
2.9030

> <Gold.Chemscore.Metal>
0.0000

> <Gold.Chemscore.Lipo>
59.7516

> <Gold.Chemscore.Internal_Hbond>
0.0000

> <Gold.Chemscore.DEClash>
0.6408

> <Gold.Chemscore.DEInternal>
1.6921

> <Gold.Chemscore.Rot>
2.1099

> <Gold.Chemscore.Internal.Correction>
   9.000000E+99

> <Gold.Chemscore.Hbonds>
donor molecule, donor type, donor heavy atom, donor atom, acceptor molecule, acceptor atom, score
      L1  H     5    27       P1 10175  0.99
      L1  H     8    28       P1 10175  0.98
      L1  H    13    40       P1  8028  0.96

> <Gold.Chemscore.Hbond.Weighted>
-9.6961

> <Gold.Chemscore.Metal.Weighted>
-0.0000

> <Gold.Chemscore.Lipo.Weighted>
-6.9909

> <Gold.Chemscore.Internal_Hbond.Weighted>
0.0000

> <Gold.Chemscore.DEClash.Weighted>
0.6408

> <Gold.Chemscore.DEInternal.Weighted>
1.6921

> <Gold.Chemscore.Rot.Weighted>
5.4015

> <Gold.Chemscore.Internal.Correction.Weighted>
   9.000000E+99

> <Gold.Protein.RotatedTorsions>
[ 6907 6896 6895 6894 ] final   -9.92 input  -60.11 | X-H torsion
[ 7974 7965 7964 7962 ] final   86.63 input  175.53 | X-H torsion
[ 8008 7997 7996 7995 ] final  153.93 input   59.86 | X-H torsion
[ 10167 10162 10161 10158 ] final  163.47 input  -65.29 | X-H torsion
[ 10718 10713 10712 10709 ] final  111.86 input   66.30 | X-H torsion
[ 10763 10752 10751 10750 ] final  -82.97 input  -60.55 | X-H torsion
[ 11005 11000 10999 10996 ] final  -65.70 input  -57.11 | X-H torsion

> <Gold.Protein.ActiveResidues>
 VAL166  LYS551  ARG553  GLY616  TRP617  ASP618  TYR619  PRO620  LYS621  CYS622 
 ASP623  PHE694  ASN695  SER759  ASP760  ASP761  ALA762  ILE779  LEU786  VAL792 
 PHE793  MET794  SER795  GLU796  ALA797  LYS798  CYS799  TRP800  GLU811  SER814 

> <Gold.Protein.RotatedAtoms>
  151.4102  135.0984  159.9582 H   0  0  0  0  0  0  0  0  0  0  0  0  # atno 6907 bound_to 6896
  152.5022  133.8805  159.7354 H   0  0  0  0  0  0  0  0  0  0  0  0  # atno 6908 bound_to 6896
  150.9298  133.6724  159.2841 H   0  0  0  0  0  0  0  0  0  0  0  0  # atno 6909 bound_to 6896
  145.5698  139.2312  143.2413 H   0  0  0  0  0  0  0  0  0  0  0  0  # atno 7974 bound_to 7965
  156.2557  140.1980  156.6567 H   0  0  0  0  0  0  0  0  0  0  0  0  # atno 8008 bound_to 7997
  154.6495  140.0573  156.9964 H   0  0  0  0  0  0  0  0  0  0  0  0  # atno 8009 bound_to 7997
  155.1439  140.3245  155.4448 H   0  0  0  0  0  0  0  0  0  0  0  0  # atno 8010 bound_to 7997
  139.4874  144.4334  151.9043 H   0  0  0  0  0  0  0  0  0  0  0  0  # atno 10167 bound_to 10162
  157.6423  131.0958  150.6811 H   0  0  0  0  0  0  0  0  0  0  0  0  # atno 10718 bound_to 10713
  154.5822  135.5572  153.7196 H   0  0  0  0  0  0  0  0  0  0  0  0  # atno 10763 bound_to 10752
  153.0085  135.6323  154.1966 H   0  0  0  0  0  0  0  0  0  0  0  0  # atno 10764 bound_to 10752
  154.1907  135.2882  155.3003 H   0  0  0  0  0  0  0  0  0  0  0  0  # atno 10765 bound_to 10752
  141.1462  133.6686  156.6027 H   0  0  0  0  0  0  0  0  0  0  0  0  # atno 11005 bound_to 11000
  146.1793  140.6523  142.9197 LP  0  0  0  0  0  0  0  0  0  0  0  0  # atno 17320 bound_to 7965
  144.7443  140.5027  143.6847 LP  0  0  0  0  0  0  0  0  0  0  0  0  # atno 17321 bound_to 7965
  140.3782  144.2769  150.5911 LP  0  0  0  0  0  0  0  0  0  0  0  0  # atno 17342 bound_to 10162
  140.5257  143.2255  151.8318 LP  0  0  0  0  0  0  0  0  0  0  0  0  # atno 17343 bound_to 10162
  156.7133  130.4658  149.5541 LP  0  0  0  0  0  0  0  0  0  0  0  0  # atno 17370 bound_to 10713
  156.1715  130.6440  151.0843 LP  0  0  0  0  0  0  0  0  0  0  0  0  # atno 17371 bound_to 10713
  140.3676  134.7633  157.4577 LP  0  0  0  0  0  0  0  0  0  0  0  0  # atno 17394 bound_to 11000
  140.0736  134.5829  155.8616 LP  0  0  0  0  0  0  0  0  0  0  0  0  # atno 17395 bound_to 11000

$$$$
