AV-unprocessed.smi:2955|AV-procd|sdf|11302|dock10
  -GOLD-   2272016203D 1   1.00000     0.00000
 Structure written by MMmdl.
 45 47  0  0  0  0  0  0  0  0  1 V2000
  144.8055  143.9770  157.5791 C   0  0  0  0  0  0  0  0  0  0  0  0
  145.4495  143.4949  156.2952 C   0  0  0  0  0  0  0  0  0  0  0  0
  145.0410  144.0237  155.0547 C   0  0  0  0  0  0  0  0  0  0  0  0
  145.6461  143.5749  153.8666 C   0  0  0  0  0  0  0  0  0  0  0  0
  146.6594  142.5993  153.9172 C   0  0  0  0  0  0  0  0  0  0  0  0
  147.0821  142.0604  155.1497 C   0  0  0  0  0  0  0  0  0  0  0  0
  148.0818  141.1120  155.1083 O   0  0  0  0  0  0  0  0  0  0  0  0
  148.8189  140.8596  156.2971 C   0  0  0  0  0  0  0  0  0  0  0  0
  149.9880  141.8477  156.4099 C   0  0  0  0  0  0  0  0  0  0  0  0
  151.1108  141.2969  157.1577 N   0  0  0  0  0  0  0  0  0  0  0  0
  151.8081  140.1483  156.9449 C   0  0  0  0  0  0  0  0  0  0  0  0
  151.5073  139.1987  155.8121 C   0  0  1  0  0  0  0  0  0  0  0  0
  152.6810  139.0744  154.8299 C   0  0  0  0  0  0  0  0  0  0  0  0
  151.1793  137.8956  156.3804 N   0  0  0  0  0  0  0  0  0  0  0  0
  151.0089  136.7815  155.6576 C   0  0  0  0  0  0  0  0  0  0  0  0
  151.1128  136.7511  154.4341 O   0  0  0  0  0  0  0  0  0  0  0  0
  152.7702  139.8888  157.8347 N   0  0  0  0  0  0  0  0  0  0  0  0
  152.7154  140.9794  158.6777 C   0  0  0  0  0  0  0  0  0  0  0  0
  153.4907  141.3012  159.8147 C   0  0  0  0  0  0  0  0  0  0  0  0
  153.2488  142.4927  160.5293 C   0  0  0  0  0  0  0  0  0  0  0  0
  152.2310  143.3770  160.1178 C   0  0  0  0  0  0  0  0  0  0  0  0
  151.4460  143.0734  158.9889 C   0  0  0  0  0  0  0  0  0  0  0  0
  151.6907  141.8821  158.2794 C   0  0  0  0  0  0  0  0  0  0  0  0
  146.4658  142.5182  156.3424 C   0  0  0  0  0  0  0  0  0  0  0  0
  143.8583  144.4799  157.3816 H   0  0  0  0  0  0  0  0  0  0  0  0
  145.4662  144.6780  158.0899 H   0  0  0  0  0  0  0  0  0  0  0  0
  144.6099  143.1391  158.2488 H   0  0  0  0  0  0  0  0  0  0  0  0
  144.2647  144.7737  155.0102 H   0  0  0  0  0  0  0  0  0  0  0  0
  145.3332  143.9796  152.9154 H   0  0  0  0  0  0  0  0  0  0  0  0
  147.1153  142.2608  152.9987 H   0  0  0  0  0  0  0  0  0  0  0  0
  148.1728  140.9602  157.1708 H   0  0  0  0  0  0  0  0  0  0  0  0
  149.2109  139.8416  156.2835 H   0  0  0  0  0  0  0  0  0  0  0  0
  150.3391  142.1065  155.4107 H   0  0  0  0  0  0  0  0  0  0  0  0
  149.6672  142.7882  156.8559 H   0  0  0  0  0  0  0  0  0  0  0  0
  150.6544  139.5509  155.2347 H   0  0  0  0  0  0  0  0  0  0  0  0
  152.9502  140.0480  154.4210 H   0  0  0  0  0  0  0  0  0  0  0  0
  152.4259  138.4223  153.9942 H   0  0  0  0  0  0  0  0  0  0  0  0
  153.5683  138.6640  155.3134 H   0  0  0  0  0  0  0  0  0  0  0  0
  151.0534  137.8446  157.3810 H   0  0  0  0  0  0  0  0  0  0  0  0
  150.7671  135.9131  156.2905 H   0  0  0  0  0  0  0  0  0  0  0  0
  154.2736  140.6306  160.1372 H   0  0  0  0  0  0  0  0  0  0  0  0
  153.8475  142.7290  161.3968 H   0  0  0  0  0  0  0  0  0  0  0  0
  152.0524  144.2881  160.6698 H   0  0  0  0  0  0  0  0  0  0  0  0
  150.6659  143.7494  158.6718 H   0  0  0  0  0  0  0  0  0  0  0  0
  146.7580  142.1348  157.3082 H   0  0  0  0  0  0  0  0  0  0  0  0
  1  2  1  0  0  0  0
  1 25  1  0  0  0  0
  1 26  1  0  0  0  0
  1 27  1  0  0  0  0
  2 24  1  0  0  0  0
  2  3  2  0  0  0  0
  3  4  1  0  0  0  0
  3 28  1  0  0  0  0
  4  5  2  0  0  0  0
  4 29  1  0  0  0  0
  5  6  1  0  0  0  0
  5 30  1  0  0  0  0
  6  7  1  0  0  0  0
  6 24  2  0  0  0  0
  7  8  1  0  0  0  0
  8  9  1  0  0  0  0
  8 31  1  0  0  0  0
  8 32  1  0  0  0  0
  9 10  1  0  0  0  0
  9 33  1  0  0  0  0
  9 34  1  0  0  0  0
 10 23  1  0  0  0  0
 10 11  1  0  0  0  0
 11 12  1  0  0  0  0
 11 17  2  0  0  0  0
 12 13  1  0  0  0  0
 12 14  1  0  0  0  0
 12 35  1  0  0  0  0
 13 36  1  0  0  0  0
 13 37  1  0  0  0  0
 13 38  1  0  0  0  0
 14 15  1  0  0  0  0
 14 39  1  0  0  0  0
 15 16  2  0  0  0  0
 15 40  1  0  0  0  0
 17 18  1  0  0  0  0
 18 23  2  0  0  0  0
 18 19  1  0  0  0  0
 19 20  2  0  0  0  0
 19 41  1  0  0  0  0
 20 21  1  0  0  0  0
 20 42  1  0  0  0  0
 21 22  2  0  0  0  0
 21 43  1  0  0  0  0
 22 23  1  0  0  0  0
 22 44  1  0  0  0  0
 24 45  1  0  0  0  0
M  END
> <s_m_source_file>
AV-unprocessed.smi

> <i_m_source_file_index>
2955

> <i_lp_mmshare_version>
43012

> <i_f3d_flags>
0

> <s_epik_input>
W0NIM11jMVtjSF1bY0hdW2NIXWMoW2NIXTEpT1tDSDJdW0NIMl1uKGMobjIpW0NASF0oW0NIM10pW05IXVtDSF09TyljKGMyMylbY0hdW2NIXVtjSF1bY0hdMw==

> <s_epik_cmdline>
J2VwaWtfcHl0aG9uJywgJy1waCcsICc3LjAnLCAnLXRuJywgJzgnLCAnLW1hJywgJzIwMCcsICctbWV0YWxfYmluZGluZycsICctaW1hZScsICc8aW5maWxlLm1hZT4nLCAnLW9tYWUnLCAnPG91dGZpbGUubWFlPic=

> <r_lp_tautomer_probability>
1

> <r_epik_Ionization_Penalty>
0.0917757

> <r_epik_Ionization_Penalty_Charging>
0

> <r_epik_Ionization_Penalty_Neutral>
0.0917757

> <r_epik_State_Penalty>
0.0820948

> <r_epik_Charging_Adjusted_Penalty>
0.0820948

> <i_epik_Tot_Q>
0

> <i_epik_Tot_abs_Q>
0

> <r_epik_Metal_State_Penalty>
0.0709956

> <b_epik_Metal_Only>
0

> <s_lp_Force_Field>
OPLS_2005

> <r_lp_Energy>
12.9149

> <b_lp_Chiralities_Consistent>
1

> <s_lp_Variant>
AV-unprocessed.smi:2955-2

> <Gold.Version>
5.8.1

> <Gold.Id.Protein>
6NUR|6NUR_protein|mol2

> <Gold.PLP.Fitness>
51.3875

> <Gold.PLP.PLP>
-46.7542

> <Gold.PLP.part.hbond>
-2.0000

> <Gold.PLP.part.metal>
0.0000

> <Gold.PLP.part.buried>
-7.0335

> <Gold.PLP.part.nonpolar>
-39.6719

> <Gold.PLP.part.repulsive>
0.3120

> <Gold.PLP.ligand.clash>
0.0000

> <Gold.PLP.ligand.torsion>
0.7197

> <Gold.PLP.Chemscore.Hbond>
2.0000

> <Gold.PLP.Chemscore.CHOScore>
0.0000

> <Gold.PLP.Chemscore.Metal>
0.0000

> <Gold.Chemscore.Hbonds>
donor molecule, donor type, donor heavy atom, donor atom, acceptor molecule, acceptor atom, score
      P1  H  7997  8009       L1    17  0.96
      P1  H 10752 10764       L1    16  0.69

> <Gold.PLP.Chemscore.Internal.Correction>
0.0727

> <Gold.Rescore>
     Score         DG    S(hbond)    S(metal)    S(lipo)     H(rot)  DE(clash)    DE(int)     intcor
     16.30     -18.44       1.43        0.00     119.34       2.26       0.31       1.83       ----

> <Gold.Chemscore.Fitness>
16.2981

> <Gold.Chemscore.DG>
-18.4381

> <Gold.Chemscore.ZeroCoef>
-5.4800

> <Gold.Chemscore.Hbond>
1.4330

> <Gold.Chemscore.Metal>
0.0000

> <Gold.Chemscore.Lipo>
119.3358

> <Gold.Chemscore.Internal_Hbond>
0.0000

> <Gold.Chemscore.DEClash>
0.3069

> <Gold.Chemscore.DEInternal>
1.8331

> <Gold.Chemscore.Rot>
2.2619

> <Gold.Chemscore.Internal.Correction>
   9.000000E+99

> <Gold.Chemscore.Hbonds>
donor molecule, donor type, donor heavy atom, donor atom, acceptor molecule, acceptor atom, score
      P1  H  7997  8009       L1    17  0.26
      P1  H 10752 10764       L1    16  0.13

> <Gold.Chemscore.Hbond.Weighted>
-4.7864

> <Gold.Chemscore.Metal.Weighted>
-0.0000

> <Gold.Chemscore.Lipo.Weighted>
-13.9623

> <Gold.Chemscore.Internal_Hbond.Weighted>
0.0000

> <Gold.Chemscore.DEClash.Weighted>
0.3069

> <Gold.Chemscore.DEInternal.Weighted>
1.8331

> <Gold.Chemscore.Rot.Weighted>
5.7906

> <Gold.Chemscore.Internal.Correction.Weighted>
   9.000000E+99

> <Gold.Protein.RotatedTorsions>
[ 6907 6896 6895 6894 ] final -159.24 input  -60.11 | X-H torsion
[ 7974 7965 7964 7962 ] final  104.78 input  175.53 | X-H torsion
[ 8008 7997 7996 7995 ] final  149.67 input   59.86 | X-H torsion
[ 10167 10162 10161 10158 ] final  -25.39 input  -65.29 | X-H torsion
[ 10718 10713 10712 10709 ] final  -36.31 input   66.30 | X-H torsion
[ 10763 10752 10751 10750 ] final  -74.78 input  -60.55 | X-H torsion
[ 11005 11000 10999 10996 ] final  -35.62 input  -57.11 | X-H torsion

> <Gold.Protein.ActiveResidues>
 VAL166  LYS551  ARG553  GLY616  TRP617  ASP618  TYR619  PRO620  LYS621  CYS622 
 ASP623  PHE694  ASN695  SER759  ASP760  ASP761  ALA762  ILE779  LEU786  VAL792 
 PHE793  MET794  SER795  GLU796  ALA797  LYS798  CYS799  TRP800  GLU811  SER814 

> <Gold.Protein.RotatedAtoms>
  151.3306  133.4002  159.2662 H   0  0  0  0  0  0  0  0  0  0  0  0  # atno 6907 bound_to 6896
  150.9959  134.9283  159.7936 H   0  0  0  0  0  0  0  0  0  0  0  0  # atno 6908 bound_to 6896
  152.5261  134.3271  159.9222 H   0  0  0  0  0  0  0  0  0  0  0  0  # atno 6909 bound_to 6896
  145.3282  139.2494  143.3675 H   0  0  0  0  0  0  0  0  0  0  0  0  # atno 7974 bound_to 7965
  156.2746  140.2095  156.5894 H   0  0  0  0  0  0  0  0  0  0  0  0  # atno 8008 bound_to 7997
  154.6994  140.0522  157.0466 H   0  0  0  0  0  0  0  0  0  0  0  0  # atno 8009 bound_to 7997
  155.0755  140.3181  155.4620 H   0  0  0  0  0  0  0  0  0  0  0  0  # atno 8010 bound_to 7997
  140.7286  143.4269  151.0862 H   0  0  0  0  0  0  0  0  0  0  0  0  # atno 10167 bound_to 10162
  156.3283  130.4275  149.7896 H   0  0  0  0  0  0  0  0  0  0  0  0  # atno 10718 bound_to 10713
  154.4777  135.5853  153.6367 H   0  0  0  0  0  0  0  0  0  0  0  0  # atno 10763 bound_to 10752
  152.9843  135.6082  154.3286 H   0  0  0  0  0  0  0  0  0  0  0  0  # atno 10764 bound_to 10752
  154.3174  135.2844  155.2515 H   0  0  0  0  0  0  0  0  0  0  0  0  # atno 10765 bound_to 10752
  140.9810  133.7056  156.1684 H   0  0  0  0  0  0  0  0  0  0  0  0  # atno 11005 bound_to 11000
  146.3056  140.3854  142.8688 LP  0  0  0  0  0  0  0  0  0  0  0  0  # atno 17320 bound_to 7965
  144.8885  140.7493  143.5942 LP  0  0  0  0  0  0  0  0  0  0  0  0  # atno 17321 bound_to 7965
  139.7922  143.8203  152.3153 LP  0  0  0  0  0  0  0  0  0  0  0  0  # atno 17342 bound_to 10162
  139.8190  144.7303  150.9597 LP  0  0  0  0  0  0  0  0  0  0  0  0  # atno 17343 bound_to 10162
  156.5178  130.8201  151.3192 LP  0  0  0  0  0  0  0  0  0  0  0  0  # atno 17370 bound_to 10713
  157.7425  130.9893  150.2524 LP  0  0  0  0  0  0  0  0  0  0  0  0  # atno 17371 bound_to 10713
  140.7186  134.4383  157.5576 LP  0  0  0  0  0  0  0  0  0  0  0  0  # atno 17394 bound_to 11000
  139.8950  134.8693  156.2150 LP  0  0  0  0  0  0  0  0  0  0  0  0  # atno 17395 bound_to 11000

$$$$
