AV-unprocessed.smi:381|AV-procd|sdf|2461|dock1
  -GOLD-   2262022403D 1   1.00000     0.00000
 Structure written by MMmdl.
 45 46  0  0  0  0  0  0  0  0  1 V2000
  149.6254  134.2906  155.8202 O   0  0  0  0  0  0  0  0  0  0  0  0
  149.4207  134.8596  154.7497 C   0  0  0  0  0  0  0  0  0  0  0  0
  148.5838  134.3876  153.8118 N   0  0  0  0  0  0  0  0  0  0  0  0
  147.8067  133.1634  153.9425 C   0  0  0  0  0  0  0  0  0  0  0  0
  147.6963  132.4455  152.5908 C   0  0  0  0  0  0  0  0  0  0  0  0
  146.4588  132.8651  151.8219 C   0  0  0  0  0  0  0  0  0  0  0  0
  145.4507  131.9294  151.5101 C   0  0  0  0  0  0  0  0  0  0  0  0
  144.3152  132.3663  150.8013 C   0  0  0  0  0  0  0  0  0  0  0  0
  144.2367  133.7240  150.4321 C   0  0  0  0  0  0  0  0  0  0  0  0
  145.1960  134.6287  150.7239 N   0  0  0  0  0  0  0  0  0  0  0  0
  146.2811  134.2018  151.4053 C   0  0  0  0  0  0  0  0  0  0  0  0
  150.0271  136.0193  154.4363 N   0  0  0  0  0  0  0  0  0  0  0  0
  150.9874  136.7980  155.2247 C   0  0  0  0  0  0  0  0  0  0  0  0
  150.4017  136.9899  156.6432 C   0  0  0  0  0  0  0  0  0  0  0  0
  151.1942  137.9057  157.5947 C   0  0  0  0  0  0  0  0  0  0  0  0
  150.7301  139.3797  157.6318 C   0  0  0  0  0  0  0  0  0  0  0  0
  151.4047  140.3139  156.6100 C   0  0  0  0  0  0  0  0  0  0  0  0
  150.6877  140.4816  155.2534 C   0  0  0  0  0  0  0  0  0  0  0  0
  150.2785  139.1939  154.5157 C   0  0  0  0  0  0  0  0  0  0  0  0
  151.3645  138.1007  154.4825 C   0  0  0  0  0  0  0  0  0  0  0  0
  148.4709  134.9176  152.9599 H   0  0  0  0  0  0  0  0  0  0  0  0
  148.2766  132.5056  154.6759 H   0  0  0  0  0  0  0  0  0  0  0  0
  146.8138  133.4118  154.3201 H   0  0  0  0  0  0  0  0  0  0  0  0
  148.5812  132.6471  151.9856 H   0  0  0  0  0  0  0  0  0  0  0  0
  147.6654  131.3653  152.7417 H   0  0  0  0  0  0  0  0  0  0  0  0
  145.5432  130.8962  151.8114 H   0  0  0  0  0  0  0  0  0  0  0  0
  143.5228  131.6778  150.5479 H   0  0  0  0  0  0  0  0  0  0  0  0
  143.3800  134.0930  149.8880 H   0  0  0  0  0  0  0  0  0  0  0  0
  147.0277  134.9506  151.6259 H   0  0  0  0  0  0  0  0  0  0  0  0
  149.7943  136.4093  153.5344 H   0  0  0  0  0  0  0  0  0  0  0  0
  151.9008  136.2125  155.3417 H   0  0  0  0  0  0  0  0  0  0  0  0
  149.3629  137.3184  156.6003 H   0  0  0  0  0  0  0  0  0  0  0  0
  150.3544  136.0012  157.1020 H   0  0  0  0  0  0  0  0  0  0  0  0
  151.0493  137.5097  158.6007 H   0  0  0  0  0  0  0  0  0  0  0  0
  152.2667  137.8294  157.4125 H   0  0  0  0  0  0  0  0  0  0  0  0
  149.6441  139.4564  157.5732 H   0  0  0  0  0  0  0  0  0  0  0  0
  150.9875  139.7617  158.6206 H   0  0  0  0  0  0  0  0  0  0  0  0
  151.4662  141.3076  157.0555 H   0  0  0  0  0  0  0  0  0  0  0  0
  152.4436  140.0179  156.4654 H   0  0  0  0  0  0  0  0  0  0  0  0
  149.7948  141.0915  155.3960 H   0  0  0  0  0  0  0  0  0  0  0  0
  151.3376  141.0657  154.6010 H   0  0  0  0  0  0  0  0  0  0  0  0
  149.3520  138.8122  154.9417 H   0  0  0  0  0  0  0  0  0  0  0  0
  150.0142  139.4580  153.4912 H   0  0  0  0  0  0  0  0  0  0  0  0
  152.3070  138.4769  154.8757 H   0  0  0  0  0  0  0  0  0  0  0  0
  151.5941  137.8693  153.4418 H   0  0  0  0  0  0  0  0  0  0  0  0
  1  2  2  0  0  0  0
  2  3  1  0  0  0  0
  2 12  1  0  0  0  0
  3  4  1  0  0  0  0
  3 21  1  0  0  0  0
  4  5  1  0  0  0  0
  4 22  1  0  0  0  0
  4 23  1  0  0  0  0
  5  6  1  0  0  0  0
  5 24  1  0  0  0  0
  5 25  1  0  0  0  0
  6 11  1  0  0  0  0
  6  7  2  0  0  0  0
  7  8  1  0  0  0  0
  7 26  1  0  0  0  0
  8  9  2  0  0  0  0
  8 27  1  0  0  0  0
  9 10  1  0  0  0  0
  9 28  1  0  0  0  0
 10 11  2  0  0  0  0
 11 29  1  0  0  0  0
 12 13  1  0  0  0  0
 12 30  1  0  0  0  0
 13 20  1  0  0  0  0
 13 14  1  0  0  0  0
 13 31  1  0  0  0  0
 14 15  1  0  0  0  0
 14 32  1  0  0  0  0
 14 33  1  0  0  0  0
 15 16  1  0  0  0  0
 15 34  1  0  0  0  0
 15 35  1  0  0  0  0
 16 17  1  0  0  0  0
 16 36  1  0  0  0  0
 16 37  1  0  0  0  0
 17 18  1  0  0  0  0
 17 38  1  0  0  0  0
 17 39  1  0  0  0  0
 18 19  1  0  0  0  0
 18 40  1  0  0  0  0
 18 41  1  0  0  0  0
 19 20  1  0  0  0  0
 19 42  1  0  0  0  0
 19 43  1  0  0  0  0
 20 44  1  0  0  0  0
 20 45  1  0  0  0  0
M  END
> <s_m_source_file>
AV-unprocessed.smi

> <i_m_source_file_index>
381

> <i_lp_mmshare_version>
43012

> <i_f3d_flags>
0

> <s_epik_input>
W0NIMl0xW0NIMl1bQ0gyXVtDSDJdW0NIMl1bQ0gyXVtDSDJdW0NIXTFbTkhdQyg9TylbTkhdW0NIMl1bQ0gyXWMyW2NIXVtjSF1bY0hdbltjSF0y

> <s_epik_cmdline>
J2VwaWtfcHl0aG9uJywgJy1waCcsICc3LjAnLCAnLXRuJywgJzgnLCAnLW1hJywgJzIwMCcsICctbWV0YWxfYmluZGluZycsICctaW1hZScsICc8aW5maWxlLm1hZT4nLCAnLW9tYWUnLCAnPG91dGZpbGUubWFlPic=

> <r_epik_Ionization_Penalty>
0.0144395

> <r_epik_Ionization_Penalty_Charging>
0

> <r_epik_Ionization_Penalty_Neutral>
0.0144395

> <r_epik_State_Penalty>
0.0112394

> <r_epik_Charging_Adjusted_Penalty>
0.0112394

> <i_epik_Tot_Q>
0

> <i_epik_Tot_abs_Q>
0

> <r_epik_Metal_State_Penalty>
0.0109727

> <b_epik_Metal_Only>
0

> <s_lp_Force_Field>
OPLS_2005

> <r_lp_Energy>
29.8357

> <b_lp_Chiralities_Consistent>
1

> <s_lp_Variant>
AV-unprocessed.smi:381-1

> <Gold.Version>
5.8.1

> <Gold.Id.Protein>
6NUR|6NUR_protein|mol2

> <Gold.PLP.Fitness>
44.9630

> <Gold.PLP.PLP>
-33.7640

> <Gold.PLP.part.hbond>
-2.6663

> <Gold.PLP.part.metal>
0.0000

> <Gold.PLP.part.buried>
-1.3953

> <Gold.PLP.part.nonpolar>
-29.4708

> <Gold.PLP.part.repulsive>
0.2879

> <Gold.PLP.ligand.clash>
0.0000

> <Gold.PLP.ligand.torsion>
0.4285

> <Gold.PLP.Chemscore.Hbond>
2.0000

> <Gold.PLP.Chemscore.CHOScore>
2.0000

> <Gold.PLP.Chemscore.Metal>
0.0000

> <Gold.Chemscore.Hbonds>
donor molecule, donor type, donor heavy atom, donor atom, acceptor molecule, acceptor atom, score
      L1  H     3    21       P1  7948  1.00
      L1  H    12    30       P1  7948  0.99
      L1  C     9    28       P1 10186  1.00
      L1  C    11    29       P1  7948  1.00

> <Gold.PLP.Chemscore.Internal.Correction>
0.0561

> <Gold.Rescore>
     Score         DG    S(hbond)    S(metal)    S(lipo)     H(rot)  DE(clash)    DE(int)     intcor
     16.46     -17.86       1.63        0.00      90.28       1.42       0.04       1.37       ----

> <Gold.Chemscore.Fitness>
16.4591

> <Gold.Chemscore.DG>
-17.8642

> <Gold.Chemscore.ZeroCoef>
-5.4800

> <Gold.Chemscore.Hbond>
1.6346

> <Gold.Chemscore.Metal>
0.0000

> <Gold.Chemscore.Lipo>
90.2843

> <Gold.Chemscore.Internal_Hbond>
0.0000

> <Gold.Chemscore.DEClash>
0.0398

> <Gold.Chemscore.DEInternal>
1.3653

> <Gold.Chemscore.Rot>
1.4213

> <Gold.Chemscore.Internal.Correction>
   9.000000E+99

> <Gold.Chemscore.Hbonds>
donor molecule, donor type, donor heavy atom, donor atom, acceptor molecule, acceptor atom, score
      L1  H     3    21       P1  7948  0.58
      L1  H    12    30       P1  7948  0.24

> <Gold.Chemscore.Hbond.Weighted>
-5.4594

> <Gold.Chemscore.Metal.Weighted>
-0.0000

> <Gold.Chemscore.Lipo.Weighted>
-10.5633

> <Gold.Chemscore.Internal_Hbond.Weighted>
0.0000

> <Gold.Chemscore.DEClash.Weighted>
0.0398

> <Gold.Chemscore.DEInternal.Weighted>
1.3653

> <Gold.Chemscore.Rot.Weighted>
3.6385

> <Gold.Chemscore.Internal.Correction.Weighted>
   9.000000E+99

> <Gold.Protein.RotatedTorsions>
[ 6907 6896 6895 6894 ] final    2.55 input  -60.11 | X-H torsion
[ 7974 7965 7964 7962 ] final -171.16 input  175.53 | X-H torsion
[ 8008 7997 7996 7995 ] final  151.91 input   59.86 | X-H torsion
[ 10167 10162 10161 10158 ] final   58.11 input  -65.29 | X-H torsion
[ 10718 10713 10712 10709 ] final  -91.43 input   66.30 | X-H torsion
[ 10763 10752 10751 10750 ] final  107.75 input  -60.55 | X-H torsion
[ 11005 11000 10999 10996 ] final  169.17 input  -57.11 | X-H torsion

> <Gold.Protein.ActiveResidues>
 VAL166  LYS551  ARG553  GLY616  TRP617  ASP618  TYR619  PRO620  LYS621  CYS622 
 ASP623  PHE694  ASN695  SER759  ASP760  ASP761  ALA762  ILE779  LEU786  VAL792 
 PHE793  MET794  SER795  GLU796  ALA797  LYS798  CYS799  TRP800  GLU811  SER814 

> <Gold.Protein.RotatedAtoms>
  151.6107  135.1040  160.0080 H   0  0  0  0  0  0  0  0  0  0  0  0  # atno 6907 bound_to 6896
  152.4210  133.7111  159.6490 H   0  0  0  0  0  0  0  0  0  0  0  0  # atno 6908 bound_to 6896
  150.8097  133.8371  159.3210 H   0  0  0  0  0  0  0  0  0  0  0  0  # atno 6909 bound_to 6896
  144.7160  140.1964  143.6343 H   0  0  0  0  0  0  0  0  0  0  0  0  # atno 7974 bound_to 7965
  156.2653  140.2035  156.6250 H   0  0  0  0  0  0  0  0  0  0  0  0  # atno 8008 bound_to 7997
  154.6727  140.0548  157.0207 H   0  0  0  0  0  0  0  0  0  0  0  0  # atno 8009 bound_to 7997
  155.1113  140.3216  155.4523 H   0  0  0  0  0  0  0  0  0  0  0  0  # atno 8010 bound_to 7997
  140.1907  144.4088  150.6572 H   0  0  0  0  0  0  0  0  0  0  0  0  # atno 10167 bound_to 10162
  155.9994  130.4947  150.5473 H   0  0  0  0  0  0  0  0  0  0  0  0  # atno 10718 bound_to 10713
  153.4111  135.3834  155.2051 H   0  0  0  0  0  0  0  0  0  0  0  0  # atno 10763 bound_to 10752
  154.8738  135.3794  154.4500 H   0  0  0  0  0  0  0  0  0  0  0  0  # atno 10764 bound_to 10752
  153.5008  135.7088  153.5895 H   0  0  0  0  0  0  0  0  0  0  0  0  # atno 10765 bound_to 10752
  140.2949  134.7643  157.3869 H   0  0  0  0  0  0  0  0  0  0  0  0  # atno 11005 bound_to 11000
  145.8720  139.2277  143.1655 LP  0  0  0  0  0  0  0  0  0  0  0  0  # atno 17320 bound_to 7965
  146.0075  140.8465  142.9987 LP  0  0  0  0  0  0  0  0  0  0  0  0  # atno 17321 bound_to 7965
  140.6457  143.2213  151.6190 LP  0  0  0  0  0  0  0  0  0  0  0  0  # atno 17342 bound_to 10162
  139.5257  144.3067  152.1027 LP  0  0  0  0  0  0  0  0  0  0  0  0  # atno 17343 bound_to 10162
  157.3401  131.0715  151.1795 LP  0  0  0  0  0  0  0  0  0  0  0  0  # atno 17370 bound_to 10713
  157.2646  130.6675  149.5990 LP  0  0  0  0  0  0  0  0  0  0  0  0  # atno 17371 bound_to 10713
  140.1161  134.5281  155.8223 LP  0  0  0  0  0  0  0  0  0  0  0  0  # atno 17394 bound_to 11000
  141.2139  133.6740  156.6780 LP  0  0  0  0  0  0  0  0  0  0  0  0  # atno 17395 bound_to 11000

$$$$
