AV-unprocessed.smi:1734|AV-procd|sdf|6982|dock10
  -GOLD-   22720 8193D 1   1.00000     0.00000
 Structure written by MMmdl.
 50 52  0  0  0  0  0  0  0  0  1 V2000
  145.9752  134.2563  150.9202 C   0  0  0  0  0  0  0  0  0  0  0  0
  146.1015  132.8716  151.5344 C   0  0  0  0  0  0  0  0  0  0  0  0
  145.2805  131.8275  151.0578 C   0  0  0  0  0  0  0  0  0  0  0  0
  145.3991  130.5479  151.6264 C   0  0  0  0  0  0  0  0  0  0  0  0
  146.3405  130.3650  152.6537 C   0  0  0  0  0  0  0  0  0  0  0  0
  147.1282  131.3571  153.1159 N   0  0  0  0  0  0  0  0  0  0  0  0
  147.0255  132.5988  152.5787 C   0  0  0  0  0  0  0  0  0  0  0  0
  147.8147  133.6956  153.0259 N   0  0  0  0  0  0  0  0  0  0  0  0
  148.3656  133.8910  154.2368 C   0  0  0  0  0  0  0  0  0  0  0  0
  148.3431  133.0888  155.1707 O   0  0  0  0  0  0  0  0  0  0  0  0
  148.9514  135.0945  154.3118 N   0  0  0  0  0  0  0  0  0  0  0  0
  149.5992  135.6368  155.5006 C   0  0  0  0  0  0  0  0  0  0  0  0
  148.9180  136.9244  156.0545 C   0  0  2  0  0  0  0  0  0  0  0  0
  149.8078  138.1906  155.8813 C   0  0  1  0  0  0  0  0  0  0  0  0
  151.2783  138.0277  156.2446 C   0  0  0  0  0  0  0  0  0  0  0  0
  151.9850  139.1168  155.4357 C   0  0  0  0  0  0  0  0  0  0  0  0
  151.0570  139.5444  154.4460 O   0  0  0  0  0  0  0  0  0  0  0  0
  149.9523  138.6544  154.4291 C   0  0  0  0  0  0  0  0  0  0  0  0
  148.4386  136.7805  157.4406 N   0  0  0  0  0  0  0  0  0  0  0  0
  147.2869  137.6130  157.7844 C   0  0  0  0  0  0  0  0  0  0  0  0
  146.7767  137.3102  159.2039 C   0  0  0  0  0  0  0  0  0  0  0  0
  147.8376  137.4698  160.1411 O   0  0  0  0  0  0  0  0  0  0  0  0
  148.9537  136.6301  159.8608 C   0  0  0  0  0  0  0  0  0  0  0  0
  149.4843  136.9327  158.4491 C   0  0  0  0  0  0  0  0  0  0  0  0
  145.2333  134.2705  150.1212 H   0  0  0  0  0  0  0  0  0  0  0  0
  146.9282  134.5742  150.4963 H   0  0  0  0  0  0  0  0  0  0  0  0
  145.6706  134.9825  151.6743 H   0  0  0  0  0  0  0  0  0  0  0  0
  144.5666  132.0020  150.2662 H   0  0  0  0  0  0  0  0  0  0  0  0
  144.7849  129.7283  151.2838 H   0  0  0  0  0  0  0  0  0  0  0  0
  146.4645  129.3977  153.1177 H   0  0  0  0  0  0  0  0  0  0  0  0
  147.9453  134.4350  152.3517 H   0  0  0  0  0  0  0  0  0  0  0  0
  148.9276  135.6890  153.4963 H   0  0  0  0  0  0  0  0  0  0  0  0
  149.6302  134.8439  156.2472 H   0  0  0  0  0  0  0  0  0  0  0  0
  150.6379  135.8455  155.2433 H   0  0  0  0  0  0  0  0  0  0  0  0
  148.0301  137.1040  155.4471 H   0  0  0  0  0  0  0  0  0  0  0  0
  149.4011  139.0155  156.4678 H   0  0  0  0  0  0  0  0  0  0  0  0
  151.4681  138.1309  157.3130 H   0  0  0  0  0  0  0  0  0  0  0  0
  151.6402  137.0477  155.9298 H   0  0  0  0  0  0  0  0  0  0  0  0
  152.2511  139.9678  156.0631 H   0  0  0  0  0  0  0  0  0  0  0  0
  152.8970  138.7392  154.9720 H   0  0  0  0  0  0  0  0  0  0  0  0
  150.1810  137.8132  153.7724 H   0  0  0  0  0  0  0  0  0  0  0  0
  149.0585  139.1502  154.0498 H   0  0  0  0  0  0  0  0  0  0  0  0
  147.5561  138.6679  157.7242 H   0  0  0  0  0  0  0  0  0  0  0  0
  146.4750  137.4535  157.0757 H   0  0  0  0  0  0  0  0  0  0  0  0
  145.9633  137.9864  159.4667 H   0  0  0  0  0  0  0  0  0  0  0  0
  146.3812  136.2949  159.2622 H   0  0  0  0  0  0  0  0  0  0  0  0
  149.7305  136.8089  160.6043 H   0  0  0  0  0  0  0  0  0  0  0  0
  148.6609  135.5827  159.9483 H   0  0  0  0  0  0  0  0  0  0  0  0
  150.3175  136.2659  158.2251 H   0  0  0  0  0  0  0  0  0  0  0  0
  149.8819  137.9468  158.4392 H   0  0  0  0  0  0  0  0  0  0  0  0
  1  2  1  0  0  0  0
  1 25  1  0  0  0  0
  1 26  1  0  0  0  0
  1 27  1  0  0  0  0
  2  7  1  0  0  0  0
  2  3  2  0  0  0  0
  3  4  1  0  0  0  0
  3 28  1  0  0  0  0
  4  5  2  0  0  0  0
  4 29  1  0  0  0  0
  5  6  1  0  0  0  0
  5 30  1  0  0  0  0
  6  7  2  0  0  0  0
  7  8  1  0  0  0  0
  8  9  1  0  0  0  0
  8 31  1  0  0  0  0
  9 10  2  0  0  0  0
  9 11  1  0  0  0  0
 11 12  1  0  0  0  0
 11 32  1  0  0  0  0
 12 13  1  0  0  0  0
 12 33  1  0  0  0  0
 12 34  1  0  0  0  0
 13 14  1  0  0  0  0
 13 19  1  0  0  0  0
 13 35  1  0  0  0  0
 14 18  1  0  0  0  0
 14 15  1  0  0  0  0
 14 36  1  0  0  0  0
 15 16  1  0  0  0  0
 15 37  1  0  0  0  0
 15 38  1  0  0  0  0
 16 17  1  0  0  0  0
 16 39  1  0  0  0  0
 16 40  1  0  0  0  0
 17 18  1  0  0  0  0
 18 41  1  0  0  0  0
 18 42  1  0  0  0  0
 19 24  1  0  0  0  0
 19 20  1  0  0  0  0
 20 21  1  0  0  0  0
 20 43  1  0  0  0  0
 20 44  1  0  0  0  0
 21 22  1  0  0  0  0
 21 45  1  0  0  0  0
 21 46  1  0  0  0  0
 22 23  1  0  0  0  0
 23 24  1  0  0  0  0
 23 47  1  0  0  0  0
 23 48  1  0  0  0  0
 24 49  1  0  0  0  0
 24 50  1  0  0  0  0
M  END
> <s_m_source_file>
AV-unprocessed.smi

> <i_m_source_file_index>
1734

> <i_lp_mmshare_version>
43012

> <i_f3d_flags>
0

> <s_epik_input>
W0NIM11jMVtjSF1bY0hdW2NIXW5jMVtOSF1DKD1PKVtOSF1bQ0gyXVtDQEhdKFtDQEBIXTJbQ0gyXVtDSDJdT1tDSDJdMilOM1tDSDJdW0NIMl1PW0NIMl1bQ0gyXTM=

> <s_epik_cmdline>
J2VwaWtfcHl0aG9uJywgJy1waCcsICc3LjAnLCAnLXRuJywgJzgnLCAnLW1hJywgJzIwMCcsICctbWV0YWxfYmluZGluZycsICctaW1hZScsICc8aW5maWxlLm1hZT4nLCAnLW9tYWUnLCAnPG91dGZpbGUubWFlPic=

> <r_epik_Ionization_Penalty>
0.125073

> <r_epik_Ionization_Penalty_Charging>
0

> <r_epik_Ionization_Penalty_Neutral>
0.125073

> <r_epik_State_Penalty>
0.114484

> <r_epik_Charging_Adjusted_Penalty>
0.114484

> <i_epik_Tot_Q>
0

> <i_epik_Tot_abs_Q>
0

> <r_epik_Metal_State_Penalty>
0.114483

> <b_epik_Metal_Only>
0

> <s_lp_Force_Field>
OPLS_2005

> <r_lp_Energy>
51.317

> <b_lp_Chiralities_Consistent>
1

> <s_lp_Variant>
AV-unprocessed.smi:1734-3

> <Gold.Version>
5.8.1

> <Gold.Id.Protein>
6NUR|6NUR_protein|mol2

> <Gold.PLP.Fitness>
43.0798

> <Gold.PLP.PLP>
-34.6383

> <Gold.PLP.part.hbond>
-4.7724

> <Gold.PLP.part.metal>
0.0000

> <Gold.PLP.part.buried>
-5.7431

> <Gold.PLP.part.nonpolar>
-24.5322

> <Gold.PLP.part.repulsive>
0.2486

> <Gold.PLP.ligand.clash>
0.0000

> <Gold.PLP.ligand.torsion>
1.5926

> <Gold.PLP.Chemscore.Hbond>
3.7881

> <Gold.PLP.Chemscore.CHOScore>
0.0000

> <Gold.PLP.Chemscore.Metal>
0.0000

> <Gold.Chemscore.Hbonds>
donor molecule, donor type, donor heavy atom, donor atom, acceptor molecule, acceptor atom, score
      L1  H     8    31       P1  7948  0.86
      L1  H    11    32       P1  7948  1.00
      P1  H  6931  6943       L1    22  0.08
      P1  H  6934  6947       L1    22  0.60
      P1  H  7989  7998       L1    17  1.00

> <Gold.PLP.Chemscore.Internal.Correction>
0.2625

> <Gold.Rescore>
     Score         DG    S(hbond)    S(metal)    S(lipo)     H(rot)  DE(clash)    DE(int)     intcor
     17.88     -20.77       3.43        0.00      68.87       1.65       0.00       2.89       ----

> <Gold.Chemscore.Fitness>
17.8823

> <Gold.Chemscore.DG>
-20.7737

> <Gold.Chemscore.ZeroCoef>
-5.4800

> <Gold.Chemscore.Hbond>
3.4296

> <Gold.Chemscore.Metal>
0.0000

> <Gold.Chemscore.Lipo>
68.8702

> <Gold.Chemscore.Internal_Hbond>
0.0000

> <Gold.Chemscore.DEClash>
0.0021

> <Gold.Chemscore.DEInternal>
2.8892

> <Gold.Chemscore.Rot>
1.6480

> <Gold.Chemscore.Internal.Correction>
   9.000000E+99

> <Gold.Chemscore.Hbonds>
donor molecule, donor type, donor heavy atom, donor atom, acceptor molecule, acceptor atom, score
      L1  H     8    31       P1  7948  0.28
      L1  H    11    32       P1  7948  0.90
      P1  H  6934  6947       L1    22  0.09
      P1  H  7989  7998       L1    17  0.85

> <Gold.Chemscore.Hbond.Weighted>
-11.4547

> <Gold.Chemscore.Metal.Weighted>
-0.0000

> <Gold.Chemscore.Lipo.Weighted>
-8.0578

> <Gold.Chemscore.Internal_Hbond.Weighted>
0.0000

> <Gold.Chemscore.DEClash.Weighted>
0.0021

> <Gold.Chemscore.DEInternal.Weighted>
2.8892

> <Gold.Chemscore.Rot.Weighted>
4.2188

> <Gold.Chemscore.Internal.Correction.Weighted>
   9.000000E+99

> <Gold.Protein.RotatedTorsions>
[ 6907 6896 6895 6894 ] final -146.61 input  -60.11 | X-H torsion
[ 7974 7965 7964 7962 ] final    3.31 input  175.53 | X-H torsion
[ 8008 7997 7996 7995 ] final   43.30 input   59.86 | X-H torsion
[ 10167 10162 10161 10158 ] final    3.76 input  -65.29 | X-H torsion
[ 10718 10713 10712 10709 ] final  -42.11 input   66.30 | X-H torsion
[ 10763 10752 10751 10750 ] final  -19.19 input  -60.55 | X-H torsion
[ 11005 11000 10999 10996 ] final  -77.18 input  -57.11 | X-H torsion

> <Gold.Protein.ActiveResidues>
 VAL166  LYS551  ARG553  GLY616  TRP617  ASP618  TYR619  PRO620  LYS621  CYS622 
 ASP623  PHE694  ASN695  SER759  ASP760  ASP761  ALA762  ILE779  LEU786  VAL792 
 PHE793  MET794  SER795  GLU796  ALA797  LYS798  CYS799  TRP800  GLU811  SER814 

> <Gold.Protein.RotatedAtoms>
  151.1441  133.4951  159.2596 H   0  0  0  0  0  0  0  0  0  0  0  0  # atno 6907 bound_to 6896
  151.1623  135.0279  159.8726 H   0  0  0  0  0  0  0  0  0  0  0  0  # atno 6908 bound_to 6896
  152.5463  134.1314  159.8494 H   0  0  0  0  0  0  0  0  0  0  0  0  # atno 6909 bound_to 6896
  146.2445  140.0704  142.8363 H   0  0  0  0  0  0  0  0  0  0  0  0  # atno 7974 bound_to 7965
  155.3005  140.3384  155.4248 H   0  0  0  0  0  0  0  0  0  0  0  0  # atno 8008 bound_to 7997
  156.2003  140.1730  156.7951 H   0  0  0  0  0  0  0  0  0  0  0  0  # atno 8009 bound_to 7997
  154.5551  140.0698  156.8714 H   0  0  0  0  0  0  0  0  0  0  0  0  # atno 8010 bound_to 7997
  140.6569  143.7403  150.7670 H   0  0  0  0  0  0  0  0  0  0  0  0  # atno 10167 bound_to 10162
  156.2631  130.4199  149.8520 H   0  0  0  0  0  0  0  0  0  0  0  0  # atno 10718 bound_to 10713
  153.6009  135.6999  153.5384 H   0  0  0  0  0  0  0  0  0  0  0  0  # atno 10763 bound_to 10752
  153.3097  135.4104  155.1325 H   0  0  0  0  0  0  0  0  0  0  0  0  # atno 10764 bound_to 10752
  154.8582  135.3669  154.5545 H   0  0  0  0  0  0  0  0  0  0  0  0  # atno 10765 bound_to 10752
  141.1659  133.7012  156.7781 H   0  0  0  0  0  0  0  0  0  0  0  0  # atno 11005 bound_to 11000
  145.0821  140.9228  143.4819 LP  0  0  0  0  0  0  0  0  0  0  0  0  # atno 17320 bound_to 7965
  145.0859  139.2925  143.5760 LP  0  0  0  0  0  0  0  0  0  0  0  0  # atno 17321 bound_to 7965
  140.1065  143.4739  152.2395 LP  0  0  0  0  0  0  0  0  0  0  0  0  # atno 17342 bound_to 10162
  139.5794  144.7503  151.3679 LP  0  0  0  0  0  0  0  0  0  0  0  0  # atno 17343 bound_to 10162
  156.6028  130.8554  151.3436 LP  0  0  0  0  0  0  0  0  0  0  0  0  # atno 17370 bound_to 10713
  157.7258  130.9620  150.1628 LP  0  0  0  0  0  0  0  0  0  0  0  0  # atno 17371 bound_to 10713
  140.2415  134.8610  157.3578 LP  0  0  0  0  0  0  0  0  0  0  0  0  # atno 17394 bound_to 11000
  140.1792  134.4511  155.7783 LP  0  0  0  0  0  0  0  0  0  0  0  0  # atno 17395 bound_to 11000

$$$$
