AV-unprocessed.smi:2195|AV-procd|sdf|8907|dock6
  -GOLD-   2272012123D 1   1.00000     0.00000
 Structure written by MMmdl.
 40 42  0  0  0  0  0  0  0  0  2 V2000
  153.5206  143.3211  164.0898 C   0  0  0  0  0  0  0  0  0  0  0  0
  153.2477  142.7313  162.7214 C   0  0  0  0  0  0  0  0  0  0  0  0
  153.9014  141.5525  162.3119 C   0  0  0  0  0  0  0  0  0  0  0  0
  153.6427  141.0073  161.0395 C   0  0  0  0  0  0  0  0  0  0  0  0
  152.7291  141.6243  160.1605 C   0  0  0  0  0  0  0  0  0  0  0  0
  152.5349  141.0221  158.9357 O   0  0  0  0  0  0  0  0  0  0  0  0
  152.1015  141.8304  157.8496 C   0  0  0  0  0  0  0  0  0  0  0  0
  151.6164  140.9209  156.7106 C   0  0  1  0  0  0  0  0  0  0  0  0
  152.4158  139.7546  156.7004 O   0  0  0  0  0  0  0  0  0  0  0  0
  150.1278  140.5444  156.8520 C   0  0  0  0  0  0  0  0  0  0  0  0
  149.3959  140.6220  155.5795 N   0  0  0  0  0  0  0  0  0  0  0  0
  149.7524  140.1732  154.3455 C   0  0  0  0  0  0  0  0  0  0  0  0
  148.7412  140.4810  153.4869 N   0  3  0  0  0  0  0  0  0  0  0  0
  147.7224  141.1360  154.1821 C   0  0  0  0  0  0  0  0  0  0  0  0
  146.5009  141.6400  153.7458 C   0  0  0  0  0  0  0  0  0  0  0  0
  145.6856  142.2541  154.7193 C   0  0  0  0  0  0  0  0  0  0  0  0
  146.0932  142.3475  156.0658 C   0  0  0  0  0  0  0  0  0  0  0  0
  147.3341  141.8337  156.4966 C   0  0  0  0  0  0  0  0  0  0  0  0
  148.1357  141.2301  155.5281 C   0  0  0  0  0  0  0  0  0  0  0  0
  152.0722  142.8086  160.5804 C   0  0  0  0  0  0  0  0  0  0  0  0
  152.3317  143.3560  161.8521 C   0  0  0  0  0  0  0  0  0  0  0  0
  154.4988  143.0141  164.4614 H   0  0  0  0  0  0  0  0  0  0  0  0
  152.7635  142.9879  164.8000 H   0  0  0  0  0  0  0  0  0  0  0  0
  153.5011  144.4107  164.0519 H   0  0  0  0  0  0  0  0  0  0  0  0
  154.6030  141.0622  162.9708 H   0  0  0  0  0  0  0  0  0  0  0  0
  154.1514  140.1045  160.7353 H   0  0  0  0  0  0  0  0  0  0  0  0
  151.2819  142.4704  158.1814 H   0  0  0  0  0  0  0  0  0  0  0  0
  152.9110  142.4721  157.4972 H   0  0  0  0  0  0  0  0  0  0  0  0
  151.7726  141.4301  155.7586 H   0  0  0  0  0  0  0  0  0  0  0  0
  152.1533  139.2049  157.4233 H   0  0  0  0  0  0  0  0  0  0  0  0
  150.0080  139.5478  157.2776 H   0  0  0  0  0  0  0  0  0  0  0  0
  149.6356  141.2296  157.5431 H   0  0  0  0  0  0  0  0  0  0  0  0
  150.6718  139.6647  154.0931 H   0  0  0  0  0  0  0  0  0  0  0  0
  146.1850  141.5678  152.7154 H   0  0  0  0  0  0  0  0  0  0  0  0
  144.7279  142.6604  154.4280 H   0  0  0  0  0  0  0  0  0  0  0  0
  145.4403  142.8217  156.7841 H   0  0  0  0  0  0  0  0  0  0  0  0
  147.6335  141.9052  157.5317 H   0  0  0  0  0  0  0  0  0  0  0  0
  151.3626  143.3175  159.9461 H   0  0  0  0  0  0  0  0  0  0  0  0
  151.8235  144.2586  162.1579 H   0  0  0  0  0  0  0  0  0  0  0  0
  148.7481  140.2586  152.4996 H   0  0  0  0  0  0  0  0  0  0  0  0
  1  2  1  0  0  0  0
  1 22  1  0  0  0  0
  1 23  1  0  0  0  0
  1 24  1  0  0  0  0
  2 21  1  0  0  0  0
  2  3  2  0  0  0  0
  3  4  1  0  0  0  0
  3 25  1  0  0  0  0
  4  5  2  0  0  0  0
  4 26  1  0  0  0  0
  5  6  1  0  0  0  0
  5 20  1  0  0  0  0
  6  7  1  0  0  0  0
  7  8  1  0  0  0  0
  7 27  1  0  0  0  0
  7 28  1  0  0  0  0
  8  9  1  0  0  0  0
  8 10  1  0  0  0  0
  8 29  1  0  0  0  0
  9 30  1  0  0  0  0
 10 11  1  0  0  0  0
 10 31  1  0  0  0  0
 10 32  1  0  0  0  0
 11 19  1  0  0  0  0
 11 12  1  0  0  0  0
 12 13  2  0  0  0  0
 12 33  1  0  0  0  0
 13 14  1  0  0  0  0
 13 40  1  0  0  0  0
 14 19  2  0  0  0  0
 14 15  1  0  0  0  0
 15 16  2  0  0  0  0
 15 34  1  0  0  0  0
 16 17  1  0  0  0  0
 16 35  1  0  0  0  0
 17 18  2  0  0  0  0
 17 36  1  0  0  0  0
 18 19  1  0  0  0  0
 18 37  1  0  0  0  0
 20 21  2  0  0  0  0
 20 38  1  0  0  0  0
 21 39  1  0  0  0  0
M  CHG  1  13   1
M  END
> <s_m_source_file>
AV-unprocessed.smi

> <i_m_source_file_index>
2195

> <i_lp_mmshare_version>
43012

> <i_f3d_flags>
0

> <s_epik_input>
W0NIM11jMVtjSF1bY0hdYyhbY0hdW2NIXTEpT1tDSDJdW0NASF0oW09IXSlbQ0gyXW4oW2NIXW4yKWMoYzIzKVtjSF1bY0hdW2NIXVtjSF0z

> <s_epik_cmdline>
J2VwaWtfcHl0aG9uJywgJy1waCcsICc3LjAnLCAnLXRuJywgJzgnLCAnLW1hJywgJzIwMCcsICctbWV0YWxfYmluZGluZycsICctaW1hZScsICc8aW5maWxlLm1hZT4nLCAnLW9tYWUnLCAnPG91dGZpbGUubWFlPic=

> <r_lp_tautomer_probability>
1

> <r_epik_Ionization_Penalty>
1.3774

> <r_epik_Ionization_Penalty_Charging>
1.37739

> <r_epik_Ionization_Penalty_Neutral>
2.3993e-06

> <r_epik_State_Penalty>
1.45762

> <r_epik_Charging_Adjusted_Penalty>
2.83501

> <i_epik_Tot_Q>
1

> <i_epik_Tot_abs_Q>
1

> <r_epik_Metal_State_Penalty>
5.49752

> <b_epik_Metal_Only>
0

> <s_lp_Force_Field>
OPLS_2005

> <r_lp_Energy>
19.9339

> <b_lp_Chiralities_Consistent>
1

> <s_lp_Variant>
AV-unprocessed.smi:2195-4

> <Gold.Version>
5.8.1

> <Gold.Id.Protein>
6NUR|6NUR_protein|mol2

> <Gold.PLP.Fitness>
48.5962

> <Gold.PLP.PLP>
-45.7671

> <Gold.PLP.part.hbond>
-2.0000

> <Gold.PLP.part.metal>
0.0000

> <Gold.PLP.part.buried>
-4.0541

> <Gold.PLP.part.nonpolar>
-38.5396

> <Gold.PLP.part.repulsive>
0.1653

> <Gold.PLP.ligand.clash>
0.0000

> <Gold.PLP.ligand.torsion>
1.5140

> <Gold.PLP.Chemscore.Hbond>
1.9280

> <Gold.PLP.Chemscore.CHOScore>
0.0000

> <Gold.PLP.Chemscore.Metal>
0.0000

> <Gold.Chemscore.Hbonds>
donor molecule, donor type, donor heavy atom, donor atom, acceptor molecule, acceptor atom, score
      L1  H    13    40       P1  7957  0.98
      P1  H  7997  8009       L1     9  1.00

> <Gold.PLP.Chemscore.Internal.Correction>
0.0731

> <Gold.Rescore>
     Score         DG    S(hbond)    S(metal)    S(lipo)     H(rot)  DE(clash)    DE(int)     intcor
     18.41     -20.17       1.77        0.00     124.71       2.27       0.49       1.28       ----

> <Gold.Chemscore.Fitness>
18.4129

> <Gold.Chemscore.DG>
-20.1745

> <Gold.Chemscore.ZeroCoef>
-5.4800

> <Gold.Chemscore.Hbond>
1.7727

> <Gold.Chemscore.Metal>
0.0000

> <Gold.Chemscore.Lipo>
124.7083

> <Gold.Chemscore.Internal_Hbond>
0.0000

> <Gold.Chemscore.DEClash>
0.4863

> <Gold.Chemscore.DEInternal>
1.2753

> <Gold.Chemscore.Rot>
2.2723

> <Gold.Chemscore.Internal.Correction>
   9.000000E+99

> <Gold.Chemscore.Hbonds>
donor molecule, donor type, donor heavy atom, donor atom, acceptor molecule, acceptor atom, score
      L1  H    13    40       P1  7957  0.92
      P1  H  7997  8009       L1     9  0.84

> <Gold.Chemscore.Hbond.Weighted>
-5.9207

> <Gold.Chemscore.Metal.Weighted>
-0.0000

> <Gold.Chemscore.Lipo.Weighted>
-14.5909

> <Gold.Chemscore.Internal_Hbond.Weighted>
0.0000

> <Gold.Chemscore.DEClash.Weighted>
0.4863

> <Gold.Chemscore.DEInternal.Weighted>
1.2753

> <Gold.Chemscore.Rot.Weighted>
5.8170

> <Gold.Chemscore.Internal.Correction.Weighted>
   9.000000E+99

> <Gold.Protein.RotatedTorsions>
[ 6907 6896 6895 6894 ] final  -33.44 input  -60.11 | X-H torsion
[ 7974 7965 7964 7962 ] final -102.10 input  175.53 | X-H torsion
[ 8008 7997 7996 7995 ] final -168.19 input   59.86 | X-H torsion
[ 10167 10162 10161 10158 ] final -165.52 input  -65.29 | X-H torsion
[ 10718 10713 10712 10709 ] final   28.64 input   66.30 | X-H torsion
[ 10763 10752 10751 10750 ] final  146.04 input  -60.55 | X-H torsion
[ 11005 11000 10999 10996 ] final   31.52 input  -57.11 | X-H torsion

> <Gold.Protein.ActiveResidues>
 VAL166  LYS551  ARG553  GLY616  TRP617  ASP618  TYR619  PRO620  LYS621  CYS622 
 ASP623  PHE694  ASN695  SER759  ASP760  ASP761  ALA762  ILE779  LEU786  VAL792 
 PHE793  MET794  SER795  GLU796  ALA797  LYS798  CYS799  TRP800  GLU811  SER814 

> <Gold.Protein.RotatedAtoms>
  151.0656  134.9765  159.8282 H   0  0  0  0  0  0  0  0  0  0  0  0  # atno 6907 bound_to 6896
  152.5401  134.2363  159.8855 H   0  0  0  0  0  0  0  0  0  0  0  0  # atno 6908 bound_to 6896
  151.2385  133.4369  159.2640 H   0  0  0  0  0  0  0  0  0  0  0  0  # atno 6909 bound_to 6896
  145.2731  140.9304  143.2975 H   0  0  0  0  0  0  0  0  0  0  0  0  # atno 7974 bound_to 7965
  155.8880  140.1020  157.1439 H   0  0  0  0  0  0  0  0  0  0  0  0  # atno 8008 bound_to 7997
  154.4012  140.1316  156.4343 H   0  0  0  0  0  0  0  0  0  0  0  0  # atno 8009 bound_to 7997
  155.7567  140.3464  155.5179 H   0  0  0  0  0  0  0  0  0  0  0  0  # atno 8010 bound_to 7997
  139.6176  144.0688  152.1903 H   0  0  0  0  0  0  0  0  0  0  0  0  # atno 10167 bound_to 10162
  157.2361  130.7047  149.6336 H   0  0  0  0  0  0  0  0  0  0  0  0  # atno 10718 bound_to 10713
  154.0153  135.2911  155.3387 H   0  0  0  0  0  0  0  0  0  0  0  0  # atno 10763 bound_to 10752
  154.7078  135.5162  153.8625 H   0  0  0  0  0  0  0  0  0  0  0  0  # atno 10764 bound_to 10752
  153.0705  135.6646  154.0381 H   0  0  0  0  0  0  0  0  0  0  0  0  # atno 10765 bound_to 10752
  140.2831  134.2950  155.7795 H   0  0  0  0  0  0  0  0  0  0  0  0  # atno 11005 bound_to 11000
  144.9318  139.4290  143.6491 LP  0  0  0  0  0  0  0  0  0  0  0  0  # atno 17320 bound_to 7965
  146.3240  139.8233  142.8922 LP  0  0  0  0  0  0  0  0  0  0  0  0  # atno 17321 bound_to 7965
  140.0322  144.6072  150.7479 LP  0  0  0  0  0  0  0  0  0  0  0  0  # atno 17342 bound_to 10162
  140.7361  143.2749  151.3772 LP  0  0  0  0  0  0  0  0  0  0  0  0  # atno 17343 bound_to 10162
  155.9672  130.4473  150.5575 LP  0  0  0  0  0  0  0  0  0  0  0  0  # atno 17370 bound_to 10713
  157.3427  131.0719  151.1775 LP  0  0  0  0  0  0  0  0  0  0  0  0  # atno 17371 bound_to 10713
  141.2159  133.7538  156.9510 LP  0  0  0  0  0  0  0  0  0  0  0  0  # atno 17394 bound_to 11000
  140.1265  134.9383  157.2277 LP  0  0  0  0  0  0  0  0  0  0  0  0  # atno 17395 bound_to 11000

$$$$
