AV-unprocessed.smi:1222|AV-procd|sdf|5122|dock5
  -GOLD-   22720 4183D 1   1.00000     0.00000
 Structure written by MMmdl.
 36 38  0  0  0  0  0  0  0  0  1 V2000
  146.7753  137.2251  153.0872 O   0  0  0  0  0  0  0  0  0  0  0  0
  145.9174  138.0780  152.8562 C   0  0  0  0  0  0  0  0  0  0  0  0
  146.0565  139.3982  153.0684 N   0  0  0  0  0  0  0  0  0  0  0  0
  147.1826  140.0901  153.5865 C   0  0  0  0  0  0  0  0  0  0  0  0
  148.3581  139.5156  153.8671 N   0  0  0  0  0  0  0  0  0  0  0  0
  149.2858  140.4350  154.3631 C   0  0  0  0  0  0  0  0  0  0  0  0
  148.7958  141.7142  154.4548 C   0  0  0  0  0  0  0  0  0  0  0  0
  147.1402  141.8155  153.9181 S   0  0  0  0  0  0  0  0  0  0  0  0
  144.7086  137.7933  152.3502 N   0  0  0  0  0  0  0  0  0  0  0  0
  144.2369  136.4562  152.0025 C   0  0  0  0  0  0  0  0  0  0  0  0
  144.3550  135.4997  153.2026 C   0  0  0  0  0  0  0  0  0  0  0  0
  144.0038  134.0585  152.7957 C   0  0  0  0  0  0  0  0  0  0  0  0
  144.8855  133.6091  151.7184 N   0  0  0  0  0  0  0  0  0  0  0  0
  144.5626  132.2298  151.3918 C   0  0  0  0  0  0  0  0  0  0  0  0
  145.3876  131.1449  152.0459 C   0  0  0  0  0  0  0  0  0  0  0  0
  145.5704  131.4496  150.5788 C   0  0  0  0  0  0  0  0  0  0  0  0
  144.6800  134.4385  150.5307 C   0  0  0  0  0  0  0  0  0  0  0  0
  145.0605  135.8992  150.8303 C   0  0  0  0  0  0  0  0  0  0  0  0
  145.2644  139.9764  152.8303 H   0  0  0  0  0  0  0  0  0  0  0  0
  150.2752  140.0916  154.6270 H   0  0  0  0  0  0  0  0  0  0  0  0
  149.3067  142.5990  154.8041 H   0  0  0  0  0  0  0  0  0  0  0  0
  144.0666  138.5561  152.1927 H   0  0  0  0  0  0  0  0  0  0  0  0
  143.1916  136.5124  151.6921 H   0  0  0  0  0  0  0  0  0  0  0  0
  145.3697  135.5251  153.6032 H   0  0  0  0  0  0  0  0  0  0  0  0
  143.6960  135.8221  154.0094 H   0  0  0  0  0  0  0  0  0  0  0  0
  144.1179  133.4011  153.6584 H   0  0  0  0  0  0  0  0  0  0  0  0
  142.9604  133.9960  152.4815 H   0  0  0  0  0  0  0  0  0  0  0  0
  143.5205  131.9708  151.2118 H   0  0  0  0  0  0  0  0  0  0  0  0
  146.1831  131.4481  152.7244 H   0  0  0  0  0  0  0  0  0  0  0  0
  144.8793  130.2194  152.3086 H   0  0  0  0  0  0  0  0  0  0  0  0
  145.1855  130.7255  149.8638 H   0  0  0  0  0  0  0  0  0  0  0  0
  146.4881  131.9546  150.2828 H   0  0  0  0  0  0  0  0  0  0  0  0
  145.2965  134.0632  149.7133 H   0  0  0  0  0  0  0  0  0  0  0  0
  143.6410  134.3772  150.2024 H   0  0  0  0  0  0  0  0  0  0  0  0
  144.9049  136.5099  149.9403 H   0  0  0  0  0  0  0  0  0  0  0  0
  146.1257  135.9535  151.0606 H   0  0  0  0  0  0  0  0  0  0  0  0
  1  2  2  0  0  0  0
  2  3  1  0  0  0  0
  2  9  1  0  0  0  0
  3  4  1  0  0  0  0
  3 19  1  0  0  0  0
  4  8  1  0  0  0  0
  4  5  2  0  0  0  0
  5  6  1  0  0  0  0
  6  7  2  0  0  0  0
  6 20  1  0  0  0  0
  7  8  1  0  0  0  0
  7 21  1  0  0  0  0
  9 10  1  0  0  0  0
  9 22  1  0  0  0  0
 10 18  1  0  0  0  0
 10 11  1  0  0  0  0
 10 23  1  0  0  0  0
 11 12  1  0  0  0  0
 11 24  1  0  0  0  0
 11 25  1  0  0  0  0
 12 13  1  0  0  0  0
 12 26  1  0  0  0  0
 12 27  1  0  0  0  0
 13 14  1  0  0  0  0
 13 17  1  0  0  0  0
 14 16  1  0  0  0  0
 14 15  1  0  0  0  0
 14 28  1  0  0  0  0
 15 16  1  0  0  0  0
 15 29  1  0  0  0  0
 15 30  1  0  0  0  0
 16 31  1  0  0  0  0
 16 32  1  0  0  0  0
 17 18  1  0  0  0  0
 17 33  1  0  0  0  0
 17 34  1  0  0  0  0
 18 35  1  0  0  0  0
 18 36  1  0  0  0  0
M  END
> <s_m_source_file>
AV-unprocessed.smi

> <i_m_source_file_index>
1222

> <i_lp_mmshare_version>
43012

> <i_f3d_flags>
0

> <s_epik_input>
czFbY0hdW2NIXW5jMVtOSF1DKD1PKVtOSF1bQ0hdMltDSDJdW0NIMl1OKFtDSDJdW0NIMl0yKVtDSF0zW0NIMl1bQ0gyXTM=

> <s_epik_cmdline>
J2VwaWtfcHl0aG9uJywgJy1waCcsICc3LjAnLCAnLXRuJywgJzgnLCAnLW1hJywgJzIwMCcsICctbWV0YWxfYmluZGluZycsICctaW1hZScsICc8aW5maWxlLm1hZT4nLCAnLW9tYWUnLCAnPG91dGZpbGUubWFlPic=

> <r_lp_tautomer_probability>
0.999

> <r_epik_Ionization_Penalty>
0.985554

> <r_epik_Ionization_Penalty_Charging>
0

> <r_epik_Ionization_Penalty_Neutral>
0.985554

> <r_epik_State_Penalty>
1.03262

> <r_epik_Charging_Adjusted_Penalty>
1.03262

> <i_epik_Tot_Q>
0

> <i_epik_Tot_abs_Q>
0

> <r_epik_Metal_State_Penalty>
1.07929

> <b_epik_Metal_Only>
0

> <s_lp_Force_Field>
OPLS_2005

> <r_lp_Energy>
20.1195

> <b_lp_Chiralities_Consistent>
1

> <s_lp_Variant>
AV-unprocessed.smi:1222-3

> <Gold.Version>
5.8.1

> <Gold.Id.Protein>
6NUR|6NUR_protein|mol2

> <Gold.PLP.Fitness>
38.6571

> <Gold.PLP.PLP>
-29.8395

> <Gold.PLP.part.hbond>
-3.0000

> <Gold.PLP.part.metal>
0.0000

> <Gold.PLP.part.buried>
-1.9312

> <Gold.PLP.part.nonpolar>
-27.6236

> <Gold.PLP.part.repulsive>
3.5852

> <Gold.PLP.ligand.clash>
0.0000

> <Gold.PLP.ligand.torsion>
0.6395

> <Gold.PLP.Chemscore.Hbond>
1.9760

> <Gold.PLP.Chemscore.CHOScore>
1.0000

> <Gold.PLP.Chemscore.Metal>
0.0000

> <Gold.Chemscore.Hbonds>
donor molecule, donor type, donor heavy atom, donor atom, acceptor molecule, acceptor atom, score
      L1  H     3    19       P1 10175  1.00
      L1  H     9    22       P1 10175  0.96
      L1  C     7    21       P1  8028  1.00

> <Gold.PLP.Chemscore.Internal.Correction>
1.1686

> <Gold.Rescore>
     Score         DG    S(hbond)    S(metal)    S(lipo)     H(rot)  DE(clash)    DE(int)     intcor
     12.76     -17.09       1.97        0.00      70.13       1.25       1.38       2.94       ----

> <Gold.Chemscore.Fitness>
12.7629

> <Gold.Chemscore.DG>
-17.0879

> <Gold.Chemscore.ZeroCoef>
-5.4800

> <Gold.Chemscore.Hbond>
1.9729

> <Gold.Chemscore.Metal>
0.0000

> <Gold.Chemscore.Lipo>
70.1340

> <Gold.Chemscore.Internal_Hbond>
0.0000

> <Gold.Chemscore.DEClash>
1.3834

> <Gold.Chemscore.DEInternal>
2.9416

> <Gold.Chemscore.Rot>
1.2451

> <Gold.Chemscore.Internal.Correction>
   9.000000E+99

> <Gold.Chemscore.Hbonds>
donor molecule, donor type, donor heavy atom, donor atom, acceptor molecule, acceptor atom, score
      L1  H     3    19       P1 10175  1.00
      L1  H     9    22       P1 10175  0.91

> <Gold.Chemscore.Hbond.Weighted>
-6.5896

> <Gold.Chemscore.Metal.Weighted>
-0.0000

> <Gold.Chemscore.Lipo.Weighted>
-8.2057

> <Gold.Chemscore.Internal_Hbond.Weighted>
0.0000

> <Gold.Chemscore.DEClash.Weighted>
1.3834

> <Gold.Chemscore.DEInternal.Weighted>
2.9416

> <Gold.Chemscore.Rot.Weighted>
3.1874

> <Gold.Chemscore.Internal.Correction.Weighted>
   9.000000E+99

> <Gold.Protein.RotatedTorsions>
[ 6907 6896 6895 6894 ] final   -9.09 input  -60.11 | X-H torsion
[ 7974 7965 7964 7962 ] final  -11.45 input  175.53 | X-H torsion
[ 8008 7997 7996 7995 ] final -111.70 input   59.86 | X-H torsion
[ 10167 10162 10161 10158 ] final  170.06 input  -65.29 | X-H torsion
[ 10718 10713 10712 10709 ] final  108.90 input   66.30 | X-H torsion
[ 10763 10752 10751 10750 ] final  137.01 input  -60.55 | X-H torsion
[ 11005 11000 10999 10996 ] final   19.80 input  -57.11 | X-H torsion

> <Gold.Protein.ActiveResidues>
 VAL166  LYS551  ARG553  GLY616  TRP617  ASP618  TYR619  PRO620  LYS621  CYS622 
 ASP623  PHE694  ASN695  SER759  ASP760  ASP761  ALA762  ILE779  LEU786  VAL792 
 PHE793  MET794  SER795  GLU796  ALA797  LYS798  CYS799  TRP800  GLU811  SER814 

> <Gold.Protein.RotatedAtoms>
  151.4234  135.1000  159.9620 H   0  0  0  0  0  0  0  0  0  0  0  0  # atno 6907 bound_to 6896
  152.4981  133.8686  159.7297 H   0  0  0  0  0  0  0  0  0  0  0  0  # atno 6908 bound_to 6896
  150.9207  133.6826  159.2860 H   0  0  0  0  0  0  0  0  0  0  0  0  # atno 6909 bound_to 6896
  146.2187  140.2912  142.8368 H   0  0  0  0  0  0  0  0  0  0  0  0  # atno 7974 bound_to 7965
  154.9938  140.0395  157.2331 H   0  0  0  0  0  0  0  0  0  0  0  0  # atno 8008 bound_to 7997
  154.7604  140.2783  155.6196 H   0  0  0  0  0  0  0  0  0  0  0  0  # atno 8009 bound_to 7997
  156.2903  140.2629  156.2381 H   0  0  0  0  0  0  0  0  0  0  0  0  # atno 8010 bound_to 7997
  139.5008  144.3638  151.9797 H   0  0  0  0  0  0  0  0  0  0  0  0  # atno 10167 bound_to 10162
  157.6566  131.0903  150.6374 H   0  0  0  0  0  0  0  0  0  0  0  0  # atno 10718 bound_to 10713
  153.8660  135.3061  155.3440 H   0  0  0  0  0  0  0  0  0  0  0  0  # atno 10763 bound_to 10752
  154.7827  135.4826  153.9882 H   0  0  0  0  0  0  0  0  0  0  0  0  # atno 10764 bound_to 10752
  153.1434  135.6828  153.9087 H   0  0  0  0  0  0  0  0  0  0  0  0  # atno 10765 bound_to 10752
  140.4097  134.1631  155.7667 H   0  0  0  0  0  0  0  0  0  0  0  0  # atno 11005 bound_to 11000
  144.9125  140.7774  143.5798 LP  0  0  0  0  0  0  0  0  0  0  0  0  # atno 17320 bound_to 7965
  145.2844  139.1906  143.4774 LP  0  0  0  0  0  0  0  0  0  0  0  0  # atno 17321 bound_to 7965
  140.3074  144.3577  150.6043 LP  0  0  0  0  0  0  0  0  0  0  0  0  # atno 17342 bound_to 10162
  140.5826  143.2172  151.7401 LP  0  0  0  0  0  0  0  0  0  0  0  0  # atno 17343 bound_to 10162
  156.6680  130.4531  149.5666 LP  0  0  0  0  0  0  0  0  0  0  0  0  # atno 17370 bound_to 10713
  156.2018  130.6625  151.1176 LP  0  0  0  0  0  0  0  0  0  0  0  0  # atno 17371 bound_to 10713
  141.1826  133.8382  157.1205 LP  0  0  0  0  0  0  0  0  0  0  0  0  # atno 17394 bound_to 11000
  140.0276  134.9916  157.0717 LP  0  0  0  0  0  0  0  0  0  0  0  0  # atno 17395 bound_to 11000

$$$$
