AV-unprocessed.smi:1285|AV-procd|sdf|5367|dock5
  -GOLD-   22720 4503D 1   1.00000     0.00000
 Structure written by MMmdl.
 46 47  0  0  0  0  0  0  0  0  1 V2000
  151.9346  139.5095  155.8713 C   0  0  0  0  0  0  0  0  0  0  0  0
  150.8558  139.7592  156.9414 C   0  0  0  0  0  0  0  0  0  0  0  0
  150.4232  141.2484  157.1305 C   0  0  1  0  0  0  0  0  0  0  0  0
  150.1012  141.7936  155.7129 C   0  0  0  0  0  0  0  0  0  0  0  0
  149.1138  141.2745  157.9850 C   0  0  0  0  0  0  0  0  0  0  0  0
  147.8893  141.1171  157.1998 N   0  0  0  0  0  0  0  0  0  0  0  0
  146.6345  141.2374  157.6630 C   0  0  0  0  0  0  0  0  0  0  0  0
  146.3703  141.4997  158.8368 O   0  0  0  0  0  0  0  0  0  0  0  0
  145.5116  141.0357  156.6344 C   0  0  2  0  0  0  0  0  0  0  0  0
  145.4841  139.6035  156.0620 C   0  0  0  0  0  0  0  0  0  0  0  0
  145.5959  142.0517  155.5924 N   0  0  0  0  0  0  0  0  0  0  0  0
  146.5004  142.2112  154.6235 C   0  0  0  0  0  0  0  0  0  0  0  0
  146.2440  143.2237  153.8072 N   0  0  0  0  0  0  0  0  0  0  0  0
  145.0772  143.6711  154.3592 C   0  0  0  0  0  0  0  0  0  0  0  0
  144.6384  142.9976  155.4223 N   0  0  0  0  0  0  0  0  0  0  0  0
  151.5146  142.0481  157.7560 N   0  0  0  0  0  0  0  0  0  0  0  0
  151.2849  143.4974  157.7953 C   0  0  0  0  0  0  0  0  0  0  0  0
  152.5128  144.2621  158.3188 C   0  0  0  0  0  0  0  0  0  0  0  0
  152.8693  143.7746  159.6068 O   0  0  0  0  0  0  0  0  0  0  0  0
  153.1559  142.3814  159.6001 C   0  0  0  0  0  0  0  0  0  0  0  0
  151.9296  141.6045  159.0923 C   0  0  0  0  0  0  0  0  0  0  0  0
  152.1800  138.4488  155.8195 H   0  0  0  0  0  0  0  0  0  0  0  0
  152.8581  140.0451  156.0909 H   0  0  0  0  0  0  0  0  0  0  0  0
  151.5992  139.8118  154.8797 H   0  0  0  0  0  0  0  0  0  0  0  0
  149.9906  139.1512  156.6750 H   0  0  0  0  0  0  0  0  0  0  0  0
  151.1978  139.3416  157.8883 H   0  0  0  0  0  0  0  0  0  0  0  0
  149.4945  141.0974  155.1334 H   0  0  0  0  0  0  0  0  0  0  0  0
  151.0079  141.9831  155.1376 H   0  0  0  0  0  0  0  0  0  0  0  0
  149.5413  142.7283  155.7535 H   0  0  0  0  0  0  0  0  0  0  0  0
  149.1137  140.4557  158.7041 H   0  0  0  0  0  0  0  0  0  0  0  0
  149.0506  142.1858  158.5798 H   0  0  0  0  0  0  0  0  0  0  0  0
  148.0091  140.9022  156.2207 H   0  0  0  0  0  0  0  0  0  0  0  0
  144.5630  141.1899  157.1520 H   0  0  0  0  0  0  0  0  0  0  0  0
  145.3771  138.8651  156.8575 H   0  0  0  0  0  0  0  0  0  0  0  0
  146.3936  139.3624  155.5101 H   0  0  0  0  0  0  0  0  0  0  0  0
  144.6419  139.4739  155.3817 H   0  0  0  0  0  0  0  0  0  0  0  0
  147.3625  141.5701  154.5103 H   0  0  0  0  0  0  0  0  0  0  0  0
  144.5314  144.5141  153.9619 H   0  0  0  0  0  0  0  0  0  0  0  0
  151.0529  143.8831  156.8041 H   0  0  0  0  0  0  0  0  0  0  0  0
  150.4323  143.7291  158.4332 H   0  0  0  0  0  0  0  0  0  0  0  0
  153.3560  144.1543  157.6347 H   0  0  0  0  0  0  0  0  0  0  0  0
  152.2925  145.3273  158.3902 H   0  0  0  0  0  0  0  0  0  0  0  0
  154.0257  142.1835  158.9718 H   0  0  0  0  0  0  0  0  0  0  0  0
  153.4128  142.0655  160.6113 H   0  0  0  0  0  0  0  0  0  0  0  0
  151.1150  141.7360  159.8048 H   0  0  0  0  0  0  0  0  0  0  0  0
  152.1826  140.5459  159.0929 H   0  0  0  0  0  0  0  0  0  0  0  0
  1  2  1  0  0  0  0
  1 22  1  0  0  0  0
  1 23  1  0  0  0  0
  1 24  1  0  0  0  0
  2  3  1  0  0  0  0
  2 25  1  0  0  0  0
  2 26  1  0  0  0  0
  3  4  1  0  0  0  0
  3  5  1  0  0  0  0
  3 16  1  0  0  0  0
  4 27  1  0  0  0  0
  4 28  1  0  0  0  0
  4 29  1  0  0  0  0
  5  6  1  0  0  0  0
  5 30  1  0  0  0  0
  5 31  1  0  0  0  0
  6  7  1  0  0  0  0
  6 32  1  0  0  0  0
  7  8  2  0  0  0  0
  7  9  1  0  0  0  0
  9 10  1  0  0  0  0
  9 11  1  0  0  0  0
  9 33  1  0  0  0  0
 10 34  1  0  0  0  0
 10 35  1  0  0  0  0
 10 36  1  0  0  0  0
 11 15  1  0  0  0  0
 11 12  1  0  0  0  0
 12 13  2  0  0  0  0
 12 37  1  0  0  0  0
 13 14  1  0  0  0  0
 14 15  2  0  0  0  0
 14 38  1  0  0  0  0
 16 21  1  0  0  0  0
 16 17  1  0  0  0  0
 17 18  1  0  0  0  0
 17 39  1  0  0  0  0
 17 40  1  0  0  0  0
 18 19  1  0  0  0  0
 18 41  1  0  0  0  0
 18 42  1  0  0  0  0
 19 20  1  0  0  0  0
 20 21  1  0  0  0  0
 20 43  1  0  0  0  0
 20 44  1  0  0  0  0
 21 45  1  0  0  0  0
 21 46  1  0  0  0  0
M  END
> <s_m_source_file>
AV-unprocessed.smi

> <i_m_source_file_index>
1285

> <i_lp_mmshare_version>
43012

> <i_f3d_flags>
0

> <s_epik_input>
W0NIMl0xW0NIMl1PW0NIMl1bQ0gyXU4xW0NAQF0oW0NIM10pKFtDSDJdW0NIM10pW0NIMl1bTkhdQyg9TylbQ0BIXShbQ0gzXSluMltjSF1uW2NIXW4y

> <s_epik_cmdline>
J2VwaWtfcHl0aG9uJywgJy1waCcsICc3LjAnLCAnLXRuJywgJzgnLCAnLW1hJywgJzIwMCcsICctbWV0YWxfYmluZGluZycsICctaW1hZScsICc8aW5maWxlLm1hZT4nLCAnLW9tYWUnLCAnPG91dGZpbGUubWFlPic=

> <r_lp_tautomer_probability>
1

> <r_epik_Ionization_Penalty>
0.285697

> <r_epik_Ionization_Penalty_Charging>
0

> <r_epik_Ionization_Penalty_Neutral>
0.285697

> <r_epik_State_Penalty>
0.278478

> <r_epik_Charging_Adjusted_Penalty>
0.278478

> <i_epik_Tot_Q>
0

> <i_epik_Tot_abs_Q>
0

> <r_epik_Metal_State_Penalty>
0.278477

> <b_epik_Metal_Only>
0

> <s_lp_Force_Field>
OPLS_2005

> <r_lp_Energy>
49.2775

> <b_lp_Chiralities_Consistent>
1

> <s_lp_Variant>
AV-unprocessed.smi:1285-1

> <Gold.Version>
5.8.1

> <Gold.Id.Protein>
6NUR|6NUR_protein|mol2

> <Gold.PLP.Fitness>
34.6877

> <Gold.PLP.PLP>
-33.9745

> <Gold.PLP.part.hbond>
-1.1891

> <Gold.PLP.part.metal>
0.0000

> <Gold.PLP.part.buried>
-6.1311

> <Gold.PLP.part.nonpolar>
-28.5051

> <Gold.PLP.part.repulsive>
0.4641

> <Gold.PLP.ligand.clash>
0.0088

> <Gold.PLP.ligand.torsion>
0.7683

> <Gold.PLP.Chemscore.Hbond>
0.6880

> <Gold.PLP.Chemscore.CHOScore>
0.0000

> <Gold.PLP.Chemscore.Metal>
0.0000

> <Gold.Chemscore.Hbonds>
donor molecule, donor type, donor heavy atom, donor atom, acceptor molecule, acceptor atom, score
      P1  H  6934  6946       L1     8  0.67

> <Gold.PLP.Chemscore.Internal.Correction>
0.1945

> <Gold.Rescore>
     Score         DG    S(hbond)    S(metal)    S(lipo)     H(rot)  DE(clash)    DE(int)     intcor
      9.33      -9.99       0.79        0.00      74.59       2.68       0.03       0.63       ----

> <Gold.Chemscore.Fitness>
9.3252

> <Gold.Chemscore.DG>
-9.9897

> <Gold.Chemscore.ZeroCoef>
-5.4800

> <Gold.Chemscore.Hbond>
0.7929

> <Gold.Chemscore.Metal>
0.0000

> <Gold.Chemscore.Lipo>
74.5938

> <Gold.Chemscore.Internal_Hbond>
0.0000

> <Gold.Chemscore.DEClash>
0.0305

> <Gold.Chemscore.DEInternal>
0.6340

> <Gold.Chemscore.Rot>
2.6821

> <Gold.Chemscore.Internal.Correction>
   9.000000E+99

> <Gold.Chemscore.Hbonds>
donor molecule, donor type, donor heavy atom, donor atom, acceptor molecule, acceptor atom, score
      P1  H  6934  6946       L1     8  0.63

> <Gold.Chemscore.Hbond.Weighted>
-2.6483

> <Gold.Chemscore.Metal.Weighted>
-0.0000

> <Gold.Chemscore.Lipo.Weighted>
-8.7275

> <Gold.Chemscore.Internal_Hbond.Weighted>
0.0000

> <Gold.Chemscore.DEClash.Weighted>
0.0305

> <Gold.Chemscore.DEInternal.Weighted>
0.6340

> <Gold.Chemscore.Rot.Weighted>
6.8661

> <Gold.Chemscore.Internal.Correction.Weighted>
   9.000000E+99

> <Gold.Protein.RotatedTorsions>
[ 6907 6896 6895 6894 ] final  173.84 input  -60.11 | X-H torsion
[ 7974 7965 7964 7962 ] final  -77.65 input  175.53 | X-H torsion
[ 8008 7997 7996 7995 ] final   -8.14 input   59.86 | X-H torsion
[ 10167 10162 10161 10158 ] final   42.50 input  -65.29 | X-H torsion
[ 10718 10713 10712 10709 ] final -169.63 input   66.30 | X-H torsion
[ 10763 10752 10751 10750 ] final -109.96 input  -60.55 | X-H torsion
[ 11005 11000 10999 10996 ] final   99.27 input  -57.11 | X-H torsion

> <Gold.Protein.ActiveResidues>
 VAL166  LYS551  ARG553  GLY616  TRP617  ASP618  TYR619  PRO620  LYS621  CYS622 
 ASP623  PHE694  ASN695  SER759  ASP760  ASP761  ALA762  ILE779  LEU786  VAL792 
 PHE793  MET794  SER795  GLU796  ALA797  LYS798  CYS799  TRP800  GLU811  SER814 

> <Gold.Protein.RotatedAtoms>
  151.7619  133.3334  159.3419 H   0  0  0  0  0  0  0  0  0  0  0  0  # atno 6907 bound_to 6896
  150.7494  134.6098  159.6089 H   0  0  0  0  0  0  0  0  0  0  0  0  # atno 6908 bound_to 6896
  152.3399  134.7150  160.0318 H   0  0  0  0  0  0  0  0  0  0  0  0  # atno 6909 bound_to 6896
  145.5969  140.9417  143.1262 H   0  0  0  0  0  0  0  0  0  0  0  0  # atno 7974 bound_to 7965
  154.5770  140.2389  155.8108 H   0  0  0  0  0  0  0  0  0  0  0  0  # atno 8008 bound_to 7997
  156.2151  140.3014  155.9777 H   0  0  0  0  0  0  0  0  0  0  0  0  # atno 8009 bound_to 7997
  155.2609  140.0414  157.2987 H   0  0  0  0  0  0  0  0  0  0  0  0  # atno 8010 bound_to 7997
  140.3538  144.2317  150.6143 H   0  0  0  0  0  0  0  0  0  0  0  0  # atno 10167 bound_to 10162
  156.7144  130.9246  151.3092 H   0  0  0  0  0  0  0  0  0  0  0  0  # atno 10718 bound_to 10713
  154.8222  135.4582  154.0812 H   0  0  0  0  0  0  0  0  0  0  0  0  # atno 10763 bound_to 10752
  153.2156  135.6887  153.8068 H   0  0  0  0  0  0  0  0  0  0  0  0  # atno 10764 bound_to 10752
  153.7503  135.3299  155.3296 H   0  0  0  0  0  0  0  0  0  0  0  0  # atno 10765 bound_to 10752
  139.8771  134.9088  156.4581 H   0  0  0  0  0  0  0  0  0  0  0  0  # atno 11005 bound_to 11000
  144.7326  139.7679  143.7341 LP  0  0  0  0  0  0  0  0  0  0  0  0  # atno 17320 bound_to 7965
  146.1605  139.4717  142.9991 LP  0  0  0  0  0  0  0  0  0  0  0  0  # atno 17321 bound_to 7965
  140.5194  143.2270  151.8413 LP  0  0  0  0  0  0  0  0  0  0  0  0  # atno 17342 bound_to 10162
  139.4823  144.4855  151.9252 LP  0  0  0  0  0  0  0  0  0  0  0  0  # atno 17343 bound_to 10162
  157.6923  130.9246  150.0548 LP  0  0  0  0  0  0  0  0  0  0  0  0  # atno 17370 bound_to 10713
  156.1638  130.3644  149.9261 LP  0  0  0  0  0  0  0  0  0  0  0  0  # atno 17371 bound_to 10713
  140.8884  133.7866  155.9544 LP  0  0  0  0  0  0  0  0  0  0  0  0  # atno 17394 bound_to 11000
  140.8780  134.2646  157.5158 LP  0  0  0  0  0  0  0  0  0  0  0  0  # atno 17395 bound_to 11000

$$$$
