AV-unprocessed.smi:1740|AV-procd|sdf|7015|dock1
  -GOLD-   22720 8233D 1   1.00000     0.00000
 Structure written by MMmdl.
 52 54  0  0  0  0  0  0  0  0  4 V2000
  148.6867  134.1800  154.0846 N   0  5  0  0  0  0  0  0  0  0  0  0
  148.6910  134.5966  155.3667 C   0  0  0  0  0  0  0  0  0  0  0  0
  149.0928  133.9903  156.3569 O   0  0  0  0  0  0  0  0  0  0  0  0
  148.1101  136.0059  155.5241 C   0  0  0  0  0  0  0  0  0  0  0  0
  149.0283  137.0235  154.9514 N   0  3  2  0  0  0  0  0  0  0  0  0
  150.4075  136.9469  155.5038 C   0  0  0  0  0  0  0  0  0  0  0  0
  151.3519  137.9321  154.7907 C   0  0  0  0  0  0  0  0  0  0  0  0
  150.8228  139.3761  154.8356 C   0  0  2  0  0  0  0  0  0  0  0  0
  150.9218  139.9158  156.1916 N   0  0  0  0  0  0  0  0  0  0  0  0
  151.9479  139.7175  157.0311 C   0  0  0  0  0  0  0  0  0  0  0  0
  152.9342  139.0347  156.7556 O   0  0  0  0  0  0  0  0  0  0  0  0
  151.7687  140.3768  158.1873 N   0  0  0  0  0  0  0  0  0  0  0  0
  152.6904  140.4820  159.2654 C   0  0  0  0  0  0  0  0  0  0  0  0
  153.4741  139.3663  159.6553 C   0  0  0  0  0  0  0  0  0  0  0  0
  154.3294  139.4631  160.7686 C   0  0  0  0  0  0  0  0  0  0  0  0
  154.3760  140.6704  161.4863 C   0  0  0  0  0  0  0  0  0  0  0  0
  153.6092  141.7099  161.0974 N   0  3  0  0  0  0  0  0  0  0  0  0
  152.7774  141.6847  160.0257 C   0  0  0  0  0  0  0  0  0  0  0  0
  152.0462  142.8593  159.7324 N   0  0  0  0  0  0  0  0  0  0  0  0
  151.9275  143.9211  160.7247 C   0  0  0  0  0  0  0  0  0  0  0  0
  151.3867  145.1236  159.9565 C   0  0  0  0  0  0  0  0  0  0  0  0
  152.0499  144.9666  158.5915 C   0  0  0  0  0  0  0  0  0  0  0  0
  152.1357  143.4489  158.3999 C   0  0  0  0  0  0  0  0  0  0  0  0
  149.3737  139.4101  154.3109 C   0  0  0  0  0  0  0  0  0  0  0  0
  148.4732  138.3974  155.0403 C   0  0  0  0  0  0  0  0  0  0  0  0
  148.9018  134.8603  153.3455 H   0  0  0  0  0  0  0  0  0  0  0  0
  147.1475  136.0294  155.0101 H   0  0  0  0  0  0  0  0  0  0  0  0
  147.9068  136.2239  156.5738 H   0  0  0  0  0  0  0  0  0  0  0  0
  150.3826  137.1545  156.5747 H   0  0  0  0  0  0  0  0  0  0  0  0
  150.8015  135.9364  155.3915 H   0  0  0  0  0  0  0  0  0  0  0  0
  152.3493  137.8798  155.2290 H   0  0  0  0  0  0  0  0  0  0  0  0
  151.4631  137.6245  153.7500 H   0  0  0  0  0  0  0  0  0  0  0  0
  151.4495  139.9869  154.1829 H   0  0  0  0  0  0  0  0  0  0  0  0
  150.1515  140.4855  156.5096 H   0  0  0  0  0  0  0  0  0  0  0  0
  150.9562  140.9733  158.2433 H   0  0  0  0  0  0  0  0  0  0  0  0
  153.4140  138.4274  159.1250 H   0  0  0  0  0  0  0  0  0  0  0  0
  154.9302  138.6188  161.0740 H   0  0  0  0  0  0  0  0  0  0  0  0
  154.9953  140.8348  162.3560 H   0  0  0  0  0  0  0  0  0  0  0  0
  151.2671  143.6324  161.5428 H   0  0  0  0  0  0  0  0  0  0  0  0
  152.9065  144.1627  161.1405 H   0  0  0  0  0  0  0  0  0  0  0  0
  150.3032  145.0471  159.8554 H   0  0  0  0  0  0  0  0  0  0  0  0
  151.6167  146.0742  160.4380 H   0  0  0  0  0  0  0  0  0  0  0  0
  151.5013  145.4640  157.7914 H   0  0  0  0  0  0  0  0  0  0  0  0
  153.0546  145.3900  158.6228 H   0  0  0  0  0  0  0  0  0  0  0  0
  153.0549  143.1669  157.8848 H   0  0  0  0  0  0  0  0  0  0  0  0
  151.2909  143.1009  157.8052 H   0  0  0  0  0  0  0  0  0  0  0  0
  148.9548  140.4132  154.3970 H   0  0  0  0  0  0  0  0  0  0  0  0
  149.3757  139.1778  153.2450 H   0  0  0  0  0  0  0  0  0  0  0  0
  147.4789  138.4201  154.5925 H   0  0  0  0  0  0  0  0  0  0  0  0
  148.3545  138.6772  156.0883 H   0  0  0  0  0  0  0  0  0  0  0  0
  149.0892  136.8015  153.9669 H   0  0  0  0  0  0  0  0  0  0  0  0
  153.6653  142.5721  161.6398 H   0  0  0  0  0  0  0  0  0  0  0  0
  1  2  1  0  0  0  0
  1 26  1  0  0  0  0
  2  3  2  0  0  0  0
  2  4  1  0  0  0  0
  4  5  1  0  0  0  0
  4 27  1  0  0  0  0
  4 28  1  0  0  0  0
  5 25  1  0  0  0  0
  5  6  1  0  0  0  0
  5 51  1  0  0  0  0
  6  7  1  0  0  0  0
  6 29  1  0  0  0  0
  6 30  1  0  0  0  0
  7  8  1  0  0  0  0
  7 31  1  0  0  0  0
  7 32  1  0  0  0  0
  8  9  1  0  0  0  0
  8 24  1  0  0  0  0
  8 33  1  0  0  0  0
  9 10  1  0  0  0  0
  9 34  1  0  0  0  0
 10 11  2  0  0  0  0
 10 12  1  0  0  0  0
 12 13  1  0  0  0  0
 12 35  1  0  0  0  0
 13 18  1  0  0  0  0
 13 14  2  0  0  0  0
 14 15  1  0  0  0  0
 14 36  1  0  0  0  0
 15 16  2  0  0  0  0
 15 37  1  0  0  0  0
 16 17  1  0  0  0  0
 16 38  1  0  0  0  0
 17 18  2  0  0  0  0
 17 52  1  0  0  0  0
 18 19  1  0  0  0  0
 19 23  1  0  0  0  0
 19 20  1  0  0  0  0
 20 21  1  0  0  0  0
 20 39  1  0  0  0  0
 20 40  1  0  0  0  0
 21 22  1  0  0  0  0
 21 41  1  0  0  0  0
 21 42  1  0  0  0  0
 22 23  1  0  0  0  0
 22 43  1  0  0  0  0
 22 44  1  0  0  0  0
 23 45  1  0  0  0  0
 23 46  1  0  0  0  0
 24 25  1  0  0  0  0
 24 47  1  0  0  0  0
 24 48  1  0  0  0  0
 25 49  1  0  0  0  0
 25 50  1  0  0  0  0
M  CHG  1   1  -1
M  CHG  1   5   1
M  CHG  1  17   1
M  END
> <s_m_source_file>
AV-unprocessed.smi

> <i_m_source_file_index>
1740

> <i_lp_mmshare_version>
43012

> <i_f3d_flags>
0

> <s_epik_input>
W05IMl1DKD1PKVtDSDJdTjFbQ0gyXVtDSDJdW0NIXShbQ0gyXVtDSDJdMSlbTkhdQyg9TylbTkhdYzJbY0hdW2NIXVtjSF1uYzJOM1tDSDJdW0NIMl1bQ0gyXVtDSDJdMw==

> <s_epik_cmdline>
J2VwaWtfcHl0aG9uJywgJy1waCcsICc3LjAnLCAnLXRuJywgJzgnLCAnLW1hJywgJzIwMCcsICctbWV0YWxfYmluZGluZycsICctaW1hZScsICc8aW5maWxlLm1hZT4nLCAnLW9tYWUnLCAnPG91dGZpbGUubWFlPic=

> <r_lp_tautomer_probability>
0.999994

> <r_epik_Ionization_Penalty>
6.97817

> <r_epik_Ionization_Penalty_Charging>
6.97815

> <r_epik_Ionization_Penalty_Neutral>
1.88285e-05

> <r_epik_State_Penalty>
7.80985

> <r_epik_Charging_Adjusted_Penalty>
14.788

> <i_epik_Tot_Q>
1

> <i_epik_Tot_abs_Q>
3

> <r_epik_Metal_State_Penalty>
3.85728

> <b_epik_Metal_Only>
1

> <s_lp_Force_Field>
OPLS_2005

> <r_lp_Energy>
44.1168

> <b_lp_Chiralities_Consistent>
1

> <s_lp_Variant>
AV-unprocessed.smi:1740-10

> <Gold.Version>
5.8.1

> <Gold.Id.Protein>
6NUR|6NUR_protein|mol2

> <Gold.PLP.Fitness>
56.3708

> <Gold.PLP.PLP>
-45.6385

> <Gold.PLP.part.hbond>
-3.0000

> <Gold.PLP.part.metal>
0.0000

> <Gold.PLP.part.buried>
-4.1789

> <Gold.PLP.part.nonpolar>
-38.6088

> <Gold.PLP.part.repulsive>
0.2418

> <Gold.PLP.ligand.clash>
0.0000

> <Gold.PLP.ligand.torsion>
0.8761

> <Gold.PLP.Chemscore.Hbond>
4.0000

> <Gold.PLP.Chemscore.CHOScore>
0.0000

> <Gold.PLP.Chemscore.Metal>
0.0000

> <Gold.Chemscore.Hbonds>
donor molecule, donor type, donor heavy atom, donor atom, acceptor molecule, acceptor atom, score
      L1  H     1    26       P1  7948  1.00
      L1  H     5    51       P1  7948  1.30
      P1  H  7997  8009       L1    11  1.00

> <Gold.PLP.Chemscore.Internal.Correction>
0.4844

> <Gold.Rescore>
     Score         DG    S(hbond)    S(metal)    S(lipo)     H(rot)  DE(clash)    DE(int)     intcor
     18.48     -22.03       2.87        0.00     107.29       2.18       0.22       3.33       ----

> <Gold.Chemscore.Fitness>
18.4753

> <Gold.Chemscore.DG>
-22.0251

> <Gold.Chemscore.ZeroCoef>
-5.4800

> <Gold.Chemscore.Hbond>
2.8685

> <Gold.Chemscore.Metal>
0.0000

> <Gold.Chemscore.Lipo>
107.2946

> <Gold.Chemscore.Internal_Hbond>
0.0000

> <Gold.Chemscore.DEClash>
0.2154

> <Gold.Chemscore.DEInternal>
3.3344

> <Gold.Chemscore.Rot>
2.1832

> <Gold.Chemscore.Internal.Correction>
   9.000000E+99

> <Gold.Chemscore.Hbonds>
donor molecule, donor type, donor heavy atom, donor atom, acceptor molecule, acceptor atom, score
      L1  H     1    26       P1  7948  0.29
      L1  H     5    51       P1  7948  0.64
      P1  H  7997  8009       L1    11  0.74

> <Gold.Chemscore.Hbond.Weighted>
-9.5808

> <Gold.Chemscore.Metal.Weighted>
-0.0000

> <Gold.Chemscore.Lipo.Weighted>
-12.5535

> <Gold.Chemscore.Internal_Hbond.Weighted>
0.0000

> <Gold.Chemscore.DEClash.Weighted>
0.2154

> <Gold.Chemscore.DEInternal.Weighted>
3.3344

> <Gold.Chemscore.Rot.Weighted>
5.5891

> <Gold.Chemscore.Internal.Correction.Weighted>
   9.000000E+99

> <Gold.Protein.RotatedTorsions>
[ 6907 6896 6895 6894 ] final  152.50 input  -60.11 | X-H torsion
[ 7974 7965 7964 7962 ] final -138.71 input  175.53 | X-H torsion
[ 8008 7997 7996 7995 ] final -168.45 input   59.86 | X-H torsion
[ 10167 10162 10161 10158 ] final  -49.84 input  -65.29 | X-H torsion
[ 10718 10713 10712 10709 ] final -168.02 input   66.30 | X-H torsion
[ 10763 10752 10751 10750 ] final   22.60 input  -60.55 | X-H torsion
[ 11005 11000 10999 10996 ] final   57.73 input  -57.11 | X-H torsion

> <Gold.Protein.ActiveResidues>
 VAL166  LYS551  ARG553  GLY616  TRP617  ASP618  TYR619  PRO620  LYS621  CYS622 
 ASP623  PHE694  ASN695  SER759  ASP760  ASP761  ALA762  ILE779  LEU786  VAL792 
 PHE793  MET794  SER795  GLU796  ALA797  LYS798  CYS799  TRP800  GLU811  SER814 

> <Gold.Protein.RotatedAtoms>
  152.0859  133.4176  159.4521 H   0  0  0  0  0  0  0  0  0  0  0  0  # atno 6907 bound_to 6896
  150.6862  134.2929  159.4683 H   0  0  0  0  0  0  0  0  0  0  0  0  # atno 6908 bound_to 6896
  152.0775  134.9492  160.0624 H   0  0  0  0  0  0  0  0  0  0  0  0  # atno 6909 bound_to 6896
  144.8736  140.6404  143.5251 H   0  0  0  0  0  0  0  0  0  0  0  0  # atno 7974 bound_to 7965
  155.8915  140.1025  157.1415 H   0  0  0  0  0  0  0  0  0  0  0  0  # atno 8008 bound_to 7997
  154.4015  140.1310  156.4386 H   0  0  0  0  0  0  0  0  0  0  0  0  # atno 8009 bound_to 7997
  155.7528  140.3465  155.5161 H   0  0  0  0  0  0  0  0  0  0  0  0  # atno 8010 bound_to 7997
  140.6666  143.2681  151.4273 H   0  0  0  0  0  0  0  0  0  0  0  0  # atno 10167 bound_to 10162
  156.6908  130.9158  151.3069 H   0  0  0  0  0  0  0  0  0  0  0  0  # atno 10718 bound_to 10713
  153.0903  135.6645  153.9867 H   0  0  0  0  0  0  0  0  0  0  0  0  # atno 10763 bound_to 10752
  153.9466  135.2988  155.3442 H   0  0  0  0  0  0  0  0  0  0  0  0  # atno 10764 bound_to 10752
  154.7317  135.5120  153.9047 H   0  0  0  0  0  0  0  0  0  0  0  0  # atno 10765 bound_to 10752
  140.0430  134.5846  155.9357 H   0  0  0  0  0  0  0  0  0  0  0  0  # atno 11005 bound_to 11000
  145.4084  139.1584  143.4139 LP  0  0  0  0  0  0  0  0  0  0  0  0  # atno 17320 bound_to 7965
  146.2947  140.4186  142.8726 LP  0  0  0  0  0  0  0  0  0  0  0  0  # atno 17321 bound_to 7965
  139.5917  144.1484  152.2096 LP  0  0  0  0  0  0  0  0  0  0  0  0  # atno 17342 bound_to 10162
  140.0841  144.5676  150.7101 LP  0  0  0  0  0  0  0  0  0  0  0  0  # atno 17343 bound_to 10162
  157.7009  130.9332  150.0783 LP  0  0  0  0  0  0  0  0  0  0  0  0  # atno 17370 bound_to 10713
  156.1799  130.3649  149.9050 LP  0  0  0  0  0  0  0  0  0  0  0  0  # atno 17371 bound_to 10713
  141.1893  133.6565  156.5361 LP  0  0  0  0  0  0  0  0  0  0  0  0  # atno 17394 bound_to 11000
  140.4038  134.7333  157.4796 LP  0  0  0  0  0  0  0  0  0  0  0  0  # atno 17395 bound_to 11000

$$$$
