AV-unprocessed.smi:40|AV-procd|sdf|376|dock7
  -GOLD-   2262016223D 1   1.00000     0.00000
 Structure written by MMmdl.
 47 48  0  0  0  0  0  0  0  0  1 V2000
  150.9674  145.3607  159.3041 C   0  0  0  0  0  0  0  0  0  0  0  0
  151.8990  144.5437  160.2066 C   0  0  0  0  0  0  0  0  0  0  0  0
  152.6089  143.4138  159.4485 C   0  0  0  0  0  0  0  0  0  0  0  0
  153.5589  142.6007  160.3441 C   0  0  0  0  0  0  0  0  0  0  0  0
  153.8793  141.2103  159.7770 C   0  0  0  0  0  0  0  0  0  0  0  0
  153.8875  140.2737  160.8404 O   0  0  0  0  0  0  0  0  0  0  0  0
  154.1800  138.9791  160.6219 C   0  0  0  0  0  0  0  0  0  0  0  0
  154.3736  138.4936  159.5079 O   0  0  0  0  0  0  0  0  0  0  0  0
  154.2732  138.2439  161.8726 N   0  0  0  0  0  0  0  0  0  0  0  0
  154.5491  136.9289  162.0505 C   0  0  0  0  0  0  0  0  0  0  0  0
  154.4497  136.0528  161.0647 N   0  0  0  0  0  0  0  0  0  0  0  0
  154.7172  134.7175  161.1899 C   0  0  0  0  0  0  0  0  0  0  0  0
  154.5688  133.9762  160.2225 O   0  0  0  0  0  0  0  0  0  0  0  0
  155.1686  134.2559  162.4544 N   0  0  0  0  0  0  0  0  0  0  0  0
  155.4182  132.7837  162.7488 C   0  0  1  0  0  0  0  0  0  0  0  0
  156.2156  132.6757  163.8876 O   0  0  0  0  0  0  0  0  0  0  0  0
  155.4554  132.2476  165.0083 C   0  0  2  0  0  0  0  0  0  0  0  0
  156.3429  131.4168  165.9421 C   0  0  0  0  0  0  0  0  0  0  0  0
  154.2686  131.4658  164.4245 C   0  0  1  0  0  0  0  0  0  0  0  0
  153.0943  131.7678  165.1507 O   0  0  0  0  0  0  0  0  0  0  0  0
  154.1436  131.9431  162.9735 C   0  0  2  0  0  0  0  0  0  0  0  0
  154.1147  130.8269  162.1061 O   0  0  0  0  0  0  0  0  0  0  0  0
  155.2863  135.1662  163.4965 C   0  0  0  0  0  0  0  0  0  0  0  0
  155.0057  136.4788  163.3458 C   0  0  0  0  0  0  0  0  0  0  0  0
  155.1370  137.3337  164.3750 F   0  0  0  0  0  0  0  0  0  0  0  0
  155.9935  132.4225  161.8954 H   0  0  0  0  0  0  0  0  0  0  0  0
  155.1183  133.1334  165.5459 H   0  0  0  0  0  0  0  0  0  0  0  0
  154.4582  130.3919  164.4703 H   0  0  0  0  0  0  0  0  0  0  0  0
  153.2467  132.5341  162.7877 H   0  0  0  0  0  0  0  0  0  0  0  0
  150.4774  146.1538  159.8694 H   0  0  0  0  0  0  0  0  0  0  0  0
  150.1887  144.7320  158.8705 H   0  0  0  0  0  0  0  0  0  0  0  0
  151.5180  145.8258  158.4859 H   0  0  0  0  0  0  0  0  0  0  0  0
  152.6395  145.2050  160.6578 H   0  0  0  0  0  0  0  0  0  0  0  0
  151.3179  144.1233  161.0282 H   0  0  0  0  0  0  0  0  0  0  0  0
  151.8549  142.7535  159.0205 H   0  0  0  0  0  0  0  0  0  0  0  0
  153.1653  143.8289  158.6074 H   0  0  0  0  0  0  0  0  0  0  0  0
  154.4894  143.1535  160.4765 H   0  0  0  0  0  0  0  0  0  0  0  0
  153.1239  142.4912  161.3382 H   0  0  0  0  0  0  0  0  0  0  0  0
  153.1387  140.9206  159.0305 H   0  0  0  0  0  0  0  0  0  0  0  0
  154.8543  141.2234  159.2879 H   0  0  0  0  0  0  0  0  0  0  0  0
  154.0895  138.7963  162.6972 H   0  0  0  0  0  0  0  0  0  0  0  0
  155.7785  131.0660  166.8064 H   0  0  0  0  0  0  0  0  0  0  0  0
  157.1816  132.0082  166.3100 H   0  0  0  0  0  0  0  0  0  0  0  0
  156.7495  130.5444  165.4297 H   0  0  0  0  0  0  0  0  0  0  0  0
  153.3461  132.1444  165.9809 H   0  0  0  0  0  0  0  0  0  0  0  0
  153.4653  130.2181  162.4231 H   0  0  0  0  0  0  0  0  0  0  0  0
  155.6122  134.8326  164.4712 H   0  0  0  0  0  0  0  0  0  0  0  0
  1  2  1  0  0  0  0
  1 30  1  0  0  0  0
  1 31  1  0  0  0  0
  1 32  1  0  0  0  0
  2  3  1  0  0  0  0
  2 33  1  0  0  0  0
  2 34  1  0  0  0  0
  3  4  1  0  0  0  0
  3 35  1  0  0  0  0
  3 36  1  0  0  0  0
  4  5  1  0  0  0  0
  4 37  1  0  0  0  0
  4 38  1  0  0  0  0
  5  6  1  0  0  0  0
  5 39  1  0  0  0  0
  5 40  1  0  0  0  0
  6  7  1  0  0  0  0
  7  8  2  0  0  0  0
  7  9  1  0  0  0  0
  9 10  1  0  0  0  0
  9 41  1  0  0  0  0
 10 24  1  0  0  0  0
 10 11  2  0  0  0  0
 11 12  1  0  0  0  0
 12 13  2  0  0  0  0
 12 14  1  0  0  0  0
 14 15  1  0  0  0  0
 14 23  1  0  0  0  0
 15 26  1  0  0  0  0
 15 21  1  0  0  0  0
 15 16  1  0  0  0  0
 16 17  1  0  0  0  0
 17 27  1  0  0  0  0
 17 18  1  0  0  0  0
 17 19  1  0  0  0  0
 18 42  1  0  0  0  0
 18 43  1  0  0  0  0
 18 44  1  0  0  0  0
 19 28  1  0  0  0  0
 19 20  1  0  0  0  0
 19 21  1  0  0  0  0
 20 45  1  0  0  0  0
 21 29  1  0  0  0  0
 21 22  1  0  0  0  0
 22 46  1  0  0  0  0
 23 24  2  0  0  0  0
 23 47  1  0  0  0  0
 24 25  1  0  0  0  0
M  END
> <s_m_source_file>
AV-unprocessed.smi

> <i_m_source_file_index>
40

> <i_lp_mmshare_version>
43012

> <i_f3d_flags>
0

> <s_epik_input>
W0NIM11bQ0gyXVtDSDJdW0NIMl1bQ0gyXU9DKD1PKVtOSF1jMW5jKD1PKW4oW2NIXWMxRilbQ0BASF0yT1tDQEhdKFtDSDNdKVtDQEBIXShbT0hdKVtDQEhdMltPSF0=

> <s_epik_cmdline>
J2VwaWtfcHl0aG9uJywgJy1waCcsICc3LjAnLCAnLXRuJywgJzgnLCAnLW1hJywgJzIwMCcsICctbWV0YWxfYmluZGluZycsICctaW1hZScsICc8aW5maWxlLm1hZT4nLCAnLW9tYWUnLCAnPG91dGZpbGUubWFlPic=

> <r_lp_tautomer_probability>
1

> <r_epik_Ionization_Penalty>
2.29506e-06

> <r_epik_Ionization_Penalty_Charging>
8.26867e-09

> <r_epik_Ionization_Penalty_Neutral>
2.2868e-06

> <r_epik_State_Penalty>
-0

> <r_epik_Charging_Adjusted_Penalty>
8.26867e-09

> <i_epik_Tot_Q>
0

> <i_epik_Tot_abs_Q>
0

> <r_epik_Metal_State_Penalty>
-0

> <b_epik_Metal_Only>
0

> <s_epik_Chemistry_Notes>
This compound has an ester and may undergo hydrolysis at high or low pH. This compound contains an acetal/aminal-like group ( X-CH(R)-Y where X, Y are N, S, or O) that may be acid/base labile, releasing an aldehyde.

> <s_lp_Force_Field>
OPLS_2005

> <r_lp_Energy>
21.8092

> <b_lp_Chiralities_Consistent>
1

> <s_lp_Variant>
AV-unprocessed.smi:40-10

> <Gold.Version>
5.8.1

> <Gold.Id.Protein>
6NUR|6NUR_protein|mol2

> <Gold.PLP.Fitness>
45.0992

> <Gold.PLP.PLP>
-44.4262

> <Gold.PLP.part.hbond>
-1.3976

> <Gold.PLP.part.metal>
0.0000

> <Gold.PLP.part.buried>
-4.9711

> <Gold.PLP.part.nonpolar>
-37.3948

> <Gold.PLP.part.repulsive>
0.0343

> <Gold.PLP.ligand.clash>
0.0000

> <Gold.PLP.ligand.torsion>
1.0331

> <Gold.PLP.Chemscore.Hbond>
0.8938

> <Gold.PLP.Chemscore.CHOScore>
0.0000

> <Gold.PLP.Chemscore.Metal>
0.0000

> <Gold.Chemscore.Hbonds>
donor molecule, donor type, donor heavy atom, donor atom, acceptor molecule, acceptor atom, score
      P1  H  6896  6909       L1    13  1.00

> <Gold.PLP.Chemscore.Internal.Correction>
0.0580

> <Gold.Rescore>
     Score         DG    S(hbond)    S(metal)    S(lipo)     H(rot)  DE(clash)    DE(int)     intcor
      7.84     -10.00       0.78        0.00      97.32       3.70       0.11       2.05       ----

> <Gold.Chemscore.Fitness>
7.8423

> <Gold.Chemscore.DG>
-9.9997

> <Gold.Chemscore.ZeroCoef>
-5.4800

> <Gold.Chemscore.Hbond>
0.7766

> <Gold.Chemscore.Metal>
0.0000

> <Gold.Chemscore.Lipo>
97.3229

> <Gold.Chemscore.Internal_Hbond>
0.0000

> <Gold.Chemscore.DEClash>
0.1070

> <Gold.Chemscore.DEInternal>
2.0504

> <Gold.Chemscore.Rot>
3.6957

> <Gold.Chemscore.Internal.Correction>
   9.000000E+99

> <Gold.Chemscore.Hbonds>
donor molecule, donor type, donor heavy atom, donor atom, acceptor molecule, acceptor atom, score
      P1  H  6896  6909       L1    13  0.29

> <Gold.Chemscore.Hbond.Weighted>
-2.5939

> <Gold.Chemscore.Metal.Weighted>
-0.0000

> <Gold.Chemscore.Lipo.Weighted>
-11.3868

> <Gold.Chemscore.Internal_Hbond.Weighted>
0.0000

> <Gold.Chemscore.DEClash.Weighted>
0.1070

> <Gold.Chemscore.DEInternal.Weighted>
2.0504

> <Gold.Chemscore.Rot.Weighted>
9.4610

> <Gold.Chemscore.Internal.Correction.Weighted>
   9.000000E+99

> <Gold.Protein.RotatedTorsions>
[ 6907 6896 6895 6894 ] final -150.28 input  -60.11 | X-H torsion
[ 7974 7965 7964 7962 ] final -160.15 input  175.53 | X-H torsion
[ 8008 7997 7996 7995 ] final  128.68 input   59.86 | X-H torsion
[ 10167 10162 10161 10158 ] final   35.72 input  -65.29 | X-H torsion
[ 10718 10713 10712 10709 ] final  136.18 input   66.30 | X-H torsion
[ 10763 10752 10751 10750 ] final  -93.16 input  -60.55 | X-H torsion
[ 11005 11000 10999 10996 ] final  -57.09 input  -57.11 | X-H torsion

> <Gold.Protein.ActiveResidues>
 VAL166  LYS551  ARG553  GLY616  TRP617  ASP618  TYR619  PRO620  LYS621  CYS622 
 ASP623  PHE694  ASN695  SER759  ASP760  ASP761  ALA762  ILE779  LEU786  VAL792 
 PHE793  MET794  SER795  GLU796  ALA797  LYS798  CYS799  TRP800  GLU811  SER814 

> <Gold.Protein.RotatedAtoms>
  151.1963  133.4637  159.2595 H   0  0  0  0  0  0  0  0  0  0  0  0  # atno 6907 bound_to 6896
  151.1113  135.0028  159.8505 H   0  0  0  0  0  0  0  0  0  0  0  0  # atno 6908 bound_to 6896
  152.5450  134.1882  159.8716 H   0  0  0  0  0  0  0  0  0  0  0  0  # atno 6909 bound_to 6896
  144.7438  140.3583  143.6101 H   0  0  0  0  0  0  0  0  0  0  0  0  # atno 7974 bound_to 7965
  156.2920  140.2639  156.2475 H   0  0  0  0  0  0  0  0  0  0  0  0  # atno 8008 bound_to 7997
  154.9915  140.0388  157.2340 H   0  0  0  0  0  0  0  0  0  0  0  0  # atno 8009 bound_to 7997
  154.7681  140.2773  155.6164 H   0  0  0  0  0  0  0  0  0  0  0  0  # atno 8010 bound_to 7997
  140.4196  144.1479  150.6146 H   0  0  0  0  0  0  0  0  0  0  0  0  # atno 10167 bound_to 10162
  157.4494  131.1064  151.0051 H   0  0  0  0  0  0  0  0  0  0  0  0  # atno 10718 bound_to 10713
  154.6932  135.5204  153.8422 H   0  0  0  0  0  0  0  0  0  0  0  0  # atno 10763 bound_to 10752
  153.0648  135.6581  154.0390 H   0  0  0  0  0  0  0  0  0  0  0  0  # atno 10764 bound_to 10752
  154.0260  135.2989  155.3354 H   0  0  0  0  0  0  0  0  0  0  0  0  # atno 10765 bound_to 10752
  141.1149  133.6610  156.4717 H   0  0  0  0  0  0  0  0  0  0  0  0  # atno 11005 bound_to 11000
  145.7204  139.1708  143.2488 LP  0  0  0  0  0  0  0  0  0  0  0  0  # atno 17320 bound_to 7965
  146.1281  140.7221  142.9425 LP  0  0  0  0  0  0  0  0  0  0  0  0  # atno 17321 bound_to 7965
  140.4549  143.2472  151.9298 LP  0  0  0  0  0  0  0  0  0  0  0  0  # atno 17342 bound_to 10162
  139.4782  144.5526  151.8363 LP  0  0  0  0  0  0  0  0  0  0  0  0  # atno 17343 bound_to 10162
  157.0886  130.5933  149.5435 LP  0  0  0  0  0  0  0  0  0  0  0  0  # atno 17370 bound_to 10713
  155.9981  130.5054  150.7557 LP  0  0  0  0  0  0  0  0  0  0  0  0  # atno 17371 bound_to 10713
  140.4673  134.6786  157.5113 LP  0  0  0  0  0  0  0  0  0  0  0  0  # atno 17394 bound_to 11000
  140.0065  134.6755  155.9447 LP  0  0  0  0  0  0  0  0  0  0  0  0  # atno 17395 bound_to 11000

$$$$
