AV-unprocessed.smi:220|AV-procd|sdf|1683|dock8
  -GOLD-   2262020123D 1   1.00000     0.00000
 Structure written by MMmdl.
 51 55  0  0  0  0  0  0  0  0  1 V2000
  149.1771  143.5163  157.7580 N   0  0  0  0  0  0  0  0  0  0  0  0
  150.0059  143.2268  158.7638 C   0  0  0  0  0  0  0  0  0  0  0  0
  149.5941  143.0086  159.9022 O   0  0  0  0  0  0  0  0  0  0  0  0
  151.5150  143.1967  158.4330 C   0  0  1  0  0  0  0  0  0  0  0  0
  152.4413  143.9321  159.4414 C   0  0  1  0  0  0  0  0  0  0  0  0
  151.8852  145.0550  160.3512 C   0  0  0  0  0  0  0  0  0  0  0  0
  152.4171  144.7327  161.7513 C   0  0  0  0  0  0  0  0  0  0  0  0
  152.5073  143.2072  161.7797 C   0  0  0  0  0  0  0  0  0  0  0  0
  153.0029  142.8530  160.3748 C   0  0  1  0  0  0  0  0  0  0  0  0
  152.5413  141.5128  159.7959 C   0  0  0  0  0  0  0  0  0  0  0  0
  152.0425  141.8299  158.4616 N   0  0  0  0  0  0  0  0  0  0  0  0
  151.6034  140.8475  157.6238 C   0  0  0  0  0  0  0  0  0  0  0  0
  151.9947  139.5677  157.8667 N   0  0  0  0  0  0  0  0  0  0  0  0
  151.5879  138.5670  157.0821 C   0  0  0  0  0  0  0  0  0  0  0  0
  150.7991  138.6186  156.0093 N   0  0  0  0  0  0  0  0  0  0  0  0
  150.4068  139.8970  155.7462 C   0  0  0  0  0  0  0  0  0  0  0  0
  150.7610  141.0607  156.4901 C   0  0  0  0  0  0  0  0  0  0  0  0
  150.1796  142.1778  155.8995 N   0  0  0  0  0  0  0  0  0  0  0  0
  149.5167  141.7044  154.8816 C   0  0  0  0  0  0  0  0  0  0  0  0
  149.5886  140.3407  154.7207 N   0  0  0  0  0  0  0  0  0  0  0  0
  148.9501  139.5507  153.6787 C   0  0  0  0  0  0  0  0  0  0  0  0
  147.4428  139.8353  153.5200 C   0  0  0  0  0  0  0  0  0  0  0  0
  146.7894  138.7791  152.6117 C   0  0  0  0  0  0  0  0  0  0  0  0
  147.5602  138.5528  151.4493 O   0  0  0  0  0  0  0  0  0  0  0  0
  146.6722  140.1181  154.8178 C   0  0  0  0  0  0  0  0  0  0  0  0
  146.1118  141.3375  154.2874 O   0  0  0  0  0  0  0  0  0  0  0  0
  147.0632  141.2882  153.2030 C   0  0  0  0  0  0  0  0  0  0  0  0
  148.1813  143.5440  157.9224 H   0  0  0  0  0  0  0  0  0  0  0  0
  149.5472  143.7020  156.8370 H   0  0  0  0  0  0  0  0  0  0  0  0
  151.6772  143.6463  157.4543 H   0  0  0  0  0  0  0  0  0  0  0  0
  153.2827  144.3410  158.8792 H   0  0  0  0  0  0  0  0  0  0  0  0
  152.2037  146.0428  160.0169 H   0  0  0  0  0  0  0  0  0  0  0  0
  150.7983  145.0772  160.3962 H   0  0  0  0  0  0  0  0  0  0  0  0
  153.4125  145.1615  161.8759 H   0  0  0  0  0  0  0  0  0  0  0  0
  151.7818  145.1307  162.5432 H   0  0  0  0  0  0  0  0  0  0  0  0
  153.1684  142.8377  162.5637 H   0  0  0  0  0  0  0  0  0  0  0  0
  151.5139  142.7912  161.9540 H   0  0  0  0  0  0  0  0  0  0  0  0
  154.0924  142.9101  160.3530 H   0  0  0  0  0  0  0  0  0  0  0  0
  153.3713  140.8063  159.7516 H   0  0  0  0  0  0  0  0  0  0  0  0
  151.7479  141.0644  160.3956 H   0  0  0  0  0  0  0  0  0  0  0  0
  151.9451  137.5846  157.3534 H   0  0  0  0  0  0  0  0  0  0  0  0
  148.9539  142.3440  154.2181 H   0  0  0  0  0  0  0  0  0  0  0  0
  149.4759  139.7532  152.7448 H   0  0  0  0  0  0  0  0  0  0  0  0
  149.1247  138.4943  153.8857 H   0  0  0  0  0  0  0  0  0  0  0  0
  146.6424  137.8331  153.1328 H   0  0  0  0  0  0  0  0  0  0  0  0
  145.7984  139.1054  152.2946 H   0  0  0  0  0  0  0  0  0  0  0  0
  148.3186  139.1160  151.4768 H   0  0  0  0  0  0  0  0  0  0  0  0
  145.9114  139.3735  155.0553 H   0  0  0  0  0  0  0  0  0  0  0  0
  147.3073  140.3152  155.6825 H   0  0  0  0  0  0  0  0  0  0  0  0
  147.8771  142.0005  153.3466 H   0  0  0  0  0  0  0  0  0  0  0  0
  146.5949  141.4253  152.2277 H   0  0  0  0  0  0  0  0  0  0  0  0
  1  2  1  0  0  0  0
  1 28  1  0  0  0  0
  1 29  1  0  0  0  0
  2  3  2  0  0  0  0
  2  4  1  0  0  0  0
  4 11  1  0  0  0  0
  4  5  1  0  0  0  0
  4 30  1  0  0  0  0
  5  9  1  0  0  0  0
  5  6  1  0  0  0  0
  5 31  1  0  0  0  0
  6  7  1  0  0  0  0
  6 32  1  0  0  0  0
  6 33  1  0  0  0  0
  7  8  1  0  0  0  0
  7 34  1  0  0  0  0
  7 35  1  0  0  0  0
  8  9  1  0  0  0  0
  8 36  1  0  0  0  0
  8 37  1  0  0  0  0
  9 10  1  0  0  0  0
  9 38  1  0  0  0  0
 10 11  1  0  0  0  0
 10 39  1  0  0  0  0
 10 40  1  0  0  0  0
 11 12  1  0  0  0  0
 12 17  1  0  0  0  0
 12 13  2  0  0  0  0
 13 14  1  0  0  0  0
 14 15  2  0  0  0  0
 14 41  1  0  0  0  0
 15 16  1  0  0  0  0
 16 20  1  0  0  0  0
 16 17  2  0  0  0  0
 17 18  1  0  0  0  0
 18 19  2  0  0  0  0
 19 20  1  0  0  0  0
 19 42  1  0  0  0  0
 20 21  1  0  0  0  0
 21 22  1  0  0  0  0
 21 43  1  0  0  0  0
 21 44  1  0  0  0  0
 22 27  1  0  0  0  0
 22 23  1  0  0  0  0
 22 25  1  0  0  0  0
 23 24  1  0  0  0  0
 23 45  1  0  0  0  0
 23 46  1  0  0  0  0
 24 47  1  0  0  0  0
 25 26  1  0  0  0  0
 25 48  1  0  0  0  0
 25 49  1  0  0  0  0
 26 27  1  0  0  0  0
 27 50  1  0  0  0  0
 27 51  1  0  0  0  0
M  END
> <s_m_source_file>
AV-unprocessed.smi

> <i_m_source_file_index>
220

> <i_lp_mmshare_version>
43012

> <i_f3d_flags>
0

> <s_epik_input>
W0NIMl0xW0NIMl1bQ0gyXVtDQEhdKFtDQEhdMTIpW0NIMl1OKFtDQEBIXTJDKD1PKVtOSDJdKWMobltjSF1uMyljKGMzNCluW2NIXW40W0NIMl1DNShbQ0gyXVtPSF0pW0NIMl1PW0NIMl01

> <s_epik_cmdline>
J2VwaWtfcHl0aG9uJywgJy1waCcsICc3LjAnLCAnLXRuJywgJzgnLCAnLW1hJywgJzIwMCcsICctbWV0YWxfYmluZGluZycsICctaW1hZScsICc8aW5maWxlLm1hZT4nLCAnLW9tYWUnLCAnPG91dGZpbGUubWFlPic=

> <r_lp_tautomer_probability>
1

> <r_epik_Ionization_Penalty>
0.00118987

> <r_epik_Ionization_Penalty_Charging>
0

> <r_epik_Ionization_Penalty_Neutral>
0.00118987

> <r_epik_State_Penalty>
0.000654261

> <r_epik_Charging_Adjusted_Penalty>
0.000654261

> <i_epik_Tot_Q>
0

> <i_epik_Tot_abs_Q>
0

> <r_epik_Metal_State_Penalty>
-0

> <b_epik_Metal_Only>
0

> <s_lp_Force_Field>
OPLS_2005

> <r_lp_Energy>
61.4398

> <b_lp_Chiralities_Consistent>
1

> <s_lp_Variant>
AV-unprocessed.smi:220-2

> <Gold.Version>
5.8.1

> <Gold.Id.Protein>
6NUR|6NUR_protein|mol2

> <Gold.PLP.Fitness>
50.1251

> <Gold.PLP.PLP>
-44.7842

> <Gold.PLP.part.hbond>
-5.0271

> <Gold.PLP.part.metal>
0.0000

> <Gold.PLP.part.buried>
3.2960

> <Gold.PLP.part.nonpolar>
-43.5079

> <Gold.PLP.part.repulsive>
2.0272

> <Gold.PLP.ligand.clash>
0.0000

> <Gold.PLP.ligand.torsion>
0.8518

> <Gold.PLP.Chemscore.Hbond>
1.9760

> <Gold.PLP.Chemscore.CHOScore>
0.1834

> <Gold.PLP.Chemscore.Metal>
0.0000

> <Gold.Chemscore.Hbonds>
donor molecule, donor type, donor heavy atom, donor atom, acceptor molecule, acceptor atom, score
      L1  H     1    29       P1  8028  0.53
      L1  H    24    47       P1  7957  1.00
      P1  H  6933  6944       L1     3  0.05
      P1  H  7954  7966       L1    24  0.40
      L1  C    19    42       P1  8028  0.20

> <Gold.PLP.Chemscore.Internal.Correction>
0.5665

> <Gold.Rescore>
     Score         DG    S(hbond)    S(metal)    S(lipo)     H(rot)  DE(clash)    DE(int)     intcor
      9.52     -16.67       1.53        0.00     115.06       2.89       3.16       4.00       ----

> <Gold.Chemscore.Fitness>
9.5169

> <Gold.Chemscore.DG>
-16.6692

> <Gold.Chemscore.ZeroCoef>
-5.4800

> <Gold.Chemscore.Hbond>
1.5321

> <Gold.Chemscore.Metal>
0.0000

> <Gold.Chemscore.Lipo>
115.0630

> <Gold.Chemscore.Internal_Hbond>
0.0000

> <Gold.Chemscore.DEClash>
3.1554

> <Gold.Chemscore.DEInternal>
3.9969

> <Gold.Chemscore.Rot>
2.8869

> <Gold.Chemscore.Internal.Correction>
   9.000000E+99

> <Gold.Chemscore.Hbonds>
donor molecule, donor type, donor heavy atom, donor atom, acceptor molecule, acceptor atom, score
      L1  H     1    29       P1  8028  0.50
      L1  H    24    47       P1  7957  0.76
      P1  H  6933  6944       L1     3  0.08
      P1  H  7954  7966       L1    24  0.01

> <Gold.Chemscore.Hbond.Weighted>
-5.1173

> <Gold.Chemscore.Metal.Weighted>
-0.0000

> <Gold.Chemscore.Lipo.Weighted>
-13.4624

> <Gold.Chemscore.Internal_Hbond.Weighted>
0.0000

> <Gold.Chemscore.DEClash.Weighted>
3.1554

> <Gold.Chemscore.DEInternal.Weighted>
3.9969

> <Gold.Chemscore.Rot.Weighted>
7.3905

> <Gold.Chemscore.Internal.Correction.Weighted>
   9.000000E+99

> <Gold.Protein.RotatedTorsions>
[ 6907 6896 6895 6894 ] final  -35.75 input  -60.11 | X-H torsion
[ 7974 7965 7964 7962 ] final   -9.65 input  175.53 | X-H torsion
[ 8008 7997 7996 7995 ] final  147.69 input   59.86 | X-H torsion
[ 10167 10162 10161 10158 ] final  -60.15 input  -65.29 | X-H torsion
[ 10718 10713 10712 10709 ] final   19.20 input   66.30 | X-H torsion
[ 10763 10752 10751 10750 ] final  -17.84 input  -60.55 | X-H torsion
[ 11005 11000 10999 10996 ] final  102.79 input  -57.11 | X-H torsion

> <Gold.Protein.ActiveResidues>
 VAL166  LYS551  ARG553  GLY616  TRP617  ASP618  TYR619  PRO620  LYS621  CYS622 
 ASP623  PHE694  ASN695  SER759  ASP760  ASP761  ALA762  ILE779  LEU786  VAL792 
 PHE793  MET794  SER795  GLU796  ALA797  LYS798  CYS799  TRP800  GLU811  SER814 

> <Gold.Protein.RotatedAtoms>
  151.0358  134.9572  159.8135 H   0  0  0  0  0  0  0  0  0  0  0  0  # atno 6907 bound_to 6896
  152.5354  134.2721  159.8985 H   0  0  0  0  0  0  0  0  0  0  0  0  # atno 6908 bound_to 6896
  151.2732  133.4203  159.2656 H   0  0  0  0  0  0  0  0  0  0  0  0  # atno 6909 bound_to 6896
  146.2245  140.2648  142.8353 H   0  0  0  0  0  0  0  0  0  0  0  0  # atno 7974 bound_to 7965
  156.2816  140.2149  156.5577 H   0  0  0  0  0  0  0  0  0  0  0  0  # atno 8008 bound_to 7997
  154.7238  140.0501  157.0687 H   0  0  0  0  0  0  0  0  0  0  0  0  # atno 8009 bound_to 7997
  155.0443  140.3149  155.4717 H   0  0  0  0  0  0  0  0  0  0  0  0  # atno 8010 bound_to 7997
  140.6090  143.2381  151.5755 H   0  0  0  0  0  0  0  0  0  0  0  0  # atno 10167 bound_to 10162
  157.1072  130.6493  149.5887 H   0  0  0  0  0  0  0  0  0  0  0  0  # atno 10718 bound_to 10713
  153.5801  135.7005  153.5467 H   0  0  0  0  0  0  0  0  0  0  0  0  # atno 10763 bound_to 10752
  153.3268  135.4058  155.1462 H   0  0  0  0  0  0  0  0  0  0  0  0  # atno 10764 bound_to 10752
  154.8619  135.3709  154.5328 H   0  0  0  0  0  0  0  0  0  0  0  0  # atno 10765 bound_to 10752
  139.8779  134.9238  156.5112 H   0  0  0  0  0  0  0  0  0  0  0  0  # atno 11005 bound_to 11000
  144.9312  140.7977  143.5688 LP  0  0  0  0  0  0  0  0  0  0  0  0  # atno 17320 bound_to 7965
  145.2592  139.1999  143.4901 LP  0  0  0  0  0  0  0  0  0  0  0  0  # atno 17321 bound_to 7965
  139.5346  144.2817  152.1224 LP  0  0  0  0  0  0  0  0  0  0  0  0  # atno 17342 bound_to 10162
  140.2012  144.4656  150.6430 LP  0  0  0  0  0  0  0  0  0  0  0  0  # atno 17343 bound_to 10162
  155.9859  130.4891  150.7054 LP  0  0  0  0  0  0  0  0  0  0  0  0  # atno 17370 bound_to 10713
  157.4591  131.0881  151.0765 LP  0  0  0  0  0  0  0  0  0  0  0  0  # atno 17371 bound_to 10713
  140.8519  133.8125  155.9177 LP  0  0  0  0  0  0  0  0  0  0  0  0  # atno 17394 bound_to 11000
  140.9136  134.2230  157.4971 LP  0  0  0  0  0  0  0  0  0  0  0  0  # atno 17395 bound_to 11000

$$$$
