AV-unprocessed.smi:1442|AV-procd|sdf|5876|dock10
  -GOLD-   22720 5553D 1   1.00000     0.00000
 Structure written by MMmdl.
 44 45  0  0  0  0  0  0  0  0  1 V2000
  146.4445  138.3048  152.4959 C   0  0  0  0  0  0  0  0  0  0  0  0
  147.8035  138.6660  152.8698 N   0  0  0  0  0  0  0  0  0  0  0  0
  148.1233  139.3758  153.9614 C   0  0  0  0  0  0  0  0  0  0  0  0
  147.2855  139.7930  154.7618 O   0  0  0  0  0  0  0  0  0  0  0  0
  149.6155  139.6565  154.1839 C   0  0  0  0  0  0  0  0  0  0  0  0
  150.4201  138.3392  154.2923 C   0  0  0  0  0  0  0  0  0  0  0  0
  151.8909  138.6171  154.6512 C   0  0  0  0  0  0  0  0  0  0  0  0
  151.9320  139.3794  155.9109 N   0  0  0  0  0  0  0  0  0  0  0  0
  152.2584  138.8908  157.1345 C   0  0  0  0  0  0  0  0  0  0  0  0
  152.5525  137.7113  157.3336 O   0  0  0  0  0  0  0  0  0  0  0  0
  152.2206  139.7938  158.1291 N   0  0  0  0  0  0  0  0  0  0  0  0
  152.5501  139.5262  159.5237 C   0  0  0  0  0  0  0  0  0  0  0  0
  153.5201  140.5786  160.0851 C   0  0  0  0  0  0  0  0  0  0  0  0
  152.8242  141.8829  160.3544 C   0  0  0  0  0  0  0  0  0  0  0  0
  152.4932  142.4521  161.6173 C   0  0  0  0  0  0  0  0  0  0  0  0
  151.8761  143.6176  161.5109 N   0  0  0  0  0  0  0  0  0  0  0  0
  151.7956  143.8345  160.1821 N   0  0  0  0  0  0  0  0  0  0  0  0
  151.1659  145.0424  159.6929 C   0  0  0  0  0  0  0  0  0  0  0  0
  152.3589  142.8048  159.4596 C   0  0  0  0  0  0  0  0  0  0  0  0
  151.3336  140.7091  155.7414 C   0  0  0  0  0  0  0  0  0  0  0  0
  149.8341  140.5415  155.4343 C   0  0  0  0  0  0  0  0  0  0  0  0
  146.4518  137.7535  151.5555 H   0  0  0  0  0  0  0  0  0  0  0  0
  145.8274  139.1944  152.3647 H   0  0  0  0  0  0  0  0  0  0  0  0
  145.9875  137.6724  153.2583 H   0  0  0  0  0  0  0  0  0  0  0  0
  148.5482  138.3587  152.2608 H   0  0  0  0  0  0  0  0  0  0  0  0
  149.9963  140.2055  153.3206 H   0  0  0  0  0  0  0  0  0  0  0  0
  149.9857  137.6872  155.0520 H   0  0  0  0  0  0  0  0  0  0  0  0
  150.3694  137.7919  153.3501 H   0  0  0  0  0  0  0  0  0  0  0  0
  152.4481  137.6809  154.6810 H   0  0  0  0  0  0  0  0  0  0  0  0
  152.3610  139.2047  153.8612 H   0  0  0  0  0  0  0  0  0  0  0  0
  151.9591  140.7406  157.8966 H   0  0  0  0  0  0  0  0  0  0  0  0
  151.6219  139.5339  160.0960 H   0  0  0  0  0  0  0  0  0  0  0  0
  152.9688  138.5230  159.6234 H   0  0  0  0  0  0  0  0  0  0  0  0
  153.9783  140.2023  161.0004 H   0  0  0  0  0  0  0  0  0  0  0  0
  154.3411  140.7215  159.3813 H   0  0  0  0  0  0  0  0  0  0  0  0
  152.6802  142.0516  162.6030 H   0  0  0  0  0  0  0  0  0  0  0  0
  151.3329  145.1426  158.6202 H   0  0  0  0  0  0  0  0  0  0  0  0
  151.5866  145.9121  160.1990 H   0  0  0  0  0  0  0  0  0  0  0  0
  150.0933  145.0006  159.8835 H   0  0  0  0  0  0  0  0  0  0  0  0
  152.3821  142.8119  158.3797 H   0  0  0  0  0  0  0  0  0  0  0  0
  151.4662  141.3455  156.6175 H   0  0  0  0  0  0  0  0  0  0  0  0
  151.8301  141.2302  154.9217 H   0  0  0  0  0  0  0  0  0  0  0  0
  149.3791  141.5212  155.2835 H   0  0  0  0  0  0  0  0  0  0  0  0
  149.3395  140.1023  156.3025 H   0  0  0  0  0  0  0  0  0  0  0  0
  1  2  1  0  0  0  0
  1 22  1  0  0  0  0
  1 23  1  0  0  0  0
  1 24  1  0  0  0  0
  2  3  1  0  0  0  0
  2 25  1  0  0  0  0
  3  4  2  0  0  0  0
  3  5  1  0  0  0  0
  5 21  1  0  0  0  0
  5  6  1  0  0  0  0
  5 26  1  0  0  0  0
  6  7  1  0  0  0  0
  6 27  1  0  0  0  0
  6 28  1  0  0  0  0
  7  8  1  0  0  0  0
  7 29  1  0  0  0  0
  7 30  1  0  0  0  0
  8  9  1  0  0  0  0
  8 20  1  0  0  0  0
  9 10  2  0  0  0  0
  9 11  1  0  0  0  0
 11 12  1  0  0  0  0
 11 31  1  0  0  0  0
 12 13  1  0  0  0  0
 12 32  1  0  0  0  0
 12 33  1  0  0  0  0
 13 14  1  0  0  0  0
 13 34  1  0  0  0  0
 13 35  1  0  0  0  0
 14 19  2  0  0  0  0
 14 15  1  0  0  0  0
 15 16  2  0  0  0  0
 15 36  1  0  0  0  0
 16 17  1  0  0  0  0
 17 18  1  0  0  0  0
 17 19  1  0  0  0  0
 18 37  1  0  0  0  0
 18 38  1  0  0  0  0
 18 39  1  0  0  0  0
 19 40  1  0  0  0  0
 20 21  1  0  0  0  0
 20 41  1  0  0  0  0
 20 42  1  0  0  0  0
 21 43  1  0  0  0  0
 21 44  1  0  0  0  0
M  END
> <s_m_source_file>
AV-unprocessed.smi

> <i_m_source_file_index>
1442

> <i_lp_mmshare_version>
43012

> <i_f3d_flags>
0

> <s_epik_input>
W0NIM11bTkhdQyg9TylbQ0hdMVtDSDJdW0NIMl1OKFtDSDJdW0NIMl0xKUMoPU8pW05IXVtDSDJdW0NIMl1jMltjSF1ubihbQ0gzXSlbY0hdMg==

> <s_epik_cmdline>
J2VwaWtfcHl0aG9uJywgJy1waCcsICc3LjAnLCAnLXRuJywgJzgnLCAnLW1hJywgJzIwMCcsICctbWV0YWxfYmluZGluZycsICctaW1hZScsICc8aW5maWxlLm1hZT4nLCAnLW9tYWUnLCAnPG91dGZpbGUubWFlPic=

> <r_lp_tautomer_probability>
1

> <r_epik_Ionization_Penalty>
0.000562975

> <r_epik_Ionization_Penalty_Charging>
0

> <r_epik_Ionization_Penalty_Neutral>
0.000562975

> <r_epik_State_Penalty>
-0

> <r_epik_Charging_Adjusted_Penalty>
0

> <i_epik_Tot_Q>
0

> <i_epik_Tot_abs_Q>
0

> <r_epik_Metal_State_Penalty>
-0

> <b_epik_Metal_Only>
0

> <s_lp_Force_Field>
OPLS_2005

> <r_lp_Energy>
25.7174

> <b_lp_Chiralities_Consistent>
1

> <s_lp_Variant>
AV-unprocessed.smi:1442-1

> <Gold.Version>
5.8.1

> <Gold.Id.Protein>
6NUR|6NUR_protein|mol2

> <Gold.PLP.Fitness>
47.7871

> <Gold.PLP.PLP>
-47.8986

> <Gold.PLP.part.hbond>
-2.0000

> <Gold.PLP.part.metal>
0.0000

> <Gold.PLP.part.buried>
-2.1472

> <Gold.PLP.part.nonpolar>
-43.8711

> <Gold.PLP.part.repulsive>
0.3244

> <Gold.PLP.ligand.clash>
1.5646

> <Gold.PLP.ligand.torsion>
0.2847

> <Gold.PLP.Chemscore.Hbond>
0.6503

> <Gold.PLP.Chemscore.CHOScore>
0.0000

> <Gold.PLP.Chemscore.Metal>
0.0000

> <Gold.Chemscore.Hbonds>
donor molecule, donor type, donor heavy atom, donor atom, acceptor molecule, acceptor atom, score
      L1  H     2    25       P1  7948  0.32

> <Gold.PLP.Chemscore.Internal.Correction>
0.0718

> <Gold.Rescore>
     Score         DG    S(hbond)    S(metal)    S(lipo)     H(rot)  DE(clash)    DE(int)     intcor
     16.13     -16.34       0.94        0.00     104.56       1.77       0.05       0.16       ----

> <Gold.Chemscore.Fitness>
16.1332

> <Gold.Chemscore.DG>
-16.3423

> <Gold.Chemscore.ZeroCoef>
-5.4800

> <Gold.Chemscore.Hbond>
0.9432

> <Gold.Chemscore.Metal>
0.0000

> <Gold.Chemscore.Lipo>
104.5569

> <Gold.Chemscore.Internal_Hbond>
0.0000

> <Gold.Chemscore.DEClash>
0.0518

> <Gold.Chemscore.DEInternal>
0.1573

> <Gold.Chemscore.Rot>
1.7661

> <Gold.Chemscore.Internal.Correction>
   9.000000E+99

> <Gold.Chemscore.Hbonds>
donor molecule, donor type, donor heavy atom, donor atom, acceptor molecule, acceptor atom, score
      L1  H     2    25       P1  7948  0.32

> <Gold.Chemscore.Hbond.Weighted>
-3.1503

> <Gold.Chemscore.Metal.Weighted>
-0.0000

> <Gold.Chemscore.Lipo.Weighted>
-12.2332

> <Gold.Chemscore.Internal_Hbond.Weighted>
0.0000

> <Gold.Chemscore.DEClash.Weighted>
0.0518

> <Gold.Chemscore.DEInternal.Weighted>
0.1573

> <Gold.Chemscore.Rot.Weighted>
4.5211

> <Gold.Chemscore.Internal.Correction.Weighted>
   9.000000E+99

> <Gold.Protein.RotatedTorsions>
[ 6907 6896 6895 6894 ] final -108.39 input  -60.11 | X-H torsion
[ 7974 7965 7964 7962 ] final   83.58 input  175.53 | X-H torsion
[ 8008 7997 7996 7995 ] final -115.14 input   59.86 | X-H torsion
[ 10167 10162 10161 10158 ] final   78.57 input  -65.29 | X-H torsion
[ 10718 10713 10712 10709 ] final  -12.91 input   66.30 | X-H torsion
[ 10763 10752 10751 10750 ] final   90.40 input  -60.55 | X-H torsion
[ 11005 11000 10999 10996 ] final   33.41 input  -57.11 | X-H torsion

> <Gold.Protein.ActiveResidues>
 VAL166  LYS551  ARG553  GLY616  TRP617  ASP618  TYR619  PRO620  LYS621  CYS622 
 ASP623  PHE694  ASN695  SER759  ASP760  ASP761  ALA762  ILE779  LEU786  VAL792 
 PHE793  MET794  SER795  GLU796  ALA797  LYS798  CYS799  TRP800  GLU811  SER814 

> <Gold.Protein.RotatedAtoms>
  150.7499  133.9685  159.3537 H   0  0  0  0  0  0  0  0  0  0  0  0  # atno 6907 bound_to 6896
  151.7616  135.0806  160.0356 H   0  0  0  0  0  0  0  0  0  0  0  0  # atno 6908 bound_to 6896
  152.3399  133.6018  159.5905 H   0  0  0  0  0  0  0  0  0  0  0  0  # atno 6909 bound_to 6896
  145.6100  139.2367  143.2197 H   0  0  0  0  0  0  0  0  0  0  0  0  # atno 7974 bound_to 7965
  155.0474  140.0392  157.2531 H   0  0  0  0  0  0  0  0  0  0  0  0  # atno 8008 bound_to 7997
  154.7166  140.2703  155.6556 H   0  0  0  0  0  0  0  0  0  0  0  0  # atno 8009 bound_to 7997
  156.2805  140.2711  156.1824 H   0  0  0  0  0  0  0  0  0  0  0  0  # atno 8010 bound_to 7997
  139.9696  144.5904  150.7998 H   0  0  0  0  0  0  0  0  0  0  0  0  # atno 10167 bound_to 10162
  156.6378  130.4919  149.6106 H   0  0  0  0  0  0  0  0  0  0  0  0  # atno 10718 bound_to 10713
  153.1972  135.4435  155.0222 H   0  0  0  0  0  0  0  0  0  0  0  0  # atno 10763 bound_to 10752
  154.8125  135.3301  154.7268 H   0  0  0  0  0  0  0  0  0  0  0  0  # atno 10764 bound_to 10752
  153.7716  135.6984  153.4961 H   0  0  0  0  0  0  0  0  0  0  0  0  # atno 10765 bound_to 10752
  140.2634  134.3166  155.7850 H   0  0  0  0  0  0  0  0  0  0  0  0  # atno 11005 bound_to 11000
  146.1511  140.6923  142.9321 LP  0  0  0  0  0  0  0  0  0  0  0  0  # atno 17320 bound_to 7965
  144.7274  140.4566  143.6963 LP  0  0  0  0  0  0  0  0  0  0  0  0  # atno 17321 bound_to 7965
  140.7526  143.2994  151.3120 LP  0  0  0  0  0  0  0  0  0  0  0  0  # atno 17342 bound_to 10162
  139.6491  144.0395  152.2613 LP  0  0  0  0  0  0  0  0  0  0  0  0  # atno 17343 bound_to 10162
  156.2183  130.6721  151.1342 LP  0  0  0  0  0  0  0  0  0  0  0  0  # atno 17370 bound_to 10713
  157.7180  131.0698  150.6249 LP  0  0  0  0  0  0  0  0  0  0  0  0  # atno 17371 bound_to 10713
  141.2187  133.7423  156.9222 LP  0  0  0  0  0  0  0  0  0  0  0  0  # atno 17394 bound_to 11000
  140.1442  134.9273  157.2508 LP  0  0  0  0  0  0  0  0  0  0  0  0  # atno 17395 bound_to 11000

$$$$
