AV-unprocessed.smi:3149|AV-procd|sdf|12004|dock6
  -GOLD-   2272017413D 1   1.00000     0.00000
 Structure written by MMmdl.
 37 38  0  0  0  0  0  0  0  0  1 V2000
  151.6685  138.8117  154.5911 C   0  0  0  0  0  0  0  0  0  0  0  0
  151.1554  139.5511  155.8463 C   0  0  1  0  0  0  0  0  0  0  0  0
  152.2814  139.8259  156.7353 N   0  0  0  0  0  0  0  0  0  0  0  0
  152.0302  139.4358  158.1281 C   0  0  0  0  0  0  0  0  0  0  0  0
  153.2296  139.7650  159.0204 C   0  0  0  0  0  0  0  0  0  0  0  0
  154.3196  139.2330  158.8104 O   0  0  0  0  0  0  0  0  0  0  0  0
  153.0638  140.7442  160.0036 N   0  0  0  0  0  0  0  0  0  0  0  0
  154.1939  141.5223  160.4877 C   0  0  0  0  0  0  0  0  0  0  0  0
  153.1735  142.6344  160.7524 C   0  0  0  0  0  0  0  0  0  0  0  0
  152.2248  141.9139  159.7886 C   0  0  0  0  0  0  0  0  0  0  0  0
  150.4580  140.9003  155.5189 C   0  0  2  0  0  0  0  0  0  0  0  0
  150.1123  141.7104  156.7844 C   0  0  0  0  0  0  0  0  0  0  0  0
  149.2640  140.7196  154.7015 N   0  0  0  0  0  0  0  0  0  0  0  0
  148.4432  141.6907  154.1656 C   0  0  0  0  0  0  0  0  0  0  0  0
  147.4548  141.0536  153.4715 C   0  0  0  0  0  0  0  0  0  0  0  0
  147.7567  139.6740  153.6429 C   0  0  0  0  0  0  0  0  0  0  0  0
  148.8380  139.4766  154.3790 N   0  0  0  0  0  0  0  0  0  0  0  0
  150.8526  138.5502  153.9174 H   0  0  0  0  0  0  0  0  0  0  0  0
  152.1683  137.8767  154.8415 H   0  0  0  0  0  0  0  0  0  0  0  0
  152.3743  139.4260  154.0312 H   0  0  0  0  0  0  0  0  0  0  0  0
  150.4327  138.9133  156.3583 H   0  0  0  0  0  0  0  0  0  0  0  0
  153.1192  139.3957  156.3701 H   0  0  0  0  0  0  0  0  0  0  0  0
  151.1382  139.9364  158.5073 H   0  0  0  0  0  0  0  0  0  0  0  0
  151.8431  138.3642  158.1909 H   0  0  0  0  0  0  0  0  0  0  0  0
  154.6643  141.1120  161.3817 H   0  0  0  0  0  0  0  0  0  0  0  0
  154.9154  141.7773  159.7086 H   0  0  0  0  0  0  0  0  0  0  0  0
  152.8119  142.6535  161.7821 H   0  0  0  0  0  0  0  0  0  0  0  0
  153.4895  143.6220  160.4153 H   0  0  0  0  0  0  0  0  0  0  0  0
  152.2710  142.3064  158.7712 H   0  0  0  0  0  0  0  0  0  0  0  0
  151.2033  141.8034  160.1532 H   0  0  0  0  0  0  0  0  0  0  0  0
  151.1478  141.5017  154.9238 H   0  0  0  0  0  0  0  0  0  0  0  0
  151.0084  141.9863  157.3399 H   0  0  0  0  0  0  0  0  0  0  0  0
  149.4675  141.1453  157.4582 H   0  0  0  0  0  0  0  0  0  0  0  0
  149.5951  142.6354  156.5271 H   0  0  0  0  0  0  0  0  0  0  0  0
  148.6294  142.7434  154.3196 H   0  0  0  0  0  0  0  0  0  0  0  0
  146.6402  141.5044  152.9245 H   0  0  0  0  0  0  0  0  0  0  0  0
  147.2260  138.8160  153.2571 H   0  0  0  0  0  0  0  0  0  0  0  0
  1  2  1  0  0  0  0
  1 18  1  0  0  0  0
  1 19  1  0  0  0  0
  1 20  1  0  0  0  0
  2  3  1  0  0  0  0
  2 11  1  0  0  0  0
  2 21  1  0  0  0  0
  3  4  1  0  0  0  0
  3 22  1  0  0  0  0
  4  5  1  0  0  0  0
  4 23  1  0  0  0  0
  4 24  1  0  0  0  0
  5  6  2  0  0  0  0
  5  7  1  0  0  0  0
  7 10  1  0  0  0  0
  7  8  1  0  0  0  0
  8  9  1  0  0  0  0
  8 25  1  0  0  0  0
  8 26  1  0  0  0  0
  9 10  1  0  0  0  0
  9 27  1  0  0  0  0
  9 28  1  0  0  0  0
 10 29  1  0  0  0  0
 10 30  1  0  0  0  0
 11 12  1  0  0  0  0
 11 13  1  0  0  0  0
 11 31  1  0  0  0  0
 12 32  1  0  0  0  0
 12 33  1  0  0  0  0
 12 34  1  0  0  0  0
 13 17  1  0  0  0  0
 13 14  1  0  0  0  0
 14 15  2  0  0  0  0
 14 35  1  0  0  0  0
 15 16  1  0  0  0  0
 15 36  1  0  0  0  0
 16 17  2  0  0  0  0
 16 37  1  0  0  0  0
M  END
> <s_m_source_file>
AV-unprocessed.smi

> <i_m_source_file_index>
3149

> <i_lp_mmshare_version>
43012

> <i_f3d_flags>
0

> <s_epik_input>
bjFbY0hdW2NIXVtjSF1uMVtDQEBIXShbQ0gzXSlbQ0BIXShbQ0gzXSlbTkhdW0NIMl1DKD1PKU4yW0NIMl1bQ0gyXVtDSDJdMg==

> <s_epik_cmdline>
J2VwaWtfcHl0aG9uJywgJy1waCcsICc3LjAnLCAnLXRuJywgJzgnLCAnLW1hJywgJzIwMCcsICctbWV0YWxfYmluZGluZycsICctaW1hZScsICc8aW5maWxlLm1hZT4nLCAnLW9tYWUnLCAnPG91dGZpbGUubWFlPic=

> <r_lp_tautomer_probability>
1

> <r_epik_Ionization_Penalty>
0.918674

> <r_epik_Ionization_Penalty_Charging>
0

> <r_epik_Ionization_Penalty_Neutral>
0.918674

> <r_epik_State_Penalty>
0.958258

> <r_epik_Charging_Adjusted_Penalty>
0.958258

> <i_epik_Tot_Q>
0

> <i_epik_Tot_abs_Q>
0

> <r_epik_Metal_State_Penalty>
0.956881

> <b_epik_Metal_Only>
0

> <s_lp_Force_Field>
OPLS_2005

> <r_lp_Energy>
23.4298

> <b_lp_Chiralities_Consistent>
1

> <s_lp_Variant>
AV-unprocessed.smi:3149-6

> <Gold.Version>
5.8.1

> <Gold.Id.Protein>
6NUR|6NUR_protein|mol2

> <Gold.PLP.Fitness>
42.7377

> <Gold.PLP.PLP>
-38.1223

> <Gold.PLP.part.hbond>
-1.7636

> <Gold.PLP.part.metal>
0.0000

> <Gold.PLP.part.buried>
-2.6618

> <Gold.PLP.part.nonpolar>
-34.1568

> <Gold.PLP.part.repulsive>
0.1273

> <Gold.PLP.ligand.clash>
0.0000

> <Gold.PLP.ligand.torsion>
1.1532

> <Gold.PLP.Chemscore.Hbond>
1.0000

> <Gold.PLP.Chemscore.CHOScore>
1.0000

> <Gold.PLP.Chemscore.Metal>
0.0000

> <Gold.Chemscore.Hbonds>
donor molecule, donor type, donor heavy atom, donor atom, acceptor molecule, acceptor atom, score
      P1  H  7997  8009       L1     6  1.00
      L1  C    14    35       P1  8028  1.00

> <Gold.PLP.Chemscore.Internal.Correction>
0.9218

> <Gold.Rescore>
     Score         DG    S(hbond)    S(metal)    S(lipo)     H(rot)  DE(clash)    DE(int)     intcor
     11.65     -14.07       0.98        0.00      84.60       1.79       0.00       2.42       ----

> <Gold.Chemscore.Fitness>
11.6514

> <Gold.Chemscore.DG>
-14.0728

> <Gold.Chemscore.ZeroCoef>
-5.4800

> <Gold.Chemscore.Hbond>
0.9790

> <Gold.Chemscore.Metal>
0.0000

> <Gold.Chemscore.Lipo>
84.6041

> <Gold.Chemscore.Internal_Hbond>
0.0000

> <Gold.Chemscore.DEClash>
0.0009

> <Gold.Chemscore.DEInternal>
2.4205

> <Gold.Chemscore.Rot>
1.7874

> <Gold.Chemscore.Internal.Correction>
   9.000000E+99

> <Gold.Chemscore.Hbonds>
donor molecule, donor type, donor heavy atom, donor atom, acceptor molecule, acceptor atom, score
      P1  H  7997  8009       L1     6  0.50

> <Gold.Chemscore.Hbond.Weighted>
-3.2700

> <Gold.Chemscore.Metal.Weighted>
-0.0000

> <Gold.Chemscore.Lipo.Weighted>
-9.8987

> <Gold.Chemscore.Internal_Hbond.Weighted>
0.0000

> <Gold.Chemscore.DEClash.Weighted>
0.0009

> <Gold.Chemscore.DEInternal.Weighted>
2.4205

> <Gold.Chemscore.Rot.Weighted>
4.5758

> <Gold.Chemscore.Internal.Correction.Weighted>
   9.000000E+99

> <Gold.Protein.RotatedTorsions>
[ 6907 6896 6895 6894 ] final   31.71 input  -60.11 | X-H torsion
[ 7974 7965 7964 7962 ] final -138.88 input  175.53 | X-H torsion
[ 8008 7997 7996 7995 ] final  130.40 input   59.86 | X-H torsion
[ 10167 10162 10161 10158 ] final -136.07 input  -65.29 | X-H torsion
[ 10718 10713 10712 10709 ] final    9.69 input   66.30 | X-H torsion
[ 10763 10752 10751 10750 ] final  -34.99 input  -60.55 | X-H torsion
[ 11005 11000 10999 10996 ] final  143.65 input  -57.11 | X-H torsion

> <Gold.Protein.ActiveResidues>
 VAL166  LYS551  ARG553  GLY616  TRP617  ASP618  TYR619  PRO620  LYS621  CYS622 
 ASP623  PHE694  ASN695  SER759  ASP760  ASP761  ALA762  ILE779  LEU786  VAL792 
 PHE793  MET794  SER795  GLU796  ALA797  LYS798  CYS799  TRP800  GLU811  SER814 

> <Gold.Protein.RotatedAtoms>
  152.0641  134.9575  160.0574 H   0  0  0  0  0  0  0  0  0  0  0  0  # atno 6907 bound_to 6896
  152.0927  133.4204  159.4559 H   0  0  0  0  0  0  0  0  0  0  0  0  # atno 6908 bound_to 6896
  150.6837  134.2772  159.4656 H   0  0  0  0  0  0  0  0  0  0  0  0  # atno 6909 bound_to 6896
  144.8722  140.6384  143.5259 H   0  0  0  0  0  0  0  0  0  0  0  0  # atno 7974 bound_to 7965
  156.2954  140.2597  156.2756 H   0  0  0  0  0  0  0  0  0  0  0  0  # atno 8008 bound_to 7997
  154.9652  140.0392  157.2227 H   0  0  0  0  0  0  0  0  0  0  0  0  # atno 8009 bound_to 7997
  154.7910  140.2811  155.5996 H   0  0  0  0  0  0  0  0  0  0  0  0  # atno 8010 bound_to 7997
  139.8715  143.6952  152.2639 H   0  0  0  0  0  0  0  0  0  0  0  0  # atno 10167 bound_to 10162
  156.9700  130.5965  149.5668 H   0  0  0  0  0  0  0  0  0  0  0  0  # atno 10718 bound_to 10713
  153.8558  135.6844  153.4787 H   0  0  0  0  0  0  0  0  0  0  0  0  # atno 10763 bound_to 10752
  153.1370  135.4673  154.9436 H   0  0  0  0  0  0  0  0  0  0  0  0  # atno 10764 bound_to 10752
  154.7781  135.3260  154.7997 H   0  0  0  0  0  0  0  0  0  0  0  0  # atno 10765 bound_to 10752
  140.0571  134.9225  157.1118 H   0  0  0  0  0  0  0  0  0  0  0  0  # atno 11005 bound_to 11000
  145.4109  139.1580  143.4126 LP  0  0  0  0  0  0  0  0  0  0  0  0  # atno 17320 bound_to 7965
  146.2938  140.4213  142.8729 LP  0  0  0  0  0  0  0  0  0  0  0  0  # atno 17321 bound_to 7965
  139.7280  144.7588  151.0848 LP  0  0  0  0  0  0  0  0  0  0  0  0  # atno 17342 bound_to 10162
  140.7760  143.5124  150.9636 LP  0  0  0  0  0  0  0  0  0  0  0  0  # atno 17343 bound_to 10162
  156.0286  130.5379  150.8475 LP  0  0  0  0  0  0  0  0  0  0  0  0  # atno 17370 bound_to 10713
  157.5599  131.0945  150.9574 LP  0  0  0  0  0  0  0  0  0  0  0  0  # atno 17371 bound_to 10713
  140.3828  134.2269  155.7170 LP  0  0  0  0  0  0  0  0  0  0  0  0  # atno 17394 bound_to 11000
  141.1956  133.8100  157.0705 LP  0  0  0  0  0  0  0  0  0  0  0  0  # atno 17395 bound_to 11000

$$$$
