AV-unprocessed.smi:2028|AV-procd|sdf|8221|dock3
  -GOLD-   2272010493D 1   1.00000     0.00000
 Structure written by MMmdl.
 38 39  0  0  0  0  0  0  0  0  1 V2000
  150.2845  141.9153  156.0733 C   0  0  0  0  0  0  0  0  0  0  0  0
  149.7071  140.4991  156.2423 C   0  0  0  0  0  0  0  0  0  0  0  0
  148.4802  140.5646  157.1758 C   0  0  0  0  0  0  0  0  0  0  0  0
  149.3079  139.9516  154.8555 C   0  0  0  0  0  0  0  0  0  0  0  0
  150.7642  139.6794  156.8447 N   0  0  0  0  0  0  0  0  0  0  0  0
  151.9771  139.3767  156.3472 C   0  0  0  0  0  0  0  0  0  0  0  0
  152.4074  139.7943  155.2725 O   0  0  0  0  0  0  0  0  0  0  0  0
  152.8357  138.4376  157.1953 C   0  0  0  0  0  0  0  0  0  0  0  0
  153.2056  139.1100  158.4851 C   0  0  0  0  0  0  0  0  0  0  0  0
  153.9759  138.5854  159.4941 C   0  0  0  0  0  0  0  0  0  0  0  0
  154.1505  139.6937  160.8270 S   0  0  0  0  0  0  0  0  0  0  0  0
  153.1539  140.8563  159.9470 C   0  0  0  0  0  0  0  0  0  0  0  0
  152.7638  142.1510  160.4010 N   0  0  0  0  0  0  0  0  0  0  0  0
  152.8234  142.5200  161.8122 C   0  0  0  0  0  0  0  0  0  0  0  0
  152.5535  144.0277  161.8648 C   0  0  0  0  0  0  0  0  0  0  0  0
  151.9813  144.3847  160.4942 C   0  0  0  0  0  0  0  0  0  0  0  0
  152.2894  143.1599  159.6489 C   0  0  0  0  0  0  0  0  0  0  0  0
  152.0983  143.1534  158.4338 O   0  0  0  0  0  0  0  0  0  0  0  0
  152.7516  140.4065  158.7539 N   0  0  0  0  0  0  0  0  0  0  0  0
  149.5534  142.5928  155.6306 H   0  0  0  0  0  0  0  0  0  0  0  0
  151.1621  141.9125  155.4253 H   0  0  0  0  0  0  0  0  0  0  0  0
  150.5855  142.3396  157.0320 H   0  0  0  0  0  0  0  0  0  0  0  0
  148.7558  140.9231  158.1685 H   0  0  0  0  0  0  0  0  0  0  0  0
  148.0062  139.5906  157.2981 H   0  0  0  0  0  0  0  0  0  0  0  0
  147.7224  141.2425  156.7818 H   0  0  0  0  0  0  0  0  0  0  0  0
  148.5956  140.6146  154.3635 H   0  0  0  0  0  0  0  0  0  0  0  0
  148.8359  138.9712  154.9199 H   0  0  0  0  0  0  0  0  0  0  0  0
  150.1747  139.8586  154.2002 H   0  0  0  0  0  0  0  0  0  0  0  0
  150.5339  139.2686  157.7379 H   0  0  0  0  0  0  0  0  0  0  0  0
  152.2785  137.5194  157.3846 H   0  0  0  0  0  0  0  0  0  0  0  0
  153.7284  138.1461  156.6396 H   0  0  0  0  0  0  0  0  0  0  0  0
  154.4441  137.6132  159.5361 H   0  0  0  0  0  0  0  0  0  0  0  0
  152.0562  141.9705  162.3599 H   0  0  0  0  0  0  0  0  0  0  0  0
  153.7931  142.2773  162.2496 H   0  0  0  0  0  0  0  0  0  0  0  0
  151.8721  144.2889  162.6752 H   0  0  0  0  0  0  0  0  0  0  0  0
  153.4851  144.5707  162.0302 H   0  0  0  0  0  0  0  0  0  0  0  0
  150.9014  144.5296  160.5394 H   0  0  0  0  0  0  0  0  0  0  0  0
  152.4385  145.2828  160.0777 H   0  0  0  0  0  0  0  0  0  0  0  0
  1  2  1  0  0  0  0
  1 20  1  0  0  0  0
  1 21  1  0  0  0  0
  1 22  1  0  0  0  0
  2  3  1  0  0  0  0
  2  4  1  0  0  0  0
  2  5  1  0  0  0  0
  3 23  1  0  0  0  0
  3 24  1  0  0  0  0
  3 25  1  0  0  0  0
  4 26  1  0  0  0  0
  4 27  1  0  0  0  0
  4 28  1  0  0  0  0
  5  6  1  0  0  0  0
  5 29  1  0  0  0  0
  6  7  2  0  0  0  0
  6  8  1  0  0  0  0
  8  9  1  0  0  0  0
  8 30  1  0  0  0  0
  8 31  1  0  0  0  0
  9 19  1  0  0  0  0
  9 10  2  0  0  0  0
 10 11  1  0  0  0  0
 10 32  1  0  0  0  0
 11 12  1  0  0  0  0
 12 13  1  0  0  0  0
 12 19  2  0  0  0  0
 13 17  1  0  0  0  0
 13 14  1  0  0  0  0
 14 15  1  0  0  0  0
 14 33  1  0  0  0  0
 14 34  1  0  0  0  0
 15 16  1  0  0  0  0
 15 35  1  0  0  0  0
 15 36  1  0  0  0  0
 16 17  1  0  0  0  0
 16 37  1  0  0  0  0
 16 38  1  0  0  0  0
 17 18  2  0  0  0  0
M  END
> <s_m_source_file>
AV-unprocessed.smi

> <i_m_source_file_index>
2028

> <i_lp_mmshare_version>
43012

> <i_f3d_flags>
0

> <s_epik_input>
W0NIM11DKFtDSDNdKShbQ0gzXSlbTkhdQyg9TylbQ0gyXWMxW2NIXXNjKG4xKU4yW0NIMl1bQ0gyXVtDSDJdQzI9Tw==

> <s_epik_cmdline>
J2VwaWtfcHl0aG9uJywgJy1waCcsICc3LjAnLCAnLXRuJywgJzgnLCAnLW1hJywgJzIwMCcsICctbWV0YWxfYmluZGluZycsICctaW1hZScsICc8aW5maWxlLm1hZT4nLCAnLW9tYWUnLCAnPG91dGZpbGUubWFlPic=

> <r_lp_tautomer_probability>
1

> <r_epik_Ionization_Penalty>
2.98188e-05

> <r_epik_Ionization_Penalty_Charging>
0

> <r_epik_Ionization_Penalty_Neutral>
2.98188e-05

> <r_epik_State_Penalty>
-0

> <r_epik_Charging_Adjusted_Penalty>
0

> <i_epik_Tot_Q>
0

> <i_epik_Tot_abs_Q>
0

> <r_epik_Metal_State_Penalty>
-0

> <b_epik_Metal_Only>
0

> <s_lp_Force_Field>
OPLS_2005

> <r_lp_Energy>
17.4642

> <b_lp_Chiralities_Consistent>
1

> <s_lp_Variant>
AV-unprocessed.smi:2028-1

> <Gold.Version>
5.8.1

> <Gold.Id.Protein>
6NUR|6NUR_protein|mol2

> <Gold.PLP.Fitness>
41.7868

> <Gold.PLP.PLP>
-38.0069

> <Gold.PLP.part.hbond>
-2.0000

> <Gold.PLP.part.metal>
0.0000

> <Gold.PLP.part.buried>
-2.5031

> <Gold.PLP.part.nonpolar>
-32.2137

> <Gold.PLP.part.repulsive>
0.0826

> <Gold.PLP.ligand.clash>
0.0000

> <Gold.PLP.ligand.torsion>
0.1817

> <Gold.PLP.Chemscore.Hbond>
1.3752

> <Gold.PLP.Chemscore.CHOScore>
0.0000

> <Gold.PLP.Chemscore.Metal>
0.0000

> <Gold.Chemscore.Hbonds>
donor molecule, donor type, donor heavy atom, donor atom, acceptor molecule, acceptor atom, score
      P1  H  7989  7998       L1     7  0.41
      P1  H  7997  8010       L1     7  0.59

> <Gold.PLP.Chemscore.Internal.Correction>
0.0177

> <Gold.Rescore>
     Score         DG    S(hbond)    S(metal)    S(lipo)     H(rot)  DE(clash)    DE(int)     intcor
     11.63     -14.50       0.92        0.00      82.35       1.44       0.10       2.76       ----

> <Gold.Chemscore.Fitness>
11.6282

> <Gold.Chemscore.DG>
-14.4955

> <Gold.Chemscore.ZeroCoef>
-5.4800

> <Gold.Chemscore.Hbond>
0.9158

> <Gold.Chemscore.Metal>
0.0000

> <Gold.Chemscore.Lipo>
82.3545

> <Gold.Chemscore.Internal_Hbond>
0.0000

> <Gold.Chemscore.DEClash>
0.1040

> <Gold.Chemscore.DEInternal>
2.7633

> <Gold.Chemscore.Rot>
1.4371

> <Gold.Chemscore.Internal.Correction>
   9.000000E+99

> <Gold.Chemscore.Hbonds>
donor molecule, donor type, donor heavy atom, donor atom, acceptor molecule, acceptor atom, score
      P1  H  7989  7998       L1     7  0.41
      P1  H  7997  8010       L1     7  0.15

> <Gold.Chemscore.Hbond.Weighted>
-3.0588

> <Gold.Chemscore.Metal.Weighted>
-0.0000

> <Gold.Chemscore.Lipo.Weighted>
-9.6355

> <Gold.Chemscore.Internal_Hbond.Weighted>
0.0000

> <Gold.Chemscore.DEClash.Weighted>
0.1040

> <Gold.Chemscore.DEInternal.Weighted>
2.7633

> <Gold.Chemscore.Rot.Weighted>
3.6789

> <Gold.Chemscore.Internal.Correction.Weighted>
   9.000000E+99

> <Gold.Protein.RotatedTorsions>
[ 6907 6896 6895 6894 ] final    6.37 input  -60.11 | X-H torsion
[ 7974 7965 7964 7962 ] final  172.72 input  175.53 | X-H torsion
[ 8008 7997 7996 7995 ] final  110.36 input   59.86 | X-H torsion
[ 10167 10162 10161 10158 ] final  136.46 input  -65.29 | X-H torsion
[ 10718 10713 10712 10709 ] final   39.44 input   66.30 | X-H torsion
[ 10763 10752 10751 10750 ] final -172.88 input  -60.55 | X-H torsion
[ 11005 11000 10999 10996 ] final -132.46 input  -57.11 | X-H torsion

> <Gold.Protein.ActiveResidues>
 VAL166  LYS551  ARG553  GLY616  TRP617  ASP618  TYR619  PRO620  LYS621  CYS622 
 ASP623  PHE694  ASN695  SER759  ASP760  ASP761  ALA762  ILE779  LEU786  VAL792 
 PHE793  MET794  SER795  GLU796  ALA797  LYS798  CYS799  TRP800  GLU811  SER814 

> <Gold.Protein.RotatedAtoms>
  151.6726  135.0974  160.0200 H   0  0  0  0  0  0  0  0  0  0  0  0  # atno 6907 bound_to 6896
  152.3883  133.6638  159.6225 H   0  0  0  0  0  0  0  0  0  0  0  0  # atno 6908 bound_to 6896
  150.7804  133.8915  159.3356 H   0  0  0  0  0  0  0  0  0  0  0  0  # atno 6909 bound_to 6896
  144.7261  139.9540  143.6433 H   0  0  0  0  0  0  0  0  0  0  0  0  # atno 7974 bound_to 7965
  156.2047  140.3040  155.9601 H   0  0  0  0  0  0  0  0  0  0  0  0  # atno 8008 bound_to 7997
  155.2870  140.0440  157.3037 H   0  0  0  0  0  0  0  0  0  0  0  0  # atno 8009 bound_to 7997
  154.5617  140.2322  155.8334 H   0  0  0  0  0  0  0  0  0  0  0  0  # atno 8010 bound_to 7997
  139.5179  144.6463  151.5429 H   0  0  0  0  0  0  0  0  0  0  0  0  # atno 10167 bound_to 10162
  157.3706  130.7699  149.7116 H   0  0  0  0  0  0  0  0  0  0  0  0  # atno 10718 bound_to 10713
  154.6142  135.2868  155.0398 H   0  0  0  0  0  0  0  0  0  0  0  0  # atno 10763 bound_to 10752
  154.1617  135.6487  153.4991 H   0  0  0  0  0  0  0  0  0  0  0  0  # atno 10764 bound_to 10752
  153.0208  135.5379  154.6907 H   0  0  0  0  0  0  0  0  0  0  0  0  # atno 10765 bound_to 10752
  140.9168  134.1497  157.4346 H   0  0  0  0  0  0  0  0  0  0  0  0  # atno 11005 bound_to 11000
  146.0689  139.3678  143.0535 LP  0  0  0  0  0  0  0  0  0  0  0  0  # atno 17320 bound_to 7965
  145.7994  140.9778  143.1006 LP  0  0  0  0  0  0  0  0  0  0  0  0  # atno 17321 bound_to 7965
  140.6250  143.9187  150.6557 LP  0  0  0  0  0  0  0  0  0  0  0  0  # atno 17342 bound_to 10162
  140.2472  143.3620  152.1436 LP  0  0  0  0  0  0  0  0  0  0  0  0  # atno 17343 bound_to 10162
  155.9755  130.4088  150.3847 LP  0  0  0  0  0  0  0  0  0  0  0  0  # atno 17370 bound_to 10713
  157.1937  131.0421  151.2687 LP  0  0  0  0  0  0  0  0  0  0  0  0  # atno 17371 bound_to 10713
  139.8767  134.9956  156.5754 LP  0  0  0  0  0  0  0  0  0  0  0  0  # atno 17394 bound_to 11000
  140.8040  133.8483  155.8751 LP  0  0  0  0  0  0  0  0  0  0  0  0  # atno 17395 bound_to 11000

$$$$
