AV-unprocessed.smi:2456|AV-procd|sdf|9701|dock10
  -GOLD-   2272013343D 1   1.00000     0.00000
 Structure written by MMmdl.
 34 35  0  0  0  0  0  0  0  0  1 V2000
  145.2019  134.8808  154.8820 C   0  0  0  0  0  0  0  0  0  0  0  0
  145.7119  135.1134  153.4428 C   0  0  1  0  0  0  0  0  0  0  0  0
  146.7109  136.1851  153.3697 N   0  0  0  0  0  0  0  0  0  0  0  0
  146.6721  137.3925  153.9577 C   0  0  0  0  0  0  0  0  0  0  0  0
  145.7780  137.7567  154.7210 O   0  0  0  0  0  0  0  0  0  0  0  0
  147.7395  138.1314  153.6081 N   0  0  0  0  0  0  0  0  0  0  0  0
  148.0607  139.4551  154.0082 C   0  0  0  0  0  0  0  0  0  0  0  0
  149.2405  139.8242  154.5204 N   0  0  0  0  0  0  0  0  0  0  0  0
  149.2769  141.1872  154.8247 C   0  0  0  0  0  0  0  0  0  0  0  0
  148.1072  141.8452  154.5364 C   0  0  0  0  0  0  0  0  0  0  0  0
  146.9070  140.7731  153.8663 S   0  0  0  0  0  0  0  0  0  0  0  0
  146.1875  133.8349  152.7215 C   0  0  0  0  0  0  0  0  0  0  0  0
  147.2056  133.2679  153.1203 O   0  0  0  0  0  0  0  0  0  0  0  0
  145.4882  133.3746  151.6605 N   0  0  0  0  0  0  0  0  0  0  0  0
  144.2642  133.9559  151.1074 C   0  0  0  0  0  0  0  0  0  0  0  0
  143.9987  133.2051  149.8024 C   0  0  0  0  0  0  0  0  0  0  0  0
  144.6861  131.8616  149.9974 C   0  0  0  0  0  0  0  0  0  0  0  0
  145.8697  132.1784  150.9111 C   0  0  0  0  0  0  0  0  0  0  0  0
  144.3590  134.1890  154.8863 H   0  0  0  0  0  0  0  0  0  0  0  0
  144.8582  135.8131  155.3306 H   0  0  0  0  0  0  0  0  0  0  0  0
  145.9656  134.4601  155.5361 H   0  0  0  0  0  0  0  0  0  0  0  0
  144.8491  135.4857  152.8903 H   0  0  0  0  0  0  0  0  0  0  0  0
  147.5067  135.9942  152.7790 H   0  0  0  0  0  0  0  0  0  0  0  0
  148.3975  137.6994  152.9768 H   0  0  0  0  0  0  0  0  0  0  0  0
  150.1789  141.6071  155.2448 H   0  0  0  0  0  0  0  0  0  0  0  0
  147.8804  142.8916  154.6769 H   0  0  0  0  0  0  0  0  0  0  0  0
  143.4451  133.7958  151.8099 H   0  0  0  0  0  0  0  0  0  0  0  0
  144.3528  135.0266  150.9237 H   0  0  0  0  0  0  0  0  0  0  0  0
  142.9360  133.1083  149.5786 H   0  0  0  0  0  0  0  0  0  0  0  0
  144.4677  133.7369  148.9735 H   0  0  0  0  0  0  0  0  0  0  0  0
  144.0073  131.1738  150.5029 H   0  0  0  0  0  0  0  0  0  0  0  0
  144.9896  131.4007  149.0569 H   0  0  0  0  0  0  0  0  0  0  0  0
  146.7599  132.4010  150.3211 H   0  0  0  0  0  0  0  0  0  0  0  0
  146.0992  131.3365  151.5664 H   0  0  0  0  0  0  0  0  0  0  0  0
  1  2  1  0  0  0  0
  1 19  1  0  0  0  0
  1 20  1  0  0  0  0
  1 21  1  0  0  0  0
  2  3  1  0  0  0  0
  2 12  1  0  0  0  0
  2 22  1  0  0  0  0
  3  4  1  0  0  0  0
  3 23  1  0  0  0  0
  4  5  2  0  0  0  0
  4  6  1  0  0  0  0
  6  7  1  0  0  0  0
  6 24  1  0  0  0  0
  7 11  1  0  0  0  0
  7  8  2  0  0  0  0
  8  9  1  0  0  0  0
  9 10  2  0  0  0  0
  9 25  1  0  0  0  0
 10 11  1  0  0  0  0
 10 26  1  0  0  0  0
 12 13  2  0  0  0  0
 12 14  1  0  0  0  0
 14 18  1  0  0  0  0
 14 15  1  0  0  0  0
 15 16  1  0  0  0  0
 15 27  1  0  0  0  0
 15 28  1  0  0  0  0
 16 17  1  0  0  0  0
 16 29  1  0  0  0  0
 16 30  1  0  0  0  0
 17 18  1  0  0  0  0
 17 31  1  0  0  0  0
 17 32  1  0  0  0  0
 18 33  1  0  0  0  0
 18 34  1  0  0  0  0
M  END
> <s_m_source_file>
AV-unprocessed.smi

> <i_m_source_file_index>
2456

> <i_lp_mmshare_version>
43012

> <i_f3d_flags>
0

> <s_epik_input>
W0NIMl0xW0NIMl1bQ0gyXVtDSDJdTjFDKD1PKVtDQEhdKFtDSDNdKVtOSF1DKD1PKVtOSF1jMm5bY0hdW2NIXXMy

> <s_epik_cmdline>
J2VwaWtfcHl0aG9uJywgJy1waCcsICc3LjAnLCAnLXRuJywgJzgnLCAnLW1hJywgJzIwMCcsICctbWV0YWxfYmluZGluZycsICctaW1hZScsICc8aW5maWxlLm1hZT4nLCAnLW9tYWUnLCAnPG91dGZpbGUubWFlPic=

> <r_lp_tautomer_probability>
1

> <r_epik_Ionization_Penalty>
0.000150201

> <r_epik_Ionization_Penalty_Charging>
0

> <r_epik_Ionization_Penalty_Neutral>
0.000150201

> <r_epik_State_Penalty>
-0

> <r_epik_Charging_Adjusted_Penalty>
0

> <i_epik_Tot_Q>
0

> <i_epik_Tot_abs_Q>
0

> <r_epik_Metal_State_Penalty>
0.0705602

> <b_epik_Metal_Only>
0

> <s_lp_Force_Field>
OPLS_2005

> <r_lp_Energy>
30.7

> <b_lp_Chiralities_Consistent>
1

> <s_lp_Variant>
AV-unprocessed.smi:2456-2

> <Gold.Version>
5.8.1

> <Gold.Id.Protein>
6NUR|6NUR_protein|mol2

> <Gold.PLP.Fitness>
35.5000

> <Gold.PLP.PLP>
-27.6373

> <Gold.PLP.part.hbond>
-2.0000

> <Gold.PLP.part.metal>
0.0000

> <Gold.PLP.part.buried>
-2.8577

> <Gold.PLP.part.nonpolar>
-23.6077

> <Gold.PLP.part.repulsive>
0.3334

> <Gold.PLP.ligand.clash>
0.0000

> <Gold.PLP.ligand.torsion>
0.6263

> <Gold.PLP.Chemscore.Hbond>
2.0000

> <Gold.PLP.Chemscore.CHOScore>
0.9913

> <Gold.PLP.Chemscore.Metal>
0.0000

> <Gold.Chemscore.Hbonds>
donor molecule, donor type, donor heavy atom, donor atom, acceptor molecule, acceptor atom, score
      L1  H     3    23       P1  7948  1.00
      L1  H     6    24       P1  7948  1.00
      L1  C    10    26       P1  8028  1.00

> <Gold.PLP.Chemscore.Internal.Correction>
0.1413

> <Gold.Rescore>
     Score         DG    S(hbond)    S(metal)    S(lipo)     H(rot)  DE(clash)    DE(int)     intcor
     13.73     -15.95       1.97        0.00      62.60       1.34       0.02       2.21       ----

> <Gold.Chemscore.Fitness>
13.7256

> <Gold.Chemscore.DG>
-15.9533

> <Gold.Chemscore.ZeroCoef>
-5.4800

> <Gold.Chemscore.Hbond>
1.9736

> <Gold.Chemscore.Metal>
0.0000

> <Gold.Chemscore.Lipo>
62.5993

> <Gold.Chemscore.Internal_Hbond>
0.0000

> <Gold.Chemscore.DEClash>
0.0161

> <Gold.Chemscore.DEInternal>
2.2115

> <Gold.Chemscore.Rot>
1.3448

> <Gold.Chemscore.Internal.Correction>
   9.000000E+99

> <Gold.Chemscore.Hbonds>
donor molecule, donor type, donor heavy atom, donor atom, acceptor molecule, acceptor atom, score
      L1  H     3    23       P1  7948  1.00
      L1  H     6    24       P1  7948  0.96

> <Gold.Chemscore.Hbond.Weighted>
-6.5920

> <Gold.Chemscore.Metal.Weighted>
-0.0000

> <Gold.Chemscore.Lipo.Weighted>
-7.3241

> <Gold.Chemscore.Internal_Hbond.Weighted>
0.0000

> <Gold.Chemscore.DEClash.Weighted>
0.0161

> <Gold.Chemscore.DEInternal.Weighted>
2.2115

> <Gold.Chemscore.Rot.Weighted>
3.4427

> <Gold.Chemscore.Internal.Correction.Weighted>
   9.000000E+99

> <Gold.Protein.RotatedTorsions>
[ 6907 6896 6895 6894 ] final -121.09 input  -60.11 | X-H torsion
[ 7974 7965 7964 7962 ] final -131.09 input  175.53 | X-H torsion
[ 8008 7997 7996 7995 ] final  -61.47 input   59.86 | X-H torsion
[ 10167 10162 10161 10158 ] final  -56.25 input  -65.29 | X-H torsion
[ 10718 10713 10712 10709 ] final  -33.83 input   66.30 | X-H torsion
[ 10763 10752 10751 10750 ] final  -65.53 input  -60.55 | X-H torsion
[ 11005 11000 10999 10996 ] final -119.77 input  -57.11 | X-H torsion

> <Gold.Protein.ActiveResidues>
 VAL166  LYS551  ARG553  GLY616  TRP617  ASP618  TYR619  PRO620  LYS621  CYS622 
 ASP623  PHE694  ASN695  SER759  ASP760  ASP761  ALA762  ILE779  LEU786  VAL792 
 PHE793  MET794  SER795  GLU796  ALA797  LYS798  CYS799  TRP800  GLU811  SER814 

> <Gold.Protein.RotatedAtoms>
  150.8451  133.7874  159.3045 H   0  0  0  0  0  0  0  0  0  0  0  0  # atno 6907 bound_to 6896
  151.5563  135.1065  159.9971 H   0  0  0  0  0  0  0  0  0  0  0  0  # atno 6908 bound_to 6896
  152.4507  133.7581  159.6787 H   0  0  0  0  0  0  0  0  0  0  0  0  # atno 6909 bound_to 6896
  144.9412  140.7241  143.4845 H   0  0  0  0  0  0  0  0  0  0  0  0  # atno 7974 bound_to 7965
  154.4449  140.1017  156.6435 H   0  0  0  0  0  0  0  0  0  0  0  0  # atno 8008 bound_to 7997
  155.5475  140.3485  155.4442 H   0  0  0  0  0  0  0  0  0  0  0  0  # atno 8009 bound_to 7997
  156.0553  140.1313  156.9993 H   0  0  0  0  0  0  0  0  0  0  0  0  # atno 8010 bound_to 7997
  140.6328  143.2467  151.5197 H   0  0  0  0  0  0  0  0  0  0  0  0  # atno 10167 bound_to 10162
  156.3579  130.4319  149.7649 H   0  0  0  0  0  0  0  0  0  0  0  0  # atno 10718 bound_to 10713
  154.3464  135.6146  153.5621 H   0  0  0  0  0  0  0  0  0  0  0  0  # atno 10763 bound_to 10752
  152.9801  135.5782  154.4793 H   0  0  0  0  0  0  0  0  0  0  0  0  # atno 10764 bound_to 10752
  154.4507  135.2853  155.1760 H   0  0  0  0  0  0  0  0  0  0  0  0  # atno 10765 bound_to 10752
  141.0192  134.0150  157.3307 H   0  0  0  0  0  0  0  0  0  0  0  0  # atno 11005 bound_to 11000
  145.2988  139.1857  143.4700 LP  0  0  0  0  0  0  0  0  0  0  0  0  # atno 17320 bound_to 7965
  146.3286  140.2976  142.8619 LP  0  0  0  0  0  0  0  0  0  0  0  0  # atno 17321 bound_to 7965
  139.5540  144.2322  152.1581 LP  0  0  0  0  0  0  0  0  0  0  0  0  # atno 17342 bound_to 10162
  140.1570  144.5061  150.6654 LP  0  0  0  0  0  0  0  0  0  0  0  0  # atno 17343 bound_to 10162
  156.4824  130.8047  151.3061 LP  0  0  0  0  0  0  0  0  0  0  0  0  # atno 17370 bound_to 10713
  157.7470  131.0001  150.2915 LP  0  0  0  0  0  0  0  0  0  0  0  0  # atno 17371 bound_to 10713
  139.9135  135.0194  156.7789 LP  0  0  0  0  0  0  0  0  0  0  0  0  # atno 17394 bound_to 11000
  140.6602  133.9652  155.7801 LP  0  0  0  0  0  0  0  0  0  0  0  0  # atno 17395 bound_to 11000

$$$$
