AV-unprocessed.smi:2243|AV-procd|sdf|9066|dock10
  -GOLD-   2272012273D 1   1.00000     0.00000
 Structure written by MMmdl.
 34 35  0  0  0  0  0  0  0  0  1 V2000
  148.1436  141.5542  154.3419 C   0  0  0  0  0  0  0  0  0  0  0  0
  148.5033  141.2342  155.8028 C   0  0  2  0  0  0  0  0  0  0  0  0
  147.9109  142.2713  156.6493 N   0  0  0  0  0  0  0  0  0  0  0  0
  147.0818  142.0795  157.6877 C   0  0  0  0  0  0  0  0  0  0  0  0
  146.7315  140.9487  158.0393 O   0  0  0  0  0  0  0  0  0  0  0  0
  146.7332  143.3028  158.2416 N   0  0  0  0  0  0  0  0  0  0  0  0
  146.1320  143.3421  159.3905 C   0  0  0  0  0  0  0  0  0  0  0  0
  145.7158  144.4645  160.0884 N   0  0  0  0  0  0  0  0  0  0  0  0
  145.1286  144.0492  161.2516 C   0  0  0  0  0  0  0  0  0  0  0  0
  145.1720  142.7206  161.2857 C   0  0  0  0  0  0  0  0  0  0  0  0
  145.7810  142.2561  160.1592 O   0  0  0  0  0  0  0  0  0  0  0  0
  150.0322  141.1376  156.0521 C   0  0  0  0  0  0  0  0  0  0  0  0
  150.6696  139.9175  155.3568 C   0  0  0  0  0  0  0  0  0  0  0  0
  152.1688  139.8111  155.6801 C   0  0  0  0  0  0  0  0  0  0  0  0
  152.3598  139.7373  157.0872 O   0  0  0  0  0  0  0  0  0  0  0  0
  151.9008  140.9013  157.7632 C   0  0  0  0  0  0  0  0  0  0  0  0
  150.3876  141.0713  157.5534 C   0  0  0  0  0  0  0  0  0  0  0  0
  148.4298  140.7471  153.6682 H   0  0  0  0  0  0  0  0  0  0  0  0
  148.6350  142.4664  154.0021 H   0  0  0  0  0  0  0  0  0  0  0  0
  147.0682  141.6944  154.2268 H   0  0  0  0  0  0  0  0  0  0  0  0
  148.0622  140.2646  156.0398 H   0  0  0  0  0  0  0  0  0  0  0  0
  148.1522  143.2250  156.4216 H   0  0  0  0  0  0  0  0  0  0  0  0
  145.8079  145.4350  159.8252 H   0  0  0  0  0  0  0  0  0  0  0  0
  144.7312  144.7701  161.9506 H   0  0  0  0  0  0  0  0  0  0  0  0
  144.8295  141.9931  162.0063 H   0  0  0  0  0  0  0  0  0  0  0  0
  150.4979  142.0354  155.6423 H   0  0  0  0  0  0  0  0  0  0  0  0
  150.1652  139.0043  155.6756 H   0  0  0  0  0  0  0  0  0  0  0  0
  150.5490  139.9803  154.2758 H   0  0  0  0  0  0  0  0  0  0  0  0
  152.5869  138.9146  155.2222 H   0  0  0  0  0  0  0  0  0  0  0  0
  152.7166  140.6615  155.2710 H   0  0  0  0  0  0  0  0  0  0  0  0
  152.1203  140.7987  158.8259 H   0  0  0  0  0  0  0  0  0  0  0  0
  152.4441  141.7791  157.4102 H   0  0  0  0  0  0  0  0  0  0  0  0
  150.0598  141.9733  158.0703 H   0  0  0  0  0  0  0  0  0  0  0  0
  149.8620  140.2374  158.0206 H   0  0  0  0  0  0  0  0  0  0  0  0
  1  2  1  0  0  0  0
  1 18  1  0  0  0  0
  1 19  1  0  0  0  0
  1 20  1  0  0  0  0
  2  3  1  0  0  0  0
  2 12  1  0  0  0  0
  2 21  1  0  0  0  0
  3 22  1  0  0  0  0
  3  4  1  0  0  0  0
  4  6  1  0  0  0  0
  4  5  2  0  0  0  0
  6  7  2  0  0  0  0
  7 11  1  0  0  0  0
  7  8  1  0  0  0  0
  8 23  1  0  0  0  0
  8  9  1  0  0  0  0
  9 24  1  0  0  0  0
  9 10  2  0  0  0  0
 10 25  1  0  0  0  0
 10 11  1  0  0  0  0
 12 17  1  0  0  0  0
 12 13  1  0  0  0  0
 12 26  1  0  0  0  0
 13 14  1  0  0  0  0
 13 27  1  0  0  0  0
 13 28  1  0  0  0  0
 14 15  1  0  0  0  0
 14 29  1  0  0  0  0
 14 30  1  0  0  0  0
 15 16  1  0  0  0  0
 16 17  1  0  0  0  0
 16 31  1  0  0  0  0
 16 32  1  0  0  0  0
 17 33  1  0  0  0  0
 17 34  1  0  0  0  0
M  END
> <s_m_source_file>
AV-unprocessed.smi

> <i_m_source_file_index>
2243

> <i_lp_mmshare_version>
43012

> <i_f3d_flags>
0

> <s_epik_input>
W0NIMl0xW0NIMl1PW0NIMl1bQ0gyXVtDSF0xW0NASF0oW0NIM10pW05IXUMoPU8pW05IXWMybltjSF1bY0hdbzI=

> <s_epik_cmdline>
J2VwaWtfcHl0aG9uJywgJy1waCcsICc3LjAnLCAnLXRuJywgJzgnLCAnLW1hJywgJzIwMCcsICctbWV0YWxfYmluZGluZycsICctaW1hZScsICc8aW5maWxlLm1hZT4nLCAnLW9tYWUnLCAnPG91dGZpbGUubWFlPic=

> <r_lp_tautomer_probability>
0.107061

> <r_epik_Ionization_Penalty>
1.44639

> <r_epik_Ionization_Penalty_Charging>
1.44602

> <r_epik_Ionization_Penalty_Neutral>
0.000368208

> <r_epik_State_Penalty>
2.61815

> <r_epik_Charging_Adjusted_Penalty>
4.06418

> <i_epik_Tot_Q>
0

> <i_epik_Tot_abs_Q>
0

> <r_epik_Metal_State_Penalty>
3.54171

> <b_epik_Metal_Only>
0

> <s_lp_Force_Field>
OPLS_2005

> <r_lp_Energy>
34.6671

> <b_lp_Chiralities_Consistent>
1

> <s_lp_Variant>
AV-unprocessed.smi:2243-5

> <Gold.Version>
5.8.1

> <Gold.Id.Protein>
6NUR|6NUR_protein|mol2

> <Gold.PLP.Fitness>
36.1470

> <Gold.PLP.PLP>
-27.4936

> <Gold.PLP.part.hbond>
-4.1238

> <Gold.PLP.part.metal>
0.0000

> <Gold.PLP.part.buried>
-2.8399

> <Gold.PLP.part.nonpolar>
-20.1081

> <Gold.PLP.part.repulsive>
1.0565

> <Gold.PLP.ligand.clash>
0.0000

> <Gold.PLP.ligand.torsion>
0.1811

> <Gold.PLP.Chemscore.Hbond>
3.0000

> <Gold.PLP.Chemscore.CHOScore>
0.0000

> <Gold.PLP.Chemscore.Metal>
0.0000

> <Gold.Chemscore.Hbonds>
donor molecule, donor type, donor heavy atom, donor atom, acceptor molecule, acceptor atom, score
      L1  H     3    22       P1  8028  1.00
      P1  H  6934  6946       L1    11  1.00
      P1  H  7997  8008       L1    15  0.37

> <Gold.PLP.Chemscore.Internal.Correction>
0.0156

> <Gold.Rescore>
     Score         DG    S(hbond)    S(metal)    S(lipo)     H(rot)  DE(clash)    DE(int)     intcor
     12.23     -14.06       1.73        0.00      52.82       1.32       0.19       1.64       ----

> <Gold.Chemscore.Fitness>
12.2294

> <Gold.Chemscore.DG>
-14.0649

> <Gold.Chemscore.ZeroCoef>
-5.4800

> <Gold.Chemscore.Hbond>
1.7319

> <Gold.Chemscore.Metal>
0.0000

> <Gold.Chemscore.Lipo>
52.8181

> <Gold.Chemscore.Internal_Hbond>
0.0000

> <Gold.Chemscore.DEClash>
0.1942

> <Gold.Chemscore.DEInternal>
1.6413

> <Gold.Chemscore.Rot>
1.3201

> <Gold.Chemscore.Internal.Correction>
   9.000000E+99

> <Gold.Chemscore.Hbonds>
donor molecule, donor type, donor heavy atom, donor atom, acceptor molecule, acceptor atom, score
      L1  H     3    22       P1  8028  0.35
      P1  H  6934  6946       L1    11  0.55
      P1  H  7997  8008       L1    15  0.01

> <Gold.Chemscore.Hbond.Weighted>
-5.7846

> <Gold.Chemscore.Metal.Weighted>
-0.0000

> <Gold.Chemscore.Lipo.Weighted>
-6.1797

> <Gold.Chemscore.Internal_Hbond.Weighted>
0.0000

> <Gold.Chemscore.DEClash.Weighted>
0.1942

> <Gold.Chemscore.DEInternal.Weighted>
1.6413

> <Gold.Chemscore.Rot.Weighted>
3.3794

> <Gold.Chemscore.Internal.Correction.Weighted>
   9.000000E+99

> <Gold.Protein.RotatedTorsions>
[ 6907 6896 6895 6894 ] final  -44.28 input  -60.11 | X-H torsion
[ 7974 7965 7964 7962 ] final -137.78 input  175.53 | X-H torsion
[ 8008 7997 7996 7995 ] final  -72.37 input   59.86 | X-H torsion
[ 10167 10162 10161 10158 ] final   86.79 input  -65.29 | X-H torsion
[ 10718 10713 10712 10709 ] final   84.76 input   66.30 | X-H torsion
[ 10763 10752 10751 10750 ] final  -17.79 input  -60.55 | X-H torsion
[ 11005 11000 10999 10996 ] final   -3.85 input  -57.11 | X-H torsion

> <Gold.Protein.ActiveResidues>
 VAL166  LYS551  ARG553  GLY616  TRP617  ASP618  TYR619  PRO620  LYS621  CYS622 
 ASP623  PHE694  ASN695  SER759  ASP760  ASP761  ALA762  ILE779  LEU786  VAL792 
 PHE793  MET794  SER795  GLU796  ALA797  LYS798  CYS799  TRP800  GLU811  SER814 

> <Gold.Protein.RotatedAtoms>
  150.9345  134.8759  159.7572 H   0  0  0  0  0  0  0  0  0  0  0  0  # atno 6907 bound_to 6896
  152.5053  134.4030  159.9433 H   0  0  0  0  0  0  0  0  0  0  0  0  # atno 6908 bound_to 6896
  151.4055  133.3704  159.2772 H   0  0  0  0  0  0  0  0  0  0  0  0  # atno 6909 bound_to 6896
  144.8813  140.6511  143.5204 H   0  0  0  0  0  0  0  0  0  0  0  0  # atno 7974 bound_to 7965
  154.5161  140.0798  156.8083 H   0  0  0  0  0  0  0  0  0  0  0  0  # atno 8008 bound_to 7997
  155.3678  140.3421  155.4224 H   0  0  0  0  0  0  0  0  0  0  0  0  # atno 8009 bound_to 7997
  156.1629  140.1594  156.8569 H   0  0  0  0  0  0  0  0  0  0  0  0  # atno 8010 bound_to 7997
  139.8839  144.6424  150.8812 H   0  0  0  0  0  0  0  0  0  0  0  0  # atno 10167 bound_to 10162
  157.6903  131.0146  150.2720 H   0  0  0  0  0  0  0  0  0  0  0  0  # atno 10718 bound_to 10713
  153.5793  135.7005  153.5470 H   0  0  0  0  0  0  0  0  0  0  0  0  # atno 10763 bound_to 10752
  153.3275  135.4056  155.1468 H   0  0  0  0  0  0  0  0  0  0  0  0  # atno 10764 bound_to 10752
  154.8620  135.3710  154.5320 H   0  0  0  0  0  0  0  0  0  0  0  0  # atno 10765 bound_to 10752
  140.6739  133.9212  155.8512 H   0  0  0  0  0  0  0  0  0  0  0  0  # atno 11005 bound_to 11000
  145.3949  139.1609  143.4209 LP  0  0  0  0  0  0  0  0  0  0  0  0  # atno 17320 bound_to 7965
  146.2996  140.4041  142.8709 LP  0  0  0  0  0  0  0  0  0  0  0  0  # atno 17321 bound_to 7965
  140.7739  143.3563  151.1914 LP  0  0  0  0  0  0  0  0  0  0  0  0  # atno 17342 bound_to 10162
  139.7170  143.9284  152.2971 LP  0  0  0  0  0  0  0  0  0  0  0  0  # atno 17343 bound_to 10162
  156.3281  130.3796  149.7515 LP  0  0  0  0  0  0  0  0  0  0  0  0  # atno 17370 bound_to 10713
  156.5063  130.8152  151.3152 LP  0  0  0  0  0  0  0  0  0  0  0  0  # atno 17371 bound_to 10713
  141.0371  134.0675  157.3947 LP  0  0  0  0  0  0  0  0  0  0  0  0  # atno 17394 bound_to 11000
  139.8973  135.0149  156.7093 LP  0  0  0  0  0  0  0  0  0  0  0  0  # atno 17395 bound_to 11000

$$$$
