AV-unprocessed.smi:145|AV-procd|sdf|1198|dock3
  -GOLD-   2262018353D 1   1.00000     0.00000
 Structure written by MMmdl.
 40 42  0  0  0  0  0  0  0  0  1 V2000
  151.2088  137.1593  159.4227 O   0  0  0  0  0  0  0  0  0  0  0  0
  150.6351  137.2487  158.3363 C   0  0  0  0  0  0  0  0  0  0  0  0
  151.3134  137.9537  157.1505 C   0  0  0  0  0  0  0  0  0  0  0  0
  150.8607  139.3484  156.9527 N   0  0  0  0  0  0  0  0  0  0  0  0
  150.1707  139.6796  155.7603 C   0  0  0  0  0  0  0  0  0  0  0  0
  149.9382  138.8295  154.8998 O   0  0  0  0  0  0  0  0  0  0  0  0
  149.7709  141.0764  155.6313 C   0  0  0  0  0  0  0  0  0  0  0  0
  149.0983  141.4775  154.5392 F   0  0  0  0  0  0  0  0  0  0  0  0
  150.0642  141.9755  156.5932 C   0  0  0  0  0  0  0  0  0  0  0  0
  150.7551  141.6417  157.7446 N   0  0  0  0  0  0  0  0  0  0  0  0
  151.0828  142.6638  158.8130 C   0  0  1  0  0  0  0  0  0  0  0  0
  152.6079  142.8009  158.9835 C   0  0  0  0  0  0  0  0  0  0  0  0
  152.8245  144.2970  158.8741 C   0  0  0  0  0  0  0  0  0  0  0  0
  151.6806  144.7147  157.9626 C   0  0  0  0  0  0  0  0  0  0  0  0
  150.5993  143.9212  158.4336 O   0  0  0  0  0  0  0  0  0  0  0  0
  151.1647  140.3062  157.9491 C   0  0  0  0  0  0  0  0  0  0  0  0
  151.7793  139.9876  158.9696 O   0  0  0  0  0  0  0  0  0  0  0  0
  149.4006  136.7753  158.0872 N   0  0  0  0  0  0  0  0  0  0  0  0
  148.5262  136.0809  158.9660 C   0  0  0  0  0  0  0  0  0  0  0  0
  147.6920  135.0137  158.5528 C   0  0  0  0  0  0  0  0  0  0  0  0
  146.8344  134.3854  159.4771 C   0  0  0  0  0  0  0  0  0  0  0  0
  146.7954  134.8215  160.8148 C   0  0  0  0  0  0  0  0  0  0  0  0
  147.6098  135.8929  161.2275 C   0  0  0  0  0  0  0  0  0  0  0  0
  147.5459  136.5521  163.2108 I   0  0  0  0  0  0  0  0  0  0  0  0
  148.4668  136.5229  160.3043 C   0  0  0  0  0  0  0  0  0  0  0  0
  152.3935  137.9066  157.2970 H   0  0  0  0  0  0  0  0  0  0  0  0
  151.1451  137.3631  156.2483 H   0  0  0  0  0  0  0  0  0  0  0  0
  149.7363  142.9917  156.4373 H   0  0  0  0  0  0  0  0  0  0  0  0
  150.5598  142.3301  159.7109 H   0  0  0  0  0  0  0  0  0  0  0  0
  152.9339  142.3872  159.9382 H   0  0  0  0  0  0  0  0  0  0  0  0
  153.1275  142.2819  158.1762 H   0  0  0  0  0  0  0  0  0  0  0  0
  152.7127  144.7654  159.8528 H   0  0  0  0  0  0  0  0  0  0  0  0
  153.8054  144.5595  158.4773 H   0  0  0  0  0  0  0  0  0  0  0  0
  151.4555  145.7794  158.0273 H   0  0  0  0  0  0  0  0  0  0  0  0
  151.9030  144.4707  156.9229 H   0  0  0  0  0  0  0  0  0  0  0  0
  149.0148  137.0038  157.1825 H   0  0  0  0  0  0  0  0  0  0  0  0
  147.6829  134.6708  157.5295 H   0  0  0  0  0  0  0  0  0  0  0  0
  146.2016  133.5709  159.1570 H   0  0  0  0  0  0  0  0  0  0  0  0
  146.1366  134.3382  161.5211 H   0  0  0  0  0  0  0  0  0  0  0  0
  149.0861  137.3457  160.6309 H   0  0  0  0  0  0  0  0  0  0  0  0
  1  2  2  0  0  0  0
  2  3  1  0  0  0  0
  2 18  1  0  0  0  0
  3  4  1  0  0  0  0
  3 26  1  0  0  0  0
  3 27  1  0  0  0  0
  4 16  1  0  0  0  0
  4  5  1  0  0  0  0
  5  6  2  0  0  0  0
  5  7  1  0  0  0  0
  7  8  1  0  0  0  0
  7  9  2  0  0  0  0
  9 10  1  0  0  0  0
  9 28  1  0  0  0  0
 10 11  1  0  0  0  0
 10 16  1  0  0  0  0
 11 15  1  0  0  0  0
 11 12  1  0  0  0  0
 11 29  1  0  0  0  0
 12 13  1  0  0  0  0
 12 30  1  0  0  0  0
 12 31  1  0  0  0  0
 13 14  1  0  0  0  0
 13 32  1  0  0  0  0
 13 33  1  0  0  0  0
 14 15  1  0  0  0  0
 14 34  1  0  0  0  0
 14 35  1  0  0  0  0
 16 17  2  0  0  0  0
 18 19  1  0  0  0  0
 18 36  1  0  0  0  0
 19 25  1  0  0  0  0
 19 20  2  0  0  0  0
 20 21  1  0  0  0  0
 20 37  1  0  0  0  0
 21 22  2  0  0  0  0
 21 38  1  0  0  0  0
 22 23  1  0  0  0  0
 22 39  1  0  0  0  0
 23 24  1  0  0  0  0
 23 25  2  0  0  0  0
 25 40  1  0  0  0  0
M  END
> <s_m_source_file>
AV-unprocessed.smi

> <i_m_source_file_index>
145

> <i_lp_mmshare_version>
43012

> <i_f3d_flags>
0

> <s_epik_input>
SWMoW2NIXTEpW2NIXVtjSF1bY0hdYzFbTkhdQyg9TylbQ0gyXW4yYyg9TyljKEYpW2NIXW4oYzI9TylbQ0BASF0zW0NIMl1bQ0gyXVtDSDJdTzM=

> <s_epik_cmdline>
J2VwaWtfcHl0aG9uJywgJy1waCcsICc3LjAnLCAnLXRuJywgJzgnLCAnLW1hJywgJzIwMCcsICctbWV0YWxfYmluZGluZycsICctaW1hZScsICc8aW5maWxlLm1hZT4nLCAnLW9tYWUnLCAnPG91dGZpbGUubWFlPic=

> <r_lp_tautomer_probability>
1

> <r_epik_Ionization_Penalty>
9.72367e-07

> <r_epik_Ionization_Penalty_Charging>
3.88729e-08

> <r_epik_Ionization_Penalty_Neutral>
9.33494e-07

> <r_epik_State_Penalty>
-0

> <r_epik_Charging_Adjusted_Penalty>
3.88729e-08

> <i_epik_Tot_Q>
0

> <i_epik_Tot_abs_Q>
0

> <r_epik_Metal_State_Penalty>
-0

> <b_epik_Metal_Only>
0

> <s_epik_Chemistry_Notes>
This compound contains an acetal/aminal-like group ( X-CH(R)-Y where X, Y are N, S, or O) that may be acid/base labile, releasing an aldehyde.

> <s_lp_Force_Field>
OPLS_2005

> <r_lp_Energy>
33.5039

> <b_lp_Chiralities_Consistent>
1

> <s_lp_Variant>
AV-unprocessed.smi:145-2

> <Gold.Version>
5.8.1

> <Gold.Id.Protein>
6NUR|6NUR_protein|mol2

> <Gold.PLP.Fitness>
48.9689

> <Gold.PLP.PLP>
-44.2123

> <Gold.PLP.part.hbond>
-1.0000

> <Gold.PLP.part.metal>
0.0000

> <Gold.PLP.part.buried>
-5.2204

> <Gold.PLP.part.nonpolar>
-37.9571

> <Gold.PLP.part.repulsive>
0.3724

> <Gold.PLP.ligand.clash>
0.0000

> <Gold.PLP.ligand.torsion>
0.6142

> <Gold.PLP.Chemscore.Hbond>
0.9913

> <Gold.PLP.Chemscore.CHOScore>
1.0000

> <Gold.PLP.Chemscore.Metal>
0.0000

> <Gold.Chemscore.Hbonds>
donor molecule, donor type, donor heavy atom, donor atom, acceptor molecule, acceptor atom, score
      P1  H  6896  6909       L1     1  0.89
      L1  C     9    28       P1  8028  1.00

> <Gold.PLP.Chemscore.Internal.Correction>
0.0114

> <Gold.Rescore>
     Score         DG    S(hbond)    S(metal)    S(lipo)     H(rot)  DE(clash)    DE(int)     intcor
     12.90     -15.61       0.90        0.00      97.12       1.66       0.26       2.45       ----

> <Gold.Chemscore.Fitness>
12.9010

> <Gold.Chemscore.DG>
-15.6080

> <Gold.Chemscore.ZeroCoef>
-5.4800

> <Gold.Chemscore.Hbond>
0.9042

> <Gold.Chemscore.Metal>
0.0000

> <Gold.Chemscore.Lipo>
97.1188

> <Gold.Chemscore.Internal_Hbond>
0.0000

> <Gold.Chemscore.DEClash>
0.2592

> <Gold.Chemscore.DEInternal>
2.4478

> <Gold.Chemscore.Rot>
1.6621

> <Gold.Chemscore.Internal.Correction>
   9.000000E+99

> <Gold.Chemscore.Hbonds>
donor molecule, donor type, donor heavy atom, donor atom, acceptor molecule, acceptor atom, score
      P1  H  6896  6909       L1     1  0.65

> <Gold.Chemscore.Hbond.Weighted>
-3.0201

> <Gold.Chemscore.Metal.Weighted>
-0.0000

> <Gold.Chemscore.Lipo.Weighted>
-11.3629

> <Gold.Chemscore.Internal_Hbond.Weighted>
0.0000

> <Gold.Chemscore.DEClash.Weighted>
0.2592

> <Gold.Chemscore.DEInternal.Weighted>
2.4478

> <Gold.Chemscore.Rot.Weighted>
4.2550

> <Gold.Chemscore.Internal.Correction.Weighted>
   9.000000E+99

> <Gold.Protein.RotatedTorsions>
[ 6907 6896 6895 6894 ] final  110.53 input  -60.11 | X-H torsion
[ 7974 7965 7964 7962 ] final   16.00 input  175.53 | X-H torsion
[ 8008 7997 7996 7995 ] final   24.94 input   59.86 | X-H torsion
[ 10167 10162 10161 10158 ] final -108.43 input  -65.29 | X-H torsion
[ 10718 10713 10712 10709 ] final   24.64 input   66.30 | X-H torsion
[ 10763 10752 10751 10750 ] final -150.63 input  -60.55 | X-H torsion
[ 11005 11000 10999 10996 ] final   22.26 input  -57.11 | X-H torsion

> <Gold.Protein.ActiveResidues>
 VAL166  LYS551  ARG553  GLY616  TRP617  ASP618  TYR619  PRO620  LYS621  CYS622 
 ASP623  PHE694  ASN695  SER759  ASP760  ASP761  ALA762  ILE779  LEU786  VAL792 
 PHE793  MET794  SER795  GLU796  ALA797  LYS798  CYS799  TRP800  GLU811  SER814 

> <Gold.Protein.RotatedAtoms>
  152.5015  133.8787  159.7335 H   0  0  0  0  0  0  0  0  0  0  0  0  # atno 6907 bound_to 6896
  150.9255  133.6820  159.2829 H   0  0  0  0  0  0  0  0  0  0  0  0  # atno 6908 bound_to 6896
  151.4182  135.0999  159.9658 H   0  0  0  0  0  0  0  0  0  0  0  0  # atno 6909 bound_to 6896
  146.2262  139.8812  142.8570 H   0  0  0  0  0  0  0  0  0  0  0  0  # atno 7974 bound_to 7965
  155.0040  140.3128  155.4856 H   0  0  0  0  0  0  0  0  0  0  0  0  # atno 8008 bound_to 7997
  156.2920  140.2226  156.5092 H   0  0  0  0  0  0  0  0  0  0  0  0  # atno 8009 bound_to 7997
  154.7593  140.0460  157.0948 H   0  0  0  0  0  0  0  0  0  0  0  0  # atno 8010 bound_to 7997
  140.1662  143.4080  152.1389 H   0  0  0  0  0  0  0  0  0  0  0  0  # atno 10167 bound_to 10162
  157.1825  130.6809  149.6118 H   0  0  0  0  0  0  0  0  0  0  0  0  # atno 10718 bound_to 10713
  154.8107  135.3279  154.7312 H   0  0  0  0  0  0  0  0  0  0  0  0  # atno 10763 bound_to 10752
  153.7961  135.6907  153.4867 H   0  0  0  0  0  0  0  0  0  0  0  0  # atno 10764 bound_to 10752
  153.1884  135.4560  155.0064 H   0  0  0  0  0  0  0  0  0  0  0  0  # atno 10765 bound_to 10752
  140.3825  134.1905  155.7663 H   0  0  0  0  0  0  0  0  0  0  0  0  # atno 11005 bound_to 11000
  145.2510  141.0044  143.3881 LP  0  0  0  0  0  0  0  0  0  0  0  0  # atno 17320 bound_to 7965
  144.9374  139.4228  143.6465 LP  0  0  0  0  0  0  0  0  0  0  0  0  # atno 17321 bound_to 7965
  139.5358  144.7208  151.4897 LP  0  0  0  0  0  0  0  0  0  0  0  0  # atno 17342 bound_to 10162
  140.6611  143.8496  150.6889 LP  0  0  0  0  0  0  0  0  0  0  0  0  # atno 17343 bound_to 10162
  155.9722  130.4642  150.6209 LP  0  0  0  0  0  0  0  0  0  0  0  0  # atno 17370 bound_to 10713
  157.3939  131.0800  151.1369 LP  0  0  0  0  0  0  0  0  0  0  0  0  # atno 17371 bound_to 10713
  141.1918  133.8186  157.0863 LP  0  0  0  0  0  0  0  0  0  0  0  0  # atno 17394 bound_to 11000
  140.0467  134.9826  157.1063 LP  0  0  0  0  0  0  0  0  0  0  0  0  # atno 17395 bound_to 11000

$$$$
