AV-unprocessed.smi:240|AV-procd|sdf|1833|dock1
  -GOLD-   2262020443D 1   1.00000     0.00000
 Structure written by MMmdl.
 55 59  0  0  0  0  0  0  0  0  1 V2000
  148.0355  138.7085  152.7130 O   0  0  0  0  0  0  0  0  0  0  0  0
  148.3830  138.3535  154.0360 C   0  0  1  0  0  0  0  0  0  0  0  0
  149.8849  138.6143  154.2009 C   0  0  0  0  0  0  0  0  0  0  0  0
  150.0121  140.0931  154.6074 C   0  0  0  0  0  0  0  0  0  0  0  0
  148.6080  140.5558  155.0313 C   0  0  0  0  0  0  0  0  0  0  0  0
  147.7666  139.2731  155.1059 C   0  0  1  0  0  0  0  0  0  0  0  0
  146.2111  139.4387  155.1708 C   0  0  2  0  0  0  0  0  0  0  0  0
  145.7355  140.6759  155.9800 C   0  0  0  0  0  0  0  0  0  0  0  0
  144.3155  140.7361  156.0372 O   0  0  0  0  0  0  0  0  0  0  0  0
  143.7635  139.6043  156.6909 C   0  0  0  0  0  0  0  0  0  0  0  0
  144.1073  138.3586  155.8695 C   0  0  0  0  0  0  0  0  0  0  0  0
  145.5521  138.2362  155.7097 N   0  0  0  0  0  0  0  0  0  0  0  0
  145.8450  137.0486  155.1305 C   0  0  0  0  0  0  0  0  0  0  0  0
  146.3352  136.0235  155.8770 N   0  0  0  0  0  0  0  0  0  0  0  0
  146.6282  134.8566  155.2952 C   0  0  0  0  0  0  0  0  0  0  0  0
  146.5161  134.5129  154.0097 N   0  0  0  0  0  0  0  0  0  0  0  0
  146.0354  135.5457  153.2588 C   0  0  0  0  0  0  0  0  0  0  0  0
  145.6776  136.8363  153.7376 C   0  0  0  0  0  0  0  0  0  0  0  0
  145.2214  137.6263  152.6911 N   0  0  0  0  0  0  0  0  0  0  0  0
  145.3045  136.8451  151.6487 C   0  0  0  0  0  0  0  0  0  0  0  0
  145.7929  135.5809  151.8965 N   0  0  0  0  0  0  0  0  0  0  0  0
  145.9882  134.5156  150.9239 C   0  0  0  0  0  0  0  0  0  0  0  0
  144.6704  133.9853  150.3086 C   0  0  2  0  0  0  0  0  0  0  0  0
  144.0309  135.0422  149.6156 O   0  0  0  0  0  0  0  0  0  0  0  0
  143.7131  133.4336  151.3675 C   0  0  0  0  0  0  0  0  0  0  0  0
  143.7583  131.9275  151.1410 C   0  0  0  0  0  0  0  0  0  0  0  0
  143.9015  131.8309  149.7354 O   0  0  0  0  0  0  0  0  0  0  0  0
  144.8701  132.7950  149.3482 C   0  0  0  0  0  0  0  0  0  0  0  0
  148.7215  139.2546  152.3602 H   0  0  0  0  0  0  0  0  0  0  0  0
  148.1304  137.3056  154.2014 H   0  0  0  0  0  0  0  0  0  0  0  0
  150.2670  137.9904  155.0102 H   0  0  0  0  0  0  0  0  0  0  0  0
  150.4652  138.3694  153.3102 H   0  0  0  0  0  0  0  0  0  0  0  0
  150.7296  140.2060  155.4209 H   0  0  0  0  0  0  0  0  0  0  0  0
  150.3702  140.6961  153.7724 H   0  0  0  0  0  0  0  0  0  0  0  0
  148.6227  141.0901  155.9818 H   0  0  0  0  0  0  0  0  0  0  0  0
  148.2140  141.2390  154.2800 H   0  0  0  0  0  0  0  0  0  0  0  0
  148.0648  138.7897  156.0366 H   0  0  0  0  0  0  0  0  0  0  0  0
  145.8518  139.5698  154.1489 H   0  0  0  0  0  0  0  0  0  0  0  0
  146.1351  140.6742  156.9942 H   0  0  0  0  0  0  0  0  0  0  0  0
  146.0556  141.6021  155.5095 H   0  0  0  0  0  0  0  0  0  0  0  0
  144.1458  139.5241  157.7098 H   0  0  0  0  0  0  0  0  0  0  0  0
  142.6824  139.7237  156.7602 H   0  0  0  0  0  0  0  0  0  0  0  0
  143.7060  137.4726  156.3640 H   0  0  0  0  0  0  0  0  0  0  0  0
  143.6352  138.4214  154.8877 H   0  0  0  0  0  0  0  0  0  0  0  0
  147.0088  134.0891  155.9529 H   0  0  0  0  0  0  0  0  0  0  0  0
  145.0140  137.1738  150.6614 H   0  0  0  0  0  0  0  0  0  0  0  0
  146.6428  134.8880  150.1349 H   0  0  0  0  0  0  0  0  0  0  0  0
  146.5318  133.7052  151.4114 H   0  0  0  0  0  0  0  0  0  0  0  0
  144.6149  135.3527  148.9405 H   0  0  0  0  0  0  0  0  0  0  0  0
  143.9858  133.7074  152.3873 H   0  0  0  0  0  0  0  0  0  0  0  0
  142.6942  133.7857  151.1969 H   0  0  0  0  0  0  0  0  0  0  0  0
  144.6245  131.4817  151.6333 H   0  0  0  0  0  0  0  0  0  0  0  0
  142.8596  131.4202  151.4924 H   0  0  0  0  0  0  0  0  0  0  0  0
  144.7707  133.0597  148.2947 H   0  0  0  0  0  0  0  0  0  0  0  0
  145.8525  132.3416  149.4809 H   0  0  0  0  0  0  0  0  0  0  0  0
  1  2  1  0  0  0  0
  1 29  1  0  0  0  0
  2  6  1  0  0  0  0
  2  3  1  0  0  0  0
  2 30  1  0  0  0  0
  3  4  1  0  0  0  0
  3 31  1  0  0  0  0
  3 32  1  0  0  0  0
  4  5  1  0  0  0  0
  4 33  1  0  0  0  0
  4 34  1  0  0  0  0
  5  6  1  0  0  0  0
  5 35  1  0  0  0  0
  5 36  1  0  0  0  0
  6  7  1  0  0  0  0
  6 37  1  0  0  0  0
  7 12  1  0  0  0  0
  7  8  1  0  0  0  0
  7 38  1  0  0  0  0
  8  9  1  0  0  0  0
  8 39  1  0  0  0  0
  8 40  1  0  0  0  0
  9 10  1  0  0  0  0
 10 11  1  0  0  0  0
 10 41  1  0  0  0  0
 10 42  1  0  0  0  0
 11 12  1  0  0  0  0
 11 43  1  0  0  0  0
 11 44  1  0  0  0  0
 12 13  1  0  0  0  0
 13 18  1  0  0  0  0
 13 14  2  0  0  0  0
 14 15  1  0  0  0  0
 15 16  2  0  0  0  0
 15 45  1  0  0  0  0
 16 17  1  0  0  0  0
 17 21  1  0  0  0  0
 17 18  2  0  0  0  0
 18 19  1  0  0  0  0
 19 20  2  0  0  0  0
 20 21  1  0  0  0  0
 20 46  1  0  0  0  0
 21 22  1  0  0  0  0
 22 23  1  0  0  0  0
 22 47  1  0  0  0  0
 22 48  1  0  0  0  0
 23 28  1  0  0  0  0
 23 24  1  0  0  0  0
 23 25  1  0  0  0  0
 24 49  1  0  0  0  0
 25 26  1  0  0  0  0
 25 50  1  0  0  0  0
 25 51  1  0  0  0  0
 26 27  1  0  0  0  0
 26 52  1  0  0  0  0
 26 53  1  0  0  0  0
 27 28  1  0  0  0  0
 28 54  1  0  0  0  0
 28 55  1  0  0  0  0
M  END
> <s_m_source_file>
AV-unprocessed.smi

> <i_m_source_file_index>
240

> <i_lp_mmshare_version>
43012

> <i_f3d_flags>
0

> <s_epik_input>
W09IXVtDQEBIXTFbQ0gyXVtDSDJdW0NIMl1bQ0BIXTFbQ0BASF0yW0NIMl1PW0NIMl1bQ0gyXU4yYyhuW2NIXW4zKWMoYzM0KW5bY0hdbjRbQ0gyXVtDQEBdNShbT0hdKVtDSDJdW0NIMl1PW0NIMl01

> <s_epik_cmdline>
J2VwaWtfcHl0aG9uJywgJy1waCcsICc3LjAnLCAnLXRuJywgJzgnLCAnLW1hJywgJzIwMCcsICctbWV0YWxfYmluZGluZycsICctaW1hZScsICc8aW5maWxlLm1hZT4nLCAnLW9tYWUnLCAnPG91dGZpbGUubWFlPic=

> <r_lp_tautomer_probability>
1

> <r_epik_Ionization_Penalty>
0.000130618

> <r_epik_Ionization_Penalty_Charging>
0

> <r_epik_Ionization_Penalty_Neutral>
0.000130618

> <r_epik_State_Penalty>
-0

> <r_epik_Charging_Adjusted_Penalty>
0

> <i_epik_Tot_Q>
0

> <i_epik_Tot_abs_Q>
0

> <r_epik_Metal_State_Penalty>
-0

> <b_epik_Metal_Only>
0

> <s_lp_Force_Field>
OPLS_2005

> <r_lp_Energy>
64.6726

> <b_lp_Chiralities_Consistent>
1

> <s_lp_Variant>
AV-unprocessed.smi:240-10

> <Gold.Version>
5.8.1

> <Gold.Id.Protein>
6NUR|6NUR_protein|mol2

> <Gold.PLP.Fitness>
38.4921

> <Gold.PLP.PLP>
-28.0590

> <Gold.PLP.part.hbond>
-4.6464

> <Gold.PLP.part.metal>
0.0000

> <Gold.PLP.part.buried>
-0.1269

> <Gold.PLP.part.nonpolar>
-24.3270

> <Gold.PLP.part.repulsive>
0.6477

> <Gold.PLP.ligand.clash>
0.0000

> <Gold.PLP.ligand.torsion>
0.6314

> <Gold.PLP.Chemscore.Hbond>
2.8188

> <Gold.PLP.Chemscore.CHOScore>
1.0000

> <Gold.PLP.Chemscore.Metal>
0.0000

> <Gold.Chemscore.Hbonds>
donor molecule, donor type, donor heavy atom, donor atom, acceptor molecule, acceptor atom, score
      L1  H     1    29       P1  7957  1.00
      L1  H    24    49       P1  7921  0.83
      P1  H 10785 10796       L1    27  0.70
      L1  C    20    46       P1 10171  0.93

> <Gold.PLP.Chemscore.Internal.Correction>
0.2396

> <Gold.Rescore>
     Score         DG    S(hbond)    S(metal)    S(lipo)     H(rot)  DE(clash)    DE(int)     intcor
     12.17     -14.57       2.53        0.00      71.04       3.00       0.41       1.99       ----

> <Gold.Chemscore.Fitness>
12.1738

> <Gold.Chemscore.DG>
-14.5668

> <Gold.Chemscore.ZeroCoef>
-5.4800

> <Gold.Chemscore.Hbond>
2.5345

> <Gold.Chemscore.Metal>
0.0000

> <Gold.Chemscore.Lipo>
71.0375

> <Gold.Chemscore.Internal_Hbond>
0.0000

> <Gold.Chemscore.DEClash>
0.4063

> <Gold.Chemscore.DEInternal>
1.9866

> <Gold.Chemscore.Rot>
3.0039

> <Gold.Chemscore.Internal.Correction>
   9.000000E+99

> <Gold.Chemscore.Hbonds>
donor molecule, donor type, donor heavy atom, donor atom, acceptor molecule, acceptor atom, score
      L1  H     1    29       P1  7957  0.98
      L1  H    24    49       P1  7921  0.78
      P1  H 10785 10796       L1    27  0.67

> <Gold.Chemscore.Hbond.Weighted>
-8.4653

> <Gold.Chemscore.Metal.Weighted>
-0.0000

> <Gold.Chemscore.Lipo.Weighted>
-8.3114

> <Gold.Chemscore.Internal_Hbond.Weighted>
0.0000

> <Gold.Chemscore.DEClash.Weighted>
0.4063

> <Gold.Chemscore.DEInternal.Weighted>
1.9866

> <Gold.Chemscore.Rot.Weighted>
7.6899

> <Gold.Chemscore.Internal.Correction.Weighted>
   9.000000E+99

> <Gold.Protein.RotatedTorsions>
[ 6907 6896 6895 6894 ] final   92.75 input  -60.11 | X-H torsion
[ 7974 7965 7964 7962 ] final  -79.65 input  175.53 | X-H torsion
[ 8008 7997 7996 7995 ] final  -88.37 input   59.86 | X-H torsion
[ 10167 10162 10161 10158 ] final   48.65 input  -65.29 | X-H torsion
[ 10718 10713 10712 10709 ] final  135.29 input   66.30 | X-H torsion
[ 10763 10752 10751 10750 ] final   35.46 input  -60.55 | X-H torsion
[ 11005 11000 10999 10996 ] final  -62.77 input  -57.11 | X-H torsion

> <Gold.Protein.ActiveResidues>
 VAL166  LYS551  ARG553  GLY616  TRP617  ASP618  TYR619  PRO620  LYS621  CYS622 
 ASP623  PHE694  ASN695  SER759  ASP760  ASP761  ALA762  ILE779  LEU786  VAL792 
 PHE793  MET794  SER795  GLU796  ALA797  LYS798  CYS799  TRP800  GLU811  SER814 

> <Gold.Protein.RotatedAtoms>
  152.5453  134.1453  159.8495 H   0  0  0  0  0  0  0  0  0  0  0  0  # atno 6907 bound_to 6896
  151.1485  133.4916  159.2603 H   0  0  0  0  0  0  0  0  0  0  0  0  # atno 6908 bound_to 6896
  151.1497  135.0231  159.8717 H   0  0  0  0  0  0  0  0  0  0  0  0  # atno 6909 bound_to 6896
  145.5705  140.9467  143.1398 H   0  0  0  0  0  0  0  0  0  0  0  0  # atno 7974 bound_to 7965
  154.6740  140.0554  157.0196 H   0  0  0  0  0  0  0  0  0  0  0  0  # atno 8008 bound_to 7997
  155.1047  140.3232  155.4519 H   0  0  0  0  0  0  0  0  0  0  0  0  # atno 8009 bound_to 7997
  156.2669  140.2025  156.6172 H   0  0  0  0  0  0  0  0  0  0  0  0  # atno 8010 bound_to 7997
  140.2911  144.3044  150.6240 H   0  0  0  0  0  0  0  0  0  0  0  0  # atno 10167 bound_to 10162
  157.4586  131.1071  150.9948 H   0  0  0  0  0  0  0  0  0  0  0  0  # atno 10718 bound_to 10713
  153.0118  135.6332  154.1831 H   0  0  0  0  0  0  0  0  0  0  0  0  # atno 10763 bound_to 10752
  154.1572  135.2825  155.3120 H   0  0  0  0  0  0  0  0  0  0  0  0  # atno 10764 bound_to 10752
  154.6008  135.5588  153.7433 H   0  0  0  0  0  0  0  0  0  0  0  0  # atno 10765 bound_to 10752
  141.1371  133.6644  156.5578 H   0  0  0  0  0  0  0  0  0  0  0  0  # atno 11005 bound_to 11000
  144.7440  139.7370  143.7299 LP  0  0  0  0  0  0  0  0  0  0  0  0  # atno 17320 bound_to 7965
  146.1788  139.4971  142.9880 LP  0  0  0  0  0  0  0  0  0  0  0  0  # atno 17321 bound_to 7965
  140.5731  143.2179  151.7563 LP  0  0  0  0  0  0  0  0  0  0  0  0  # atno 17342 bound_to 10162
  139.4938  144.4188  152.0000 LP  0  0  0  0  0  0  0  0  0  0  0  0  # atno 17343 bound_to 10162
  157.0753  130.5880  149.5410 LP  0  0  0  0  0  0  0  0  0  0  0  0  # atno 17370 bound_to 10713
  156.0018  130.5099  150.7691 LP  0  0  0  0  0  0  0  0  0  0  0  0  # atno 17371 bound_to 10713
  140.4012  134.7355  157.4781 LP  0  0  0  0  0  0  0  0  0  0  0  0  # atno 17394 bound_to 11000
  140.0495  134.6151  155.8880 LP  0  0  0  0  0  0  0  0  0  0  0  0  # atno 17395 bound_to 11000

$$$$
