AV-unprocessed.smi:833|AV-procd|sdf|3880|dock3
  -GOLD-   22720 1333D 1   1.00000     0.00000
 Structure written by MMmdl.
 39 40  0  0  0  0  0  0  0  0  1 V2000
  144.3520  134.2133  150.1744 C   0  0  0  0  0  0  0  0  0  0  0  0
  144.7875  135.4088  151.0313 C   0  0  2  0  0  0  0  0  0  0  0  0
  145.5751  136.2504  150.2141 O   0  0  0  0  0  0  0  0  0  0  0  0
  145.6250  134.9690  152.2482 C   0  0  0  0  0  0  0  0  0  0  0  0
  146.6170  135.9734  152.6191 N   0  0  0  0  0  0  0  0  0  0  0  0
  146.3394  137.1680  153.1599 C   0  0  0  0  0  0  0  0  0  0  0  0
  145.1960  137.5551  153.4006 O   0  0  0  0  0  0  0  0  0  0  0  0
  147.4622  137.8736  153.3759 N   0  0  0  0  0  0  0  0  0  0  0  0
  147.5994  139.1902  153.9026 C   0  0  0  0  0  0  0  0  0  0  0  0
  146.5067  140.0898  153.9690 C   0  0  0  0  0  0  0  0  0  0  0  0
  146.7075  141.3833  154.4811 C   0  0  0  0  0  0  0  0  0  0  0  0
  147.9965  141.7341  154.9142 C   0  0  0  0  0  0  0  0  0  0  0  0
  149.0420  140.8843  154.8769 N   0  0  0  0  0  0  0  0  0  0  0  0
  148.8607  139.6283  154.3994 C   0  0  0  0  0  0  0  0  0  0  0  0
  149.9863  138.7732  154.4079 N   0  0  0  0  0  0  0  0  0  0  0  0
  151.3271  139.3164  154.5986 C   0  0  0  0  0  0  0  0  0  0  0  0
  152.1947  138.1112  154.9489 C   0  0  0  0  0  0  0  0  0  0  0  0
  151.2400  137.2548  155.7751 C   0  0  0  0  0  0  0  0  0  0  0  0
  149.8746  137.5075  155.1268 C   0  0  0  0  0  0  0  0  0  0  0  0
  143.7192  133.5338  150.7462 H   0  0  0  0  0  0  0  0  0  0  0  0
  145.2111  133.6450  149.8161 H   0  0  0  0  0  0  0  0  0  0  0  0
  143.7803  134.5395  149.3050 H   0  0  0  0  0  0  0  0  0  0  0  0
  143.8984  135.9546  151.3497 H   0  0  0  0  0  0  0  0  0  0  0  0
  145.6586  135.8475  149.3636 H   0  0  0  0  0  0  0  0  0  0  0  0
  144.9731  134.7909  153.1053 H   0  0  0  0  0  0  0  0  0  0  0  0
  146.1275  134.0212  152.0517 H   0  0  0  0  0  0  0  0  0  0  0  0
  147.5844  135.7403  152.4499 H   0  0  0  0  0  0  0  0  0  0  0  0
  148.3171  137.4567  153.0377 H   0  0  0  0  0  0  0  0  0  0  0  0
  145.5167  139.8096  153.6444 H   0  0  0  0  0  0  0  0  0  0  0  0
  145.8924  142.0895  154.5384 H   0  0  0  0  0  0  0  0  0  0  0  0
  148.1927  142.7199  155.3088 H   0  0  0  0  0  0  0  0  0  0  0  0
  151.6815  139.8245  153.7012 H   0  0  0  0  0  0  0  0  0  0  0  0
  151.3458  140.0270  155.4257 H   0  0  0  0  0  0  0  0  0  0  0  0
  152.4815  137.5796  154.0405 H   0  0  0  0  0  0  0  0  0  0  0  0
  153.1030  138.3822  155.4877 H   0  0  0  0  0  0  0  0  0  0  0  0
  151.5150  136.2000  155.7873 H   0  0  0  0  0  0  0  0  0  0  0  0
  151.2283  137.6117  156.8058 H   0  0  0  0  0  0  0  0  0  0  0  0
  149.0774  137.5255  155.8714 H   0  0  0  0  0  0  0  0  0  0  0  0
  149.6523  136.7159  154.4109 H   0  0  0  0  0  0  0  0  0  0  0  0
  1  2  1  0  0  0  0
  1 20  1  0  0  0  0
  1 21  1  0  0  0  0
  1 22  1  0  0  0  0
  2  3  1  0  0  0  0
  2  4  1  0  0  0  0
  2 23  1  0  0  0  0
  3 24  1  0  0  0  0
  4  5  1  0  0  0  0
  4 25  1  0  0  0  0
  4 26  1  0  0  0  0
  5  6  1  0  0  0  0
  5 27  1  0  0  0  0
  6  7  2  0  0  0  0
  6  8  1  0  0  0  0
  8  9  1  0  0  0  0
  8 28  1  0  0  0  0
  9 14  1  0  0  0  0
  9 10  2  0  0  0  0
 10 11  1  0  0  0  0
 10 29  1  0  0  0  0
 11 12  2  0  0  0  0
 11 30  1  0  0  0  0
 12 13  1  0  0  0  0
 12 31  1  0  0  0  0
 13 14  2  0  0  0  0
 14 15  1  0  0  0  0
 15 19  1  0  0  0  0
 15 16  1  0  0  0  0
 16 17  1  0  0  0  0
 16 32  1  0  0  0  0
 16 33  1  0  0  0  0
 17 18  1  0  0  0  0
 17 34  1  0  0  0  0
 17 35  1  0  0  0  0
 18 19  1  0  0  0  0
 18 36  1  0  0  0  0
 18 37  1  0  0  0  0
 19 38  1  0  0  0  0
 19 39  1  0  0  0  0
M  END
> <s_m_source_file>
AV-unprocessed.smi

> <i_m_source_file_index>
833

> <i_lp_mmshare_version>
43012

> <i_f3d_flags>
0

> <s_epik_input>
W0NIM11bQ0BIXShbT0hdKVtDSDJdW05IXUMoPU8pW05IXWMxW2NIXVtjSF1bY0hdbmMxTjJbQ0gyXVtDSDJdW0NIMl1bQ0gyXTI=

> <s_epik_cmdline>
J2VwaWtfcHl0aG9uJywgJy1waCcsICc3LjAnLCAnLXRuJywgJzgnLCAnLW1hJywgJzIwMCcsICctbWV0YWxfYmluZGluZycsICctaW1hZScsICc8aW5maWxlLm1hZT4nLCAnLW9tYWUnLCAnPG91dGZpbGUubWFlPic=

> <r_lp_tautomer_probability>
1

> <r_epik_Ionization_Penalty>
0.0986749

> <r_epik_Ionization_Penalty_Charging>
0

> <r_epik_Ionization_Penalty_Neutral>
0.0986749

> <r_epik_State_Penalty>
0.0881977

> <r_epik_Charging_Adjusted_Penalty>
0.0881977

> <i_epik_Tot_Q>
0

> <i_epik_Tot_abs_Q>
0

> <r_epik_Metal_State_Penalty>
0.0755487

> <b_epik_Metal_Only>
0

> <s_lp_Force_Field>
OPLS_2005

> <r_lp_Energy>
31.5613

> <b_lp_Chiralities_Consistent>
1

> <s_lp_Variant>
AV-unprocessed.smi:833-1

> <Gold.Version>
5.8.1

> <Gold.Id.Protein>
6NUR|6NUR_protein|mol2

> <Gold.PLP.Fitness>
37.3506

> <Gold.PLP.PLP>
-27.0583

> <Gold.PLP.part.hbond>
-3.7169

> <Gold.PLP.part.metal>
0.0000

> <Gold.PLP.part.buried>
-1.1093

> <Gold.PLP.part.nonpolar>
-22.8230

> <Gold.PLP.part.repulsive>
0.5254

> <Gold.PLP.ligand.clash>
0.0000

> <Gold.PLP.ligand.torsion>
0.7010

> <Gold.PLP.Chemscore.Hbond>
2.7920

> <Gold.PLP.Chemscore.CHOScore>
1.0000

> <Gold.PLP.Chemscore.Metal>
0.0000

> <Gold.Chemscore.Hbonds>
donor molecule, donor type, donor heavy atom, donor atom, acceptor molecule, acceptor atom, score
      L1  H     3    24       P1  7921  0.94
      L1  H     5    27       P1  7948  0.93
      L1  H     8    28       P1  7948  0.86
      L1  C    12    31       P1  8028  1.00

> <Gold.PLP.Chemscore.Internal.Correction>
0.3184

> <Gold.Rescore>
     Score         DG    S(hbond)    S(metal)    S(lipo)     H(rot)  DE(clash)    DE(int)     intcor
     14.16     -17.08       2.78        0.00      64.37       2.03       0.85       2.07       ----

> <Gold.Chemscore.Fitness>
14.1625

> <Gold.Chemscore.DG>
-17.0816

> <Gold.Chemscore.ZeroCoef>
-5.4800

> <Gold.Chemscore.Hbond>
2.7750

> <Gold.Chemscore.Metal>
0.0000

> <Gold.Chemscore.Lipo>
64.3710

> <Gold.Chemscore.Internal_Hbond>
0.0000

> <Gold.Chemscore.DEClash>
0.8493

> <Gold.Chemscore.DEInternal>
2.0699

> <Gold.Chemscore.Rot>
2.0306

> <Gold.Chemscore.Internal.Correction>
   9.000000E+99

> <Gold.Chemscore.Hbonds>
donor molecule, donor type, donor heavy atom, donor atom, acceptor molecule, acceptor atom, score
      L1  H     3    24       P1  7921  0.90
      L1  H     5    27       P1  7948  0.85
      L1  H     8    28       P1  7948  0.85

> <Gold.Chemscore.Hbond.Weighted>
-9.2687

> <Gold.Chemscore.Metal.Weighted>
-0.0000

> <Gold.Chemscore.Lipo.Weighted>
-7.5314

> <Gold.Chemscore.Internal_Hbond.Weighted>
0.0000

> <Gold.Chemscore.DEClash.Weighted>
0.8493

> <Gold.Chemscore.DEInternal.Weighted>
2.0699

> <Gold.Chemscore.Rot.Weighted>
5.1984

> <Gold.Chemscore.Internal.Correction.Weighted>
   9.000000E+99

> <Gold.Protein.RotatedTorsions>
[ 6907 6896 6895 6894 ] final  162.82 input  -60.11 | X-H torsion
[ 7974 7965 7964 7962 ] final  129.52 input  175.53 | X-H torsion
[ 8008 7997 7996 7995 ] final  -59.80 input   59.86 | X-H torsion
[ 10167 10162 10161 10158 ] final   71.85 input  -65.29 | X-H torsion
[ 10718 10713 10712 10709 ] final  146.84 input   66.30 | X-H torsion
[ 10763 10752 10751 10750 ] final   87.41 input  -60.55 | X-H torsion
[ 11005 11000 10999 10996 ] final  134.30 input  -57.11 | X-H torsion

> <Gold.Protein.ActiveResidues>
 VAL166  LYS551  ARG553  GLY616  TRP617  ASP618  TYR619  PRO620  LYS621  CYS622 
 ASP623  PHE694  ASN695  SER759  ASP760  ASP761  ALA762  ILE779  LEU786  VAL792 
 PHE793  MET794  SER795  GLU796  ALA797  LYS798  CYS799  TRP800  GLU811  SER814 

> <Gold.Protein.RotatedAtoms>
  151.9346  133.3620  159.3942 H   0  0  0  0  0  0  0  0  0  0  0  0  # atno 6907 bound_to 6896
  150.7010  134.4502  159.5342 H   0  0  0  0  0  0  0  0  0  0  0  0  # atno 6908 bound_to 6896
  152.2148  134.8468  160.0544 H   0  0  0  0  0  0  0  0  0  0  0  0  # atno 6909 bound_to 6896
  145.0278  139.4074  143.5165 H   0  0  0  0  0  0  0  0  0  0  0  0  # atno 7974 bound_to 7965
  154.4369  140.1053  156.6173 H   0  0  0  0  0  0  0  0  0  0  0  0  # atno 8008 bound_to 7997
  155.5745  140.3490  155.4505 H   0  0  0  0  0  0  0  0  0  0  0  0  # atno 8009 bound_to 7997
  156.0364  140.1272  157.0192 H   0  0  0  0  0  0  0  0  0  0  0  0  # atno 8010 bound_to 7997
  140.0417  144.5384  150.7429 H   0  0  0  0  0  0  0  0  0  0  0  0  # atno 10167 bound_to 10162
  157.3283  131.0916  151.1183 H   0  0  0  0  0  0  0  0  0  0  0  0  # atno 10718 bound_to 10713
  153.1665  135.4545  154.9844 H   0  0  0  0  0  0  0  0  0  0  0  0  # atno 10763 bound_to 10752
  154.7936  135.3229  154.7723 H   0  0  0  0  0  0  0  0  0  0  0  0  # atno 10764 bound_to 10752
  153.8205  135.6947  153.4882 H   0  0  0  0  0  0  0  0  0  0  0  0  # atno 10765 bound_to 10752
  139.9906  134.9516  156.9847 H   0  0  0  0  0  0  0  0  0  0  0  0  # atno 11005 bound_to 11000
  146.3494  139.9811  142.8695 LP  0  0  0  0  0  0  0  0  0  0  0  0  # atno 17320 bound_to 7965
  145.1811  140.9767  143.4266 LP  0  0  0  0  0  0  0  0  0  0  0  0  # atno 17321 bound_to 7965
  140.7257  143.2634  151.4128 LP  0  0  0  0  0  0  0  0  0  0  0  0  # atno 17342 bound_to 10162
  139.6010  144.1296  152.2197 LP  0  0  0  0  0  0  0  0  0  0  0  0  # atno 17343 bound_to 10162
  157.2442  130.6583  149.5903 LP  0  0  0  0  0  0  0  0  0  0  0  0  # atno 17370 bound_to 10713
  155.9693  130.4559  150.5904 LP  0  0  0  0  0  0  0  0  0  0  0  0  # atno 17371 bound_to 10713
  140.4915  134.1188  155.7233 LP  0  0  0  0  0  0  0  0  0  0  0  0  # atno 17394 bound_to 11000
  141.1563  133.8877  157.1969 LP  0  0  0  0  0  0  0  0  0  0  0  0  # atno 17395 bound_to 11000

$$$$
