AV-unprocessed.smi:3283|AV-procd|sdf|12568|dock3
  -GOLD-   2272018483D 1   1.00000     0.00000
 Structure written by MMmdl.
 44 45  0  0  0  0  0  0  0  0  2 V2000
  151.8838  145.3710  158.9920 C   0  0  0  0  0  0  0  0  0  0  0  0
  152.0612  143.8682  159.1296 C   0  0  0  0  0  0  0  0  0  0  0  0
  152.9061  143.3455  160.0398 C   0  0  0  0  0  0  0  0  0  0  0  0
  153.1750  141.8626  160.2167 C   0  0  0  0  0  0  0  0  0  0  0  0
  152.2156  140.9804  159.4031 C   0  0  0  0  0  0  0  0  0  0  0  0
  151.9213  141.5924  158.0218 C   0  0  1  0  0  0  0  0  0  0  0  0
  151.1780  140.6024  157.1090 C   0  0  0  0  0  0  0  0  0  0  0  0
  151.2630  143.0003  158.1523 C   0  0  1  0  0  0  0  0  0  0  0  0
  149.7661  142.9793  158.5570 C   0  0  0  0  0  0  0  0  0  0  0  0
  148.8951  142.5176  157.4575 N   0  3  0  0  0  0  0  0  0  0  0  0
  147.4654  142.4287  157.8112 C   0  0  0  0  0  0  0  0  0  0  0  0
  146.7021  141.5670  156.7950 C   0  0  0  0  0  0  0  0  0  0  0  0
  146.1142  142.3352  155.6506 C   0  0  0  0  0  0  0  0  0  0  0  0
  145.1062  143.2596  155.6058 C   0  0  0  0  0  0  0  0  0  0  0  0
  145.0198  143.6147  154.2314 C   0  0  0  0  0  0  0  0  0  0  0  0
  145.8979  142.9685  153.4851 N   0  0  0  0  0  0  0  0  0  0  0  0
  146.5703  142.1842  154.3535 N   0  0  0  0  0  0  0  0  0  0  0  0
  147.6270  141.3228  153.8587 C   0  0  0  0  0  0  0  0  0  0  0  0
  152.1238  145.6885  157.9771 H   0  0  0  0  0  0  0  0  0  0  0  0
  152.5417  145.9111  159.6737 H   0  0  0  0  0  0  0  0  0  0  0  0
  150.8610  145.6727  159.2129 H   0  0  0  0  0  0  0  0  0  0  0  0
  153.4669  144.0029  160.6883 H   0  0  0  0  0  0  0  0  0  0  0  0
  154.2028  141.6758  159.9041 H   0  0  0  0  0  0  0  0  0  0  0  0
  153.1156  141.6052  161.2744 H   0  0  0  0  0  0  0  0  0  0  0  0
  152.6492  139.9854  159.2960 H   0  0  0  0  0  0  0  0  0  0  0  0
  151.2856  140.8446  159.9553 H   0  0  0  0  0  0  0  0  0  0  0  0
  152.8896  141.7527  157.5438 H   0  0  0  0  0  0  0  0  0  0  0  0
  150.2425  140.2639  157.5551 H   0  0  0  0  0  0  0  0  0  0  0  0
  151.7848  139.7149  156.9271 H   0  0  0  0  0  0  0  0  0  0  0  0
  150.9561  141.0476  156.1388 H   0  0  0  0  0  0  0  0  0  0  0  0
  151.3428  143.4871  157.1790 H   0  0  0  0  0  0  0  0  0  0  0  0
  149.6149  142.3539  159.4369 H   0  0  0  0  0  0  0  0  0  0  0  0
  149.4247  143.9770  158.8305 H   0  0  0  0  0  0  0  0  0  0  0  0
  148.9986  143.1512  156.6776 H   0  0  0  0  0  0  0  0  0  0  0  0
  147.3710  141.9988  158.8093 H   0  0  0  0  0  0  0  0  0  0  0  0
  147.0422  143.4335  157.8468 H   0  0  0  0  0  0  0  0  0  0  0  0
  147.3716  140.8019  156.4004 H   0  0  0  0  0  0  0  0  0  0  0  0
  145.9017  141.0336  157.3095 H   0  0  0  0  0  0  0  0  0  0  0  0
  144.5144  143.6299  156.4296 H   0  0  0  0  0  0  0  0  0  0  0  0
  144.3501  144.3171  153.7574 H   0  0  0  0  0  0  0  0  0  0  0  0
  147.3460  140.2794  154.0031 H   0  0  0  0  0  0  0  0  0  0  0  0
  148.5505  141.5232  154.4023 H   0  0  0  0  0  0  0  0  0  0  0  0
  147.8013  141.4974  152.7961 H   0  0  0  0  0  0  0  0  0  0  0  0
  149.2086  141.6006  157.1722 H   0  0  0  0  0  0  0  0  0  0  0  0
  1  2  1  0  0  0  0
  1 19  1  0  0  0  0
  1 20  1  0  0  0  0
  1 21  1  0  0  0  0
  2  8  1  0  0  0  0
  2  3  2  0  0  0  0
  3  4  1  0  0  0  0
  3 22  1  0  0  0  0
  4  5  1  0  0  0  0
  4 23  1  0  0  0  0
  4 24  1  0  0  0  0
  5  6  1  0  0  0  0
  5 25  1  0  0  0  0
  5 26  1  0  0  0  0
  6  7  1  0  0  0  0
  6  8  1  0  0  0  0
  6 27  1  0  0  0  0
  7 28  1  0  0  0  0
  7 29  1  0  0  0  0
  7 30  1  0  0  0  0
  8  9  1  0  0  0  0
  8 31  1  0  0  0  0
  9 10  1  0  0  0  0
  9 32  1  0  0  0  0
  9 33  1  0  0  0  0
 10 11  1  0  0  0  0
 10 34  1  0  0  0  0
 10 44  1  0  0  0  0
 11 12  1  0  0  0  0
 11 35  1  0  0  0  0
 11 36  1  0  0  0  0
 12 13  1  0  0  0  0
 12 37  1  0  0  0  0
 12 38  1  0  0  0  0
 13 17  1  0  0  0  0
 13 14  2  0  0  0  0
 14 15  1  0  0  0  0
 14 39  1  0  0  0  0
 15 16  2  0  0  0  0
 15 40  1  0  0  0  0
 16 17  1  0  0  0  0
 17 18  1  0  0  0  0
 18 41  1  0  0  0  0
 18 42  1  0  0  0  0
 18 43  1  0  0  0  0
M  CHG  1  10   1
M  END
> <s_m_source_file>
AV-unprocessed.smi

> <i_m_source_file_index>
3283

> <i_lp_mmshare_version>
43012

> <i_f3d_flags>
0

> <s_epik_input>
W0NIM11DMT1bQ0hdW0NIMl1bQ0gyXVtDQEBIXShbQ0gzXSlbQ0BIXTFbQ0gyXVtOSF1bQ0gyXVtDSDJdYzJbY0hdW2NIXW5uMltDSDNd

> <s_epik_cmdline>
J2VwaWtfcHl0aG9uJywgJy1waCcsICc3LjAnLCAnLXRuJywgJzgnLCAnLW1hJywgJzIwMCcsICctbWV0YWxfYmluZGluZycsICctaW1hZScsICc8aW5maWxlLm1hZT4nLCAnLW9tYWUnLCAnPG91dGZpbGUubWFlPic=

> <r_lp_tautomer_probability>
1

> <r_epik_Ionization_Penalty>
0.000866911

> <r_epik_Ionization_Penalty_Charging>
0.000836385

> <r_epik_Ionization_Penalty_Neutral>
3.05258e-05

> <r_epik_State_Penalty>
-0

> <r_epik_Charging_Adjusted_Penalty>
0.000836385

> <i_epik_Tot_Q>
1

> <i_epik_Tot_abs_Q>
1

> <r_epik_Metal_State_Penalty>
-0

> <b_epik_Metal_Only>
0

> <s_lp_Force_Field>
OPLS_2005

> <r_lp_Energy>
14.2558

> <b_lp_Chiralities_Consistent>
1

> <s_lp_Variant>
AV-unprocessed.smi:3283-1

> <Gold.Version>
5.8.1

> <Gold.Id.Protein>
6NUR|6NUR_protein|mol2

> <Gold.PLP.Fitness>
48.0360

> <Gold.PLP.PLP>
-42.6857

> <Gold.PLP.part.hbond>
-1.0000

> <Gold.PLP.part.metal>
0.0000

> <Gold.PLP.part.buried>
-6.5519

> <Gold.PLP.part.nonpolar>
-35.3445

> <Gold.PLP.part.repulsive>
0.2622

> <Gold.PLP.ligand.clash>
0.0000

> <Gold.PLP.ligand.torsion>
0.4321

> <Gold.PLP.Chemscore.Hbond>
2.0000

> <Gold.PLP.Chemscore.CHOScore>
0.0000

> <Gold.PLP.Chemscore.Metal>
0.0000

> <Gold.Chemscore.Hbonds>
donor molecule, donor type, donor heavy atom, donor atom, acceptor molecule, acceptor atom, score
      L1  H    10    34       P1  8028  2.00

> <Gold.PLP.Chemscore.Internal.Correction>
0.2144

> <Gold.Rescore>
     Score         DG    S(hbond)    S(metal)    S(lipo)     H(rot)  DE(clash)    DE(int)     intcor
     17.61     -18.15       0.98        0.00     112.65       1.48       0.03       0.50       ----

> <Gold.Chemscore.Fitness>
17.6097

> <Gold.Chemscore.DG>
-18.1477

> <Gold.Chemscore.ZeroCoef>
-5.4800

> <Gold.Chemscore.Hbond>
0.9845

> <Gold.Chemscore.Metal>
0.0000

> <Gold.Chemscore.Lipo>
112.6523

> <Gold.Chemscore.Internal_Hbond>
0.0000

> <Gold.Chemscore.DEClash>
0.0335

> <Gold.Chemscore.DEInternal>
0.5046

> <Gold.Chemscore.Rot>
1.4847

> <Gold.Chemscore.Internal.Correction>
   9.000000E+99

> <Gold.Chemscore.Hbonds>
donor molecule, donor type, donor heavy atom, donor atom, acceptor molecule, acceptor atom, score
      L1  H    10    34       P1  8028  0.95

> <Gold.Chemscore.Hbond.Weighted>
-3.2882

> <Gold.Chemscore.Metal.Weighted>
-0.0000

> <Gold.Chemscore.Lipo.Weighted>
-13.1803

> <Gold.Chemscore.Internal_Hbond.Weighted>
0.0000

> <Gold.Chemscore.DEClash.Weighted>
0.0335

> <Gold.Chemscore.DEInternal.Weighted>
0.5046

> <Gold.Chemscore.Rot.Weighted>
3.8008

> <Gold.Chemscore.Internal.Correction.Weighted>
   9.000000E+99

> <Gold.Protein.RotatedTorsions>
[ 6907 6896 6895 6894 ] final  -95.32 input  -60.11 | X-H torsion
[ 7974 7965 7964 7962 ] final   94.72 input  175.53 | X-H torsion
[ 8008 7997 7996 7995 ] final  146.95 input   59.86 | X-H torsion
[ 10167 10162 10161 10158 ] final   46.58 input  -65.29 | X-H torsion
[ 10718 10713 10712 10709 ] final -147.19 input   66.30 | X-H torsion
[ 10763 10752 10751 10750 ] final -137.42 input  -60.55 | X-H torsion
[ 11005 11000 10999 10996 ] final -151.49 input  -57.11 | X-H torsion

> <Gold.Protein.ActiveResidues>
 VAL166  LYS551  ARG553  GLY616  TRP617  ASP618  TYR619  PRO620  LYS621  CYS622 
 ASP623  PHE694  ASN695  SER759  ASP760  ASP761  ALA762  ILE779  LEU786  VAL792 
 PHE793  MET794  SER795  GLU796  ALA797  LYS798  CYS799  TRP800  GLU811  SER814 

> <Gold.Protein.RotatedAtoms>
  150.6961  134.1675  159.4199 H   0  0  0  0  0  0  0  0  0  0  0  0  # atno 6907 bound_to 6896
  151.9654  135.0101  160.0559 H   0  0  0  0  0  0  0  0  0  0  0  0  # atno 6908 bound_to 6896
  152.1889  133.4724  159.5034 H   0  0  0  0  0  0  0  0  0  0  0  0  # atno 6909 bound_to 6896
  145.4618  139.2286  143.2983 H   0  0  0  0  0  0  0  0  0  0  0  0  # atno 7974 bound_to 7965
  156.2840  140.2168  156.5460 H   0  0  0  0  0  0  0  0  0  0  0  0  # atno 8008 bound_to 7997
  154.7330  140.0494  157.0766 H   0  0  0  0  0  0  0  0  0  0  0  0  # atno 8009 bound_to 7997
  155.0328  140.3137  155.4755 H   0  0  0  0  0  0  0  0  0  0  0  0  # atno 8010 bound_to 7997
  140.3125  144.2803  150.6197 H   0  0  0  0  0  0  0  0  0  0  0  0  # atno 10167 bound_to 10162
  156.4044  130.7950  151.2163 H   0  0  0  0  0  0  0  0  0  0  0  0  # atno 10718 bound_to 10713
  154.8662  135.3642  154.5221 H   0  0  0  0  0  0  0  0  0  0  0  0  # atno 10763 bound_to 10752
  153.5850  135.7017  153.5452 H   0  0  0  0  0  0  0  0  0  0  0  0  # atno 10764 bound_to 10752
  153.3423  135.4094  155.1544 H   0  0  0  0  0  0  0  0  0  0  0  0  # atno 10765 bound_to 10752
  140.7290  134.3642  157.5170 H   0  0  0  0  0  0  0  0  0  0  0  0  # atno 11005 bound_to 11000
  146.2447  140.5387  142.8919 LP  0  0  0  0  0  0  0  0  0  0  0  0  # atno 17320 bound_to 7965
  144.7998  140.6192  143.6485 LP  0  0  0  0  0  0  0  0  0  0  0  0  # atno 17321 bound_to 7965
  140.5556  143.2199  151.7854 LP  0  0  0  0  0  0  0  0  0  0  0  0  # atno 17342 bound_to 10162
  139.4891  144.4419  151.9755 LP  0  0  0  0  0  0  0  0  0  0  0  0  # atno 17343 bound_to 10162
  157.7505  131.0277  150.4016 LP  0  0  0  0  0  0  0  0  0  0  0  0  # atno 17370 bound_to 10713
  156.4302  130.3970  149.6765 LP  0  0  0  0  0  0  0  0  0  0  0  0  # atno 17371 bound_to 10713
  139.8830  134.9006  156.2791 LP  0  0  0  0  0  0  0  0  0  0  0  0  # atno 17394 bound_to 11000
  140.9937  133.7193  156.0853 LP  0  0  0  0  0  0  0  0  0  0  0  0  # atno 17395 bound_to 11000

$$$$
