AV-unprocessed.smi:692|AV-procd|sdf|3368|dock6
  -GOLD-   22720 0343D 1   1.00000     0.00000
 Structure written by MMmdl.
 37 38  0  0  0  0  0  0  0  0  1 V2000
  153.3431  142.3039  162.0530 C   0  0  0  0  0  0  0  0  0  0  0  0
  153.2012  141.6012  160.6982 C   0  0  0  0  0  0  0  0  0  0  0  0
  152.7029  142.5234  159.6273 C   0  0  0  0  0  0  0  0  0  0  0  0
  153.0739  143.8310  159.4280 C   0  0  0  0  0  0  0  0  0  0  0  0
  152.2609  144.5406  158.0590 S   0  0  0  0  0  0  0  0  0  0  0  0
  151.4330  143.0119  157.8078 C   0  0  0  0  0  0  0  0  0  0  0  0
  150.5068  142.8246  156.7485 N   0  0  0  0  0  0  0  0  0  0  0  0
  150.2777  141.7101  156.0320 C   0  0  0  0  0  0  0  0  0  0  0  0
  150.8468  140.6300  156.1932 O   0  0  0  0  0  0  0  0  0  0  0  0
  149.3314  141.9158  155.1046 N   0  0  0  0  0  0  0  0  0  0  0  0
  148.8385  140.9094  154.1688 C   0  0  2  0  0  0  0  0  0  0  0  0
  147.5439  141.3962  153.5156 C   0  0  0  0  0  0  0  0  0  0  0  0
  147.0361  140.3647  152.5009 C   0  0  0  0  0  0  0  0  0  0  0  0
  147.0210  138.9256  153.0388 C   0  0  0  0  0  0  0  0  0  0  0  0
  146.3212  138.0965  152.4562 O   0  0  0  0  0  0  0  0  0  0  0  0
  147.7930  138.6063  154.1056 N   0  0  0  0  0  0  0  0  0  0  0  0
  147.8201  137.2330  154.6122 C   0  0  0  0  0  0  0  0  0  0  0  0
  148.5868  139.5687  154.8861 C   0  0  0  0  0  0  0  0  0  0  0  0
  151.7651  142.0675  158.6954 N   0  0  0  0  0  0  0  0  0  0  0  0
  153.7019  141.6107  162.8141 H   0  0  0  0  0  0  0  0  0  0  0  0
  152.3869  142.7046  162.3908 H   0  0  0  0  0  0  0  0  0  0  0  0
  154.0520  143.1307  161.9958 H   0  0  0  0  0  0  0  0  0  0  0  0
  154.1654  141.1812  160.4093 H   0  0  0  0  0  0  0  0  0  0  0  0
  152.5252  140.7521  160.8043 H   0  0  0  0  0  0  0  0  0  0  0  0
  153.7770  144.4170  160.0013 H   0  0  0  0  0  0  0  0  0  0  0  0
  149.9528  143.6339  156.5097 H   0  0  0  0  0  0  0  0  0  0  0  0
  148.9178  142.8346  155.0426 H   0  0  0  0  0  0  0  0  0  0  0  0
  149.5796  140.7602  153.3806 H   0  0  0  0  0  0  0  0  0  0  0  0
  146.7811  141.5731  154.2758 H   0  0  0  0  0  0  0  0  0  0  0  0
  147.7100  142.3501  153.0135 H   0  0  0  0  0  0  0  0  0  0  0  0
  146.0350  140.6368  152.1647 H   0  0  0  0  0  0  0  0  0  0  0  0
  147.6752  140.3787  151.6175 H   0  0  0  0  0  0  0  0  0  0  0  0
  148.2515  136.5607  153.8693 H   0  0  0  0  0  0  0  0  0  0  0  0
  146.8122  136.8852  154.8443 H   0  0  0  0  0  0  0  0  0  0  0  0
  148.4119  137.1420  155.5241 H   0  0  0  0  0  0  0  0  0  0  0  0
  149.5447  139.1221  155.1572 H   0  0  0  0  0  0  0  0  0  0  0  0
  148.0515  139.7467  155.8201 H   0  0  0  0  0  0  0  0  0  0  0  0
  1  2  1  0  0  0  0
  1 20  1  0  0  0  0
  1 21  1  0  0  0  0
  1 22  1  0  0  0  0
  2  3  1  0  0  0  0
  2 23  1  0  0  0  0
  2 24  1  0  0  0  0
  3 19  1  0  0  0  0
  3  4  2  0  0  0  0
  4  5  1  0  0  0  0
  4 25  1  0  0  0  0
  5  6  1  0  0  0  0
  6  7  1  0  0  0  0
  6 19  2  0  0  0  0
  7  8  1  0  0  0  0
  7 26  1  0  0  0  0
  8  9  2  0  0  0  0
  8 10  1  0  0  0  0
 10 11  1  0  0  0  0
 10 27  1  0  0  0  0
 11 18  1  0  0  0  0
 11 12  1  0  0  0  0
 11 28  1  0  0  0  0
 12 13  1  0  0  0  0
 12 29  1  0  0  0  0
 12 30  1  0  0  0  0
 13 14  1  0  0  0  0
 13 31  1  0  0  0  0
 13 32  1  0  0  0  0
 14 15  2  0  0  0  0
 14 16  1  0  0  0  0
 16 17  1  0  0  0  0
 16 18  1  0  0  0  0
 17 33  1  0  0  0  0
 17 34  1  0  0  0  0
 17 35  1  0  0  0  0
 18 36  1  0  0  0  0
 18 37  1  0  0  0  0
M  END
> <s_m_source_file>
AV-unprocessed.smi

> <i_m_source_file_index>
692

> <i_lp_mmshare_version>
43012

> <i_f3d_flags>
0

> <s_epik_input>
W0NIM11bQ0gyXWMxW2NIXXNjKG4xKVtOSF1DKD1PKVtOSF1bQ0BASF0yW0NIMl1bQ0gyXUMoPU8pTihbQ0gzXSlbQ0gyXTI=

> <s_epik_cmdline>
J2VwaWtfcHl0aG9uJywgJy1waCcsICc3LjAnLCAnLXRuJywgJzgnLCAnLW1hJywgJzIwMCcsICctbWV0YWxfYmluZGluZycsICctaW1hZScsICc8aW5maWxlLm1hZT4nLCAnLW9tYWUnLCAnPG91dGZpbGUubWFlPic=

> <r_lp_tautomer_probability>
1

> <r_epik_Ionization_Penalty>
0.000165573

> <r_epik_Ionization_Penalty_Charging>
0

> <r_epik_Ionization_Penalty_Neutral>
0.000165573

> <r_epik_State_Penalty>
-0

> <r_epik_Charging_Adjusted_Penalty>
0

> <i_epik_Tot_Q>
0

> <i_epik_Tot_abs_Q>
0

> <r_epik_Metal_State_Penalty>
0.031163

> <b_epik_Metal_Only>
0

> <s_lp_Force_Field>
OPLS_2005

> <r_lp_Energy>
8.08929

> <b_lp_Chiralities_Consistent>
1

> <s_lp_Variant>
AV-unprocessed.smi:692-1

> <Gold.Version>
5.8.1

> <Gold.Id.Protein>
6NUR|6NUR_protein|mol2

> <Gold.PLP.Fitness>
45.4388

> <Gold.PLP.PLP>
-40.8483

> <Gold.PLP.part.hbond>
-2.0000

> <Gold.PLP.part.metal>
0.0000

> <Gold.PLP.part.buried>
-4.9723

> <Gold.PLP.part.nonpolar>
-34.2817

> <Gold.PLP.part.repulsive>
0.5464

> <Gold.PLP.ligand.clash>
0.0000

> <Gold.PLP.ligand.torsion>
0.6935

> <Gold.PLP.Chemscore.Hbond>
1.9920

> <Gold.PLP.Chemscore.CHOScore>
0.0000

> <Gold.PLP.Chemscore.Metal>
0.0000

> <Gold.Chemscore.Hbonds>
donor molecule, donor type, donor heavy atom, donor atom, acceptor molecule, acceptor atom, score
      L1  H     7    26       P1  8028  1.00
      L1  H    10    27       P1  8028  0.99

> <Gold.PLP.Chemscore.Internal.Correction>
0.0014

> <Gold.Rescore>
     Score         DG    S(hbond)    S(metal)    S(lipo)     H(rot)  DE(clash)    DE(int)     intcor
     16.47     -19.63       1.96        0.00      92.16       1.24       0.14       3.02       ----

> <Gold.Chemscore.Fitness>
16.4687

> <Gold.Chemscore.DG>
-19.6302

> <Gold.Chemscore.ZeroCoef>
-5.4800

> <Gold.Chemscore.Hbond>
1.9575

> <Gold.Chemscore.Metal>
0.0000

> <Gold.Chemscore.Lipo>
92.1612

> <Gold.Chemscore.Internal_Hbond>
0.0000

> <Gold.Chemscore.DEClash>
0.1399

> <Gold.Chemscore.DEInternal>
3.0216

> <Gold.Chemscore.Rot>
1.2386

> <Gold.Chemscore.Internal.Correction>
   9.000000E+99

> <Gold.Chemscore.Hbonds>
donor molecule, donor type, donor heavy atom, donor atom, acceptor molecule, acceptor atom, score
      L1  H     7    26       P1  8028  1.00
      L1  H    10    27       P1  8028  0.93

> <Gold.Chemscore.Hbond.Weighted>
-6.5382

> <Gold.Chemscore.Metal.Weighted>
-0.0000

> <Gold.Chemscore.Lipo.Weighted>
-10.7829

> <Gold.Chemscore.Internal_Hbond.Weighted>
0.0000

> <Gold.Chemscore.DEClash.Weighted>
0.1399

> <Gold.Chemscore.DEInternal.Weighted>
3.0216

> <Gold.Chemscore.Rot.Weighted>
3.1708

> <Gold.Chemscore.Internal.Correction.Weighted>
   9.000000E+99

> <Gold.Protein.RotatedTorsions>
[ 6907 6896 6895 6894 ] final -162.61 input  -60.11 | X-H torsion
[ 7974 7965 7964 7962 ] final  117.36 input  175.53 | X-H torsion
[ 8008 7997 7996 7995 ] final   13.13 input   59.86 | X-H torsion
[ 10167 10162 10161 10158 ] final -131.09 input  -65.29 | X-H torsion
[ 10718 10713 10712 10709 ] final -142.16 input   66.30 | X-H torsion
[ 10763 10752 10751 10750 ] final  -17.87 input  -60.55 | X-H torsion
[ 11005 11000 10999 10996 ] final  -11.46 input  -57.11 | X-H torsion

> <Gold.Protein.ActiveResidues>
 VAL166  LYS551  ARG553  GLY616  TRP617  ASP618  TYR619  PRO620  LYS621  CYS622 
 ASP623  PHE694  ASN695  SER759  ASP760  ASP761  ALA762  ILE779  LEU786  VAL792 
 PHE793  MET794  SER795  GLU796  ALA797  LYS798  CYS799  TRP800  GLU811  SER814 

> <Gold.Protein.RotatedAtoms>
  151.3831  133.3814  159.2712 H   0  0  0  0  0  0  0  0  0  0  0  0  # atno 6907 bound_to 6896
  150.9562  134.8957  159.7713 H   0  0  0  0  0  0  0  0  0  0  0  0  # atno 6908 bound_to 6896
  152.5132  134.3788  159.9396 H   0  0  0  0  0  0  0  0  0  0  0  0  # atno 6909 bound_to 6896
  145.1683  139.3115  143.4481 H   0  0  0  0  0  0  0  0  0  0  0  0  # atno 7974 bound_to 7965
  154.8302  140.2898  155.5727 H   0  0  0  0  0  0  0  0  0  0  0  0  # atno 8008 bound_to 7997
  156.3005  140.2533  156.3157 H   0  0  0  0  0  0  0  0  0  0  0  0  # atno 8009 bound_to 7997
  154.9239  140.0385  157.2002 H   0  0  0  0  0  0  0  0  0  0  0  0  # atno 8010 bound_to 7997
  139.9226  143.6365  152.2550 H   0  0  0  0  0  0  0  0  0  0  0  0  # atno 10167 bound_to 10162
  156.3426  130.7646  151.1785 H   0  0  0  0  0  0  0  0  0  0  0  0  # atno 10718 bound_to 10713
  153.5805  135.7005  153.5465 H   0  0  0  0  0  0  0  0  0  0  0  0  # atno 10763 bound_to 10752
  153.3265  135.4059  155.1460 H   0  0  0  0  0  0  0  0  0  0  0  0  # atno 10764 bound_to 10752
  154.8618  135.3708  154.5332 H   0  0  0  0  0  0  0  0  0  0  0  0  # atno 10765 bound_to 10752
  140.7555  133.8557  155.9080 H   0  0  0  0  0  0  0  0  0  0  0  0  # atno 11005 bound_to 11000
  146.3472  140.1820  142.8589 LP  0  0  0  0  0  0  0  0  0  0  0  0  # atno 17320 bound_to 7965
  145.0259  140.8831  143.5139 LP  0  0  0  0  0  0  0  0  0  0  0  0  # atno 17321 bound_to 7965
  139.6849  144.7652  151.1542 LP  0  0  0  0  0  0  0  0  0  0  0  0  # atno 17342 bound_to 10162
  140.7658  143.5671  150.9035 LP  0  0  0  0  0  0  0  0  0  0  0  0  # atno 17343 bound_to 10162
  157.7449  131.0450  150.4821 LP  0  0  0  0  0  0  0  0  0  0  0  0  # atno 17370 bound_to 10713
  156.5004  130.4116  149.6356 LP  0  0  0  0  0  0  0  0  0  0  0  0  # atno 17371 bound_to 10713
  140.9711  134.1529  157.4575 LP  0  0  0  0  0  0  0  0  0  0  0  0  # atno 17394 bound_to 11000
  139.8780  134.9979  156.5870 LP  0  0  0  0  0  0  0  0  0  0  0  0  # atno 17395 bound_to 11000

$$$$
