AV-unprocessed.smi:960|AV-procd|sdf|4273|dock7
  -GOLD-   22720 2183D 1   1.00000     0.00000
 Structure written by MMmdl.
 45 46  0  0  0  0  0  0  0  0  1 V2000
  152.0757  145.2400  158.8681 C   0  0  0  0  0  0  0  0  0  0  0  0
  151.3989  144.0897  159.0188 C   0  0  0  0  0  0  0  0  0  0  0  0
  149.8992  144.0634  159.2475 C   0  0  0  0  0  0  0  0  0  0  0  0
  152.0893  142.7354  158.9456 C   0  0  0  0  0  0  0  0  0  0  0  0
  153.1011  142.5393  159.9841 N   0  0  0  0  0  0  0  0  0  0  0  0
  153.5957  141.1581  159.9995 C   0  0  0  0  0  0  0  0  0  0  0  0
  154.7069  140.9983  161.0517 C   0  0  0  0  0  0  0  0  0  0  0  0
  154.2101  141.3877  162.4519 C   0  0  0  0  0  0  0  0  0  0  0  0
  155.3220  141.3579  163.3973 N   0  0  0  0  0  0  0  0  0  0  0  0
  155.3503  141.9930  164.5773 C   0  0  0  0  0  0  0  0  0  0  0  0
  154.4160  142.6643  165.0142 O   0  0  0  0  0  0  0  0  0  0  0  0
  156.5108  141.7837  165.2171 N   0  0  0  0  0  0  0  0  0  0  0  0
  156.9054  142.3241  166.4666 C   0  0  0  0  0  0  0  0  0  0  0  0
  156.4748  143.5181  167.1172 C   0  0  0  0  0  0  0  0  0  0  0  0
  155.4854  144.5704  166.7002 C   0  0  0  0  0  0  0  0  0  0  0  0
  157.1310  143.6705  168.2581 N   0  0  0  0  0  0  0  0  0  0  0  0
  158.0271  142.5952  168.3554 O   0  0  0  0  0  0  0  0  0  0  0  0
  157.8882  141.8067  167.2579 C   0  0  0  0  0  0  0  0  0  0  0  0
  158.7779  140.6136  167.1640 C   0  0  0  0  0  0  0  0  0  0  0  0
  153.5802  142.7899  162.3904 C   0  0  0  0  0  0  0  0  0  0  0  0
  152.5149  142.8710  161.2839 C   0  0  0  0  0  0  0  0  0  0  0  0
  151.5748  146.1959  158.9131 H   0  0  0  0  0  0  0  0  0  0  0  0
  153.1424  145.2432  158.6979 H   0  0  0  0  0  0  0  0  0  0  0  0
  149.4073  143.4922  158.4603 H   0  0  0  0  0  0  0  0  0  0  0  0
  149.4792  145.0696  159.2490 H   0  0  0  0  0  0  0  0  0  0  0  0
  149.6648  143.5993  160.2058 H   0  0  0  0  0  0  0  0  0  0  0  0
  151.3212  141.9668  159.0407 H   0  0  0  0  0  0  0  0  0  0  0  0
  152.5434  142.6077  157.9615 H   0  0  0  0  0  0  0  0  0  0  0  0
  152.7748  140.4694  160.2060 H   0  0  0  0  0  0  0  0  0  0  0  0
  154.0003  140.8879  159.0242 H   0  0  0  0  0  0  0  0  0  0  0  0
  155.0631  139.9674  161.0557 H   0  0  0  0  0  0  0  0  0  0  0  0
  155.5593  141.6190  160.7709 H   0  0  0  0  0  0  0  0  0  0  0  0
  153.4511  140.6663  162.7614 H   0  0  0  0  0  0  0  0  0  0  0  0
  156.1343  140.8240  163.1252 H   0  0  0  0  0  0  0  0  0  0  0  0
  157.1409  141.1097  164.8073 H   0  0  0  0  0  0  0  0  0  0  0  0
  155.4856  144.7065  165.6187 H   0  0  0  0  0  0  0  0  0  0  0  0
  155.7177  145.5372  167.1479 H   0  0  0  0  0  0  0  0  0  0  0  0
  154.4747  144.3005  167.0060 H   0  0  0  0  0  0  0  0  0  0  0  0
  158.6614  140.1110  166.2037 H   0  0  0  0  0  0  0  0  0  0  0  0
  158.5446  139.8963  167.9507 H   0  0  0  0  0  0  0  0  0  0  0  0
  159.8237  140.9027  167.2684 H   0  0  0  0  0  0  0  0  0  0  0  0
  153.1292  143.0427  163.3504 H   0  0  0  0  0  0  0  0  0  0  0  0
  154.3517  143.5388  162.2044 H   0  0  0  0  0  0  0  0  0  0  0  0
  152.1075  143.8825  161.2537 H   0  0  0  0  0  0  0  0  0  0  0  0
  151.6850  142.1981  161.5062 H   0  0  0  0  0  0  0  0  0  0  0  0
  1  2  2  0  0  0  0
  1 22  1  0  0  0  0
  1 23  1  0  0  0  0
  2  3  1  0  0  0  0
  2  4  1  0  0  0  0
  3 24  1  0  0  0  0
  3 25  1  0  0  0  0
  3 26  1  0  0  0  0
  4  5  1  0  0  0  0
  4 27  1  0  0  0  0
  4 28  1  0  0  0  0
  5 21  1  0  0  0  0
  5  6  1  0  0  0  0
  6  7  1  0  0  0  0
  6 29  1  0  0  0  0
  6 30  1  0  0  0  0
  7  8  1  0  0  0  0
  7 31  1  0  0  0  0
  7 32  1  0  0  0  0
  8  9  1  0  0  0  0
  8 20  1  0  0  0  0
  8 33  1  0  0  0  0
  9 10  1  0  0  0  0
  9 34  1  0  0  0  0
 10 11  2  0  0  0  0
 10 12  1  0  0  0  0
 12 13  1  0  0  0  0
 12 35  1  0  0  0  0
 13 18  2  0  0  0  0
 13 14  1  0  0  0  0
 14 15  1  0  0  0  0
 14 16  2  0  0  0  0
 15 36  1  0  0  0  0
 15 37  1  0  0  0  0
 15 38  1  0  0  0  0
 16 17  1  0  0  0  0
 17 18  1  0  0  0  0
 18 19  1  0  0  0  0
 19 39  1  0  0  0  0
 19 40  1  0  0  0  0
 19 41  1  0  0  0  0
 20 21  1  0  0  0  0
 20 42  1  0  0  0  0
 20 43  1  0  0  0  0
 21 44  1  0  0  0  0
 21 45  1  0  0  0  0
M  END
> <s_m_source_file>
AV-unprocessed.smi

> <i_m_source_file_index>
960

> <i_lp_mmshare_version>
43012

> <i_f3d_flags>
0

> <s_epik_input>
W0NIMl09QyhbQ0gzXSlbQ0gyXU4xW0NIMl1bQ0gyXVtDSF0oW0NIMl1bQ0gyXTEpW05IXUMoPU8pW05IXWMyYyhbQ0gzXSlub2MyW0NIM10=

> <s_epik_cmdline>
J2VwaWtfcHl0aG9uJywgJy1waCcsICc3LjAnLCAnLXRuJywgJzgnLCAnLW1hJywgJzIwMCcsICctbWV0YWxfYmluZGluZycsICctaW1hZScsICc8aW5maWxlLm1hZT4nLCAnLW9tYWUnLCAnPG91dGZpbGUubWFlPic=

> <r_epik_Ionization_Penalty>
2.03694

> <r_epik_Ionization_Penalty_Charging>
0

> <r_epik_Ionization_Penalty_Neutral>
2.03694

> <r_epik_State_Penalty>
2.16834

> <r_epik_Charging_Adjusted_Penalty>
2.16834

> <i_epik_Tot_Q>
0

> <i_epik_Tot_abs_Q>
0

> <r_epik_Metal_State_Penalty>
2.16834

> <b_epik_Metal_Only>
0

> <s_lp_Force_Field>
OPLS_2005

> <r_lp_Energy>
16.835

> <b_lp_Chiralities_Consistent>
1

> <s_lp_Variant>
AV-unprocessed.smi:960-3

> <Gold.Version>
5.8.1

> <Gold.Id.Protein>
6NUR|6NUR_protein|mol2

> <Gold.PLP.Fitness>
38.0210

> <Gold.PLP.PLP>
-38.6760

> <Gold.PLP.part.hbond>
-2.0000

> <Gold.PLP.part.metal>
0.0000

> <Gold.PLP.part.buried>
-3.6979

> <Gold.PLP.part.nonpolar>
-31.8118

> <Gold.PLP.part.repulsive>
0.0930

> <Gold.PLP.ligand.clash>
0.0000

> <Gold.PLP.ligand.torsion>
0.4503

> <Gold.PLP.Chemscore.Hbond>
0.0000

> <Gold.PLP.Chemscore.CHOScore>
0.0000

> <Gold.PLP.Chemscore.Metal>
0.0000

> <Gold.PLP.Chemscore.Internal.Correction>
0.2456

> <Gold.Rescore>
     Score         DG    S(hbond)    S(metal)    S(lipo)     H(rot)  DE(clash)    DE(int)     intcor
     10.10     -15.99       0.00        0.00     118.74       1.32       1.87       4.02       ----

> <Gold.Chemscore.Fitness>
10.1016

> <Gold.Chemscore.DG>
-15.9870

> <Gold.Chemscore.ZeroCoef>
-5.4800

> <Gold.Chemscore.Hbond>
0.0000

> <Gold.Chemscore.Metal>
0.0000

> <Gold.Chemscore.Lipo>
118.7401

> <Gold.Chemscore.Internal_Hbond>
0.0000

> <Gold.Chemscore.DEClash>
1.8684

> <Gold.Chemscore.DEInternal>
4.0170

> <Gold.Chemscore.Rot>
1.3225

> <Gold.Chemscore.Internal.Correction>
   9.000000E+99

> <Gold.Chemscore.Hbond.Weighted>
-0.0000

> <Gold.Chemscore.Metal.Weighted>
-0.0000

> <Gold.Chemscore.Lipo.Weighted>
-13.8926

> <Gold.Chemscore.Internal_Hbond.Weighted>
0.0000

> <Gold.Chemscore.DEClash.Weighted>
1.8684

> <Gold.Chemscore.DEInternal.Weighted>
4.0170

> <Gold.Chemscore.Rot.Weighted>
3.3856

> <Gold.Chemscore.Internal.Correction.Weighted>
   9.000000E+99

> <Gold.Protein.RotatedTorsions>
[ 6907 6896 6895 6894 ] final  113.74 input  -60.11 | X-H torsion
[ 7974 7965 7964 7962 ] final  -54.24 input  175.53 | X-H torsion
[ 8008 7997 7996 7995 ] final  129.43 input   59.86 | X-H torsion
[ 10167 10162 10161 10158 ] final  -60.17 input  -65.29 | X-H torsion
[ 10718 10713 10712 10709 ] final -117.09 input   66.30 | X-H torsion
[ 10763 10752 10751 10750 ] final  -80.51 input  -60.55 | X-H torsion
[ 11005 11000 10999 10996 ] final  -61.02 input  -57.11 | X-H torsion

> <Gold.Protein.ActiveResidues>
 VAL166  LYS551  ARG553  GLY616  TRP617  ASP618  TYR619  PRO620  LYS621  CYS622 
 ASP623  PHE694  ASN695  SER759  ASP760  ASP761  ALA762  ILE779  LEU786  VAL792 
 PHE793  MET794  SER795  GLU796  ALA797  LYS798  CYS799  TRP800  GLU811  SER814 

> <Gold.Protein.RotatedAtoms>
  152.4843  133.8334  159.7114 H   0  0  0  0  0  0  0  0  0  0  0  0  # atno 6907 bound_to 6896
  150.8918  133.7224  159.2909 H   0  0  0  0  0  0  0  0  0  0  0  0  # atno 6908 bound_to 6896
  151.4694  135.1048  159.9799 H   0  0  0  0  0  0  0  0  0  0  0  0  # atno 6909 bound_to 6896
  145.8878  140.8094  142.9807 H   0  0  0  0  0  0  0  0  0  0  0  0  # atno 7974 bound_to 7965
  156.2936  140.2620  156.2598 H   0  0  0  0  0  0  0  0  0  0  0  0  # atno 8008 bound_to 7997
  154.9800  140.0390  157.2292 H   0  0  0  0  0  0  0  0  0  0  0  0  # atno 8009 bound_to 7997
  154.7780  140.2790  155.6090 H   0  0  0  0  0  0  0  0  0  0  0  0  # atno 8010 bound_to 7997
  140.6088  143.2381  151.5757 H   0  0  0  0  0  0  0  0  0  0  0  0  # atno 10167 bound_to 10162
  156.1009  130.6171  150.9119 H   0  0  0  0  0  0  0  0  0  0  0  0  # atno 10718 bound_to 10713
  154.5521  135.5658  153.6932 H   0  0  0  0  0  0  0  0  0  0  0  0  # atno 10763 bound_to 10752
  152.9993  135.6253  154.2359 H   0  0  0  0  0  0  0  0  0  0  0  0  # atno 10764 bound_to 10752
  154.2294  135.2866  155.2875 H   0  0  0  0  0  0  0  0  0  0  0  0  # atno 10765 bound_to 10752
  141.1309  133.6626  156.5311 H   0  0  0  0  0  0  0  0  0  0  0  0  # atno 11005 bound_to 11000
  144.6729  140.1483  143.7432 LP  0  0  0  0  0  0  0  0  0  0  0  0  # atno 17320 bound_to 7965
  145.8945  139.2395  143.1530 LP  0  0  0  0  0  0  0  0  0  0  0  0  # atno 17321 bound_to 7965
  139.5345  144.2819  152.1222 LP  0  0  0  0  0  0  0  0  0  0  0  0  # atno 17342 bound_to 10162
  140.2014  144.4654  150.6429 LP  0  0  0  0  0  0  0  0  0  0  0  0  # atno 17343 bound_to 10162
  157.6179  131.0932  150.8677 LP  0  0  0  0  0  0  0  0  0  0  0  0  # atno 17370 bound_to 10713
  156.8805  130.5177  149.5291 LP  0  0  0  0  0  0  0  0  0  0  0  0  # atno 17371 bound_to 10713
  140.4215  134.7183  157.4892 LP  0  0  0  0  0  0  0  0  0  0  0  0  # atno 17394 bound_to 11000
  140.0357  134.6341  155.9047 LP  0  0  0  0  0  0  0  0  0  0  0  0  # atno 17395 bound_to 11000

$$$$
