AV-unprocessed.smi:2325|AV-procd|sdf|9296|dock7
  -GOLD-   2272012513D 1   1.00000     0.00000
 Structure written by MMmdl.
 40 41  0  0  0  0  0  0  0  0  1 V2000
  150.9135  138.5047  154.2973 C   0  0  0  0  0  0  0  0  0  0  0  0
  149.8304  139.4689  154.2963 N   0  0  0  0  0  0  0  0  0  0  0  0
  150.0177  140.7285  154.7557 N   0  0  0  0  0  0  0  0  0  0  0  0
  148.8161  141.2825  154.5918 C   0  0  0  0  0  0  0  0  0  0  0  0
  147.8525  140.4756  154.0570 N   0  0  0  0  0  0  0  0  0  0  0  0
  148.5591  139.3606  153.8994 C   0  0  0  0  0  0  0  0  0  0  0  0
  148.0791  138.1323  153.3712 N   0  0  0  0  0  0  0  0  0  0  0  0
  146.8839  137.5566  153.5830 C   0  0  0  0  0  0  0  0  0  0  0  0
  145.9809  138.0281  154.2743 O   0  0  0  0  0  0  0  0  0  0  0  0
  146.7919  136.3834  152.9417 N   0  0  0  0  0  0  0  0  0  0  0  0
  145.6376  135.4879  152.9858 C   0  0  1  0  0  0  0  0  0  0  0  0
  145.2184  135.0543  151.5953 C   0  0  0  0  0  0  0  0  0  0  0  0
  144.4716  133.7400  151.8506 C   0  0  0  0  0  0  0  0  0  0  0  0
  142.9711  133.9690  152.1011 C   0  0  0  0  0  0  0  0  0  0  0  0
  144.6914  132.7177  150.7251 C   0  0  0  0  0  0  0  0  0  0  0  0
  145.0291  133.2148  153.0543 O   0  0  0  0  0  0  0  0  0  0  0  0
  145.9155  134.1385  153.6849 C   0  0  0  0  0  0  0  0  0  0  0  0
  147.3422  133.5919  153.4681 C   0  0  0  0  0  0  0  0  0  0  0  0
  145.5683  134.1724  155.1817 C   0  0  0  0  0  0  0  0  0  0  0  0
  151.0591  138.1147  153.2897 H   0  0  0  0  0  0  0  0  0  0  0  0
  150.6681  137.6801  154.9668 H   0  0  0  0  0  0  0  0  0  0  0  0
  151.8416  138.9697  154.6327 H   0  0  0  0  0  0  0  0  0  0  0  0
  148.6263  142.3090  154.8689 H   0  0  0  0  0  0  0  0  0  0  0  0
  148.7220  137.6340  152.7739 H   0  0  0  0  0  0  0  0  0  0  0  0
  147.5830  136.0752  152.3958 H   0  0  0  0  0  0  0  0  0  0  0  0
  144.7876  135.9875  153.4550 H   0  0  0  0  0  0  0  0  0  0  0  0
  144.6106  135.8011  151.0831 H   0  0  0  0  0  0  0  0  0  0  0  0
  146.1011  134.8735  150.9796 H   0  0  0  0  0  0  0  0  0  0  0  0
  142.4833  134.3882  151.2205 H   0  0  0  0  0  0  0  0  0  0  0  0
  142.8037  134.6559  152.9311 H   0  0  0  0  0  0  0  0  0  0  0  0
  142.4664  133.0339  152.3454 H   0  0  0  0  0  0  0  0  0  0  0  0
  144.3045  133.0878  149.7753 H   0  0  0  0  0  0  0  0  0  0  0  0
  144.1888  131.7755  150.9452 H   0  0  0  0  0  0  0  0  0  0  0  0
  145.7514  132.4992  150.5914 H   0  0  0  0  0  0  0  0  0  0  0  0
  148.0903  134.2140  153.9600 H   0  0  0  0  0  0  0  0  0  0  0  0
  147.5961  133.5382  152.4094 H   0  0  0  0  0  0  0  0  0  0  0  0
  147.4389  132.5856  153.8765 H   0  0  0  0  0  0  0  0  0  0  0  0
  146.2177  134.8596  155.7239 H   0  0  0  0  0  0  0  0  0  0  0  0
  145.6801  133.1867  155.6340 H   0  0  0  0  0  0  0  0  0  0  0  0
  144.5381  134.4914  155.3418 H   0  0  0  0  0  0  0  0  0  0  0  0
  1  2  1  0  0  0  0
  1 20  1  0  0  0  0
  1 21  1  0  0  0  0
  1 22  1  0  0  0  0
  2  6  1  0  0  0  0
  2  3  1  0  0  0  0
  3  4  2  0  0  0  0
  4  5  1  0  0  0  0
  4 23  1  0  0  0  0
  5  6  2  0  0  0  0
  6  7  1  0  0  0  0
  7  8  1  0  0  0  0
  7 24  1  0  0  0  0
  8  9  2  0  0  0  0
  8 10  1  0  0  0  0
 10 11  1  0  0  0  0
 10 25  1  0  0  0  0
 11 17  1  0  0  0  0
 11 12  1  0  0  0  0
 11 26  1  0  0  0  0
 12 13  1  0  0  0  0
 12 27  1  0  0  0  0
 12 28  1  0  0  0  0
 13 14  1  0  0  0  0
 13 15  1  0  0  0  0
 13 16  1  0  0  0  0
 14 29  1  0  0  0  0
 14 30  1  0  0  0  0
 14 31  1  0  0  0  0
 15 32  1  0  0  0  0
 15 33  1  0  0  0  0
 15 34  1  0  0  0  0
 16 17  1  0  0  0  0
 17 18  1  0  0  0  0
 17 19  1  0  0  0  0
 18 35  1  0  0  0  0
 18 36  1  0  0  0  0
 18 37  1  0  0  0  0
 19 38  1  0  0  0  0
 19 39  1  0  0  0  0
 19 40  1  0  0  0  0
M  END
> <s_m_source_file>
AV-unprocessed.smi

> <i_m_source_file_index>
2325

> <i_lp_mmshare_version>
43012

> <i_f3d_flags>
0

> <s_epik_input>
W0NIM11uMW5bY0hdbmMxW05IXUMoPU8pW05IXVtDQEBIXShDKE8yKShbQ0gzXSlbQ0gzXSlbQ0gyXUMyKFtDSDNdKVtDSDNd

> <s_epik_cmdline>
J2VwaWtfcHl0aG9uJywgJy1waCcsICc3LjAnLCAnLXRuJywgJzgnLCAnLW1hJywgJzIwMCcsICctbWV0YWxfYmluZGluZycsICctaW1hZScsICc8aW5maWxlLm1hZT4nLCAnLW9tYWUnLCAnPG91dGZpbGUubWFlPic=

> <r_lp_tautomer_probability>
1

> <r_epik_Ionization_Penalty>
1.97832e-05

> <r_epik_Ionization_Penalty_Charging>
0

> <r_epik_Ionization_Penalty_Neutral>
1.97832e-05

> <r_epik_State_Penalty>
-0

> <r_epik_Charging_Adjusted_Penalty>
0

> <i_epik_Tot_Q>
0

> <i_epik_Tot_abs_Q>
0

> <r_epik_Metal_State_Penalty>
-0

> <b_epik_Metal_Only>
0

> <s_lp_Force_Field>
OPLS_2005

> <r_lp_Energy>
17.1515

> <b_lp_Chiralities_Consistent>
1

> <s_lp_Variant>
AV-unprocessed.smi:2325-2

> <Gold.Version>
5.8.1

> <Gold.Id.Protein>
6NUR|6NUR_protein|mol2

> <Gold.PLP.Fitness>
33.1302

> <Gold.PLP.PLP>
-24.3663

> <Gold.PLP.part.hbond>
-2.8847

> <Gold.PLP.part.metal>
0.0000

> <Gold.PLP.part.buried>
-1.4017

> <Gold.PLP.part.nonpolar>
-20.9112

> <Gold.PLP.part.repulsive>
0.5355

> <Gold.PLP.ligand.clash>
0.0000

> <Gold.PLP.ligand.torsion>
0.3764

> <Gold.PLP.Chemscore.Hbond>
2.1685

> <Gold.PLP.Chemscore.CHOScore>
1.0000

> <Gold.PLP.Chemscore.Metal>
0.0000

> <Gold.Chemscore.Hbonds>
donor molecule, donor type, donor heavy atom, donor atom, acceptor molecule, acceptor atom, score
      L1  H     7    24       P1  7948  0.93
      L1  H    10    25       P1  7948  0.84
      P1  H  7989  7998       L1     3  0.35
      L1  C     4    23       P1  8028  0.99

> <Gold.PLP.Chemscore.Internal.Correction>
0.0112

> <Gold.Rescore>
     Score         DG    S(hbond)    S(metal)    S(lipo)     H(rot)  DE(clash)    DE(int)     intcor
     13.71     -14.12       1.93        0.00      40.55       1.00       0.01       0.40       ----

> <Gold.Chemscore.Fitness>
13.7076

> <Gold.Chemscore.DG>
-14.1159

> <Gold.Chemscore.ZeroCoef>
-5.4800

> <Gold.Chemscore.Hbond>
1.9316

> <Gold.Chemscore.Metal>
0.0000

> <Gold.Chemscore.Lipo>
40.5503

> <Gold.Chemscore.Internal_Hbond>
0.0000

> <Gold.Chemscore.DEClash>
0.0052

> <Gold.Chemscore.DEInternal>
0.4031

> <Gold.Chemscore.Rot>
1.0000

> <Gold.Chemscore.Internal.Correction>
   9.000000E+99

> <Gold.Chemscore.Hbonds>
donor molecule, donor type, donor heavy atom, donor atom, acceptor molecule, acceptor atom, score
      L1  H     7    24       P1  7948  0.89
      L1  H    10    25       P1  7948  0.80
      P1  H  7989  7998       L1     3  0.01

> <Gold.Chemscore.Hbond.Weighted>
-6.4516

> <Gold.Chemscore.Metal.Weighted>
-0.0000

> <Gold.Chemscore.Lipo.Weighted>
-4.7444

> <Gold.Chemscore.Internal_Hbond.Weighted>
0.0000

> <Gold.Chemscore.DEClash.Weighted>
0.0052

> <Gold.Chemscore.DEInternal.Weighted>
0.4031

> <Gold.Chemscore.Rot.Weighted>
2.5600

> <Gold.Chemscore.Internal.Correction.Weighted>
   9.000000E+99

> <Gold.Protein.RotatedTorsions>
[ 6907 6896 6895 6894 ] final -169.46 input  -60.11 | X-H torsion
[ 7974 7965 7964 7962 ] final  -97.53 input  175.53 | X-H torsion
[ 8008 7997 7996 7995 ] final -138.35 input   59.86 | X-H torsion
[ 10167 10162 10161 10158 ] final  162.58 input  -65.29 | X-H torsion
[ 10718 10713 10712 10709 ] final  -86.08 input   66.30 | X-H torsion
[ 10763 10752 10751 10750 ] final  -27.92 input  -60.55 | X-H torsion
[ 11005 11000 10999 10996 ] final -114.51 input  -57.11 | X-H torsion

> <Gold.Protein.ActiveResidues>
 VAL166  LYS551  ARG553  GLY616  TRP617  ASP618  TYR619  PRO620  LYS621  CYS622 
 ASP623  PHE694  ASN695  SER759  ASP760  ASP761  ALA762  ILE779  LEU786  VAL792 
 PHE793  MET794  SER795  GLU796  ALA797  LYS798  CYS799  TRP800  GLU811  SER814 

> <Gold.Protein.RotatedAtoms>
  151.4919  133.3523  159.2854 H   0  0  0  0  0  0  0  0  0  0  0  0  # atno 6907 bound_to 6896
  150.8829  134.8224  159.7249 H   0  0  0  0  0  0  0  0  0  0  0  0  # atno 6908 bound_to 6896
  152.4774  134.4819  159.9720 H   0  0  0  0  0  0  0  0  0  0  0  0  # atno 6909 bound_to 6896
  145.3326  140.9444  143.2653 H   0  0  0  0  0  0  0  0  0  0  0  0  # atno 7974 bound_to 7965
  155.4268  140.0522  157.3021 H   0  0  0  0  0  0  0  0  0  0  0  0  # atno 8008 bound_to 7997
  154.4877  140.2107  155.9575 H   0  0  0  0  0  0  0  0  0  0  0  0  # atno 8009 bound_to 7997
  156.1299  140.3173  155.8338 H   0  0  0  0  0  0  0  0  0  0  0  0  # atno 8010 bound_to 7997
  139.4862  144.4423  151.8935 H   0  0  0  0  0  0  0  0  0  0  0  0  # atno 10167 bound_to 10162
  155.9992  130.4753  150.4661 H   0  0  0  0  0  0  0  0  0  0  0  0  # atno 10718 bound_to 10713
  153.7399  135.6933  153.4969 H   0  0  0  0  0  0  0  0  0  0  0  0  # atno 10763 bound_to 10752
  153.2076  135.4414  155.0340 H   0  0  0  0  0  0  0  0  0  0  0  0  # atno 10764 bound_to 10752
  154.8224  135.3429  154.6925 H   0  0  0  0  0  0  0  0  0  0  0  0  # atno 10765 bound_to 10752
  141.0547  133.9631  157.2775 H   0  0  0  0  0  0  0  0  0  0  0  0  # atno 11005 bound_to 11000
  144.8852  139.4849  143.6704 LP  0  0  0  0  0  0  0  0  0  0  0  0  # atno 17320 bound_to 7965
  146.3039  139.7517  142.9070 LP  0  0  0  0  0  0  0  0  0  0  0  0  # atno 17321 bound_to 7965
  140.3876  144.2657  150.5902 LP  0  0  0  0  0  0  0  0  0  0  0  0  # atno 17342 bound_to 10162
  140.5176  143.2274  151.8439 LP  0  0  0  0  0  0  0  0  0  0  0  0  # atno 17343 bound_to 10162
  157.2680  131.0581  151.2278 LP  0  0  0  0  0  0  0  0  0  0  0  0  # atno 17370 bound_to 10713
  157.3368  130.7013  149.6357 LP  0  0  0  0  0  0  0  0  0  0  0  0  # atno 17371 bound_to 10713
  139.9380  135.0194  156.8617 LP  0  0  0  0  0  0  0  0  0  0  0  0  # atno 17394 bound_to 11000
  140.5987  134.0192  155.7528 LP  0  0  0  0  0  0  0  0  0  0  0  0  # atno 17395 bound_to 11000

$$$$
