AV-unprocessed.smi:1643|AV-procd|sdf|6579|dock3
  -GOLD-   22720 7263D 1   1.00000     0.00000
 Structure written by MMmdl.
 55 57  0  0  0  0  0  0  0  0  3 V2000
  145.5505  133.0197  157.2172 C   0  0  0  0  0  0  0  0  0  0  0  0
  146.4463  132.7566  156.0030 C   0  0  0  0  0  0  0  0  0  0  0  0
  146.0424  131.9704  155.1462 O   0  0  0  0  0  0  0  0  0  0  0  0
  147.6389  133.3956  155.9111 N   0  0  0  0  0  0  0  0  0  0  0  0
  148.1009  134.2929  156.9816 C   0  0  0  0  0  0  0  0  0  0  0  0
  147.8408  135.7681  156.6276 C   0  0  0  0  0  0  0  0  0  0  0  0
  147.9779  136.1001  155.1267 C   0  0  0  0  0  0  0  0  0  0  0  0
  149.2967  135.7358  154.5381 N   0  3  1  0  0  0  0  0  0  0  0  0
  150.3903  136.6534  154.9650 C   0  0  0  0  0  0  0  0  0  0  0  0
  149.9994  138.1475  154.8747 C   0  0  2  0  0  0  0  0  0  0  0  0
  149.5951  138.4644  153.5591 O   0  0  0  0  0  0  0  0  0  0  0  0
  151.1496  139.1182  155.2231 C   0  0  0  0  0  0  0  0  0  0  0  0
  150.6943  140.4352  155.6882 N   0  0  0  0  0  0  0  0  0  0  0  0
  149.8168  141.3095  155.1230 C   0  0  0  0  0  0  0  0  0  0  0  0
  149.7219  142.3875  155.9494 N   0  3  0  0  0  0  0  0  0  0  0  0
  150.5382  142.1926  157.0657 C   0  0  0  0  0  0  0  0  0  0  0  0
  150.7720  142.9971  158.1745 C   0  0  0  0  0  0  0  0  0  0  0  0
  151.6629  142.5024  159.1536 C   0  0  0  0  0  0  0  0  0  0  0  0
  151.9402  143.3569  160.3789 C   0  0  0  0  0  0  0  0  0  0  0  0
  152.2850  141.2360  159.0020 C   0  0  0  0  0  0  0  0  0  0  0  0
  153.2371  140.7125  160.0642 C   0  0  0  0  0  0  0  0  0  0  0  0
  152.0347  140.4329  157.8661 C   0  0  0  0  0  0  0  0  0  0  0  0
  151.1582  140.9378  156.9088 C   0  0  0  0  0  0  0  0  0  0  0  0
  149.6744  134.2891  154.6084 C   0  0  0  0  0  0  0  0  0  0  0  0
  148.5083  133.2699  154.7213 C   0  0  0  0  0  0  0  0  0  0  0  0
  145.3885  134.0879  157.3636 H   0  0  0  0  0  0  0  0  0  0  0  0
  145.9923  132.6013  158.1217 H   0  0  0  0  0  0  0  0  0  0  0  0
  144.5740  132.5544  157.0796 H   0  0  0  0  0  0  0  0  0  0  0  0
  147.6302  134.0659  157.9395 H   0  0  0  0  0  0  0  0  0  0  0  0
  149.1585  134.1262  157.1791 H   0  0  0  0  0  0  0  0  0  0  0  0
  146.8263  136.0247  156.9348 H   0  0  0  0  0  0  0  0  0  0  0  0
  148.4993  136.4043  157.2197 H   0  0  0  0  0  0  0  0  0  0  0  0
  147.1870  135.6120  154.5562 H   0  0  0  0  0  0  0  0  0  0  0  0
  147.7947  137.1645  154.9756 H   0  0  0  0  0  0  0  0  0  0  0  0
  150.6179  136.4294  156.0066 H   0  0  0  0  0  0  0  0  0  0  0  0
  151.3094  136.4473  154.4141 H   0  0  0  0  0  0  0  0  0  0  0  0
  149.1570  138.3386  155.5400 H   0  0  0  0  0  0  0  0  0  0  0  0
  149.3429  137.6678  153.1168 H   0  0  0  0  0  0  0  0  0  0  0  0
  151.7750  138.6951  156.0107 H   0  0  0  0  0  0  0  0  0  0  0  0
  151.8017  139.2749  154.3622 H   0  0  0  0  0  0  0  0  0  0  0  0
  149.2910  141.1747  154.1884 H   0  0  0  0  0  0  0  0  0  0  0  0
  150.2916  143.9585  158.2857 H   0  0  0  0  0  0  0  0  0  0  0  0
  152.9968  143.6205  160.4309 H   0  0  0  0  0  0  0  0  0  0  0  0
  151.6710  142.8207  161.2891 H   0  0  0  0  0  0  0  0  0  0  0  0
  151.3659  144.2835  160.3577 H   0  0  0  0  0  0  0  0  0  0  0  0
  153.6453  139.7390  159.7909 H   0  0  0  0  0  0  0  0  0  0  0  0
  152.7216  140.6013  161.0185 H   0  0  0  0  0  0  0  0  0  0  0  0
  154.0739  141.3975  160.2003 H   0  0  0  0  0  0  0  0  0  0  0  0
  152.5044  139.4669  157.7532 H   0  0  0  0  0  0  0  0  0  0  0  0
  150.2294  134.0598  153.6987 H   0  0  0  0  0  0  0  0  0  0  0  0
  150.3873  134.1221  155.4159 H   0  0  0  0  0  0  0  0  0  0  0  0
  148.9280  132.2632  154.7138 H   0  0  0  0  0  0  0  0  0  0  0  0
  147.9076  133.3584  153.8152 H   0  0  0  0  0  0  0  0  0  0  0  0
  149.1705  135.9217  153.5532 H   0  0  0  0  0  0  0  0  0  0  0  0
  149.1349  143.1921  155.7679 H   0  0  0  0  0  0  0  0  0  0  0  0
  1  2  1  0  0  0  0
  1 26  1  0  0  0  0
  1 27  1  0  0  0  0
  1 28  1  0  0  0  0
  2  3  2  0  0  0  0
  2  4  1  0  0  0  0
  4 25  1  0  0  0  0
  4  5  1  0  0  0  0
  5  6  1  0  0  0  0
  5 29  1  0  0  0  0
  5 30  1  0  0  0  0
  6  7  1  0  0  0  0
  6 31  1  0  0  0  0
  6 32  1  0  0  0  0
  7  8  1  0  0  0  0
  7 33  1  0  0  0  0
  7 34  1  0  0  0  0
  8  9  1  0  0  0  0
  8 24  1  0  0  0  0
  8 54  1  0  0  0  0
  9 10  1  0  0  0  0
  9 35  1  0  0  0  0
  9 36  1  0  0  0  0
 10 11  1  0  0  0  0
 10 12  1  0  0  0  0
 10 37  1  0  0  0  0
 11 38  1  0  0  0  0
 12 13  1  0  0  0  0
 12 39  1  0  0  0  0
 12 40  1  0  0  0  0
 13 23  1  0  0  0  0
 13 14  1  0  0  0  0
 14 15  2  0  0  0  0
 14 41  1  0  0  0  0
 15 16  1  0  0  0  0
 15 55  1  0  0  0  0
 16 23  2  0  0  0  0
 16 17  1  0  0  0  0
 17 18  2  0  0  0  0
 17 42  1  0  0  0  0
 18 19  1  0  0  0  0
 18 20  1  0  0  0  0
 19 43  1  0  0  0  0
 19 44  1  0  0  0  0
 19 45  1  0  0  0  0
 20 21  1  0  0  0  0
 20 22  2  0  0  0  0
 21 46  1  0  0  0  0
 21 47  1  0  0  0  0
 21 48  1  0  0  0  0
 22 23  1  0  0  0  0
 22 49  1  0  0  0  0
 24 25  1  0  0  0  0
 24 50  1  0  0  0  0
 24 51  1  0  0  0  0
 25 52  1  0  0  0  0
 25 53  1  0  0  0  0
M  CHG  1   8   1
M  CHG  1  15   1
M  END
> <s_m_source_file>
AV-unprocessed.smi

> <i_m_source_file_index>
1643

> <i_lp_mmshare_version>
43012

> <i_f3d_flags>
0

> <s_epik_input>
W0NIM11DKD1PKU4xW0NIMl1bQ0gyXVtDSDJdTihbQ0gyXVtDSDJdMSlbQ0gyXVtDQEhdKFtPSF0pW0NIMl1uKFtjSF1uMiljKGMyMylbY0hdYyhbQ0gzXSljKFtjSF0zKVtDSDNd

> <s_epik_cmdline>
J2VwaWtfcHl0aG9uJywgJy1waCcsICc3LjAnLCAnLXRuJywgJzgnLCAnLW1hJywgJzIwMCcsICctbWV0YWxfYmluZGluZycsICctaW1hZScsICc8aW5maWxlLm1hZT4nLCAnLW9tYWUnLCAnPG91dGZpbGUubWFlPic=

> <r_epik_Ionization_Penalty>
1.2865

> <r_epik_Ionization_Penalty_Charging>
1.2865

> <r_epik_Ionization_Penalty_Neutral>
2.89706e-06

> <r_epik_State_Penalty>
1.3566

> <r_epik_Charging_Adjusted_Penalty>
2.6431

> <i_epik_Tot_Q>
2

> <i_epik_Tot_abs_Q>
2

> <r_epik_Metal_State_Penalty>
5.37339

> <b_epik_Metal_Only>
0

> <s_lp_Force_Field>
OPLS_2005

> <r_lp_Energy>
60.8109

> <b_lp_Chiralities_Consistent>
1

> <s_lp_Variant>
AV-unprocessed.smi:1643-8

> <Gold.Version>
5.8.1

> <Gold.Id.Protein>
6NUR|6NUR_protein|mol2

> <Gold.PLP.Fitness>
55.7279

> <Gold.PLP.PLP>
-41.3663

> <Gold.PLP.part.hbond>
-4.0282

> <Gold.PLP.part.metal>
0.0000

> <Gold.PLP.part.buried>
-3.8903

> <Gold.PLP.part.nonpolar>
-33.0329

> <Gold.PLP.part.repulsive>
0.2720

> <Gold.PLP.ligand.clash>
0.0000

> <Gold.PLP.ligand.torsion>
0.3612

> <Gold.PLP.Chemscore.Hbond>
5.0000

> <Gold.PLP.Chemscore.CHOScore>
0.0000

> <Gold.PLP.Chemscore.Metal>
0.0000

> <Gold.Chemscore.Hbonds>
donor molecule, donor type, donor heavy atom, donor atom, acceptor molecule, acceptor atom, score
      L1  H     8    54       P1  7948  2.00
      L1  H    11    38       P1  7948  1.00
      L1  H    15    55       P1  8028  2.00

> <Gold.PLP.Chemscore.Internal.Correction>
0.0840

> <Gold.Rescore>
     Score         DG    S(hbond)    S(metal)    S(lipo)     H(rot)  DE(clash)    DE(int)     intcor
     21.24     -21.62       2.89        0.00     102.86       2.17       0.02       0.36       ----

> <Gold.Chemscore.Fitness>
21.2419

> <Gold.Chemscore.DG>
-21.6162

> <Gold.Chemscore.ZeroCoef>
-5.4800

> <Gold.Chemscore.Hbond>
2.8947

> <Gold.Chemscore.Metal>
0.0000

> <Gold.Chemscore.Lipo>
102.8605

> <Gold.Chemscore.Internal_Hbond>
0.0000

> <Gold.Chemscore.DEClash>
0.0166

> <Gold.Chemscore.DEInternal>
0.3577

> <Gold.Chemscore.Rot>
2.1744

> <Gold.Chemscore.Internal.Correction>
   9.000000E+99

> <Gold.Chemscore.Hbonds>
donor molecule, donor type, donor heavy atom, donor atom, acceptor molecule, acceptor atom, score
      L1  H     8    54       P1  7948  0.82
      L1  H    11    38       P1  7948  0.95
      L1  H    15    55       P1  8028  0.92

> <Gold.Chemscore.Hbond.Weighted>
-9.6681

> <Gold.Chemscore.Metal.Weighted>
-0.0000

> <Gold.Chemscore.Lipo.Weighted>
-12.0347

> <Gold.Chemscore.Internal_Hbond.Weighted>
0.0000

> <Gold.Chemscore.DEClash.Weighted>
0.0166

> <Gold.Chemscore.DEInternal.Weighted>
0.3577

> <Gold.Chemscore.Rot.Weighted>
5.5666

> <Gold.Chemscore.Internal.Correction.Weighted>
   9.000000E+99

> <Gold.Protein.RotatedTorsions>
[ 6907 6896 6895 6894 ] final  106.02 input  -60.11 | X-H torsion
[ 7974 7965 7964 7962 ] final -155.42 input  175.53 | X-H torsion
[ 8008 7997 7996 7995 ] final -134.76 input   59.86 | X-H torsion
[ 10167 10162 10161 10158 ] final  158.44 input  -65.29 | X-H torsion
[ 10718 10713 10712 10709 ] final   17.50 input   66.30 | X-H torsion
[ 10763 10752 10751 10750 ] final   95.93 input  -60.55 | X-H torsion
[ 11005 11000 10999 10996 ] final  110.98 input  -57.11 | X-H torsion

> <Gold.Protein.ActiveResidues>
 VAL166  LYS551  ARG553  GLY616  TRP617  ASP618  TYR619  PRO620  LYS621  CYS622 
 ASP623  PHE694  ASN695  SER759  ASP760  ASP761  ALA762  ILE779  LEU786  VAL792 
 PHE793  MET794  SER795  GLU796  ALA797  LYS798  CYS799  TRP800  GLU811  SER814 

> <Gold.Protein.RotatedAtoms>
  152.5209  133.9442  159.7640 H   0  0  0  0  0  0  0  0  0  0  0  0  # atno 6907 bound_to 6896
  150.9765  133.6281  159.2736 H   0  0  0  0  0  0  0  0  0  0  0  0  # atno 6908 bound_to 6896
  151.3473  135.0882  159.9444 H   0  0  0  0  0  0  0  0  0  0  0  0  # atno 6909 bound_to 6896
  144.7641  140.4251  143.5955 H   0  0  0  0  0  0  0  0  0  0  0  0  # atno 7974 bound_to 7965
  155.3674  140.0486  157.3046 H   0  0  0  0  0  0  0  0  0  0  0  0  # atno 8008 bound_to 7997
  154.5147  140.2204  155.9051 H   0  0  0  0  0  0  0  0  0  0  0  0  # atno 8009 bound_to 7997
  156.1623  140.3114  155.8834 H   0  0  0  0  0  0  0  0  0  0  0  0  # atno 8010 bound_to 7997
  139.4827  144.4824  151.8425 H   0  0  0  0  0  0  0  0  0  0  0  0  # atno 10167 bound_to 10162
  157.0830  130.6396  149.5831 H   0  0  0  0  0  0  0  0  0  0  0  0  # atno 10718 bound_to 10713
  153.2590  135.4236  155.0874 H   0  0  0  0  0  0  0  0  0  0  0  0  # atno 10763 bound_to 10752
  154.8412  135.3444  154.6405 H   0  0  0  0  0  0  0  0  0  0  0  0  # atno 10764 bound_to 10752
  153.6825  135.7038  153.5170 H   0  0  0  0  0  0  0  0  0  0  0  0  # atno 10765 bound_to 10752
  139.8893  134.9497  156.6361 H   0  0  0  0  0  0  0  0  0  0  0  0  # atno 11005 bound_to 11000
  145.6526  139.1567  143.2853 LP  0  0  0  0  0  0  0  0  0  0  0  0  # atno 17320 bound_to 7965
  146.1732  140.6614  142.9223 LP  0  0  0  0  0  0  0  0  0  0  0  0  # atno 17321 bound_to 7965
  140.4301  144.2127  150.5888 LP  0  0  0  0  0  0  0  0  0  0  0  0  # atno 17342 bound_to 10162
  140.4788  143.2386  151.8985 LP  0  0  0  0  0  0  0  0  0  0  0  0  # atno 17343 bound_to 10162
  155.9918  130.4974  150.7315 LP  0  0  0  0  0  0  0  0  0  0  0  0  # atno 17370 bound_to 10713
  157.4784  131.0900  151.0564 LP  0  0  0  0  0  0  0  0  0  0  0  0  # atno 17371 bound_to 10713
  140.7629  133.8802  155.8432 LP  0  0  0  0  0  0  0  0  0  0  0  0  # atno 17394 bound_to 11000
  140.9907  134.1283  157.4411 LP  0  0  0  0  0  0  0  0  0  0  0  0  # atno 17395 bound_to 11000

$$$$
