AV-unprocessed.smi:155|AV-procd|sdf|1277|dock7
  -GOLD-   2262018543D 1   1.00000     0.00000
 Structure written by MMmdl.
 63 66  0  0  0  0  0  0  0  0  2 V2000
  143.8255  132.9965  148.9013 C   0  0  0  0  0  0  0  0  0  0  0  0
  143.5929  133.5447  150.2564 N   0  3  0  0  0  0  0  0  0  0  0  0
  143.7576  132.5048  151.2983 C   0  0  0  0  0  0  0  0  0  0  0  0
  144.3987  134.7655  150.5083 C   0  0  0  0  0  0  0  0  0  0  0  0
  144.3828  135.1874  151.9936 C   0  0  0  0  0  0  0  0  0  0  0  0
  145.5834  135.9445  152.3565 N   0  0  0  0  0  0  0  0  0  0  0  0
  145.5696  137.2488  151.6845 C   0  0  0  0  0  0  0  0  0  0  0  0
  146.8733  138.0458  151.8673 C   0  0  0  0  0  0  0  0  0  0  0  0
  146.9535  138.7825  153.2145 C   0  0  0  0  0  0  0  0  0  0  0  0
  147.2907  137.9143  154.3431 N   0  0  0  0  0  0  0  0  0  0  0  0
  148.1586  138.4027  155.2684 C   0  0  0  0  0  0  0  0  0  0  0  0
  148.4828  137.6373  156.3450 N   0  0  0  0  0  0  0  0  0  0  0  0
  149.3457  138.0862  157.2611 C   0  0  0  0  0  0  0  0  0  0  0  0
  149.9899  139.2538  157.2994 N   0  0  0  0  0  0  0  0  0  0  0  0
  149.6634  140.0322  156.2286 C   0  0  0  0  0  0  0  0  0  0  0  0
  148.7665  139.6892  155.1768 C   0  0  0  0  0  0  0  0  0  0  0  0
  148.6805  140.7420  154.2716 N   0  0  0  0  0  0  0  0  0  0  0  0
  149.4869  141.6476  154.7535 C   0  0  0  0  0  0  0  0  0  0  0  0
  150.1198  141.3028  155.9251 N   0  0  0  0  0  0  0  0  0  0  0  0
  151.0638  142.1166  156.6704 C   0  0  0  0  0  0  0  0  0  0  0  0
  150.5421  142.4863  158.0729 C   0  0  2  0  0  0  0  0  0  0  0  0
  149.3598  143.2531  157.9445 O   0  0  0  0  0  0  0  0  0  0  0  0
  151.5731  143.2917  158.8840 C   0  0  1  0  0  0  0  0  0  0  0  0
  151.0051  143.9774  160.1262 C   0  0  0  0  0  0  0  0  0  0  0  0
  152.2543  144.2029  160.9475 C   0  0  0  0  0  0  0  0  0  0  0  0
  153.0820  142.9563  160.6385 C   0  0  0  0  0  0  0  0  0  0  0  0
  152.5752  142.4300  159.4140 O   0  0  0  0  0  0  0  0  0  0  0  0
  147.0422  136.4736  154.2881 C   0  0  0  0  0  0  0  0  0  0  0  0
  145.6223  136.1287  153.8088 C   0  0  0  0  0  0  0  0  0  0  0  0
  144.8628  132.6818  148.7800 H   0  0  0  0  0  0  0  0  0  0  0  0
  143.6020  133.7414  148.1365 H   0  0  0  0  0  0  0  0  0  0  0  0
  143.1829  132.1350  148.7167 H   0  0  0  0  0  0  0  0  0  0  0  0
  144.7966  132.1796  151.3665 H   0  0  0  0  0  0  0  0  0  0  0  0
  143.1434  131.6331  151.0701 H   0  0  0  0  0  0  0  0  0  0  0  0
  143.4461  132.8674  152.2774 H   0  0  0  0  0  0  0  0  0  0  0  0
  145.4237  134.6101  150.1675 H   0  0  0  0  0  0  0  0  0  0  0  0
  143.9912  135.5641  149.8900 H   0  0  0  0  0  0  0  0  0  0  0  0
  143.4869  135.7632  152.2322 H   0  0  0  0  0  0  0  0  0  0  0  0
  144.3345  134.2789  152.5937 H   0  0  0  0  0  0  0  0  0  0  0  0
  145.4369  137.1010  150.6145 H   0  0  0  0  0  0  0  0  0  0  0  0
  144.7142  137.8407  152.0146 H   0  0  0  0  0  0  0  0  0  0  0  0
  147.7513  137.4207  151.6991 H   0  0  0  0  0  0  0  0  0  0  0  0
  146.9010  138.8038  151.0839 H   0  0  0  0  0  0  0  0  0  0  0  0
  147.7152  139.5575  153.1189 H   0  0  0  0  0  0  0  0  0  0  0  0
  146.0147  139.2964  153.4233 H   0  0  0  0  0  0  0  0  0  0  0  0
  149.5500  137.4127  158.0803 H   0  0  0  0  0  0  0  0  0  0  0  0
  149.6449  142.5976  154.2637 H   0  0  0  0  0  0  0  0  0  0  0  0
  151.9985  141.5601  156.7488 H   0  0  0  0  0  0  0  0  0  0  0  0
  151.2861  143.0163  156.0952 H   0  0  0  0  0  0  0  0  0  0  0  0
  150.2922  141.5734  158.6152 H   0  0  0  0  0  0  0  0  0  0  0  0
  149.3799  143.6980  157.1109 H   0  0  0  0  0  0  0  0  0  0  0  0
  152.0637  144.0330  158.2501 H   0  0  0  0  0  0  0  0  0  0  0  0
  150.4728  144.9016  159.8988 H   0  0  0  0  0  0  0  0  0  0  0  0
  150.3236  143.3104  160.6565 H   0  0  0  0  0  0  0  0  0  0  0  0
  152.7745  145.0938  160.5935 H   0  0  0  0  0  0  0  0  0  0  0  0
  152.0514  144.3273  162.0115 H   0  0  0  0  0  0  0  0  0  0  0  0
  154.1444  143.1870  160.5551 H   0  0  0  0  0  0  0  0  0  0  0  0
  152.9590  142.2035  161.4175 H   0  0  0  0  0  0  0  0  0  0  0  0
  147.8003  135.9784  153.6800 H   0  0  0  0  0  0  0  0  0  0  0  0
  147.1462  136.0669  155.2950 H   0  0  0  0  0  0  0  0  0  0  0  0
  144.8805  136.8519  154.1525 H   0  0  0  0  0  0  0  0  0  0  0  0
  145.3669  135.1808  154.2836 H   0  0  0  0  0  0  0  0  0  0  0  0
  142.6241  133.8299  150.2788 H   0  0  0  0  0  0  0  0  0  0  0  0
  1  2  1  0  0  0  0
  1 30  1  0  0  0  0
  1 31  1  0  0  0  0
  1 32  1  0  0  0  0
  2  3  1  0  0  0  0
  2  4  1  0  0  0  0
  2 63  1  0  0  0  0
  3 33  1  0  0  0  0
  3 34  1  0  0  0  0
  3 35  1  0  0  0  0
  4  5  1  0  0  0  0
  4 36  1  0  0  0  0
  4 37  1  0  0  0  0
  5  6  1  0  0  0  0
  5 38  1  0  0  0  0
  5 39  1  0  0  0  0
  6 29  1  0  0  0  0
  6  7  1  0  0  0  0
  7  8  1  0  0  0  0
  7 40  1  0  0  0  0
  7 41  1  0  0  0  0
  8  9  1  0  0  0  0
  8 42  1  0  0  0  0
  8 43  1  0  0  0  0
  9 10  1  0  0  0  0
  9 44  1  0  0  0  0
  9 45  1  0  0  0  0
 10 11  1  0  0  0  0
 10 28  1  0  0  0  0
 11 16  1  0  0  0  0
 11 12  2  0  0  0  0
 12 13  1  0  0  0  0
 13 14  2  0  0  0  0
 13 46  1  0  0  0  0
 14 15  1  0  0  0  0
 15 19  1  0  0  0  0
 15 16  2  0  0  0  0
 16 17  1  0  0  0  0
 17 18  2  0  0  0  0
 18 19  1  0  0  0  0
 18 47  1  0  0  0  0
 19 20  1  0  0  0  0
 20 21  1  0  0  0  0
 20 48  1  0  0  0  0
 20 49  1  0  0  0  0
 21 22  1  0  0  0  0
 21 23  1  0  0  0  0
 21 50  1  0  0  0  0
 22 51  1  0  0  0  0
 23 27  1  0  0  0  0
 23 24  1  0  0  0  0
 23 52  1  0  0  0  0
 24 25  1  0  0  0  0
 24 53  1  0  0  0  0
 24 54  1  0  0  0  0
 25 26  1  0  0  0  0
 25 55  1  0  0  0  0
 25 56  1  0  0  0  0
 26 27  1  0  0  0  0
 26 57  1  0  0  0  0
 26 58  1  0  0  0  0
 28 29  1  0  0  0  0
 28 59  1  0  0  0  0
 28 60  1  0  0  0  0
 29 61  1  0  0  0  0
 29 62  1  0  0  0  0
M  CHG  1   2   1
M  END
> <s_m_source_file>
AV-unprocessed.smi

> <i_m_source_file_index>
155

> <i_lp_mmshare_version>
43012

> <i_f3d_flags>
0

> <s_epik_input>
W0NIM11OKFtDSDNdKVtDSDJdW0NIMl1OMVtDSDJdW0NIMl1bQ0gyXU4oW0NIMl1bQ0gyXTEpYyhuW2NIXW4yKWMoYzIzKW5bY0hdbjNbQ0gyXVtDQEhdKFtPSF0pW0NAQEhdNFtDSDJdW0NIMl1bQ0gyXU80

> <s_epik_cmdline>
J2VwaWtfcHl0aG9uJywgJy1waCcsICc3LjAnLCAnLXRuJywgJzgnLCAnLW1hJywgJzIwMCcsICctbWV0YWxfYmluZGluZycsICctaW1hZScsICc8aW5maWxlLm1hZT4nLCAnLW9tYWUnLCAnPG91dGZpbGUubWFlPic=

> <r_lp_tautomer_probability>
1

> <r_epik_Ionization_Penalty>
0.0599493

> <r_epik_Ionization_Penalty_Charging>
0.00816363

> <r_epik_Ionization_Penalty_Neutral>
0.0517857

> <r_epik_State_Penalty>
0.460607

> <r_epik_Charging_Adjusted_Penalty>
0.468771

> <i_epik_Tot_Q>
1

> <i_epik_Tot_abs_Q>
1

> <r_epik_Metal_State_Penalty>
0.45965

> <b_epik_Metal_Only>
0

> <s_lp_Force_Field>
OPLS_2005

> <r_lp_Energy>
54.9456

> <b_lp_Chiralities_Consistent>
1

> <s_lp_Variant>
AV-unprocessed.smi:155-11

> <Gold.Version>
5.8.1

> <Gold.Id.Protein>
6NUR|6NUR_protein|mol2

> <Gold.PLP.Fitness>
52.3958

> <Gold.PLP.PLP>
-42.3611

> <Gold.PLP.part.hbond>
-3.0000

> <Gold.PLP.part.metal>
0.0000

> <Gold.PLP.part.buried>
1.8785

> <Gold.PLP.part.nonpolar>
-40.6144

> <Gold.PLP.part.repulsive>
0.3125

> <Gold.PLP.ligand.clash>
0.0000

> <Gold.PLP.ligand.torsion>
0.6695

> <Gold.PLP.Chemscore.Hbond>
3.0000

> <Gold.PLP.Chemscore.CHOScore>
0.7138

> <Gold.PLP.Chemscore.Metal>
0.0000

> <Gold.Chemscore.Hbonds>
donor molecule, donor type, donor heavy atom, donor atom, acceptor molecule, acceptor atom, score
      L1  H     2    63       P1 10186  2.00
      L1  H    22    51       P1  8028  1.00
      L1  C    18    47       P1  8028  0.54

> <Gold.PLP.Chemscore.Internal.Correction>
0.2322

> <Gold.Rescore>
     Score         DG    S(hbond)    S(metal)    S(lipo)     H(rot)  DE(clash)    DE(int)     intcor
     13.88     -19.20       1.83        0.00     124.39       2.71       3.32       2.01       ----

> <Gold.Chemscore.Fitness>
13.8788

> <Gold.Chemscore.DG>
-19.2004

> <Gold.Chemscore.ZeroCoef>
-5.4800

> <Gold.Chemscore.Hbond>
1.8263

> <Gold.Chemscore.Metal>
0.0000

> <Gold.Chemscore.Lipo>
124.3850

> <Gold.Chemscore.Internal_Hbond>
0.0000

> <Gold.Chemscore.DEClash>
3.3159

> <Gold.Chemscore.DEInternal>
2.0057

> <Gold.Chemscore.Rot>
2.7080

> <Gold.Chemscore.Internal.Correction>
   9.000000E+99

> <Gold.Chemscore.Hbonds>
donor molecule, donor type, donor heavy atom, donor atom, acceptor molecule, acceptor atom, score
      L1  H     2    63       P1 10186  0.97
      L1  H    22    51       P1  8028  0.74

> <Gold.Chemscore.Hbond.Weighted>
-6.1000

> <Gold.Chemscore.Metal.Weighted>
-0.0000

> <Gold.Chemscore.Lipo.Weighted>
-14.5530

> <Gold.Chemscore.Internal_Hbond.Weighted>
0.0000

> <Gold.Chemscore.DEClash.Weighted>
3.3159

> <Gold.Chemscore.DEInternal.Weighted>
2.0057

> <Gold.Chemscore.Rot.Weighted>
6.9326

> <Gold.Chemscore.Internal.Correction.Weighted>
   9.000000E+99

> <Gold.Protein.RotatedTorsions>
[ 6907 6896 6895 6894 ] final -105.64 input  -60.11 | X-H torsion
[ 7974 7965 7964 7962 ] final -108.40 input  175.53 | X-H torsion
[ 8008 7997 7996 7995 ] final   59.96 input   59.86 | X-H torsion
[ 10167 10162 10161 10158 ] final  -75.09 input  -65.29 | X-H torsion
[ 10718 10713 10712 10709 ] final -105.28 input   66.30 | X-H torsion
[ 10763 10752 10751 10750 ] final   77.06 input  -60.55 | X-H torsion
[ 11005 11000 10999 10996 ] final  124.85 input  -57.11 | X-H torsion

> <Gold.Protein.ActiveResidues>
 VAL166  LYS551  ARG553  GLY616  TRP617  ASP618  TYR619  PRO620  LYS621  CYS622 
 ASP623  PHE694  ASN695  SER759  ASP760  ASP761  ALA762  ILE779  LEU786  VAL792 
 PHE793  MET794  SER795  GLU796  ALA797  LYS798  CYS799  TRP800  GLU811  SER814 

> <Gold.Protein.RotatedAtoms>
  150.7347  134.0095  159.3664 H   0  0  0  0  0  0  0  0  0  0  0  0  # atno 6907 bound_to 6896
  151.8054  135.0694  160.0415 H   0  0  0  0  0  0  0  0  0  0  0  0  # atno 6908 bound_to 6896
  152.3111  133.5717  159.5717 H   0  0  0  0  0  0  0  0  0  0  0  0  # atno 6909 bound_to 6896
  145.1934  140.9025  143.3411 H   0  0  0  0  0  0  0  0  0  0  0  0  # atno 7974 bound_to 7965
  155.5746  140.3490  155.4524 H   0  0  0  0  0  0  0  0  0  0  0  0  # atno 8008 bound_to 7997
  156.0419  140.1298  157.0172 H   0  0  0  0  0  0  0  0  0  0  0  0  # atno 8009 bound_to 7997
  154.4395  140.1022  156.6235 H   0  0  0  0  0  0  0  0  0  0  0  0  # atno 8010 bound_to 7997
  140.4972  143.2368  151.7811 H   0  0  0  0  0  0  0  0  0  0  0  0  # atno 10167 bound_to 10162
  156.0339  130.5556  150.7517 H   0  0  0  0  0  0  0  0  0  0  0  0  # atno 10718 bound_to 10713
  153.0771  135.4928  154.8426 H   0  0  0  0  0  0  0  0  0  0  0  0  # atno 10763 bound_to 10752
  154.7101  135.3018  154.9212 H   0  0  0  0  0  0  0  0  0  0  0  0  # atno 10764 bound_to 10752
  153.9908  135.6778  153.4807 H   0  0  0  0  0  0  0  0  0  0  0  0  # atno 10765 bound_to 10752
  139.9378  134.9638  156.8470 H   0  0  0  0  0  0  0  0  0  0  0  0  # atno 11005 bound_to 11000
  145.0019  139.3591  143.6163 LP  0  0  0  0  0  0  0  0  0  0  0  0  # atno 17320 bound_to 7965
  146.3432  139.9245  142.8762 LP  0  0  0  0  0  0  0  0  0  0  0  0  # atno 17321 bound_to 7965
  139.4864  144.4570  151.9586 LP  0  0  0  0  0  0  0  0  0  0  0  0  # atno 17342 bound_to 10162
  140.3658  144.2916  150.5927 LP  0  0  0  0  0  0  0  0  0  0  0  0  # atno 17343 bound_to 10162
  157.5060  131.0922  151.0257 LP  0  0  0  0  0  0  0  0  0  0  0  0  # atno 17370 bound_to 10713
  157.0625  130.5831  149.5388 LP  0  0  0  0  0  0  0  0  0  0  0  0  # atno 17371 bound_to 10713
  140.6030  134.0154  155.7545 LP  0  0  0  0  0  0  0  0  0  0  0  0  # atno 17394 bound_to 11000
  141.1000  133.9784  157.3096 LP  0  0  0  0  0  0  0  0  0  0  0  0  # atno 17395 bound_to 11000

$$$$
