AV-unprocessed.smi:2698|AV-procd|sdf|10417|dock4
  -GOLD-   2272014453D 1   1.00000     0.00000
 Structure written by MMmdl.
 34 34  0  0  0  0  0  0  0  0  3 V2000
  152.7224  141.7727  159.5998 C   0  0  0  0  0  0  0  0  0  0  0  0
  152.1077  142.0661  158.2185 C   0  0  0  0  0  0  0  0  0  0  0  0
  151.9707  143.5807  158.0031 C   0  0  0  0  0  0  0  0  0  0  0  0
  150.7500  141.3621  157.9903 C   0  0  0  0  0  0  0  0  0  0  0  0
  150.8533  140.1219  157.0994 C   0  0  0  0  0  0  0  0  0  0  0  0
  151.1664  139.0364  157.5877 O   0  0  0  0  0  0  0  0  0  0  0  0
  150.5886  140.3043  155.7967 N   0  0  0  0  0  0  0  0  0  0  0  0
  150.6496  139.2853  154.7491 C   0  0  2  0  0  0  0  0  0  0  0  0
  149.4086  138.3716  154.8381 C   0  0  0  0  0  0  0  0  0  0  0  0
  148.2113  138.8080  154.0250 C   0  0  0  0  0  0  0  0  0  0  0  0
  147.2208  139.7426  154.2734 C   0  0  0  0  0  0  0  0  0  0  0  0
  146.3696  139.7491  153.1810 N   0  0  0  0  0  0  0  0  0  0  0  0
  146.8528  138.8631  152.3131 C   0  0  0  0  0  0  0  0  0  0  0  0
  147.9590  138.2783  152.7688 N   0  3  0  0  0  0  0  0  0  0  0  0
  151.9397  138.4744  154.9100 C   0  0  0  0  0  0  0  0  0  0  0  0
  153.0215  139.1030  154.8877 O   0  0  0  0  0  0  0  0  0  0  0  0
  151.8211  137.2393  155.0610 O   0  5  0  0  0  0  0  0  0  0  0  0
  145.5462  140.3225  153.0637 H   0  0  0  0  0  0  0  0  0  0  0  0
  152.0459  142.0651  160.4035 H   0  0  0  0  0  0  0  0  0  0  0  0
  153.6557  142.3195  159.7367 H   0  0  0  0  0  0  0  0  0  0  0  0
  152.9528  140.7149  159.7252 H   0  0  0  0  0  0  0  0  0  0  0  0
  152.8076  141.6995  157.4657 H   0  0  0  0  0  0  0  0  0  0  0  0
  151.2785  144.0219  158.7209 H   0  0  0  0  0  0  0  0  0  0  0  0
  151.5999  143.8040  157.0023 H   0  0  0  0  0  0  0  0  0  0  0  0
  152.9315  144.0840  158.1147 H   0  0  0  0  0  0  0  0  0  0  0  0
  150.3139  141.0712  158.9469 H   0  0  0  0  0  0  0  0  0  0  0  0
  150.0424  142.0580  157.5363 H   0  0  0  0  0  0  0  0  0  0  0  0
  150.3058  141.2275  155.5001 H   0  0  0  0  0  0  0  0  0  0  0  0
  150.6727  139.7477  153.7603 H   0  0  0  0  0  0  0  0  0  0  0  0
  149.6674  137.3627  154.5131 H   0  0  0  0  0  0  0  0  0  0  0  0
  149.0940  138.2832  155.8794 H   0  0  0  0  0  0  0  0  0  0  0  0
  147.0434  140.3952  155.1151 H   0  0  0  0  0  0  0  0  0  0  0  0
  146.4041  138.6468  151.3545 H   0  0  0  0  0  0  0  0  0  0  0  0
  148.5077  137.5756  152.2938 H   0  0  0  0  0  0  0  0  0  0  0  0
  1  2  1  0  0  0  0
  1 19  1  0  0  0  0
  1 20  1  0  0  0  0
  1 21  1  0  0  0  0
  2  3  1  0  0  0  0
  2  4  1  0  0  0  0
  2 22  1  0  0  0  0
  3 23  1  0  0  0  0
  3 24  1  0  0  0  0
  3 25  1  0  0  0  0
  4  5  1  0  0  0  0
  4 26  1  0  0  0  0
  4 27  1  0  0  0  0
  5  6  2  0  0  0  0
  5  7  1  0  0  0  0
  7  8  1  0  0  0  0
  7 28  1  0  0  0  0
  8  9  1  0  0  0  0
  8 15  1  0  0  0  0
  8 29  1  0  0  0  0
  9 10  1  0  0  0  0
  9 30  1  0  0  0  0
  9 31  1  0  0  0  0
 10 14  1  0  0  0  0
 10 11  2  0  0  0  0
 11 12  1  0  0  0  0
 11 32  1  0  0  0  0
 12 18  1  0  0  0  0
 12 13  1  0  0  0  0
 13 14  2  0  0  0  0
 13 33  1  0  0  0  0
 14 34  1  0  0  0  0
 15 16  2  0  0  0  0
 15 17  1  0  0  0  0
M  CHG  1  14   1
M  CHG  1  17  -1
M  END
> <s_m_source_file>
AV-unprocessed.smi

> <i_m_source_file_index>
2698

> <i_lp_mmshare_version>
43012

> <i_f3d_flags>
0

> <s_epik_input>
W0NIM11bQ0hdKFtDSDNdKVtDSDJdQyg9TylbTkhdW0NAQEhdKEMoPU8pW09IXSlbQ0gyXWMxW2NIXVtuSF1bY0hdbjE=

> <s_epik_cmdline>
J2VwaWtfcHl0aG9uJywgJy1waCcsICc3LjAnLCAnLXRuJywgJzgnLCAnLW1hJywgJzIwMCcsICctbWV0YWxfYmluZGluZycsICctaW1hZScsICc8aW5maWxlLm1hZT4nLCAnLW9tYWUnLCAnPG91dGZpbGUubWFlPic=

> <r_lp_tautomer_probability>
1

> <r_epik_Ionization_Penalty>
0.478676

> <r_epik_Ionization_Penalty_Charging>
5.56794e-05

> <r_epik_Ionization_Penalty_Neutral>
0.478621

> <r_epik_State_Penalty>
0.385221

> <r_epik_Charging_Adjusted_Penalty>
0.385276

> <i_epik_Tot_Q>
0

> <i_epik_Tot_abs_Q>
2

> <r_epik_Metal_State_Penalty>
0.800557

> <b_epik_Metal_Only>
0

> <s_lp_Force_Field>
OPLS_2005

> <r_lp_Energy>
0.68782

> <b_lp_Chiralities_Consistent>
1

> <s_lp_Variant>
AV-unprocessed.smi:2698-1

> <Gold.Version>
5.8.1

> <Gold.Id.Protein>
6NUR|6NUR_protein|mol2

> <Gold.PLP.Fitness>
51.5352

> <Gold.PLP.PLP>
-32.3883

> <Gold.PLP.part.hbond>
-5.6686

> <Gold.PLP.part.metal>
0.0000

> <Gold.PLP.part.buried>
-4.9092

> <Gold.PLP.part.nonpolar>
-23.0473

> <Gold.PLP.part.repulsive>
0.2874

> <Gold.PLP.ligand.clash>
0.0000

> <Gold.PLP.ligand.torsion>
1.8892

> <Gold.PLP.Chemscore.Hbond>
7.6216

> <Gold.PLP.Chemscore.CHOScore>
0.0000

> <Gold.PLP.Chemscore.Metal>
0.0000

> <Gold.Chemscore.Hbonds>
donor molecule, donor type, donor heavy atom, donor atom, acceptor molecule, acceptor atom, score
      L1  H    12    18       P1 10175  1.95
      L1  H    14    34       P1  7948  1.62
      P1  H  7997  8009       L1    16  1.72
      P1  H 10752 10764       L1    17  1.93

> <Gold.PLP.Chemscore.Internal.Correction>
0.0604

> <Gold.Rescore>
     Score         DG    S(hbond)    S(metal)    S(lipo)     H(rot)  DE(clash)    DE(int)     intcor
     12.11     -15.57       3.29        0.00      59.97       3.09       0.16       3.30       ----

> <Gold.Chemscore.Fitness>
12.1100

> <Gold.Chemscore.DG>
-15.5708

> <Gold.Chemscore.ZeroCoef>
-5.4800

> <Gold.Chemscore.Hbond>
3.2880

> <Gold.Chemscore.Metal>
0.0000

> <Gold.Chemscore.Lipo>
59.9665

> <Gold.Chemscore.Internal_Hbond>
0.0000

> <Gold.Chemscore.DEClash>
0.1611

> <Gold.Chemscore.DEInternal>
3.2997

> <Gold.Chemscore.Rot>
3.0887

> <Gold.Chemscore.Internal.Correction>
   9.000000E+99

> <Gold.Chemscore.Hbonds>
donor molecule, donor type, donor heavy atom, donor atom, acceptor molecule, acceptor atom, score
      L1  H    12    18       P1 10175  0.88
      L1  H    14    34       P1  7948  0.80
      P1  H  7997  8009       L1    16  0.83
      P1  H 10752 10764       L1    17  0.86

> <Gold.Chemscore.Hbond.Weighted>
-10.9818

> <Gold.Chemscore.Metal.Weighted>
-0.0000

> <Gold.Chemscore.Lipo.Weighted>
-7.0161

> <Gold.Chemscore.Internal_Hbond.Weighted>
0.0000

> <Gold.Chemscore.DEClash.Weighted>
0.1611

> <Gold.Chemscore.DEInternal.Weighted>
3.2997

> <Gold.Chemscore.Rot.Weighted>
7.9070

> <Gold.Chemscore.Internal.Correction.Weighted>
   9.000000E+99

> <Gold.Protein.RotatedTorsions>
[ 6907 6896 6895 6894 ] final -145.64 input  -60.11 | X-H torsion
[ 7974 7965 7964 7962 ] final  125.84 input  175.53 | X-H torsion
[ 8008 7997 7996 7995 ] final -148.13 input   59.86 | X-H torsion
[ 10167 10162 10161 10158 ] final  154.20 input  -65.29 | X-H torsion
[ 10718 10713 10712 10709 ] final  172.49 input   66.30 | X-H torsion
[ 10763 10752 10751 10750 ] final  -58.83 input  -60.55 | X-H torsion
[ 11005 11000 10999 10996 ] final   98.87 input  -57.11 | X-H torsion

> <Gold.Protein.ActiveResidues>
 VAL166  LYS551  ARG553  GLY616  TRP617  ASP618  TYR619  PRO620  LYS621  CYS622 
 ASP623  PHE694  ASN695  SER759  ASP760  ASP761  ALA762  ILE779  LEU786  VAL792 
 PHE793  MET794  SER795  GLU796  ALA797  LYS798  CYS799  TRP800  GLU811  SER814 

> <Gold.Protein.RotatedAtoms>
  151.1305  133.5040  159.2599 H   0  0  0  0  0  0  0  0  0  0  0  0  # atno 6907 bound_to 6896
  151.1762  135.0340  159.8783 H   0  0  0  0  0  0  0  0  0  0  0  0  # atno 6908 bound_to 6896
  152.5459  134.1163  159.8433 H   0  0  0  0  0  0  0  0  0  0  0  0  # atno 6909 bound_to 6896
  145.0685  139.3749  143.4970 H   0  0  0  0  0  0  0  0  0  0  0  0  # atno 7974 bound_to 7965
  155.5867  140.0648  157.2769 H   0  0  0  0  0  0  0  0  0  0  0  0  # atno 8008 bound_to 7997
  154.4317  140.1842  156.1079 H   0  0  0  0  0  0  0  0  0  0  0  0  # atno 8009 bound_to 7997
  156.0264  140.3311  155.7096 H   0  0  0  0  0  0  0  0  0  0  0  0  # atno 8010 bound_to 7997
  139.4824  144.5208  151.7879 H   0  0  0  0  0  0  0  0  0  0  0  0  # atno 10167 bound_to 10162
  156.9781  131.0110  151.2888 H   0  0  0  0  0  0  0  0  0  0  0  0  # atno 10718 bound_to 10713
  154.2443  135.6338  153.5218 H   0  0  0  0  0  0  0  0  0  0  0  0  # atno 10763 bound_to 10752
  152.9924  135.5549  154.5876 H   0  0  0  0  0  0  0  0  0  0  0  0  # atno 10764 bound_to 10752
  154.5389  135.2893  155.1088 H   0  0  0  0  0  0  0  0  0  0  0  0  # atno 10765 bound_to 10752
  139.8771  134.9069  156.4521 H   0  0  0  0  0  0  0  0  0  0  0  0  # atno 11005 bound_to 11000
  146.3528  140.0418  142.8642 LP  0  0  0  0  0  0  0  0  0  0  0  0  # atno 17320 bound_to 7965
  145.1322  140.9524  143.4538 LP  0  0  0  0  0  0  0  0  0  0  0  0  # atno 17321 bound_to 7965
  140.4721  144.1571  150.5919 LP  0  0  0  0  0  0  0  0  0  0  0  0  # atno 17342 bound_to 10162
  140.4370  143.2543  151.9522 LP  0  0  0  0  0  0  0  0  0  0  0  0  # atno 17343 bound_to 10162
  157.5545  130.8204  149.8187 LP  0  0  0  0  0  0  0  0  0  0  0  0  # atno 17370 bound_to 10713
  156.0255  130.3781  150.1835 LP  0  0  0  0  0  0  0  0  0  0  0  0  # atno 17371 bound_to 10713
  140.8924  133.7838  155.9587 LP  0  0  0  0  0  0  0  0  0  0  0  0  # atno 17394 bound_to 11000
  140.8739  134.2693  157.5177 LP  0  0  0  0  0  0  0  0  0  0  0  0  # atno 17395 bound_to 11000

$$$$
