AV-unprocessed.smi:1531|AV-procd|sdf|6156|dock3
  -GOLD-   22720 6303D 1   1.00000     0.00000
 Structure written by MMmdl.
 44 45  0  0  0  0  0  0  0  0  1 V2000
  145.1999  142.6942  155.3035 C   0  0  0  0  0  0  0  0  0  0  0  0
  145.2755  141.1873  155.5881 C   0  0  0  0  0  0  0  0  0  0  0  0
  146.6812  140.5705  155.3846 C   0  0  2  0  0  0  0  0  0  0  0  0
  147.7499  141.3057  156.2271 C   0  0  0  0  0  0  0  0  0  0  0  0
  149.1551  140.7187  156.0287 C   0  0  0  0  0  0  0  0  0  0  0  0
  149.5536  140.7306  154.5485 C   0  0  0  0  0  0  0  0  0  0  0  0
  148.5193  139.9782  153.7022 C   0  0  0  0  0  0  0  0  0  0  0  0
  147.0998  140.5539  153.8895 C   0  0  1  0  0  0  0  0  0  0  0  0
  146.1551  139.7687  153.0962 N   0  0  0  0  0  0  0  0  0  0  0  0
  146.1298  138.4304  153.0195 C   0  0  0  0  0  0  0  0  0  0  0  0
  146.9132  137.6979  153.6238 O   0  0  0  0  0  0  0  0  0  0  0  0
  145.1465  138.0068  152.2090 N   0  0  0  0  0  0  0  0  0  0  0  0
  144.8116  136.6653  151.8978 C   0  0  0  0  0  0  0  0  0  0  0  0
  143.6150  135.9467  152.1776 C   0  0  0  0  0  0  0  0  0  0  0  0
  143.6880  134.7057  151.7205 N   0  0  0  0  0  0  0  0  0  0  0  0
  144.9150  134.6106  151.1496 N   0  0  0  0  0  0  0  0  0  0  0  0
  145.3287  133.3602  150.5385 C   0  0  0  0  0  0  0  0  0  0  0  0
  144.2445  132.8104  149.6100 C   0  0  0  0  0  0  0  0  0  0  0  0
  143.9617  133.5214  148.5154 N   0  0  0  0  0  0  0  0  0  0  0  0
  143.6722  131.7558  149.8765 O   0  0  0  0  0  0  0  0  0  0  0  0
  145.6265  135.7909  151.2442 C   0  0  0  0  0  0  0  0  0  0  0  0
  144.2136  143.0832  155.5569 H   0  0  0  0  0  0  0  0  0  0  0  0
  145.3743  142.9193  154.2520 H   0  0  0  0  0  0  0  0  0  0  0  0
  145.9332  143.2440  155.8940 H   0  0  0  0  0  0  0  0  0  0  0  0
  144.9496  141.0391  156.6174 H   0  0  0  0  0  0  0  0  0  0  0  0
  144.5485  140.6623  154.9673 H   0  0  0  0  0  0  0  0  0  0  0  0
  146.6428  139.5353  155.7277 H   0  0  0  0  0  0  0  0  0  0  0  0
  147.7603  142.3642  155.9640 H   0  0  0  0  0  0  0  0  0  0  0  0
  147.5021  141.2553  157.2869 H   0  0  0  0  0  0  0  0  0  0  0  0
  149.8803  141.2860  156.6129 H   0  0  0  0  0  0  0  0  0  0  0  0
  149.1829  139.6966  156.4088 H   0  0  0  0  0  0  0  0  0  0  0  0
  149.6378  141.7598  154.1971 H   0  0  0  0  0  0  0  0  0  0  0  0
  150.5376  140.2782  154.4234 H   0  0  0  0  0  0  0  0  0  0  0  0
  148.8085  140.0256  152.6516 H   0  0  0  0  0  0  0  0  0  0  0  0
  148.5287  138.9224  153.9767 H   0  0  0  0  0  0  0  0  0  0  0  0
  147.0966  141.5856  153.5315 H   0  0  0  0  0  0  0  0  0  0  0  0
  145.4714  140.2869  152.5645 H   0  0  0  0  0  0  0  0  0  0  0  0
  144.5712  138.7165  151.7795 H   0  0  0  0  0  0  0  0  0  0  0  0
  142.7151  136.2649  152.6822 H   0  0  0  0  0  0  0  0  0  0  0  0
  146.2566  133.5111  149.9843 H   0  0  0  0  0  0  0  0  0  0  0  0
  145.5421  132.6393  151.3289 H   0  0  0  0  0  0  0  0  0  0  0  0
  143.2590  133.1917  147.8692 H   0  0  0  0  0  0  0  0  0  0  0  0
  144.4578  134.3815  148.3332 H   0  0  0  0  0  0  0  0  0  0  0  0
  146.6248  135.8998  150.8461 H   0  0  0  0  0  0  0  0  0  0  0  0
  1  2  1  0  0  0  0
  1 22  1  0  0  0  0
  1 23  1  0  0  0  0
  1 24  1  0  0  0  0
  2  3  1  0  0  0  0
  2 25  1  0  0  0  0
  2 26  1  0  0  0  0
  3  8  1  0  0  0  0
  3  4  1  0  0  0  0
  3 27  1  0  0  0  0
  4  5  1  0  0  0  0
  4 28  1  0  0  0  0
  4 29  1  0  0  0  0
  5  6  1  0  0  0  0
  5 30  1  0  0  0  0
  5 31  1  0  0  0  0
  6  7  1  0  0  0  0
  6 32  1  0  0  0  0
  6 33  1  0  0  0  0
  7  8  1  0  0  0  0
  7 34  1  0  0  0  0
  7 35  1  0  0  0  0
  8  9  1  0  0  0  0
  8 36  1  0  0  0  0
  9 10  1  0  0  0  0
  9 37  1  0  0  0  0
 10 11  2  0  0  0  0
 10 12  1  0  0  0  0
 12 13  1  0  0  0  0
 12 38  1  0  0  0  0
 13 21  2  0  0  0  0
 13 14  1  0  0  0  0
 14 15  2  0  0  0  0
 14 39  1  0  0  0  0
 15 16  1  0  0  0  0
 16 17  1  0  0  0  0
 16 21  1  0  0  0  0
 17 18  1  0  0  0  0
 17 40  1  0  0  0  0
 17 41  1  0  0  0  0
 18 19  1  0  0  0  0
 18 20  2  0  0  0  0
 19 42  1  0  0  0  0
 19 43  1  0  0  0  0
 21 44  1  0  0  0  0
M  END
> <s_m_source_file>
AV-unprocessed.smi

> <i_m_source_file_index>
1531

> <i_lp_mmshare_version>
43012

> <i_f3d_flags>
0

> <s_epik_input>
W0NIM11bQ0gyXVtDQEBIXTFbQ0gyXVtDSDJdW0NIMl1bQ0gyXVtDQEhdMVtOSF1DKD1PKVtOSF1jMltjSF1ubihbY0hdMilbQ0gyXUMoPU8pW05IMl0=

> <s_epik_cmdline>
J2VwaWtfcHl0aG9uJywgJy1waCcsICc3LjAnLCAnLXRuJywgJzgnLCAnLW1hJywgJzIwMCcsICctbWV0YWxfYmluZGluZycsICctaW1hZScsICc8aW5maWxlLm1hZT4nLCAnLW9tYWUnLCAnPG91dGZpbGUubWFlPic=

> <r_lp_tautomer_probability>
1

> <r_epik_Ionization_Penalty>
4.83437e-05

> <r_epik_Ionization_Penalty_Charging>
0

> <r_epik_Ionization_Penalty_Neutral>
4.83437e-05

> <r_epik_State_Penalty>
-0

> <r_epik_Charging_Adjusted_Penalty>
0

> <i_epik_Tot_Q>
0

> <i_epik_Tot_abs_Q>
0

> <r_epik_Metal_State_Penalty>
-0

> <b_epik_Metal_Only>
0

> <s_lp_Force_Field>
OPLS_2005

> <r_lp_Energy>
14.6895

> <b_lp_Chiralities_Consistent>
1

> <s_lp_Variant>
AV-unprocessed.smi:1531-1

> <Gold.Version>
5.8.1

> <Gold.Id.Protein>
6NUR|6NUR_protein|mol2

> <Gold.PLP.Fitness>
42.4533

> <Gold.PLP.PLP>
-31.5265

> <Gold.PLP.part.hbond>
-5.5176

> <Gold.PLP.part.metal>
0.0000

> <Gold.PLP.part.buried>
-4.6675

> <Gold.PLP.part.nonpolar>
-23.0499

> <Gold.PLP.part.repulsive>
0.7212

> <Gold.PLP.ligand.clash>
0.0000

> <Gold.PLP.ligand.torsion>
1.0199

> <Gold.PLP.Chemscore.Hbond>
3.3120

> <Gold.PLP.Chemscore.CHOScore>
0.9930

> <Gold.PLP.Chemscore.Metal>
0.0000

> <Gold.Chemscore.Hbonds>
donor molecule, donor type, donor heavy atom, donor atom, acceptor molecule, acceptor atom, score
      L1  H     9    37       P1 10175  0.80
      L1  H    12    38       P1 10175  0.66
      L1  H    19    43       P1  7921  0.69
      P1  H 10785 10796       L1    20  0.91
      L1  C    21    44       P1  7948  1.00

> <Gold.PLP.Chemscore.Internal.Correction>
0.0518

> <Gold.Rescore>
     Score         DG    S(hbond)    S(metal)    S(lipo)     H(rot)  DE(clash)    DE(int)     intcor
     14.63     -17.78       3.49        0.00      52.07       2.13       0.82       2.33       ----

> <Gold.Chemscore.Fitness>
14.6319

> <Gold.Chemscore.DG>
-17.7773

> <Gold.Chemscore.ZeroCoef>
-5.4800

> <Gold.Chemscore.Hbond>
3.4931

> <Gold.Chemscore.Metal>
0.0000

> <Gold.Chemscore.Lipo>
52.0706

> <Gold.Chemscore.Internal_Hbond>
0.0000

> <Gold.Chemscore.DEClash>
0.8189

> <Gold.Chemscore.DEInternal>
2.3266

> <Gold.Chemscore.Rot>
2.1335

> <Gold.Chemscore.Internal.Correction>
   9.000000E+99

> <Gold.Chemscore.Hbonds>
donor molecule, donor type, donor heavy atom, donor atom, acceptor molecule, acceptor atom, score
      L1  H     9    37       P1 10175  0.62
      L1  H    12    38       P1 10175  0.63
      L1  H    19    43       P1  7921  0.70
      P1  H 10785 10796       L1    20  0.84

> <Gold.Chemscore.Hbond.Weighted>
-11.6669

> <Gold.Chemscore.Metal.Weighted>
-0.0000

> <Gold.Chemscore.Lipo.Weighted>
-6.0923

> <Gold.Chemscore.Internal_Hbond.Weighted>
0.0000

> <Gold.Chemscore.DEClash.Weighted>
0.8189

> <Gold.Chemscore.DEInternal.Weighted>
2.3266

> <Gold.Chemscore.Rot.Weighted>
5.4618

> <Gold.Chemscore.Internal.Correction.Weighted>
   9.000000E+99

> <Gold.Protein.RotatedTorsions>
[ 6907 6896 6895 6894 ] final  -79.26 input  -60.11 | X-H torsion
[ 7974 7965 7964 7962 ] final  -87.87 input  175.53 | X-H torsion
[ 8008 7997 7996 7995 ] final  133.13 input   59.86 | X-H torsion
[ 10167 10162 10161 10158 ] final  -37.68 input  -65.29 | X-H torsion
[ 10718 10713 10712 10709 ] final -129.25 input   66.30 | X-H torsion
[ 10763 10752 10751 10750 ] final -159.14 input  -60.55 | X-H torsion
[ 11005 11000 10999 10996 ] final    7.89 input  -57.11 | X-H torsion

> <Gold.Protein.ActiveResidues>
 VAL166  LYS551  ARG553  GLY616  TRP617  ASP618  TYR619  PRO620  LYS621  CYS622 
 ASP623  PHE694  ASN695  SER759  ASP760  ASP761  ALA762  ILE779  LEU786  VAL792 
 PHE793  MET794  SER795  GLU796  ALA797  LYS798  CYS799  TRP800  GLU811  SER814 

> <Gold.Protein.RotatedAtoms>
  150.6954  134.4148  159.5177 H   0  0  0  0  0  0  0  0  0  0  0  0  # atno 6907 bound_to 6896
  152.1900  134.8677  160.0527 H   0  0  0  0  0  0  0  0  0  0  0  0  # atno 6908 bound_to 6896
  151.9636  133.3668  159.4081 H   0  0  0  0  0  0  0  0  0  0  0  0  # atno 6909 bound_to 6896
  145.4608  140.9561  143.1971 H   0  0  0  0  0  0  0  0  0  0  0  0  # atno 7974 bound_to 7965
  156.2989  140.2529  156.3203 H   0  0  0  0  0  0  0  0  0  0  0  0  # atno 8008 bound_to 7997
  154.9241  140.0400  157.2032 H   0  0  0  0  0  0  0  0  0  0  0  0  # atno 8009 bound_to 7997
  154.8282  140.2871  155.5744 H   0  0  0  0  0  0  0  0  0  0  0  0  # atno 8010 bound_to 7997
  140.7112  143.3326  151.2534 H   0  0  0  0  0  0  0  0  0  0  0  0  # atno 10167 bound_to 10162
  156.2028  130.6868  151.0559 H   0  0  0  0  0  0  0  0  0  0  0  0  # atno 10718 bound_to 10713
  154.7499  135.3089  154.8577 H   0  0  0  0  0  0  0  0  0  0  0  0  # atno 10763 bound_to 10752
  153.9367  135.6779  153.4749 H   0  0  0  0  0  0  0  0  0  0  0  0  # atno 10764 bound_to 10752
  153.1095  135.4873  154.8938 H   0  0  0  0  0  0  0  0  0  0  0  0  # atno 10765 bound_to 10752
  140.5432  134.0354  155.7911 H   0  0  0  0  0  0  0  0  0  0  0  0  # atno 11005 bound_to 11000
  144.8004  139.6152  143.7074 LP  0  0  0  0  0  0  0  0  0  0  0  0  # atno 17320 bound_to 7965
  146.2452  139.6084  142.9464 LP  0  0  0  0  0  0  0  0  0  0  0  0  # atno 17321 bound_to 7965
  139.6812  143.9851  152.2809 LP  0  0  0  0  0  0  0  0  0  0  0  0  # atno 17342 bound_to 10162
  139.9481  144.6638  150.8199 LP  0  0  0  0  0  0  0  0  0  0  0  0  # atno 17343 bound_to 10162
  157.6995  131.0781  150.6863 LP  0  0  0  0  0  0  0  0  0  0  0  0  # atno 17370 bound_to 10713
  156.6921  130.4598  149.5597 LP  0  0  0  0  0  0  0  0  0  0  0  0  # atno 17371 bound_to 10713
  141.1215  133.9453  157.2720 LP  0  0  0  0  0  0  0  0  0  0  0  0  # atno 17394 bound_to 11000
  139.9493  135.0178  156.8947 LP  0  0  0  0  0  0  0  0  0  0  0  0  # atno 17395 bound_to 11000

$$$$
