AV-unprocessed.smi:129|AV-procd|sdf|1158|dock8
  -GOLD-   2262018293D 1   1.00000     0.00000
 Structure written by MMmdl.
 58 61  0  0  0  0  0  0  0  0  1 V2000
  153.3361  143.4720  163.5876 C   0  0  0  0  0  0  0  0  0  0  0  0
  152.9122  142.5653  162.5802 O   0  0  0  0  0  0  0  0  0  0  0  0
  152.6371  143.0634  161.3216 C   0  0  0  0  0  0  0  0  0  0  0  0
  152.1678  144.3818  161.0890 C   0  0  0  0  0  0  0  0  0  0  0  0
  151.9104  144.8305  159.7808 C   0  0  0  0  0  0  0  0  0  0  0  0
  152.1247  143.9737  158.6883 C   0  0  0  0  0  0  0  0  0  0  0  0
  152.5899  142.6642  158.9036 C   0  0  0  0  0  0  0  0  0  0  0  0
  152.8353  142.1976  160.2185 C   0  0  0  0  0  0  0  0  0  0  0  0
  153.3238  140.8898  160.4971 N   0  0  0  0  0  0  0  0  0  0  0  0
  153.5624  139.8701  159.6502 C   0  0  0  0  0  0  0  0  0  0  0  0
  153.4389  139.9218  158.4266 O   0  0  0  0  0  0  0  0  0  0  0  0
  154.0642  138.6141  160.3043 C   0  0  0  0  0  0  0  0  0  0  0  0
  154.5844  137.5677  159.5124 C   0  0  0  0  0  0  0  0  0  0  0  0
  155.0356  136.3761  160.1106 C   0  0  0  0  0  0  0  0  0  0  0  0
  154.9759  136.2077  161.5085 C   0  0  0  0  0  0  0  0  0  0  0  0
  155.4322  134.9669  162.0303 N   0  0  0  0  0  0  0  0  0  0  0  0
  155.5823  134.5912  163.3134 C   0  0  0  0  0  0  0  0  0  0  0  0
  155.3795  135.3213  164.2843 O   0  0  0  0  0  0  0  0  0  0  0  0
  156.0875  133.1537  163.5129 C   0  0  0  0  0  0  0  0  0  0  0  0
  155.1310  132.1231  163.0536 N   0  0  0  0  0  0  0  0  0  0  0  0
  155.4781  131.3317  161.9306 C   0  0  0  0  0  0  0  0  0  0  0  0
  156.5527  131.4862  161.3481 O   0  0  0  0  0  0  0  0  0  0  0  0
  154.4836  130.3458  161.5233 C   0  0  0  0  0  0  0  0  0  0  0  0
  154.7324  129.5441  160.4737 F   0  0  0  0  0  0  0  0  0  0  0  0
  153.3144  130.2237  162.1848 C   0  0  0  0  0  0  0  0  0  0  0  0
  152.9833  131.0120  163.2724 N   0  0  0  0  0  0  0  0  0  0  0  0
  151.6608  130.8704  163.9949 C   0  0  1  0  0  0  0  0  0  0  0  0
  150.5282  130.5730  162.9956 C   0  0  0  0  0  0  0  0  0  0  0  0
  149.8422  129.3740  163.6190 C   0  0  0  0  0  0  0  0  0  0  0  0
  150.9945  128.6954  164.3444 C   0  0  0  0  0  0  0  0  0  0  0  0
  151.7190  129.7927  164.8861 O   0  0  0  0  0  0  0  0  0  0  0  0
  153.8960  131.9866  163.7310 C   0  0  0  0  0  0  0  0  0  0  0  0
  153.6158  132.7046  164.6935 O   0  0  0  0  0  0  0  0  0  0  0  0
  154.4307  137.2441  162.3036 C   0  0  0  0  0  0  0  0  0  0  0  0
  153.9811  138.4372  161.7047 C   0  0  0  0  0  0  0  0  0  0  0  0
  153.5148  142.9229  164.5119 H   0  0  0  0  0  0  0  0  0  0  0  0
  152.5740  144.2246  163.7942 H   0  0  0  0  0  0  0  0  0  0  0  0
  154.2690  143.9662  163.3127 H   0  0  0  0  0  0  0  0  0  0  0  0
  151.9970  145.0732  161.8999 H   0  0  0  0  0  0  0  0  0  0  0  0
  151.5544  145.8367  159.6154 H   0  0  0  0  0  0  0  0  0  0  0  0
  151.9381  144.3223  157.6832 H   0  0  0  0  0  0  0  0  0  0  0  0
  152.7646  142.0425  158.0397 H   0  0  0  0  0  0  0  0  0  0  0  0
  153.4274  140.6735  161.4781 H   0  0  0  0  0  0  0  0  0  0  0  0
  154.6440  137.6722  158.4386 H   0  0  0  0  0  0  0  0  0  0  0  0
  155.4325  135.5885  159.4866 H   0  0  0  0  0  0  0  0  0  0  0  0
  155.7283  134.2930  161.3391 H   0  0  0  0  0  0  0  0  0  0  0  0
  157.0457  133.0407  163.0022 H   0  0  0  0  0  0  0  0  0  0  0  0
  156.3352  133.0233  164.5672 H   0  0  0  0  0  0  0  0  0  0  0  0
  152.6226  129.4737  161.8334 H   0  0  0  0  0  0  0  0  0  0  0  0
  151.5278  131.7949  164.5599 H   0  0  0  0  0  0  0  0  0  0  0  0
  149.8706  131.4351  162.8798 H   0  0  0  0  0  0  0  0  0  0  0  0
  150.9443  130.3102  162.0213 H   0  0  0  0  0  0  0  0  0  0  0  0
  149.0903  129.7026  164.3376 H   0  0  0  0  0  0  0  0  0  0  0  0
  149.3585  128.7278  162.8861 H   0  0  0  0  0  0  0  0  0  0  0  0
  150.6592  128.0122  165.1247 H   0  0  0  0  0  0  0  0  0  0  0  0
  151.6191  128.1390  163.6442 H   0  0  0  0  0  0  0  0  0  0  0  0
  154.3295  137.1414  163.3729 H   0  0  0  0  0  0  0  0  0  0  0  0
  153.5606  139.2089  162.3335 H   0  0  0  0  0  0  0  0  0  0  0  0
  1  2  1  0  0  0  0
  1 36  1  0  0  0  0
  1 37  1  0  0  0  0
  1 38  1  0  0  0  0
  2  3  1  0  0  0  0
  3  8  1  0  0  0  0
  3  4  2  0  0  0  0
  4  5  1  0  0  0  0
  4 39  1  0  0  0  0
  5  6  2  0  0  0  0
  5 40  1  0  0  0  0
  6  7  1  0  0  0  0
  6 41  1  0  0  0  0
  7  8  2  0  0  0  0
  7 42  1  0  0  0  0
  8  9  1  0  0  0  0
  9 10  1  0  0  0  0
  9 43  1  0  0  0  0
 10 11  2  0  0  0  0
 10 12  1  0  0  0  0
 12 35  1  0  0  0  0
 12 13  2  0  0  0  0
 13 14  1  0  0  0  0
 13 44  1  0  0  0  0
 14 15  2  0  0  0  0
 14 45  1  0  0  0  0
 15 16  1  0  0  0  0
 15 34  1  0  0  0  0
 16 17  1  0  0  0  0
 16 46  1  0  0  0  0
 17 18  2  0  0  0  0
 17 19  1  0  0  0  0
 19 20  1  0  0  0  0
 19 47  1  0  0  0  0
 19 48  1  0  0  0  0
 20 32  1  0  0  0  0
 20 21  1  0  0  0  0
 21 22  2  0  0  0  0
 21 23  1  0  0  0  0
 23 24  1  0  0  0  0
 23 25  2  0  0  0  0
 25 26  1  0  0  0  0
 25 49  1  0  0  0  0
 26 27  1  0  0  0  0
 26 32  1  0  0  0  0
 27 31  1  0  0  0  0
 27 28  1  0  0  0  0
 27 50  1  0  0  0  0
 28 29  1  0  0  0  0
 28 51  1  0  0  0  0
 28 52  1  0  0  0  0
 29 30  1  0  0  0  0
 29 53  1  0  0  0  0
 29 54  1  0  0  0  0
 30 31  1  0  0  0  0
 30 55  1  0  0  0  0
 30 56  1  0  0  0  0
 32 33  2  0  0  0  0
 34 35  2  0  0  0  0
 34 57  1  0  0  0  0
 35 58  1  0  0  0  0
M  END
> <s_m_source_file>
AV-unprocessed.smi

> <i_m_source_file_index>
129

> <i_lp_mmshare_version>
43012

> <i_f3d_flags>
0

> <s_epik_input>
W0NIM11PYzFbY0hdW2NIXVtjSF1bY0hdYzFbTkhdQyg9TyljMltjSF1bY0hdYyhbY0hdW2NIXTIpW05IXUMoPU8pW0NIMl1uM2MoPU8pYyhGKVtjSF1uKGMzPU8pW0NAQEhdNFtDSDJdW0NIMl1bQ0gyXU80

> <s_epik_cmdline>
J2VwaWtfcHl0aG9uJywgJy1waCcsICc3LjAnLCAnLXRuJywgJzgnLCAnLW1hJywgJzIwMCcsICctbWV0YWxfYmluZGluZycsICctaW1hZScsICc8aW5maWxlLm1hZT4nLCAnLW9tYWUnLCAnPG91dGZpbGUubWFlPic=

> <r_lp_tautomer_probability>
1

> <r_epik_Ionization_Penalty>
2.57954e-06

> <r_epik_Ionization_Penalty_Charging>
3.88729e-08

> <r_epik_Ionization_Penalty_Neutral>
2.54066e-06

> <r_epik_State_Penalty>
-0

> <r_epik_Charging_Adjusted_Penalty>
3.88729e-08

> <i_epik_Tot_Q>
0

> <i_epik_Tot_abs_Q>
0

> <r_epik_Metal_State_Penalty>
-0

> <b_epik_Metal_Only>
0

> <s_epik_Chemistry_Notes>
This compound contains an acetal/aminal-like group ( X-CH(R)-Y where X, Y are N, S, or O) that may be acid/base labile, releasing an aldehyde.

> <s_lp_Force_Field>
OPLS_2005

> <r_lp_Energy>
51.387

> <b_lp_Chiralities_Consistent>
1

> <s_lp_Variant>
AV-unprocessed.smi:129-2

> <Gold.Version>
5.8.1

> <Gold.Id.Protein>
6NUR|6NUR_protein|mol2

> <Gold.PLP.Fitness>
55.6720

> <Gold.PLP.PLP>
-54.8086

> <Gold.PLP.part.hbond>
-1.0000

> <Gold.PLP.part.metal>
0.0000

> <Gold.PLP.part.buried>
-7.9612

> <Gold.PLP.part.nonpolar>
-45.3509

> <Gold.PLP.part.repulsive>
0.4293

> <Gold.PLP.ligand.clash>
0.0000

> <Gold.PLP.ligand.torsion>
1.1322

> <Gold.PLP.Chemscore.Hbond>
1.0000

> <Gold.PLP.Chemscore.CHOScore>
0.0000

> <Gold.PLP.Chemscore.Metal>
0.0000

> <Gold.Chemscore.Hbonds>
donor molecule, donor type, donor heavy atom, donor atom, acceptor molecule, acceptor atom, score
      P1  H  7997  8008       L1    11  1.00

> <Gold.PLP.Chemscore.Internal.Correction>
0.1278

> <Gold.Rescore>
     Score         DG    S(hbond)    S(metal)    S(lipo)     H(rot)  DE(clash)    DE(int)     intcor
     16.24     -20.46       0.99        0.00     142.36       1.94       0.05       4.17       ----

> <Gold.Chemscore.Fitness>
16.2421

> <Gold.Chemscore.DG>
-20.4639

> <Gold.Chemscore.ZeroCoef>
-5.4800

> <Gold.Chemscore.Hbond>
0.9886

> <Gold.Chemscore.Metal>
0.0000

> <Gold.Chemscore.Lipo>
142.3603

> <Gold.Chemscore.Internal_Hbond>
0.0000

> <Gold.Chemscore.DEClash>
0.0486

> <Gold.Chemscore.DEInternal>
4.1733

> <Gold.Chemscore.Rot>
1.9430

> <Gold.Chemscore.Internal.Correction>
   9.000000E+99

> <Gold.Chemscore.Hbonds>
donor molecule, donor type, donor heavy atom, donor atom, acceptor molecule, acceptor atom, score
      P1  H  7997  8008       L1    11  0.99

> <Gold.Chemscore.Hbond.Weighted>
-3.3019

> <Gold.Chemscore.Metal.Weighted>
-0.0000

> <Gold.Chemscore.Lipo.Weighted>
-16.6562

> <Gold.Chemscore.Internal_Hbond.Weighted>
0.0000

> <Gold.Chemscore.DEClash.Weighted>
0.0486

> <Gold.Chemscore.DEInternal.Weighted>
4.1733

> <Gold.Chemscore.Rot.Weighted>
4.9741

> <Gold.Chemscore.Internal.Correction.Weighted>
   9.000000E+99

> <Gold.Protein.RotatedTorsions>
[ 6907 6896 6895 6894 ] final  108.03 input  -60.11 | X-H torsion
[ 7974 7965 7964 7962 ] final   97.23 input  175.53 | X-H torsion
[ 8008 7997 7996 7995 ] final  -91.85 input   59.86 | X-H torsion
[ 10167 10162 10161 10158 ] final    7.82 input  -65.29 | X-H torsion
[ 10718 10713 10712 10709 ] final -154.41 input   66.30 | X-H torsion
[ 10763 10752 10751 10750 ] final  -28.19 input  -60.55 | X-H torsion
[ 11005 11000 10999 10996 ] final  -15.20 input  -57.11 | X-H torsion

> <Gold.Protein.ActiveResidues>
 VAL166  LYS551  ARG553  GLY616  TRP617  ASP618  TYR619  PRO620  LYS621  CYS622 
 ASP623  PHE694  ASN695  SER759  ASP760  ASP761  ALA762  ILE779  LEU786  VAL792 
 PHE793  MET794  SER795  GLU796  ALA797  LYS798  CYS799  TRP800  GLU811  SER814 

> <Gold.Protein.RotatedAtoms>
  152.5129  133.9148  159.7505 H   0  0  0  0  0  0  0  0  0  0  0  0  # atno 6907 bound_to 6896
  150.9533  133.6516  159.2774 H   0  0  0  0  0  0  0  0  0  0  0  0  # atno 6908 bound_to 6896
  151.3787  135.0941  159.9542 H   0  0  0  0  0  0  0  0  0  0  0  0  # atno 6909 bound_to 6896
  145.4283  139.2313  143.3158 H   0  0  0  0  0  0  0  0  0  0  0  0  # atno 7974 bound_to 7965
  154.7158  140.0515  157.0593 H   0  0  0  0  0  0  0  0  0  0  0  0  # atno 8008 bound_to 7997
  155.0493  140.3177  155.4678 H   0  0  0  0  0  0  0  0  0  0  0  0  # atno 8009 bound_to 7997
  156.2802  140.2119  156.5618 H   0  0  0  0  0  0  0  0  0  0  0  0  # atno 8010 bound_to 7997
  140.6350  143.7908  150.7346 H   0  0  0  0  0  0  0  0  0  0  0  0  # atno 10167 bound_to 10162
  156.4989  130.8382  151.2601 H   0  0  0  0  0  0  0  0  0  0  0  0  # atno 10718 bound_to 10713
  153.7442  135.6930  153.4960 H   0  0  0  0  0  0  0  0  0  0  0  0  # atno 10763 bound_to 10752
  153.2048  135.4424  155.0308 H   0  0  0  0  0  0  0  0  0  0  0  0  # atno 10764 bound_to 10752
  154.8210  135.3422  154.6966 H   0  0  0  0  0  0  0  0  0  0  0  0  # atno 10765 bound_to 10752
  140.7942  133.8264  155.9408 H   0  0  0  0  0  0  0  0  0  0  0  0  # atno 11005 bound_to 11000
  146.2620  140.5017  142.8849 LP  0  0  0  0  0  0  0  0  0  0  0  0  # atno 17320 bound_to 7965
  144.8199  140.6532  143.6359 LP  0  0  0  0  0  0  0  0  0  0  0  0  # atno 17321 bound_to 7965
  140.1527  143.4343  152.2120 LP  0  0  0  0  0  0  0  0  0  0  0  0  # atno 17342 bound_to 10162
  139.5561  144.7373  151.4291 LP  0  0  0  0  0  0  0  0  0  0  0  0  # atno 17343 bound_to 10162
  157.7465  130.9988  150.2867 LP  0  0  0  0  0  0  0  0  0  0  0  0  # atno 17370 bound_to 10713
  156.3352  130.3806  149.7456 LP  0  0  0  0  0  0  0  0  0  0  0  0  # atno 17371 bound_to 10713
  140.9359  134.1963  157.4832 LP  0  0  0  0  0  0  0  0  0  0  0  0  # atno 17394 bound_to 11000
  139.8728  134.9852  156.5271 LP  0  0  0  0  0  0  0  0  0  0  0  0  # atno 17395 bound_to 11000

$$$$
