AV-unprocessed.smi:3303|AV-procd|sdf|12686|dock5
  -GOLD-   2272019 23D 1   1.00000     0.00000
 Structure written by MMmdl.
 44 45  0  0  0  0  0  0  0  0  2 V2000
  147.0377  142.6958  154.3828 C   0  0  0  0  0  0  0  0  0  0  0  0
  147.1888  141.4246  155.2445 C   0  0  1  0  0  0  0  0  0  0  0  0
  146.5929  140.1946  154.5293 C   0  0  0  0  0  0  0  0  0  0  0  0
  147.4414  139.7588  153.3897 N   0  3  2  0  0  0  0  0  0  0  0  0
  146.7907  138.7267  152.5514 C   0  0  0  0  0  0  0  0  0  0  0  0
  148.8443  139.4350  153.7791 C   0  0  2  0  0  0  0  0  0  0  0  0
  148.9750  138.1314  154.5966 C   0  0  0  0  0  0  0  0  0  0  0  0
  149.4884  140.6406  154.4931 C   0  0  0  0  0  0  0  0  0  0  0  0
  148.6450  141.1233  155.6883 C   0  0  1  0  0  0  0  0  0  0  0  0
  149.3091  142.2727  156.2946 N   0  0  0  0  0  0  0  0  0  0  0  0
  150.6653  141.9616  156.7231 C   0  0  0  0  0  0  0  0  0  0  0  0
  151.3741  143.2498  157.1621 C   0  0  0  0  0  0  0  0  0  0  0  0
  151.9898  143.1174  158.5420 C   0  0  0  0  0  0  0  0  0  0  0  0
  151.7831  144.1126  159.5212 C   0  0  0  0  0  0  0  0  0  0  0  0
  152.3683  143.9372  160.7899 C   0  0  0  0  0  0  0  0  0  0  0  0
  153.1328  142.7795  161.0301 C   0  0  0  0  0  0  0  0  0  0  0  0
  153.2782  141.8441  159.9860 C   0  0  0  0  0  0  0  0  0  0  0  0
  152.7209  142.0021  158.7660 N   0  0  0  0  0  0  0  0  0  0  0  0
  147.6006  142.6295  153.4521 H   0  0  0  0  0  0  0  0  0  0  0  0
  147.3800  143.5840  154.9143 H   0  0  0  0  0  0  0  0  0  0  0  0
  145.9933  142.8656  154.1210 H   0  0  0  0  0  0  0  0  0  0  0  0
  146.5854  141.5815  156.1389 H   0  0  0  0  0  0  0  0  0  0  0  0
  146.4722  139.3718  155.2344 H   0  0  0  0  0  0  0  0  0  0  0  0
  145.5912  140.4315  154.1678 H   0  0  0  0  0  0  0  0  0  0  0  0
  146.5549  137.8324  153.1288 H   0  0  0  0  0  0  0  0  0  0  0  0
  147.4334  138.4415  151.7179 H   0  0  0  0  0  0  0  0  0  0  0  0
  145.8594  139.1109  152.1344 H   0  0  0  0  0  0  0  0  0  0  0  0
  149.4014  139.2832  152.8536 H   0  0  0  0  0  0  0  0  0  0  0  0
  150.0169  137.9462  154.8585 H   0  0  0  0  0  0  0  0  0  0  0  0
  148.6349  137.2636  154.0318 H   0  0  0  0  0  0  0  0  0  0  0  0
  148.4103  138.1646  155.5277 H   0  0  0  0  0  0  0  0  0  0  0  0
  150.4943  140.3787  154.8243 H   0  0  0  0  0  0  0  0  0  0  0  0
  149.6152  141.4541  153.7774 H   0  0  0  0  0  0  0  0  0  0  0  0
  148.6282  140.3214  156.4276 H   0  0  0  0  0  0  0  0  0  0  0  0
  149.3473  143.0276  155.6239 H   0  0  0  0  0  0  0  0  0  0  0  0
  150.6489  141.2553  157.5528 H   0  0  0  0  0  0  0  0  0  0  0  0
  151.2132  141.4954  155.9031 H   0  0  0  0  0  0  0  0  0  0  0  0
  152.1576  143.5117  156.4492 H   0  0  0  0  0  0  0  0  0  0  0  0
  150.6696  144.0829  157.1643 H   0  0  0  0  0  0  0  0  0  0  0  0
  151.1889  144.9891  159.3079 H   0  0  0  0  0  0  0  0  0  0  0  0
  152.2322  144.6774  161.5646 H   0  0  0  0  0  0  0  0  0  0  0  0
  153.5958  142.6118  161.9911 H   0  0  0  0  0  0  0  0  0  0  0  0
  153.8571  140.9447  160.1350 H   0  0  0  0  0  0  0  0  0  0  0  0
  147.5186  140.5710  152.7940 H   0  0  0  0  0  0  0  0  0  0  0  0
  1  2  1  0  0  0  0
  1 19  1  0  0  0  0
  1 20  1  0  0  0  0
  1 21  1  0  0  0  0
  2  9  1  0  0  0  0
  2  3  1  0  0  0  0
  2 22  1  0  0  0  0
  3  4  1  0  0  0  0
  3 23  1  0  0  0  0
  3 24  1  0  0  0  0
  4  5  1  0  0  0  0
  4  6  1  0  0  0  0
  4 44  1  0  0  0  0
  5 25  1  0  0  0  0
  5 26  1  0  0  0  0
  5 27  1  0  0  0  0
  6  7  1  0  0  0  0
  6  8  1  0  0  0  0
  6 28  1  0  0  0  0
  7 29  1  0  0  0  0
  7 30  1  0  0  0  0
  7 31  1  0  0  0  0
  8  9  1  0  0  0  0
  8 32  1  0  0  0  0
  8 33  1  0  0  0  0
  9 10  1  0  0  0  0
  9 34  1  0  0  0  0
 10 11  1  0  0  0  0
 10 35  1  0  0  0  0
 11 12  1  0  0  0  0
 11 36  1  0  0  0  0
 11 37  1  0  0  0  0
 12 13  1  0  0  0  0
 12 38  1  0  0  0  0
 12 39  1  0  0  0  0
 13 18  1  0  0  0  0
 13 14  2  0  0  0  0
 14 15  1  0  0  0  0
 14 40  1  0  0  0  0
 15 16  2  0  0  0  0
 15 41  1  0  0  0  0
 16 17  1  0  0  0  0
 16 42  1  0  0  0  0
 17 18  2  0  0  0  0
 17 43  1  0  0  0  0
M  CHG  1   4   1
M  END
> <s_m_source_file>
AV-unprocessed.smi

> <i_m_source_file_index>
3303

> <i_lp_mmshare_version>
43012

> <i_f3d_flags>
0

> <s_epik_input>
W0NIM11bQ0BASF0xW0NIMl1OKFtDSDNdKVtDQEBIXShbQ0gzXSlbQ0gyXVtDQEhdMVtOSF1bQ0gyXVtDSDJdYzJbY0hdW2NIXVtjSF1bY0hdbjI=

> <s_epik_cmdline>
J2VwaWtfcHl0aG9uJywgJy1waCcsICc3LjAnLCAnLXRuJywgJzgnLCAnLW1hJywgJzIwMCcsICctbWV0YWxfYmluZGluZycsICctaW1hZScsICc8aW5maWxlLm1hZT4nLCAnLW9tYWUnLCAnPG91dGZpbGUubWFlPic=

> <r_epik_Ionization_Penalty>
2.31085

> <r_epik_Ionization_Penalty_Charging>
0.000313057

> <r_epik_Ionization_Penalty_Neutral>
2.31054

> <r_epik_State_Penalty>
2.4087

> <r_epik_Charging_Adjusted_Penalty>
2.40902

> <i_epik_Tot_Q>
1

> <i_epik_Tot_abs_Q>
1

> <r_epik_Metal_State_Penalty>
2.30979

> <b_epik_Metal_Only>
0

> <s_lp_Force_Field>
OPLS_2005

> <r_lp_Energy>
26.3275

> <b_lp_Chiralities_Consistent>
1

> <s_lp_Variant>
AV-unprocessed.smi:3303-30

> <Gold.Version>
5.8.1

> <Gold.Id.Protein>
6NUR|6NUR_protein|mol2

> <Gold.PLP.Fitness>
39.6951

> <Gold.PLP.PLP>
-38.7877

> <Gold.PLP.part.hbond>
-1.7747

> <Gold.PLP.part.metal>
0.0000

> <Gold.PLP.part.buried>
-0.6135

> <Gold.PLP.part.nonpolar>
-37.1545

> <Gold.PLP.part.repulsive>
0.0246

> <Gold.PLP.ligand.clash>
0.0000

> <Gold.PLP.ligand.torsion>
0.5094

> <Gold.PLP.Chemscore.Hbond>
0.6400

> <Gold.PLP.Chemscore.CHOScore>
0.0000

> <Gold.PLP.Chemscore.Metal>
0.0000

> <Gold.Chemscore.Hbonds>
donor molecule, donor type, donor heavy atom, donor atom, acceptor molecule, acceptor atom, score
      L1  H    10    35       P1  8028  0.69

> <Gold.PLP.Chemscore.Internal.Correction>
0.0062

> <Gold.Rescore>
     Score         DG    S(hbond)    S(metal)    S(lipo)     H(rot)  DE(clash)    DE(int)     intcor
     17.58     -18.91       0.97        0.00     115.97       1.33       0.81       0.52       ----

> <Gold.Chemscore.Fitness>
17.5759

> <Gold.Chemscore.DG>
-18.9062

> <Gold.Chemscore.ZeroCoef>
-5.4800

> <Gold.Chemscore.Hbond>
0.9747

> <Gold.Chemscore.Metal>
0.0000

> <Gold.Chemscore.Lipo>
115.9683

> <Gold.Chemscore.Internal_Hbond>
0.0000

> <Gold.Chemscore.DEClash>
0.8129

> <Gold.Chemscore.DEInternal>
0.5174

> <Gold.Chemscore.Rot>
1.3272

> <Gold.Chemscore.Internal.Correction>
   9.000000E+99

> <Gold.Chemscore.Hbonds>
donor molecule, donor type, donor heavy atom, donor atom, acceptor molecule, acceptor atom, score
      L1  H    10    35       P1  8028  0.70

> <Gold.Chemscore.Hbond.Weighted>
-3.2556

> <Gold.Chemscore.Metal.Weighted>
-0.0000

> <Gold.Chemscore.Lipo.Weighted>
-13.5683

> <Gold.Chemscore.Internal_Hbond.Weighted>
0.0000

> <Gold.Chemscore.DEClash.Weighted>
0.8129

> <Gold.Chemscore.DEInternal.Weighted>
0.5174

> <Gold.Chemscore.Rot.Weighted>
3.3976

> <Gold.Chemscore.Internal.Correction.Weighted>
   9.000000E+99

> <Gold.Protein.RotatedTorsions>
[ 6907 6896 6895 6894 ] final  139.19 input  -60.11 | X-H torsion
[ 7974 7965 7964 7962 ] final -145.56 input  175.53 | X-H torsion
[ 8008 7997 7996 7995 ] final  168.36 input   59.86 | X-H torsion
[ 10167 10162 10161 10158 ] final  -58.69 input  -65.29 | X-H torsion
[ 10718 10713 10712 10709 ] final  -45.79 input   66.30 | X-H torsion
[ 10763 10752 10751 10750 ] final    7.83 input  -60.55 | X-H torsion
[ 11005 11000 10999 10996 ] final   67.90 input  -57.11 | X-H torsion

> <Gold.Protein.ActiveResidues>
 VAL166  LYS551  ARG553  GLY616  TRP617  ASP618  TYR619  PRO620  LYS621  CYS622 
 ASP623  PHE694  ASN695  SER759  ASP760  ASP761  ALA762  ILE779  LEU786  VAL792 
 PHE793  MET794  SER795  GLU796  ALA797  LYS798  CYS799  TRP800  GLU811  SER814 

> <Gold.Protein.RotatedAtoms>
  152.2578  133.5271  159.5363 H   0  0  0  0  0  0  0  0  0  0  0  0  # atno 6907 bound_to 6896
  150.7115  134.0871  159.3927 H   0  0  0  0  0  0  0  0  0  0  0  0  # atno 6908 bound_to 6896
  151.8789  135.0461  160.0537 H   0  0  0  0  0  0  0  0  0  0  0  0  # atno 6909 bound_to 6896
  144.8219  140.5568  143.5573 H   0  0  0  0  0  0  0  0  0  0  0  0  # atno 7974 bound_to 7965
  156.1554  140.1592  156.8701 H   0  0  0  0  0  0  0  0  0  0  0  0  # atno 8008 bound_to 7997
  154.5110  140.0801  156.8025 H   0  0  0  0  0  0  0  0  0  0  0  0  # atno 8009 bound_to 7997
  155.3814  140.3405  155.4249 H   0  0  0  0  0  0  0  0  0  0  0  0  # atno 8010 bound_to 7997
  140.6182  143.2410  151.5546 H   0  0  0  0  0  0  0  0  0  0  0  0  # atno 10167 bound_to 10162
  156.2248  130.4168  149.8948 H   0  0  0  0  0  0  0  0  0  0  0  0  # atno 10718 bound_to 10713
  153.2319  135.6893  153.7880 H   0  0  0  0  0  0  0  0  0  0  0  0  # atno 10763 bound_to 10752
  153.7042  135.3292  155.3232 H   0  0  0  0  0  0  0  0  0  0  0  0  # atno 10764 bound_to 10752
  154.8317  135.4575  154.1207 H   0  0  0  0  0  0  0  0  0  0  0  0  # atno 10765 bound_to 10752
  139.9743  134.6848  156.0385 H   0  0  0  0  0  0  0  0  0  0  0  0  # atno 11005 bound_to 11000
  145.5086  139.1480  143.3617 LP  0  0  0  0  0  0  0  0  0  0  0  0  # atno 17320 bound_to 7965
  146.2524  140.5226  142.8887 LP  0  0  0  0  0  0  0  0  0  0  0  0  # atno 17321 bound_to 7965
  139.5416  144.2632  152.1362 LP  0  0  0  0  0  0  0  0  0  0  0  0  # atno 17342 bound_to 10162
  140.1846  144.4811  150.6510 LP  0  0  0  0  0  0  0  0  0  0  0  0  # atno 17343 bound_to 10162
  156.6582  130.8771  151.3543 LP  0  0  0  0  0  0  0  0  0  0  0  0  # atno 17370 bound_to 10713
  157.7105  130.9435  150.1073 LP  0  0  0  0  0  0  0  0  0  0  0  0  # atno 17371 bound_to 10713
  141.1421  133.6563  156.3760 LP  0  0  0  0  0  0  0  0  0  0  0  0  # atno 17394 bound_to 11000
  140.5228  134.6288  157.5324 LP  0  0  0  0  0  0  0  0  0  0  0  0  # atno 17395 bound_to 11000

$$$$
