AV-unprocessed.smi:99|AV-procd|sdf|882|dock1
  -GOLD-   2262017363D 1   1.00000     0.00000
 Structure written by MMmdl.
 52 55  0  0  0  0  0  0  0  0  2 V2000
  149.5439  135.3195  158.5840 O   0  0  0  0  0  0  0  0  0  0  0  0
  149.0665  136.0908  159.4184 C   0  0  0  0  0  0  0  0  0  0  0  0
  149.1601  137.4326  159.3360 O   0  0  0  0  0  0  0  0  0  0  0  0
  150.1999  138.0336  158.5797 C   0  0  0  0  0  0  0  0  0  0  0  0
  149.8964  137.8741  157.0824 C   0  0  1  0  0  0  0  0  0  0  0  0
  148.5287  138.1752  156.8133 O   0  0  0  0  0  0  0  0  0  0  0  0
  148.3847  138.6626  155.5089 C   0  0  1  0  0  0  0  0  0  0  0  0
  147.6364  139.9810  155.5545 N   0  0  0  0  0  0  0  0  0  0  0  0
  147.4339  140.6401  156.7548 C   0  0  0  0  0  0  0  0  0  0  0  0
  146.7738  141.8145  156.8117 C   0  0  0  0  0  0  0  0  0  0  0  0
  146.2539  142.4038  155.5819 C   0  0  0  0  0  0  0  0  0  0  0  0
  145.6589  143.4780  155.6416 O   0  0  0  0  0  0  0  0  0  0  0  0
  146.4528  141.7294  154.4127 N   0  5  0  0  0  0  0  0  0  0  0  0
  147.1222  140.5410  154.3525 C   0  0  0  0  0  0  0  0  0  0  0  0
  147.3120  139.9284  153.3017 O   0  0  0  0  0  0  0  0  0  0  0  0
  149.8015  138.7906  154.9129 C   0  0  1  0  0  0  0  0  0  0  0  0
  150.0465  139.8932  154.0593 O   0  0  0  0  0  0  0  0  0  0  0  0
  150.6950  138.7866  156.1427 C   0  0  1  0  0  0  0  0  0  0  0  0
  150.8071  140.0860  156.7271 O   0  0  0  0  0  0  0  0  0  0  0  0
  151.9182  140.4456  157.4129 C   0  0  0  0  0  0  0  0  0  0  0  0
  152.8785  139.6972  157.6054 O   0  0  0  0  0  0  0  0  0  0  0  0
  151.8646  141.8464  157.9203 C   0  0  0  0  0  0  0  0  0  0  0  0
  152.5999  142.1921  159.0782 C   0  0  0  0  0  0  0  0  0  0  0  0
  152.5716  143.5078  159.5801 C   0  0  0  0  0  0  0  0  0  0  0  0
  151.8054  144.4939  158.9318 C   0  0  0  0  0  0  0  0  0  0  0  0
  151.0654  144.1615  157.7822 C   0  0  0  0  0  0  0  0  0  0  0  0
  151.0930  142.8461  157.2802 C   0  0  0  0  0  0  0  0  0  0  0  0
  148.3174  135.6369  160.6250 C   0  0  0  0  0  0  0  0  0  0  0  0
  148.1867  136.5109  161.7294 C   0  0  0  0  0  0  0  0  0  0  0  0
  147.4877  136.1081  162.8840 C   0  0  0  0  0  0  0  0  0  0  0  0
  146.9127  134.8257  162.9490 C   0  0  0  0  0  0  0  0  0  0  0  0
  147.0388  133.9457  161.8585 C   0  0  0  0  0  0  0  0  0  0  0  0
  147.7368  134.3468  160.7026 C   0  0  0  0  0  0  0  0  0  0  0  0
  150.2812  139.0884  158.8430 H   0  0  0  0  0  0  0  0  0  0  0  0
  151.1597  137.5676  158.8088 H   0  0  0  0  0  0  0  0  0  0  0  0
  150.0665  136.8377  156.7863 H   0  0  0  0  0  0  0  0  0  0  0  0
  147.7457  137.9767  154.9508 H   0  0  0  0  0  0  0  0  0  0  0  0
  147.8048  140.2138  157.6738 H   0  0  0  0  0  0  0  0  0  0  0  0
  146.6271  142.3129  157.7586 H   0  0  0  0  0  0  0  0  0  0  0  0
  149.9912  137.8776  154.3471 H   0  0  0  0  0  0  0  0  0  0  0  0
  149.6511  139.7129  153.2198 H   0  0  0  0  0  0  0  0  0  0  0  0
  151.6689  138.3502  155.9178 H   0  0  0  0  0  0  0  0  0  0  0  0
  153.1974  141.4527  159.5920 H   0  0  0  0  0  0  0  0  0  0  0  0
  153.1396  143.7603  160.4632 H   0  0  0  0  0  0  0  0  0  0  0  0
  151.7845  145.5031  159.3159 H   0  0  0  0  0  0  0  0  0  0  0  0
  150.4747  144.9157  157.2834 H   0  0  0  0  0  0  0  0  0  0  0  0
  150.5087  142.6243  156.4021 H   0  0  0  0  0  0  0  0  0  0  0  0
  148.6201  137.5003  161.7029 H   0  0  0  0  0  0  0  0  0  0  0  0
  147.3931  136.7846  163.7207 H   0  0  0  0  0  0  0  0  0  0  0  0
  146.3768  134.5171  163.8346 H   0  0  0  0  0  0  0  0  0  0  0  0
  146.5999  132.9601  161.9081 H   0  0  0  0  0  0  0  0  0  0  0  0
  147.8188  133.6449  159.8857 H   0  0  0  0  0  0  0  0  0  0  0  0
  1  2  2  0  0  0  0
  2  3  1  0  0  0  0
  2 28  1  0  0  0  0
  3  4  1  0  0  0  0
  4  5  1  0  0  0  0
  4 34  1  0  0  0  0
  4 35  1  0  0  0  0
  5 18  1  0  0  0  0
  5  6  1  0  0  0  0
  5 36  1  0  0  0  0
  6  7  1  0  0  0  0
  7  8  1  0  0  0  0
  7 16  1  0  0  0  0
  7 37  1  0  0  0  0
  8 14  1  0  0  0  0
  8  9  1  0  0  0  0
  9 10  2  0  0  0  0
  9 38  1  0  0  0  0
 10 11  1  0  0  0  0
 10 39  1  0  0  0  0
 11 12  2  0  0  0  0
 11 13  1  0  0  0  0
 13 14  1  0  0  0  0
 14 15  2  0  0  0  0
 16 17  1  0  0  0  0
 16 18  1  0  0  0  0
 16 40  1  0  0  0  0
 17 41  1  0  0  0  0
 18 19  1  0  0  0  0
 18 42  1  0  0  0  0
 19 20  1  0  0  0  0
 20 21  2  0  0  0  0
 20 22  1  0  0  0  0
 22 27  1  0  0  0  0
 22 23  2  0  0  0  0
 23 24  1  0  0  0  0
 23 43  1  0  0  0  0
 24 25  2  0  0  0  0
 24 44  1  0  0  0  0
 25 26  1  0  0  0  0
 25 45  1  0  0  0  0
 26 27  2  0  0  0  0
 26 46  1  0  0  0  0
 27 47  1  0  0  0  0
 28 33  1  0  0  0  0
 28 29  2  0  0  0  0
 29 30  1  0  0  0  0
 29 48  1  0  0  0  0
 30 31  2  0  0  0  0
 30 49  1  0  0  0  0
 31 32  1  0  0  0  0
 31 50  1  0  0  0  0
 32 33  2  0  0  0  0
 32 51  1  0  0  0  0
 33 52  1  0  0  0  0
M  CHG  1  13  -1
M  END
> <s_m_source_file>
AV-unprocessed.smi

> <i_m_source_file_index>
99

> <i_lp_mmshare_version>
43012

> <i_f3d_flags>
0

> <s_epik_input>
W2NIXTFbY0hdW2NIXVtjSF1bY0hdYzFDKD1PKU9bQ0gyXVtDQEBIXTJPW0NAQEhdKG4zW2NIXVtjSF1jKD1PKVtuSF1jMz1PKVtDQEBIXShbT0hdKVtDQEhdMk9DKD1PKWM0W2NIXVtjSF1bY0hdW2NIXVtjSF00

> <s_epik_cmdline>
J2VwaWtfcHl0aG9uJywgJy1waCcsICc3LjAnLCAnLXRuJywgJzgnLCAnLW1hJywgJzIwMCcsICctbWV0YWxfYmluZGluZycsICctaW1hZScsICc8aW5maWxlLm1hZT4nLCAnLW9tYWUnLCAnPG91dGZpbGUubWFlPic=

> <r_lp_tautomer_probability>
1

> <r_epik_Ionization_Penalty>
2.89159

> <r_epik_Ionization_Penalty_Charging>
2.1077e-08

> <r_epik_Ionization_Penalty_Neutral>
2.89159

> <r_epik_State_Penalty>
2.88671

> <r_epik_Charging_Adjusted_Penalty>
2.88671

> <i_epik_Tot_Q>
-1

> <i_epik_Tot_abs_Q>
1

> <r_epik_Metal_State_Penalty>
0.0727308

> <b_epik_Metal_Only>
1

> <s_epik_Chemistry_Notes>
This compound has an ester and may undergo hydrolysis at high or low pH. This compound contains an acetal/aminal-like group ( X-CH(R)-Y where X, Y are N, S, or O) that may be acid/base labile, releasing an aldehyde.

> <s_lp_Force_Field>
OPLS_2005

> <r_lp_Energy>
51.9735

> <b_lp_Chiralities_Consistent>
1

> <s_lp_Variant>
AV-unprocessed.smi:99-18

> <Gold.Version>
5.8.1

> <Gold.Id.Protein>
6NUR|6NUR_protein|mol2

> <Gold.PLP.Fitness>
61.6347

> <Gold.PLP.PLP>
-52.3440

> <Gold.PLP.part.hbond>
-4.2470

> <Gold.PLP.part.metal>
0.0000

> <Gold.PLP.part.buried>
-4.7851

> <Gold.PLP.part.nonpolar>
-44.3474

> <Gold.PLP.part.repulsive>
1.2264

> <Gold.PLP.ligand.clash>
0.0000

> <Gold.PLP.ligand.torsion>
1.7209

> <Gold.PLP.Chemscore.Hbond>
3.9033

> <Gold.PLP.Chemscore.CHOScore>
0.0000

> <Gold.PLP.Chemscore.Metal>
0.0000

> <Gold.Chemscore.Hbonds>
donor molecule, donor type, donor heavy atom, donor atom, acceptor molecule, acceptor atom, score
      L1  H    17    41       P1  7957  0.84
      P1  H  6896  6908       L1     1  0.98
      P1  H  7989  7998       L1    17  0.93
      P1  H  7997  8009       L1    21  1.00

> <Gold.PLP.Chemscore.Internal.Correction>
1.0229

> <Gold.Rescore>
     Score         DG    S(hbond)    S(metal)    S(lipo)     H(rot)  DE(clash)    DE(int)     intcor
     20.86     -23.13       3.16        0.00     129.22       3.13       0.28       1.98       ----

> <Gold.Chemscore.Fitness>
20.8626

> <Gold.Chemscore.DG>
-23.1291

> <Gold.Chemscore.ZeroCoef>
-5.4800

> <Gold.Chemscore.Hbond>
3.1601

> <Gold.Chemscore.Metal>
0.0000

> <Gold.Chemscore.Lipo>
129.2203

> <Gold.Chemscore.Internal_Hbond>
0.0000

> <Gold.Chemscore.DEClash>
0.2845

> <Gold.Chemscore.DEInternal>
1.9819

> <Gold.Chemscore.Rot>
3.1346

> <Gold.Chemscore.Internal.Correction>
   9.000000E+99

> <Gold.Chemscore.Hbonds>
donor molecule, donor type, donor heavy atom, donor atom, acceptor molecule, acceptor atom, score
      L1  H    17    41       P1  7957  0.78
      P1  H  6896  6908       L1     1  0.60
      P1  H  7989  7998       L1    17  0.20
      P1  H  7997  8009       L1    21  0.95

> <Gold.Chemscore.Hbond.Weighted>
-10.5548

> <Gold.Chemscore.Metal.Weighted>
-0.0000

> <Gold.Chemscore.Lipo.Weighted>
-15.1188

> <Gold.Chemscore.Internal_Hbond.Weighted>
0.0000

> <Gold.Chemscore.DEClash.Weighted>
0.2845

> <Gold.Chemscore.DEInternal.Weighted>
1.9819

> <Gold.Chemscore.Rot.Weighted>
8.0246

> <Gold.Chemscore.Internal.Correction.Weighted>
   9.000000E+99

> <Gold.Protein.RotatedTorsions>
[ 6907 6896 6895 6894 ] final  147.30 input  -60.11 | X-H torsion
[ 7974 7965 7964 7962 ] final  -36.16 input  175.53 | X-H torsion
[ 8008 7997 7996 7995 ] final  151.27 input   59.86 | X-H torsion
[ 10167 10162 10161 10158 ] final -118.94 input  -65.29 | X-H torsion
[ 10718 10713 10712 10709 ] final  104.26 input   66.30 | X-H torsion
[ 10763 10752 10751 10750 ] final  167.78 input  -60.55 | X-H torsion
[ 11005 11000 10999 10996 ] final  141.09 input  -57.11 | X-H torsion

> <Gold.Protein.ActiveResidues>
 VAL166  LYS551  ARG553  GLY616  TRP617  ASP618  TYR619  PRO620  LYS621  CYS622 
 ASP623  PHE694  ASN695  SER759  ASP760  ASP761  ALA762  ILE779  LEU786  VAL792 
 PHE793  MET794  SER795  GLU796  ALA797  LYS798  CYS799  TRP800  GLU811  SER814 

> <Gold.Protein.RotatedAtoms>
  152.1566  133.4555  159.4839 H   0  0  0  0  0  0  0  0  0  0  0  0  # atno 6907 bound_to 6896
  150.6902  134.2123  159.4373 H   0  0  0  0  0  0  0  0  0  0  0  0  # atno 6908 bound_to 6896
  152.0023  134.9921  160.0616 H   0  0  0  0  0  0  0  0  0  0  0  0  # atno 6909 bound_to 6896
  146.0685  140.6246  142.8964 H   0  0  0  0  0  0  0  0  0  0  0  0  # atno 7974 bound_to 7965
  156.2681  140.2052  156.6149 H   0  0  0  0  0  0  0  0  0  0  0  0  # atno 8008 bound_to 7997
  154.6802  140.0541  157.0282 H   0  0  0  0  0  0  0  0  0  0  0  0  # atno 8009 bound_to 7997
  155.1011  140.3206  155.4549 H   0  0  0  0  0  0  0  0  0  0  0  0  # atno 8010 bound_to 7997
  140.0520  143.5050  152.2077 H   0  0  0  0  0  0  0  0  0  0  0  0  # atno 10167 bound_to 10162
  157.6746  131.0799  150.5680 H   0  0  0  0  0  0  0  0  0  0  0  0  # atno 10718 bound_to 10713
  154.3589  135.2753  155.2331 H   0  0  0  0  0  0  0  0  0  0  0  0  # atno 10763 bound_to 10752
  154.4528  135.5926  153.6206 H   0  0  0  0  0  0  0  0  0  0  0  0  # atno 10764 bound_to 10752
  152.9845  135.6046  154.3807 H   0  0  0  0  0  0  0  0  0  0  0  0  # atno 10765 bound_to 10752
  140.0376  134.9321  157.0782 H   0  0  0  0  0  0  0  0  0  0  0  0  # atno 11005 bound_to 11000
  144.7217  140.4394  143.7003 LP  0  0  0  0  0  0  0  0  0  0  0  0  # atno 17320 bound_to 7965
  145.6434  139.1553  143.2902 LP  0  0  0  0  0  0  0  0  0  0  0  0  # atno 17321 bound_to 7965
  139.5947  144.7563  151.3315 LP  0  0  0  0  0  0  0  0  0  0  0  0  # atno 17342 bound_to 10162
  140.7212  143.7130  150.7754 LP  0  0  0  0  0  0  0  0  0  0  0  0  # atno 17343 bound_to 10162
  156.5982  130.4347  149.5908 LP  0  0  0  0  0  0  0  0  0  0  0  0  # atno 17370 bound_to 10713
  156.2528  130.6917  151.1660 LP  0  0  0  0  0  0  0  0  0  0  0  0  # atno 17371 bound_to 10713
  140.4122  134.1969  155.7163 LP  0  0  0  0  0  0  0  0  0  0  0  0  # atno 17394 bound_to 11000
  141.1865  133.8300  157.1064 LP  0  0  0  0  0  0  0  0  0  0  0  0  # atno 17395 bound_to 11000

$$$$
