AV-unprocessed.smi:3128|AV-procd|sdf|11919|dock2
  -GOLD-   2272017303D 1   1.00000     0.00000
 Structure written by MMmdl.
 40 40  0  0  0  0  0  0  0  0  2 V2000
  147.6588  141.9605  154.0904 C   0  0  0  0  0  0  0  0  0  0  0  0
  148.2822  140.8782  154.9932 C   0  0  0  0  0  0  0  0  0  0  0  0
  149.2307  141.5426  156.0077 C   0  0  0  0  0  0  0  0  0  0  0  0
  148.9821  139.7622  154.1728 C   0  0  1  0  0  0  0  0  0  0  0  0
  149.5758  138.6417  155.0451 C   0  0  0  0  0  0  0  0  0  0  0  0
  148.0381  139.1582  153.2319 N   0  0  0  0  0  0  0  0  0  0  0  0
  146.8341  138.6492  153.5381 C   0  0  0  0  0  0  0  0  0  0  0  0
  146.3707  138.6345  154.6790 O   0  0  0  0  0  0  0  0  0  0  0  0
  146.0290  138.0859  152.3661 C   0  0  0  0  0  0  0  0  0  0  0  0
  146.4009  136.6913  152.0521 N   0  3  0  0  0  0  0  0  0  0  0  0
  145.7301  136.1476  150.8556 C   0  0  0  0  0  0  0  0  0  0  0  0
  144.4747  135.3505  151.2375 C   0  0  0  0  0  0  0  0  0  0  0  0
  144.6251  133.9398  150.9373 N   0  0  0  0  0  0  0  0  0  0  0  0
  143.6559  132.9588  150.9084 C   0  0  0  0  0  0  0  0  0  0  0  0
  144.2746  131.7871  150.5782 C   0  0  0  0  0  0  0  0  0  0  0  0
  145.6395  132.1577  150.4201 C   0  0  0  0  0  0  0  0  0  0  0  0
  145.8458  133.4472  150.6358 N   0  0  0  0  0  0  0  0  0  0  0  0
  148.4140  142.4302  153.4592 H   0  0  0  0  0  0  0  0  0  0  0  0
  147.1900  142.7455  154.6846 H   0  0  0  0  0  0  0  0  0  0  0  0
  146.8858  141.5532  153.4385 H   0  0  0  0  0  0  0  0  0  0  0  0
  147.4686  140.4230  155.5601 H   0  0  0  0  0  0  0  0  0  0  0  0
  150.1096  141.9597  155.5151 H   0  0  0  0  0  0  0  0  0  0  0  0
  149.5724  140.8381  156.7655 H   0  0  0  0  0  0  0  0  0  0  0  0
  148.7319  142.3550  156.5372 H   0  0  0  0  0  0  0  0  0  0  0  0
  149.8032  140.2238  153.6208 H   0  0  0  0  0  0  0  0  0  0  0  0
  150.3818  139.0075  155.6808 H   0  0  0  0  0  0  0  0  0  0  0  0
  149.9971  137.8470  154.4284 H   0  0  0  0  0  0  0  0  0  0  0  0
  148.8169  138.1947  155.6884 H   0  0  0  0  0  0  0  0  0  0  0  0
  148.3288  139.1296  152.2653 H   0  0  0  0  0  0  0  0  0  0  0  0
  144.9685  138.1323  152.6171 H   0  0  0  0  0  0  0  0  0  0  0  0
  146.1853  138.7078  151.4834 H   0  0  0  0  0  0  0  0  0  0  0  0
  147.4002  136.6536  151.9105 H   0  0  0  0  0  0  0  0  0  0  0  0
  145.4660  136.9720  150.1915 H   0  0  0  0  0  0  0  0  0  0  0  0
  146.4262  135.5061  150.3134 H   0  0  0  0  0  0  0  0  0  0  0  0
  144.2652  135.4578  152.3027 H   0  0  0  0  0  0  0  0  0  0  0  0
  143.6018  135.7281  150.7025 H   0  0  0  0  0  0  0  0  0  0  0  0
  142.6193  133.1724  151.1236 H   0  0  0  0  0  0  0  0  0  0  0  0
  143.8217  130.8132  150.4656 H   0  0  0  0  0  0  0  0  0  0  0  0
  146.4800  131.5324  150.1569 H   0  0  0  0  0  0  0  0  0  0  0  0
  146.1675  136.1129  152.8471 H   0  0  0  0  0  0  0  0  0  0  0  0
  1  2  1  0  0  0  0
  1 18  1  0  0  0  0
  1 19  1  0  0  0  0
  1 20  1  0  0  0  0
  2  3  1  0  0  0  0
  2  4  1  0  0  0  0
  2 21  1  0  0  0  0
  3 22  1  0  0  0  0
  3 23  1  0  0  0  0
  3 24  1  0  0  0  0
  4  5  1  0  0  0  0
  4  6  1  0  0  0  0
  4 25  1  0  0  0  0
  5 26  1  0  0  0  0
  5 27  1  0  0  0  0
  5 28  1  0  0  0  0
  6  7  1  0  0  0  0
  6 29  1  0  0  0  0
  7  8  2  0  0  0  0
  7  9  1  0  0  0  0
  9 10  1  0  0  0  0
  9 30  1  0  0  0  0
  9 31  1  0  0  0  0
 10 11  1  0  0  0  0
 10 32  1  0  0  0  0
 10 40  1  0  0  0  0
 11 12  1  0  0  0  0
 11 33  1  0  0  0  0
 11 34  1  0  0  0  0
 12 13  1  0  0  0  0
 12 35  1  0  0  0  0
 12 36  1  0  0  0  0
 13 17  1  0  0  0  0
 13 14  1  0  0  0  0
 14 15  2  0  0  0  0
 14 37  1  0  0  0  0
 15 16  1  0  0  0  0
 15 38  1  0  0  0  0
 16 17  2  0  0  0  0
 16 39  1  0  0  0  0
M  CHG  1  10   1
M  END
> <s_m_source_file>
AV-unprocessed.smi

> <i_m_source_file_index>
3128

> <i_lp_mmshare_version>
43012

> <i_f3d_flags>
0

> <s_epik_input>
W0NIM11bQ0hdKFtDSDNdKVtDQEhdKFtDSDNdKVtOSF1DKD1PKVtDSDJdW05IXVtDSDJdW0NIMl1uMVtjSF1bY0hdW2NIXW4x

> <s_epik_cmdline>
J2VwaWtfcHl0aG9uJywgJy1waCcsICc3LjAnLCAnLXRuJywgJzgnLCAnLW1hJywgJzIwMCcsICctbWV0YWxfYmluZGluZycsICctaW1hZScsICc8aW5maWxlLm1hZT4nLCAnLW9tYWUnLCAnPG91dGZpbGUubWFlPic=

> <r_lp_tautomer_probability>
1

> <r_epik_Ionization_Penalty>
0.20724

> <r_epik_Ionization_Penalty_Charging>
0.207237

> <r_epik_Ionization_Penalty_Neutral>
3.20642e-06

> <r_epik_State_Penalty>
0.197613

> <r_epik_Charging_Adjusted_Penalty>
0.40485

> <i_epik_Tot_Q>
1

> <i_epik_Tot_abs_Q>
1

> <r_epik_Metal_State_Penalty>
0.197789

> <b_epik_Metal_Only>
0

> <s_lp_Force_Field>
OPLS_2005

> <r_lp_Energy>
4.49363

> <b_lp_Chiralities_Consistent>
1

> <s_lp_Variant>
AV-unprocessed.smi:3128-2

> <Gold.Version>
5.8.1

> <Gold.Id.Protein>
6NUR|6NUR_protein|mol2

> <Gold.PLP.Fitness>
44.9487

> <Gold.PLP.PLP>
-32.7428

> <Gold.PLP.part.hbond>
-1.9692

> <Gold.PLP.part.metal>
0.0000

> <Gold.PLP.part.buried>
-4.2920

> <Gold.PLP.part.nonpolar>
-28.0327

> <Gold.PLP.part.repulsive>
0.3824

> <Gold.PLP.ligand.clash>
0.0000

> <Gold.PLP.ligand.torsion>
1.1856

> <Gold.PLP.Chemscore.Hbond>
2.8000

> <Gold.PLP.Chemscore.CHOScore>
2.0000

> <Gold.PLP.Chemscore.Metal>
0.0000

> <Gold.Chemscore.Hbonds>
donor molecule, donor type, donor heavy atom, donor atom, acceptor molecule, acceptor atom, score
      L1  H     6    29       P1  7957  0.77
      L1  H    10    32       P1  7948  2.00
      L1  C    14    37       P1 10186  0.83
      L1  C    16    39       P1 10747  0.88

> <Gold.PLP.Chemscore.Internal.Correction>
0.1770

> <Gold.Rescore>
     Score         DG    S(hbond)    S(metal)    S(lipo)     H(rot)  DE(clash)    DE(int)     intcor
     13.08     -15.29       1.84        0.00      80.33       2.24       0.08       2.13       ----

> <Gold.Chemscore.Fitness>
13.0802

> <Gold.Chemscore.DG>
-15.2899

> <Gold.Chemscore.ZeroCoef>
-5.4800

> <Gold.Chemscore.Hbond>
1.8414

> <Gold.Chemscore.Metal>
0.0000

> <Gold.Chemscore.Lipo>
80.3260

> <Gold.Chemscore.Internal_Hbond>
0.0000

> <Gold.Chemscore.DEClash>
0.0845

> <Gold.Chemscore.DEInternal>
2.1251

> <Gold.Chemscore.Rot>
2.2416

> <Gold.Chemscore.Internal.Correction>
   9.000000E+99

> <Gold.Chemscore.Hbonds>
donor molecule, donor type, donor heavy atom, donor atom, acceptor molecule, acceptor atom, score
      L1  H     6    29       P1  7957  0.76
      L1  H    10    32       P1  7948  0.98

> <Gold.Chemscore.Hbond.Weighted>
-6.1502

> <Gold.Chemscore.Metal.Weighted>
-0.0000

> <Gold.Chemscore.Lipo.Weighted>
-9.3981

> <Gold.Chemscore.Internal_Hbond.Weighted>
0.0000

> <Gold.Chemscore.DEClash.Weighted>
0.0845

> <Gold.Chemscore.DEInternal.Weighted>
2.1251

> <Gold.Chemscore.Rot.Weighted>
5.7385

> <Gold.Chemscore.Internal.Correction.Weighted>
   9.000000E+99

> <Gold.Protein.RotatedTorsions>
[ 6907 6896 6895 6894 ] final  154.41 input  -60.11 | X-H torsion
[ 7974 7965 7964 7962 ] final   53.14 input  175.53 | X-H torsion
[ 8008 7997 7996 7995 ] final   14.84 input   59.86 | X-H torsion
[ 10167 10162 10161 10158 ] final   79.28 input  -65.29 | X-H torsion
[ 10718 10713 10712 10709 ] final  -58.27 input   66.30 | X-H torsion
[ 10763 10752 10751 10750 ] final  134.59 input  -60.55 | X-H torsion
[ 11005 11000 10999 10996 ] final  -98.70 input  -57.11 | X-H torsion

> <Gold.Protein.ActiveResidues>
 VAL166  LYS551  ARG553  GLY616  TRP617  ASP618  TYR619  PRO620  LYS621  CYS622 
 ASP623  PHE694  ASN695  SER759  ASP760  ASP761  ALA762  ILE779  LEU786  VAL792 
 PHE793  MET794  SER795  GLU796  ALA797  LYS798  CYS799  TRP800  GLU811  SER814 

> <Gold.Protein.RotatedAtoms>
  152.0589  133.4053  159.4408 H   0  0  0  0  0  0  0  0  0  0  0  0  # atno 6907 bound_to 6896
  150.6867  134.3223  159.4801 H   0  0  0  0  0  0  0  0  0  0  0  0  # atno 6908 bound_to 6896
  152.1042  134.9320  160.0619 H   0  0  0  0  0  0  0  0  0  0  0  0  # atno 6909 bound_to 6896
  145.9742  139.4179  143.0171 H   0  0  0  0  0  0  0  0  0  0  0  0  # atno 7974 bound_to 7965
  154.8541  140.2934  155.5580 H   0  0  0  0  0  0  0  0  0  0  0  0  # atno 8008 bound_to 7997
  156.3017  140.2490  156.3437 H   0  0  0  0  0  0  0  0  0  0  0  0  # atno 8009 bound_to 7997
  154.8989  140.0392  157.1871 H   0  0  0  0  0  0  0  0  0  0  0  0  # atno 8010 bound_to 7997
  139.9620  144.5954  150.8063 H   0  0  0  0  0  0  0  0  0  0  0  0  # atno 10167 bound_to 10162
  156.1147  130.4171  150.0554 H   0  0  0  0  0  0  0  0  0  0  0  0  # atno 10718 bound_to 10713
  153.8260  135.3110  155.3414 H   0  0  0  0  0  0  0  0  0  0  0  0  # atno 10763 bound_to 10752
  154.7993  135.4736  154.0239 H   0  0  0  0  0  0  0  0  0  0  0  0  # atno 10764 bound_to 10752
  153.1664  135.6870  153.8760 H   0  0  0  0  0  0  0  0  0  0  0  0  # atno 10765 bound_to 10752
  141.1335  133.8265  157.0874 H   0  0  0  0  0  0  0  0  0  0  0  0  # atno 11005 bound_to 11000
  145.7862  140.9834  143.1073 LP  0  0  0  0  0  0  0  0  0  0  0  0  # atno 17320 bound_to 7965
  144.6844  139.9626  143.7480 LP  0  0  0  0  0  0  0  0  0  0  0  0  # atno 17321 bound_to 7965
  140.7550  143.3038  151.3014 LP  0  0  0  0  0  0  0  0  0  0  0  0  # atno 17342 bound_to 10162
  139.6547  144.0298  152.2651 LP  0  0  0  0  0  0  0  0  0  0  0  0  # atno 17343 bound_to 10162
  156.8508  130.9458  151.3625 LP  0  0  0  0  0  0  0  0  0  0  0  0  # atno 17370 bound_to 10713
  157.6330  130.8744  149.9309 LP  0  0  0  0  0  0  0  0  0  0  0  0  # atno 17371 bound_to 10713
  140.0414  134.9852  157.0968 LP  0  0  0  0  0  0  0  0  0  0  0  0  # atno 17394 bound_to 11000
  140.4130  134.1961  155.7163 LP  0  0  0  0  0  0  0  0  0  0  0  0  # atno 17395 bound_to 11000

$$$$
