AV-unprocessed.smi:752|AV-procd|sdf|3598|dock10
  -GOLD-   22720 0593D 1   1.00000     0.00000
 Structure written by MMmdl.
 41 42  0  0  0  0  0  0  0  0  1 V2000
  154.1631  136.5152  163.9373 C   0  0  0  0  0  0  0  0  0  0  0  0
  155.2615  137.2107  163.1263 C   0  0  0  0  0  0  0  0  0  0  0  0
  154.7207  137.9684  161.9605 C   0  0  0  0  0  0  0  0  0  0  0  0
  153.9210  137.4278  161.0377 N   0  0  0  0  0  0  0  0  0  0  0  0
  153.5536  138.3391  160.0413 C   0  0  0  0  0  0  0  0  0  0  0  0
  152.6004  137.9232  158.9572 C   0  0  0  0  0  0  0  0  0  0  0  0
  152.5073  139.0428  157.9208 C   0  0  0  0  0  0  0  0  0  0  0  0
  153.1609  138.9781  156.8799 O   0  0  0  0  0  0  0  0  0  0  0  0
  151.7302  140.0874  158.2460 N   0  0  0  0  0  0  0  0  0  0  0  0
  151.7160  141.3670  157.5480 C   0  0  0  0  0  0  0  0  0  0  0  0
  151.4468  142.5355  158.5210 C   0  0  1  0  0  0  0  0  0  0  0  0
  152.4763  142.5602  159.6664 C   0  0  0  0  0  0  0  0  0  0  0  0
  152.1845  143.6969  160.6587 C   0  0  0  0  0  0  0  0  0  0  0  0
  152.1445  145.0630  159.9532 C   0  0  0  0  0  0  0  0  0  0  0  0
  151.1595  145.0783  158.7695 C   0  0  2  0  0  0  0  0  0  0  0  0
  149.8266  145.0344  159.2405 O   0  0  0  0  0  0  0  0  0  0  0  0
  151.4141  143.9065  157.8032 C   0  0  0  0  0  0  0  0  0  0  0  0
  154.1223  139.5780  160.2078 C   0  0  0  0  0  0  0  0  0  0  0  0
  155.1192  139.6506  161.6339 S   0  0  0  0  0  0  0  0  0  0  0  0
  154.5878  135.9713  164.7810 H   0  0  0  0  0  0  0  0  0  0  0  0
  153.6140  135.8010  163.3231 H   0  0  0  0  0  0  0  0  0  0  0  0
  153.4482  137.2374  164.3319 H   0  0  0  0  0  0  0  0  0  0  0  0
  155.8183  137.8973  163.7649 H   0  0  0  0  0  0  0  0  0  0  0  0
  155.9774  136.4742  162.7609 H   0  0  0  0  0  0  0  0  0  0  0  0
  152.9410  137.0063  158.4747 H   0  0  0  0  0  0  0  0  0  0  0  0
  151.6083  137.7153  159.3603 H   0  0  0  0  0  0  0  0  0  0  0  0
  151.2203  140.0403  159.1166 H   0  0  0  0  0  0  0  0  0  0  0  0
  152.6604  141.5150  157.0215 H   0  0  0  0  0  0  0  0  0  0  0  0
  150.9391  141.3297  156.7840 H   0  0  0  0  0  0  0  0  0  0  0  0
  150.4667  142.3688  158.9712 H   0  0  0  0  0  0  0  0  0  0  0  0
  152.4679  141.6064  160.1953 H   0  0  0  0  0  0  0  0  0  0  0  0
  153.4814  142.6789  159.2594 H   0  0  0  0  0  0  0  0  0  0  0  0
  151.2314  143.5117  161.1560 H   0  0  0  0  0  0  0  0  0  0  0  0
  152.9422  143.7077  161.4425 H   0  0  0  0  0  0  0  0  0  0  0  0
  151.8916  145.8476  160.6673 H   0  0  0  0  0  0  0  0  0  0  0  0
  153.1439  145.2984  159.5852 H   0  0  0  0  0  0  0  0  0  0  0  0
  151.2709  146.0171  158.2258 H   0  0  0  0  0  0  0  0  0  0  0  0
  149.2792  145.5158  158.6391 H   0  0  0  0  0  0  0  0  0  0  0  0
  152.3675  144.0652  157.2978 H   0  0  0  0  0  0  0  0  0  0  0  0
  150.6544  143.9179  157.0215 H   0  0  0  0  0  0  0  0  0  0  0  0
  154.0019  140.4540  159.5875 H   0  0  0  0  0  0  0  0  0  0  0  0
  1  2  1  0  0  0  0
  1 20  1  0  0  0  0
  1 21  1  0  0  0  0
  1 22  1  0  0  0  0
  2  3  1  0  0  0  0
  2 23  1  0  0  0  0
  2 24  1  0  0  0  0
  3 19  1  0  0  0  0
  3  4  2  0  0  0  0
  4  5  1  0  0  0  0
  5  6  1  0  0  0  0
  5 18  2  0  0  0  0
  6  7  1  0  0  0  0
  6 25  1  0  0  0  0
  6 26  1  0  0  0  0
  7  8  2  0  0  0  0
  7  9  1  0  0  0  0
  9 10  1  0  0  0  0
  9 27  1  0  0  0  0
 10 11  1  0  0  0  0
 10 28  1  0  0  0  0
 10 29  1  0  0  0  0
 11 17  1  0  0  0  0
 11 12  1  0  0  0  0
 11 30  1  0  0  0  0
 12 13  1  0  0  0  0
 12 31  1  0  0  0  0
 12 32  1  0  0  0  0
 13 14  1  0  0  0  0
 13 33  1  0  0  0  0
 13 34  1  0  0  0  0
 14 15  1  0  0  0  0
 14 35  1  0  0  0  0
 14 36  1  0  0  0  0
 15 16  1  0  0  0  0
 15 17  1  0  0  0  0
 15 37  1  0  0  0  0
 16 38  1  0  0  0  0
 17 39  1  0  0  0  0
 17 40  1  0  0  0  0
 18 19  1  0  0  0  0
 18 41  1  0  0  0  0
M  END
> <s_m_source_file>
AV-unprocessed.smi

> <i_m_source_file_index>
752

> <i_lp_mmshare_version>
43012

> <i_f3d_flags>
0

> <s_epik_input>
W0NIM11bQ0gyXWMxbmMoW2NIXXMxKVtDSDJdQyg9TylbTkhdW0NIMl1bQ0BASF0yW0NIMl1bQ0gyXVtDSDJdW0NAQEhdKFtPSF0pW0NIMl0y

> <s_epik_cmdline>
J2VwaWtfcHl0aG9uJywgJy1waCcsICc3LjAnLCAnLXRuJywgJzgnLCAnLW1hJywgJzIwMCcsICctbWV0YWxfYmluZGluZycsICctaW1hZScsICc8aW5maWxlLm1hZT4nLCAnLW9tYWUnLCAnPG91dGZpbGUubWFlPic=

> <r_lp_tautomer_probability>
1

> <r_epik_Ionization_Penalty>
5.44903e-05

> <r_epik_Ionization_Penalty_Charging>
0

> <r_epik_Ionization_Penalty_Neutral>
5.44903e-05

> <r_epik_State_Penalty>
-0

> <r_epik_Charging_Adjusted_Penalty>
0

> <i_epik_Tot_Q>
0

> <i_epik_Tot_abs_Q>
0

> <r_epik_Metal_State_Penalty>
-0

> <b_epik_Metal_Only>
0

> <s_lp_Force_Field>
OPLS_2005

> <r_lp_Energy>
4.32924

> <b_lp_Chiralities_Consistent>
1

> <s_lp_Variant>
AV-unprocessed.smi:752-4

> <Gold.Version>
5.8.1

> <Gold.Id.Protein>
6NUR|6NUR_protein|mol2

> <Gold.PLP.Fitness>
48.1269

> <Gold.PLP.PLP>
-43.2514

> <Gold.PLP.part.hbond>
-2.0000

> <Gold.PLP.part.metal>
0.0000

> <Gold.PLP.part.buried>
-6.0780

> <Gold.PLP.part.nonpolar>
-34.7377

> <Gold.PLP.part.repulsive>
0.1102

> <Gold.PLP.ligand.clash>
0.0000

> <Gold.PLP.ligand.torsion>
0.5792

> <Gold.PLP.Chemscore.Hbond>
2.0000

> <Gold.PLP.Chemscore.CHOScore>
0.0000

> <Gold.PLP.Chemscore.Metal>
0.0000

> <Gold.Chemscore.Hbonds>
donor molecule, donor type, donor heavy atom, donor atom, acceptor molecule, acceptor atom, score
      L1  H    16    38       P1  8029  1.00
      P1  H  7997  8008       L1     8  1.00

> <Gold.PLP.Chemscore.Internal.Correction>
0.0338

> <Gold.Rescore>
     Score         DG    S(hbond)    S(metal)    S(lipo)     H(rot)  DE(clash)    DE(int)     intcor
     20.98     -21.57       1.96        0.00     127.11       2.08       0.05       0.54       ----

> <Gold.Chemscore.Fitness>
20.9794

> <Gold.Chemscore.DG>
-21.5663

> <Gold.Chemscore.ZeroCoef>
-5.4800

> <Gold.Chemscore.Hbond>
1.9609

> <Gold.Chemscore.Metal>
0.0000

> <Gold.Chemscore.Lipo>
127.1103

> <Gold.Chemscore.Internal_Hbond>
0.0000

> <Gold.Chemscore.DEClash>
0.0507

> <Gold.Chemscore.DEInternal>
0.5363

> <Gold.Chemscore.Rot>
2.0840

> <Gold.Chemscore.Internal.Correction>
   9.000000E+99

> <Gold.Chemscore.Hbonds>
donor molecule, donor type, donor heavy atom, donor atom, acceptor molecule, acceptor atom, score
      L1  H    16    38       P1  8029  0.95
      P1  H  7997  8008       L1     8  0.97

> <Gold.Chemscore.Hbond.Weighted>
-6.5494

> <Gold.Chemscore.Metal.Weighted>
-0.0000

> <Gold.Chemscore.Lipo.Weighted>
-14.8719

> <Gold.Chemscore.Internal_Hbond.Weighted>
0.0000

> <Gold.Chemscore.DEClash.Weighted>
0.0507

> <Gold.Chemscore.DEInternal.Weighted>
0.5363

> <Gold.Chemscore.Rot.Weighted>
5.3350

> <Gold.Chemscore.Internal.Correction.Weighted>
   9.000000E+99

> <Gold.Protein.RotatedTorsions>
[ 6907 6896 6895 6894 ] final   33.80 input  -60.11 | X-H torsion
[ 7974 7965 7964 7962 ] final -174.95 input  175.53 | X-H torsion
[ 8008 7997 7996 7995 ] final  -59.77 input   59.86 | X-H torsion
[ 10167 10162 10161 10158 ] final  141.15 input  -65.29 | X-H torsion
[ 10718 10713 10712 10709 ] final  143.03 input   66.30 | X-H torsion
[ 10763 10752 10751 10750 ] final -174.36 input  -60.55 | X-H torsion
[ 11005 11000 10999 10996 ] final   56.31 input  -57.11 | X-H torsion

> <Gold.Protein.ActiveResidues>
 VAL166  LYS551  ARG553  GLY616  TRP617  ASP618  TYR619  PRO620  LYS621  CYS622 
 ASP623  PHE694  ASN695  SER759  ASP760  ASP761  ALA762  ILE779  LEU786  VAL792 
 PHE793  MET794  SER795  GLU796  ALA797  LYS798  CYS799  TRP800  GLU811  SER814 

> <Gold.Protein.RotatedAtoms>
  152.0935  134.9390  160.0571 H   0  0  0  0  0  0  0  0  0  0  0  0  # atno 6907 bound_to 6896
  152.0633  133.4067  159.4435 H   0  0  0  0  0  0  0  0  0  0  0  0  # atno 6908 bound_to 6896
  150.6837  134.3096  159.4784 H   0  0  0  0  0  0  0  0  0  0  0  0  # atno 6909 bound_to 6896
  144.7130  140.1394  143.6393 H   0  0  0  0  0  0  0  0  0  0  0  0  # atno 7974 bound_to 7965
  154.4368  140.1054  156.6169 H   0  0  0  0  0  0  0  0  0  0  0  0  # atno 8008 bound_to 7997
  155.5749  140.3490  155.4506 H   0  0  0  0  0  0  0  0  0  0  0  0  # atno 8009 bound_to 7997
  156.0362  140.1271  157.0195 H   0  0  0  0  0  0  0  0  0  0  0  0  # atno 8010 bound_to 7997
  139.5028  144.6190  151.6097 H   0  0  0  0  0  0  0  0  0  0  0  0  # atno 10167 bound_to 10162
  157.3737  131.0982  151.0804 H   0  0  0  0  0  0  0  0  0  0  0  0  # atno 10718 bound_to 10713
  154.5971  135.2851  155.0574 H   0  0  0  0  0  0  0  0  0  0  0  0  # atno 10763 bound_to 10752
  154.1853  135.6450  153.5049 H   0  0  0  0  0  0  0  0  0  0  0  0  # atno 10764 bound_to 10752
  153.0143  135.5433  154.6677 H   0  0  0  0  0  0  0  0  0  0  0  0  # atno 10765 bound_to 10752
  140.0539  134.5698  155.9231 H   0  0  0  0  0  0  0  0  0  0  0  0  # atno 11005 bound_to 11000
  145.9216  139.2549  143.1378 LP  0  0  0  0  0  0  0  0  0  0  0  0  # atno 17320 bound_to 7965
  145.9615  140.8832  143.0208 LP  0  0  0  0  0  0  0  0  0  0  0  0  # atno 17321 bound_to 7965
  140.5886  143.9820  150.6310 LP  0  0  0  0  0  0  0  0  0  0  0  0  # atno 17342 bound_to 10162
  140.2993  143.3271  152.0987 LP  0  0  0  0  0  0  0  0  0  0  0  0  # atno 17343 bound_to 10162
  157.1899  130.6347  149.5701 LP  0  0  0  0  0  0  0  0  0  0  0  0  # atno 17370 bound_to 10713
  155.9761  130.4725  150.6503 LP  0  0  0  0  0  0  0  0  0  0  0  0  # atno 17371 bound_to 10713
  141.1943  133.6582  156.5588 LP  0  0  0  0  0  0  0  0  0  0  0  0  # atno 17394 bound_to 11000
  140.3874  134.7470  157.4700 LP  0  0  0  0  0  0  0  0  0  0  0  0  # atno 17395 bound_to 11000

$$$$
