AV-unprocessed.smi:2105|AV-procd|sdf|8591|dock4
  -GOLD-   2272011323D 1   1.00000     0.00000
 Structure written by MMmdl.
 42 43  0  0  0  0  0  0  0  0  1 V2000
  143.6012  132.6315  148.2966 C   0  0  0  0  0  0  0  0  0  0  0  0
  144.2034  132.7670  149.6905 C   0  0  0  0  0  0  0  0  0  0  0  0
  143.8170  132.0363  150.6025 O   0  0  0  0  0  0  0  0  0  0  0  0
  145.1501  133.7061  149.8401 N   0  0  0  0  0  0  0  0  0  0  0  0
  145.8583  133.9866  151.0840 C   0  0  0  0  0  0  0  0  0  0  0  0
  145.3278  135.2583  151.7769 C   0  0  0  0  0  0  0  0  0  0  0  0
  146.4116  136.1313  152.2140 N   0  0  0  0  0  0  0  0  0  0  0  0
  146.2589  137.3358  152.7807 C   0  0  0  0  0  0  0  0  0  0  0  0
  145.1636  137.8240  153.0590 O   0  0  0  0  0  0  0  0  0  0  0  0
  147.4474  137.9319  152.9683 N   0  0  0  0  0  0  0  0  0  0  0  0
  147.7099  139.2441  153.4530 C   0  0  0  0  0  0  0  0  0  0  0  0
  146.8359  140.3347  153.2274 C   0  0  0  0  0  0  0  0  0  0  0  0
  147.1605  141.5942  153.7635 C   0  0  0  0  0  0  0  0  0  0  0  0
  148.3430  141.7168  154.5152 C   0  0  0  0  0  0  0  0  0  0  0  0
  149.1781  140.6846  154.7520 N   0  0  0  0  0  0  0  0  0  0  0  0
  148.8733  139.4707  154.2323 C   0  0  0  0  0  0  0  0  0  0  0  0
  149.7494  138.4059  154.5093 N   0  0  0  0  0  0  0  0  0  0  0  0
  151.1275  138.5464  154.0530 C   0  0  0  0  0  0  0  0  0  0  0  0
  151.9583  137.6911  155.0058 C   0  0  0  0  0  0  0  0  0  0  0  0
  151.2144  137.8544  156.3265 C   0  0  0  0  0  0  0  0  0  0  0  0
  149.7474  137.9639  155.8996 C   0  0  0  0  0  0  0  0  0  0  0  0
  143.2157  133.5908  147.9506 H   0  0  0  0  0  0  0  0  0  0  0  0
  142.7795  131.9147  148.2979 H   0  0  0  0  0  0  0  0  0  0  0  0
  144.3554  132.2851  147.5897 H   0  0  0  0  0  0  0  0  0  0  0  0
  145.4050  134.2581  149.0340 H   0  0  0  0  0  0  0  0  0  0  0  0
  145.8533  133.1200  151.7474 H   0  0  0  0  0  0  0  0  0  0  0  0
  146.9019  134.1476  150.8128 H   0  0  0  0  0  0  0  0  0  0  0  0
  144.6933  135.8128  151.0837 H   0  0  0  0  0  0  0  0  0  0  0  0
  144.6948  135.0075  152.6290 H   0  0  0  0  0  0  0  0  0  0  0  0
  147.3510  135.8173  152.0188 H   0  0  0  0  0  0  0  0  0  0  0  0
  148.2510  137.4393  152.6065 H   0  0  0  0  0  0  0  0  0  0  0  0
  145.9193  140.2243  152.6688 H   0  0  0  0  0  0  0  0  0  0  0  0
  146.5141  142.4450  153.6070 H   0  0  0  0  0  0  0  0  0  0  0  0
  148.6220  142.6675  154.9452 H   0  0  0  0  0  0  0  0  0  0  0  0
  151.2306  138.2083  153.0218 H   0  0  0  0  0  0  0  0  0  0  0  0
  151.4600  139.5840  154.0990 H   0  0  0  0  0  0  0  0  0  0  0  0
  151.9311  136.6469  154.6902 H   0  0  0  0  0  0  0  0  0  0  0  0
  153.0010  138.0045  155.0586 H   0  0  0  0  0  0  0  0  0  0  0  0
  151.3935  137.0342  157.0223 H   0  0  0  0  0  0  0  0  0  0  0  0
  151.5264  138.7815  156.8095 H   0  0  0  0  0  0  0  0  0  0  0  0
  149.1915  138.6347  156.5565 H   0  0  0  0  0  0  0  0  0  0  0  0
  149.2662  136.9863  155.9427 H   0  0  0  0  0  0  0  0  0  0  0  0
  1  2  1  0  0  0  0
  1 22  1  0  0  0  0
  1 23  1  0  0  0  0
  1 24  1  0  0  0  0
  2  3  2  0  0  0  0
  2  4  1  0  0  0  0
  4  5  1  0  0  0  0
  4 25  1  0  0  0  0
  5  6  1  0  0  0  0
  5 26  1  0  0  0  0
  5 27  1  0  0  0  0
  6  7  1  0  0  0  0
  6 28  1  0  0  0  0
  6 29  1  0  0  0  0
  7  8  1  0  0  0  0
  7 30  1  0  0  0  0
  8  9  2  0  0  0  0
  8 10  1  0  0  0  0
 10 11  1  0  0  0  0
 10 31  1  0  0  0  0
 11 16  1  0  0  0  0
 11 12  2  0  0  0  0
 12 13  1  0  0  0  0
 12 32  1  0  0  0  0
 13 14  2  0  0  0  0
 13 33  1  0  0  0  0
 14 15  1  0  0  0  0
 14 34  1  0  0  0  0
 15 16  2  0  0  0  0
 16 17  1  0  0  0  0
 17 21  1  0  0  0  0
 17 18  1  0  0  0  0
 18 19  1  0  0  0  0
 18 35  1  0  0  0  0
 18 36  1  0  0  0  0
 19 20  1  0  0  0  0
 19 37  1  0  0  0  0
 19 38  1  0  0  0  0
 20 21  1  0  0  0  0
 20 39  1  0  0  0  0
 20 40  1  0  0  0  0
 21 41  1  0  0  0  0
 21 42  1  0  0  0  0
M  END
> <s_m_source_file>
AV-unprocessed.smi

> <i_m_source_file_index>
2105

> <i_lp_mmshare_version>
43012

> <i_f3d_flags>
0

> <s_epik_input>
W0NIM11DKD1PKVtOSF1bQ0gyXVtDSDJdW05IXUMoPU8pW05IXWMxW2NIXVtjSF1bY0hdbmMxTjJbQ0gyXVtDSDJdW0NIMl1bQ0gyXTI=

> <s_epik_cmdline>
J2VwaWtfcHl0aG9uJywgJy1waCcsICc3LjAnLCAnLXRuJywgJzgnLCAnLW1hJywgJzIwMCcsICctbWV0YWxfYmluZGluZycsICctaW1hZScsICc8aW5maWxlLm1hZT4nLCAnLW9tYWUnLCAnPG91dGZpbGUubWFlPic=

> <r_lp_tautomer_probability>
1

> <r_epik_Ionization_Penalty>
0.0963551

> <r_epik_Ionization_Penalty_Charging>
0

> <r_epik_Ionization_Penalty_Neutral>
0.0963551

> <r_epik_State_Penalty>
0.0859578

> <r_epik_Charging_Adjusted_Penalty>
0.0859578

> <i_epik_Tot_Q>
0

> <i_epik_Tot_abs_Q>
0

> <r_epik_Metal_State_Penalty>
0.0739032

> <b_epik_Metal_Only>
0

> <s_lp_Force_Field>
OPLS_2005

> <r_lp_Energy>
32.5144

> <b_lp_Chiralities_Consistent>
1

> <s_lp_Variant>
AV-unprocessed.smi:2105-1

> <Gold.Version>
5.8.1

> <Gold.Id.Protein>
6NUR|6NUR_protein|mol2

> <Gold.PLP.Fitness>
43.3886

> <Gold.PLP.PLP>
-32.9026

> <Gold.PLP.part.hbond>
-3.0000

> <Gold.PLP.part.metal>
0.0000

> <Gold.PLP.part.buried>
-4.2180

> <Gold.PLP.part.nonpolar>
-27.7477

> <Gold.PLP.part.repulsive>
1.5251

> <Gold.PLP.ligand.clash>
0.0000

> <Gold.PLP.ligand.torsion>
0.7560

> <Gold.PLP.Chemscore.Hbond>
2.9600

> <Gold.PLP.Chemscore.CHOScore>
1.0000

> <Gold.PLP.Chemscore.Metal>
0.0000

> <Gold.Chemscore.Hbonds>
donor molecule, donor type, donor heavy atom, donor atom, acceptor molecule, acceptor atom, score
      L1  H     4    25       P1  7921  1.00
      L1  H     7    30       P1  7948  0.96
      L1  H    10    31       P1  7948  1.00
      L1  C    14    34       P1  8028  1.00

> <Gold.PLP.Chemscore.Internal.Correction>
0.1181

> <Gold.Rescore>
     Score         DG    S(hbond)    S(metal)    S(lipo)     H(rot)  DE(clash)    DE(int)     intcor
     17.34     -18.85       2.89        0.00      74.20       1.94       0.02       1.49       ----

> <Gold.Chemscore.Fitness>
17.3385

> <Gold.Chemscore.DG>
-18.8518

> <Gold.Chemscore.ZeroCoef>
-5.4800

> <Gold.Chemscore.Hbond>
2.8939

> <Gold.Chemscore.Metal>
0.0000

> <Gold.Chemscore.Lipo>
74.2047

> <Gold.Chemscore.Internal_Hbond>
0.0000

> <Gold.Chemscore.DEClash>
0.0213

> <Gold.Chemscore.DEInternal>
1.4921

> <Gold.Chemscore.Rot>
1.9437

> <Gold.Chemscore.Internal.Correction>
   9.000000E+99

> <Gold.Chemscore.Hbonds>
donor molecule, donor type, donor heavy atom, donor atom, acceptor molecule, acceptor atom, score
      L1  H     4    25       P1  7921  0.96
      L1  H     7    30       P1  7948  0.92
      L1  H    10    31       P1  7948  0.94

> <Gold.Chemscore.Hbond.Weighted>
-9.6657

> <Gold.Chemscore.Metal.Weighted>
-0.0000

> <Gold.Chemscore.Lipo.Weighted>
-8.6819

> <Gold.Chemscore.Internal_Hbond.Weighted>
0.0000

> <Gold.Chemscore.DEClash.Weighted>
0.0213

> <Gold.Chemscore.DEInternal.Weighted>
1.4921

> <Gold.Chemscore.Rot.Weighted>
4.9759

> <Gold.Chemscore.Internal.Correction.Weighted>
   9.000000E+99

> <Gold.Protein.RotatedTorsions>
[ 6907 6896 6895 6894 ] final  -59.29 input  -60.11 | X-H torsion
[ 7974 7965 7964 7962 ] final  -78.71 input  175.53 | X-H torsion
[ 8008 7997 7996 7995 ] final  144.88 input   59.86 | X-H torsion
[ 10167 10162 10161 10158 ] final  126.29 input  -65.29 | X-H torsion
[ 10718 10713 10712 10709 ] final  130.85 input   66.30 | X-H torsion
[ 10763 10752 10751 10750 ] final  -77.65 input  -60.55 | X-H torsion
[ 11005 11000 10999 10996 ] final -105.61 input  -57.11 | X-H torsion

> <Gold.Protein.ActiveResidues>
 VAL166  LYS551  ARG553  GLY616  TRP617  ASP618  TYR619  PRO620  LYS621  CYS622 
 ASP623  PHE694  ASN695  SER759  ASP760  ASP761  ALA762  ILE779  LEU786  VAL792 
 PHE793  MET794  SER795  GLU796  ALA797  LYS798  CYS799  TRP800  GLU811  SER814 

> <Gold.Protein.RotatedAtoms>
  150.7941  134.6987  159.6537 H   0  0  0  0  0  0  0  0  0  0  0  0  # atno 6907 bound_to 6896
  152.4051  134.6217  160.0062 H   0  0  0  0  0  0  0  0  0  0  0  0  # atno 6908 bound_to 6896
  151.6477  133.3285  159.3181 H   0  0  0  0  0  0  0  0  0  0  0  0  # atno 6909 bound_to 6896
  145.5829  140.9445  143.1334 H   0  0  0  0  0  0  0  0  0  0  0  0  # atno 7974 bound_to 7965
  156.2897  140.2224  156.5125 H   0  0  0  0  0  0  0  0  0  0  0  0  # atno 8008 bound_to 7997
  154.7597  140.0474  157.0984 H   0  0  0  0  0  0  0  0  0  0  0  0  # atno 8009 bound_to 7997
  155.0007  140.3101  155.4872 H   0  0  0  0  0  0  0  0  0  0  0  0  # atno 8010 bound_to 7997
  139.5639  144.6899  151.3965 H   0  0  0  0  0  0  0  0  0  0  0  0  # atno 10167 bound_to 10162
  157.5023  131.1094  150.9409 H   0  0  0  0  0  0  0  0  0  0  0  0  # atno 10718 bound_to 10713
  154.5157  135.5756  153.6640 H   0  0  0  0  0  0  0  0  0  0  0  0  # atno 10763 bound_to 10752
  152.9906  135.6169  154.2820 H   0  0  0  0  0  0  0  0  0  0  0  0  # atno 10764 bound_to 10752
  154.2738  135.2852  155.2706 H   0  0  0  0  0  0  0  0  0  0  0  0  # atno 10765 bound_to 10752
  141.1045  133.8823  157.1756 H   0  0  0  0  0  0  0  0  0  0  0  0  # atno 11005 bound_to 11000
  144.7386  139.7514  143.7320 LP  0  0  0  0  0  0  0  0  0  0  0  0  # atno 17320 bound_to 7965
  146.1703  139.4851  142.9932 LP  0  0  0  0  0  0  0  0  0  0  0  0  # atno 17321 bound_to 7965
  140.6921  143.7836  150.7271 LP  0  0  0  0  0  0  0  0  0  0  0  0  # atno 17342 bound_to 10162
  140.1322  143.4516  152.2247 LP  0  0  0  0  0  0  0  0  0  0  0  0  # atno 17343 bound_to 10162
  157.0076  130.5624  149.5317 LP  0  0  0  0  0  0  0  0  0  0  0  0  # atno 17370 bound_to 10713
  156.0237  130.5331  150.8347 LP  0  0  0  0  0  0  0  0  0  0  0  0  # atno 17371 bound_to 10713
  139.9909  135.0065  156.9973 LP  0  0  0  0  0  0  0  0  0  0  0  0  # atno 17394 bound_to 11000
  140.4938  134.1166  155.7237 LP  0  0  0  0  0  0  0  0  0  0  0  0  # atno 17395 bound_to 11000

$$$$
