AV-unprocessed.smi:33|AV-procd|sdf|205|dock6
  -GOLD-   2262015493D 1   1.00000     0.00000
 Structure written by MMmdl.
 67 72  0  0  0  0  0  0  0  0  1 V2000
  157.1915  134.8060  154.7506 O   0  0  0  0  0  0  0  0  0  0  0  0
  158.3642  134.4329  154.6805 C   0  0  0  0  0  0  0  0  0  0  0  0
  159.0536  133.9384  155.7266 O   0  0  0  0  0  0  0  0  0  0  0  0
  158.6499  134.2382  157.0530 C   0  0  0  0  0  0  0  0  0  0  0  0
  157.3436  133.4932  157.3686 C   0  0  2  0  0  0  0  0  0  0  0  0
  156.2573  134.3573  157.0354 O   0  0  0  0  0  0  0  0  0  0  0  0
  155.4232  134.5569  158.1379 C   0  0  2  0  0  0  0  0  0  0  0  0
  154.8442  135.9414  158.0957 N   0  0  0  0  0  0  0  0  0  0  0  0
  154.9054  136.8569  157.0649 C   0  0  0  0  0  0  0  0  0  0  0  0
  154.3649  138.0197  157.3098 N   0  0  0  0  0  0  0  0  0  0  0  0
  153.9265  137.9137  158.6222 C   0  0  0  0  0  0  0  0  0  0  0  0
  153.2781  138.8034  159.5209 C   0  0  0  0  0  0  0  0  0  0  0  0
  152.9352  140.0695  159.1854 N   0  0  0  0  0  0  0  0  0  0  0  0
  153.5975  141.1613  159.9152 C   0  0  0  0  0  0  0  0  0  0  0  0
  154.7049  140.9689  160.4212 O   0  0  0  0  0  0  0  0  0  0  0  0
  152.9628  142.5206  159.9989 C   0  0  0  0  0  0  0  0  0  0  0  0
  152.9828  143.3787  158.8775 C   0  0  0  0  0  0  0  0  0  0  0  0
  152.4039  144.6602  158.9533 C   0  0  0  0  0  0  0  0  0  0  0  0
  151.8176  145.0991  160.1557 C   0  0  0  0  0  0  0  0  0  0  0  0
  151.8188  144.2595  161.2859 C   0  0  0  0  0  0  0  0  0  0  0  0
  152.3977  142.9780  161.2110 C   0  0  0  0  0  0  0  0  0  0  0  0
  151.9276  140.2346  158.1277 C   0  0  0  0  0  0  0  0  0  0  0  0
  151.8991  141.2770  157.4711 O   0  0  0  0  0  0  0  0  0  0  0  0
  150.9656  139.1240  157.8142 C   0  0  0  0  0  0  0  0  0  0  0  0
  150.6456  138.8225  156.4722 C   0  0  0  0  0  0  0  0  0  0  0  0
  149.7374  137.7878  156.1744 C   0  0  0  0  0  0  0  0  0  0  0  0
  149.1279  137.0630  157.2163 C   0  0  0  0  0  0  0  0  0  0  0  0
  149.4195  137.3790  158.5569 C   0  0  0  0  0  0  0  0  0  0  0  0
  150.3296  138.4111  158.8556 C   0  0  0  0  0  0  0  0  0  0  0  0
  153.0081  138.3590  160.7754 N   0  0  0  0  0  0  0  0  0  0  0  0
  153.3567  137.1189  161.1287 C   0  0  0  0  0  0  0  0  0  0  0  0
  153.9665  136.1832  160.3978 N   0  0  0  0  0  0  0  0  0  0  0  0
  154.2330  136.6214  159.1320 C   0  0  0  0  0  0  0  0  0  0  0  0
  156.2887  134.2886  159.3763 C   0  0  2  0  0  0  0  0  0  0  0  0
  157.0746  135.4048  159.7590 O   0  0  0  0  0  0  0  0  0  0  0  0
  157.1383  133.1480  158.8500 C   0  0  2  0  0  0  0  0  0  0  0  0
  158.2555  132.9465  159.5514 F   0  0  0  0  0  0  0  0  0  0  0  0
  159.1709  134.4830  153.4270 C   0  0  0  0  0  0  0  0  0  0  0  0
  158.6662  133.8770  152.2529 C   0  0  0  0  0  0  0  0  0  0  0  0
  159.4058  133.9084  151.0546 C   0  0  0  0  0  0  0  0  0  0  0  0
  160.6596  134.5454  151.0160 C   0  0  0  0  0  0  0  0  0  0  0  0
  161.1731  135.1515  152.1773 C   0  0  0  0  0  0  0  0  0  0  0  0
  160.4346  135.1219  153.3763 C   0  0  0  0  0  0  0  0  0  0  0  0
  159.4298  133.9753  157.7683 H   0  0  0  0  0  0  0  0  0  0  0  0
  158.4890  135.3143  157.1290 H   0  0  0  0  0  0  0  0  0  0  0  0
  157.2768  132.5943  156.7545 H   0  0  0  0  0  0  0  0  0  0  0  0
  154.5602  133.8926  158.0726 H   0  0  0  0  0  0  0  0  0  0  0  0
  155.3659  136.6339  156.1133 H   0  0  0  0  0  0  0  0  0  0  0  0
  153.4303  143.0525  157.9496 H   0  0  0  0  0  0  0  0  0  0  0  0
  152.4110  145.3070  158.0884 H   0  0  0  0  0  0  0  0  0  0  0  0
  151.3737  146.0820  160.2131 H   0  0  0  0  0  0  0  0  0  0  0  0
  151.3767  144.5987  162.2112 H   0  0  0  0  0  0  0  0  0  0  0  0
  152.3970  142.3448  162.0866 H   0  0  0  0  0  0  0  0  0  0  0  0
  151.1085  139.3716  155.6648 H   0  0  0  0  0  0  0  0  0  0  0  0
  149.5079  137.5503  155.1461 H   0  0  0  0  0  0  0  0  0  0  0  0
  148.4319  136.2696  156.9872 H   0  0  0  0  0  0  0  0  0  0  0  0
  148.9445  136.8305  159.3569 H   0  0  0  0  0  0  0  0  0  0  0  0
  150.5431  138.6480  159.8882 H   0  0  0  0  0  0  0  0  0  0  0  0
  153.1150  136.8362  162.1424 H   0  0  0  0  0  0  0  0  0  0  0  0
  155.6632  133.9864  160.2168 H   0  0  0  0  0  0  0  0  0  0  0  0
  157.9460  135.2916  159.4109 H   0  0  0  0  0  0  0  0  0  0  0  0
  156.5659  132.2219  158.9187 H   0  0  0  0  0  0  0  0  0  0  0  0
  157.7056  133.3820  152.2578 H   0  0  0  0  0  0  0  0  0  0  0  0
  159.0095  133.4429  150.1643 H   0  0  0  0  0  0  0  0  0  0  0  0
  161.2268  134.5691  150.0972 H   0  0  0  0  0  0  0  0  0  0  0  0
  162.1357  135.6405  152.1491 H   0  0  0  0  0  0  0  0  0  0  0  0
  160.8583  135.5967  154.2491 H   0  0  0  0  0  0  0  0  0  0  0  0
  1  2  2  0  0  0  0
  2  3  1  0  0  0  0
  2 38  1  0  0  0  0
  3  4  1  0  0  0  0
  4  5  1  0  0  0  0
  4 44  1  0  0  0  0
  4 45  1  0  0  0  0
  5 36  1  0  0  0  0
  5  6  1  0  0  0  0
  5 46  1  0  0  0  0
  6  7  1  0  0  0  0
  7  8  1  0  0  0  0
  7 34  1  0  0  0  0
  7 47  1  0  0  0  0
  8 33  1  0  0  0  0
  8  9  1  0  0  0  0
  9 10  2  0  0  0  0
  9 48  1  0  0  0  0
 10 11  1  0  0  0  0
 11 33  2  0  0  0  0
 11 12  1  0  0  0  0
 12 13  1  0  0  0  0
 12 30  2  0  0  0  0
 13 14  1  0  0  0  0
 13 22  1  0  0  0  0
 14 15  2  0  0  0  0
 14 16  1  0  0  0  0
 16 21  1  0  0  0  0
 16 17  2  0  0  0  0
 17 18  1  0  0  0  0
 17 49  1  0  0  0  0
 18 19  2  0  0  0  0
 18 50  1  0  0  0  0
 19 20  1  0  0  0  0
 19 51  1  0  0  0  0
 20 21  2  0  0  0  0
 20 52  1  0  0  0  0
 21 53  1  0  0  0  0
 22 23  2  0  0  0  0
 22 24  1  0  0  0  0
 24 29  1  0  0  0  0
 24 25  2  0  0  0  0
 25 26  1  0  0  0  0
 25 54  1  0  0  0  0
 26 27  2  0  0  0  0
 26 55  1  0  0  0  0
 27 28  1  0  0  0  0
 27 56  1  0  0  0  0
 28 29  2  0  0  0  0
 28 57  1  0  0  0  0
 29 58  1  0  0  0  0
 30 31  1  0  0  0  0
 31 32  2  0  0  0  0
 31 59  1  0  0  0  0
 32 33  1  0  0  0  0
 34 35  1  0  0  0  0
 34 36  1  0  0  0  0
 34 60  1  0  0  0  0
 35 61  1  0  0  0  0
 36 37  1  0  0  0  0
 36 62  1  0  0  0  0
 38 43  1  0  0  0  0
 38 39  2  0  0  0  0
 39 40  1  0  0  0  0
 39 63  1  0  0  0  0
 40 41  2  0  0  0  0
 40 64  1  0  0  0  0
 41 42  1  0  0  0  0
 41 65  1  0  0  0  0
 42 43  2  0  0  0  0
 42 66  1  0  0  0  0
 43 67  1  0  0  0  0
M  END
> <s_m_source_file>
AV-unprocessed.smi

> <i_m_source_file_index>
33

> <i_lp_mmshare_version>
43012

> <i_f3d_flags>
0

> <s_epik_input>
W2NIXTFbY0hdW2NIXVtjSF1bY0hdYzFDKD1PKU9bQ0gyXVtDQEBIXTJPW0NASF0oW0NAQEhdKFtPSF0pW0NAQEhdMkYpbihbY0hdbjMpYyhjMzQpbltjSF1uYzROKEMoPU8pYzVbY0hdW2NIXVtjSF1bY0hdW2NIXTUpQyg9TyljNltjSF1bY0hdW2NIXVtjSF1bY0hdNg==

> <s_epik_cmdline>
J2VwaWtfcHl0aG9uJywgJy1waCcsICc3LjAnLCAnLXRuJywgJzgnLCAnLW1hJywgJzIwMCcsICctbWV0YWxfYmluZGluZycsICctaW1hZScsICc8aW5maWxlLm1hZT4nLCAnLW9tYWUnLCAnPG91dGZpbGUubWFlPic=

> <r_lp_tautomer_probability>
1

> <r_epik_Ionization_Penalty>
0.00067664

> <r_epik_Ionization_Penalty_Charging>
0

> <r_epik_Ionization_Penalty_Neutral>
0.00067664

> <r_epik_State_Penalty>
0.000428095

> <r_epik_Charging_Adjusted_Penalty>
0.000428095

> <i_epik_Tot_Q>
0

> <i_epik_Tot_abs_Q>
0

> <r_epik_Metal_State_Penalty>
-0

> <b_epik_Metal_Only>
0

> <s_epik_Chemistry_Notes>
This compound has an ester and may undergo hydrolysis at high or low pH. This compound contains an acetal/aminal-like group ( X-CH(R)-Y where X, Y are N, S, or O) that may be acid/base labile, releasing an aldehyde.

> <s_lp_Force_Field>
OPLS_2005

> <r_lp_Energy>
85.1188

> <b_lp_Chiralities_Consistent>
1

> <s_lp_Variant>
AV-unprocessed.smi:33-7

> <Gold.Version>
5.8.1

> <Gold.Id.Protein>
6NUR|6NUR_protein|mol2

> <Gold.PLP.Fitness>
55.0479

> <Gold.PLP.PLP>
-59.0006

> <Gold.PLP.part.hbond>
-1.4184

> <Gold.PLP.part.metal>
0.0000

> <Gold.PLP.part.buried>
-6.3009

> <Gold.PLP.part.nonpolar>
-52.0574

> <Gold.PLP.part.repulsive>
0.0000

> <Gold.PLP.ligand.clash>
0.0000

> <Gold.PLP.ligand.torsion>
5.7123

> <Gold.PLP.Chemscore.Hbond>
1.1279

> <Gold.PLP.Chemscore.CHOScore>
0.0000

> <Gold.PLP.Chemscore.Metal>
0.0000

> <Gold.Chemscore.Hbonds>
donor molecule, donor type, donor heavy atom, donor atom, acceptor molecule, acceptor atom, score
      P1  H  6896  6907       L1    32  0.70
      P1  H  7997  8010       L1    10  0.59

> <Gold.PLP.Chemscore.Internal.Correction>
4.0882

> <Gold.Rescore>
     Score         DG    S(hbond)    S(metal)    S(lipo)     H(rot)  DE(clash)    DE(int)     intcor
      7.64     -19.08       0.34        0.00     161.68       2.52       0.23      11.21       ----

> <Gold.Chemscore.Fitness>
7.6394

> <Gold.Chemscore.DG>
-19.0759

> <Gold.Chemscore.ZeroCoef>
-5.4800

> <Gold.Chemscore.Hbond>
0.3421

> <Gold.Chemscore.Metal>
0.0000

> <Gold.Chemscore.Lipo>
161.6807

> <Gold.Chemscore.Internal_Hbond>
0.0000

> <Gold.Chemscore.DEClash>
0.2298

> <Gold.Chemscore.DEInternal>
11.2067

> <Gold.Chemscore.Rot>
2.5247

> <Gold.Chemscore.Internal.Correction>
   9.000000E+99

> <Gold.Chemscore.Hbonds>
donor molecule, donor type, donor heavy atom, donor atom, acceptor molecule, acceptor atom, score
      P1  H  6896  6907       L1    32  0.08
      P1  H  7997  8010       L1    10  0.26

> <Gold.Chemscore.Hbond.Weighted>
-1.1426

> <Gold.Chemscore.Metal.Weighted>
-0.0000

> <Gold.Chemscore.Lipo.Weighted>
-18.9166

> <Gold.Chemscore.Internal_Hbond.Weighted>
0.0000

> <Gold.Chemscore.DEClash.Weighted>
0.2298

> <Gold.Chemscore.DEInternal.Weighted>
11.2067

> <Gold.Chemscore.Rot.Weighted>
6.4633

> <Gold.Chemscore.Internal.Correction.Weighted>
   9.000000E+99

> <Gold.Protein.RotatedTorsions>
[ 6907 6896 6895 6894 ] final   51.57 input  -60.11 | X-H torsion
[ 7974 7965 7964 7962 ] final  -28.72 input  175.53 | X-H torsion
[ 8008 7997 7996 7995 ] final   26.74 input   59.86 | X-H torsion
[ 10167 10162 10161 10158 ] final   41.59 input  -65.29 | X-H torsion
[ 10718 10713 10712 10709 ] final   96.96 input   66.30 | X-H torsion
[ 10763 10752 10751 10750 ] final  -54.37 input  -60.55 | X-H torsion
[ 11005 11000 10999 10996 ] final   55.11 input  -57.11 | X-H torsion

> <Gold.Protein.ActiveResidues>
 VAL166  LYS551  ARG553  GLY616  TRP617  ASP618  TYR619  PRO620  LYS621  CYS622 
 ASP623  PHE694  ASN695  SER759  ASP760  ASP761  ALA762  ILE779  LEU786  VAL792 
 PHE793  MET794  SER795  GLU796  ALA797  LYS798  CYS799  TRP800  GLU811  SER814 

> <Gold.Protein.RotatedAtoms>
  152.3140  134.7462  160.0329 H   0  0  0  0  0  0  0  0  0  0  0  0  # atno 6907 bound_to 6896
  151.7933  133.3356  159.3513 H   0  0  0  0  0  0  0  0  0  0  0  0  # atno 6908 bound_to 6896
  150.7335  134.5752  159.5955 H   0  0  0  0  0  0  0  0  0  0  0  0  # atno 6909 bound_to 6896
  146.1268  140.5319  142.8711 H   0  0  0  0  0  0  0  0  0  0  0  0  # atno 7974 bound_to 7965
  155.0320  140.3159  155.4755 H   0  0  0  0  0  0  0  0  0  0  0  0  # atno 8008 bound_to 7997
  156.2872  140.2178  156.5384 H   0  0  0  0  0  0  0  0  0  0  0  0  # atno 8009 bound_to 7997
  154.7362  140.0477  157.0758 H   0  0  0  0  0  0  0  0  0  0  0  0  # atno 8010 bound_to 7997
  140.3628  144.2206  150.6137 H   0  0  0  0  0  0  0  0  0  0  0  0  # atno 10167 bound_to 10162
  157.6919  131.0594  150.4571 H   0  0  0  0  0  0  0  0  0  0  0  0  # atno 10718 bound_to 10713
  154.1738  135.6455  153.5016 H   0  0  0  0  0  0  0  0  0  0  0  0  # atno 10763 bound_to 10752
  153.0077  135.5389  154.6585 H   0  0  0  0  0  0  0  0  0  0  0  0  # atno 10764 bound_to 10752
  154.5931  135.2936  155.0586 H   0  0  0  0  0  0  0  0  0  0  0  0  # atno 10765 bound_to 10752
  140.0632  134.5572  155.9128 H   0  0  0  0  0  0  0  0  0  0  0  0  # atno 11005 bound_to 11000
  144.7650  140.5510  143.6709 LP  0  0  0  0  0  0  0  0  0  0  0  0  # atno 17320 bound_to 7965
  145.5348  139.1475  143.3480 LP  0  0  0  0  0  0  0  0  0  0  0  0  # atno 17321 bound_to 7965
  140.5110  143.2290  151.8535 LP  0  0  0  0  0  0  0  0  0  0  0  0  # atno 17342 bound_to 10162
  139.4812  144.4949  151.9136 LP  0  0  0  0  0  0  0  0  0  0  0  0  # atno 17343 bound_to 10162
  156.4918  130.4097  149.6402 LP  0  0  0  0  0  0  0  0  0  0  0  0  # atno 17370 bound_to 10713
  156.3409  130.7382  151.2327 LP  0  0  0  0  0  0  0  0  0  0  0  0  # atno 17371 bound_to 10713
  141.1982  133.6600  156.5780 LP  0  0  0  0  0  0  0  0  0  0  0  0  # atno 17394 bound_to 11000
  140.3738  134.7583  157.4616 LP  0  0  0  0  0  0  0  0  0  0  0  0  # atno 17395 bound_to 11000

$$$$
