AV-unprocessed.smi:142|AV-procd|sdf|1192|dock1
  -GOLD-   2262018353D 1   1.00000     0.00000
 Structure written by MMmdl.
 52 55  0  0  0  0  0  0  0  0  1 V2000
  152.8169  138.7903  155.3740 C   0  0  0  0  0  0  0  0  0  0  0  0
  151.5621  139.0074  156.2300 C   0  0  1  0  0  0  0  0  0  0  0  0
  151.1644  137.7396  156.8366 N   0  0  0  0  0  0  0  0  0  0  0  0
  150.9019  136.6116  156.1589 C   0  0  0  0  0  0  0  0  0  0  0  0
  151.0644  136.4976  154.9438 O   0  0  0  0  0  0  0  0  0  0  0  0
  150.3574  135.4363  156.9815 C   0  0  0  0  0  0  0  0  0  0  0  0
  150.0437  134.2739  156.1227 N   0  0  0  0  0  0  0  0  0  0  0  0
  150.7619  133.0661  156.3033 C   0  0  0  0  0  0  0  0  0  0  0  0
  151.6111  132.9519  157.1881 O   0  0  0  0  0  0  0  0  0  0  0  0
  150.4336  131.9944  155.3701 C   0  0  0  0  0  0  0  0  0  0  0  0
  151.0734  130.8159  155.4576 F   0  0  0  0  0  0  0  0  0  0  0  0
  149.5021  132.1699  154.4105 C   0  0  0  0  0  0  0  0  0  0  0  0
  148.7947  133.3460  154.2543 N   0  0  0  0  0  0  0  0  0  0  0  0
  147.8244  133.4694  153.0992 C   0  0  1  0  0  0  0  0  0  0  0  0
  147.8689  132.2864  152.1199 C   0  0  0  0  0  0  0  0  0  0  0  0
  146.4104  132.1683  151.7315 C   0  0  0  0  0  0  0  0  0  0  0  0
  145.7014  132.5568  153.0243 C   0  0  0  0  0  0  0  0  0  0  0  0
  146.5231  133.5665  153.6041 O   0  0  0  0  0  0  0  0  0  0  0  0
  149.0703  134.4399  155.1071 C   0  0  0  0  0  0  0  0  0  0  0  0
  148.4894  135.5175  154.9686 O   0  0  0  0  0  0  0  0  0  0  0  0
  151.7885  140.1060  157.2654 C   0  0  0  0  0  0  0  0  0  0  0  0
  152.5350  139.8580  158.4403 C   0  0  0  0  0  0  0  0  0  0  0  0
  152.7268  140.8770  159.3925 C   0  0  0  0  0  0  0  0  0  0  0  0
  152.1795  142.1573  159.1769 C   0  0  0  0  0  0  0  0  0  0  0  0
  152.3664  143.1818  160.1281 C   0  0  0  0  0  0  0  0  0  0  0  0
  151.8176  144.4597  159.9052 C   0  0  0  0  0  0  0  0  0  0  0  0
  151.0814  144.7175  158.7326 C   0  0  0  0  0  0  0  0  0  0  0  0
  150.8916  143.6979  157.7796 C   0  0  0  0  0  0  0  0  0  0  0  0
  151.4385  142.4162  157.9972 C   0  0  0  0  0  0  0  0  0  0  0  0
  151.2490  141.3915  157.0473 C   0  0  0  0  0  0  0  0  0  0  0  0
  153.1016  139.7076  154.8578 H   0  0  0  0  0  0  0  0  0  0  0  0
  152.6486  138.0249  154.6158 H   0  0  0  0  0  0  0  0  0  0  0  0
  153.6648  138.4750  155.9833 H   0  0  0  0  0  0  0  0  0  0  0  0
  150.7580  139.3256  155.5636 H   0  0  0  0  0  0  0  0  0  0  0  0
  151.0094  137.7406  157.8341 H   0  0  0  0  0  0  0  0  0  0  0  0
  151.0876  135.1952  157.7547 H   0  0  0  0  0  0  0  0  0  0  0  0
  149.4702  135.7448  157.5379 H   0  0  0  0  0  0  0  0  0  0  0  0
  149.3047  131.3462  153.7400 H   0  0  0  0  0  0  0  0  0  0  0  0
  148.0639  134.4115  152.6045 H   0  0  0  0  0  0  0  0  0  0  0  0
  148.5273  132.5022  151.2783 H   0  0  0  0  0  0  0  0  0  0  0  0
  148.2126  131.3738  152.6045 H   0  0  0  0  0  0  0  0  0  0  0  0
  146.1735  132.8864  150.9454 H   0  0  0  0  0  0  0  0  0  0  0  0
  146.1399  131.1727  151.3794 H   0  0  0  0  0  0  0  0  0  0  0  0
  144.6884  132.9210  152.8528 H   0  0  0  0  0  0  0  0  0  0  0  0
  145.6398  131.7033  153.6996 H   0  0  0  0  0  0  0  0  0  0  0  0
  152.9636  138.8833  158.6201 H   0  0  0  0  0  0  0  0  0  0  0  0
  153.2950  140.6704  160.2874 H   0  0  0  0  0  0  0  0  0  0  0  0
  152.9298  142.9928  161.0302 H   0  0  0  0  0  0  0  0  0  0  0  0
  151.9612  145.2432  160.6346 H   0  0  0  0  0  0  0  0  0  0  0  0
  150.6618  145.6983  158.5641 H   0  0  0  0  0  0  0  0  0  0  0  0
  150.3245  143.9037  156.8835 H   0  0  0  0  0  0  0  0  0  0  0  0
  150.6813  141.5893  156.1493 H   0  0  0  0  0  0  0  0  0  0  0  0
  1  2  1  0  0  0  0
  1 31  1  0  0  0  0
  1 32  1  0  0  0  0
  1 33  1  0  0  0  0
  2  3  1  0  0  0  0
  2 21  1  0  0  0  0
  2 34  1  0  0  0  0
  3  4  1  0  0  0  0
  3 35  1  0  0  0  0
  4  5  2  0  0  0  0
  4  6  1  0  0  0  0
  6  7  1  0  0  0  0
  6 36  1  0  0  0  0
  6 37  1  0  0  0  0
  7 19  1  0  0  0  0
  7  8  1  0  0  0  0
  8  9  2  0  0  0  0
  8 10  1  0  0  0  0
 10 11  1  0  0  0  0
 10 12  2  0  0  0  0
 12 13  1  0  0  0  0
 12 38  1  0  0  0  0
 13 14  1  0  0  0  0
 13 19  1  0  0  0  0
 14 18  1  0  0  0  0
 14 15  1  0  0  0  0
 14 39  1  0  0  0  0
 15 16  1  0  0  0  0
 15 40  1  0  0  0  0
 15 41  1  0  0  0  0
 16 17  1  0  0  0  0
 16 42  1  0  0  0  0
 16 43  1  0  0  0  0
 17 18  1  0  0  0  0
 17 44  1  0  0  0  0
 17 45  1  0  0  0  0
 19 20  2  0  0  0  0
 21 30  1  0  0  0  0
 21 22  2  0  0  0  0
 22 23  1  0  0  0  0
 22 46  1  0  0  0  0
 23 24  2  0  0  0  0
 23 47  1  0  0  0  0
 24 29  1  0  0  0  0
 24 25  1  0  0  0  0
 25 26  2  0  0  0  0
 25 48  1  0  0  0  0
 26 27  1  0  0  0  0
 26 49  1  0  0  0  0
 27 28  2  0  0  0  0
 27 50  1  0  0  0  0
 28 29  1  0  0  0  0
 28 51  1  0  0  0  0
 29 30  2  0  0  0  0
 30 52  1  0  0  0  0
M  END
> <s_m_source_file>
AV-unprocessed.smi

> <i_m_source_file_index>
142

> <i_lp_mmshare_version>
43012

> <i_f3d_flags>
0

> <s_epik_input>
W2NIXTFbY0hdW2NIXVtjSF1jKGMxMilbY0hdYyhbY0hdW2NIXTIpW0NASF0oW0NIM10pW05IXUMoPU8pW0NIMl1uM2MoPU8pYyhGKVtjSF1uKGMzPU8pW0NAQEhdNFtDSDJdW0NIMl1bQ0gyXU80

> <s_epik_cmdline>
J2VwaWtfcHl0aG9uJywgJy1waCcsICc3LjAnLCAnLXRuJywgJzgnLCAnLW1hJywgJzIwMCcsICctbWV0YWxfYmluZGluZycsICctaW1hZScsICc8aW5maWxlLm1hZT4nLCAnLW9tYWUnLCAnPG91dGZpbGUubWFlPic=

> <r_lp_tautomer_probability>
1

> <r_epik_Ionization_Penalty>
3.35688e-08

> <r_epik_Ionization_Penalty_Charging>
3.59856e-09

> <r_epik_Ionization_Penalty_Neutral>
2.99702e-08

> <r_epik_State_Penalty>
-0

> <r_epik_Charging_Adjusted_Penalty>
3.59856e-09

> <i_epik_Tot_Q>
0

> <i_epik_Tot_abs_Q>
0

> <r_epik_Metal_State_Penalty>
-0

> <b_epik_Metal_Only>
0

> <s_epik_Chemistry_Notes>
This compound contains an acetal/aminal-like group ( X-CH(R)-Y where X, Y are N, S, or O) that may be acid/base labile, releasing an aldehyde.

> <s_lp_Force_Field>
OPLS_2005

> <r_lp_Energy>
24.972

> <b_lp_Chiralities_Consistent>
1

> <s_lp_Variant>
AV-unprocessed.smi:142-4

> <Gold.Version>
5.8.1

> <Gold.Id.Protein>
6NUR|6NUR_protein|mol2

> <Gold.PLP.Fitness>
56.4186

> <Gold.PLP.PLP>
-51.8787

> <Gold.PLP.part.hbond>
-2.0000

> <Gold.PLP.part.metal>
0.0000

> <Gold.PLP.part.buried>
-0.1814

> <Gold.PLP.part.nonpolar>
-50.5424

> <Gold.PLP.part.repulsive>
0.4095

> <Gold.PLP.ligand.clash>
0.0000

> <Gold.PLP.ligand.torsion>
0.5882

> <Gold.PLP.Chemscore.Hbond>
1.8723

> <Gold.PLP.Chemscore.CHOScore>
0.0000

> <Gold.PLP.Chemscore.Metal>
0.0000

> <Gold.Chemscore.Hbonds>
donor molecule, donor type, donor heavy atom, donor atom, acceptor molecule, acceptor atom, score
      P1  H  6896  6907       L1     9  0.79
      P1  H 10752 10764       L1     5  0.81

> <Gold.PLP.Chemscore.Internal.Correction>
0.0993

> <Gold.Rescore>
     Score         DG    S(hbond)    S(metal)    S(lipo)     H(rot)  DE(clash)    DE(int)     intcor
     17.10     -22.38       1.94        0.00     133.19       2.02       0.09       5.19       ----

> <Gold.Chemscore.Fitness>
17.0968

> <Gold.Chemscore.DG>
-22.3826

> <Gold.Chemscore.ZeroCoef>
-5.4800

> <Gold.Chemscore.Hbond>
1.9412

> <Gold.Chemscore.Metal>
0.0000

> <Gold.Chemscore.Lipo>
133.1937

> <Gold.Chemscore.Internal_Hbond>
0.0000

> <Gold.Chemscore.DEClash>
0.0947

> <Gold.Chemscore.DEInternal>
5.1910

> <Gold.Chemscore.Rot>
2.0175

> <Gold.Chemscore.Internal.Correction>
   9.000000E+99

> <Gold.Chemscore.Hbonds>
donor molecule, donor type, donor heavy atom, donor atom, acceptor molecule, acceptor atom, score
      P1  H  6896  6907       L1     9  0.74
      P1  H 10752 10764       L1     5  0.60

> <Gold.Chemscore.Hbond.Weighted>
-6.4837

> <Gold.Chemscore.Metal.Weighted>
-0.0000

> <Gold.Chemscore.Lipo.Weighted>
-15.5837

> <Gold.Chemscore.Internal_Hbond.Weighted>
0.0000

> <Gold.Chemscore.DEClash.Weighted>
0.0947

> <Gold.Chemscore.DEInternal.Weighted>
5.1910

> <Gold.Chemscore.Rot.Weighted>
5.1648

> <Gold.Chemscore.Internal.Correction.Weighted>
   9.000000E+99

> <Gold.Protein.RotatedTorsions>
[ 6907 6896 6895 6894 ] final -167.87 input  -60.11 | X-H torsion
[ 7974 7965 7964 7962 ] final  -73.04 input  175.53 | X-H torsion
[ 8008 7997 7996 7995 ] final   86.21 input   59.86 | X-H torsion
[ 10167 10162 10161 10158 ] final -175.81 input  -65.29 | X-H torsion
[ 10718 10713 10712 10709 ] final    1.23 input   66.30 | X-H torsion
[ 10763 10752 10751 10750 ] final  -62.55 input  -60.55 | X-H torsion
[ 11005 11000 10999 10996 ] final  149.77 input  -57.11 | X-H torsion

> <Gold.Protein.ActiveResidues>
 VAL166  LYS551  ARG553  GLY616  TRP617  ASP618  TYR619  PRO620  LYS621  CYS622 
 ASP623  PHE694  ASN695  SER759  ASP760  ASP761  ALA762  ILE779  LEU786  VAL792 
 PHE793  MET794  SER795  GLU796  ALA797  LYS798  CYS799  TRP800  GLU811  SER814 

> <Gold.Protein.RotatedAtoms>
  151.4664  133.3580  159.2816 H   0  0  0  0  0  0  0  0  0  0  0  0  # atno 6907 bound_to 6896
  150.8990  134.8403  159.7358 H   0  0  0  0  0  0  0  0  0  0  0  0  # atno 6908 bound_to 6896
  152.4868  134.4582  159.9648 H   0  0  0  0  0  0  0  0  0  0  0  0  # atno 6909 bound_to 6896
  145.6573  140.9264  143.0953 H   0  0  0  0  0  0  0  0  0  0  0  0  # atno 7974 bound_to 7965
  155.9599  140.3394  155.6481 H   0  0  0  0  0  0  0  0  0  0  0  0  # atno 8008 bound_to 7997
  155.6811  140.0738  157.2502 H   0  0  0  0  0  0  0  0  0  0  0  0  # atno 8009 bound_to 7997
  154.4141  140.1674  156.1971 H   0  0  0  0  0  0  0  0  0  0  0  0  # atno 8010 bound_to 7997
  139.5562  144.1984  152.1162 H   0  0  0  0  0  0  0  0  0  0  0  0  # atno 10167 bound_to 10162
  156.8450  130.5534  149.5674 H   0  0  0  0  0  0  0  0  0  0  0  0  # atno 10718 bound_to 10713
  154.3016  135.6233  153.5427 H   0  0  0  0  0  0  0  0  0  0  0  0  # atno 10763 bound_to 10752
  152.9840  135.5680  154.5277 H   0  0  0  0  0  0  0  0  0  0  0  0  # atno 10764 bound_to 10752
  154.4909  135.2867  155.1474 H   0  0  0  0  0  0  0  0  0  0  0  0  # atno 10765 bound_to 10752
  140.1074  134.8946  157.1885 H   0  0  0  0  0  0  0  0  0  0  0  0  # atno 11005 bound_to 11000
  144.7101  139.8403  143.7417 LP  0  0  0  0  0  0  0  0  0  0  0  0  # atno 17320 bound_to 7965
  146.1154  139.4165  143.0261 LP  0  0  0  0  0  0  0  0  0  0  0  0  # atno 17321 bound_to 7965
  140.1489  144.5133  150.6699 LP  0  0  0  0  0  0  0  0  0  0  0  0  # atno 17342 bound_to 10162
  140.6835  143.2338  151.5323 LP  0  0  0  0  0  0  0  0  0  0  0  0  # atno 17343 bound_to 10162
  156.0859  130.5858  150.9647 LP  0  0  0  0  0  0  0  0  0  0  0  0  # atno 17370 bound_to 10713
  157.6334  131.0918  150.8396 LP  0  0  0  0  0  0  0  0  0  0  0  0  # atno 17371 bound_to 10713
  140.3138  134.2994  155.7261 LP  0  0  0  0  0  0  0  0  0  0  0  0  # atno 17394 bound_to 11000
  141.2121  133.7667  156.9814 LP  0  0  0  0  0  0  0  0  0  0  0  0  # atno 17395 bound_to 11000

$$$$
