AV-unprocessed.smi:554|AV-procd|sdf|2908|dock3
  -GOLD-   2262023403D 1   1.00000     0.00000
 Structure written by MMmdl.
 27 28  0  0  0  0  0  0  0  0  1 V2000
  152.9796  143.1023  160.3520 C   0  0  0  0  0  0  0  0  0  0  0  0
  152.4909  143.3640  158.9413 C   0  0  2  0  0  0  0  0  0  0  0  0
  152.7287  144.7009  158.2795 C   0  0  0  0  0  0  0  0  0  0  0  0
  151.3225  144.2835  158.6447 C   0  0  2  0  0  0  0  0  0  0  0  0
  150.5564  144.9930  159.7480 C   0  0  0  0  0  0  0  0  0  0  0  0
  149.1241  145.1222  159.5137 N   0  0  0  0  0  0  0  0  0  0  0  0
  148.1693  144.6814  160.3450 C   0  0  0  0  0  0  0  0  0  0  0  0
  148.4067  144.1029  161.4060 O   0  0  0  0  0  0  0  0  0  0  0  0
  146.9429  144.9540  159.8656 N   0  0  0  0  0  0  0  0  0  0  0  0
  145.6850  144.6634  160.4558 C   0  0  0  0  0  0  0  0  0  0  0  0
  144.5063  145.0347  159.9423 N   0  0  0  0  0  0  0  0  0  0  0  0
  143.4339  144.6114  160.7314 C   0  0  0  0  0  0  0  0  0  0  0  0
  143.8169  143.9142  161.8500 C   0  0  0  0  0  0  0  0  0  0  0  0
  145.5502  143.7603  161.9576 S   0  0  0  0  0  0  0  0  0  0  0  0
  153.0230  144.0231  160.9336 H   0  0  0  0  0  0  0  0  0  0  0  0
  153.9797  142.6696  160.3244 H   0  0  0  0  0  0  0  0  0  0  0  0
  152.3126  142.4019  160.8550 H   0  0  0  0  0  0  0  0  0  0  0  0
  152.5658  142.4913  158.2955 H   0  0  0  0  0  0  0  0  0  0  0  0
  153.1921  145.4870  158.8729 H   0  0  0  0  0  0  0  0  0  0  0  0
  152.9913  144.7018  157.2237 H   0  0  0  0  0  0  0  0  0  0  0  0
  150.6877  143.9588  157.8221 H   0  0  0  0  0  0  0  0  0  0  0  0
  150.6877  144.4269  160.6700 H   0  0  0  0  0  0  0  0  0  0  0  0
  150.9861  145.9792  159.9286 H   0  0  0  0  0  0  0  0  0  0  0  0
  148.8413  145.5852  158.6623 H   0  0  0  0  0  0  0  0  0  0  0  0
  146.9043  145.4301  158.9767 H   0  0  0  0  0  0  0  0  0  0  0  0
  142.4275  144.8504  160.4209 H   0  0  0  0  0  0  0  0  0  0  0  0
  143.1865  143.4835  162.6137 H   0  0  0  0  0  0  0  0  0  0  0  0
  1  2  1  0  0  0  0
  1 15  1  0  0  0  0
  1 16  1  0  0  0  0
  1 17  1  0  0  0  0
  2  4  1  0  0  0  0
  2  3  1  0  0  0  0
  2 18  1  0  0  0  0
  3  4  1  0  0  0  0
  3 19  1  0  0  0  0
  3 20  1  0  0  0  0
  4  5  1  0  0  0  0
  4 21  1  0  0  0  0
  5  6  1  0  0  0  0
  5 22  1  0  0  0  0
  5 23  1  0  0  0  0
  6  7  1  0  0  0  0
  6 24  1  0  0  0  0
  7  8  2  0  0  0  0
  7  9  1  0  0  0  0
  9 10  1  0  0  0  0
  9 25  1  0  0  0  0
 10 14  1  0  0  0  0
 10 11  2  0  0  0  0
 11 12  1  0  0  0  0
 12 13  2  0  0  0  0
 12 26  1  0  0  0  0
 13 14  1  0  0  0  0
 13 27  1  0  0  0  0
M  END
> <s_m_source_file>
AV-unprocessed.smi

> <i_m_source_file_index>
554

> <i_lp_mmshare_version>
43012

> <i_f3d_flags>
0

> <s_epik_input>
W0NIM11bQ0BASF0xW0NIMl1bQ0BIXTFbQ0gyXVtOSF1DKD1PKVtOSF1jMm5bY0hdW2NIXXMy

> <s_epik_cmdline>
J2VwaWtfcHl0aG9uJywgJy1waCcsICc3LjAnLCAnLXRuJywgJzgnLCAnLW1hJywgJzIwMCcsICctbWV0YWxfYmluZGluZycsICctaW1hZScsICc8aW5maWxlLm1hZT4nLCAnLW9tYWUnLCAnPG91dGZpbGUubWFlPic=

> <r_lp_tautomer_probability>
0.999

> <r_epik_Ionization_Penalty>
0.00042678

> <r_epik_Ionization_Penalty_Charging>
0

> <r_epik_Ionization_Penalty_Neutral>
0.00042678

> <r_epik_State_Penalty>
0.000177984

> <r_epik_Charging_Adjusted_Penalty>
0.000177984

> <i_epik_Tot_Q>
0

> <i_epik_Tot_abs_Q>
0

> <r_epik_Metal_State_Penalty>
-0

> <b_epik_Metal_Only>
0

> <s_lp_Force_Field>
OPLS_2005

> <r_lp_Energy>
14.5233

> <b_lp_Chiralities_Consistent>
1

> <s_lp_Variant>
AV-unprocessed.smi:554-3

> <Gold.Version>
5.8.1

> <Gold.Id.Protein>
6NUR|6NUR_protein|mol2

> <Gold.PLP.Fitness>
42.9802

> <Gold.PLP.PLP>
-34.8367

> <Gold.PLP.part.hbond>
-3.0000

> <Gold.PLP.part.metal>
0.0000

> <Gold.PLP.part.buried>
-5.9372

> <Gold.PLP.part.nonpolar>
-27.3276

> <Gold.PLP.part.repulsive>
0.6011

> <Gold.PLP.ligand.clash>
0.0000

> <Gold.PLP.ligand.torsion>
0.4988

> <Gold.PLP.Chemscore.Hbond>
2.8720

> <Gold.PLP.Chemscore.CHOScore>
0.0000

> <Gold.PLP.Chemscore.Metal>
0.0000

> <Gold.Chemscore.Hbonds>
donor molecule, donor type, donor heavy atom, donor atom, acceptor molecule, acceptor atom, score
      L1  H     6    24       P1  8029  1.00
      L1  H     9    25       P1  8029  0.96
      P1  H  6933  6944       L1     8  0.90

> <Gold.PLP.Chemscore.Internal.Correction>
0.5251

> <Gold.Rescore>
     Score         DG    S(hbond)    S(metal)    S(lipo)     H(rot)  DE(clash)    DE(int)     intcor
     19.56     -21.32       2.85        0.00      81.99       1.28       0.06       1.70       ----

> <Gold.Chemscore.Fitness>
19.5582

> <Gold.Chemscore.DG>
-21.3209

> <Gold.Chemscore.ZeroCoef>
-5.4800

> <Gold.Chemscore.Hbond>
2.8509

> <Gold.Chemscore.Metal>
0.0000

> <Gold.Chemscore.Lipo>
81.9883

> <Gold.Chemscore.Internal_Hbond>
0.0000

> <Gold.Chemscore.DEClash>
0.0581

> <Gold.Chemscore.DEInternal>
1.7046

> <Gold.Chemscore.Rot>
1.2788

> <Gold.Chemscore.Internal.Correction>
   9.000000E+99

> <Gold.Chemscore.Hbonds>
donor molecule, donor type, donor heavy atom, donor atom, acceptor molecule, acceptor atom, score
      L1  H     6    24       P1  8029  1.00
      L1  H     9    25       P1  8029  0.88
      P1  H  6933  6944       L1     8  0.87

> <Gold.Chemscore.Hbond.Weighted>
-9.5221

> <Gold.Chemscore.Metal.Weighted>
-0.0000

> <Gold.Chemscore.Lipo.Weighted>
-9.5926

> <Gold.Chemscore.Internal_Hbond.Weighted>
0.0000

> <Gold.Chemscore.DEClash.Weighted>
0.0581

> <Gold.Chemscore.DEInternal.Weighted>
1.7046

> <Gold.Chemscore.Rot.Weighted>
3.2738

> <Gold.Chemscore.Internal.Correction.Weighted>
   9.000000E+99

> <Gold.Protein.RotatedTorsions>
[ 6907 6896 6895 6894 ] final  -98.95 input  -60.11 | X-H torsion
[ 7974 7965 7964 7962 ] final  128.42 input  175.53 | X-H torsion
[ 8008 7997 7996 7995 ] final  -90.12 input   59.86 | X-H torsion
[ 10167 10162 10161 10158 ] final  -83.25 input  -65.29 | X-H torsion
[ 10718 10713 10712 10709 ] final  137.29 input   66.30 | X-H torsion
[ 10763 10752 10751 10750 ] final -145.85 input  -60.55 | X-H torsion
[ 11005 11000 10999 10996 ] final  -28.51 input  -57.11 | X-H torsion

> <Gold.Protein.ActiveResidues>
 VAL166  LYS551  ARG553  GLY616  TRP617  ASP618  TYR619  PRO620  LYS621  CYS622 
 ASP623  PHE694  ASN695  SER759  ASP760  ASP761  ALA762  ILE779  LEU786  VAL792 
 PHE793  MET794  SER795  GLU796  ALA797  LYS798  CYS799  TRP800  GLU811  SER814 

> <Gold.Protein.RotatedAtoms>
  150.7063  134.1115  159.4001 H   0  0  0  0  0  0  0  0  0  0  0  0  # atno 6907 bound_to 6896
  151.9102  135.0340  160.0523 H   0  0  0  0  0  0  0  0  0  0  0  0  # atno 6908 bound_to 6896
  152.2342  133.5047  159.5270 H   0  0  0  0  0  0  0  0  0  0  0  0  # atno 6909 bound_to 6896
  145.0398  139.3973  143.5108 H   0  0  0  0  0  0  0  0  0  0  0  0  # atno 7974 bound_to 7965
  154.6947  140.0534  157.0399 H   0  0  0  0  0  0  0  0  0  0  0  0  # atno 8008 bound_to 7997
  155.0767  140.3205  155.4595 H   0  0  0  0  0  0  0  0  0  0  0  0  # atno 8009 bound_to 7997
  156.2740  140.2072  156.5895 H   0  0  0  0  0  0  0  0  0  0  0  0  # atno 8010 bound_to 7997
  140.4244  143.2572  151.8846 H   0  0  0  0  0  0  0  0  0  0  0  0  # atno 10167 bound_to 10162
  157.4376  131.1054  151.0180 H   0  0  0  0  0  0  0  0  0  0  0  0  # atno 10718 bound_to 10713
  154.8364  135.3402  154.6569 H   0  0  0  0  0  0  0  0  0  0  0  0  # atno 10763 bound_to 10752
  153.7183  135.6959  153.5024 H   0  0  0  0  0  0  0  0  0  0  0  0  # atno 10764 bound_to 10752
  153.2400  135.4388  155.0641 H   0  0  0  0  0  0  0  0  0  0  0  0  # atno 10765 bound_to 10752
  140.9214  133.7396  156.0807 H   0  0  0  0  0  0  0  0  0  0  0  0  # atno 11005 bound_to 11000
  146.3508  139.9992  142.8678 LP  0  0  0  0  0  0  0  0  0  0  0  0  # atno 17320 bound_to 7965
  145.1663  140.9698  143.4348 LP  0  0  0  0  0  0  0  0  0  0  0  0  # atno 17321 bound_to 7965
  139.4783  144.5403  151.8538 LP  0  0  0  0  0  0  0  0  0  0  0  0  # atno 17342 bound_to 10162
  140.4498  144.1871  150.5896 LP  0  0  0  0  0  0  0  0  0  0  0  0  # atno 17343 bound_to 10162
  157.1054  130.5999  149.5469 LP  0  0  0  0  0  0  0  0  0  0  0  0  # atno 17370 bound_to 10713
  155.9936  130.4998  150.7388 LP  0  0  0  0  0  0  0  0  0  0  0  0  # atno 17371 bound_to 10713
  140.7982  134.3539  157.5446 LP  0  0  0  0  0  0  0  0  0  0  0  0  # atno 17394 bound_to 11000
  139.8776  134.9182  156.3196 LP  0  0  0  0  0  0  0  0  0  0  0  0  # atno 17395 bound_to 11000

$$$$
