AV-unprocessed.smi:2804|AV-procd|sdf|10811|dock6
  -GOLD-   2272015243D 1   1.00000     0.00000
 Structure written by MMmdl.
 34 35  0  0  0  0  0  0  0  0  2 V2000
  154.4427  139.8576  163.0068 C   0  0  0  0  0  0  0  0  0  0  0  0
  153.4812  140.0437  161.8288 C   0  0  0  0  0  0  0  0  0  0  0  0
  153.9924  141.0755  160.8117 C   0  0  0  0  0  0  0  0  0  0  0  0
  153.0281  141.2765  159.7327 N   0  0  0  0  0  0  0  0  0  0  0  0
  152.5389  140.3254  158.9031 C   0  0  0  0  0  0  0  0  0  0  0  0
  152.8135  139.1256  158.9448 O   0  0  0  0  0  0  0  0  0  0  0  0
  151.6887  140.9205  158.0271 N   0  0  0  0  0  0  0  0  0  0  0  0
  150.8942  140.2601  156.9775 C   0  0  0  0  0  0  0  0  0  0  0  0
  151.6697  139.1787  156.1690 C   0  0  2  0  0  0  0  0  0  0  0  0
  152.5690  139.8058  155.4484 O   0  5  0  0  0  0  0  0  0  0  0  0
  150.7351  138.4229  155.1928 C   0  0  0  0  0  0  0  0  0  0  0  0
  150.0773  139.2871  154.4174 F   0  0  0  0  0  0  0  0  0  0  0  0
  151.4601  137.6350  154.3974 F   0  0  0  0  0  0  0  0  0  0  0  0
  149.8530  137.6611  155.8443 F   0  0  0  0  0  0  0  0  0  0  0  0
  151.6180  142.2921  158.3302 C   0  0  0  0  0  0  0  0  0  0  0  0
  150.8788  143.3334  157.7407 C   0  0  0  0  0  0  0  0  0  0  0  0
  151.0398  144.6304  158.2809 C   0  0  0  0  0  0  0  0  0  0  0  0
  151.9161  144.8588  159.3730 C   0  0  0  0  0  0  0  0  0  0  0  0
  152.6477  143.7942  159.9492 C   0  0  0  0  0  0  0  0  0  0  0  0
  152.4660  142.5149  159.3949 C   0  0  0  0  0  0  0  0  0  0  0  0
  154.0556  139.1214  163.7116 H   0  0  0  0  0  0  0  0  0  0  0  0
  154.5872  140.7935  163.5473 H   0  0  0  0  0  0  0  0  0  0  0  0
  155.4191  139.5118  162.6665 H   0  0  0  0  0  0  0  0  0  0  0  0
  153.3295  139.0841  161.3335 H   0  0  0  0  0  0  0  0  0  0  0  0
  152.5062  140.3522  162.2079 H   0  0  0  0  0  0  0  0  0  0  0  0
  154.1878  142.0261  161.3101 H   0  0  0  0  0  0  0  0  0  0  0  0
  154.9472  140.7541  160.3949 H   0  0  0  0  0  0  0  0  0  0  0  0
  150.0297  139.7988  157.4569 H   0  0  0  0  0  0  0  0  0  0  0  0
  150.4745  141.0137  156.3094 H   0  0  0  0  0  0  0  0  0  0  0  0
  151.9795  138.4315  156.9016 H   0  0  0  0  0  0  0  0  0  0  0  0
  150.2197  143.1551  156.9039 H   0  0  0  0  0  0  0  0  0  0  0  0
  150.4916  145.4569  157.8535 H   0  0  0  0  0  0  0  0  0  0  0  0
  152.0268  145.8577  159.7684 H   0  0  0  0  0  0  0  0  0  0  0  0
  153.3169  143.9630  160.7795 H   0  0  0  0  0  0  0  0  0  0  0  0
  1  2  1  0  0  0  0
  1 21  1  0  0  0  0
  1 22  1  0  0  0  0
  1 23  1  0  0  0  0
  2  3  1  0  0  0  0
  2 24  1  0  0  0  0
  2 25  1  0  0  0  0
  3  4  1  0  0  0  0
  3 26  1  0  0  0  0
  3 27  1  0  0  0  0
  4 20  1  0  0  0  0
  4  5  1  0  0  0  0
  5  6  2  0  0  0  0
  5  7  1  0  0  0  0
  7  8  1  0  0  0  0
  7 15  1  0  0  0  0
  8  9  1  0  0  0  0
  8 28  1  0  0  0  0
  8 29  1  0  0  0  0
  9 10  1  0  0  0  0
  9 11  1  0  0  0  0
  9 30  1  0  0  0  0
 11 12  1  0  0  0  0
 11 13  1  0  0  0  0
 11 14  1  0  0  0  0
 15 20  2  0  0  0  0
 15 16  1  0  0  0  0
 16 17  2  0  0  0  0
 16 31  1  0  0  0  0
 17 18  1  0  0  0  0
 17 32  1  0  0  0  0
 18 19  2  0  0  0  0
 18 33  1  0  0  0  0
 19 20  1  0  0  0  0
 19 34  1  0  0  0  0
M  CHG  1  10  -1
M  END
> <s_m_source_file>
AV-unprocessed.smi

> <i_m_source_file_index>
2804

> <i_lp_mmshare_version>
43012

> <i_f3d_flags>
0

> <s_epik_input>
W2NIXTFbY0hdW2NIXVtjSF1jKGMxMiluKFtDSDJdW0NIMl1bQ0gzXSljKD1PKW4yW0NIMl1bQ0BIXShbT0hdKUMoRikoRilG

> <s_epik_cmdline>
J2VwaWtfcHl0aG9uJywgJy1waCcsICc3LjAnLCAnLXRuJywgJzgnLCAnLW1hJywgJzIwMCcsICctbWV0YWxfYmluZGluZycsICctaW1hZScsICc8aW5maWxlLm1hZT4nLCAnLW9tYWUnLCAnPG91dGZpbGUubWFlPic=

> <r_epik_Ionization_Penalty>
2.32651

> <r_epik_Ionization_Penalty_Charging>
2.32651

> <r_epik_Ionization_Penalty_Neutral>
0

> <r_epik_State_Penalty>
2.47909

> <r_epik_Charging_Adjusted_Penalty>
4.8056

> <i_epik_Tot_Q>
-1

> <i_epik_Tot_abs_Q>
1

> <r_epik_Metal_State_Penalty>
2.47909

> <b_epik_Metal_Only>
0

> <s_lp_Force_Field>
OPLS_2005

> <r_lp_Energy>
44.0832

> <b_lp_Chiralities_Consistent>
1

> <s_lp_Variant>
AV-unprocessed.smi:2804-3

> <Gold.Version>
5.8.1

> <Gold.Id.Protein>
6NUR|6NUR_protein|mol2

> <Gold.PLP.Fitness>
52.8488

> <Gold.PLP.PLP>
-45.9931

> <Gold.PLP.part.hbond>
-2.2767

> <Gold.PLP.part.metal>
0.0000

> <Gold.PLP.part.buried>
-3.0043

> <Gold.PLP.part.nonpolar>
-42.1066

> <Gold.PLP.part.repulsive>
0.0112

> <Gold.PLP.ligand.clash>
0.0000

> <Gold.PLP.ligand.torsion>
0.3559

> <Gold.PLP.Chemscore.Hbond>
2.5096

> <Gold.PLP.Chemscore.CHOScore>
0.0000

> <Gold.PLP.Chemscore.Metal>
0.0000

> <Gold.Chemscore.Hbonds>
donor molecule, donor type, donor heavy atom, donor atom, acceptor molecule, acceptor atom, score
      P1  H  7989  7998       L1    10  0.07
      P1  H  7997  8009       L1    10  2.00

> <Gold.PLP.Chemscore.Internal.Correction>
0.0387

> <Gold.Rescore>
     Score         DG    S(hbond)    S(metal)    S(lipo)     H(rot)  DE(clash)    DE(int)     intcor
     18.39     -18.59       1.23        0.00     114.53       1.72       0.02       0.18       ----

> <Gold.Chemscore.Fitness>
18.3877

> <Gold.Chemscore.DG>
-18.5922

> <Gold.Chemscore.ZeroCoef>
-5.4800

> <Gold.Chemscore.Hbond>
1.2309

> <Gold.Chemscore.Metal>
0.0000

> <Gold.Chemscore.Lipo>
114.5320

> <Gold.Chemscore.Internal_Hbond>
0.0000

> <Gold.Chemscore.DEClash>
0.0237

> <Gold.Chemscore.DEInternal>
0.1808

> <Gold.Chemscore.Rot>
1.7185

> <Gold.Chemscore.Internal.Correction>
   9.000000E+99

> <Gold.Chemscore.Hbonds>
donor molecule, donor type, donor heavy atom, donor atom, acceptor molecule, acceptor atom, score
      P1  H  7989  7998       L1    10  0.08
      P1  H  7997  8009       L1    10  0.99

> <Gold.Chemscore.Hbond.Weighted>
-4.1112

> <Gold.Chemscore.Metal.Weighted>
-0.0000

> <Gold.Chemscore.Lipo.Weighted>
-13.4002

> <Gold.Chemscore.Internal_Hbond.Weighted>
0.0000

> <Gold.Chemscore.DEClash.Weighted>
0.0237

> <Gold.Chemscore.DEInternal.Weighted>
0.1808

> <Gold.Chemscore.Rot.Weighted>
4.3992

> <Gold.Chemscore.Internal.Correction.Weighted>
   9.000000E+99

> <Gold.Protein.RotatedTorsions>
[ 6907 6896 6895 6894 ] final  -74.58 input  -60.11 | X-H torsion
[ 7974 7965 7964 7962 ] final  -97.74 input  175.53 | X-H torsion
[ 8008 7997 7996 7995 ] final -138.24 input   59.86 | X-H torsion
[ 10167 10162 10161 10158 ] final  -68.45 input  -65.29 | X-H torsion
[ 10718 10713 10712 10709 ] final -111.74 input   66.30 | X-H torsion
[ 10763 10752 10751 10750 ] final  -33.23 input  -60.55 | X-H torsion
[ 11005 11000 10999 10996 ] final  -96.57 input  -57.11 | X-H torsion

> <Gold.Protein.ActiveResidues>
 VAL166  LYS551  ARG553  GLY616  TRP617  ASP618  TYR619  PRO620  LYS621  CYS622 
 ASP623  PHE694  ASN695  SER759  ASP760  ASP761  ALA762  ILE779  LEU786  VAL792 
 PHE793  MET794  SER795  GLU796  ALA797  LYS798  CYS799  TRP800  GLU811  SER814 

> <Gold.Protein.RotatedAtoms>
  150.7088  134.4848  159.5487 H   0  0  0  0  0  0  0  0  0  0  0  0  # atno 6907 bound_to 6896
  152.2478  134.8160  160.0460 H   0  0  0  0  0  0  0  0  0  0  0  0  # atno 6908 bound_to 6896
  151.8919  133.3483  159.3838 H   0  0  0  0  0  0  0  0  0  0  0  0  # atno 6909 bound_to 6896
  145.3298  140.9439  143.2668 H   0  0  0  0  0  0  0  0  0  0  0  0  # atno 7974 bound_to 7965
  155.4251  140.0521  157.3023 H   0  0  0  0  0  0  0  0  0  0  0  0  # atno 8008 bound_to 7997
  154.4885  140.2110  155.9560 H   0  0  0  0  0  0  0  0  0  0  0  0  # atno 8009 bound_to 7997
  156.1308  140.3172  155.8352 H   0  0  0  0  0  0  0  0  0  0  0  0  # atno 8010 bound_to 7997
  140.5506  143.2312  151.6918 H   0  0  0  0  0  0  0  0  0  0  0  0  # atno 10167 bound_to 10162
  156.0664  130.5883  150.8414 H   0  0  0  0  0  0  0  0  0  0  0  0  # atno 10718 bound_to 10713
  153.8268  135.6869  153.4820 H   0  0  0  0  0  0  0  0  0  0  0  0  # atno 10763 bound_to 10752
  153.1535  135.4608  154.9669 H   0  0  0  0  0  0  0  0  0  0  0  0  # atno 10764 bound_to 10752
  154.7904  135.3299  154.7735 H   0  0  0  0  0  0  0  0  0  0  0  0  # atno 10765 bound_to 10752
  141.1407  133.8107  157.0589 H   0  0  0  0  0  0  0  0  0  0  0  0  # atno 11005 bound_to 11000
  144.8873  139.4822  143.6694 LP  0  0  0  0  0  0  0  0  0  0  0  0  # atno 17320 bound_to 7965
  146.3050  139.7550  142.9063 LP  0  0  0  0  0  0  0  0  0  0  0  0  # atno 17321 bound_to 7965
  139.5026  144.3824  152.0363 LP  0  0  0  0  0  0  0  0  0  0  0  0  # atno 17342 bound_to 10162
  140.2940  144.3721  150.6080 LP  0  0  0  0  0  0  0  0  0  0  0  0  # atno 17343 bound_to 10162
  157.5709  131.0946  150.9419 LP  0  0  0  0  0  0  0  0  0  0  0  0  # atno 17370 bound_to 10713
  156.9636  130.5464  149.5287 LP  0  0  0  0  0  0  0  0  0  0  0  0  # atno 17371 bound_to 10713
  140.0584  134.9768  157.1261 LP  0  0  0  0  0  0  0  0  0  0  0  0  # atno 17394 bound_to 11000
  140.3885  134.2210  155.7167 LP  0  0  0  0  0  0  0  0  0  0  0  0  # atno 17395 bound_to 11000

$$$$
