AV-unprocessed.smi:1055|AV-procd|sdf|4627|dock3
  -GOLD-   22720 3133D 1   1.00000     0.00000
 Structure written by MMmdl.
 51 52  0  0  0  0  0  0  0  0  2 V2000
  145.2811  142.9197  157.6923 C   0  0  0  0  0  0  0  0  0  0  0  0
  144.3479  143.2055  156.7693 C   0  0  0  0  0  0  0  0  0  0  0  0
  143.6269  144.5404  156.7414 C   0  0  0  0  0  0  0  0  0  0  0  0
  143.9449  142.2104  155.6927 C   0  0  0  0  0  0  0  0  0  0  0  0
  145.0934  141.8471  154.8259 N   0  3  2  0  0  0  0  0  0  0  0  0
  146.0529  140.9452  155.5118 C   0  0  0  0  0  0  0  0  0  0  0  0
  147.1510  140.4624  154.5463 C   0  0  0  0  0  0  0  0  0  0  0  0
  147.8886  141.6349  153.8768 C   0  0  2  0  0  0  0  0  0  0  0  0
  148.7485  142.3161  154.8444 N   0  0  0  0  0  0  0  0  0  0  0  0
  149.5415  141.7090  155.7391 C   0  0  0  0  0  0  0  0  0  0  0  0
  149.6455  140.4864  155.8330 O   0  0  0  0  0  0  0  0  0  0  0  0
  150.1755  142.6053  156.5141 N   0  0  0  0  0  0  0  0  0  0  0  0
  151.1136  142.3615  157.5529 C   0  0  0  0  0  0  0  0  0  0  0  0
  151.5780  143.4598  158.3011 C   0  0  0  0  0  0  0  0  0  0  0  0
  152.5222  143.2487  159.3236 C   0  0  0  0  0  0  0  0  0  0  0  0
  152.9928  141.9351  159.5704 C   0  0  0  0  0  0  0  0  0  0  0  0
  153.9390  141.6688  160.5865 N   0  0  0  0  0  0  0  0  0  0  0  0
  155.0590  140.7718  160.3299 C   0  0  0  0  0  0  0  0  0  0  0  0
  153.7768  142.2716  161.9057 C   0  0  0  0  0  0  0  0  0  0  0  0
  152.5550  140.8826  158.8365 N   0  0  0  0  0  0  0  0  0  0  0  0
  151.6478  141.0884  157.8591 C   0  0  0  0  0  0  0  0  0  0  0  0
  146.8657  142.5948  153.2364 C   0  0  0  0  0  0  0  0  0  0  0  0
  145.7762  143.0275  154.2329 C   0  0  0  0  0  0  0  0  0  0  0  0
  145.5553  143.6363  158.4531 H   0  0  0  0  0  0  0  0  0  0  0  0
  145.7869  141.9652  157.7027 H   0  0  0  0  0  0  0  0  0  0  0  0
  142.5513  144.3918  156.8402 H   0  0  0  0  0  0  0  0  0  0  0  0
  143.8168  145.0608  155.8023 H   0  0  0  0  0  0  0  0  0  0  0  0
  143.9554  145.1864  157.5563 H   0  0  0  0  0  0  0  0  0  0  0  0
  143.5168  141.3099  156.1365 H   0  0  0  0  0  0  0  0  0  0  0  0
  143.1559  142.6720  155.0974 H   0  0  0  0  0  0  0  0  0  0  0  0
  146.4949  141.4620  156.3652 H   0  0  0  0  0  0  0  0  0  0  0  0
  145.5221  140.0788  155.9086 H   0  0  0  0  0  0  0  0  0  0  0  0
  147.8585  139.8202  155.0726 H   0  0  0  0  0  0  0  0  0  0  0  0
  146.6957  139.8404  153.7743 H   0  0  0  0  0  0  0  0  0  0  0  0
  148.5277  141.2275  153.0911 H   0  0  0  0  0  0  0  0  0  0  0  0
  148.7208  143.3252  154.8481 H   0  0  0  0  0  0  0  0  0  0  0  0
  149.9171  143.5723  156.3828 H   0  0  0  0  0  0  0  0  0  0  0  0
  151.2124  144.4565  158.1004 H   0  0  0  0  0  0  0  0  0  0  0  0
  152.8645  144.0973  159.8960 H   0  0  0  0  0  0  0  0  0  0  0  0
  154.7004  139.7808  160.0502 H   0  0  0  0  0  0  0  0  0  0  0  0
  155.6885  140.6601  161.2129 H   0  0  0  0  0  0  0  0  0  0  0  0
  155.6835  141.1583  159.5241 H   0  0  0  0  0  0  0  0  0  0  0  0
  152.8464  141.9384  162.3666 H   0  0  0  0  0  0  0  0  0  0  0  0
  153.7560  143.3594  161.8309 H   0  0  0  0  0  0  0  0  0  0  0  0
  154.5956  141.9997  162.5718 H   0  0  0  0  0  0  0  0  0  0  0  0
  151.3717  140.2044  157.3057 H   0  0  0  0  0  0  0  0  0  0  0  0
  147.3644  143.4724  152.8235 H   0  0  0  0  0  0  0  0  0  0  0  0
  146.3919  142.0958  152.3899 H   0  0  0  0  0  0  0  0  0  0  0  0
  145.0544  143.6579  153.7132 H   0  0  0  0  0  0  0  0  0  0  0  0
  146.2101  143.6374  155.0268 H   0  0  0  0  0  0  0  0  0  0  0  0
  144.7084  141.3158  154.0580 H   0  0  0  0  0  0  0  0  0  0  0  0
  1  2  2  0  0  0  0
  1 24  1  0  0  0  0
  1 25  1  0  0  0  0
  2  3  1  0  0  0  0
  2  4  1  0  0  0  0
  3 26  1  0  0  0  0
  3 27  1  0  0  0  0
  3 28  1  0  0  0  0
  4  5  1  0  0  0  0
  4 29  1  0  0  0  0
  4 30  1  0  0  0  0
  5 23  1  0  0  0  0
  5  6  1  0  0  0  0
  5 51  1  0  0  0  0
  6  7  1  0  0  0  0
  6 31  1  0  0  0  0
  6 32  1  0  0  0  0
  7  8  1  0  0  0  0
  7 33  1  0  0  0  0
  7 34  1  0  0  0  0
  8  9  1  0  0  0  0
  8 22  1  0  0  0  0
  8 35  1  0  0  0  0
  9 10  1  0  0  0  0
  9 36  1  0  0  0  0
 10 11  2  0  0  0  0
 10 12  1  0  0  0  0
 12 13  1  0  0  0  0
 12 37  1  0  0  0  0
 13 21  1  0  0  0  0
 13 14  2  0  0  0  0
 14 15  1  0  0  0  0
 14 38  1  0  0  0  0
 15 16  2  0  0  0  0
 15 39  1  0  0  0  0
 16 17  1  0  0  0  0
 16 20  1  0  0  0  0
 17 18  1  0  0  0  0
 17 19  1  0  0  0  0
 18 40  1  0  0  0  0
 18 41  1  0  0  0  0
 18 42  1  0  0  0  0
 19 43  1  0  0  0  0
 19 44  1  0  0  0  0
 19 45  1  0  0  0  0
 20 21  2  0  0  0  0
 21 46  1  0  0  0  0
 22 23  1  0  0  0  0
 22 47  1  0  0  0  0
 22 48  1  0  0  0  0
 23 49  1  0  0  0  0
 23 50  1  0  0  0  0
M  CHG  1   5   1
M  END
> <s_m_source_file>
AV-unprocessed.smi

> <i_m_source_file_index>
1055

> <i_lp_mmshare_version>
43012

> <i_f3d_flags>
0

> <s_epik_input>
W0NIMl09QyhbQ0gzXSlbQ0gyXU4xW0NIMl1bQ0gyXVtDSF0oW0NIMl1bQ0gyXTEpW05IXUMoPU8pW05IXWMyW2NIXVtjSF1jKE4oW0NIM10pW0NIM10pbltjSF0y

> <s_epik_cmdline>
J2VwaWtfcHl0aG9uJywgJy1waCcsICc3LjAnLCAnLXRuJywgJzgnLCAnLW1hJywgJzIwMCcsICctbWV0YWxfYmluZGluZycsICctaW1hZScsICc8aW5maWxlLm1hZT4nLCAnLW9tYWUnLCAnPG91dGZpbGUubWFlPic=

> <r_lp_tautomer_probability>
1

> <r_epik_Ionization_Penalty>
0.534133

> <r_epik_Ionization_Penalty_Charging>
0.0193505

> <r_epik_Ionization_Penalty_Neutral>
0.514782

> <r_epik_State_Penalty>
0.557749

> <r_epik_Charging_Adjusted_Penalty>
0.5771

> <i_epik_Tot_Q>
1

> <i_epik_Tot_abs_Q>
1

> <r_epik_Metal_State_Penalty>
0.306227

> <b_epik_Metal_Only>
0

> <s_lp_Force_Field>
OPLS_2005

> <r_lp_Energy>
19.9376

> <b_lp_Chiralities_Consistent>
1

> <s_lp_Variant>
AV-unprocessed.smi:1055-4

> <Gold.Version>
5.8.1

> <Gold.Id.Protein>
6NUR|6NUR_protein|mol2

> <Gold.PLP.Fitness>
53.2475

> <Gold.PLP.PLP>
-43.1501

> <Gold.PLP.part.hbond>
-3.0000

> <Gold.PLP.part.metal>
0.0000

> <Gold.PLP.part.buried>
-6.8952

> <Gold.PLP.part.nonpolar>
-34.2108

> <Gold.PLP.part.repulsive>
0.2857

> <Gold.PLP.ligand.clash>
0.0000

> <Gold.PLP.ligand.torsion>
0.9867

> <Gold.PLP.Chemscore.Hbond>
4.0000

> <Gold.PLP.Chemscore.CHOScore>
0.0000

> <Gold.PLP.Chemscore.Metal>
0.0000

> <Gold.Chemscore.Hbonds>
donor molecule, donor type, donor heavy atom, donor atom, acceptor molecule, acceptor atom, score
      L1  H     5    51       P1 10175  1.95
      L1  H     9    36       P1  8028  1.00
      L1  H    12    37       P1  8028  0.99

> <Gold.PLP.Chemscore.Internal.Correction>
0.0708

> <Gold.Rescore>
     Score         DG    S(hbond)    S(metal)    S(lipo)     H(rot)  DE(clash)    DE(int)     intcor
     16.75     -21.69       2.75        0.00      89.05       1.33       1.32       3.62       ----

> <Gold.Chemscore.Fitness>
16.7505

> <Gold.Chemscore.DG>
-21.6935

> <Gold.Chemscore.ZeroCoef>
-5.4800

> <Gold.Chemscore.Hbond>
2.7518

> <Gold.Chemscore.Metal>
0.0000

> <Gold.Chemscore.Lipo>
89.0501

> <Gold.Chemscore.Internal_Hbond>
0.0000

> <Gold.Chemscore.DEClash>
1.3220

> <Gold.Chemscore.DEInternal>
3.6211

> <Gold.Chemscore.Rot>
1.3266

> <Gold.Chemscore.Internal.Correction>
   9.000000E+99

> <Gold.Chemscore.Hbonds>
donor molecule, donor type, donor heavy atom, donor atom, acceptor molecule, acceptor atom, score
      L1  H     5    51       P1 10175  0.46
      L1  H     9    36       P1  8028  0.94
      L1  H    12    37       P1  8028  0.94

> <Gold.Chemscore.Hbond.Weighted>
-9.1909

> <Gold.Chemscore.Metal.Weighted>
-0.0000

> <Gold.Chemscore.Lipo.Weighted>
-10.4189

> <Gold.Chemscore.Internal_Hbond.Weighted>
0.0000

> <Gold.Chemscore.DEClash.Weighted>
1.3220

> <Gold.Chemscore.DEInternal.Weighted>
3.6211

> <Gold.Chemscore.Rot.Weighted>
3.3962

> <Gold.Chemscore.Internal.Correction.Weighted>
   9.000000E+99

> <Gold.Protein.RotatedTorsions>
[ 6907 6896 6895 6894 ] final   61.39 input  -60.11 | X-H torsion
[ 7974 7965 7964 7962 ] final -110.76 input  175.53 | X-H torsion
[ 8008 7997 7996 7995 ] final  -10.39 input   59.86 | X-H torsion
[ 10167 10162 10161 10158 ] final  128.80 input  -65.29 | X-H torsion
[ 10718 10713 10712 10709 ] final  -93.69 input   66.30 | X-H torsion
[ 10763 10752 10751 10750 ] final  103.48 input  -60.55 | X-H torsion
[ 11005 11000 10999 10996 ] final  -23.52 input  -57.11 | X-H torsion

> <Gold.Protein.ActiveResidues>
 VAL166  LYS551  ARG553  GLY616  TRP617  ASP618  TYR619  PRO620  LYS621  CYS622 
 ASP623  PHE694  ASN695  SER759  ASP760  ASP761  ALA762  ILE779  LEU786  VAL792 
 PHE793  MET794  SER795  GLU796  ALA797  LYS798  CYS799  TRP800  GLU811  SER814 

> <Gold.Protein.RotatedAtoms>
  152.4084  134.6166  160.0039 H   0  0  0  0  0  0  0  0  0  0  0  0  # atno 6907 bound_to 6896
  151.6351  133.3324  159.3125 H   0  0  0  0  0  0  0  0  0  0  0  0  # atno 6908 bound_to 6896
  150.7977  134.7090  159.6637 H   0  0  0  0  0  0  0  0  0  0  0  0  # atno 6909 bound_to 6896
  145.1643  140.8894  143.3572 H   0  0  0  0  0  0  0  0  0  0  0  0  # atno 7974 bound_to 7965
  154.5559  140.2330  155.8411 H   0  0  0  0  0  0  0  0  0  0  0  0  # atno 8008 bound_to 7997
  156.1987  140.3058  155.9442 H   0  0  0  0  0  0  0  0  0  0  0  0  # atno 8009 bound_to 7997
  155.2981  140.0430  157.3018 H   0  0  0  0  0  0  0  0  0  0  0  0  # atno 8010 bound_to 7997
  139.5509  144.6812  151.4327 H   0  0  0  0  0  0  0  0  0  0  0  0  # atno 10167 bound_to 10162
  156.0017  130.5037  150.5814 H   0  0  0  0  0  0  0  0  0  0  0  0  # atno 10718 bound_to 10713
  153.3533  135.3975  155.1663 H   0  0  0  0  0  0  0  0  0  0  0  0  # atno 10763 bound_to 10752
  154.8666  135.3662  154.5194 H   0  0  0  0  0  0  0  0  0  0  0  0  # atno 10764 bound_to 10752
  153.5647  135.7080  153.5591 H   0  0  0  0  0  0  0  0  0  0  0  0  # atno 10765 bound_to 10752
  140.8760  133.7687  156.0243 H   0  0  0  0  0  0  0  0  0  0  0  0  # atno 11005 bound_to 11000
  145.0298  139.3351  143.6030 LP  0  0  0  0  0  0  0  0  0  0  0  0  # atno 17320 bound_to 7965
  146.3478  139.9631  142.8715 LP  0  0  0  0  0  0  0  0  0  0  0  0  # atno 17321 bound_to 7965
  140.6771  143.8165  150.7073 LP  0  0  0  0  0  0  0  0  0  0  0  0  # atno 17342 bound_to 10162
  140.1607  143.4278  152.2069 LP  0  0  0  0  0  0  0  0  0  0  0  0  # atno 17343 bound_to 10162
  157.3694  131.0763  151.1570 LP  0  0  0  0  0  0  0  0  0  0  0  0  # atno 17370 bound_to 10713
  157.2329  130.6533  149.5857 LP  0  0  0  0  0  0  0  0  0  0  0  0  # atno 17371 bound_to 10713
  140.8518  134.2945  157.5272 LP  0  0  0  0  0  0  0  0  0  0  0  0  # atno 17394 bound_to 11000
  139.8715  134.9472  156.3959 LP  0  0  0  0  0  0  0  0  0  0  0  0  # atno 17395 bound_to 11000

$$$$
