AV-unprocessed.smi:2704|AV-procd|sdf|10442|dock6
  -GOLD-   2272014483D 1   1.00000     0.00000
 Structure written by MMmdl.
 43 44  0  0  0  0  0  0  0  0  1 V2000
  149.9898  124.7153  148.7446 C   0  0  0  0  0  0  0  0  0  0  0  0
  149.0455  124.4967  149.9360 C   0  0  0  0  0  0  0  0  0  0  0  0
  147.7103  123.8563  149.5305 C   0  0  0  0  0  0  0  0  0  0  0  0
  148.8462  125.7568  150.7224 C   0  0  0  0  0  0  0  0  0  0  0  0
  149.3431  126.9147  150.3025 N   0  0  0  0  0  0  0  0  0  0  0  0
  148.9255  127.8239  151.2845 O   0  0  0  0  0  0  0  0  0  0  0  0
  148.2090  127.1005  152.1774 C   0  0  0  0  0  0  0  0  0  0  0  0
  147.6535  127.7904  153.3815 C   0  0  0  0  0  0  0  0  0  0  0  0
  148.2222  129.2017  153.6193 C   0  0  0  0  0  0  0  0  0  0  0  0
  147.6994  130.1849  152.6744 N   0  0  0  0  0  0  0  0  0  0  0  0
  146.8519  131.1869  152.9685 C   0  0  0  0  0  0  0  0  0  0  0  0
  146.4232  131.3734  154.1081 O   0  0  0  0  0  0  0  0  0  0  0  0
  146.3999  132.1186  151.8202 C   0  0  0  0  0  0  0  0  0  0  0  0
  147.5223  132.7645  151.2356 O   0  0  0  0  0  0  0  0  0  0  0  0
  145.6951  131.2845  150.7220 C   0  0  0  0  0  0  0  0  0  0  0  0
  145.0647  132.1537  149.6190 C   0  0  0  0  0  0  0  0  0  0  0  0
  144.1074  133.1981  150.2099 C   0  0  0  0  0  0  0  0  0  0  0  0
  144.8201  134.0701  151.2533 C   0  0  0  0  0  0  0  0  0  0  0  0
  145.4457  133.2108  152.3672 C   0  0  0  0  0  0  0  0  0  0  0  0
  148.1397  125.8032  151.8871 N   0  0  0  0  0  0  0  0  0  0  0  0
  150.9564  125.0962  149.0759 H   0  0  0  0  0  0  0  0  0  0  0  0
  149.5750  125.4310  148.0339 H   0  0  0  0  0  0  0  0  0  0  0  0
  150.1687  123.7824  148.2095 H   0  0  0  0  0  0  0  0  0  0  0  0
  149.5411  123.7800  150.5931 H   0  0  0  0  0  0  0  0  0  0  0  0
  147.0938  123.6481  150.4054 H   0  0  0  0  0  0  0  0  0  0  0  0
  147.8702  122.9128  149.0082 H   0  0  0  0  0  0  0  0  0  0  0  0
  147.1429  124.5093  148.8671 H   0  0  0  0  0  0  0  0  0  0  0  0
  146.5701  127.8479  153.2724 H   0  0  0  0  0  0  0  0  0  0  0  0
  147.8405  127.1656  154.2557 H   0  0  0  0  0  0  0  0  0  0  0  0
  148.0324  129.5150  154.6472 H   0  0  0  0  0  0  0  0  0  0  0  0
  149.3061  129.1766  153.5066 H   0  0  0  0  0  0  0  0  0  0  0  0
  147.9998  130.1005  151.7137 H   0  0  0  0  0  0  0  0  0  0  0  0
  147.9267  132.1641  150.6281 H   0  0  0  0  0  0  0  0  0  0  0  0
  146.4009  130.5833  150.2749 H   0  0  0  0  0  0  0  0  0  0  0  0
  144.9065  130.6762  151.1678 H   0  0  0  0  0  0  0  0  0  0  0  0
  145.8471  132.6546  149.0476 H   0  0  0  0  0  0  0  0  0  0  0  0
  144.5289  131.5196  148.9122 H   0  0  0  0  0  0  0  0  0  0  0  0
  143.7031  133.8248  149.4144 H   0  0  0  0  0  0  0  0  0  0  0  0
  143.2565  132.6956  150.6717 H   0  0  0  0  0  0  0  0  0  0  0  0
  145.5921  134.6672  150.7669 H   0  0  0  0  0  0  0  0  0  0  0  0
  144.1142  134.7789  151.6872 H   0  0  0  0  0  0  0  0  0  0  0  0
  144.6356  132.7482  152.9337 H   0  0  0  0  0  0  0  0  0  0  0  0
  145.9743  133.8551  153.0714 H   0  0  0  0  0  0  0  0  0  0  0  0
  1  2  1  0  0  0  0
  1 21  1  0  0  0  0
  1 22  1  0  0  0  0
  1 23  1  0  0  0  0
  2  3  1  0  0  0  0
  2  4  1  0  0  0  0
  2 24  1  0  0  0  0
  3 25  1  0  0  0  0
  3 26  1  0  0  0  0
  3 27  1  0  0  0  0
  4 20  1  0  0  0  0
  4  5  2  0  0  0  0
  5  6  1  0  0  0  0
  6  7  1  0  0  0  0
  7  8  1  0  0  0  0
  7 20  2  0  0  0  0
  8  9  1  0  0  0  0
  8 28  1  0  0  0  0
  8 29  1  0  0  0  0
  9 10  1  0  0  0  0
  9 30  1  0  0  0  0
  9 31  1  0  0  0  0
 10 11  1  0  0  0  0
 10 32  1  0  0  0  0
 11 12  2  0  0  0  0
 11 13  1  0  0  0  0
 13 19  1  0  0  0  0
 13 14  1  0  0  0  0
 13 15  1  0  0  0  0
 14 33  1  0  0  0  0
 15 16  1  0  0  0  0
 15 34  1  0  0  0  0
 15 35  1  0  0  0  0
 16 17  1  0  0  0  0
 16 36  1  0  0  0  0
 16 37  1  0  0  0  0
 17 18  1  0  0  0  0
 17 38  1  0  0  0  0
 17 39  1  0  0  0  0
 18 19  1  0  0  0  0
 18 40  1  0  0  0  0
 18 41  1  0  0  0  0
 19 42  1  0  0  0  0
 19 43  1  0  0  0  0
M  END
> <s_m_source_file>
AV-unprocessed.smi

> <i_m_source_file_index>
2704

> <i_lp_mmshare_version>
43012

> <i_f3d_flags>
0

> <s_epik_input>
W0NIM11bQ0hdKFtDSDNdKWMxbm9jKG4xKVtDSDJdW0NIMl1bTkhdQyg9TylDMihbT0hdKVtDSDJdW0NIMl1bQ0gyXVtDSDJdW0NIMl0y

> <s_epik_cmdline>
J2VwaWtfcHl0aG9uJywgJy1waCcsICc3LjAnLCAnLXRuJywgJzgnLCAnLW1hJywgJzIwMCcsICctbWV0YWxfYmluZGluZycsICctaW1hZScsICc8aW5maWxlLm1hZT4nLCAnLW9tYWUnLCAnPG91dGZpbGUubWFlPic=

> <r_lp_tautomer_probability>
1

> <r_epik_Ionization_Penalty>
7.72761e-08

> <r_epik_Ionization_Penalty_Charging>
0

> <r_epik_Ionization_Penalty_Neutral>
7.72761e-08

> <r_epik_State_Penalty>
-0

> <r_epik_Charging_Adjusted_Penalty>
0

> <i_epik_Tot_Q>
0

> <i_epik_Tot_abs_Q>
0

> <r_epik_Metal_State_Penalty>
-0

> <b_epik_Metal_Only>
0

> <s_lp_Force_Field>
OPLS_2005

> <r_lp_Energy>
5.6077

> <b_lp_Chiralities_Consistent>
1

> <s_lp_Variant>
AV-unprocessed.smi:2704-1

> <Gold.Version>
5.8.1

> <Gold.Id.Protein>
6NUR|6NUR_protein|mol2

> <Gold.PLP.Fitness>
39.7405

> <Gold.PLP.PLP>
-34.5800

> <Gold.PLP.part.hbond>
-2.6206

> <Gold.PLP.part.metal>
0.0000

> <Gold.PLP.part.buried>
-5.6756

> <Gold.PLP.part.nonpolar>
-26.4894

> <Gold.PLP.part.repulsive>
0.6679

> <Gold.PLP.ligand.clash>
0.0000

> <Gold.PLP.ligand.torsion>
0.3044

> <Gold.PLP.Chemscore.Hbond>
1.8880

> <Gold.PLP.Chemscore.CHOScore>
0.0000

> <Gold.PLP.Chemscore.Metal>
0.0000

> <Gold.Chemscore.Hbonds>
donor molecule, donor type, donor heavy atom, donor atom, acceptor molecule, acceptor atom, score
      L1  H    10    32       P1 10747  0.96
      L1  H    14    33       P1 10747  1.00

> <Gold.PLP.Chemscore.Internal.Correction>
0.1052

> <Gold.Rescore>
     Score         DG    S(hbond)    S(metal)    S(lipo)     H(rot)  DE(clash)    DE(int)     intcor
     13.85     -14.62       1.90        0.00      78.64       2.50       0.41       0.36       ----

> <Gold.Chemscore.Fitness>
13.8511

> <Gold.Chemscore.DG>
-14.6232

> <Gold.Chemscore.ZeroCoef>
-5.4800

> <Gold.Chemscore.Hbond>
1.8991

> <Gold.Chemscore.Metal>
0.0000

> <Gold.Chemscore.Lipo>
78.6371

> <Gold.Chemscore.Internal_Hbond>
0.0000

> <Gold.Chemscore.DEClash>
0.4131

> <Gold.Chemscore.DEInternal>
0.3590

> <Gold.Chemscore.Rot>
2.5001

> <Gold.Chemscore.Internal.Correction>
   9.000000E+99

> <Gold.Chemscore.Hbonds>
donor molecule, donor type, donor heavy atom, donor atom, acceptor molecule, acceptor atom, score
      L1  H    10    32       P1 10747  0.90
      L1  H    14    33       P1 10747  0.96

> <Gold.Chemscore.Hbond.Weighted>
-6.3428

> <Gold.Chemscore.Metal.Weighted>
-0.0000

> <Gold.Chemscore.Lipo.Weighted>
-9.2005

> <Gold.Chemscore.Internal_Hbond.Weighted>
0.0000

> <Gold.Chemscore.DEClash.Weighted>
0.4131

> <Gold.Chemscore.DEInternal.Weighted>
0.3590

> <Gold.Chemscore.Rot.Weighted>
6.4002

> <Gold.Chemscore.Internal.Correction.Weighted>
   9.000000E+99

> <Gold.Protein.RotatedTorsions>
[ 6907 6896 6895 6894 ] final -177.54 input  -60.11 | X-H torsion
[ 7974 7965 7964 7962 ] final   38.09 input  175.53 | X-H torsion
[ 8008 7997 7996 7995 ] final  177.74 input   59.86 | X-H torsion
[ 10167 10162 10161 10158 ] final  -25.16 input  -65.29 | X-H torsion
[ 10718 10713 10712 10709 ] final  114.97 input   66.30 | X-H torsion
[ 10763 10752 10751 10750 ] final  -29.09 input  -60.55 | X-H torsion
[ 11005 11000 10999 10996 ] final   43.96 input  -57.11 | X-H torsion

> <Gold.Protein.ActiveResidues>
 VAL166  LYS551  ARG553  GLY616  TRP617  ASP618  TYR619  PRO620  LYS621  CYS622 
 ASP623  PHE694  ASN695  SER759  ASP760  ASP761  ALA762  ILE779  LEU786  VAL792 
 PHE793  MET794  SER795  GLU796  ALA797  LYS798  CYS799  TRP800  GLU811  SER814 

> <Gold.Protein.RotatedAtoms>
  151.6226  133.3338  159.3091 H   0  0  0  0  0  0  0  0  0  0  0  0  # atno 6907 bound_to 6896
  150.8098  134.7249  159.6689 H   0  0  0  0  0  0  0  0  0  0  0  0  # atno 6908 bound_to 6896
  152.4194  134.5987  160.0045 H   0  0  0  0  0  0  0  0  0  0  0  0  # atno 6909 bound_to 6896
  146.1088  139.5814  142.9366 H   0  0  0  0  0  0  0  0  0  0  0  0  # atno 7974 bound_to 7965
  156.0623  140.1351  156.9926 H   0  0  0  0  0  0  0  0  0  0  0  0  # atno 8008 bound_to 7997
  154.4488  140.0989  156.6606 H   0  0  0  0  0  0  0  0  0  0  0  0  # atno 8009 bound_to 7997
  155.5358  140.3459  155.4438 H   0  0  0  0  0  0  0  0  0  0  0  0  # atno 8010 bound_to 7997
  140.7287  143.4289  151.0833 H   0  0  0  0  0  0  0  0  0  0  0  0  # atno 10167 bound_to 10162
  157.6250  131.1006  150.7262 H   0  0  0  0  0  0  0  0  0  0  0  0  # atno 10718 bound_to 10713
  153.7590  135.6920  153.4929 H   0  0  0  0  0  0  0  0  0  0  0  0  # atno 10763 bound_to 10752
  153.1951  135.4457  155.0197 H   0  0  0  0  0  0  0  0  0  0  0  0  # atno 10764 bound_to 10752
  154.8160  135.3399  154.7106 H   0  0  0  0  0  0  0  0  0  0  0  0  # atno 10765 bound_to 10752
  140.1596  134.4358  155.8326 H   0  0  0  0  0  0  0  0  0  0  0  0  # atno 11005 bound_to 11000
  145.5706  141.0394  143.2176 LP  0  0  0  0  0  0  0  0  0  0  0  0  # atno 17320 bound_to 7965
  144.7494  139.7234  143.7279 LP  0  0  0  0  0  0  0  0  0  0  0  0  # atno 17321 bound_to 7965
  139.7944  143.8173  152.3156 LP  0  0  0  0  0  0  0  0  0  0  0  0  # atno 17342 bound_to 10162
  139.8168  144.7313  150.9625 LP  0  0  0  0  0  0  0  0  0  0  0  0  # atno 17343 bound_to 10162
  156.7612  130.4799  149.5436 LP  0  0  0  0  0  0  0  0  0  0  0  0  # atno 17370 bound_to 10713
  156.1417  130.6249  151.0475 LP  0  0  0  0  0  0  0  0  0  0  0  0  # atno 17371 bound_to 10713
  141.2208  133.6907  156.7569 LP  0  0  0  0  0  0  0  0  0  0  0  0  # atno 17394 bound_to 11000
  140.2506  134.8543  157.3663 LP  0  0  0  0  0  0  0  0  0  0  0  0  # atno 17395 bound_to 11000

$$$$
