AV-unprocessed.smi:2502|AV-procd|sdf|9846|dock10
  -GOLD-   2272013473D 1   1.00000     0.00000
 Structure written by MMmdl.
 39 41  0  0  0  0  0  0  0  0  1 V2000
  149.0377  142.5563  157.0527 O   0  0  0  0  0  0  0  0  0  0  0  0
  150.1702  142.0185  157.7088 C   0  0  1  0  0  0  0  0  0  0  0  0
  150.6002  140.7403  156.9718 C   0  0  0  0  0  0  0  0  0  0  0  0
  150.6613  141.0125  155.5790 O   0  0  0  0  0  0  0  0  0  0  0  0
  151.0219  139.8983  154.7728 C   0  0  0  0  0  0  0  0  0  0  0  0
  150.0748  138.7067  154.9972 C   0  0  0  0  0  0  0  0  0  0  0  0
  150.6011  137.4576  154.2713 C   0  0  0  0  0  0  0  0  0  0  0  0
  151.9230  137.1577  154.7078 O   0  0  0  0  0  0  0  0  0  0  0  0
  152.8534  138.1964  154.4194 C   0  0  0  0  0  0  0  0  0  0  0  0
  152.4476  139.4822  155.1573 C   0  0  0  0  0  0  0  0  0  0  0  0
  151.2898  143.0779  157.7231 C   0  0  0  0  0  0  0  0  0  0  0  0
  151.5587  143.5887  159.0562 N   0  0  0  0  0  0  0  0  0  0  0  0
  151.0043  144.7728  159.4417 N   0  0  0  0  0  0  0  0  0  0  0  0
  151.3795  145.0314  160.6587 N   0  0  0  0  0  0  0  0  0  0  0  0
  152.1975  143.9979  161.0837 C   0  0  0  0  0  0  0  0  0  0  0  0
  152.8716  143.7712  162.3042 C   0  0  0  0  0  0  0  0  0  0  0  0
  153.6599  142.6129  162.4802 C   0  0  0  0  0  0  0  0  0  0  0  0
  154.4697  142.3719  163.9874 Cl  0  0  0  0  0  0  0  0  0  0  0  0
  153.7828  141.6665  161.4341 C   0  0  0  0  0  0  0  0  0  0  0  0
  154.7449  140.2452  161.6322 Cl  0  0  0  0  0  0  0  0  0  0  0  0
  153.1150  141.8792  160.2116 C   0  0  0  0  0  0  0  0  0  0  0  0
  152.3349  143.0380  160.0575 C   0  0  0  0  0  0  0  0  0  0  0  0
  149.2903  143.3613  156.6270 H   0  0  0  0  0  0  0  0  0  0  0  0
  149.9007  141.7716  158.7366 H   0  0  0  0  0  0  0  0  0  0  0  0
  151.5478  140.3667  157.3609 H   0  0  0  0  0  0  0  0  0  0  0  0
  149.8556  139.9591  157.1329 H   0  0  0  0  0  0  0  0  0  0  0  0
  151.0184  140.1822  153.7188 H   0  0  0  0  0  0  0  0  0  0  0  0
  149.9922  138.4979  156.0644 H   0  0  0  0  0  0  0  0  0  0  0  0
  149.0696  138.9354  154.6440 H   0  0  0  0  0  0  0  0  0  0  0  0
  149.9588  136.6028  154.4835 H   0  0  0  0  0  0  0  0  0  0  0  0
  150.5891  137.6031  153.1900 H   0  0  0  0  0  0  0  0  0  0  0  0
  153.8460  137.8784  154.7391 H   0  0  0  0  0  0  0  0  0  0  0  0
  152.9046  138.3647  153.3427 H   0  0  0  0  0  0  0  0  0  0  0  0
  153.1490  140.2849  154.9278 H   0  0  0  0  0  0  0  0  0  0  0  0
  152.5055  139.3145  156.2337 H   0  0  0  0  0  0  0  0  0  0  0  0
  152.2143  142.6554  157.3267 H   0  0  0  0  0  0  0  0  0  0  0  0
  151.0304  143.9161  157.0746 H   0  0  0  0  0  0  0  0  0  0  0  0
  152.7828  144.4899  163.1057 H   0  0  0  0  0  0  0  0  0  0  0  0
  153.2018  141.1657  159.4054 H   0  0  0  0  0  0  0  0  0  0  0  0
  1  2  1  0  0  0  0
  1 23  1  0  0  0  0
  2  3  1  0  0  0  0
  2 11  1  0  0  0  0
  2 24  1  0  0  0  0
  3  4  1  0  0  0  0
  3 25  1  0  0  0  0
  3 26  1  0  0  0  0
  4  5  1  0  0  0  0
  5 10  1  0  0  0  0
  5  6  1  0  0  0  0
  5 27  1  0  0  0  0
  6  7  1  0  0  0  0
  6 28  1  0  0  0  0
  6 29  1  0  0  0  0
  7  8  1  0  0  0  0
  7 30  1  0  0  0  0
  7 31  1  0  0  0  0
  8  9  1  0  0  0  0
  9 10  1  0  0  0  0
  9 32  1  0  0  0  0
  9 33  1  0  0  0  0
 10 34  1  0  0  0  0
 10 35  1  0  0  0  0
 11 12  1  0  0  0  0
 11 36  1  0  0  0  0
 11 37  1  0  0  0  0
 12 22  1  0  0  0  0
 12 13  1  0  0  0  0
 13 14  2  0  0  0  0
 14 15  1  0  0  0  0
 15 22  2  0  0  0  0
 15 16  1  0  0  0  0
 16 17  2  0  0  0  0
 16 38  1  0  0  0  0
 17 18  1  0  0  0  0
 17 19  1  0  0  0  0
 19 20  1  0  0  0  0
 19 21  2  0  0  0  0
 21 22  1  0  0  0  0
 21 39  1  0  0  0  0
M  END
> <s_m_source_file>
AV-unprocessed.smi

> <i_m_source_file_index>
2502

> <i_lp_mmshare_version>
43012

> <i_f3d_flags>
0

> <s_epik_input>
W2NIXTFjKENsKWMoQ2wpW2NIXWMoYzEyKW4obm4yKVtDSDJdW0NASF0oW09IXSlbQ0gyXU9bQ0hdM1tDSDJdW0NIMl1PW0NIMl1bQ0gyXTM=

> <s_epik_cmdline>
J2VwaWtfcHl0aG9uJywgJy1waCcsICc3LjAnLCAnLXRuJywgJzgnLCAnLW1hJywgJzIwMCcsICctbWV0YWxfYmluZGluZycsICctaW1hZScsICc8aW5maWxlLm1hZT4nLCAnLW9tYWUnLCAnPG91dGZpbGUubWFlPic=

> <r_lp_tautomer_probability>
1

> <r_epik_Ionization_Penalty>
2.65748e-06

> <r_epik_Ionization_Penalty_Charging>
0

> <r_epik_Ionization_Penalty_Neutral>
2.65748e-06

> <r_epik_State_Penalty>
-0

> <r_epik_Charging_Adjusted_Penalty>
0

> <i_epik_Tot_Q>
0

> <i_epik_Tot_abs_Q>
0

> <r_epik_Metal_State_Penalty>
-0

> <b_epik_Metal_Only>
0

> <s_lp_Force_Field>
OPLS_2005

> <r_lp_Energy>
14.648

> <b_lp_Chiralities_Consistent>
1

> <s_lp_Variant>
AV-unprocessed.smi:2502-2

> <Gold.Version>
5.8.1

> <Gold.Id.Protein>
6NUR|6NUR_protein|mol2

> <Gold.PLP.Fitness>
53.4623

> <Gold.PLP.PLP>
-49.7807

> <Gold.PLP.part.hbond>
-2.7136

> <Gold.PLP.part.metal>
0.0000

> <Gold.PLP.part.buried>
-0.5823

> <Gold.PLP.part.nonpolar>
-46.8546

> <Gold.PLP.part.repulsive>
0.5599

> <Gold.PLP.ligand.clash>
0.0000

> <Gold.PLP.ligand.torsion>
1.0959

> <Gold.PLP.Chemscore.Hbond>
1.9520

> <Gold.PLP.Chemscore.CHOScore>
0.0000

> <Gold.PLP.Chemscore.Metal>
0.0000

> <Gold.Chemscore.Hbonds>
donor molecule, donor type, donor heavy atom, donor atom, acceptor molecule, acceptor atom, score
      L1  H     1    23       P1  8028  0.99
      P1  H 10752 10764       L1     8  0.96

> <Gold.PLP.Chemscore.Internal.Correction>
0.0175

> <Gold.Rescore>
     Score         DG    S(hbond)    S(metal)    S(lipo)     H(rot)  DE(clash)    DE(int)     intcor
     19.90     -22.45       1.68        0.00     145.46       2.21       1.40       1.15       ----

> <Gold.Chemscore.Fitness>
19.9006

> <Gold.Chemscore.DG>
-22.4515

> <Gold.Chemscore.ZeroCoef>
-5.4800

> <Gold.Chemscore.Hbond>
1.6770

> <Gold.Chemscore.Metal>
0.0000

> <Gold.Chemscore.Lipo>
145.4590

> <Gold.Chemscore.Internal_Hbond>
0.0000

> <Gold.Chemscore.DEClash>
1.4043

> <Gold.Chemscore.DEInternal>
1.1466

> <Gold.Chemscore.Rot>
2.2065

> <Gold.Chemscore.Internal.Correction>
   9.000000E+99

> <Gold.Chemscore.Hbonds>
donor molecule, donor type, donor heavy atom, donor atom, acceptor molecule, acceptor atom, score
      L1  H     1    23       P1  8028  0.94
      P1  H 10752 10764       L1     8  0.37

> <Gold.Chemscore.Hbond.Weighted>
-5.6013

> <Gold.Chemscore.Metal.Weighted>
-0.0000

> <Gold.Chemscore.Lipo.Weighted>
-17.0187

> <Gold.Chemscore.Internal_Hbond.Weighted>
0.0000

> <Gold.Chemscore.DEClash.Weighted>
1.4043

> <Gold.Chemscore.DEInternal.Weighted>
1.1466

> <Gold.Chemscore.Rot.Weighted>
5.6485

> <Gold.Chemscore.Internal.Correction.Weighted>
   9.000000E+99

> <Gold.Protein.RotatedTorsions>
[ 6907 6896 6895 6894 ] final  -56.06 input  -60.11 | X-H torsion
[ 7974 7965 7964 7962 ] final  150.70 input  175.53 | X-H torsion
[ 8008 7997 7996 7995 ] final   11.68 input   59.86 | X-H torsion
[ 10167 10162 10161 10158 ] final  -14.30 input  -65.29 | X-H torsion
[ 10718 10713 10712 10709 ] final  -92.60 input   66.30 | X-H torsion
[ 10763 10752 10751 10750 ] final  -63.52 input  -60.55 | X-H torsion
[ 11005 11000 10999 10996 ] final   27.59 input  -57.11 | X-H torsion

> <Gold.Protein.ActiveResidues>
 VAL166  LYS551  ARG553  GLY616  TRP617  ASP618  TYR619  PRO620  LYS621  CYS622 
 ASP623  PHE694  ASN695  SER759  ASP760  ASP761  ALA762  ILE779  LEU786  VAL792 
 PHE793  MET794  SER795  GLU796  ALA797  LYS798  CYS799  TRP800  GLU811  SER814 

> <Gold.Protein.RotatedAtoms>
  150.8199  134.7401  159.6762 H   0  0  0  0  0  0  0  0  0  0  0  0  # atno 6907 bound_to 6896
  152.4315  134.5765  159.9945 H   0  0  0  0  0  0  0  0  0  0  0  0  # atno 6908 bound_to 6896
  151.5952  133.3325  159.3072 H   0  0  0  0  0  0  0  0  0  0  0  0  # atno 6909 bound_to 6896
  144.8345  139.6442  143.6044 H   0  0  0  0  0  0  0  0  0  0  0  0  # atno 7974 bound_to 7965
  154.8102  140.2867  155.5859 H   0  0  0  0  0  0  0  0  0  0  0  0  # atno 8008 bound_to 7997
  156.2987  140.2570  156.2918 H   0  0  0  0  0  0  0  0  0  0  0  0  # atno 8009 bound_to 7997
  154.9456  140.0380  157.2108 H   0  0  0  0  0  0  0  0  0  0  0  0  # atno 8010 bound_to 7997
  140.7198  143.5336  150.9491 H   0  0  0  0  0  0  0  0  0  0  0  0  # atno 10167 bound_to 10162
  156.0004  130.4994  150.5651 H   0  0  0  0  0  0  0  0  0  0  0  0  # atno 10718 bound_to 10713
  154.3163  135.6205  153.5488 H   0  0  0  0  0  0  0  0  0  0  0  0  # atno 10763 bound_to 10752
  152.9824  135.5713  154.5120 H   0  0  0  0  0  0  0  0  0  0  0  0  # atno 10764 bound_to 10752
  154.4780  135.2862  155.1569 H   0  0  0  0  0  0  0  0  0  0  0  0  # atno 10765 bound_to 10752
  140.3246  134.2505  155.7711 H   0  0  0  0  0  0  0  0  0  0  0  0  # atno 11005 bound_to 11000
  146.2645  139.6487  142.9339 LP  0  0  0  0  0  0  0  0  0  0  0  0  # atno 17320 bound_to 7965
  145.4824  141.0438  143.2638 LP  0  0  0  0  0  0  0  0  0  0  0  0  # atno 17321 bound_to 7965
  139.9057  143.6782  152.3124 LP  0  0  0  0  0  0  0  0  0  0  0  0  # atno 17342 bound_to 10162
  139.7147  144.7614  151.1054 LP  0  0  0  0  0  0  0  0  0  0  0  0  # atno 17343 bound_to 10162
  157.3554  131.0741  151.1679 LP  0  0  0  0  0  0  0  0  0  0  0  0  # atno 17370 bound_to 10713
  157.2482  130.6601  149.5919 LP  0  0  0  0  0  0  0  0  0  0  0  0  # atno 17371 bound_to 10713
  141.2078  133.7795  157.0096 LP  0  0  0  0  0  0  0  0  0  0  0  0  # atno 17394 bound_to 11000
  140.0912  134.9591  157.1779 LP  0  0  0  0  0  0  0  0  0  0  0  0  # atno 17395 bound_to 11000

$$$$
