AV-unprocessed.smi:1301|AV-procd|sdf|5424|dock10
  -GOLD-   22720 4583D 1   1.00000     0.00000
 Structure written by MMmdl.
 44 45  0  0  0  0  0  0  0  0  3 V2000
  151.8117  144.7504  159.8815 C   0  0  0  0  0  0  0  0  0  0  0  0
  151.5896  143.5510  159.0254 C   0  0  0  0  0  0  0  0  0  0  0  0
  152.0023  142.2524  159.1216 C   0  0  0  0  0  0  0  0  0  0  0  0
  151.4276  141.6436  157.9727 C   0  0  0  0  0  0  0  0  0  0  0  0
  151.5569  140.3580  157.6106 N   0  5  0  0  0  0  0  0  0  0  0  0
  151.6262  140.0234  156.3021 C   0  0  0  0  0  0  0  0  0  0  0  0
  152.6367  140.0305  155.5954 O   0  0  0  0  0  0  0  0  0  0  0  0
  150.4485  139.6487  155.7832 N   0  0  0  0  0  0  0  0  0  0  0  0
  150.2083  139.1994  154.4122 C   0  0  2  0  0  0  0  0  0  0  0  0
  148.7560  138.7171  154.2595 C   0  0  0  0  0  0  0  0  0  0  0  0
  148.5066  137.3995  155.0173 C   0  0  0  0  0  0  0  0  0  0  0  0
  149.4577  136.3401  154.5921 N   0  3  2  0  0  0  0  0  0  0  0  0
  149.1511  135.0274  155.2172 C   0  0  0  0  0  0  0  0  0  0  0  0
  150.0968  133.8976  154.7537 C   0  0  0  0  0  0  0  0  0  0  0  0
  149.6260  133.2588  153.4362 C   0  0  0  0  0  0  0  0  0  0  0  0
  150.2365  132.8281  155.8472 C   0  0  0  0  0  0  0  0  0  0  0  0
  150.8707  136.7647  154.7796 C   0  0  0  0  0  0  0  0  0  0  0  0
  151.1666  138.0620  154.0076 C   0  0  0  0  0  0  0  0  0  0  0  0
  150.7410  142.5006  157.2358 N   0  0  0  0  0  0  0  0  0  0  0  0
  150.8353  143.7253  157.9071 O   0  0  0  0  0  0  0  0  0  0  0  0
  152.7896  145.1886  159.6830 H   0  0  0  0  0  0  0  0  0  0  0  0
  151.7668  144.4851  160.9378 H   0  0  0  0  0  0  0  0  0  0  0  0
  151.0546  145.5119  159.6931 H   0  0  0  0  0  0  0  0  0  0  0  0
  152.6133  141.8072  159.8924 H   0  0  0  0  0  0  0  0  0  0  0  0
  149.6510  139.6720  156.4018 H   0  0  0  0  0  0  0  0  0  0  0  0
  150.3602  140.0504  153.7458 H   0  0  0  0  0  0  0  0  0  0  0  0
  148.0638  139.4855  154.6062 H   0  0  0  0  0  0  0  0  0  0  0  0
  148.5369  138.5674  153.2015 H   0  0  0  0  0  0  0  0  0  0  0  0
  148.5926  137.5564  156.0937 H   0  0  0  0  0  0  0  0  0  0  0  0
  147.4836  137.0721  154.8280 H   0  0  0  0  0  0  0  0  0  0  0  0
  149.1795  135.1339  156.3029 H   0  0  0  0  0  0  0  0  0  0  0  0
  148.1290  134.7360  154.9703 H   0  0  0  0  0  0  0  0  0  0  0  0
  151.0931  134.3069  154.5898 H   0  0  0  0  0  0  0  0  0  0  0  0
  148.6286  132.8298  153.5371 H   0  0  0  0  0  0  0  0  0  0  0  0
  150.3002  132.4599  153.1257 H   0  0  0  0  0  0  0  0  0  0  0  0
  149.5953  133.9880  152.6264 H   0  0  0  0  0  0  0  0  0  0  0  0
  149.2790  132.3540  156.0652 H   0  0  0  0  0  0  0  0  0  0  0  0
  150.6129  133.2603  156.7749 H   0  0  0  0  0  0  0  0  0  0  0  0
  150.9332  132.0453  155.5456 H   0  0  0  0  0  0  0  0  0  0  0  0
  151.0746  136.9027  155.8427 H   0  0  0  0  0  0  0  0  0  0  0  0
  151.5509  135.9894  154.4303 H   0  0  0  0  0  0  0  0  0  0  0  0
  151.0655  137.8721  152.9382 H   0  0  0  0  0  0  0  0  0  0  0  0
  152.2049  138.3577  154.1613 H   0  0  0  0  0  0  0  0  0  0  0  0
  149.3163  136.2214  153.5993 H   0  0  0  0  0  0  0  0  0  0  0  0
  1  2  1  0  0  0  0
  1 21  1  0  0  0  0
  1 22  1  0  0  0  0
  1 23  1  0  0  0  0
  2 20  1  0  0  0  0
  2  3  2  0  0  0  0
  3  4  1  0  0  0  0
  3 24  1  0  0  0  0
  4  5  1  0  0  0  0
  4 19  2  0  0  0  0
  5  6  1  0  0  0  0
  6  7  2  0  0  0  0
  6  8  1  0  0  0  0
  8  9  1  0  0  0  0
  8 25  1  0  0  0  0
  9 18  1  0  0  0  0
  9 10  1  0  0  0  0
  9 26  1  0  0  0  0
 10 11  1  0  0  0  0
 10 27  1  0  0  0  0
 10 28  1  0  0  0  0
 11 12  1  0  0  0  0
 11 29  1  0  0  0  0
 11 30  1  0  0  0  0
 12 13  1  0  0  0  0
 12 17  1  0  0  0  0
 12 44  1  0  0  0  0
 13 14  1  0  0  0  0
 13 31  1  0  0  0  0
 13 32  1  0  0  0  0
 14 15  1  0  0  0  0
 14 16  1  0  0  0  0
 14 33  1  0  0  0  0
 15 34  1  0  0  0  0
 15 35  1  0  0  0  0
 15 36  1  0  0  0  0
 16 37  1  0  0  0  0
 16 38  1  0  0  0  0
 16 39  1  0  0  0  0
 17 18  1  0  0  0  0
 17 40  1  0  0  0  0
 17 41  1  0  0  0  0
 18 42  1  0  0  0  0
 18 43  1  0  0  0  0
 19 20  1  0  0  0  0
M  CHG  1   5  -1
M  CHG  1  12   1
M  END
> <s_m_source_file>
AV-unprocessed.smi

> <i_m_source_file_index>
1301

> <i_lp_mmshare_version>
43012

> <i_f3d_flags>
0

> <s_epik_input>
W0NIM11jMVtjSF1jKG5vMSlbTkhdQyg9TylbTkhdW0NIXTJbQ0gyXVtDSDJdTihbQ0gyXVtDSDJdMilbQ0gyXVtDSF0oW0NIM10pW0NIM10=

> <s_epik_cmdline>
J2VwaWtfcHl0aG9uJywgJy1waCcsICc3LjAnLCAnLXRuJywgJzgnLCAnLW1hJywgJzIwMCcsICctbWV0YWxfYmluZGluZycsICctaW1hZScsICc8aW5maWxlLm1hZT4nLCAnLW9tYWUnLCAnPG91dGZpbGUubWFlPic=

> <r_epik_Ionization_Penalty>
6.28597

> <r_epik_Ionization_Penalty_Charging>
6.28587

> <r_epik_Ionization_Penalty_Neutral>
9.69304e-05

> <r_epik_State_Penalty>
6.28524

> <r_epik_Charging_Adjusted_Penalty>
12.5711

> <i_epik_Tot_Q>
0

> <i_epik_Tot_abs_Q>
2

> <r_epik_Metal_State_Penalty>
2.21973

> <b_epik_Metal_Only>
1

> <s_lp_Force_Field>
OPLS_2005

> <r_lp_Energy>
6.70583

> <b_lp_Chiralities_Consistent>
1

> <s_lp_Variant>
AV-unprocessed.smi:1301-4

> <Gold.Version>
5.8.1

> <Gold.Id.Protein>
6NUR|6NUR_protein|mol2

> <Gold.PLP.Fitness>
42.0974

> <Gold.PLP.PLP>
-35.7215

> <Gold.PLP.part.hbond>
-2.0000

> <Gold.PLP.part.metal>
0.0000

> <Gold.PLP.part.buried>
-5.0711

> <Gold.PLP.part.nonpolar>
-29.7490

> <Gold.PLP.part.repulsive>
0.3101

> <Gold.PLP.ligand.clash>
0.0000

> <Gold.PLP.ligand.torsion>
1.3466

> <Gold.PLP.Chemscore.Hbond>
3.0000

> <Gold.PLP.Chemscore.CHOScore>
0.0000

> <Gold.PLP.Chemscore.Metal>
0.0000

> <Gold.Chemscore.Hbonds>
donor molecule, donor type, donor heavy atom, donor atom, acceptor molecule, acceptor atom, score
      L1  H    12    44       P1  7948  2.00
      P1  H  7997  8010       L1     7  0.98

> <Gold.PLP.Chemscore.Internal.Correction>
0.0690

> <Gold.Rescore>
     Score         DG    S(hbond)    S(metal)    S(lipo)     H(rot)  DE(clash)    DE(int)     intcor
     15.95     -18.26       1.96        0.00      83.94       1.41       0.03       2.28       ----

> <Gold.Chemscore.Fitness>
15.9493

> <Gold.Chemscore.DG>
-18.2616

> <Gold.Chemscore.ZeroCoef>
-5.4800

> <Gold.Chemscore.Hbond>
1.9643

> <Gold.Chemscore.Metal>
0.0000

> <Gold.Chemscore.Lipo>
83.9403

> <Gold.Chemscore.Internal_Hbond>
0.0000

> <Gold.Chemscore.DEClash>
0.0308

> <Gold.Chemscore.DEInternal>
2.2815

> <Gold.Chemscore.Rot>
1.4063

> <Gold.Chemscore.Internal.Correction>
   9.000000E+99

> <Gold.Chemscore.Hbonds>
donor molecule, donor type, donor heavy atom, donor atom, acceptor molecule, acceptor atom, score
      L1  H    12    44       P1  7948  0.82
      P1  H  7989  7998       L1     7  0.01
      P1  H  7997  8010       L1     7  0.91

> <Gold.Chemscore.Hbond.Weighted>
-6.5608

> <Gold.Chemscore.Metal.Weighted>
-0.0000

> <Gold.Chemscore.Lipo.Weighted>
-9.8210

> <Gold.Chemscore.Internal_Hbond.Weighted>
0.0000

> <Gold.Chemscore.DEClash.Weighted>
0.0308

> <Gold.Chemscore.DEInternal.Weighted>
2.2815

> <Gold.Chemscore.Rot.Weighted>
3.6002

> <Gold.Chemscore.Internal.Correction.Weighted>
   9.000000E+99

> <Gold.Protein.RotatedTorsions>
[ 6907 6896 6895 6894 ] final   61.41 input  -60.11 | X-H torsion
[ 7974 7965 7964 7962 ] final  -36.83 input  175.53 | X-H torsion
[ 8008 7997 7996 7995 ] final   73.22 input   59.86 | X-H torsion
[ 10167 10162 10161 10158 ] final -129.84 input  -65.29 | X-H torsion
[ 10718 10713 10712 10709 ] final   -3.85 input   66.30 | X-H torsion
[ 10763 10752 10751 10750 ] final  -49.24 input  -60.55 | X-H torsion
[ 11005 11000 10999 10996 ] final  175.60 input  -57.11 | X-H torsion

> <Gold.Protein.ActiveResidues>
 VAL166  LYS551  ARG553  GLY616  TRP617  ASP618  TYR619  PRO620  LYS621  CYS622 
 ASP623  PHE694  ASN695  SER759  ASP760  ASP761  ALA762  ILE779  LEU786  VAL792 
 PHE793  MET794  SER795  GLU796  ALA797  LYS798  CYS799  TRP800  GLU811  SER814 

> <Gold.Protein.RotatedAtoms>
  152.4086  134.6163  160.0038 H   0  0  0  0  0  0  0  0  0  0  0  0  # atno 6907 bound_to 6896
  151.6347  133.3324  159.3124 H   0  0  0  0  0  0  0  0  0  0  0  0  # atno 6908 bound_to 6896
  150.7979  134.7093  159.6639 H   0  0  0  0  0  0  0  0  0  0  0  0  # atno 6909 bound_to 6896
  146.0628  140.6324  142.8989 H   0  0  0  0  0  0  0  0  0  0  0  0  # atno 7974 bound_to 7965
  155.7804  140.3482  155.5294 H   0  0  0  0  0  0  0  0  0  0  0  0  # atno 8008 bound_to 7997
  155.8734  140.0990  157.1555 H   0  0  0  0  0  0  0  0  0  0  0  0  # atno 8009 bound_to 7997
  154.4019  140.1336  156.4094 H   0  0  0  0  0  0  0  0  0  0  0  0  # atno 8010 bound_to 7997
  139.9355  143.6222  152.2518 H   0  0  0  0  0  0  0  0  0  0  0  0  # atno 10167 bound_to 10162
  156.7700  130.5297  149.5769 H   0  0  0  0  0  0  0  0  0  0  0  0  # atno 10718 bound_to 10713
  154.0908  135.6577  153.4852 H   0  0  0  0  0  0  0  0  0  0  0  0  # atno 10763 bound_to 10752
  153.0322  135.5202  154.7382 H   0  0  0  0  0  0  0  0  0  0  0  0  # atno 10764 bound_to 10752
  154.6505  135.3000  154.9961 H   0  0  0  0  0  0  0  0  0  0  0  0  # atno 10765 bound_to 10752
  140.3640  134.7088  157.4349 H   0  0  0  0  0  0  0  0  0  0  0  0  # atno 11005 bound_to 11000
  144.7184  140.4291  143.7026 LP  0  0  0  0  0  0  0  0  0  0  0  0  # atno 17320 bound_to 7965
  145.6531  139.1568  143.2851 LP  0  0  0  0  0  0  0  0  0  0  0  0  # atno 17321 bound_to 7965
  139.6747  144.7659  151.1718 LP  0  0  0  0  0  0  0  0  0  0  0  0  # atno 17342 bound_to 10162
  140.7625  143.5813  150.8892 LP  0  0  0  0  0  0  0  0  0  0  0  0  # atno 17343 bound_to 10162
  156.1284  130.6160  151.0297 LP  0  0  0  0  0  0  0  0  0  0  0  0  # atno 17370 bound_to 10713
  157.6695  131.0864  150.7646 LP  0  0  0  0  0  0  0  0  0  0  0  0  # atno 17371 bound_to 10713
  140.0604  134.6004  155.8756 LP  0  0  0  0  0  0  0  0  0  0  0  0  # atno 17394 bound_to 11000
  141.1975  133.6597  156.5746 LP  0  0  0  0  0  0  0  0  0  0  0  0  # atno 17395 bound_to 11000

$$$$
