AV-unprocessed.smi:2627|AV-procd|sdf|10240|dock1
  -GOLD-   2272014243D 1   1.00000     0.00000
 Structure written by MMmdl.
 39 41  0  0  0  0  0  0  0  0  1 V2000
  147.1438  141.7738  155.9578 C   0  0  0  0  0  0  0  0  0  0  0  0
  147.8609  141.6077  154.6103 C   0  0  1  0  0  0  0  0  0  0  0  0
  148.2157  142.8870  154.1290 O   0  0  0  0  0  0  0  0  0  0  0  0
  149.0560  140.6997  154.7150 C   0  0  0  0  0  0  0  0  0  0  0  0
  149.0593  139.4964  154.1354 N   0  0  0  0  0  0  0  0  0  0  0  0
  150.3076  139.0026  154.4542 C   0  0  0  0  0  0  0  0  0  0  0  0
  150.9216  137.7743  154.1206 C   0  0  0  0  0  0  0  0  0  0  0  0
  152.2280  137.4854  154.5660 C   0  0  0  0  0  0  0  0  0  0  0  0
  152.9369  138.4185  155.3499 C   0  0  0  0  0  0  0  0  0  0  0  0
  152.3420  139.6472  155.6949 C   0  0  0  0  0  0  0  0  0  0  0  0
  151.0373  139.9312  155.2475 C   0  0  0  0  0  0  0  0  0  0  0  0
  150.1820  141.0175  155.4096 N   0  0  0  0  0  0  0  0  0  0  0  0
  150.4871  142.2158  156.1811 C   0  0  0  0  0  0  0  0  0  0  0  0
  151.1172  141.8939  157.5434 C   0  0  0  0  0  0  0  0  0  0  0  0
  151.1511  143.0621  158.3519 O   0  0  0  0  0  0  0  0  0  0  0  0
  151.8133  143.0001  159.5596 C   0  0  0  0  0  0  0  0  0  0  0  0
  151.6354  144.0833  160.4456 C   0  0  0  0  0  0  0  0  0  0  0  0
  152.2753  144.1028  161.6999 C   0  0  0  0  0  0  0  0  0  0  0  0
  153.1036  143.0322  162.0835 C   0  0  0  0  0  0  0  0  0  0  0  0
  153.2895  141.9440  161.2107 C   0  0  0  0  0  0  0  0  0  0  0  0
  152.6505  141.9255  159.9553 C   0  0  0  0  0  0  0  0  0  0  0  0
  146.8428  140.8076  156.3617 H   0  0  0  0  0  0  0  0  0  0  0  0
  146.2462  142.3837  155.8532 H   0  0  0  0  0  0  0  0  0  0  0  0
  147.7867  142.2522  156.6974 H   0  0  0  0  0  0  0  0  0  0  0  0
  147.1396  141.2015  153.9053 H   0  0  0  0  0  0  0  0  0  0  0  0
  148.3212  143.4627  154.8713 H   0  0  0  0  0  0  0  0  0  0  0  0
  150.3866  137.0533  153.5202 H   0  0  0  0  0  0  0  0  0  0  0  0
  152.6883  136.5438  154.3046 H   0  0  0  0  0  0  0  0  0  0  0  0
  153.9374  138.1901  155.6866 H   0  0  0  0  0  0  0  0  0  0  0  0
  152.8835  140.3630  156.2950 H   0  0  0  0  0  0  0  0  0  0  0  0
  151.1213  142.8843  155.6004 H   0  0  0  0  0  0  0  0  0  0  0  0
  149.5576  142.7639  156.3373 H   0  0  0  0  0  0  0  0  0  0  0  0
  150.5269  141.1193  158.0353 H   0  0  0  0  0  0  0  0  0  0  0  0
  152.1259  141.5048  157.3955 H   0  0  0  0  0  0  0  0  0  0  0  0
  150.9978  144.9080  160.1635 H   0  0  0  0  0  0  0  0  0  0  0  0
  152.1291  144.9389  162.3679 H   0  0  0  0  0  0  0  0  0  0  0  0
  153.5947  143.0450  163.0454 H   0  0  0  0  0  0  0  0  0  0  0  0
  153.9244  141.1212  161.5042 H   0  0  0  0  0  0  0  0  0  0  0  0
  152.8201  141.0746  159.3133 H   0  0  0  0  0  0  0  0  0  0  0  0
  1  2  1  0  0  0  0
  1 22  1  0  0  0  0
  1 23  1  0  0  0  0
  1 24  1  0  0  0  0
  2  3  1  0  0  0  0
  2  4  1  0  0  0  0
  2 25  1  0  0  0  0
  3 26  1  0  0  0  0
  4 12  1  0  0  0  0
  4  5  2  0  0  0  0
  5  6  1  0  0  0  0
  6 11  2  0  0  0  0
  6  7  1  0  0  0  0
  7  8  2  0  0  0  0
  7 27  1  0  0  0  0
  8  9  1  0  0  0  0
  8 28  1  0  0  0  0
  9 10  2  0  0  0  0
  9 29  1  0  0  0  0
 10 11  1  0  0  0  0
 10 30  1  0  0  0  0
 11 12  1  0  0  0  0
 12 13  1  0  0  0  0
 13 14  1  0  0  0  0
 13 31  1  0  0  0  0
 13 32  1  0  0  0  0
 14 15  1  0  0  0  0
 14 33  1  0  0  0  0
 14 34  1  0  0  0  0
 15 16  1  0  0  0  0
 16 21  1  0  0  0  0
 16 17  2  0  0  0  0
 17 18  1  0  0  0  0
 17 35  1  0  0  0  0
 18 19  2  0  0  0  0
 18 36  1  0  0  0  0
 19 20  1  0  0  0  0
 19 37  1  0  0  0  0
 20 21  2  0  0  0  0
 20 38  1  0  0  0  0
 21 39  1  0  0  0  0
M  END
> <s_m_source_file>
AV-unprocessed.smi

> <i_m_source_file_index>
2627

> <i_lp_mmshare_version>
43012

> <i_f3d_flags>
0

> <s_epik_input>
W2NIXTFbY0hdW2NIXVtjSF1jKGMxMiluKGMobjIpW0NASF0oW0NIM10pW09IXSlbQ0gyXVtDSDJdT2MzW2NIXVtjSF1bY0hdW2NIXVtjSF0z

> <s_epik_cmdline>
J2VwaWtfcHl0aG9uJywgJy1waCcsICc3LjAnLCAnLXRuJywgJzgnLCAnLW1hJywgJzIwMCcsICctbWV0YWxfYmluZGluZycsICctaW1hZScsICc8aW5maWxlLm1hZT4nLCAnLW9tYWUnLCAnPG91dGZpbGUubWFlPic=

> <r_lp_tautomer_probability>
1

> <r_epik_Ionization_Penalty>
0.0472514

> <r_epik_Ionization_Penalty_Charging>
0

> <r_epik_Ionization_Penalty_Neutral>
0.0472514

> <r_epik_State_Penalty>
0.040225

> <r_epik_Charging_Adjusted_Penalty>
0.040225

> <i_epik_Tot_Q>
0

> <i_epik_Tot_abs_Q>
0

> <r_epik_Metal_State_Penalty>
4.16204e-05

> <b_epik_Metal_Only>
0

> <s_lp_Force_Field>
OPLS_2005

> <r_lp_Energy>
14.021

> <b_lp_Chiralities_Consistent>
1

> <s_lp_Variant>
AV-unprocessed.smi:2627-2

> <Gold.Version>
5.8.1

> <Gold.Id.Protein>
6NUR|6NUR_protein|mol2

> <Gold.PLP.Fitness>
52.0635

> <Gold.PLP.PLP>
-49.7798

> <Gold.PLP.part.hbond>
-2.6901

> <Gold.PLP.part.metal>
0.0000

> <Gold.PLP.part.buried>
3.6672

> <Gold.PLP.part.nonpolar>
-49.6797

> <Gold.PLP.part.repulsive>
0.7693

> <Gold.PLP.ligand.clash>
0.0000

> <Gold.PLP.ligand.torsion>
0.4349

> <Gold.PLP.Chemscore.Hbond>
1.0000

> <Gold.PLP.Chemscore.CHOScore>
0.0000

> <Gold.PLP.Chemscore.Metal>
0.0000

> <Gold.Chemscore.Hbonds>
donor molecule, donor type, donor heavy atom, donor atom, acceptor molecule, acceptor atom, score
      L1  H     3    26       P1  8028  1.00

> <Gold.PLP.Chemscore.Internal.Correction>
0.1535

> <Gold.Rescore>
     Score         DG    S(hbond)    S(metal)    S(lipo)     H(rot)  DE(clash)    DE(int)     intcor
     17.74     -19.97       1.06        0.00     138.63       2.06       1.85       0.38       ----

> <Gold.Chemscore.Fitness>
17.7413

> <Gold.Chemscore.DG>
-19.9735

> <Gold.Chemscore.ZeroCoef>
-5.4800

> <Gold.Chemscore.Hbond>
1.0605

> <Gold.Chemscore.Metal>
0.0000

> <Gold.Chemscore.Lipo>
138.6260

> <Gold.Chemscore.Internal_Hbond>
0.0000

> <Gold.Chemscore.DEClash>
1.8505

> <Gold.Chemscore.DEInternal>
0.3817

> <Gold.Chemscore.Rot>
2.0577

> <Gold.Chemscore.Internal.Correction>
   9.000000E+99

> <Gold.Chemscore.Hbonds>
donor molecule, donor type, donor heavy atom, donor atom, acceptor molecule, acceptor atom, score
      L1  H     3    26       P1  8028  0.91

> <Gold.Chemscore.Hbond.Weighted>
-3.5420

> <Gold.Chemscore.Metal.Weighted>
-0.0000

> <Gold.Chemscore.Lipo.Weighted>
-16.2192

> <Gold.Chemscore.Internal_Hbond.Weighted>
0.0000

> <Gold.Chemscore.DEClash.Weighted>
1.8505

> <Gold.Chemscore.DEInternal.Weighted>
0.3817

> <Gold.Chemscore.Rot.Weighted>
5.2678

> <Gold.Chemscore.Internal.Correction.Weighted>
   9.000000E+99

> <Gold.Protein.RotatedTorsions>
[ 6907 6896 6895 6894 ] final -102.21 input  -60.11 | X-H torsion
[ 7974 7965 7964 7962 ] final  157.31 input  175.53 | X-H torsion
[ 8008 7997 7996 7995 ] final  -79.21 input   59.86 | X-H torsion
[ 10167 10162 10161 10158 ] final -128.28 input  -65.29 | X-H torsion
[ 10718 10713 10712 10709 ] final  174.33 input   66.30 | X-H torsion
[ 10763 10752 10751 10750 ] final   -6.10 input  -60.55 | X-H torsion
[ 11005 11000 10999 10996 ] final  111.25 input  -57.11 | X-H torsion

> <Gold.Protein.ActiveResidues>
 VAL166  LYS551  ARG553  GLY616  TRP617  ASP618  TYR619  PRO620  LYS621  CYS622 
 ASP623  PHE694  ASN695  SER759  ASP760  ASP761  ALA762  ILE779  LEU786  VAL792 
 PHE793  MET794  SER795  GLU796  ALA797  LYS798  CYS799  TRP800  GLU811  SER814 

> <Gold.Protein.RotatedAtoms>
  150.7186  134.0616  159.3832 H   0  0  0  0  0  0  0  0  0  0  0  0  # atno 6907 bound_to 6896
  151.8596  135.0527  160.0477 H   0  0  0  0  0  0  0  0  0  0  0  0  # atno 6908 bound_to 6896
  152.2728  133.5362  159.5486 H   0  0  0  0  0  0  0  0  0  0  0  0  # atno 6909 bound_to 6896
  144.7911  139.7324  143.6221 H   0  0  0  0  0  0  0  0  0  0  0  0  # atno 7974 bound_to 7965
  154.5763  140.0682  156.9038 H   0  0  0  0  0  0  0  0  0  0  0  0  # atno 8008 bound_to 7997
  155.2544  140.3354  155.4261 H   0  0  0  0  0  0  0  0  0  0  0  0  # atno 8009 bound_to 7997
  156.2156  140.1777  156.7581 H   0  0  0  0  0  0  0  0  0  0  0  0  # atno 8010 bound_to 7997
  139.9519  143.6046  152.2472 H   0  0  0  0  0  0  0  0  0  0  0  0  # atno 10167 bound_to 10162
  156.9512  131.0032  151.2948 H   0  0  0  0  0  0  0  0  0  0  0  0  # atno 10718 bound_to 10713
  153.4077  135.7007  153.6381 H   0  0  0  0  0  0  0  0  0  0  0  0  # atno 10763 bound_to 10752
  153.4888  135.3677  155.2481 H   0  0  0  0  0  0  0  0  0  0  0  0  # atno 10764 bound_to 10752
  154.8715  135.4084  154.3423 H   0  0  0  0  0  0  0  0  0  0  0  0  # atno 10765 bound_to 10752
  139.8899  134.9503  156.6404 H   0  0  0  0  0  0  0  0  0  0  0  0  # atno 11005 bound_to 11000
  146.2162  139.5554  142.9648 LP  0  0  0  0  0  0  0  0  0  0  0  0  # atno 17320 bound_to 7965
  145.5793  141.0384  143.2131 LP  0  0  0  0  0  0  0  0  0  0  0  0  # atno 17321 bound_to 7965
  139.6621  144.7662  151.1942 LP  0  0  0  0  0  0  0  0  0  0  0  0  # atno 17342 bound_to 10162
  140.7580  143.5993  150.8716 LP  0  0  0  0  0  0  0  0  0  0  0  0  # atno 17343 bound_to 10162
  157.5720  130.8317  149.8405 LP  0  0  0  0  0  0  0  0  0  0  0  0  # atno 17370 bound_to 10713
  156.0362  130.3751  150.1555 LP  0  0  0  0  0  0  0  0  0  0  0  0  # atno 17371 bound_to 10713
  140.7598  133.8827  155.8409 LP  0  0  0  0  0  0  0  0  0  0  0  0  # atno 17394 bound_to 11000
  140.9931  134.1251  157.4389 LP  0  0  0  0  0  0  0  0  0  0  0  0  # atno 17395 bound_to 11000

$$$$
