AV-unprocessed.smi:2365|AV-procd|sdf|9422|dock2
  -GOLD-   2272013 63D 1   1.00000     0.00000
 Structure written by MMmdl.
 29 30  0  0  0  0  0  0  0  0  1 V2000
  148.5537  140.5260  154.1147 C   0  0  0  0  0  0  0  0  0  0  0  0
  149.5825  139.7738  154.9647 C   0  0  1  0  0  0  0  0  0  0  0  0
  149.7054  138.2904  154.6373 C   0  0  0  0  0  0  0  0  0  0  0  0
  151.0894  137.9425  155.1595 C   0  0  0  0  0  0  0  0  0  0  0  0
  151.8417  139.2886  155.1714 C   0  0  2  0  0  0  0  0  0  0  0  0
  152.3609  139.6830  156.5663 C   0  0  0  0  0  0  0  0  0  0  0  0
  153.1419  138.9339  157.1527 O   0  0  0  0  0  0  0  0  0  0  0  0
  151.9159  140.8505  157.0671 N   0  0  0  0  0  0  0  0  0  0  0  0
  152.1958  141.4302  158.3339 C   0  0  0  0  0  0  0  0  0  0  0  0
  152.7409  140.6983  159.4170 C   0  0  0  0  0  0  0  0  0  0  0  0
  153.0305  141.2473  160.6155 N   0  0  0  0  0  0  0  0  0  0  0  0
  152.7913  142.5643  160.7832 C   0  0  0  0  0  0  0  0  0  0  0  0
  152.2664  143.3911  159.7709 C   0  0  0  0  0  0  0  0  0  0  0  0
  152.0025  145.0708  160.0777 Cl  0  0  0  0  0  0  0  0  0  0  0  0
  151.9678  142.8133  158.5178 C   0  0  0  0  0  0  0  0  0  0  0  0
  151.3238  143.7811  157.2341 Cl  0  0  0  0  0  0  0  0  0  0  0  0
  150.8934  140.2492  154.6993 O   0  0  0  0  0  0  0  0  0  0  0  0
  147.5478  140.1443  154.2898 H   0  0  0  0  0  0  0  0  0  0  0  0
  148.7704  140.4263  153.0508 H   0  0  0  0  0  0  0  0  0  0  0  0
  148.5540  141.5891  154.3564 H   0  0  0  0  0  0  0  0  0  0  0  0
  149.3626  139.9071  156.0254 H   0  0  0  0  0  0  0  0  0  0  0  0
  148.9160  137.6889  155.0886 H   0  0  0  0  0  0  0  0  0  0  0  0
  149.6725  138.1379  153.5577 H   0  0  0  0  0  0  0  0  0  0  0  0
  151.0077  137.5086  156.1574 H   0  0  0  0  0  0  0  0  0  0  0  0
  151.5815  137.2055  154.5242 H   0  0  0  0  0  0  0  0  0  0  0  0
  152.6862  139.2672  154.4821 H   0  0  0  0  0  0  0  0  0  0  0  0
  151.2131  141.3228  156.5158 H   0  0  0  0  0  0  0  0  0  0  0  0
  152.9774  139.6490  159.3291 H   0  0  0  0  0  0  0  0  0  0  0  0
  153.0318  142.9721  161.7541 H   0  0  0  0  0  0  0  0  0  0  0  0
  1  2  1  0  0  0  0
  1 18  1  0  0  0  0
  1 19  1  0  0  0  0
  1 20  1  0  0  0  0
  2 17  1  0  0  0  0
  2  3  1  0  0  0  0
  2 21  1  0  0  0  0
  3  4  1  0  0  0  0
  3 22  1  0  0  0  0
  3 23  1  0  0  0  0
  4  5  1  0  0  0  0
  4 24  1  0  0  0  0
  4 25  1  0  0  0  0
  5  6  1  0  0  0  0
  5 17  1  0  0  0  0
  5 26  1  0  0  0  0
  6  7  2  0  0  0  0
  6  8  1  0  0  0  0
  8  9  1  0  0  0  0
  8 27  1  0  0  0  0
  9 15  1  0  0  0  0
  9 10  2  0  0  0  0
 10 11  1  0  0  0  0
 10 28  1  0  0  0  0
 11 12  2  0  0  0  0
 12 13  1  0  0  0  0
 12 29  1  0  0  0  0
 13 14  1  0  0  0  0
 13 15  2  0  0  0  0
 15 16  1  0  0  0  0
M  END
> <s_m_source_file>
AV-unprocessed.smi

> <i_m_source_file_index>
2365

> <i_lp_mmshare_version>
43012

> <i_f3d_flags>
0

> <s_epik_input>
W0NIM11bQ0BASF0xW0NIMl1bQ0gyXVtDQEhdKE8xKUMoPU8pW05IXWMyW2NIXW5bY0hdYyhDbCljMkNs

> <s_epik_cmdline>
J2VwaWtfcHl0aG9uJywgJy1waCcsICc3LjAnLCAnLXRuJywgJzgnLCAnLW1hJywgJzIwMCcsICctbWV0YWxfYmluZGluZycsICctaW1hZScsICc8aW5maWxlLm1hZT4nLCAnLW9tYWUnLCAnPG91dGZpbGUubWFlPic=

> <r_lp_tautomer_probability>
1

> <r_epik_Ionization_Penalty>
7.32461e-06

> <r_epik_Ionization_Penalty_Charging>
0

> <r_epik_Ionization_Penalty_Neutral>
7.32461e-06

> <r_epik_State_Penalty>
-0

> <r_epik_Charging_Adjusted_Penalty>
0

> <i_epik_Tot_Q>
0

> <i_epik_Tot_abs_Q>
0

> <r_epik_Metal_State_Penalty>
-0

> <b_epik_Metal_Only>
0

> <s_lp_Force_Field>
OPLS_2005

> <r_lp_Energy>
23.5341

> <b_lp_Chiralities_Consistent>
1

> <s_lp_Variant>
AV-unprocessed.smi:2365-4

> <Gold.Version>
5.8.1

> <Gold.Id.Protein>
6NUR|6NUR_protein|mol2

> <Gold.PLP.Fitness>
40.8120

> <Gold.PLP.PLP>
-35.3684

> <Gold.PLP.part.hbond>
-1.9525

> <Gold.PLP.part.metal>
0.0000

> <Gold.PLP.part.buried>
0.2650

> <Gold.PLP.part.nonpolar>
-33.0677

> <Gold.PLP.part.repulsive>
0.2045

> <Gold.PLP.ligand.clash>
0.0000

> <Gold.PLP.ligand.torsion>
0.0811

> <Gold.PLP.Chemscore.Hbond>
1.8664

> <Gold.PLP.Chemscore.CHOScore>
0.0000

> <Gold.PLP.Chemscore.Metal>
0.0000

> <Gold.Chemscore.Hbonds>
donor molecule, donor type, donor heavy atom, donor atom, acceptor molecule, acceptor atom, score
      P1  H  7989  7998       L1    17  1.00
      P1  H  7997  8008       L1     7  0.80

> <Gold.PLP.Chemscore.Internal.Correction>
0.0067

> <Gold.Rescore>
     Score         DG    S(hbond)    S(metal)    S(lipo)     H(rot)  DE(clash)    DE(int)     intcor
     15.13     -16.52       0.55        0.00     100.40       1.00       0.06       1.33       ----

> <Gold.Chemscore.Fitness>
15.1288

> <Gold.Chemscore.DG>
-16.5179

> <Gold.Chemscore.ZeroCoef>
-5.4800

> <Gold.Chemscore.Hbond>
0.5542

> <Gold.Chemscore.Metal>
0.0000

> <Gold.Chemscore.Lipo>
100.4010

> <Gold.Chemscore.Internal_Hbond>
0.0000

> <Gold.Chemscore.DEClash>
0.0618

> <Gold.Chemscore.DEInternal>
1.3272

> <Gold.Chemscore.Rot>
1.0000

> <Gold.Chemscore.Internal.Correction>
   9.000000E+99

> <Gold.Chemscore.Hbonds>
donor molecule, donor type, donor heavy atom, donor atom, acceptor molecule, acceptor atom, score
      P1  H  7989  7998       L1    17  0.33
      P1  H  7997  8008       L1     7  0.13

> <Gold.Chemscore.Hbond.Weighted>
-1.8509

> <Gold.Chemscore.Metal.Weighted>
-0.0000

> <Gold.Chemscore.Lipo.Weighted>
-11.7469

> <Gold.Chemscore.Internal_Hbond.Weighted>
0.0000

> <Gold.Chemscore.DEClash.Weighted>
0.0618

> <Gold.Chemscore.DEInternal.Weighted>
1.3272

> <Gold.Chemscore.Rot.Weighted>
2.5600

> <Gold.Chemscore.Internal.Correction.Weighted>
   9.000000E+99

> <Gold.Protein.RotatedTorsions>
[ 6907 6896 6895 6894 ] final  112.43 input  -60.11 | X-H torsion
[ 7974 7965 7964 7962 ] final -148.49 input  175.53 | X-H torsion
[ 8008 7997 7996 7995 ] final  -88.61 input   59.86 | X-H torsion
[ 10167 10162 10161 10158 ] final -178.57 input  -65.29 | X-H torsion
[ 10718 10713 10712 10709 ] final  -90.52 input   66.30 | X-H torsion
[ 10763 10752 10751 10750 ] final   51.19 input  -60.55 | X-H torsion
[ 11005 11000 10999 10996 ] final -107.16 input  -57.11 | X-H torsion

> <Gold.Protein.ActiveResidues>
 VAL166  LYS551  ARG553  GLY616  TRP617  ASP618  TYR619  PRO620  LYS621  CYS622 
 ASP623  PHE694  ASN695  SER759  ASP760  ASP761  ALA762  ILE779  LEU786  VAL792 
 PHE793  MET794  SER795  GLU796  ALA797  LYS798  CYS799  TRP800  GLU811  SER814 

> <Gold.Protein.RotatedAtoms>
  152.4917  133.8517  159.7204 H   0  0  0  0  0  0  0  0  0  0  0  0  # atno 6907 bound_to 6896
  150.9052  133.7058  159.2875 H   0  0  0  0  0  0  0  0  0  0  0  0  # atno 6908 bound_to 6896
  151.4485  135.1031  159.9743 H   0  0  0  0  0  0  0  0  0  0  0  0  # atno 6909 bound_to 6896
  144.8026  140.5189  143.5697 H   0  0  0  0  0  0  0  0  0  0  0  0  # atno 7974 bound_to 7965
  154.6768  140.0551  157.0224 H   0  0  0  0  0  0  0  0  0  0  0  0  # atno 8008 bound_to 7997
  155.1009  140.3229  155.4529 H   0  0  0  0  0  0  0  0  0  0  0  0  # atno 8009 bound_to 7997
  156.2679  140.2031  156.6135 H   0  0  0  0  0  0  0  0  0  0  0  0  # atno 8010 bound_to 7997
  139.5426  144.2322  152.0925 H   0  0  0  0  0  0  0  0  0  0  0  0  # atno 10167 bound_to 10162
  155.9988  130.4913  150.5335 H   0  0  0  0  0  0  0  0  0  0  0  0  # atno 10718 bound_to 10713
  152.9785  135.5854  154.4374 H   0  0  0  0  0  0  0  0  0  0  0  0  # atno 10763 bound_to 10752
  154.3980  135.2768  155.2116 H   0  0  0  0  0  0  0  0  0  0  0  0  # atno 10764 bound_to 10752
  154.3959  135.6114  153.5924 H   0  0  0  0  0  0  0  0  0  0  0  0  # atno 10765 bound_to 10752
  141.0968  133.8957  157.1943 H   0  0  0  0  0  0  0  0  0  0  0  0  # atno 11005 bound_to 11000
  145.5516  139.1477  143.3391 LP  0  0  0  0  0  0  0  0  0  0  0  0  # atno 17320 bound_to 7965
  146.2310  140.5654  142.8975 LP  0  0  0  0  0  0  0  0  0  0  0  0  # atno 17321 bound_to 7965
  140.1803  144.4851  150.6532 LP  0  0  0  0  0  0  0  0  0  0  0  0  # atno 17342 bound_to 10162
  140.6662  143.2269  151.5737 LP  0  0  0  0  0  0  0  0  0  0  0  0  # atno 17343 bound_to 10162
  157.3281  131.0694  151.1881 LP  0  0  0  0  0  0  0  0  0  0  0  0  # atno 17370 bound_to 10713
  157.2771  130.6732  149.6048 LP  0  0  0  0  0  0  0  0  0  0  0  0  # atno 17371 bound_to 10713
  139.9807  135.0099  156.9742 LP  0  0  0  0  0  0  0  0  0  0  0  0  # atno 17394 bound_to 11000
  140.5121  134.0992  155.7272 LP  0  0  0  0  0  0  0  0  0  0  0  0  # atno 17395 bound_to 11000

$$$$
