AV-unprocessed.smi:2727|AV-procd|sdf|10521|dock3
  -GOLD-   2272014563D 1   1.00000     0.00000
 Structure written by MMmdl.
 40 41  0  0  0  0  0  0  0  0  1 V2000
  146.0537  133.7218  154.2226 O   0  0  0  0  0  0  0  0  0  0  0  0
  146.8600  134.2491  153.4556 C   0  0  0  0  0  0  0  0  0  0  0  0
  147.9449  134.9198  153.8698 N   0  0  0  0  0  0  0  0  0  0  0  0
  148.3176  135.1262  155.2650 C   0  0  0  0  0  0  0  0  0  0  0  0
  148.8382  136.5578  155.5082 C   0  0  0  0  0  0  0  0  0  0  0  0
  150.3030  136.7651  155.0829 C   0  0  0  0  0  0  0  0  0  0  0  0
  151.1122  135.8517  155.2561 O   0  0  0  0  0  0  0  0  0  0  0  0
  150.6663  137.9485  154.5298 N   0  0  0  0  0  0  0  0  0  0  0  0
  152.0551  138.2150  154.1350 C   0  0  0  0  0  0  0  0  0  0  0  0
  152.9232  138.6683  155.3269 C   0  0  0  0  0  0  0  0  0  0  0  0
  152.2105  139.5265  156.3952 C   0  0  0  0  0  0  0  0  0  0  0  0
  151.2504  140.6000  155.8453 C   0  0  0  0  0  0  0  0  0  0  0  0
  149.8360  140.0667  155.5317 C   0  0  0  0  0  0  0  0  0  0  0  0
  149.7705  139.0980  154.3366 C   0  0  0  0  0  0  0  0  0  0  0  0
  146.7773  134.2322  152.1146 N   0  0  0  0  0  0  0  0  0  0  0  0
  145.7795  133.6138  151.3195 C   0  0  0  0  0  0  0  0  0  0  0  0
  145.9799  132.8450  150.2479 N   0  0  0  0  0  0  0  0  0  0  0  0
  144.7060  132.4916  149.8275 C   0  0  0  0  0  0  0  0  0  0  0  0
  143.7991  133.0717  150.6768 C   0  0  0  0  0  0  0  0  0  0  0  0
  144.4683  133.7896  151.6317 O   0  0  0  0  0  0  0  0  0  0  0  0
  148.5539  135.3219  153.1722 H   0  0  0  0  0  0  0  0  0  0  0  0
  147.4331  134.9396  155.8753 H   0  0  0  0  0  0  0  0  0  0  0  0
  149.0628  134.3851  155.5605 H   0  0  0  0  0  0  0  0  0  0  0  0
  148.2186  137.2681  154.9598 H   0  0  0  0  0  0  0  0  0  0  0  0
  148.7377  136.7932  156.5677 H   0  0  0  0  0  0  0  0  0  0  0  0
  152.5001  137.3391  153.6598 H   0  0  0  0  0  0  0  0  0  0  0  0
  152.0875  138.9877  153.3664 H   0  0  0  0  0  0  0  0  0  0  0  0
  153.3404  137.7896  155.8201 H   0  0  0  0  0  0  0  0  0  0  0  0
  153.7798  139.2181  154.9359 H   0  0  0  0  0  0  0  0  0  0  0  0
  151.6678  138.8782  157.0845 H   0  0  0  0  0  0  0  0  0  0  0  0
  152.9766  140.0120  157.0006 H   0  0  0  0  0  0  0  0  0  0  0  0
  151.1484  141.3799  156.6006 H   0  0  0  0  0  0  0  0  0  0  0  0
  151.6824  141.0883  154.9711 H   0  0  0  0  0  0  0  0  0  0  0  0
  149.4243  139.5884  156.4208 H   0  0  0  0  0  0  0  0  0  0  0  0
  149.1814  140.9134  155.3234 H   0  0  0  0  0  0  0  0  0  0  0  0
  150.0335  139.6336  153.4237 H   0  0  0  0  0  0  0  0  0  0  0  0
  148.7402  138.7841  154.1715 H   0  0  0  0  0  0  0  0  0  0  0  0
  147.5072  134.7096  151.6070 H   0  0  0  0  0  0  0  0  0  0  0  0
  144.5460  131.8615  148.9651 H   0  0  0  0  0  0  0  0  0  0  0  0
  142.7207  133.0726  150.7348 H   0  0  0  0  0  0  0  0  0  0  0  0
  1  2  2  0  0  0  0
  2  3  1  0  0  0  0
  2 15  1  0  0  0  0
  3  4  1  0  0  0  0
  3 21  1  0  0  0  0
  4  5  1  0  0  0  0
  4 22  1  0  0  0  0
  4 23  1  0  0  0  0
  5  6  1  0  0  0  0
  5 24  1  0  0  0  0
  5 25  1  0  0  0  0
  6  7  2  0  0  0  0
  6  8  1  0  0  0  0
  8 14  1  0  0  0  0
  8  9  1  0  0  0  0
  9 10  1  0  0  0  0
  9 26  1  0  0  0  0
  9 27  1  0  0  0  0
 10 11  1  0  0  0  0
 10 28  1  0  0  0  0
 10 29  1  0  0  0  0
 11 12  1  0  0  0  0
 11 30  1  0  0  0  0
 11 31  1  0  0  0  0
 12 13  1  0  0  0  0
 12 32  1  0  0  0  0
 12 33  1  0  0  0  0
 13 14  1  0  0  0  0
 13 34  1  0  0  0  0
 13 35  1  0  0  0  0
 14 36  1  0  0  0  0
 14 37  1  0  0  0  0
 15 16  1  0  0  0  0
 15 38  1  0  0  0  0
 16 20  1  0  0  0  0
 16 17  2  0  0  0  0
 17 18  1  0  0  0  0
 18 19  2  0  0  0  0
 18 39  1  0  0  0  0
 19 20  1  0  0  0  0
 19 40  1  0  0  0  0
M  END
> <s_m_source_file>
AV-unprocessed.smi

> <i_m_source_file_index>
2727

> <i_lp_mmshare_version>
43012

> <i_f3d_flags>
0

> <s_epik_input>
bzFbY0hdW2NIXW5jMVtOSF1DKD1PKVtOSF1bQ0gyXVtDSDJdQyg9TylOMltDSDJdW0NIMl1bQ0gyXVtDSDJdW0NIMl1bQ0gyXTI=

> <s_epik_cmdline>
J2VwaWtfcHl0aG9uJywgJy1waCcsICc3LjAnLCAnLXRuJywgJzgnLCAnLW1hJywgJzIwMCcsICctbWV0YWxfYmluZGluZycsICctaW1hZScsICc8aW5maWxlLm1hZT4nLCAnLW9tYWUnLCAnPG91dGZpbGUubWFlPic=

> <r_lp_tautomer_probability>
0.785861

> <r_epik_Ionization_Penalty>
4.25735e-05

> <r_epik_Ionization_Penalty_Charging>
0

> <r_epik_Ionization_Penalty_Neutral>
4.25735e-05

> <r_epik_State_Penalty>
0.0209239

> <r_epik_Charging_Adjusted_Penalty>
0.0209239

> <i_epik_Tot_Q>
0

> <i_epik_Tot_abs_Q>
0

> <r_epik_Metal_State_Penalty>
0.0088118

> <b_epik_Metal_Only>
0

> <s_lp_Force_Field>
OPLS_2005

> <r_lp_Energy>
23.803

> <b_lp_Chiralities_Consistent>
1

> <s_lp_Variant>
AV-unprocessed.smi:2727-1

> <Gold.Version>
5.8.1

> <Gold.Id.Protein>
6NUR|6NUR_protein|mol2

> <Gold.PLP.Fitness>
42.1924

> <Gold.PLP.PLP>
-32.5929

> <Gold.PLP.part.hbond>
-3.0000

> <Gold.PLP.part.metal>
0.0000

> <Gold.PLP.part.buried>
-3.7489

> <Gold.PLP.part.nonpolar>
-25.6951

> <Gold.PLP.part.repulsive>
0.5286

> <Gold.PLP.ligand.clash>
0.0000

> <Gold.PLP.ligand.torsion>
0.9497

> <Gold.PLP.Chemscore.Hbond>
2.8247

> <Gold.PLP.Chemscore.CHOScore>
1.0000

> <Gold.PLP.Chemscore.Metal>
0.0000

> <Gold.Chemscore.Hbonds>
donor molecule, donor type, donor heavy atom, donor atom, acceptor molecule, acceptor atom, score
      L1  H     3    21       P1  7948  1.00
      L1  H    15    38       P1  7948  0.79
      P1  H 10752 10765       L1     7  1.00
      L1  C    19    40       P1 10186  1.00

> <Gold.PLP.Chemscore.Internal.Correction>
0.0248

> <Gold.Rescore>
     Score         DG    S(hbond)    S(metal)    S(lipo)     H(rot)  DE(clash)    DE(int)     intcor
     15.56     -17.46       2.67        0.00      63.47       1.70       0.09       1.80       ----

> <Gold.Chemscore.Fitness>
15.5619

> <Gold.Chemscore.DG>
-17.4569

> <Gold.Chemscore.ZeroCoef>
-5.4800

> <Gold.Chemscore.Hbond>
2.6675

> <Gold.Chemscore.Metal>
0.0000

> <Gold.Chemscore.Lipo>
63.4692

> <Gold.Chemscore.Internal_Hbond>
0.0000

> <Gold.Chemscore.DEClash>
0.0910

> <Gold.Chemscore.DEInternal>
1.8040

> <Gold.Chemscore.Rot>
1.7025

> <Gold.Chemscore.Internal.Correction>
   9.000000E+99

> <Gold.Chemscore.Hbonds>
donor molecule, donor type, donor heavy atom, donor atom, acceptor molecule, acceptor atom, score
      L1  H     3    21       P1  7948  0.89
      L1  H    15    38       P1  7948  0.34
      P1  H 10752 10765       L1     7  0.97

> <Gold.Chemscore.Hbond.Weighted>
-8.9094

> <Gold.Chemscore.Metal.Weighted>
-0.0000

> <Gold.Chemscore.Lipo.Weighted>
-7.4259

> <Gold.Chemscore.Internal_Hbond.Weighted>
0.0000

> <Gold.Chemscore.DEClash.Weighted>
0.0910

> <Gold.Chemscore.DEInternal.Weighted>
1.8040

> <Gold.Chemscore.Rot.Weighted>
4.3584

> <Gold.Chemscore.Internal.Correction.Weighted>
   9.000000E+99

> <Gold.Protein.RotatedTorsions>
[ 6907 6896 6895 6894 ] final  -87.87 input  -60.11 | X-H torsion
[ 7974 7965 7964 7962 ] final  -75.65 input  175.53 | X-H torsion
[ 8008 7997 7996 7995 ] final -163.27 input   59.86 | X-H torsion
[ 10167 10162 10161 10158 ] final  126.23 input  -65.29 | X-H torsion
[ 10718 10713 10712 10709 ] final -130.92 input   66.30 | X-H torsion
[ 10763 10752 10751 10750 ] final  173.52 input  -60.55 | X-H torsion
[ 11005 11000 10999 10996 ] final -132.35 input  -57.11 | X-H torsion

> <Gold.Protein.ActiveResidues>
 VAL166  LYS551  ARG553  GLY616  TRP617  ASP618  TYR619  PRO620  LYS621  CYS622 
 ASP623  PHE694  ASN695  SER759  ASP760  ASP761  ALA762  ILE779  LEU786  VAL792 
 PHE793  MET794  SER795  GLU796  ALA797  LYS798  CYS799  TRP800  GLU811  SER814 

> <Gold.Protein.RotatedAtoms>
  150.6867  134.2829  159.4634 H   0  0  0  0  0  0  0  0  0  0  0  0  # atno 6907 bound_to 6896
  152.0741  134.9511  160.0583 H   0  0  0  0  0  0  0  0  0  0  0  0  # atno 6908 bound_to 6896
  152.0889  133.4156  159.4572 H   0  0  0  0  0  0  0  0  0  0  0  0  # atno 6909 bound_to 6896
  145.6232  140.9357  143.1127 H   0  0  0  0  0  0  0  0  0  0  0  0  # atno 7974 bound_to 7965
  155.8188  140.0916  157.1861 H   0  0  0  0  0  0  0  0  0  0  0  0  # atno 8008 bound_to 7997
  154.3979  140.1441  156.3535 H   0  0  0  0  0  0  0  0  0  0  0  0  # atno 8009 bound_to 7997
  155.8288  140.3443  155.5562 H   0  0  0  0  0  0  0  0  0  0  0  0  # atno 8010 bound_to 7997
  139.5642  144.6901  151.3956 H   0  0  0  0  0  0  0  0  0  0  0  0  # atno 10167 bound_to 10162
  156.2192  130.6968  151.0737 H   0  0  0  0  0  0  0  0  0  0  0  0  # atno 10718 bound_to 10713
  154.4411  135.2762  155.1847 H   0  0  0  0  0  0  0  0  0  0  0  0  # atno 10763 bound_to 10752
  154.3712  135.6108  153.5745 H   0  0  0  0  0  0  0  0  0  0  0  0  # atno 10764 bound_to 10752
  152.9841  135.5858  154.4739 H   0  0  0  0  0  0  0  0  0  0  0  0  # atno 10765 bound_to 10752
  140.9178  134.1484  157.4338 H   0  0  0  0  0  0  0  0  0  0  0  0  # atno 11005 bound_to 11000
  144.7222  139.7991  143.7377 LP  0  0  0  0  0  0  0  0  0  0  0  0  # atno 17320 bound_to 7965
  146.1414  139.4472  143.0106 LP  0  0  0  0  0  0  0  0  0  0  0  0  # atno 17321 bound_to 7965
  140.6925  143.7829  150.7276 LP  0  0  0  0  0  0  0  0  0  0  0  0  # atno 17342 bound_to 10162
  140.1315  143.4522  152.2251 LP  0  0  0  0  0  0  0  0  0  0  0  0  # atno 17343 bound_to 10162
  157.7079  131.0748  150.6604 LP  0  0  0  0  0  0  0  0  0  0  0  0  # atno 17370 bound_to 10713
  156.6666  130.4527  149.5670 LP  0  0  0  0  0  0  0  0  0  0  0  0  # atno 17371 bound_to 10713
  139.8769  134.9960  156.5772 LP  0  0  0  0  0  0  0  0  0  0  0  0  # atno 17394 bound_to 11000
  140.8027  133.8492  155.8741 LP  0  0  0  0  0  0  0  0  0  0  0  0  # atno 17395 bound_to 11000

$$$$
