AV-unprocessed.smi:2040|AV-procd|sdf|8286|dock7
  -GOLD-   2272010553D 1   1.00000     0.00000
 Structure written by MMmdl.
 38 39  0  0  0  0  0  0  0  0  1 V2000
  153.4539  141.7621  160.7328 C   0  0  0  0  0  0  0  0  0  0  0  0
  152.3891  142.3973  159.8882 C   0  0  0  0  0  0  0  0  0  0  0  0
  151.5731  141.7810  158.8955 C   0  0  0  0  0  0  0  0  0  0  0  0
  150.7958  142.8184  158.4578 C   0  0  0  0  0  0  0  0  0  0  0  0
  149.8215  142.8162  157.5097 N   0  0  0  0  0  0  0  0  0  0  0  0
  149.3187  141.7745  156.8244 C   0  0  0  0  0  0  0  0  0  0  0  0
  149.6917  140.6060  156.9284 O   0  0  0  0  0  0  0  0  0  0  0  0
  148.3426  142.1707  155.9946 N   0  0  0  0  0  0  0  0  0  0  0  0
  147.5691  141.3024  155.1088 C   0  0  2  0  0  0  0  0  0  0  0  0
  148.2294  141.2731  153.7221 C   0  0  0  0  0  0  0  0  0  0  0  0
  146.1077  141.7870  155.0460 C   0  0  2  0  0  0  0  0  0  0  0  0
  145.9122  143.1257  154.3288 C   0  0  0  0  0  0  0  0  0  0  0  0
  144.6346  143.6299  154.9581 C   0  0  0  0  0  0  0  0  0  0  0  0
  144.8144  143.1913  156.4072 C   0  0  0  0  0  0  0  0  0  0  0  0
  145.5918  141.9976  156.3595 O   0  0  0  0  0  0  0  0  0  0  0  0
  151.1390  143.9560  159.1541 N   0  0  0  0  0  0  0  0  0  0  0  0
  150.6001  145.2979  159.0486 C   0  0  0  0  0  0  0  0  0  0  0  0
  152.1267  143.6910  160.0365 N   0  0  0  0  0  0  0  0  0  0  0  0
  153.5049  140.6870  160.5593 H   0  0  0  0  0  0  0  0  0  0  0  0
  153.2594  141.9171  161.7944 H   0  0  0  0  0  0  0  0  0  0  0  0
  154.4347  142.1812  160.5075 H   0  0  0  0  0  0  0  0  0  0  0  0
  151.5741  140.7498  158.5759 H   0  0  0  0  0  0  0  0  0  0  0  0
  149.4240  143.7197  157.2995 H   0  0  0  0  0  0  0  0  0  0  0  0
  148.1079  143.1524  155.9772 H   0  0  0  0  0  0  0  0  0  0  0  0
  147.5621  140.2838  155.5009 H   0  0  0  0  0  0  0  0  0  0  0  0
  147.6919  140.6101  153.0439 H   0  0  0  0  0  0  0  0  0  0  0  0
  149.2570  140.9130  153.7843 H   0  0  0  0  0  0  0  0  0  0  0  0
  148.2502  142.2652  153.2702 H   0  0  0  0  0  0  0  0  0  0  0  0
  145.4815  141.0342  154.5638 H   0  0  0  0  0  0  0  0  0  0  0  0
  146.7330  143.8079  154.5561 H   0  0  0  0  0  0  0  0  0  0  0  0
  145.8432  143.0234  153.2454 H   0  0  0  0  0  0  0  0  0  0  0  0
  144.4967  144.7061  154.8514 H   0  0  0  0  0  0  0  0  0  0  0  0
  143.7740  143.1269  154.5151 H   0  0  0  0  0  0  0  0  0  0  0  0
  145.3719  143.9441  156.9656 H   0  0  0  0  0  0  0  0  0  0  0  0
  143.8630  143.0287  156.9145 H   0  0  0  0  0  0  0  0  0  0  0  0
  150.8058  145.6974  158.0553 H   0  0  0  0  0  0  0  0  0  0  0  0
  151.0518  145.9536  159.7940 H   0  0  0  0  0  0  0  0  0  0  0  0
  149.5219  145.2733  159.2075 H   0  0  0  0  0  0  0  0  0  0  0  0
  1  2  1  0  0  0  0
  1 19  1  0  0  0  0
  1 20  1  0  0  0  0
  1 21  1  0  0  0  0
  2 18  2  0  0  0  0
  2  3  1  0  0  0  0
  3  4  2  0  0  0  0
  3 22  1  0  0  0  0
  4  5  1  0  0  0  0
  4 16  1  0  0  0  0
  5  6  1  0  0  0  0
  5 23  1  0  0  0  0
  6  7  2  0  0  0  0
  6  8  1  0  0  0  0
  8  9  1  0  0  0  0
  8 24  1  0  0  0  0
  9 10  1  0  0  0  0
  9 11  1  0  0  0  0
  9 25  1  0  0  0  0
 10 26  1  0  0  0  0
 10 27  1  0  0  0  0
 10 28  1  0  0  0  0
 11 15  1  0  0  0  0
 11 12  1  0  0  0  0
 11 29  1  0  0  0  0
 12 13  1  0  0  0  0
 12 30  1  0  0  0  0
 12 31  1  0  0  0  0
 13 14  1  0  0  0  0
 13 32  1  0  0  0  0
 13 33  1  0  0  0  0
 14 15  1  0  0  0  0
 14 34  1  0  0  0  0
 14 35  1  0  0  0  0
 16 17  1  0  0  0  0
 16 18  1  0  0  0  0
 17 36  1  0  0  0  0
 17 37  1  0  0  0  0
 17 38  1  0  0  0  0
M  END
> <s_m_source_file>
AV-unprocessed.smi

> <i_m_source_file_index>
2040

> <i_lp_mmshare_version>
43012

> <i_f3d_flags>
0

> <s_epik_input>
W0NIM11jMVtjSF1jKG4objEpW0NIM10pW05IXUMoPU8pW05IXVtDQEhdKFtDSDNdKVtDQEBIXTJbQ0gyXVtDSDJdW0NIMl1PMg==

> <s_epik_cmdline>
J2VwaWtfcHl0aG9uJywgJy1waCcsICc3LjAnLCAnLXRuJywgJzgnLCAnLW1hJywgJzIwMCcsICctbWV0YWxfYmluZGluZycsICctaW1hZScsICc8aW5maWxlLm1hZT4nLCAnLW9tYWUnLCAnPG91dGZpbGUubWFlPic=

> <r_lp_tautomer_probability>
1

> <r_epik_Ionization_Penalty>
9.09088e-05

> <r_epik_Ionization_Penalty_Charging>
0

> <r_epik_Ionization_Penalty_Neutral>
9.09088e-05

> <r_epik_State_Penalty>
-0

> <r_epik_Charging_Adjusted_Penalty>
0

> <i_epik_Tot_Q>
0

> <i_epik_Tot_abs_Q>
0

> <r_epik_Metal_State_Penalty>
-0

> <b_epik_Metal_Only>
0

> <s_lp_Force_Field>
OPLS_2005

> <r_lp_Energy>
18.8843

> <b_lp_Chiralities_Consistent>
1

> <s_lp_Variant>
AV-unprocessed.smi:2040-1

> <Gold.Version>
5.8.1

> <Gold.Id.Protein>
6NUR|6NUR_protein|mol2

> <Gold.PLP.Fitness>
41.7619

> <Gold.PLP.PLP>
-36.6344

> <Gold.PLP.part.hbond>
-2.0000

> <Gold.PLP.part.metal>
0.0000

> <Gold.PLP.part.buried>
-4.7419

> <Gold.PLP.part.nonpolar>
-29.9794

> <Gold.PLP.part.repulsive>
0.2250

> <Gold.PLP.ligand.clash>
0.0000

> <Gold.PLP.ligand.torsion>
0.4295

> <Gold.PLP.Chemscore.Hbond>
1.9920

> <Gold.PLP.Chemscore.CHOScore>
0.0000

> <Gold.PLP.Chemscore.Metal>
0.0000

> <Gold.Chemscore.Hbonds>
donor molecule, donor type, donor heavy atom, donor atom, acceptor molecule, acceptor atom, score
      L1  H     5    23       P1  8028  0.75
      L1  H     8    24       P1  8028  0.82

> <Gold.PLP.Chemscore.Internal.Correction>
0.0104

> <Gold.Rescore>
     Score         DG    S(hbond)    S(metal)    S(lipo)     H(rot)  DE(clash)    DE(int)     intcor
     14.45     -17.64       1.91        0.00      76.39       1.23       1.62       1.57       ----

> <Gold.Chemscore.Fitness>
14.4453

> <Gold.Chemscore.DG>
-17.6412

> <Gold.Chemscore.ZeroCoef>
-5.4800

> <Gold.Chemscore.Hbond>
1.9109

> <Gold.Chemscore.Metal>
0.0000

> <Gold.Chemscore.Lipo>
76.3857

> <Gold.Chemscore.Internal_Hbond>
0.0000

> <Gold.Chemscore.DEClash>
1.6240

> <Gold.Chemscore.DEInternal>
1.5719

> <Gold.Chemscore.Rot>
1.2338

> <Gold.Chemscore.Internal.Correction>
   9.000000E+99

> <Gold.Chemscore.Hbonds>
donor molecule, donor type, donor heavy atom, donor atom, acceptor molecule, acceptor atom, score
      L1  H     5    23       P1  8028  0.45
      L1  H     8    24       P1  8028  0.53

> <Gold.Chemscore.Hbond.Weighted>
-6.3825

> <Gold.Chemscore.Metal.Weighted>
-0.0000

> <Gold.Chemscore.Lipo.Weighted>
-8.9371

> <Gold.Chemscore.Internal_Hbond.Weighted>
0.0000

> <Gold.Chemscore.DEClash.Weighted>
1.6240

> <Gold.Chemscore.DEInternal.Weighted>
1.5719

> <Gold.Chemscore.Rot.Weighted>
3.1584

> <Gold.Chemscore.Internal.Correction.Weighted>
   9.000000E+99

> <Gold.Protein.RotatedTorsions>
[ 6907 6896 6895 6894 ] final -108.25 input  -60.11 | X-H torsion
[ 7974 7965 7964 7962 ] final  -13.39 input  175.53 | X-H torsion
[ 8008 7997 7996 7995 ] final   66.74 input   59.86 | X-H torsion
[ 10167 10162 10161 10158 ] final  154.32 input  -65.29 | X-H torsion
[ 10718 10713 10712 10709 ] final  177.45 input   66.30 | X-H torsion
[ 10763 10752 10751 10750 ] final  -90.22 input  -60.55 | X-H torsion
[ 11005 11000 10999 10996 ] final  163.68 input  -57.11 | X-H torsion

> <Gold.Protein.ActiveResidues>
 VAL166  LYS551  ARG553  GLY616  TRP617  ASP618  TYR619  PRO620  LYS621  CYS622 
 ASP623  PHE694  ASN695  SER759  ASP760  ASP761  ALA762  ILE779  LEU786  VAL792 
 PHE793  MET794  SER795  GLU796  ALA797  LYS798  CYS799  TRP800  GLU811  SER814 

> <Gold.Protein.RotatedAtoms>
  150.7491  133.9705  159.3544 H   0  0  0  0  0  0  0  0  0  0  0  0  # atno 6907 bound_to 6896
  151.7639  135.0801  160.0359 H   0  0  0  0  0  0  0  0  0  0  0  0  # atno 6908 bound_to 6896
  152.3385  133.6002  159.5895 H   0  0  0  0  0  0  0  0  0  0  0  0  # atno 6909 bound_to 6896
  146.2116  140.3196  142.8389 H   0  0  0  0  0  0  0  0  0  0  0  0  # atno 7974 bound_to 7965
  155.6820  140.3496  155.4859 H   0  0  0  0  0  0  0  0  0  0  0  0  # atno 8008 bound_to 7997
  155.9598  140.1135  157.0928 H   0  0  0  0  0  0  0  0  0  0  0  0  # atno 8009 bound_to 7997
  154.4140  140.1178  156.5150 H   0  0  0  0  0  0  0  0  0  0  0  0  # atno 8010 bound_to 7997
  139.4823  144.5197  151.7896 H   0  0  0  0  0  0  0  0  0  0  0  0  # atno 10167 bound_to 10162
  156.9052  130.9892  151.3029 H   0  0  0  0  0  0  0  0  0  0  0  0  # atno 10718 bound_to 10713
  154.6634  135.5312  153.8047 H   0  0  0  0  0  0  0  0  0  0  0  0  # atno 10763 bound_to 10752
  153.0456  135.6511  154.0836 H   0  0  0  0  0  0  0  0  0  0  0  0  # atno 10764 bound_to 10752
  154.0742  135.2952  155.3282 H   0  0  0  0  0  0  0  0  0  0  0  0  # atno 10765 bound_to 10752
  140.2382  134.8071  157.3385 H   0  0  0  0  0  0  0  0  0  0  0  0  # atno 11005 bound_to 11000
  144.8930  140.7547  143.5915 LP  0  0  0  0  0  0  0  0  0  0  0  0  # atno 17320 bound_to 7965
  145.3119  139.1816  143.4634 LP  0  0  0  0  0  0  0  0  0  0  0  0  # atno 17321 bound_to 7965
  140.4709  144.1588  150.5918 LP  0  0  0  0  0  0  0  0  0  0  0  0  # atno 17342 bound_to 10162
  140.4383  143.2537  151.9506 LP  0  0  0  0  0  0  0  0  0  0  0  0  # atno 17343 bound_to 10162
  157.6002  130.8506  149.8790 LP  0  0  0  0  0  0  0  0  0  0  0  0  # atno 17370 bound_to 10713
  156.0562  130.3708  150.1085 LP  0  0  0  0  0  0  0  0  0  0  0  0  # atno 17371 bound_to 10713
  140.1680  134.4645  155.7850 LP  0  0  0  0  0  0  0  0  0  0  0  0  # atno 17394 bound_to 11000
  141.2212  133.6929  156.7658 LP  0  0  0  0  0  0  0  0  0  0  0  0  # atno 17395 bound_to 11000

$$$$
