AV-unprocessed.smi:652|AV-procd|sdf|3192|dock1
  -GOLD-   22720 0113D 1   1.00000     0.00000
 Structure written by MMmdl.
 48 49  0  0  0  0  0  0  0  0  2 V2000
  152.2384  144.8811  158.7339 C   0  0  0  0  0  0  0  0  0  0  0  0
  151.1369  144.3368  159.6532 C   0  0  0  0  0  0  0  0  0  0  0  0
  151.6460  144.1242  161.0874 C   0  0  0  0  0  0  0  0  0  0  0  0
  150.6205  143.0859  159.1043 N   0  0  0  0  0  0  0  0  0  0  0  0
  151.3553  142.0004  158.8140 C   0  0  0  0  0  0  0  0  0  0  0  0
  152.5755  141.9478  158.9679 O   0  0  0  0  0  0  0  0  0  0  0  0
  150.5969  140.7920  158.2587 C   0  0  0  0  0  0  0  0  0  0  0  0
  151.5367  139.6216  157.9023 C   0  0  0  0  0  0  0  0  0  0  0  0
  151.1418  138.9319  156.6483 N   0  3  1  0  0  0  0  0  0  0  0  0
  152.0730  139.2211  155.5315 C   0  0  0  0  0  0  0  0  0  0  0  0
  151.6074  138.5208  154.2446 C   0  0  0  0  0  0  0  0  0  0  0  0
  151.4907  137.1236  154.4801 O   0  0  0  0  0  0  0  0  0  0  0  0
  150.5184  136.8257  155.4768 C   0  0  1  0  0  0  0  0  0  0  0  0
  150.4014  135.3007  155.6034 C   0  0  0  0  0  0  0  0  0  0  0  0
  149.8239  134.6999  154.4088 N   0  0  0  0  0  0  0  0  0  0  0  0
  149.7018  133.3077  154.3036 C   0  0  0  0  0  0  0  0  0  0  0  0
  148.7272  132.7701  153.4395 C   0  0  0  0  0  0  0  0  0  0  0  0
  148.6266  131.3701  153.3605 C   0  0  0  0  0  0  0  0  0  0  0  0
  149.5088  130.6135  154.1532 C   0  0  0  0  0  0  0  0  0  0  0  0
  150.4268  131.1829  154.9664 N   0  0  0  0  0  0  0  0  0  0  0  0
  150.5213  132.5153  155.0400 N   0  0  0  0  0  0  0  0  0  0  0  0
  150.9652  137.4670  156.8050 C   0  0  0  0  0  0  0  0  0  0  0  0
  152.6217  145.8326  159.1037 H   0  0  0  0  0  0  0  0  0  0  0  0
  151.8609  145.0500  157.7247 H   0  0  0  0  0  0  0  0  0  0  0  0
  153.0787  144.1892  158.6649 H   0  0  0  0  0  0  0  0  0  0  0  0
  150.3333  145.0752  159.6771 H   0  0  0  0  0  0  0  0  0  0  0  0
  152.0213  145.0563  161.5107 H   0  0  0  0  0  0  0  0  0  0  0  0
  152.4565  143.3954  161.1182 H   0  0  0  0  0  0  0  0  0  0  0  0
  150.8503  143.7659  161.7413 H   0  0  0  0  0  0  0  0  0  0  0  0
  149.6252  143.0421  158.9384 H   0  0  0  0  0  0  0  0  0  0  0  0
  149.8458  140.4759  158.9829 H   0  0  0  0  0  0  0  0  0  0  0  0
  150.0569  141.1183  157.3691 H   0  0  0  0  0  0  0  0  0  0  0  0
  152.5494  140.0070  157.7719 H   0  0  0  0  0  0  0  0  0  0  0  0
  151.5833  138.9023  158.7217 H   0  0  0  0  0  0  0  0  0  0  0  0
  152.1290  140.2972  155.3629 H   0  0  0  0  0  0  0  0  0  0  0  0
  153.0768  138.8848  155.7968 H   0  0  0  0  0  0  0  0  0  0  0  0
  150.6546  138.9264  153.9010 H   0  0  0  0  0  0  0  0  0  0  0  0
  152.3300  138.6854  153.4451 H   0  0  0  0  0  0  0  0  0  0  0  0
  149.5501  137.2365  155.1836 H   0  0  0  0  0  0  0  0  0  0  0  0
  151.3802  134.8609  155.8004 H   0  0  0  0  0  0  0  0  0  0  0  0
  149.7630  135.0592  156.4541 H   0  0  0  0  0  0  0  0  0  0  0  0
  149.6520  135.2800  153.6002 H   0  0  0  0  0  0  0  0  0  0  0  0
  148.0775  133.4059  152.8561 H   0  0  0  0  0  0  0  0  0  0  0  0
  147.9014  130.8934  152.7179 H   0  0  0  0  0  0  0  0  0  0  0  0
  149.4789  129.5342  154.1363 H   0  0  0  0  0  0  0  0  0  0  0  0
  151.9021  137.0205  157.1426 H   0  0  0  0  0  0  0  0  0  0  0  0
  150.2176  137.2563  157.5687 H   0  0  0  0  0  0  0  0  0  0  0  0
  150.2459  139.3118  156.3772 H   0  0  0  0  0  0  0  0  0  0  0  0
  1  2  1  0  0  0  0
  1 23  1  0  0  0  0
  1 24  1  0  0  0  0
  1 25  1  0  0  0  0
  2  3  1  0  0  0  0
  2  4  1  0  0  0  0
  2 26  1  0  0  0  0
  3 27  1  0  0  0  0
  3 28  1  0  0  0  0
  3 29  1  0  0  0  0
  4  5  1  0  0  0  0
  4 30  1  0  0  0  0
  5  6  2  0  0  0  0
  5  7  1  0  0  0  0
  7  8  1  0  0  0  0
  7 31  1  0  0  0  0
  7 32  1  0  0  0  0
  8  9  1  0  0  0  0
  8 33  1  0  0  0  0
  8 34  1  0  0  0  0
  9 22  1  0  0  0  0
  9 10  1  0  0  0  0
  9 48  1  0  0  0  0
 10 11  1  0  0  0  0
 10 35  1  0  0  0  0
 10 36  1  0  0  0  0
 11 12  1  0  0  0  0
 11 37  1  0  0  0  0
 11 38  1  0  0  0  0
 12 13  1  0  0  0  0
 13 14  1  0  0  0  0
 13 22  1  0  0  0  0
 13 39  1  0  0  0  0
 14 15  1  0  0  0  0
 14 40  1  0  0  0  0
 14 41  1  0  0  0  0
 15 16  1  0  0  0  0
 15 42  1  0  0  0  0
 16 21  1  0  0  0  0
 16 17  2  0  0  0  0
 17 18  1  0  0  0  0
 17 43  1  0  0  0  0
 18 19  2  0  0  0  0
 18 44  1  0  0  0  0
 19 20  1  0  0  0  0
 19 45  1  0  0  0  0
 20 21  2  0  0  0  0
 22 46  1  0  0  0  0
 22 47  1  0  0  0  0
M  CHG  1   9   1
M  END
> <s_m_source_file>
AV-unprocessed.smi

> <i_m_source_file_index>
652

> <i_lp_mmshare_version>
43012

> <i_f3d_flags>
0

> <s_epik_input>
W0NIM11bQ0hdKFtDSDNdKVtOSF1DKD1PKVtDSDJdW0NIMl1OMVtDSDJdW0NIMl1PW0NASF0oW0NIMl0xKVtDSDJdW05IXWMyW2NIXVtjSF1bY0hdbm4y

> <s_epik_cmdline>
J2VwaWtfcHl0aG9uJywgJy1waCcsICc3LjAnLCAnLXRuJywgJzgnLCAnLW1hJywgJzIwMCcsICctbWV0YWxfYmluZGluZycsICctaW1hZScsICc8aW5maWxlLm1hZT4nLCAnLW9tYWUnLCAnPG91dGZpbGUubWFlPic=

> <r_lp_tautomer_probability>
0.999978

> <r_epik_Ionization_Penalty>
0.433079

> <r_epik_Ionization_Penalty_Charging>
0.413784

> <r_epik_Ionization_Penalty_Neutral>
0.0192945

> <r_epik_State_Penalty>
0.425138

> <r_epik_Charging_Adjusted_Penalty>
0.838922

> <i_epik_Tot_Q>
1

> <i_epik_Tot_abs_Q>
1

> <r_epik_Metal_State_Penalty>
0.422073

> <b_epik_Metal_Only>
0

> <s_lp_Force_Field>
OPLS_2005

> <r_lp_Energy>
21.6039

> <b_lp_Chiralities_Consistent>
1

> <s_lp_Variant>
AV-unprocessed.smi:652-1

> <Gold.Version>
5.8.1

> <Gold.Id.Protein>
6NUR|6NUR_protein|mol2

> <Gold.PLP.Fitness>
43.4517

> <Gold.PLP.PLP>
-40.5061

> <Gold.PLP.part.hbond>
-1.9287

> <Gold.PLP.part.metal>
0.0000

> <Gold.PLP.part.buried>
-7.4147

> <Gold.PLP.part.nonpolar>
-32.1413

> <Gold.PLP.part.repulsive>
0.3457

> <Gold.PLP.ligand.clash>
0.0000

> <Gold.PLP.ligand.torsion>
1.1784

> <Gold.PLP.Chemscore.Hbond>
1.6598

> <Gold.PLP.Chemscore.CHOScore>
0.0000

> <Gold.PLP.Chemscore.Metal>
0.0000

> <Gold.Chemscore.Hbonds>
donor molecule, donor type, donor heavy atom, donor atom, acceptor molecule, acceptor atom, score
      L1  H    15    42       P1  7948  0.57
      P1  H 10752 10765       L1    12  0.93

> <Gold.PLP.Chemscore.Internal.Correction>
0.3232

> <Gold.Rescore>
     Score         DG    S(hbond)    S(metal)    S(lipo)     H(rot)  DE(clash)    DE(int)     intcor
     11.49     -13.95       1.01        0.00      93.04       2.26       0.08       2.38       ----

> <Gold.Chemscore.Fitness>
11.4917

> <Gold.Chemscore.DG>
-13.9512

> <Gold.Chemscore.ZeroCoef>
-5.4800

> <Gold.Chemscore.Hbond>
1.0089

> <Gold.Chemscore.Metal>
0.0000

> <Gold.Chemscore.Lipo>
93.0389

> <Gold.Chemscore.Internal_Hbond>
0.0000

> <Gold.Chemscore.DEClash>
0.0823

> <Gold.Chemscore.DEInternal>
2.3771

> <Gold.Chemscore.Rot>
2.2594

> <Gold.Chemscore.Internal.Correction>
   9.000000E+99

> <Gold.Chemscore.Hbonds>
donor molecule, donor type, donor heavy atom, donor atom, acceptor molecule, acceptor atom, score
      L1  H    15    42       P1  7948  0.04
      P1  H 10752 10765       L1    12  0.69

> <Gold.Chemscore.Hbond.Weighted>
-3.3697

> <Gold.Chemscore.Metal.Weighted>
-0.0000

> <Gold.Chemscore.Lipo.Weighted>
-10.8855

> <Gold.Chemscore.Internal_Hbond.Weighted>
0.0000

> <Gold.Chemscore.DEClash.Weighted>
0.0823

> <Gold.Chemscore.DEInternal.Weighted>
2.3771

> <Gold.Chemscore.Rot.Weighted>
5.7841

> <Gold.Chemscore.Internal.Correction.Weighted>
   9.000000E+99

> <Gold.Protein.RotatedTorsions>
[ 6907 6896 6895 6894 ] final -147.05 input  -60.11 | X-H torsion
[ 7974 7965 7964 7962 ] final -138.63 input  175.53 | X-H torsion
[ 8008 7997 7996 7995 ] final -179.92 input   59.86 | X-H torsion
[ 10167 10162 10161 10158 ] final   48.56 input  -65.29 | X-H torsion
[ 10718 10713 10712 10709 ] final  -15.29 input   66.30 | X-H torsion
[ 10763 10752 10751 10750 ] final  167.06 input  -60.55 | X-H torsion
[ 11005 11000 10999 10996 ] final  -21.04 input  -57.11 | X-H torsion

> <Gold.Protein.ActiveResidues>
 VAL166  LYS551  ARG553  GLY616  TRP617  ASP618  TYR619  PRO620  LYS621  CYS622 
 ASP623  PHE694  ASN695  SER759  ASP760  ASP761  ALA762  ILE779  LEU786  VAL792 
 PHE793  MET794  SER795  GLU796  ALA797  LYS798  CYS799  TRP800  GLU811  SER814 

> <Gold.Protein.RotatedAtoms>
  151.1503  133.4912  159.2595 H   0  0  0  0  0  0  0  0  0  0  0  0  # atno 6907 bound_to 6896
  151.1561  135.0250  159.8700 H   0  0  0  0  0  0  0  0  0  0  0  0  # atno 6908 bound_to 6896
  152.5463  134.1382  159.8521 H   0  0  0  0  0  0  0  0  0  0  0  0  # atno 6909 bound_to 6896
  144.8742  140.6413  143.5247 H   0  0  0  0  0  0  0  0  0  0  0  0  # atno 7974 bound_to 7965
  156.0361  140.1293  157.0206 H   0  0  0  0  0  0  0  0  0  0  0  0  # atno 8008 bound_to 7997
  154.4370  140.1040  156.6239 H   0  0  0  0  0  0  0  0  0  0  0  0  # atno 8009 bound_to 7997
  155.5736  140.3467  155.4524 H   0  0  0  0  0  0  0  0  0  0  0  0  # atno 8010 bound_to 7997
  140.2920  144.3035  150.6238 H   0  0  0  0  0  0  0  0  0  0  0  0  # atno 10167 bound_to 10162
  156.6039  130.4831  149.6229 H   0  0  0  0  0  0  0  0  0  0  0  0  # atno 10718 bound_to 10713
  154.3482  135.2753  155.2386 H   0  0  0  0  0  0  0  0  0  0  0  0  # atno 10763 bound_to 10752
  154.4627  135.5903  153.6270 H   0  0  0  0  0  0  0  0  0  0  0  0  # atno 10764 bound_to 10752
  152.9852  135.6069  154.3690 H   0  0  0  0  0  0  0  0  0  0  0  0  # atno 10765 bound_to 10752
  140.8523  133.7848  155.9979 H   0  0  0  0  0  0  0  0  0  0  0  0  # atno 11005 bound_to 11000
  145.4073  139.1586  143.4145 LP  0  0  0  0  0  0  0  0  0  0  0  0  # atno 17320 bound_to 7965
  146.2951  140.4174  142.8724 LP  0  0  0  0  0  0  0  0  0  0  0  0  # atno 17321 bound_to 7965
  140.5724  143.2179  151.7575 LP  0  0  0  0  0  0  0  0  0  0  0  0  # atno 17342 bound_to 10162
  139.4936  144.4197  151.9991 LP  0  0  0  0  0  0  0  0  0  0  0  0  # atno 17343 bound_to 10162
  156.2446  130.6871  151.1588 LP  0  0  0  0  0  0  0  0  0  0  0  0  # atno 17370 bound_to 10713
  157.7272  131.0640  150.5874 LP  0  0  0  0  0  0  0  0  0  0  0  0  # atno 17371 bound_to 10713
  140.8777  134.2650  157.5160 LP  0  0  0  0  0  0  0  0  0  0  0  0  # atno 17394 bound_to 11000
  139.8704  134.9599  156.4347 LP  0  0  0  0  0  0  0  0  0  0  0  0  # atno 17395 bound_to 11000

$$$$
