AV-unprocessed.smi:1403|AV-procd|sdf|5699|dock9
  -GOLD-   22720 5333D 1   1.00000     0.00000
 Structure written by MMmdl.
 36 37  0  0  0  0  0  0  0  0  1 V2000
  151.3525  145.3050  158.9410 C   0  0  0  0  0  0  0  0  0  0  0  0
  151.9938  143.9425  158.6410 C   0  0  2  0  0  0  0  0  0  0  0  0
  150.9319  142.9538  158.4611 N   0  0  0  0  0  0  0  0  0  0  0  0
  150.9485  141.9238  157.6004 C   0  0  0  0  0  0  0  0  0  0  0  0
  151.8983  141.6779  156.8560 O   0  0  0  0  0  0  0  0  0  0  0  0
  149.7079  141.0194  157.6105 C   0  0  0  0  0  0  0  0  0  0  0  0
  148.9743  141.0362  156.3367 N   0  0  0  0  0  0  0  0  0  0  0  0
  147.6428  141.4253  156.2994 C   0  0  0  0  0  0  0  0  0  0  0  0
  146.9064  141.4551  155.1635 C   0  0  0  0  0  0  0  0  0  0  0  0
  147.4994  141.0668  153.8883 C   0  0  0  0  0  0  0  0  0  0  0  0
  146.9160  141.0622  152.8068 O   0  0  0  0  0  0  0  0  0  0  0  0
  148.8395  140.6793  153.9676 N   0  0  0  0  0  0  0  0  0  0  0  0
  149.6037  140.6444  155.1350 C   0  0  0  0  0  0  0  0  0  0  0  0
  150.7790  140.2823  155.0945 O   0  0  0  0  0  0  0  0  0  0  0  0
  152.9563  143.5004  159.7626 C   0  0  1  0  0  0  0  0  0  0  0  0
  152.3264  143.3961  161.1516 C   0  0  0  0  0  0  0  0  0  0  0  0
  153.3053  142.4898  161.8630 C   0  0  0  0  0  0  0  0  0  0  0  0
  153.7344  141.5307  160.7533 C   0  0  0  0  0  0  0  0  0  0  0  0
  153.4425  142.1843  159.5198 O   0  0  0  0  0  0  0  0  0  0  0  0
  149.2922  140.3994  153.1097 H   0  0  0  0  0  0  0  0  0  0  0  0
  152.1094  146.0828  159.0443 H   0  0  0  0  0  0  0  0  0  0  0  0
  150.7748  145.2786  159.8656 H   0  0  0  0  0  0  0  0  0  0  0  0
  150.6813  145.6080  158.1368 H   0  0  0  0  0  0  0  0  0  0  0  0
  152.5651  144.0460  157.7167 H   0  0  0  0  0  0  0  0  0  0  0  0
  150.1110  143.0673  159.0378 H   0  0  0  0  0  0  0  0  0  0  0  0
  150.0329  140.0053  157.8466 H   0  0  0  0  0  0  0  0  0  0  0  0
  149.0444  141.3062  158.4291 H   0  0  0  0  0  0  0  0  0  0  0  0
  147.1604  141.7175  157.2213 H   0  0  0  0  0  0  0  0  0  0  0  0
  145.8727  141.7671  155.1984 H   0  0  0  0  0  0  0  0  0  0  0  0
  153.8148  144.1733  159.8095 H   0  0  0  0  0  0  0  0  0  0  0  0
  152.2083  144.3626  161.6421 H   0  0  0  0  0  0  0  0  0  0  0  0
  151.3474  142.9179  161.0939 H   0  0  0  0  0  0  0  0  0  0  0  0
  154.1627  143.0689  162.2079 H   0  0  0  0  0  0  0  0  0  0  0  0
  152.8702  141.9800  162.7230 H   0  0  0  0  0  0  0  0  0  0  0  0
  154.7935  141.2813  160.8228 H   0  0  0  0  0  0  0  0  0  0  0  0
  153.1646  140.6021  160.7986 H   0  0  0  0  0  0  0  0  0  0  0  0
  1  2  1  0  0  0  0
  1 21  1  0  0  0  0
  1 22  1  0  0  0  0
  1 23  1  0  0  0  0
  2  3  1  0  0  0  0
  2 15  1  0  0  0  0
  2 24  1  0  0  0  0
  3  4  1  0  0  0  0
  3 25  1  0  0  0  0
  4  5  2  0  0  0  0
  4  6  1  0  0  0  0
  6  7  1  0  0  0  0
  6 26  1  0  0  0  0
  6 27  1  0  0  0  0
  7 13  1  0  0  0  0
  7  8  1  0  0  0  0
  8  9  2  0  0  0  0
  8 28  1  0  0  0  0
  9 10  1  0  0  0  0
  9 29  1  0  0  0  0
 10 11  2  0  0  0  0
 10 12  1  0  0  0  0
 12 20  1  0  0  0  0
 12 13  1  0  0  0  0
 13 14  2  0  0  0  0
 15 19  1  0  0  0  0
 15 16  1  0  0  0  0
 15 30  1  0  0  0  0
 16 17  1  0  0  0  0
 16 31  1  0  0  0  0
 16 32  1  0  0  0  0
 17 18  1  0  0  0  0
 17 33  1  0  0  0  0
 17 34  1  0  0  0  0
 18 19  1  0  0  0  0
 18 35  1  0  0  0  0
 18 36  1  0  0  0  0
M  END
> <s_m_source_file>
AV-unprocessed.smi

> <i_m_source_file_index>
1403

> <i_lp_mmshare_version>
43012

> <i_f3d_flags>
0

> <s_epik_input>
TzFbQ0gyXVtDSDJdW0NIMl1bQ0BIXTFbQ0BIXShbQ0gzXSlbTkhdQyg9TylbQ0gyXW4yW2NIXVtjSF1jKD1PKVtuSF1jMj1P

> <s_epik_cmdline>
J2VwaWtfcHl0aG9uJywgJy1waCcsICc3LjAnLCAnLXRuJywgJzgnLCAnLW1hJywgJzIwMCcsICctbWV0YWxfYmluZGluZycsICctaW1hZScsICc8aW5maWxlLm1hZT4nLCAnLW9tYWUnLCAnPG91dGZpbGUubWFlPic=

> <r_lp_tautomer_probability>
0.999537

> <r_epik_Ionization_Penalty>
0.00331407

> <r_epik_Ionization_Penalty_Charging>
0.00331405

> <r_epik_Ionization_Penalty_Neutral>
2.30132e-08

> <r_epik_State_Penalty>
0.00234266

> <r_epik_Charging_Adjusted_Penalty>
0.00565671

> <i_epik_Tot_Q>
0

> <i_epik_Tot_abs_Q>
0

> <r_epik_Metal_State_Penalty>
0.365604

> <b_epik_Metal_Only>
0

> <s_lp_Force_Field>
OPLS_2005

> <r_lp_Energy>
18.4227

> <b_lp_Chiralities_Consistent>
1

> <s_lp_Variant>
AV-unprocessed.smi:1403-3

> <Gold.Version>
5.8.1

> <Gold.Id.Protein>
6NUR|6NUR_protein|mol2

> <Gold.PLP.Fitness>
41.0445

> <Gold.PLP.PLP>
-35.8254

> <Gold.PLP.part.hbond>
-2.0000

> <Gold.PLP.part.metal>
0.0000

> <Gold.PLP.part.buried>
-1.5697

> <Gold.PLP.part.nonpolar>
-32.3777

> <Gold.PLP.part.repulsive>
0.8274

> <Gold.PLP.ligand.clash>
0.0000

> <Gold.PLP.ligand.torsion>
0.3985

> <Gold.PLP.Chemscore.Hbond>
2.0000

> <Gold.PLP.Chemscore.CHOScore>
0.0000

> <Gold.PLP.Chemscore.Metal>
0.0000

> <Gold.Chemscore.Hbonds>
donor molecule, donor type, donor heavy atom, donor atom, acceptor molecule, acceptor atom, score
      L1  H    12    20       P1  7957  1.00
      P1  H  7989  7998       L1    14  1.00

> <Gold.PLP.Chemscore.Internal.Correction>
0.0160

> <Gold.Rescore>
     Score         DG    S(hbond)    S(metal)    S(lipo)     H(rot)  DE(clash)    DE(int)     intcor
     12.08     -15.57       1.89        0.00      76.76       2.04       1.46       2.03       ----

> <Gold.Chemscore.Fitness>
12.0825

> <Gold.Chemscore.DG>
-15.5686

> <Gold.Chemscore.ZeroCoef>
-5.4800

> <Gold.Chemscore.Hbond>
1.8950

> <Gold.Chemscore.Metal>
0.0000

> <Gold.Chemscore.Lipo>
76.7566

> <Gold.Chemscore.Internal_Hbond>
0.0000

> <Gold.Chemscore.DEClash>
1.4578

> <Gold.Chemscore.DEInternal>
2.0283

> <Gold.Chemscore.Rot>
2.0395

> <Gold.Chemscore.Internal.Correction>
   9.000000E+99

> <Gold.Chemscore.Hbonds>
donor molecule, donor type, donor heavy atom, donor atom, acceptor molecule, acceptor atom, score
      L1  H    12    20       P1  7957  0.95
      P1  H  7989  7998       L1    14  0.77

> <Gold.Chemscore.Hbond.Weighted>
-6.3292

> <Gold.Chemscore.Metal.Weighted>
-0.0000

> <Gold.Chemscore.Lipo.Weighted>
-8.9805

> <Gold.Chemscore.Internal_Hbond.Weighted>
0.0000

> <Gold.Chemscore.DEClash.Weighted>
1.4578

> <Gold.Chemscore.DEInternal.Weighted>
2.0283

> <Gold.Chemscore.Rot.Weighted>
5.2211

> <Gold.Chemscore.Internal.Correction.Weighted>
   9.000000E+99

> <Gold.Protein.RotatedTorsions>
[ 6907 6896 6895 6894 ] final  -16.83 input  -60.11 | X-H torsion
[ 7974 7965 7964 7962 ] final   61.29 input  175.53 | X-H torsion
[ 8008 7997 7996 7995 ] final  119.15 input   59.86 | X-H torsion
[ 10167 10162 10161 10158 ] final  157.14 input  -65.29 | X-H torsion
[ 10718 10713 10712 10709 ] final -173.57 input   66.30 | X-H torsion
[ 10763 10752 10751 10750 ] final  -41.73 input  -60.55 | X-H torsion
[ 11005 11000 10999 10996 ] final  -30.59 input  -57.11 | X-H torsion

> <Gold.Protein.ActiveResidues>
 VAL166  LYS551  ARG553  GLY616  TRP617  ASP618  TYR619  PRO620  LYS621  CYS622 
 ASP623  PHE694  ASN695  SER759  ASP760  ASP761  ALA762  ILE779  LEU786  VAL792 
 PHE793  MET794  SER795  GLU796  ALA797  LYS798  CYS799  TRP800  GLU811  SER814 

> <Gold.Protein.RotatedAtoms>
  151.3026  135.0773  159.9243 H   0  0  0  0  0  0  0  0  0  0  0  0  # atno 6907 bound_to 6896
  152.5294  133.9817  159.7820 H   0  0  0  0  0  0  0  0  0  0  0  0  # atno 6908 bound_to 6896
  151.0107  133.5917  159.2713 H   0  0  0  0  0  0  0  0  0  0  0  0  # atno 6909 bound_to 6896
  145.8865  139.3480  143.0675 H   0  0  0  0  0  0  0  0  0  0  0  0  # atno 7974 bound_to 7965
  156.2582  140.2859  156.0946 H   0  0  0  0  0  0  0  0  0  0  0  0  # atno 8008 bound_to 7997
  155.1425  140.0396  157.2819 H   0  0  0  0  0  0  0  0  0  0  0  0  # atno 8009 bound_to 7997
  154.6519  140.2546  155.7211 H   0  0  0  0  0  0  0  0  0  0  0  0  # atno 8010 bound_to 7997
  139.4822  144.4945  151.8260 H   0  0  0  0  0  0  0  0  0  0  0  0  # atno 10167 bound_to 10162
  156.7722  130.9453  151.3120 H   0  0  0  0  0  0  0  0  0  0  0  0  # atno 10718 bound_to 10713
  153.9674  135.6732  153.4746 H   0  0  0  0  0  0  0  0  0  0  0  0  # atno 10763 bound_to 10752
  153.0809  135.4924  154.8498 H   0  0  0  0  0  0  0  0  0  0  0  0  # atno 10764 bound_to 10752
  154.7238  135.3123  154.8964 H   0  0  0  0  0  0  0  0  0  0  0  0  # atno 10765 bound_to 10752
  140.9396  133.7287  156.1056 H   0  0  0  0  0  0  0  0  0  0  0  0  # atno 11005 bound_to 11000
  145.8961  140.9273  143.0527 LP  0  0  0  0  0  0  0  0  0  0  0  0  # atno 17320 bound_to 7965
  144.6729  140.0970  143.7462 LP  0  0  0  0  0  0  0  0  0  0  0  0  # atno 17321 bound_to 7965
  140.4432  144.1958  150.5892 LP  0  0  0  0  0  0  0  0  0  0  0  0  # atno 17342 bound_to 10162
  140.4662  143.2430  151.9152 LP  0  0  0  0  0  0  0  0  0  0  0  0  # atno 17343 bound_to 10162
  157.6685  130.9030  149.9987 LP  0  0  0  0  0  0  0  0  0  0  0  0  # atno 17370 bound_to 10713
  156.1270  130.3644  149.9793 LP  0  0  0  0  0  0  0  0  0  0  0  0  # atno 17371 bound_to 10713
  140.7752  134.3788  157.5499 LP  0  0  0  0  0  0  0  0  0  0  0  0  # atno 17394 bound_to 11000
  139.8817  134.9047  156.2883 LP  0  0  0  0  0  0  0  0  0  0  0  0  # atno 17395 bound_to 11000

$$$$
