AV-unprocessed.smi:1661|AV-procd|sdf|6654|dock9
  -GOLD-   22720 7363D 1   1.00000     0.00000
 Structure written by MMmdl.
 38 39  0  0  0  0  0  0  0  0  2 V2000
  144.4688  132.5948  151.6806 C   0  0  0  0  0  0  0  0  0  0  0  0
  145.7887  133.2285  151.2077 C   0  0  2  0  0  0  0  0  0  0  0  0
  146.7814  133.4688  152.3594 C   0  0  0  0  0  0  0  0  0  0  0  0
  146.3684  134.6567  153.2471 C   0  0  0  0  0  0  0  0  0  0  0  0
  146.1915  135.8956  152.4457 N   0  3  2  0  0  0  0  0  0  0  0  0
  145.9201  137.0791  153.3006 C   0  0  0  0  0  0  0  0  0  0  0  0
  146.2676  138.4072  152.5992 C   0  0  0  0  0  0  0  0  0  0  0  0
  147.6916  138.7077  152.6919 N   0  0  0  0  0  0  0  0  0  0  0  0
  148.4435  138.5266  153.7873 C   0  0  0  0  0  0  0  0  0  0  0  0
  147.9952  138.0947  154.8495 O   0  0  0  0  0  0  0  0  0  0  0  0
  149.7226  138.8772  153.5657 N   0  0  0  0  0  0  0  0  0  0  0  0
  150.8150  138.8386  154.4723 C   0  0  0  0  0  0  0  0  0  0  0  0
  151.4784  139.9300  154.8851 N   0  0  0  0  0  0  0  0  0  0  0  0
  152.5028  139.6120  155.7677 N   0  0  0  0  0  0  0  0  0  0  0  0
  152.5713  138.2956  155.9854 C   0  0  0  0  0  0  0  0  0  0  0  0
  151.3909  137.3152  155.1335 S   0  0  0  0  0  0  0  0  0  0  0  0
  145.1867  135.7079  151.3653 C   0  0  0  0  0  0  0  0  0  0  0  0
  145.5754  134.5434  150.4365 C   0  0  0  0  0  0  0  0  0  0  0  0
  143.9276  133.2370  152.3748 H   0  0  0  0  0  0  0  0  0  0  0  0
  144.6507  131.6452  152.1846 H   0  0  0  0  0  0  0  0  0  0  0  0
  143.8086  132.3939  150.8364 H   0  0  0  0  0  0  0  0  0  0  0  0
  146.2456  132.5140  150.5218 H   0  0  0  0  0  0  0  0  0  0  0  0
  146.8842  132.5672  152.9643 H   0  0  0  0  0  0  0  0  0  0  0  0
  147.7702  133.6669  151.9431 H   0  0  0  0  0  0  0  0  0  0  0  0
  145.4461  134.4321  153.7844 H   0  0  0  0  0  0  0  0  0  0  0  0
  147.1392  134.8154  154.0023 H   0  0  0  0  0  0  0  0  0  0  0  0
  144.8781  137.0715  153.6239 H   0  0  0  0  0  0  0  0  0  0  0  0
  146.5223  137.0024  154.2069 H   0  0  0  0  0  0  0  0  0  0  0  0
  145.9623  138.3789  151.5517 H   0  0  0  0  0  0  0  0  0  0  0  0
  145.7352  139.2407  153.0553 H   0  0  0  0  0  0  0  0  0  0  0  0
  148.1386  139.0651  151.8598 H   0  0  0  0  0  0  0  0  0  0  0  0
  149.9425  139.2133  152.6398 H   0  0  0  0  0  0  0  0  0  0  0  0
  153.3226  137.8987  156.6520 H   0  0  0  0  0  0  0  0  0  0  0  0
  144.2037  135.5339  151.8045 H   0  0  0  0  0  0  0  0  0  0  0  0
  145.1019  136.6131  150.7655 H   0  0  0  0  0  0  0  0  0  0  0  0
  146.4959  134.8024  149.9113 H   0  0  0  0  0  0  0  0  0  0  0  0
  144.8159  134.4098  149.6653 H   0  0  0  0  0  0  0  0  0  0  0  0
  147.0800  136.0667  151.9966 H   0  0  0  0  0  0  0  0  0  0  0  0
  1  2  1  0  0  0  0
  1 19  1  0  0  0  0
  1 20  1  0  0  0  0
  1 21  1  0  0  0  0
  2 18  1  0  0  0  0
  2  3  1  0  0  0  0
  2 22  1  0  0  0  0
  3  4  1  0  0  0  0
  3 23  1  0  0  0  0
  3 24  1  0  0  0  0
  4  5  1  0  0  0  0
  4 25  1  0  0  0  0
  4 26  1  0  0  0  0
  5  6  1  0  0  0  0
  5 17  1  0  0  0  0
  5 38  1  0  0  0  0
  6  7  1  0  0  0  0
  6 27  1  0  0  0  0
  6 28  1  0  0  0  0
  7  8  1  0  0  0  0
  7 29  1  0  0  0  0
  7 30  1  0  0  0  0
  8  9  1  0  0  0  0
  8 31  1  0  0  0  0
  9 10  2  0  0  0  0
  9 11  1  0  0  0  0
 11 12  1  0  0  0  0
 11 32  1  0  0  0  0
 12 16  1  0  0  0  0
 12 13  2  0  0  0  0
 13 14  1  0  0  0  0
 14 15  2  0  0  0  0
 15 16  1  0  0  0  0
 15 33  1  0  0  0  0
 17 18  1  0  0  0  0
 17 34  1  0  0  0  0
 17 35  1  0  0  0  0
 18 36  1  0  0  0  0
 18 37  1  0  0  0  0
M  CHG  1   5   1
M  END
> <s_m_source_file>
AV-unprocessed.smi

> <i_m_source_file_index>
1661

> <i_lp_mmshare_version>
43012

> <i_f3d_flags>
0

> <s_epik_input>
W0NIM11bQ0hdMVtDSDJdW0NIMl1OKFtDSDJdW0NIMl0xKVtDSDJdW0NIMl1bTkhdQyg9TylbTkhdYzJubltjSF1zMg==

> <s_epik_cmdline>
J2VwaWtfcHl0aG9uJywgJy1waCcsICc3LjAnLCAnLXRuJywgJzgnLCAnLW1hJywgJzIwMCcsICctbWV0YWxfYmluZGluZycsICctaW1hZScsICc8aW5maWxlLm1hZT4nLCAnLW9tYWUnLCAnPG91dGZpbGUubWFlPic=

> <r_lp_tautomer_probability>
1

> <r_epik_Ionization_Penalty>
0.0053917

> <r_epik_Ionization_Penalty_Charging>
0.00168873

> <r_epik_Ionization_Penalty_Neutral>
0.00370297

> <r_epik_State_Penalty>
-0

> <r_epik_Charging_Adjusted_Penalty>
0.00168873

> <i_epik_Tot_Q>
1

> <i_epik_Tot_abs_Q>
1

> <r_epik_Metal_State_Penalty>
0.36997

> <b_epik_Metal_Only>
0

> <s_lp_Force_Field>
OPLS_2005

> <r_lp_Energy>
16.5964

> <b_lp_Chiralities_Consistent>
1

> <s_lp_Variant>
AV-unprocessed.smi:1661-2

> <Gold.Version>
5.8.1

> <Gold.Id.Protein>
6NUR|6NUR_protein|mol2

> <Gold.PLP.Fitness>
45.3954

> <Gold.PLP.PLP>
-29.5632

> <Gold.PLP.part.hbond>
-6.4714

> <Gold.PLP.part.metal>
0.0000

> <Gold.PLP.part.buried>
-2.3518

> <Gold.PLP.part.nonpolar>
-21.8374

> <Gold.PLP.part.repulsive>
0.3381

> <Gold.PLP.ligand.clash>
0.0000

> <Gold.PLP.ligand.torsion>
1.0098

> <Gold.PLP.Chemscore.Hbond>
5.9440

> <Gold.PLP.Chemscore.CHOScore>
0.0000

> <Gold.PLP.Chemscore.Metal>
0.0000

> <Gold.Chemscore.Hbonds>
donor molecule, donor type, donor heavy atom, donor atom, acceptor molecule, acceptor atom, score
      L1  H     5    38       P1  7948  2.00
      L1  H     8    31       P1  7957  0.96
      L1  H    11    32       P1  7957  1.00
      P1  H  7989  7998       L1    13  1.00
      P1  H  7997  8010       L1    14  1.00

> <Gold.PLP.Chemscore.Internal.Correction>
0.0199

> <Gold.Rescore>
     Score         DG    S(hbond)    S(metal)    S(lipo)     H(rot)  DE(clash)    DE(int)     intcor
     19.16     -21.99       4.43        0.00      52.02       1.70       0.42       2.41       ----

> <Gold.Chemscore.Fitness>
19.1602

> <Gold.Chemscore.DG>
-21.9886

> <Gold.Chemscore.ZeroCoef>
-5.4800

> <Gold.Chemscore.Hbond>
4.4268

> <Gold.Chemscore.Metal>
0.0000

> <Gold.Chemscore.Lipo>
52.0233

> <Gold.Chemscore.Internal_Hbond>
0.0000

> <Gold.Chemscore.DEClash>
0.4185

> <Gold.Chemscore.DEInternal>
2.4099

> <Gold.Chemscore.Rot>
1.7046

> <Gold.Chemscore.Internal.Correction>
   9.000000E+99

> <Gold.Chemscore.Hbonds>
donor molecule, donor type, donor heavy atom, donor atom, acceptor molecule, acceptor atom, score
      L1  H     5    38       P1  7948  0.99
      L1  H     8    31       P1  7957  0.89
      L1  H    11    32       P1  7957  0.87
      P1  H  7989  7998       L1    13  0.50
      P1  H  7997  8010       L1    14  0.25

> <Gold.Chemscore.Hbond.Weighted>
-14.7857

> <Gold.Chemscore.Metal.Weighted>
-0.0000

> <Gold.Chemscore.Lipo.Weighted>
-6.0867

> <Gold.Chemscore.Internal_Hbond.Weighted>
0.0000

> <Gold.Chemscore.DEClash.Weighted>
0.4185

> <Gold.Chemscore.DEInternal.Weighted>
2.4099

> <Gold.Chemscore.Rot.Weighted>
4.3638

> <Gold.Chemscore.Internal.Correction.Weighted>
   9.000000E+99

> <Gold.Protein.RotatedTorsions>
[ 6907 6896 6895 6894 ] final   98.66 input  -60.11 | X-H torsion
[ 7974 7965 7964 7962 ] final  122.94 input  175.53 | X-H torsion
[ 8008 7997 7996 7995 ] final   84.59 input   59.86 | X-H torsion
[ 10167 10162 10161 10158 ] final   47.92 input  -65.29 | X-H torsion
[ 10718 10713 10712 10709 ] final  120.37 input   66.30 | X-H torsion
[ 10763 10752 10751 10750 ] final   18.81 input  -60.55 | X-H torsion
[ 11005 11000 10999 10996 ] final  117.84 input  -57.11 | X-H torsion

> <Gold.Protein.ActiveResidues>
 VAL166  LYS551  ARG553  GLY616  TRP617  ASP618  TYR619  PRO620  LYS621  CYS622 
 ASP623  PHE694  ASN695  SER759  ASP760  ASP761  ALA762  ILE779  LEU786  VAL792 
 PHE793  MET794  SER795  GLU796  ALA797  LYS798  CYS799  TRP800  GLU811  SER814 

> <Gold.Protein.RotatedAtoms>
  152.5405  134.0546  159.8124 H   0  0  0  0  0  0  0  0  0  0  0  0  # atno 6907 bound_to 6896
  151.0683  133.5480  159.2636 H   0  0  0  0  0  0  0  0  0  0  0  0  # atno 6908 bound_to 6896
  151.2352  135.0577  159.9057 H   0  0  0  0  0  0  0  0  0  0  0  0  # atno 6909 bound_to 6896
  145.1017  139.3514  143.4808 H   0  0  0  0  0  0  0  0  0  0  0  0  # atno 7974 bound_to 7965
  155.9390  140.3409  155.6311 H   0  0  0  0  0  0  0  0  0  0  0  0  # atno 8008 bound_to 7997
  155.7063  140.0766  157.2408 H   0  0  0  0  0  0  0  0  0  0  0  0  # atno 8009 bound_to 7997
  154.4099  140.1631  156.2234 H   0  0  0  0  0  0  0  0  0  0  0  0  # atno 8010 bound_to 7997
  140.2986  144.2961  150.6224 H   0  0  0  0  0  0  0  0  0  0  0  0  # atno 10167 bound_to 10162
  157.5896  131.1066  150.8026 H   0  0  0  0  0  0  0  0  0  0  0  0  # atno 10718 bound_to 10713
  153.1216  135.6720  153.9325 H   0  0  0  0  0  0  0  0  0  0  0  0  # atno 10763 bound_to 10752
  153.8839  135.3055  155.3447 H   0  0  0  0  0  0  0  0  0  0  0  0  # atno 10764 bound_to 10752
  154.7627  135.4980  153.9575 H   0  0  0  0  0  0  0  0  0  0  0  0  # atno 10765 bound_to 10752
  139.9088  134.9614  156.7412 H   0  0  0  0  0  0  0  0  0  0  0  0  # atno 11005 bound_to 11000
  146.3529  140.0897  142.8613 LP  0  0  0  0  0  0  0  0  0  0  0  0  # atno 17320 bound_to 7965
  145.0948  140.9308  143.4747 LP  0  0  0  0  0  0  0  0  0  0  0  0  # atno 17321 bound_to 7965
  140.5671  143.2185  151.7665 LP  0  0  0  0  0  0  0  0  0  0  0  0  # atno 17342 bound_to 10162
  139.4920  144.4269  151.9916 LP  0  0  0  0  0  0  0  0  0  0  0  0  # atno 17343 bound_to 10162
  156.8451  130.5061  149.5317 LP  0  0  0  0  0  0  0  0  0  0  0  0  # atno 17370 bound_to 10713
  156.0948  130.5924  150.9795 LP  0  0  0  0  0  0  0  0  0  0  0  0  # atno 17371 bound_to 10713
  140.6848  133.9443  155.7931 LP  0  0  0  0  0  0  0  0  0  0  0  0  # atno 17394 bound_to 11000
  141.0484  134.0520  157.3814 LP  0  0  0  0  0  0  0  0  0  0  0  0  # atno 17395 bound_to 11000

$$$$
