AV-unprocessed.smi:274|AV-procd|sdf|2061|dock8
  -GOLD-   2262021303D 1   1.00000     0.00000
 Structure written by MMmdl.
 50 53  0  0  0  0  0  0  0  0  1 V2000
  149.7703  141.9002  155.6122 C   0  0  0  0  0  0  0  0  0  0  0  0
  149.1659  141.1181  154.4280 C   0  0  0  0  0  0  0  0  0  0  0  0
  147.7716  141.6953  154.1103 C   0  0  0  0  0  0  0  0  0  0  0  0
  149.1579  139.5783  154.6865 C   0  0  1  0  0  0  0  0  0  0  0  0
  150.5524  139.0291  155.0825 C   0  0  0  0  0  0  0  0  0  0  0  0
  151.4192  138.8799  154.2237 O   0  0  0  0  0  0  0  0  0  0  0  0
  150.7850  138.6907  156.3639 N   0  0  0  0  0  0  0  0  0  0  0  0
  149.8147  138.7365  157.4580 C   0  0  0  0  0  0  0  0  0  0  0  0
  148.5302  139.5046  157.1006 C   0  0  0  0  0  0  0  0  0  0  0  0
  148.1537  139.2507  155.7124 N   0  0  0  0  0  0  0  0  0  0  0  0
  147.3541  138.1686  155.5301 C   0  0  0  0  0  0  0  0  0  0  0  0
  147.1261  137.3050  156.5553 N   0  0  0  0  0  0  0  0  0  0  0  0
  146.3259  136.2492  156.3811 C   0  0  0  0  0  0  0  0  0  0  0  0
  145.6645  135.8755  155.2840 N   0  0  0  0  0  0  0  0  0  0  0  0
  145.8940  136.7355  154.2507 C   0  0  0  0  0  0  0  0  0  0  0  0
  146.7141  137.8980  154.2893 C   0  0  0  0  0  0  0  0  0  0  0  0
  146.7081  138.5249  153.0490 N   0  0  0  0  0  0  0  0  0  0  0  0
  145.9259  137.7773  152.3194 C   0  0  0  0  0  0  0  0  0  0  0  0
  145.4000  136.6771  152.9591 N   0  0  0  0  0  0  0  0  0  0  0  0
  144.5101  135.6780  152.3880 C   0  0  0  0  0  0  0  0  0  0  0  0
  145.1331  134.9041  151.2025 C   0  0  2  0  0  0  0  0  0  0  0  0
  145.3535  135.8013  150.1281 O   0  0  0  0  0  0  0  0  0  0  0  0
  144.2796  133.7442  150.6965 C   0  0  0  0  0  0  0  0  0  0  0  0
  145.3197  132.7385  150.2228 C   0  0  0  0  0  0  0  0  0  0  0  0
  146.3276  132.8505  151.2127 O   0  0  0  0  0  0  0  0  0  0  0  0
  146.4721  134.2254  151.5547 C   0  0  0  0  0  0  0  0  0  0  0  0
  149.2201  141.7073  156.5337 H   0  0  0  0  0  0  0  0  0  0  0  0
  149.7426  142.9749  155.4297 H   0  0  0  0  0  0  0  0  0  0  0  0
  150.8144  141.6389  155.7863 H   0  0  0  0  0  0  0  0  0  0  0  0
  149.7927  141.3213  153.5591 H   0  0  0  0  0  0  0  0  0  0  0  0
  147.0565  141.4578  154.8986 H   0  0  0  0  0  0  0  0  0  0  0  0
  147.3745  141.3167  153.1693 H   0  0  0  0  0  0  0  0  0  0  0  0
  147.8083  142.7808  154.0149 H   0  0  0  0  0  0  0  0  0  0  0  0
  148.8828  139.1047  153.7422 H   0  0  0  0  0  0  0  0  0  0  0  0
  151.7026  138.3355  156.5904 H   0  0  0  0  0  0  0  0  0  0  0  0
  149.5606  137.7044  157.7023 H   0  0  0  0  0  0  0  0  0  0  0  0
  150.2806  139.1627  158.3465 H   0  0  0  0  0  0  0  0  0  0  0  0
  147.7350  139.2497  157.8018 H   0  0  0  0  0  0  0  0  0  0  0  0
  148.6973  140.5747  157.2220 H   0  0  0  0  0  0  0  0  0  0  0  0
  146.1965  135.6133  157.2445 H   0  0  0  0  0  0  0  0  0  0  0  0
  145.7145  138.0073  151.2854 H   0  0  0  0  0  0  0  0  0  0  0  0
  144.2140  134.9861  153.1778 H   0  0  0  0  0  0  0  0  0  0  0  0
  143.5977  136.1826  152.0672 H   0  0  0  0  0  0  0  0  0  0  0  0
  145.7434  135.3228  149.4126 H   0  0  0  0  0  0  0  0  0  0  0  0
  143.7173  133.3019  151.5199 H   0  0  0  0  0  0  0  0  0  0  0  0
  143.5663  134.0257  149.9208 H   0  0  0  0  0  0  0  0  0  0  0  0
  144.9285  131.7232  150.1577 H   0  0  0  0  0  0  0  0  0  0  0  0
  145.7246  133.0191  149.2492 H   0  0  0  0  0  0  0  0  0  0  0  0
  147.3088  134.6533  150.9998 H   0  0  0  0  0  0  0  0  0  0  0  0
  146.7116  134.3046  152.6156 H   0  0  0  0  0  0  0  0  0  0  0  0
  1  2  1  0  0  0  0
  1 27  1  0  0  0  0
  1 28  1  0  0  0  0
  1 29  1  0  0  0  0
  2  3  1  0  0  0  0
  2  4  1  0  0  0  0
  2 30  1  0  0  0  0
  3 31  1  0  0  0  0
  3 32  1  0  0  0  0
  3 33  1  0  0  0  0
  4 10  1  0  0  0  0
  4  5  1  0  0  0  0
  4 34  1  0  0  0  0
  5  6  2  0  0  0  0
  5  7  1  0  0  0  0
  7  8  1  0  0  0  0
  7 35  1  0  0  0  0
  8  9  1  0  0  0  0
  8 36  1  0  0  0  0
  8 37  1  0  0  0  0
  9 10  1  0  0  0  0
  9 38  1  0  0  0  0
  9 39  1  0  0  0  0
 10 11  1  0  0  0  0
 11 16  1  0  0  0  0
 11 12  2  0  0  0  0
 12 13  1  0  0  0  0
 13 14  2  0  0  0  0
 13 40  1  0  0  0  0
 14 15  1  0  0  0  0
 15 19  1  0  0  0  0
 15 16  2  0  0  0  0
 16 17  1  0  0  0  0
 17 18  2  0  0  0  0
 18 19  1  0  0  0  0
 18 41  1  0  0  0  0
 19 20  1  0  0  0  0
 20 21  1  0  0  0  0
 20 42  1  0  0  0  0
 20 43  1  0  0  0  0
 21 26  1  0  0  0  0
 21 22  1  0  0  0  0
 21 23  1  0  0  0  0
 22 44  1  0  0  0  0
 23 24  1  0  0  0  0
 23 45  1  0  0  0  0
 23 46  1  0  0  0  0
 24 25  1  0  0  0  0
 24 47  1  0  0  0  0
 24 48  1  0  0  0  0
 25 26  1  0  0  0  0
 26 49  1  0  0  0  0
 26 50  1  0  0  0  0
M  END
> <s_m_source_file>
AV-unprocessed.smi

> <i_m_source_file_index>
274

> <i_lp_mmshare_version>
43012

> <i_f3d_flags>
0

> <s_epik_input>
W0NIM11bQ0hdKFtDSDNdKVtDQEBIXTFDKD1PKVtOSF1bQ0gyXVtDSDJdTjFjKG5bY0hdbjIpYyhjMjMpbltjSF1uM1tDSDJdW0NAQF00KFtPSF0pW0NIMl1bQ0gyXU9bQ0gyXTQ=

> <s_epik_cmdline>
J2VwaWtfcHl0aG9uJywgJy1waCcsICc3LjAnLCAnLXRuJywgJzgnLCAnLW1hJywgJzIwMCcsICctbWV0YWxfYmluZGluZycsICctaW1hZScsICc8aW5maWxlLm1hZT4nLCAnLW9tYWUnLCAnPG91dGZpbGUubWFlPic=

> <r_lp_tautomer_probability>
1

> <r_epik_Ionization_Penalty>
0.000690079

> <r_epik_Ionization_Penalty_Charging>
0

> <r_epik_Ionization_Penalty_Neutral>
0.000690079

> <r_epik_State_Penalty>
0.000321372

> <r_epik_Charging_Adjusted_Penalty>
0.000321372

> <i_epik_Tot_Q>
0

> <i_epik_Tot_abs_Q>
0

> <r_epik_Metal_State_Penalty>
-0

> <b_epik_Metal_Only>
0

> <s_lp_Force_Field>
OPLS_2005

> <r_lp_Energy>
41.7848

> <b_lp_Chiralities_Consistent>
1

> <s_lp_Variant>
AV-unprocessed.smi:274-4

> <Gold.Version>
5.8.1

> <Gold.Id.Protein>
6NUR|6NUR_protein|mol2

> <Gold.PLP.Fitness>
39.0152

> <Gold.PLP.PLP>
-30.7084

> <Gold.PLP.part.hbond>
-2.9312

> <Gold.PLP.part.metal>
0.0000

> <Gold.PLP.part.buried>
-1.8322

> <Gold.PLP.part.nonpolar>
-26.5814

> <Gold.PLP.part.repulsive>
0.6677

> <Gold.PLP.ligand.clash>
0.0000

> <Gold.PLP.ligand.torsion>
0.4852

> <Gold.PLP.Chemscore.Hbond>
1.9833

> <Gold.PLP.Chemscore.CHOScore>
1.0000

> <Gold.PLP.Chemscore.Metal>
0.0000

> <Gold.Chemscore.Hbonds>
donor molecule, donor type, donor heavy atom, donor atom, acceptor molecule, acceptor atom, score
      L1  H    22    44       P1  7921  1.00
      P1  H  7989  7998       L1     6  0.80
      L1  C    18    41       P1 10171  1.00

> <Gold.PLP.Chemscore.Internal.Correction>
0.3273

> <Gold.Rescore>
     Score         DG    S(hbond)    S(metal)    S(lipo)     H(rot)  DE(clash)    DE(int)     intcor
      9.79     -11.55       1.24        0.00      63.31       2.14       0.24       1.52       ----

> <Gold.Chemscore.Fitness>
9.7861

> <Gold.Chemscore.DG>
-11.5549

> <Gold.Chemscore.ZeroCoef>
-5.4800

> <Gold.Chemscore.Hbond>
1.2438

> <Gold.Chemscore.Metal>
0.0000

> <Gold.Chemscore.Lipo>
63.3059

> <Gold.Chemscore.Internal_Hbond>
0.0000

> <Gold.Chemscore.DEClash>
0.2446

> <Gold.Chemscore.DEInternal>
1.5242

> <Gold.Chemscore.Rot>
2.1431

> <Gold.Chemscore.Internal.Correction>
   9.000000E+99

> <Gold.Chemscore.Hbonds>
donor molecule, donor type, donor heavy atom, donor atom, acceptor molecule, acceptor atom, score
      L1  H    22    44       P1  7921  0.99
      P1  H  7989  7998       L1     6  0.26

> <Gold.Chemscore.Hbond.Weighted>
-4.1544

> <Gold.Chemscore.Metal.Weighted>
-0.0000

> <Gold.Chemscore.Lipo.Weighted>
-7.4068

> <Gold.Chemscore.Internal_Hbond.Weighted>
0.0000

> <Gold.Chemscore.DEClash.Weighted>
0.2446

> <Gold.Chemscore.DEInternal.Weighted>
1.5242

> <Gold.Chemscore.Rot.Weighted>
5.4863

> <Gold.Chemscore.Internal.Correction.Weighted>
   9.000000E+99

> <Gold.Protein.RotatedTorsions>
[ 6907 6896 6895 6894 ] final  102.07 input  -60.11 | X-H torsion
[ 7974 7965 7964 7962 ] final   -2.53 input  175.53 | X-H torsion
[ 8008 7997 7996 7995 ] final   -8.92 input   59.86 | X-H torsion
[ 10167 10162 10161 10158 ] final  136.85 input  -65.29 | X-H torsion
[ 10718 10713 10712 10709 ] final -175.70 input   66.30 | X-H torsion
[ 10763 10752 10751 10750 ] final -175.89 input  -60.55 | X-H torsion
[ 11005 11000 10999 10996 ] final  -75.50 input  -57.11 | X-H torsion

> <Gold.Protein.ActiveResidues>
 VAL166  LYS551  ARG553  GLY616  TRP617  ASP618  TYR619  PRO620  LYS621  CYS622 
 ASP623  PHE694  ASN695  SER759  ASP760  ASP761  ALA762  ILE779  LEU786  VAL792 
 PHE793  MET794  SER795  GLU796  ALA797  LYS798  CYS799  TRP800  GLU811  SER814 

> <Gold.Protein.RotatedAtoms>
  152.5333  134.0030  159.7903 H   0  0  0  0  0  0  0  0  0  0  0  0  # atno 6907 bound_to 6896
  151.0246  133.5838  159.2674 H   0  0  0  0  0  0  0  0  0  0  0  0  # atno 6908 bound_to 6896
  151.2865  135.0736  159.9242 H   0  0  0  0  0  0  0  0  0  0  0  0  # atno 6909 bound_to 6896
  146.2403  140.1585  142.8333 H   0  0  0  0  0  0  0  0  0  0  0  0  # atno 7974 bound_to 7965
  154.5695  140.2368  155.8213 H   0  0  0  0  0  0  0  0  0  0  0  0  # atno 8008 bound_to 7997
  156.2095  140.3030  155.9659 H   0  0  0  0  0  0  0  0  0  0  0  0  # atno 8009 bound_to 7997
  155.2739  140.0419  157.3000 H   0  0  0  0  0  0  0  0  0  0  0  0  # atno 8010 bound_to 7997
  139.5165  144.6442  151.5486 H   0  0  0  0  0  0  0  0  0  0  0  0  # atno 10167 bound_to 10162
  156.8037  130.9561  151.3118 H   0  0  0  0  0  0  0  0  0  0  0  0  # atno 10718 bound_to 10713
  154.5789  135.2834  155.0753 H   0  0  0  0  0  0  0  0  0  0  0  0  # atno 10763 bound_to 10752
  154.2096  135.6410  153.5115 H   0  0  0  0  0  0  0  0  0  0  0  0  # atno 10764 bound_to 10752
  153.0081  135.5488  154.6437 H   0  0  0  0  0  0  0  0  0  0  0  0  # atno 10765 bound_to 10752
  141.1646  133.6949  156.7526 H   0  0  0  0  0  0  0  0  0  0  0  0  # atno 11005 bound_to 11000
  145.0109  140.8713  143.5225 LP  0  0  0  0  0  0  0  0  0  0  0  0  # atno 17320 bound_to 7965
  145.1618  139.2454  143.5387 LP  0  0  0  0  0  0  0  0  0  0  0  0  # atno 17321 bound_to 7965
  140.6220  143.9240  150.6534 LP  0  0  0  0  0  0  0  0  0  0  0  0  # atno 17342 bound_to 10162
  140.2516  143.3589  152.1400 LP  0  0  0  0  0  0  0  0  0  0  0  0  # atno 17343 bound_to 10162
  157.6541  130.8909  149.9692 LP  0  0  0  0  0  0  0  0  0  0  0  0  # atno 17370 bound_to 10713
  156.1086  130.3651  150.0090 LP  0  0  0  0  0  0  0  0  0  0  0  0  # atno 17371 bound_to 10713
  140.2593  134.8479  157.3743 LP  0  0  0  0  0  0  0  0  0  0  0  0  # atno 17394 bound_to 11000
  140.1627  134.4708  155.7884 LP  0  0  0  0  0  0  0  0  0  0  0  0  # atno 17395 bound_to 11000

$$$$
