AV-unprocessed.smi:2699|AV-procd|sdf|10425|dock3
  -GOLD-   2272014463D 1   1.00000     0.00000
 Structure written by MMmdl.
 43 45  0  0  0  0  0  0  0  0  1 V2000
  152.5086  139.4326  157.9748 C   0  0  0  0  0  0  0  0  0  0  0  0
  152.0022  138.6243  156.7867 C   0  0  0  0  0  0  0  0  0  0  0  0
  152.0633  137.2731  156.8306 C   0  0  0  0  0  0  0  0  0  0  0  0
  151.5510  136.4562  155.7167 C   0  0  0  0  0  0  0  0  0  0  0  0
  151.6287  135.2294  155.7169 O   0  0  0  0  0  0  0  0  0  0  0  0
  150.9364  137.1991  154.6080 C   0  0  0  0  0  0  0  0  0  0  0  0
  150.9234  138.5451  154.6496 C   0  0  0  0  0  0  0  0  0  0  0  0
  150.3484  139.2649  153.6742 O   0  0  0  0  0  0  0  0  0  0  0  0
  151.4707  139.3304  155.6841 N   0  0  0  0  0  0  0  0  0  0  0  0
  151.5042  140.8027  155.6074 C   0  0  0  0  0  0  0  0  0  0  0  0
  150.6527  141.4908  156.6918 C   0  0  0  0  0  0  0  0  0  0  0  0
  149.4537  141.2372  156.7984 O   0  0  0  0  0  0  0  0  0  0  0  0
  151.2429  142.3712  157.5146 N   0  0  0  0  0  0  0  0  0  0  0  0
  150.6041  143.1173  158.5948 C   0  0  0  0  0  0  0  0  0  0  0  0
  151.6080  143.5133  159.6943 C   0  0  0  0  0  0  0  0  0  0  0  0
  152.3862  142.2504  160.0787 C   0  0  0  0  0  0  0  0  0  0  0  0
  153.5337  142.2988  161.0558 C   0  0  0  0  0  0  0  0  0  0  0  0
  153.7844  141.9258  159.6066 C   0  0  0  0  0  0  0  0  0  0  0  0
  152.4708  144.7607  159.4014 C   0  0  0  0  0  0  0  0  0  0  0  0
  151.4264  145.6275  160.1020 C   0  0  0  0  0  0  0  0  0  0  0  0
  150.9828  144.3601  160.8307 C   0  0  0  0  0  0  0  0  0  0  0  0
  152.5910  138.8055  158.8631 H   0  0  0  0  0  0  0  0  0  0  0  0
  151.8358  140.2507  158.2303 H   0  0  0  0  0  0  0  0  0  0  0  0
  153.4975  139.8399  157.7636 H   0  0  0  0  0  0  0  0  0  0  0  0
  152.4744  136.7603  157.6881 H   0  0  0  0  0  0  0  0  0  0  0  0
  150.4961  136.6505  153.7878 H   0  0  0  0  0  0  0  0  0  0  0  0
  152.5279  141.1702  155.6664 H   0  0  0  0  0  0  0  0  0  0  0  0
  151.1661  141.1349  154.6257 H   0  0  0  0  0  0  0  0  0  0  0  0
  152.2278  142.5444  157.3752 H   0  0  0  0  0  0  0  0  0  0  0  0
  150.1316  144.0007  158.1632 H   0  0  0  0  0  0  0  0  0  0  0  0
  149.7995  142.5226  159.0295 H   0  0  0  0  0  0  0  0  0  0  0  0
  151.7491  141.3710  160.1508 H   0  0  0  0  0  0  0  0  0  0  0  0
  153.8781  143.2759  161.3886 H   0  0  0  0  0  0  0  0  0  0  0  0
  153.5907  141.5067  161.7994 H   0  0  0  0  0  0  0  0  0  0  0  0
  154.0078  140.8825  159.3940 H   0  0  0  0  0  0  0  0  0  0  0  0
  154.3156  142.6410  158.9846 H   0  0  0  0  0  0  0  0  0  0  0  0
  153.4245  144.7520  159.9321 H   0  0  0  0  0  0  0  0  0  0  0  0
  152.6123  144.9910  158.3450 H   0  0  0  0  0  0  0  0  0  0  0  0
  151.8369  146.4055  160.7463 H   0  0  0  0  0  0  0  0  0  0  0  0
  150.6689  146.0190  159.4216 H   0  0  0  0  0  0  0  0  0  0  0  0
  149.9019  144.2584  160.9333 H   0  0  0  0  0  0  0  0  0  0  0  0
  151.4718  144.2636  161.7989 H   0  0  0  0  0  0  0  0  0  0  0  0
  150.2389  138.6956  152.9283 H   0  0  0  0  0  0  0  0  0  0  0  0
  1  2  1  0  0  0  0
  1 22  1  0  0  0  0
  1 23  1  0  0  0  0
  1 24  1  0  0  0  0
  2  9  1  0  0  0  0
  2  3  2  0  0  0  0
  3  4  1  0  0  0  0
  3 25  1  0  0  0  0
  4  5  2  0  0  0  0
  4  6  1  0  0  0  0
  6  7  2  0  0  0  0
  6 26  1  0  0  0  0
  7  8  1  0  0  0  0
  7  9  1  0  0  0  0
  8 43  1  0  0  0  0
  9 10  1  0  0  0  0
 10 11  1  0  0  0  0
 10 27  1  0  0  0  0
 10 28  1  0  0  0  0
 11 12  2  0  0  0  0
 11 13  1  0  0  0  0
 13 14  1  0  0  0  0
 13 29  1  0  0  0  0
 14 15  1  0  0  0  0
 14 30  1  0  0  0  0
 14 31  1  0  0  0  0
 15 21  1  0  0  0  0
 15 16  1  0  0  0  0
 15 19  1  0  0  0  0
 16 18  1  0  0  0  0
 16 17  1  0  0  0  0
 16 32  1  0  0  0  0
 17 18  1  0  0  0  0
 17 33  1  0  0  0  0
 17 34  1  0  0  0  0
 18 35  1  0  0  0  0
 18 36  1  0  0  0  0
 19 20  1  0  0  0  0
 19 37  1  0  0  0  0
 19 38  1  0  0  0  0
 20 21  1  0  0  0  0
 20 39  1  0  0  0  0
 20 40  1  0  0  0  0
 21 41  1  0  0  0  0
 21 42  1  0  0  0  0
M  END
> <s_m_source_file>
AV-unprocessed.smi

> <i_m_source_file_index>
2699

> <i_lp_mmshare_version>
43012

> <i_f3d_flags>
0

> <s_epik_input>
W0NIM11jMVtjSF1jKFtPSF0pW2NIXWMoPU8pbjFbQ0gyXUMoPU8pW05IXVtDSDJdQzIoW0NIXTNbQ0gyXVtDSDJdMylbQ0gyXVtDSDJdW0NIMl0y

> <s_epik_cmdline>
J2VwaWtfcHl0aG9uJywgJy1waCcsICc3LjAnLCAnLXRuJywgJzgnLCAnLW1hJywgJzIwMCcsICctbWV0YWxfYmluZGluZycsICctaW1hZScsICc8aW5maWxlLm1hZT4nLCAnLW9tYWUnLCAnPG91dGZpbGUubWFlPic=

> <r_epik_Ionization_Penalty>
1.8336e-08

> <r_epik_Ionization_Penalty_Charging>
0

> <r_epik_Ionization_Penalty_Neutral>
1.8336e-08

> <r_epik_State_Penalty>
2.39433

> <r_epik_Charging_Adjusted_Penalty>
2.39433

> <i_epik_Tot_Q>
0

> <i_epik_Tot_abs_Q>
0

> <r_epik_Metal_State_Penalty>
2.39433

> <b_epik_Metal_Only>
0

> <s_lp_Force_Field>
OPLS_2005

> <r_lp_Energy>
30.2795

> <b_lp_Chiralities_Consistent>
1

> <s_lp_Variant>
AV-unprocessed.smi:2699-3

> <Gold.Version>
5.8.1

> <Gold.Id.Protein>
6NUR|6NUR_protein|mol2

> <Gold.PLP.Fitness>
44.4634

> <Gold.PLP.PLP>
-42.2766

> <Gold.PLP.part.hbond>
-3.0000

> <Gold.PLP.part.metal>
0.0000

> <Gold.PLP.part.buried>
-2.0138

> <Gold.PLP.part.nonpolar>
-36.0930

> <Gold.PLP.part.repulsive>
0.1561

> <Gold.PLP.ligand.clash>
0.0000

> <Gold.PLP.ligand.torsion>
1.2515

> <Gold.PLP.Chemscore.Hbond>
0.9990

> <Gold.PLP.Chemscore.CHOScore>
0.0000

> <Gold.PLP.Chemscore.Metal>
0.0000

> <Gold.Chemscore.Hbonds>
donor molecule, donor type, donor heavy atom, donor atom, acceptor molecule, acceptor atom, score
      L1  H     8    43       P1  7957  0.05
      P1  H  7989  7998       L1     8  0.89

> <Gold.PLP.Chemscore.Internal.Correction>
1.6929

> <Gold.Rescore>
     Score         DG    S(hbond)    S(metal)    S(lipo)     H(rot)  DE(clash)    DE(int)     intcor
     12.56     -15.22       0.70        0.00     115.72       2.40       0.86       1.80       ----

> <Gold.Chemscore.Fitness>
12.5579

> <Gold.Chemscore.DG>
-15.2151

> <Gold.Chemscore.ZeroCoef>
-5.4800

> <Gold.Chemscore.Hbond>
0.7041

> <Gold.Chemscore.Metal>
0.0000

> <Gold.Chemscore.Lipo>
115.7230

> <Gold.Chemscore.Internal_Hbond>
0.0000

> <Gold.Chemscore.DEClash>
0.8609

> <Gold.Chemscore.DEInternal>
1.7963

> <Gold.Chemscore.Rot>
2.4048

> <Gold.Chemscore.Internal.Correction>
   9.000000E+99

> <Gold.Chemscore.Hbonds>
donor molecule, donor type, donor heavy atom, donor atom, acceptor molecule, acceptor atom, score
      L1  H     8    43       P1  7957  0.03
      P1  H  7989  7998       L1     8  0.31

> <Gold.Chemscore.Hbond.Weighted>
-2.3519

> <Gold.Chemscore.Metal.Weighted>
-0.0000

> <Gold.Chemscore.Lipo.Weighted>
-13.5396

> <Gold.Chemscore.Internal_Hbond.Weighted>
0.0000

> <Gold.Chemscore.DEClash.Weighted>
0.8609

> <Gold.Chemscore.DEInternal.Weighted>
1.7963

> <Gold.Chemscore.Rot.Weighted>
6.1563

> <Gold.Chemscore.Internal.Correction.Weighted>
   9.000000E+99

> <Gold.Protein.RotatedTorsions>
[ 6907 6896 6895 6894 ] final    5.45 input  -60.11 | X-H torsion
[ 7974 7965 7964 7962 ] final -112.67 input  175.53 | X-H torsion
[ 8008 7997 7996 7995 ] final   -5.17 input   59.86 | X-H torsion
[ 10167 10162 10161 10158 ] final -100.22 input  -65.29 | X-H torsion
[ 10718 10713 10712 10709 ] final  -54.74 input   66.30 | X-H torsion
[ 10763 10752 10751 10750 ] final  -92.11 input  -60.55 | X-H torsion
[ 11005 11000 10999 10996 ] final   89.95 input  -57.11 | X-H torsion

> <Gold.Protein.ActiveResidues>
 VAL166  LYS551  ARG553  GLY616  TRP617  ASP618  TYR619  PRO620  LYS621  CYS622 
 ASP623  PHE694  ASN695  SER759  ASP760  ASP761  ALA762  ILE779  LEU786  VAL792 
 PHE793  MET794  SER795  GLU796  ALA797  LYS798  CYS799  TRP800  GLU811  SER814 

> <Gold.Protein.RotatedAtoms>
  151.6578  135.0993  160.0173 H   0  0  0  0  0  0  0  0  0  0  0  0  # atno 6907 bound_to 6896
  152.3964  133.6749  159.6288 H   0  0  0  0  0  0  0  0  0  0  0  0  # atno 6908 bound_to 6896
  150.7871  133.8783  159.3319 H   0  0  0  0  0  0  0  0  0  0  0  0  # atno 6909 bound_to 6896
  145.1412  140.8778  143.3701 H   0  0  0  0  0  0  0  0  0  0  0  0  # atno 7974 bound_to 7965
  154.6067  140.2465  155.7721 H   0  0  0  0  0  0  0  0  0  0  0  0  # atno 8008 bound_to 7997
  156.2345  140.2955  156.0227 H   0  0  0  0  0  0  0  0  0  0  0  0  # atno 8009 bound_to 7997
  155.2120  140.0397  157.2925 H   0  0  0  0  0  0  0  0  0  0  0  0  # atno 8010 bound_to 7997
  140.2541  143.3452  152.0687 H   0  0  0  0  0  0  0  0  0  0  0  0  # atno 10167 bound_to 10162
  156.1425  130.4154  150.0078 H   0  0  0  0  0  0  0  0  0  0  0  0  # atno 10718 bound_to 10713
  154.6828  135.5243  153.8286 H   0  0  0  0  0  0  0  0  0  0  0  0  # atno 10763 bound_to 10752
  153.0576  135.6556  154.0548 H   0  0  0  0  0  0  0  0  0  0  0  0  # atno 10764 bound_to 10752
  154.0433  135.2975  155.3331 H   0  0  0  0  0  0  0  0  0  0  0  0  # atno 10765 bound_to 10752
  139.8865  134.8583  156.3214 H   0  0  0  0  0  0  0  0  0  0  0  0  # atno 11005 bound_to 11000
  145.0531  139.3166  143.5918 LP  0  0  0  0  0  0  0  0  0  0  0  0  # atno 17320 bound_to 7965
  146.3505  139.9946  142.8682 LP  0  0  0  0  0  0  0  0  0  0  0  0  # atno 17321 bound_to 7965
  139.5037  144.6760  151.6127 LP  0  0  0  0  0  0  0  0  0  0  0  0  # atno 17342 bound_to 10162
  140.6017  143.9598  150.6391 LP  0  0  0  0  0  0  0  0  0  0  0  0  # atno 17343 bound_to 10162
  156.7959  130.9273  151.3646 LP  0  0  0  0  0  0  0  0  0  0  0  0  # atno 17370 bound_to 10713
  157.6588  130.8948  149.9786 LP  0  0  0  0  0  0  0  0  0  0  0  0  # atno 17371 bound_to 10713
  140.9784  133.7283  156.0635 LP  0  0  0  0  0  0  0  0  0  0  0  0  # atno 17394 bound_to 11000
  140.7781  134.3756  157.5493 LP  0  0  0  0  0  0  0  0  0  0  0  0  # atno 17395 bound_to 11000

$$$$
