AV-unprocessed.smi:169|AV-procd|sdf|1404|dock5
  -GOLD-   2262019153D 1   1.00000     0.00000
 Structure written by MMmdl.
 56 60  0  0  0  0  0  0  0  0  2 V2000
  152.4464  142.6949  158.6340 C   0  0  0  0  0  0  0  0  0  0  0  0
  151.2508  142.8602  157.6787 C   0  0  0  0  0  0  0  0  0  0  0  0
  150.7483  141.5826  157.1083 N   0  3  2  0  0  0  0  0  0  0  0  0
  151.7697  140.8281  156.3389 C   0  0  0  0  0  0  0  0  0  0  0  0
  151.6618  139.3131  156.5967 C   0  0  0  0  0  0  0  0  0  0  0  0
  150.3496  138.6404  156.1407 C   0  0  2  0  0  0  0  0  0  0  0  0
  150.0863  138.7751  154.6369 C   0  0  0  0  0  0  0  0  0  0  0  0
  149.1689  139.9967  154.5091 C   0  0  0  0  0  0  0  0  0  0  0  0
  148.7950  140.3915  155.9528 C   0  0  2  0  0  0  0  0  0  0  0  0
  149.4369  141.7229  156.4169 C   0  0  0  0  0  0  0  0  0  0  0  0
  149.1870  139.2524  156.7798 N   0  0  0  0  0  0  0  0  0  0  0  0
  148.1629  138.4904  157.2432 C   0  0  0  0  0  0  0  0  0  0  0  0
  146.9533  138.5010  156.6234 N   0  0  0  0  0  0  0  0  0  0  0  0
  145.9484  137.7552  157.0927 C   0  0  0  0  0  0  0  0  0  0  0  0
  145.9371  136.9411  158.1501 N   0  0  0  0  0  0  0  0  0  0  0  0
  147.1482  136.9265  158.7767 C   0  0  0  0  0  0  0  0  0  0  0  0
  148.3042  137.6600  158.3895 C   0  0  0  0  0  0  0  0  0  0  0  0
  149.3567  137.3784  159.2518 N   0  0  0  0  0  0  0  0  0  0  0  0
  148.8488  136.5314  160.1050 C   0  0  0  0  0  0  0  0  0  0  0  0
  147.5226  136.2167  159.9050 N   0  0  0  0  0  0  0  0  0  0  0  0
  146.7071  135.3064  160.6970 C   0  0  0  0  0  0  0  0  0  0  0  0
  146.4990  135.7339  162.1704 C   0  0  0  0  0  0  0  0  0  0  0  0
  145.4726  134.7831  162.8018 C   0  0  0  0  0  0  0  0  0  0  0  0
  145.9070  133.4398  162.7356 O   0  0  0  0  0  0  0  0  0  0  0  0
  147.7813  135.9508  162.9920 C   0  0  0  0  0  0  0  0  0  0  0  0
  147.6882  137.3843  162.8556 O   0  0  0  0  0  0  0  0  0  0  0  0
  146.3077  137.2327  162.4628 C   0  0  0  0  0  0  0  0  0  0  0  0
  152.7363  143.6611  159.0477 H   0  0  0  0  0  0  0  0  0  0  0  0
  153.3212  142.2886  158.1274 H   0  0  0  0  0  0  0  0  0  0  0  0
  152.2091  142.0416  159.4738 H   0  0  0  0  0  0  0  0  0  0  0  0
  150.4315  143.3509  158.2059 H   0  0  0  0  0  0  0  0  0  0  0  0
  151.5234  143.5317  156.8635 H   0  0  0  0  0  0  0  0  0  0  0  0
  151.7125  141.0678  155.2768 H   0  0  0  0  0  0  0  0  0  0  0  0
  152.7659  141.1360  156.6594 H   0  0  0  0  0  0  0  0  0  0  0  0
  152.4968  138.8159  156.1021 H   0  0  0  0  0  0  0  0  0  0  0  0
  151.8005  139.1254  157.6623 H   0  0  0  0  0  0  0  0  0  0  0  0
  150.4385  137.5838  156.3946 H   0  0  0  0  0  0  0  0  0  0  0  0
  151.0019  138.8696  154.0521 H   0  0  0  0  0  0  0  0  0  0  0  0
  149.5605  137.8897  154.2767 H   0  0  0  0  0  0  0  0  0  0  0  0
  149.6566  140.8079  153.9681 H   0  0  0  0  0  0  0  0  0  0  0  0
  148.2756  139.7293  153.9434 H   0  0  0  0  0  0  0  0  0  0  0  0
  147.7128  140.5314  155.9701 H   0  0  0  0  0  0  0  0  0  0  0  0
  148.7540  142.1844  157.1314 H   0  0  0  0  0  0  0  0  0  0  0  0
  149.5060  142.4195  155.5817 H   0  0  0  0  0  0  0  0  0  0  0  0
  145.0204  137.8217  156.5441 H   0  0  0  0  0  0  0  0  0  0  0  0
  149.4341  136.1109  160.9095 H   0  0  0  0  0  0  0  0  0  0  0  0
  145.7506  135.1990  160.1845 H   0  0  0  0  0  0  0  0  0  0  0  0
  147.1755  134.3223  160.6542 H   0  0  0  0  0  0  0  0  0  0  0  0
  145.2827  135.0443  163.8435 H   0  0  0  0  0  0  0  0  0  0  0  0
  144.5133  134.8468  162.2873 H   0  0  0  0  0  0  0  0  0  0  0  0
  145.9317  133.0868  163.6119 H   0  0  0  0  0  0  0  0  0  0  0  0
  147.6981  135.6421  164.0355 H   0  0  0  0  0  0  0  0  0  0  0  0
  148.6841  135.5364  162.5459 H   0  0  0  0  0  0  0  0  0  0  0  0
  146.0403  137.8403  161.5998 H   0  0  0  0  0  0  0  0  0  0  0  0
  145.6300  137.4348  163.2942 H   0  0  0  0  0  0  0  0  0  0  0  0
  150.5583  141.0059  157.9157 H   0  0  0  0  0  0  0  0  0  0  0  0
  1  2  1  0  0  0  0
  1 28  1  0  0  0  0
  1 29  1  0  0  0  0
  1 30  1  0  0  0  0
  2  3  1  0  0  0  0
  2 31  1  0  0  0  0
  2 32  1  0  0  0  0
  3 10  1  0  0  0  0
  3  4  1  0  0  0  0
  3 56  1  0  0  0  0
  4  5  1  0  0  0  0
  4 33  1  0  0  0  0
  4 34  1  0  0  0  0
  5  6  1  0  0  0  0
  5 35  1  0  0  0  0
  5 36  1  0  0  0  0
  6 11  1  0  0  0  0
  6  7  1  0  0  0  0
  6 37  1  0  0  0  0
  7  8  1  0  0  0  0
  7 38  1  0  0  0  0
  7 39  1  0  0  0  0
  8  9  1  0  0  0  0
  8 40  1  0  0  0  0
  8 41  1  0  0  0  0
  9 10  1  0  0  0  0
  9 11  1  0  0  0  0
  9 42  1  0  0  0  0
 10 43  1  0  0  0  0
 10 44  1  0  0  0  0
 11 12  1  0  0  0  0
 12 17  1  0  0  0  0
 12 13  2  0  0  0  0
 13 14  1  0  0  0  0
 14 15  2  0  0  0  0
 14 45  1  0  0  0  0
 15 16  1  0  0  0  0
 16 20  1  0  0  0  0
 16 17  2  0  0  0  0
 17 18  1  0  0  0  0
 18 19  2  0  0  0  0
 19 20  1  0  0  0  0
 19 46  1  0  0  0  0
 20 21  1  0  0  0  0
 21 22  1  0  0  0  0
 21 47  1  0  0  0  0
 21 48  1  0  0  0  0
 22 27  1  0  0  0  0
 22 23  1  0  0  0  0
 22 25  1  0  0  0  0
 23 24  1  0  0  0  0
 23 49  1  0  0  0  0
 23 50  1  0  0  0  0
 24 51  1  0  0  0  0
 25 26  1  0  0  0  0
 25 52  1  0  0  0  0
 25 53  1  0  0  0  0
 26 27  1  0  0  0  0
 27 54  1  0  0  0  0
 27 55  1  0  0  0  0
M  CHG  1   3   1
M  END
> <s_m_source_file>
AV-unprocessed.smi

> <i_m_source_file_index>
169

> <i_lp_mmshare_version>
43012

> <i_f3d_flags>
0

> <s_epik_input>
W0NASF0xMltDSDJdW0NIMl1OKFtDSDJdW0NIM10pW0NIMl1bQ0BIXShbQ0gyXVtDSDJdMSlOMmMobltjSF1uMyljKGMzNCluW2NIXW40W0NIMl1DNShbQ0gyXVtPSF0pW0NIMl1PW0NIMl01

> <s_epik_cmdline>
J2VwaWtfcHl0aG9uJywgJy1waCcsICc3LjAnLCAnLXRuJywgJzgnLCAnLW1hJywgJzIwMCcsICctbWV0YWxfYmluZGluZycsICctaW1hZScsICc8aW5maWxlLm1hZT4nLCAnLW9tYWUnLCAnPG91dGZpbGUubWFlPic=

> <r_lp_tautomer_probability>
1

> <r_epik_Ionization_Penalty>
0.00274162

> <r_epik_Ionization_Penalty_Charging>
0.00243722

> <r_epik_Ionization_Penalty_Neutral>
0.000304399

> <r_epik_State_Penalty>
-0

> <r_epik_Charging_Adjusted_Penalty>
0.00243722

> <i_epik_Tot_Q>
1

> <i_epik_Tot_abs_Q>
1

> <r_epik_Metal_State_Penalty>
-0

> <b_epik_Metal_Only>
0

> <s_lp_Force_Field>
OPLS_2005

> <r_lp_Energy>
74.1365

> <b_lp_Chiralities_Consistent>
1

> <s_lp_Variant>
AV-unprocessed.smi:169-7

> <Gold.Version>
5.8.1

> <Gold.Id.Protein>
6NUR|6NUR_protein|mol2

> <Gold.PLP.Fitness>
38.5519

> <Gold.PLP.PLP>
-37.5876

> <Gold.PLP.part.hbond>
-3.1144

> <Gold.PLP.part.metal>
0.0000

> <Gold.PLP.part.buried>
-4.9061

> <Gold.PLP.part.nonpolar>
-29.8434

> <Gold.PLP.part.repulsive>
0.0398

> <Gold.PLP.ligand.clash>
0.0000

> <Gold.PLP.ligand.torsion>
0.6686

> <Gold.PLP.Chemscore.Hbond>
0.5920

> <Gold.PLP.Chemscore.CHOScore>
0.0000

> <Gold.PLP.Chemscore.Metal>
0.0000

> <Gold.Chemscore.Hbonds>
donor molecule, donor type, donor heavy atom, donor atom, acceptor molecule, acceptor atom, score
      P1  H  6931  6943       L1    26  0.64

> <Gold.PLP.Chemscore.Internal.Correction>
0.5255

> <Gold.Rescore>
     Score         DG    S(hbond)    S(metal)    S(lipo)     H(rot)  DE(clash)    DE(int)     intcor
     11.99     -12.91       0.73        0.00      99.92       2.62       0.16       0.76       ----

> <Gold.Chemscore.Fitness>
11.9861

> <Gold.Chemscore.DG>
-12.9059

> <Gold.Chemscore.ZeroCoef>
-5.4800

> <Gold.Chemscore.Hbond>
0.7321

> <Gold.Chemscore.Metal>
0.0000

> <Gold.Chemscore.Lipo>
99.9228

> <Gold.Chemscore.Internal_Hbond>
0.0000

> <Gold.Chemscore.DEClash>
0.1638

> <Gold.Chemscore.DEInternal>
0.7561

> <Gold.Chemscore.Rot>
2.6212

> <Gold.Chemscore.Internal.Correction>
   9.000000E+99

> <Gold.Chemscore.Hbonds>
donor molecule, donor type, donor heavy atom, donor atom, acceptor molecule, acceptor atom, score
      P1  H  6931  6943       L1    26  0.61

> <Gold.Chemscore.Hbond.Weighted>
-2.4452

> <Gold.Chemscore.Metal.Weighted>
-0.0000

> <Gold.Chemscore.Lipo.Weighted>
-11.6910

> <Gold.Chemscore.Internal_Hbond.Weighted>
0.0000

> <Gold.Chemscore.DEClash.Weighted>
0.1638

> <Gold.Chemscore.DEInternal.Weighted>
0.7561

> <Gold.Chemscore.Rot.Weighted>
6.7102

> <Gold.Chemscore.Internal.Correction.Weighted>
   9.000000E+99

> <Gold.Protein.RotatedTorsions>
[ 6907 6896 6895 6894 ] final  122.41 input  -60.11 | X-H torsion
[ 7974 7965 7964 7962 ] final   85.83 input  175.53 | X-H torsion
[ 8008 7997 7996 7995 ] final -162.75 input   59.86 | X-H torsion
[ 10167 10162 10161 10158 ] final  -24.81 input  -65.29 | X-H torsion
[ 10718 10713 10712 10709 ] final -108.06 input   66.30 | X-H torsion
[ 10763 10752 10751 10750 ] final  118.27 input  -60.55 | X-H torsion
[ 11005 11000 10999 10996 ] final -114.65 input  -57.11 | X-H torsion

> <Gold.Protein.ActiveResidues>
 VAL166  LYS551  ARG553  GLY616  TRP617  ASP618  TYR619  PRO620  LYS621  CYS622 
 ASP623  PHE694  ASN695  SER759  ASP760  ASP761  ALA762  ILE779  LEU786  VAL792 
 PHE793  MET794  SER795  GLU796  ALA797  LYS798  CYS799  TRP800  GLU811  SER814 

> <Gold.Protein.RotatedAtoms>
  152.4245  133.7172  159.6512 H   0  0  0  0  0  0  0  0  0  0  0  0  # atno 6907 bound_to 6896
  150.8121  133.8391  159.3183 H   0  0  0  0  0  0  0  0  0  0  0  0  # atno 6908 bound_to 6896
  151.6098  135.1043  160.0130 H   0  0  0  0  0  0  0  0  0  0  0  0  # atno 6909 bound_to 6896
  145.5804  139.2324  143.2356 H   0  0  0  0  0  0  0  0  0  0  0  0  # atno 7974 bound_to 7965
  155.8113  140.0906  157.1902 H   0  0  0  0  0  0  0  0  0  0  0  0  # atno 8008 bound_to 7997
  154.3980  140.1454  156.3450 H   0  0  0  0  0  0  0  0  0  0  0  0  # atno 8009 bound_to 7997
  155.8362  140.3440  155.5606 H   0  0  0  0  0  0  0  0  0  0  0  0  # atno 8010 bound_to 7997
  140.7287  143.4320  151.0787 H   0  0  0  0  0  0  0  0  0  0  0  0  # atno 10167 bound_to 10162
  156.0467  130.5693  150.7908 H   0  0  0  0  0  0  0  0  0  0  0  0  # atno 10718 bound_to 10713
  153.5651  135.3513  155.2815 H   0  0  0  0  0  0  0  0  0  0  0  0  # atno 10763 bound_to 10752
  154.8690  135.4146  154.2788 H   0  0  0  0  0  0  0  0  0  0  0  0  # atno 10764 bound_to 10752
  153.3542  135.7056  153.6834 H   0  0  0  0  0  0  0  0  0  0  0  0  # atno 10765 bound_to 10752
  141.0538  133.9644  157.2789 H   0  0  0  0  0  0  0  0  0  0  0  0  # atno 11005 bound_to 11000
  146.1720  140.6630  142.9228 LP  0  0  0  0  0  0  0  0  0  0  0  0  # atno 17320 bound_to 7965
  144.7396  140.4907  143.6878 LP  0  0  0  0  0  0  0  0  0  0  0  0  # atno 17321 bound_to 7965
  139.7978  143.8127  152.3159 LP  0  0  0  0  0  0  0  0  0  0  0  0  # atno 17342 bound_to 10162
  139.8133  144.7327  150.9669 LP  0  0  0  0  0  0  0  0  0  0  0  0  # atno 17343 bound_to 10162
  157.5349  131.0938  150.9906 LP  0  0  0  0  0  0  0  0  0  0  0  0  # atno 17370 bound_to 10713
  157.0203  130.5671  149.5330 LP  0  0  0  0  0  0  0  0  0  0  0  0  # atno 17371 bound_to 10713
  139.9373  135.0195  156.8596 LP  0  0  0  0  0  0  0  0  0  0  0  0  # atno 17394 bound_to 11000
  140.6003  134.0178  155.7534 LP  0  0  0  0  0  0  0  0  0  0  0  0  # atno 17395 bound_to 11000

$$$$
