AV-unprocessed.smi:2807|AV-procd|sdf|10819|dock5
  -GOLD-   2272015253D 1   1.00000     0.00000
 Structure written by MMmdl.
 32 33  0  0  0  0  0  0  0  0  1 V2000
  150.4009  140.8938  158.4476 O   0  0  0  0  0  0  0  0  0  0  0  0
  150.2928  142.0176  157.9535 C   0  0  0  0  0  0  0  0  0  0  0  0
  149.5957  142.2530  156.8299 N   0  0  0  0  0  0  0  0  0  0  0  0
  148.8959  141.2419  156.0408 C   0  0  1  0  0  0  0  0  0  0  0  0
  147.3708  141.3866  156.2048 C   0  0  0  0  0  0  0  0  0  0  0  0
  146.8993  142.1545  154.9713 C   0  0  0  0  0  0  0  0  0  0  0  0
  147.8109  141.6454  153.8598 C   0  0  0  0  0  0  0  0  0  0  0  0
  149.1758  141.4466  154.5340 C   0  0  2  0  0  0  0  0  0  0  0  0
  149.8381  140.3332  153.9709 O   0  0  0  0  0  0  0  0  0  0  0  0
  150.9412  143.2452  158.6161 C   0  0  0  0  0  0  0  0  0  0  0  0
  151.6837  143.8834  157.7080 F   0  0  0  0  0  0  0  0  0  0  0  0
  149.9641  144.0718  158.9943 F   0  0  0  0  0  0  0  0  0  0  0  0
  151.8084  142.8657  159.8160 C   0  0  0  0  0  0  0  0  0  0  0  0
  152.8807  141.9543  159.6810 C   0  0  0  0  0  0  0  0  0  0  0  0
  153.6565  141.6512  160.8162 C   0  0  0  0  0  0  0  0  0  0  0  0
  153.3364  142.2663  162.0410 C   0  0  0  0  0  0  0  0  0  0  0  0
  152.2504  143.1625  162.0760 C   0  0  0  0  0  0  0  0  0  0  0  0
  151.5002  143.4600  160.9937 N   0  0  0  0  0  0  0  0  0  0  0  0
  149.5509  143.2040  156.4935 H   0  0  0  0  0  0  0  0  0  0  0  0
  149.2103  140.2483  156.3675 H   0  0  0  0  0  0  0  0  0  0  0  0
  146.9153  140.3955  156.2019 H   0  0  0  0  0  0  0  0  0  0  0  0
  147.0724  141.8720  157.1350 H   0  0  0  0  0  0  0  0  0  0  0  0
  145.8425  141.9956  154.7552 H   0  0  0  0  0  0  0  0  0  0  0  0
  147.0554  143.2239  155.1187 H   0  0  0  0  0  0  0  0  0  0  0  0
  147.4222  140.6929  153.4953 H   0  0  0  0  0  0  0  0  0  0  0  0
  147.8592  142.3271  153.0102 H   0  0  0  0  0  0  0  0  0  0  0  0
  149.7907  142.3332  154.3704 H   0  0  0  0  0  0  0  0  0  0  0  0
  149.4864  140.1798  153.1072 H   0  0  0  0  0  0  0  0  0  0  0  0
  153.1119  141.4995  158.7292 H   0  0  0  0  0  0  0  0  0  0  0  0
  154.4838  140.9604  160.7477 H   0  0  0  0  0  0  0  0  0  0  0  0
  153.9100  142.0579  162.9320 H   0  0  0  0  0  0  0  0  0  0  0  0
  151.9766  143.6531  162.9982 H   0  0  0  0  0  0  0  0  0  0  0  0
  1  2  2  0  0  0  0
  2  3  1  0  0  0  0
  2 10  1  0  0  0  0
  3  4  1  0  0  0  0
  3 19  1  0  0  0  0
  4  8  1  0  0  0  0
  4  5  1  0  0  0  0
  4 20  1  0  0  0  0
  5  6  1  0  0  0  0
  5 21  1  0  0  0  0
  5 22  1  0  0  0  0
  6  7  1  0  0  0  0
  6 23  1  0  0  0  0
  6 24  1  0  0  0  0
  7  8  1  0  0  0  0
  7 25  1  0  0  0  0
  7 26  1  0  0  0  0
  8  9  1  0  0  0  0
  8 27  1  0  0  0  0
  9 28  1  0  0  0  0
 10 11  1  0  0  0  0
 10 12  1  0  0  0  0
 10 13  1  0  0  0  0
 13 18  1  0  0  0  0
 13 14  2  0  0  0  0
 14 15  1  0  0  0  0
 14 29  1  0  0  0  0
 15 16  2  0  0  0  0
 15 30  1  0  0  0  0
 16 17  1  0  0  0  0
 16 31  1  0  0  0  0
 17 18  2  0  0  0  0
 17 32  1  0  0  0  0
M  END
> <s_m_source_file>
AV-unprocessed.smi

> <i_m_source_file_index>
2807

> <i_lp_mmshare_version>
43012

> <i_f3d_flags>
0

> <s_epik_input>
bjFbY0hdW2NIXVtjSF1bY0hdYzFDKEYpKEYpQyg9TylbTkhdW0NAQEhdMltDSDJdW0NIMl1bQ0gyXVtDQEhdMltPSF0=

> <s_epik_cmdline>
J2VwaWtfcHl0aG9uJywgJy1waCcsICc3LjAnLCAnLXRuJywgJzgnLCAnLW1hJywgJzIwMCcsICctbWV0YWxfYmluZGluZycsICctaW1hZScsICc8aW5maWxlLm1hZT4nLCAnLW9tYWUnLCAnPG91dGZpbGUubWFlPic=

> <r_lp_tautomer_probability>
1

> <r_epik_Ionization_Penalty>
4.08325e-05

> <r_epik_Ionization_Penalty_Charging>
0

> <r_epik_Ionization_Penalty_Neutral>
4.08325e-05

> <r_epik_State_Penalty>
-0

> <r_epik_Charging_Adjusted_Penalty>
0

> <i_epik_Tot_Q>
0

> <i_epik_Tot_abs_Q>
0

> <r_epik_Metal_State_Penalty>
0.034564

> <b_epik_Metal_Only>
0

> <s_lp_Force_Field>
OPLS_2005

> <r_lp_Energy>
23.3641

> <b_lp_Chiralities_Consistent>
1

> <s_lp_Variant>
AV-unprocessed.smi:2807-4

> <Gold.Version>
5.8.1

> <Gold.Id.Protein>
6NUR|6NUR_protein|mol2

> <Gold.PLP.Fitness>
51.8249

> <Gold.PLP.PLP>
-44.0814

> <Gold.PLP.part.hbond>
-3.3037

> <Gold.PLP.part.metal>
0.0000

> <Gold.PLP.part.buried>
-5.3831

> <Gold.PLP.part.nonpolar>
-35.5435

> <Gold.PLP.part.repulsive>
0.1399

> <Gold.PLP.ligand.clash>
0.0000

> <Gold.PLP.ligand.torsion>
0.2921

> <Gold.PLP.Chemscore.Hbond>
2.7680

> <Gold.PLP.Chemscore.CHOScore>
0.0000

> <Gold.PLP.Chemscore.Metal>
0.0000

> <Gold.Chemscore.Hbonds>
donor molecule, donor type, donor heavy atom, donor atom, acceptor molecule, acceptor atom, score
      L1  H     3    19       P1  8028  1.00
      L1  H     9    28       P1  7957  1.00
      P1  H  7989  7998       L1     9  0.70

> <Gold.PLP.Chemscore.Internal.Correction>
0.0237

> <Gold.Rescore>
     Score         DG    S(hbond)    S(metal)    S(lipo)     H(rot)  DE(clash)    DE(int)     intcor
     18.60     -19.12       2.33        0.00      94.80       2.05       0.09       0.43       ----

> <Gold.Chemscore.Fitness>
18.5997

> <Gold.Chemscore.DG>
-19.1220

> <Gold.Chemscore.ZeroCoef>
-5.4800

> <Gold.Chemscore.Hbond>
2.3314

> <Gold.Chemscore.Metal>
0.0000

> <Gold.Chemscore.Lipo>
94.8045

> <Gold.Chemscore.Internal_Hbond>
0.0000

> <Gold.Chemscore.DEClash>
0.0942

> <Gold.Chemscore.DEInternal>
0.4281

> <Gold.Chemscore.Rot>
2.0457

> <Gold.Chemscore.Internal.Correction>
   9.000000E+99

> <Gold.Chemscore.Hbonds>
donor molecule, donor type, donor heavy atom, donor atom, acceptor molecule, acceptor atom, score
      L1  H     3    19       P1  8028  1.00
      L1  H     9    28       P1  7957  0.96
      P1  H  7989  7998       L1     9  0.10

> <Gold.Chemscore.Hbond.Weighted>
-7.7870

> <Gold.Chemscore.Metal.Weighted>
-0.0000

> <Gold.Chemscore.Lipo.Weighted>
-11.0921

> <Gold.Chemscore.Internal_Hbond.Weighted>
0.0000

> <Gold.Chemscore.DEClash.Weighted>
0.0942

> <Gold.Chemscore.DEInternal.Weighted>
0.4281

> <Gold.Chemscore.Rot.Weighted>
5.2371

> <Gold.Chemscore.Internal.Correction.Weighted>
   9.000000E+99

> <Gold.Protein.RotatedTorsions>
[ 6907 6896 6895 6894 ] final -165.49 input  -60.11 | X-H torsion
[ 7974 7965 7964 7962 ] final  -36.07 input  175.53 | X-H torsion
[ 8008 7997 7996 7995 ] final -154.38 input   59.86 | X-H torsion
[ 10167 10162 10161 10158 ] final -119.41 input  -65.29 | X-H torsion
[ 10718 10713 10712 10709 ] final  100.24 input   66.30 | X-H torsion
[ 10763 10752 10751 10750 ] final  -49.74 input  -60.55 | X-H torsion
[ 11005 11000 10999 10996 ] final  -53.54 input  -57.11 | X-H torsion

> <Gold.Protein.ActiveResidues>
 VAL166  LYS551  ARG553  GLY616  TRP617  ASP618  TYR619  PRO620  LYS621  CYS622 
 ASP623  PHE694  ASN695  SER759  ASP760  ASP761  ALA762  ILE779  LEU786  VAL792 
 PHE793  MET794  SER795  GLU796  ALA797  LYS798  CYS799  TRP800  GLU811  SER814 

> <Gold.Protein.RotatedAtoms>
  151.4286  133.3677  159.2765 H   0  0  0  0  0  0  0  0  0  0  0  0  # atno 6907 bound_to 6896
  150.9241  134.8660  159.7519 H   0  0  0  0  0  0  0  0  0  0  0  0  # atno 6908 bound_to 6896
  152.4996  134.4226  159.9537 H   0  0  0  0  0  0  0  0  0  0  0  0  # atno 6909 bound_to 6896
  146.0693  140.6235  142.8960 H   0  0  0  0  0  0  0  0  0  0  0  0  # atno 7974 bound_to 7965
  155.6854  140.0749  157.2468 H   0  0  0  0  0  0  0  0  0  0  0  0  # atno 8008 bound_to 7997
  154.4098  140.1674  156.2080 H   0  0  0  0  0  0  0  0  0  0  0  0  # atno 8009 bound_to 7997
  155.9498  140.3378  155.6401 H   0  0  0  0  0  0  0  0  0  0  0  0  # atno 8010 bound_to 7997
  140.0470  143.5097  152.2101 H   0  0  0  0  0  0  0  0  0  0  0  0  # atno 10167 bound_to 10162
  157.6858  131.0692  150.5070 H   0  0  0  0  0  0  0  0  0  0  0  0  # atno 10718 bound_to 10713
  154.0990  135.6566  153.4865 H   0  0  0  0  0  0  0  0  0  0  0  0  # atno 10763 bound_to 10752
  153.0295  135.5220  154.7306 H   0  0  0  0  0  0  0  0  0  0  0  0  # atno 10764 bound_to 10752
  154.6452  135.2993  155.0024 H   0  0  0  0  0  0  0  0  0  0  0  0  # atno 10765 bound_to 10752
  141.0981  133.6621  156.4187 H   0  0  0  0  0  0  0  0  0  0  0  0  # atno 11005 bound_to 11000
  144.7221  140.4408  143.7000 LP  0  0  0  0  0  0  0  0  0  0  0  0  # atno 17320 bound_to 7965
  145.6421  139.1551  143.2910 LP  0  0  0  0  0  0  0  0  0  0  0  0  # atno 17321 bound_to 7965
  139.5977  144.7572  151.3246 LP  0  0  0  0  0  0  0  0  0  0  0  0  # atno 17342 bound_to 10162
  140.7234  143.7071  150.7798 LP  0  0  0  0  0  0  0  0  0  0  0  0  # atno 17343 bound_to 10162
  156.5389  130.4203  149.6164 LP  0  0  0  0  0  0  0  0  0  0  0  0  # atno 17370 bound_to 10713
  156.3003  130.7173  151.2043 LP  0  0  0  0  0  0  0  0  0  0  0  0  # atno 17371 bound_to 10713
  140.5091  134.6413  157.5277 LP  0  0  0  0  0  0  0  0  0  0  0  0  # atno 17394 bound_to 11000
  139.9823  134.7117  155.9836 LP  0  0  0  0  0  0  0  0  0  0  0  0  # atno 17395 bound_to 11000

$$$$
