AV-unprocessed.smi:198|AV-procd|sdf|1557|dock2
  -GOLD-   2262019423D 1   1.00000     0.00000
 Structure written by MMmdl.
 59 63  0  0  0  0  0  0  0  0  2 V2000
  146.6379  129.3131  152.9312 C   0  0  0  0  0  0  0  0  0  0  0  0
  146.8793  130.5771  152.2026 N   0  3  2  0  0  0  0  0  0  0  0  0
  147.1019  131.7210  153.1191 C   0  0  0  0  0  0  0  0  0  0  0  0
  147.4756  132.9866  152.3314 C   0  0  0  0  0  0  0  0  0  0  0  0
  146.4015  133.3543  151.2798 C   0  0  1  0  0  0  0  0  0  0  0  0
  146.1521  132.1246  150.3717 C   0  0  2  0  0  0  0  0  0  0  0  0
  145.0741  132.4357  149.3145 C   0  0  0  0  0  0  0  0  0  0  0  0
  143.7916  132.9792  149.9625 C   0  0  0  0  0  0  0  0  0  0  0  0
  144.1057  134.1736  150.8744 C   0  0  0  0  0  0  0  0  0  0  0  0
  145.1363  133.8372  151.8555 N   0  0  0  0  0  0  0  0  0  0  0  0
  145.2381  134.8038  152.7945 C   0  0  0  0  0  0  0  0  0  0  0  0
  144.8978  134.4684  154.0626 N   0  0  0  0  0  0  0  0  0  0  0  0
  144.9703  135.3823  155.0353 C   0  0  0  0  0  0  0  0  0  0  0  0
  145.3499  136.6594  154.9547 N   0  0  0  0  0  0  0  0  0  0  0  0
  145.6930  136.9985  153.6785 C   0  0  0  0  0  0  0  0  0  0  0  0
  145.6630  136.1391  152.5445 C   0  0  0  0  0  0  0  0  0  0  0  0
  146.0625  136.8344  151.4103 N   0  0  0  0  0  0  0  0  0  0  0  0
  146.3063  138.0399  151.8473 C   0  0  0  0  0  0  0  0  0  0  0  0
  146.1371  138.2200  153.2021 N   0  0  0  0  0  0  0  0  0  0  0  0
  146.2882  139.4485  153.9268 C   0  0  0  0  0  0  0  0  0  0  0  0
  146.9921  140.6545  153.2972 C   0  0  0  0  0  0  0  0  0  0  0  0
  147.6079  141.0258  154.6641 C   0  0  0  0  0  0  0  0  0  0  0  0
  149.1079  141.3584  154.6356 C   0  0  0  0  0  0  0  0  0  0  0  0
  149.7520  140.7452  153.5372 O   0  0  0  0  0  0  0  0  0  0  0  0
  146.9107  142.1431  155.4720 C   0  0  0  0  0  0  0  0  0  0  0  0
  147.5080  142.3814  156.7304 O   0  0  0  0  0  0  0  0  0  0  0  0
  147.2851  139.5737  155.0831 C   0  0  0  0  0  0  0  0  0  0  0  0
  145.8203  130.8637  151.2040 C   0  0  0  0  0  0  0  0  0  0  0  0
  145.7240  129.3714  153.5240 H   0  0  0  0  0  0  0  0  0  0  0  0
  147.4678  129.0910  153.6032 H   0  0  0  0  0  0  0  0  0  0  0  0
  146.5426  128.4789  152.2354 H   0  0  0  0  0  0  0  0  0  0  0  0
  146.2062  131.8959  153.7172 H   0  0  0  0  0  0  0  0  0  0  0  0
  147.9051  131.4781  153.8158 H   0  0  0  0  0  0  0  0  0  0  0  0
  147.6686  133.8131  153.0157 H   0  0  0  0  0  0  0  0  0  0  0  0
  148.4222  132.8122  151.8184 H   0  0  0  0  0  0  0  0  0  0  0  0
  146.7999  134.1558  150.6565 H   0  0  0  0  0  0  0  0  0  0  0  0
  147.0778  131.9153  149.8332 H   0  0  0  0  0  0  0  0  0  0  0  0
  145.4613  133.1801  148.6174 H   0  0  0  0  0  0  0  0  0  0  0  0
  144.8514  131.5488  148.7206 H   0  0  0  0  0  0  0  0  0  0  0  0
  143.0833  133.2795  149.1899 H   0  0  0  0  0  0  0  0  0  0  0  0
  143.2985  132.1955  150.5380 H   0  0  0  0  0  0  0  0  0  0  0  0
  144.4443  135.0162  150.2699 H   0  0  0  0  0  0  0  0  0  0  0  0
  143.1949  134.4940  151.3825 H   0  0  0  0  0  0  0  0  0  0  0  0
  144.6834  135.0421  156.0195 H   0  0  0  0  0  0  0  0  0  0  0  0
  146.6215  138.8355  151.1878 H   0  0  0  0  0  0  0  0  0  0  0  0
  145.2846  139.7198  154.2561 H   0  0  0  0  0  0  0  0  0  0  0  0
  147.7450  140.3608  152.5637 H   0  0  0  0  0  0  0  0  0  0  0  0
  146.3165  141.4026  152.8817 H   0  0  0  0  0  0  0  0  0  0  0  0
  149.2739  142.4353  154.5884 H   0  0  0  0  0  0  0  0  0  0  0  0
  149.6011  141.0111  155.5438 H   0  0  0  0  0  0  0  0  0  0  0  0
  149.1146  140.2351  153.0611 H   0  0  0  0  0  0  0  0  0  0  0  0
  146.9212  143.0824  154.9181 H   0  0  0  0  0  0  0  0  0  0  0  0
  145.8631  141.8996  155.6517 H   0  0  0  0  0  0  0  0  0  0  0  0
  148.1435  143.0744  156.6351 H   0  0  0  0  0  0  0  0  0  0  0  0
  146.8383  139.4698  156.0726 H   0  0  0  0  0  0  0  0  0  0  0  0
  148.1342  138.8976  154.9699 H   0  0  0  0  0  0  0  0  0  0  0  0
  145.7146  130.0060  150.5383 H   0  0  0  0  0  0  0  0  0  0  0  0
  144.8682  130.9779  151.7238 H   0  0  0  0  0  0  0  0  0  0  0  0
  147.7374  130.4505  151.6850 H   0  0  0  0  0  0  0  0  0  0  0  0
  1  2  1  0  0  0  0
  1 29  1  0  0  0  0
  1 30  1  0  0  0  0
  1 31  1  0  0  0  0
  2 28  1  0  0  0  0
  2  3  1  0  0  0  0
  2 59  1  0  0  0  0
  3  4  1  0  0  0  0
  3 32  1  0  0  0  0
  3 33  1  0  0  0  0
  4  5  1  0  0  0  0
  4 34  1  0  0  0  0
  4 35  1  0  0  0  0
  5 10  1  0  0  0  0
  5  6  1  0  0  0  0
  5 36  1  0  0  0  0
  6  7  1  0  0  0  0
  6 28  1  0  0  0  0
  6 37  1  0  0  0  0
  7  8  1  0  0  0  0
  7 38  1  0  0  0  0
  7 39  1  0  0  0  0
  8  9  1  0  0  0  0
  8 40  1  0  0  0  0
  8 41  1  0  0  0  0
  9 10  1  0  0  0  0
  9 42  1  0  0  0  0
  9 43  1  0  0  0  0
 10 11  1  0  0  0  0
 11 16  1  0  0  0  0
 11 12  2  0  0  0  0
 12 13  1  0  0  0  0
 13 14  2  0  0  0  0
 13 44  1  0  0  0  0
 14 15  1  0  0  0  0
 15 19  1  0  0  0  0
 15 16  2  0  0  0  0
 16 17  1  0  0  0  0
 17 18  2  0  0  0  0
 18 19  1  0  0  0  0
 18 45  1  0  0  0  0
 19 20  1  0  0  0  0
 20 27  1  0  0  0  0
 20 21  1  0  0  0  0
 20 46  1  0  0  0  0
 21 22  1  0  0  0  0
 21 47  1  0  0  0  0
 21 48  1  0  0  0  0
 22 23  1  0  0  0  0
 22 25  1  0  0  0  0
 22 27  1  0  0  0  0
 23 24  1  0  0  0  0
 23 49  1  0  0  0  0
 23 50  1  0  0  0  0
 24 51  1  0  0  0  0
 25 26  1  0  0  0  0
 25 52  1  0  0  0  0
 25 53  1  0  0  0  0
 26 54  1  0  0  0  0
 27 55  1  0  0  0  0
 27 56  1  0  0  0  0
 28 57  1  0  0  0  0
 28 58  1  0  0  0  0
M  CHG  1   2   1
M  END
> <s_m_source_file>
AV-unprocessed.smi

> <i_m_source_file_index>
198

> <i_lp_mmshare_version>
43012

> <i_f3d_flags>
0

> <s_epik_input>
W0NIMl0xW0NIMl1OKFtDSDNdKVtDSDJdW0NAQEhdKFtDQEhdMTIpW0NIMl1bQ0gyXVtDSDJdTjJjKG5bY0hdbjMpYyhjMzQpbltjSF1uNFtDSF0oW0NIMl01KVtDSDJdQzUoW0NIMl1bT0hdKVtDSDJdW09IXQ==

> <s_epik_cmdline>
J2VwaWtfcHl0aG9uJywgJy1waCcsICc3LjAnLCAnLXRuJywgJzgnLCAnLW1hJywgJzIwMCcsICctbWV0YWxfYmluZGluZycsICctaW1hZScsICc8aW5maWxlLm1hZT4nLCAnLW9tYWUnLCAnPG91dGZpbGUubWFlPic=

> <r_lp_tautomer_probability>
1

> <r_epik_Ionization_Penalty>
0.00239938

> <r_epik_Ionization_Penalty_Charging>
0.00138697

> <r_epik_Ionization_Penalty_Neutral>
0.00101241

> <r_epik_State_Penalty>
-0

> <r_epik_Charging_Adjusted_Penalty>
0.00138697

> <i_epik_Tot_Q>
1

> <i_epik_Tot_abs_Q>
1

> <r_epik_Metal_State_Penalty>
-0

> <b_epik_Metal_Only>
0

> <s_lp_Force_Field>
OPLS_2005

> <r_lp_Energy>
60.6867

> <b_lp_Chiralities_Consistent>
1

> <s_lp_Variant>
AV-unprocessed.smi:198-6

> <Gold.Version>
5.8.1

> <Gold.Id.Protein>
6NUR|6NUR_protein|mol2

> <Gold.PLP.Fitness>
50.3477

> <Gold.PLP.PLP>
-40.7812

> <Gold.PLP.part.hbond>
-4.6024

> <Gold.PLP.part.metal>
0.0000

> <Gold.PLP.part.buried>
-1.2301

> <Gold.PLP.part.nonpolar>
-37.0269

> <Gold.PLP.part.repulsive>
1.4467

> <Gold.PLP.ligand.clash>
0.0000

> <Gold.PLP.ligand.torsion>
0.7341

> <Gold.PLP.Chemscore.Hbond>
3.4760

> <Gold.PLP.Chemscore.CHOScore>
0.0000

> <Gold.PLP.Chemscore.Metal>
0.0000

> <Gold.Chemscore.Hbonds>
donor molecule, donor type, donor heavy atom, donor atom, acceptor molecule, acceptor atom, score
      L1  H     2    59       P1 10747  1.00
      L1  H    24    51       P1  7957  0.24
      L1  H    26    54       P1  8028  0.99
      P1  H  7989  7998       L1    24  0.38
      P1  H  8011  8017       L1    24  0.76

> <Gold.PLP.Chemscore.Internal.Correction>
0.6066

> <Gold.Rescore>
     Score         DG    S(hbond)    S(metal)    S(lipo)     H(rot)  DE(clash)    DE(int)     intcor
     16.62     -18.46       2.36        0.00     110.98       3.08       1.04       0.80       ----

> <Gold.Chemscore.Fitness>
16.6247

> <Gold.Chemscore.DG>
-18.4615

> <Gold.Chemscore.ZeroCoef>
-5.4800

> <Gold.Chemscore.Hbond>
2.3584

> <Gold.Chemscore.Metal>
0.0000

> <Gold.Chemscore.Lipo>
110.9788

> <Gold.Chemscore.Internal_Hbond>
0.0000

> <Gold.Chemscore.DEClash>
1.0375

> <Gold.Chemscore.DEInternal>
0.7993

> <Gold.Chemscore.Rot>
3.0781

> <Gold.Chemscore.Internal.Correction>
   9.000000E+99

> <Gold.Chemscore.Hbonds>
donor molecule, donor type, donor heavy atom, donor atom, acceptor molecule, acceptor atom, score
      L1  H     2    59       P1 10747  0.98
      L1  H    24    51       P1  7957  0.24
      L1  H    26    54       P1  8028  0.31
      P1  H  7989  7998       L1    24  0.36
      P1  H  8011  8017       L1    24  0.03

> <Gold.Chemscore.Hbond.Weighted>
-7.8770

> <Gold.Chemscore.Metal.Weighted>
-0.0000

> <Gold.Chemscore.Lipo.Weighted>
-12.9845

> <Gold.Chemscore.Internal_Hbond.Weighted>
0.0000

> <Gold.Chemscore.DEClash.Weighted>
1.0375

> <Gold.Chemscore.DEInternal.Weighted>
0.7993

> <Gold.Chemscore.Rot.Weighted>
7.8800

> <Gold.Chemscore.Internal.Correction.Weighted>
   9.000000E+99

> <Gold.Protein.RotatedTorsions>
[ 6907 6896 6895 6894 ] final -142.42 input  -60.11 | X-H torsion
[ 7974 7965 7964 7962 ] final   64.99 input  175.53 | X-H torsion
[ 8008 7997 7996 7995 ] final  -44.03 input   59.86 | X-H torsion
[ 10167 10162 10161 10158 ] final -113.35 input  -65.29 | X-H torsion
[ 10718 10713 10712 10709 ] final  179.27 input   66.30 | X-H torsion
[ 10763 10752 10751 10750 ] final -148.14 input  -60.55 | X-H torsion
[ 11005 11000 10999 10996 ] final   86.99 input  -57.11 | X-H torsion

> <Gold.Protein.ActiveResidues>
 VAL166  LYS551  ARG553  GLY616  TRP617  ASP618  TYR619  PRO620  LYS621  CYS622 
 ASP623  PHE694  ASN695  SER759  ASP760  ASP761  ALA762  ILE779  LEU786  VAL792 
 PHE793  MET794  SER795  GLU796  ALA797  LYS798  CYS799  TRP800  GLU811  SER814 

> <Gold.Protein.RotatedAtoms>
  151.0868  133.5347  159.2617 H   0  0  0  0  0  0  0  0  0  0  0  0  # atno 6907 bound_to 6896
  151.2229  135.0525  159.8967 H   0  0  0  0  0  0  0  0  0  0  0  0  # atno 6908 bound_to 6896
  152.5430  134.0668  159.8230 H   0  0  0  0  0  0  0  0  0  0  0  0  # atno 6909 bound_to 6896
  145.8437  139.3211  143.0916 H   0  0  0  0  0  0  0  0  0  0  0  0  # atno 7974 bound_to 7965
  154.3997  140.1432  156.3616 H   0  0  0  0  0  0  0  0  0  0  0  0  # atno 8008 bound_to 7997
  155.8175  140.3470  155.5473 H   0  0  0  0  0  0  0  0  0  0  0  0  # atno 8009 bound_to 7997
  155.8322  140.0914  157.1776 H   0  0  0  0  0  0  0  0  0  0  0  0  # atno 8010 bound_to 7997
  140.1128  143.4513  152.1742 H   0  0  0  0  0  0  0  0  0  0  0  0  # atno 10167 bound_to 10162
  156.8782  130.9807  151.3065 H   0  0  0  0  0  0  0  0  0  0  0  0  # atno 10718 bound_to 10713
  154.8249  135.3342  154.6928 H   0  0  0  0  0  0  0  0  0  0  0  0  # atno 10763 bound_to 10752
  153.7555  135.6936  153.4941 H   0  0  0  0  0  0  0  0  0  0  0  0  # atno 10764 bound_to 10752
  153.2146  135.4470  155.0369 H   0  0  0  0  0  0  0  0  0  0  0  0  # atno 10765 bound_to 10752
  139.8930  134.8392  156.2798 H   0  0  0  0  0  0  0  0  0  0  0  0  # atno 11005 bound_to 11000
  145.9436  140.8961  143.0295 LP  0  0  0  0  0  0  0  0  0  0  0  0  # atno 17320 bound_to 7965
  144.6732  140.1582  143.7424 LP  0  0  0  0  0  0  0  0  0  0  0  0  # atno 17321 bound_to 7965
  139.5610  144.7405  151.4155 LP  0  0  0  0  0  0  0  0  0  0  0  0  # atno 17342 bound_to 10162
  140.6916  143.7847  150.7264 LP  0  0  0  0  0  0  0  0  0  0  0  0  # atno 17343 bound_to 10162
  157.6156  130.8616  149.9023 LP  0  0  0  0  0  0  0  0  0  0  0  0  # atno 17370 bound_to 10713
  156.0691  130.3688  150.0814 LP  0  0  0  0  0  0  0  0  0  0  0  0  # atno 17371 bound_to 10713
  141.0046  133.7131  156.1014 LP  0  0  0  0  0  0  0  0  0  0  0  0  # atno 17394 bound_to 11000
  140.7451  134.4107  157.5549 LP  0  0  0  0  0  0  0  0  0  0  0  0  # atno 17395 bound_to 11000

$$$$
