AV-unprocessed.smi:446|AV-procd|sdf|2595|dock1
  -GOLD-   2262022593D 1   1.00000     0.00000
 Structure written by MMmdl.
 36 38  0  0  0  0  0  0  0  0  2 V2000
  151.8144  137.8278  154.8536 C   0  0  0  0  0  0  0  0  0  0  0  0
  150.6497  138.7178  154.5753 C   0  0  0  0  0  0  0  0  0  0  0  0
  149.5683  138.4061  153.8064 N   0  3  0  0  0  0  0  0  0  0  0  0
  148.6826  139.4845  153.7771 C   0  0  0  0  0  0  0  0  0  0  0  0
  147.4569  139.6417  153.1373 C   0  0  0  0  0  0  0  0  0  0  0  0
  146.8039  140.8791  153.3164 C   0  0  0  0  0  0  0  0  0  0  0  0
  147.3713  141.9021  154.1041 C   0  0  0  0  0  0  0  0  0  0  0  0
  148.6151  141.7315  154.7470 C   0  0  0  0  0  0  0  0  0  0  0  0
  149.2523  140.5044  154.5663 C   0  0  0  0  0  0  0  0  0  0  0  0
  150.4634  139.9873  155.0377 N   0  0  0  0  0  0  0  0  0  0  0  0
  151.3084  140.8197  155.9069 C   0  0  0  0  0  0  0  0  0  0  0  0
  150.9971  140.6361  157.4058 C   0  0  2  0  0  0  0  0  0  0  0  0
  149.6772  140.1533  157.5651 O   0  0  0  0  0  0  0  0  0  0  0  0
  151.2347  141.9237  158.1782 C   0  0  0  0  0  0  0  0  0  0  0  0
  152.2521  141.9831  159.1550 C   0  0  0  0  0  0  0  0  0  0  0  0
  152.4855  143.1769  159.8652 C   0  0  0  0  0  0  0  0  0  0  0  0
  151.7046  144.3183  159.6015 C   0  0  0  0  0  0  0  0  0  0  0  0
  151.9307  145.4662  160.2832 F   0  0  0  0  0  0  0  0  0  0  0  0
  150.6898  144.2658  158.6269 C   0  0  0  0  0  0  0  0  0  0  0  0
  150.4556  143.0723  157.9165 C   0  0  0  0  0  0  0  0  0  0  0  0
  151.7033  136.8763  154.3331 H   0  0  0  0  0  0  0  0  0  0  0  0
  151.8909  137.6310  155.9230 H   0  0  0  0  0  0  0  0  0  0  0  0
  152.7382  138.2997  154.5188 H   0  0  0  0  0  0  0  0  0  0  0  0
  147.0208  138.8599  152.5329 H   0  0  0  0  0  0  0  0  0  0  0  0
  145.8490  141.0471  152.8396 H   0  0  0  0  0  0  0  0  0  0  0  0
  146.8416  142.8369  154.2180 H   0  0  0  0  0  0  0  0  0  0  0  0
  149.0426  142.5208  155.3474 H   0  0  0  0  0  0  0  0  0  0  0  0
  152.3523  140.5842  155.6954 H   0  0  0  0  0  0  0  0  0  0  0  0
  151.1648  141.8600  155.6124 H   0  0  0  0  0  0  0  0  0  0  0  0
  151.6569  139.8691  157.8130 H   0  0  0  0  0  0  0  0  0  0  0  0
  149.1208  140.8776  157.8082 H   0  0  0  0  0  0  0  0  0  0  0  0
  152.8592  141.1144  159.3630 H   0  0  0  0  0  0  0  0  0  0  0  0
  153.2650  143.2174  160.6116 H   0  0  0  0  0  0  0  0  0  0  0  0
  150.0919  145.1417  158.4225 H   0  0  0  0  0  0  0  0  0  0  0  0
  149.6781  143.0424  157.1671 H   0  0  0  0  0  0  0  0  0  0  0  0
  149.4472  137.5180  153.3370 H   0  0  0  0  0  0  0  0  0  0  0  0
  1  2  1  0  0  0  0
  1 21  1  0  0  0  0
  1 22  1  0  0  0  0
  1 23  1  0  0  0  0
  2 10  1  0  0  0  0
  2  3  2  0  0  0  0
  3  4  1  0  0  0  0
  3 36  1  0  0  0  0
  4  9  2  0  0  0  0
  4  5  1  0  0  0  0
  5  6  2  0  0  0  0
  5 24  1  0  0  0  0
  6  7  1  0  0  0  0
  6 25  1  0  0  0  0
  7  8  2  0  0  0  0
  7 26  1  0  0  0  0
  8  9  1  0  0  0  0
  8 27  1  0  0  0  0
  9 10  1  0  0  0  0
 10 11  1  0  0  0  0
 11 12  1  0  0  0  0
 11 28  1  0  0  0  0
 11 29  1  0  0  0  0
 12 13  1  0  0  0  0
 12 14  1  0  0  0  0
 12 30  1  0  0  0  0
 13 31  1  0  0  0  0
 14 20  1  0  0  0  0
 14 15  2  0  0  0  0
 15 16  1  0  0  0  0
 15 32  1  0  0  0  0
 16 17  2  0  0  0  0
 16 33  1  0  0  0  0
 17 18  1  0  0  0  0
 17 19  1  0  0  0  0
 19 20  2  0  0  0  0
 19 34  1  0  0  0  0
 20 35  1  0  0  0  0
M  CHG  1   3   1
M  END
> <s_m_source_file>
AV-unprocessed.smi

> <i_m_source_file_index>
446

> <i_lp_mmshare_version>
43012

> <i_f3d_flags>
0

> <s_epik_input>
W2NIXTFbY0hdW2NIXVtjSF1jKGMxMiluKGMobjIpW0NIM10pW0NIMl1bQ0BIXShbT0hdKWMzW2NIXVtjSF1jKEYpW2NIXVtjSF0z

> <s_epik_cmdline>
J2VwaWtfcHl0aG9uJywgJy1waCcsICc3LjAnLCAnLXRuJywgJzgnLCAnLW1hJywgJzIwMCcsICctbWV0YWxfYmluZGluZycsICctaW1hZScsICc8aW5maWxlLm1hZT4nLCAnLW9tYWUnLCAnPG91dGZpbGUubWFlPic=

> <r_epik_Ionization_Penalty>
0.963869

> <r_epik_Ionization_Penalty_Charging>
0.963868

> <r_epik_Ionization_Penalty_Neutral>
1.79538e-06

> <r_epik_State_Penalty>
1.00924

> <r_epik_Charging_Adjusted_Penalty>
1.9731

> <i_epik_Tot_Q>
1

> <i_epik_Tot_abs_Q>
1

> <r_epik_Metal_State_Penalty>
4.98304

> <b_epik_Metal_Only>
0

> <s_lp_Force_Field>
OPLS_2005

> <r_lp_Energy>
14.7156

> <b_lp_Chiralities_Consistent>
1

> <s_lp_Variant>
AV-unprocessed.smi:446-3

> <Gold.Version>
5.8.1

> <Gold.Id.Protein>
6NUR|6NUR_protein|mol2

> <Gold.PLP.Fitness>
51.5882

> <Gold.PLP.PLP>
-47.2697

> <Gold.PLP.part.hbond>
-1.7784

> <Gold.PLP.part.metal>
0.0000

> <Gold.PLP.part.buried>
1.4189

> <Gold.PLP.part.nonpolar>
-47.1765

> <Gold.PLP.part.repulsive>
0.0552

> <Gold.PLP.ligand.clash>
0.0000

> <Gold.PLP.ligand.torsion>
0.8532

> <Gold.PLP.Chemscore.Hbond>
2.0000

> <Gold.PLP.Chemscore.CHOScore>
0.0000

> <Gold.PLP.Chemscore.Metal>
0.0000

> <Gold.Chemscore.Hbonds>
donor molecule, donor type, donor heavy atom, donor atom, acceptor molecule, acceptor atom, score
      L1  H     3    36       P1  7948  2.00

> <Gold.PLP.Chemscore.Internal.Correction>
0.0250

> <Gold.Rescore>
     Score         DG    S(hbond)    S(metal)    S(lipo)     H(rot)  DE(clash)    DE(int)     intcor
     15.94     -17.86       0.93        0.00     119.73       1.85       0.16       1.76       ----

> <Gold.Chemscore.Fitness>
15.9386

> <Gold.Chemscore.DG>
-17.8636

> <Gold.Chemscore.ZeroCoef>
-5.4800

> <Gold.Chemscore.Hbond>
0.9289

> <Gold.Chemscore.Metal>
0.0000

> <Gold.Chemscore.Lipo>
119.7283

> <Gold.Chemscore.Internal_Hbond>
0.0000

> <Gold.Chemscore.DEClash>
0.1641

> <Gold.Chemscore.DEInternal>
1.7610

> <Gold.Chemscore.Rot>
1.8465

> <Gold.Chemscore.Internal.Correction>
   9.000000E+99

> <Gold.Chemscore.Hbonds>
donor molecule, donor type, donor heavy atom, donor atom, acceptor molecule, acceptor atom, score
      L1  H     3    36       P1  7948  0.89

> <Gold.Chemscore.Hbond.Weighted>
-3.1025

> <Gold.Chemscore.Metal.Weighted>
-0.0000

> <Gold.Chemscore.Lipo.Weighted>
-14.0082

> <Gold.Chemscore.Internal_Hbond.Weighted>
0.0000

> <Gold.Chemscore.DEClash.Weighted>
0.1641

> <Gold.Chemscore.DEInternal.Weighted>
1.7610

> <Gold.Chemscore.Rot.Weighted>
4.7270

> <Gold.Chemscore.Internal.Correction.Weighted>
   9.000000E+99

> <Gold.Protein.RotatedTorsions>
[ 6907 6896 6895 6894 ] final  -10.68 input  -60.11 | X-H torsion
[ 7974 7965 7964 7962 ] final   81.35 input  175.53 | X-H torsion
[ 8008 7997 7996 7995 ] final  176.62 input   59.86 | X-H torsion
[ 10167 10162 10161 10158 ] final -107.44 input  -65.29 | X-H torsion
[ 10718 10713 10712 10709 ] final   73.37 input   66.30 | X-H torsion
[ 10763 10752 10751 10750 ] final  161.67 input  -60.55 | X-H torsion
[ 11005 11000 10999 10996 ] final  -51.44 input  -57.11 | X-H torsion

> <Gold.Protein.ActiveResidues>
 VAL166  LYS551  ARG553  GLY616  TRP617  ASP618  TYR619  PRO620  LYS621  CYS622 
 ASP623  PHE694  ASN695  SER759  ASP760  ASP761  ALA762  ILE779  LEU786  VAL792 
 PHE793  MET794  SER795  GLU796  ALA797  LYS798  CYS799  TRP800  GLU811  SER814 

> <Gold.Protein.RotatedAtoms>
  151.3982  135.0967  159.9547 H   0  0  0  0  0  0  0  0  0  0  0  0  # atno 6907 bound_to 6896
  152.5059  133.8914  159.7406 H   0  0  0  0  0  0  0  0  0  0  0  0  # atno 6908 bound_to 6896
  150.9382  133.6631  159.2825 H   0  0  0  0  0  0  0  0  0  0  0  0  # atno 6909 bound_to 6896
  145.6393  139.2422  143.2040 H   0  0  0  0  0  0  0  0  0  0  0  0  # atno 7974 bound_to 7965
  156.0745  140.1379  156.9788 H   0  0  0  0  0  0  0  0  0  0  0  0  # atno 8008 bound_to 7997
  154.4550  140.0965  156.6781 H   0  0  0  0  0  0  0  0  0  0  0  0  # atno 8009 bound_to 7997
  155.5175  140.3455  155.4402 H   0  0  0  0  0  0  0  0  0  0  0  0  # atno 8010 bound_to 7997
  140.1770  143.3997  152.1311 H   0  0  0  0  0  0  0  0  0  0  0  0  # atno 10167 bound_to 10162
  157.6544  130.9625  150.1059 H   0  0  0  0  0  0  0  0  0  0  0  0  # atno 10718 bound_to 10713
  154.2666  135.2767  155.2756 H   0  0  0  0  0  0  0  0  0  0  0  0  # atno 10763 bound_to 10752
  154.5338  135.5722  153.6784 H   0  0  0  0  0  0  0  0  0  0  0  0  # atno 10764 bound_to 10752
  152.9952  135.6234  154.2818 H   0  0  0  0  0  0  0  0  0  0  0  0  # atno 10765 bound_to 10752
  141.0871  133.6640  156.3878 H   0  0  0  0  0  0  0  0  0  0  0  0  # atno 11005 bound_to 11000
  146.1293  140.7206  142.9420 LP  0  0  0  0  0  0  0  0  0  0  0  0  # atno 17320 bound_to 7965
  144.7163  140.4222  143.7042 LP  0  0  0  0  0  0  0  0  0  0  0  0  # atno 17321 bound_to 7965
  139.5313  144.7162  151.5047 LP  0  0  0  0  0  0  0  0  0  0  0  0  # atno 17342 bound_to 10162
  140.6545  143.8628  150.6820 LP  0  0  0  0  0  0  0  0  0  0  0  0  # atno 17343 bound_to 10162
  156.1969  130.3658  149.8838 LP  0  0  0  0  0  0  0  0  0  0  0  0  # atno 17370 bound_to 10713
  156.6751  130.8836  151.3568 LP  0  0  0  0  0  0  0  0  0  0  0  0  # atno 17371 bound_to 10713
  140.5337  134.6187  157.5358 LP  0  0  0  0  0  0  0  0  0  0  0  0  # atno 17394 bound_to 11000
  139.9691  134.7323  156.0078 LP  0  0  0  0  0  0  0  0  0  0  0  0  # atno 17395 bound_to 11000

$$$$
