AV-unprocessed.smi:1965|AV-procd|sdf|7945|dock3
  -GOLD-   2272010113D 1   1.00000     0.00000
 Structure written by MMmdl.
 36 38  0  0  0  0  0  0  0  0  3 V2000
  148.3456  135.1391  157.8992 O   0  0  0  0  0  0  0  0  0  0  0  0
  148.0068  136.3153  158.0245 C   0  0  0  0  0  0  0  0  0  0  0  0
  147.9764  136.9633  159.2181 N   0  5  0  0  0  0  0  0  0  0  0  0
  147.8094  136.3189  160.3879 C   0  0  0  0  0  0  0  0  0  0  0  0
  147.7322  136.9470  161.5669 N   0  0  0  0  0  0  0  0  0  0  0  0
  147.5626  136.0795  162.6476 C   0  0  0  0  0  0  0  0  0  0  0  0
  147.5072  134.7605  162.2826 C   0  0  0  0  0  0  0  0  0  0  0  0
  147.6623  134.5677  160.5600 S   0  0  0  0  0  0  0  0  0  0  0  0
  147.6437  137.0067  156.9284 N   0  0  0  0  0  0  0  0  0  0  0  0
  147.6387  136.5044  155.5606 C   0  0  1  0  0  0  0  0  0  0  0  0
  146.7554  135.2604  155.3438 C   0  0  0  0  0  0  0  0  0  0  0  0
  146.1094  135.4573  153.9580 C   0  0  0  0  0  0  0  0  0  0  0  0
  146.6924  136.7056  153.4289 N   0  3  1  0  0  0  0  0  0  0  0  0
  145.9037  137.4460  152.4199 C   0  0  0  0  0  0  0  0  0  0  0  0
  146.7084  138.6728  151.9436 C   0  0  0  0  0  0  0  0  0  0  0  0
  147.1747  139.5477  153.1256 C   0  0  0  0  0  0  0  0  0  0  0  0
  147.9123  138.7043  154.1835 C   0  0  0  0  0  0  0  0  0  0  0  0
  147.0243  137.5228  154.6045 C   0  0  2  0  0  0  0  0  0  0  0  0
  147.4900  136.4880  163.6447 H   0  0  0  0  0  0  0  0  0  0  0  0
  147.3813  133.8956  162.9164 H   0  0  0  0  0  0  0  0  0  0  0  0
  147.3615  137.9668  157.0630 H   0  0  0  0  0  0  0  0  0  0  0  0
  148.6606  136.2844  155.2445 H   0  0  0  0  0  0  0  0  0  0  0  0
  147.3473  134.3456  155.3920 H   0  0  0  0  0  0  0  0  0  0  0  0
  145.9781  135.1879  156.1063 H   0  0  0  0  0  0  0  0  0  0  0  0
  146.3078  134.6232  153.2844 H   0  0  0  0  0  0  0  0  0  0  0  0
  145.0281  135.5603  154.0614 H   0  0  0  0  0  0  0  0  0  0  0  0
  145.6801  136.7912  151.5774 H   0  0  0  0  0  0  0  0  0  0  0  0
  144.9505  137.7578  152.8494 H   0  0  0  0  0  0  0  0  0  0  0  0
  147.5808  138.3351  151.3825 H   0  0  0  0  0  0  0  0  0  0  0  0
  146.1099  139.2668  151.2524 H   0  0  0  0  0  0  0  0  0  0  0  0
  147.8205  140.3504  152.7680 H   0  0  0  0  0  0  0  0  0  0  0  0
  146.3096  140.0288  153.5841 H   0  0  0  0  0  0  0  0  0  0  0  0
  148.8562  138.3397  153.7761 H   0  0  0  0  0  0  0  0  0  0  0  0
  148.1600  139.3190  155.0497 H   0  0  0  0  0  0  0  0  0  0  0  0
  146.0950  137.9037  155.0358 H   0  0  0  0  0  0  0  0  0  0  0  0
  147.5720  136.4528  153.0018 H   0  0  0  0  0  0  0  0  0  0  0  0
  1  2  2  0  0  0  0
  2  3  1  0  0  0  0
  2  9  1  0  0  0  0
  3  4  1  0  0  0  0
  4  8  1  0  0  0  0
  4  5  2  0  0  0  0
  5  6  1  0  0  0  0
  6  7  2  0  0  0  0
  6 19  1  0  0  0  0
  7  8  1  0  0  0  0
  7 20  1  0  0  0  0
  9 10  1  0  0  0  0
  9 21  1  0  0  0  0
 10 18  1  0  0  0  0
 10 11  1  0  0  0  0
 10 22  1  0  0  0  0
 11 12  1  0  0  0  0
 11 23  1  0  0  0  0
 11 24  1  0  0  0  0
 12 13  1  0  0  0  0
 12 25  1  0  0  0  0
 12 26  1  0  0  0  0
 13 18  1  0  0  0  0
 13 14  1  0  0  0  0
 13 36  1  0  0  0  0
 14 15  1  0  0  0  0
 14 27  1  0  0  0  0
 14 28  1  0  0  0  0
 15 16  1  0  0  0  0
 15 29  1  0  0  0  0
 15 30  1  0  0  0  0
 16 17  1  0  0  0  0
 16 31  1  0  0  0  0
 16 32  1  0  0  0  0
 17 18  1  0  0  0  0
 17 33  1  0  0  0  0
 17 34  1  0  0  0  0
 18 35  1  0  0  0  0
M  CHG  1   3  -1
M  CHG  1  13   1
M  END
> <s_m_source_file>
AV-unprocessed.smi

> <i_m_source_file_index>
1965

> <i_lp_mmshare_version>
43012

> <i_f3d_flags>
0

> <s_epik_input>
czFbY0hdW2NIXW5jMVtOSF1DKD1PKVtOSF1bQ0BIXShbQ0gyXVtDSDJdMilbQ0BASF0oTjIzKVtDSDJdW0NIMl1bQ0gyXVtDSDJdMw==

> <s_epik_cmdline>
J2VwaWtfcHl0aG9uJywgJy1waCcsICc3LjAnLCAnLXRuJywgJzgnLCAnLW1hJywgJzIwMCcsICctbWV0YWxfYmluZGluZycsICctaW1hZScsICc8aW5maWxlLm1hZT4nLCAnLW9tYWUnLCAnPG91dGZpbGUubWFlPic=

> <r_lp_tautomer_probability>
1

> <r_epik_Ionization_Penalty>
7.4116

> <r_epik_Ionization_Penalty_Charging>
6.13869

> <r_epik_Ionization_Penalty_Neutral>
1.27291

> <r_epik_State_Penalty>
6.13761

> <r_epik_Charging_Adjusted_Penalty>
12.2763

> <i_epik_Tot_Q>
0

> <i_epik_Tot_abs_Q>
2

> <r_epik_Metal_State_Penalty>
2.08142

> <b_epik_Metal_Only>
1

> <s_lp_Force_Field>
OPLS_2005

> <r_lp_Energy>
26.2693

> <b_lp_Chiralities_Consistent>
1

> <s_lp_Variant>
AV-unprocessed.smi:1965-14

> <Gold.Version>
5.8.1

> <Gold.Id.Protein>
6NUR|6NUR_protein|mol2

> <Gold.PLP.Fitness>
37.8189

> <Gold.PLP.PLP>
-26.7552

> <Gold.PLP.part.hbond>
-3.0000

> <Gold.PLP.part.metal>
0.0000

> <Gold.PLP.part.buried>
-2.8031

> <Gold.PLP.part.nonpolar>
-21.1040

> <Gold.PLP.part.repulsive>
0.0000

> <Gold.PLP.ligand.clash>
0.0000

> <Gold.PLP.ligand.torsion>
0.1663

> <Gold.PLP.Chemscore.Hbond>
3.7920

> <Gold.PLP.Chemscore.CHOScore>
0.0000

> <Gold.PLP.Chemscore.Metal>
0.0000

> <Gold.Chemscore.Hbonds>
donor molecule, donor type, donor heavy atom, donor atom, acceptor molecule, acceptor atom, score
      L1  H    13    36       P1  7948  2.00
      P1  H  6931  6943       L1     5  1.00
      P1  H  6934  6947       L1     5  0.38

> <Gold.PLP.Chemscore.Internal.Correction>
0.0203

> <Gold.Rescore>
     Score         DG    S(hbond)    S(metal)    S(lipo)     H(rot)  DE(clash)    DE(int)     intcor
     13.51     -16.05       1.96        0.00      56.38       1.00       0.07       2.47       ----

> <Gold.Chemscore.Fitness>
13.5141

> <Gold.Chemscore.DG>
-16.0490

> <Gold.Chemscore.ZeroCoef>
-5.4800

> <Gold.Chemscore.Hbond>
1.9560

> <Gold.Chemscore.Metal>
0.0000

> <Gold.Chemscore.Lipo>
56.3761

> <Gold.Chemscore.Internal_Hbond>
0.0000

> <Gold.Chemscore.DEClash>
0.0659

> <Gold.Chemscore.DEInternal>
2.4691

> <Gold.Chemscore.Rot>
1.0000

> <Gold.Chemscore.Internal.Correction>
   9.000000E+99

> <Gold.Chemscore.Hbonds>
donor molecule, donor type, donor heavy atom, donor atom, acceptor molecule, acceptor atom, score
      L1  H    13    36       P1  7948  1.00
      P1  H  6931  6943       L1     5  0.77
      P1  H  6934  6947       L1     5  0.13

> <Gold.Chemscore.Hbond.Weighted>
-6.5330

> <Gold.Chemscore.Metal.Weighted>
-0.0000

> <Gold.Chemscore.Lipo.Weighted>
-6.5960

> <Gold.Chemscore.Internal_Hbond.Weighted>
0.0000

> <Gold.Chemscore.DEClash.Weighted>
0.0659

> <Gold.Chemscore.DEInternal.Weighted>
2.4691

> <Gold.Chemscore.Rot.Weighted>
2.5600

> <Gold.Chemscore.Internal.Correction.Weighted>
   9.000000E+99

> <Gold.Protein.RotatedTorsions>
[ 6907 6896 6895 6894 ] final  -88.78 input  -60.11 | X-H torsion
[ 7974 7965 7964 7962 ] final  -16.87 input  175.53 | X-H torsion
[ 8008 7997 7996 7995 ] final  157.03 input   59.86 | X-H torsion
[ 10167 10162 10161 10158 ] final  -17.87 input  -65.29 | X-H torsion
[ 10718 10713 10712 10709 ] final   49.63 input   66.30 | X-H torsion
[ 10763 10752 10751 10750 ] final -107.00 input  -60.55 | X-H torsion
[ 11005 11000 10999 10996 ] final   96.20 input  -57.11 | X-H torsion

> <Gold.Protein.ActiveResidues>
 VAL166  LYS551  ARG553  GLY616  TRP617  ASP618  TYR619  PRO620  LYS621  CYS622 
 ASP623  PHE694  ASN695  SER759  ASP760  ASP761  ALA762  ILE779  LEU786  VAL792 
 PHE793  MET794  SER795  GLU796  ALA797  LYS798  CYS799  TRP800  GLU811  SER814 

> <Gold.Protein.RotatedAtoms>
  150.6870  134.2689  159.4579 H   0  0  0  0  0  0  0  0  0  0  0  0  # atno 6907 bound_to 6896
  152.0613  134.9590  160.0584 H   0  0  0  0  0  0  0  0  0  0  0  0  # atno 6908 bound_to 6896
  152.1016  133.4218  159.4626 H   0  0  0  0  0  0  0  0  0  0  0  0  # atno 6909 bound_to 6896
  146.1968  140.3698  142.8438 H   0  0  0  0  0  0  0  0  0  0  0  0  # atno 7974 bound_to 7965
  156.2388  140.1896  156.7046 H   0  0  0  0  0  0  0  0  0  0  0  0  # atno 8008 bound_to 7997
  154.6157  140.0615  156.9578 H   0  0  0  0  0  0  0  0  0  0  0  0  # atno 8009 bound_to 7997
  155.1944  140.3287  155.4356 H   0  0  0  0  0  0  0  0  0  0  0  0  # atno 8010 bound_to 7997
  140.7252  143.4973  150.9914 H   0  0  0  0  0  0  0  0  0  0  0  0  # atno 10167 bound_to 10162
  157.4805  130.8312  149.8088 H   0  0  0  0  0  0  0  0  0  0  0  0  # atno 10718 bound_to 10713
  154.8048  135.4691  154.0365 H   0  0  0  0  0  0  0  0  0  0  0  0  # atno 10763 bound_to 10752
  153.1842  135.6845  153.8444 H   0  0  0  0  0  0  0  0  0  0  0  0  # atno 10764 bound_to 10752
  153.7984  135.3233  155.3364 H   0  0  0  0  0  0  0  0  0  0  0  0  # atno 10765 bound_to 10752
  139.8783  134.8938  156.4124 H   0  0  0  0  0  0  0  0  0  0  0  0  # atno 11005 bound_to 11000
  144.8597  140.7121  143.6115 LP  0  0  0  0  0  0  0  0  0  0  0  0  # atno 17320 bound_to 7965
  145.3618  139.1680  143.4379 LP  0  0  0  0  0  0  0  0  0  0  0  0  # atno 17321 bound_to 7965
  139.8680  143.7228  152.3168 LP  0  0  0  0  0  0  0  0  0  0  0  0  # atno 17342 bound_to 10162
  139.7467  144.7545  151.0568 LP  0  0  0  0  0  0  0  0  0  0  0  0  # atno 17343 bound_to 10162
  156.0119  130.3829  150.2236 LP  0  0  0  0  0  0  0  0  0  0  0  0  # atno 17370 bound_to 10713
  157.0422  131.0038  151.3280 LP  0  0  0  0  0  0  0  0  0  0  0  0  # atno 17371 bound_to 10713
  140.9191  133.7657  155.9885 LP  0  0  0  0  0  0  0  0  0  0  0  0  # atno 17394 bound_to 11000
  140.8459  134.3011  157.5295 LP  0  0  0  0  0  0  0  0  0  0  0  0  # atno 17395 bound_to 11000

$$$$
