AV-unprocessed.smi:3085|AV-procd|sdf|11755|dock6
  -GOLD-   2272017143D 1   1.00000     0.00000
 Structure written by MMmdl.
 27 28  0  0  0  0  0  0  0  0  1 V2000
  152.5380  143.4210  161.7547 C   0  0  0  0  0  0  0  0  0  0  0  0
  152.8898  142.3422  160.7248 C   0  0  0  0  0  0  0  0  0  0  0  0
  152.1569  142.5182  159.4356 C   0  0  0  0  0  0  0  0  0  0  0  0
  152.1111  141.6250  158.4535 N   0  0  0  0  0  0  0  0  0  0  0  0
  151.3026  142.2810  157.5639 C   0  0  0  0  0  0  0  0  0  0  0  0
  150.9467  141.7314  156.2175 C   0  0  1  0  0  0  0  0  0  0  0  0
  151.5350  140.3250  155.9907 C   0  0  0  0  0  0  0  0  0  0  0  0
  151.0808  139.7867  154.7091 N   0  0  0  0  0  0  0  0  0  0  0  0
  149.6211  139.7960  154.6195 C   0  0  0  0  0  0  0  0  0  0  0  0
  149.0761  141.2109  154.8860 C   0  0  0  0  0  0  0  0  0  0  0  0
  149.5235  141.6640  156.1590 O   0  0  0  0  0  0  0  0  0  0  0  0
  150.8917  143.4927  157.9372 N   0  0  0  0  0  0  0  0  0  0  0  0
  151.4475  143.6147  159.1611 N   0  0  0  0  0  0  0  0  0  0  0  0
  151.3262  144.4306  159.7437 H   0  0  0  0  0  0  0  0  0  0  0  0
  153.0874  143.2651  162.6833 H   0  0  0  0  0  0  0  0  0  0  0  0
  151.4734  143.4076  161.9908 H   0  0  0  0  0  0  0  0  0  0  0  0
  152.7862  144.4153  161.3825 H   0  0  0  0  0  0  0  0  0  0  0  0
  153.9627  142.3511  160.5288 H   0  0  0  0  0  0  0  0  0  0  0  0
  152.6555  141.3561  161.1273 H   0  0  0  0  0  0  0  0  0  0  0  0
  151.3081  142.4197  155.4506 H   0  0  0  0  0  0  0  0  0  0  0  0
  152.6242  140.3639  156.0161 H   0  0  0  0  0  0  0  0  0  0  0  0
  151.2256  139.6615  156.7994 H   0  0  0  0  0  0  0  0  0  0  0  0
  151.4221  138.8371  154.5995 H   0  0  0  0  0  0  0  0  0  0  0  0
  149.3041  139.4515  153.6349 H   0  0  0  0  0  0  0  0  0  0  0  0
  149.2004  139.0998  155.3459 H   0  0  0  0  0  0  0  0  0  0  0  0
  149.3917  141.9052  154.1055 H   0  0  0  0  0  0  0  0  0  0  0  0
  147.9862  141.2005  154.8799 H   0  0  0  0  0  0  0  0  0  0  0  0
  1  2  1  0  0  0  0
  1 15  1  0  0  0  0
  1 16  1  0  0  0  0
  1 17  1  0  0  0  0
  2  3  1  0  0  0  0
  2 18  1  0  0  0  0
  2 19  1  0  0  0  0
  3 13  1  0  0  0  0
  3  4  2  0  0  0  0
  4  5  1  0  0  0  0
  5  6  1  0  0  0  0
  5 12  2  0  0  0  0
  6 11  1  0  0  0  0
  6  7  1  0  0  0  0
  6 20  1  0  0  0  0
  7  8  1  0  0  0  0
  7 21  1  0  0  0  0
  7 22  1  0  0  0  0
  8  9  1  0  0  0  0
  8 23  1  0  0  0  0
  9 10  1  0  0  0  0
  9 24  1  0  0  0  0
  9 25  1  0  0  0  0
 10 11  1  0  0  0  0
 10 26  1  0  0  0  0
 10 27  1  0  0  0  0
 12 13  1  0  0  0  0
 13 14  1  0  0  0  0
M  END
> <s_m_source_file>
AV-unprocessed.smi

> <i_m_source_file_index>
3085

> <i_lp_mmshare_version>
43012

> <i_f3d_flags>
0

> <s_epik_input>
W0NIM11bQ0gyXWMxbmMobltuSF0xKVtDQEBIXTJbQ0gyXVtOSF1bQ0gyXVtDSDJdTzI=

> <s_epik_cmdline>
J2VwaWtfcHl0aG9uJywgJy1waCcsICc3LjAnLCAnLXRuJywgJzgnLCAnLW1hJywgJzIwMCcsICctbWV0YWxfYmluZGluZycsICctaW1hZScsICc8aW5maWxlLm1hZT4nLCAnLW9tYWUnLCAnPG91dGZpbGUubWFlPic=

> <r_lp_tautomer_probability>
0.948284

> <r_epik_Ionization_Penalty>
1.10101

> <r_epik_Ionization_Penalty_Charging>
0

> <r_epik_Ionization_Penalty_Neutral>
1.10101

> <r_epik_State_Penalty>
1.49451

> <r_epik_Charging_Adjusted_Penalty>
1.49451

> <i_epik_Tot_Q>
0

> <i_epik_Tot_abs_Q>
0

> <r_epik_Metal_State_Penalty>
1.71443

> <b_epik_Metal_Only>
0

> <s_lp_Force_Field>
OPLS_2005

> <r_lp_Energy>
11.0497

> <b_lp_Chiralities_Consistent>
1

> <s_lp_Variant>
AV-unprocessed.smi:3085-6

> <Gold.Version>
5.8.1

> <Gold.Id.Protein>
6NUR|6NUR_protein|mol2

> <Gold.PLP.Fitness>
31.0723

> <Gold.PLP.PLP>
-28.2828

> <Gold.PLP.part.hbond>
-1.0000

> <Gold.PLP.part.metal>
0.0000

> <Gold.PLP.part.buried>
-5.1573

> <Gold.PLP.part.nonpolar>
-22.2256

> <Gold.PLP.part.repulsive>
0.3203

> <Gold.PLP.ligand.clash>
0.0000

> <Gold.PLP.ligand.torsion>
0.1117

> <Gold.PLP.Chemscore.Hbond>
1.0000

> <Gold.PLP.Chemscore.CHOScore>
0.0000

> <Gold.PLP.Chemscore.Metal>
0.0000

> <Gold.Chemscore.Hbonds>
donor molecule, donor type, donor heavy atom, donor atom, acceptor molecule, acceptor atom, score
      P1  H  7989  7998       L1     8  1.00

> <Gold.PLP.Chemscore.Internal.Correction>
0.0129

> <Gold.Rescore>
     Score         DG    S(hbond)    S(metal)    S(lipo)     H(rot)  DE(clash)    DE(int)     intcor
      9.40      -9.42       0.34        0.00      52.04       1.28       0.01       0.01       ----

> <Gold.Chemscore.Fitness>
9.3983

> <Gold.Chemscore.DG>
-9.4226

> <Gold.Chemscore.ZeroCoef>
-5.4800

> <Gold.Chemscore.Hbond>
0.3397

> <Gold.Chemscore.Metal>
0.0000

> <Gold.Chemscore.Lipo>
52.0379

> <Gold.Chemscore.Internal_Hbond>
0.0000

> <Gold.Chemscore.DEClash>
0.0106

> <Gold.Chemscore.DEInternal>
0.0137

> <Gold.Chemscore.Rot>
1.2815

> <Gold.Chemscore.Internal.Correction>
   9.000000E+99

> <Gold.Chemscore.Hbonds>
donor molecule, donor type, donor heavy atom, donor atom, acceptor molecule, acceptor atom, score
      P1  H  7989  7998       L1     8  0.29

> <Gold.Chemscore.Hbond.Weighted>
-1.1347

> <Gold.Chemscore.Metal.Weighted>
-0.0000

> <Gold.Chemscore.Lipo.Weighted>
-6.0884

> <Gold.Chemscore.Internal_Hbond.Weighted>
0.0000

> <Gold.Chemscore.DEClash.Weighted>
0.0106

> <Gold.Chemscore.DEInternal.Weighted>
0.0137

> <Gold.Chemscore.Rot.Weighted>
3.2805

> <Gold.Chemscore.Internal.Correction.Weighted>
   9.000000E+99

> <Gold.Protein.RotatedTorsions>
[ 6907 6896 6895 6894 ] final   -5.66 input  -60.11 | X-H torsion
[ 7974 7965 7964 7962 ] final  112.26 input  175.53 | X-H torsion
[ 8008 7997 7996 7995 ] final -135.30 input   59.86 | X-H torsion
[ 10167 10162 10161 10158 ] final    8.00 input  -65.29 | X-H torsion
[ 10718 10713 10712 10709 ] final -124.06 input   66.30 | X-H torsion
[ 10763 10752 10751 10750 ] final   10.82 input  -60.55 | X-H torsion
[ 11005 11000 10999 10996 ] final  155.74 input  -57.11 | X-H torsion

> <Gold.Protein.ActiveResidues>
 VAL166  LYS551  ARG553  GLY616  TRP617  ASP618  TYR619  PRO620  LYS621  CYS622 
 ASP623  PHE694  ASN695  SER759  ASP760  ASP761  ALA762  ILE779  LEU786  VAL792 
 PHE793  MET794  SER795  GLU796  ALA797  LYS798  CYS799  TRP800  GLU811  SER814 

> <Gold.Protein.RotatedAtoms>
  151.4780  135.1050  159.9769 H   0  0  0  0  0  0  0  0  0  0  0  0  # atno 6907 bound_to 6896
  152.4790  133.8204  159.7061 H   0  0  0  0  0  0  0  0  0  0  0  0  # atno 6908 bound_to 6896
  150.8848  133.7261  159.2948 H   0  0  0  0  0  0  0  0  0  0  0  0  # atno 6909 bound_to 6896
  145.2318  139.2816  143.4164 H   0  0  0  0  0  0  0  0  0  0  0  0  # atno 7974 bound_to 7965
  155.3763  140.0491  157.3044 H   0  0  0  0  0  0  0  0  0  0  0  0  # atno 8008 bound_to 7997
  154.5105  140.2190  155.9129 H   0  0  0  0  0  0  0  0  0  0  0  0  # atno 8009 bound_to 7997
  156.1576  140.3123  155.8758 H   0  0  0  0  0  0  0  0  0  0  0  0  # atno 8010 bound_to 7997
  140.6339  143.7930  150.7333 H   0  0  0  0  0  0  0  0  0  0  0  0  # atno 10167 bound_to 10162
  156.1555  130.6565  150.9975 H   0  0  0  0  0  0  0  0  0  0  0  0  # atno 10718 bound_to 10713
  153.1991  135.6853  153.8254 H   0  0  0  0  0  0  0  0  0  0  0  0  # atno 10763 bound_to 10752
  153.7526  135.3221  155.3325 H   0  0  0  0  0  0  0  0  0  0  0  0  # atno 10764 bound_to 10752
  154.8161  135.4684  154.0749 H   0  0  0  0  0  0  0  0  0  0  0  0  # atno 10765 bound_to 10752
  140.1610  134.8609  157.2574 H   0  0  0  0  0  0  0  0  0  0  0  0  # atno 11005 bound_to 11000
  146.3351  140.2655  142.8603 LP  0  0  0  0  0  0  0  0  0  0  0  0  # atno 17320 bound_to 7965
  144.9670  140.8331  143.5479 LP  0  0  0  0  0  0  0  0  0  0  0  0  # atno 17321 bound_to 7965
  140.1547  143.4327  152.2107 LP  0  0  0  0  0  0  0  0  0  0  0  0  # atno 17342 bound_to 10162
  139.5551  144.7367  151.4318 LP  0  0  0  0  0  0  0  0  0  0  0  0  # atno 17343 bound_to 10162
  157.6691  131.0865  150.7655 LP  0  0  0  0  0  0  0  0  0  0  0  0  # atno 17370 bound_to 10713
  156.7721  130.4832  149.5416 LP  0  0  0  0  0  0  0  0  0  0  0  0  # atno 17371 bound_to 10713
  140.2490  134.3705  155.7450 LP  0  0  0  0  0  0  0  0  0  0  0  0  # atno 17394 bound_to 11000
  141.2209  133.7306  156.8906 LP  0  0  0  0  0  0  0  0  0  0  0  0  # atno 17395 bound_to 11000

$$$$
