AV-unprocessed.smi:527|AV-procd|sdf|2830|dock8
  -GOLD-   2262023313D 1   1.00000     0.00000
 Structure written by MMmdl.
 43 44  0  0  0  0  0  0  0  0  2 V2000
  149.2652  140.7834  154.4159 C   0  0  0  0  0  0  0  0  0  0  0  0
  149.5085  139.2635  154.4377 C   0  0  1  0  0  0  0  0  0  0  0  0
  151.0194  138.9788  154.5650 C   0  0  0  0  0  0  0  0  0  0  0  0
  151.3272  137.4757  154.5794 C   0  0  0  0  0  0  0  0  0  0  0  0
  150.5537  136.7677  155.7005 C   0  0  0  0  0  0  0  0  0  0  0  0
  149.0364  137.0206  155.5968 C   0  0  2  0  0  0  0  0  0  0  0  0
  148.4706  136.3374  154.4324 N   0  0  0  0  0  0  0  0  0  0  0  0
  147.7008  135.2403  154.4667 C   0  0  0  0  0  0  0  0  0  0  0  0
  147.2515  134.7582  155.5085 O   0  0  0  0  0  0  0  0  0  0  0  0
  147.4929  134.7611  153.2256 N   0  0  0  0  0  0  0  0  0  0  0  0
  146.9995  133.5531  152.8838 C   0  0  0  0  0  0  0  0  0  0  0  0
  146.6725  132.6669  153.6751 O   0  0  0  0  0  0  0  0  0  0  0  0
  146.8289  133.3077  151.3844 C   0  0  0  0  0  0  0  0  0  0  0  0
  145.4235  133.0580  151.0508 N   0  0  0  0  0  0  0  0  0  0  0  0
  144.6414  132.0123  151.4713 C   0  0  0  0  0  0  0  0  0  0  0  0
  143.4085  132.1912  150.8983 C   0  0  0  0  0  0  0  0  0  0  0  0
  143.4901  133.3364  150.1521 N   0  3  0  0  0  0  0  0  0  0  0  0
  144.7162  133.8617  150.2451 C   0  0  0  0  0  0  0  0  0  0  0  0
  148.7164  138.5378  155.5619 C   0  0  2  0  0  0  0  0  0  0  0  0
  147.1959  138.7852  155.4871 C   0  0  0  0  0  0  0  0  0  0  0  0
  149.5077  141.2385  155.3768 H   0  0  0  0  0  0  0  0  0  0  0  0
  148.2286  141.0241  154.1814 H   0  0  0  0  0  0  0  0  0  0  0  0
  149.8805  141.2666  153.6563 H   0  0  0  0  0  0  0  0  0  0  0  0
  149.1777  138.8701  153.4755 H   0  0  0  0  0  0  0  0  0  0  0  0
  151.5576  139.4477  153.7405 H   0  0  0  0  0  0  0  0  0  0  0  0
  151.4031  139.4339  155.4792 H   0  0  0  0  0  0  0  0  0  0  0  0
  151.0699  137.0375  153.6144 H   0  0  0  0  0  0  0  0  0  0  0  0
  152.3979  137.3185  154.7127 H   0  0  0  0  0  0  0  0  0  0  0  0
  150.7665  135.6981  155.6842 H   0  0  0  0  0  0  0  0  0  0  0  0
  150.9116  137.1303  156.6649 H   0  0  0  0  0  0  0  0  0  0  0  0
  148.5671  136.6058  156.4911 H   0  0  0  0  0  0  0  0  0  0  0  0
  148.6800  136.7426  153.5319 H   0  0  0  0  0  0  0  0  0  0  0  0
  147.7268  135.3811  152.4646 H   0  0  0  0  0  0  0  0  0  0  0  0
  147.1734  134.1668  150.8068 H   0  0  0  0  0  0  0  0  0  0  0  0
  147.4205  132.4456  151.0719 H   0  0  0  0  0  0  0  0  0  0  0  0
  145.0105  131.2380  152.1281 H   0  0  0  0  0  0  0  0  0  0  0  0
  142.5038  131.6040  150.9629 H   0  0  0  0  0  0  0  0  0  0  0  0
  145.0671  134.7560  149.7610 H   0  0  0  0  0  0  0  0  0  0  0  0
  149.0532  138.9510  156.5139 H   0  0  0  0  0  0  0  0  0  0  0  0
  146.7906  138.5180  154.5108 H   0  0  0  0  0  0  0  0  0  0  0  0
  146.9494  139.8298  155.6748 H   0  0  0  0  0  0  0  0  0  0  0  0
  146.6674  138.1972  156.2382 H   0  0  0  0  0  0  0  0  0  0  0  0
  142.7342  133.7305  149.6057 H   0  0  0  0  0  0  0  0  0  0  0  0
  1  2  1  0  0  0  0
  1 21  1  0  0  0  0
  1 22  1  0  0  0  0
  1 23  1  0  0  0  0
  2 19  1  0  0  0  0
  2  3  1  0  0  0  0
  2 24  1  0  0  0  0
  3  4  1  0  0  0  0
  3 25  1  0  0  0  0
  3 26  1  0  0  0  0
  4  5  1  0  0  0  0
  4 27  1  0  0  0  0
  4 28  1  0  0  0  0
  5  6  1  0  0  0  0
  5 29  1  0  0  0  0
  5 30  1  0  0  0  0
  6  7  1  0  0  0  0
  6 19  1  0  0  0  0
  6 31  1  0  0  0  0
  7  8  1  0  0  0  0
  7 32  1  0  0  0  0
  8  9  2  0  0  0  0
  8 10  1  0  0  0  0
 10 11  1  0  0  0  0
 10 33  1  0  0  0  0
 11 12  2  0  0  0  0
 11 13  1  0  0  0  0
 13 14  1  0  0  0  0
 13 34  1  0  0  0  0
 13 35  1  0  0  0  0
 14 18  1  0  0  0  0
 14 15  1  0  0  0  0
 15 16  2  0  0  0  0
 15 36  1  0  0  0  0
 16 17  1  0  0  0  0
 16 37  1  0  0  0  0
 17 18  2  0  0  0  0
 17 43  1  0  0  0  0
 18 38  1  0  0  0  0
 19 20  1  0  0  0  0
 19 39  1  0  0  0  0
 20 40  1  0  0  0  0
 20 41  1  0  0  0  0
 20 42  1  0  0  0  0
M  CHG  1  17   1
M  END
> <s_m_source_file>
AV-unprocessed.smi

> <i_m_source_file_index>
527

> <i_lp_mmshare_version>
43012

> <i_f3d_flags>
0

> <s_epik_input>
W0NIM11bQ0BASF0xW0NIMl1bQ0gyXVtDSDJdW0NASF0oW0NASF0xW0NIM10pW05IXUMoPU8pW05IXUMoPU8pW0NIMl1uMltjSF1bY0hdbltjSF0y

> <s_epik_cmdline>
J2VwaWtfcHl0aG9uJywgJy1waCcsICc3LjAnLCAnLXRuJywgJzgnLCAnLW1hJywgJzIwMCcsICctbWV0YWxfYmluZGluZycsICctaW1hZScsICc8aW5maWxlLm1hZT4nLCAnLW9tYWUnLCAnPG91dGZpbGUubWFlPic=

> <r_lp_tautomer_probability>
1

> <r_epik_Ionization_Penalty>
0.816441

> <r_epik_Ionization_Penalty_Charging>
0

> <r_epik_Ionization_Penalty_Neutral>
0.816441

> <r_epik_State_Penalty>
0.849034

> <r_epik_Charging_Adjusted_Penalty>
0.849034

> <i_epik_Tot_Q>
1

> <i_epik_Tot_abs_Q>
1

> <r_epik_Metal_State_Penalty>
0.984327

> <b_epik_Metal_Only>
0

> <s_lp_Force_Field>
OPLS_2005

> <r_lp_Energy>
15.9829

> <b_lp_Chiralities_Consistent>
1

> <s_lp_Variant>
AV-unprocessed.smi:527-16

> <Gold.Version>
5.8.1

> <Gold.Id.Protein>
6NUR|6NUR_protein|mol2

> <Gold.PLP.Fitness>
44.2216

> <Gold.PLP.PLP>
-30.9121

> <Gold.PLP.part.hbond>
-2.7387

> <Gold.PLP.part.metal>
0.0000

> <Gold.PLP.part.buried>
-2.5694

> <Gold.PLP.part.nonpolar>
-25.3434

> <Gold.PLP.part.repulsive>
0.1723

> <Gold.PLP.ligand.clash>
0.0000

> <Gold.PLP.ligand.torsion>
0.1830

> <Gold.PLP.Chemscore.Hbond>
3.6320

> <Gold.PLP.Chemscore.CHOScore>
0.9183

> <Gold.PLP.Chemscore.Metal>
0.0000

> <Gold.Chemscore.Hbonds>
donor molecule, donor type, donor heavy atom, donor atom, acceptor molecule, acceptor atom, score
      L1  H     7    32       P1  7948  0.78
      L1  H    10    33       P1  7948  0.83
      L1  H    17    43       P1 10186  1.95
      L1  C    18    38       P1  7921  0.90

> <Gold.PLP.Chemscore.Internal.Correction>
0.0245

> <Gold.Rescore>
     Score         DG    S(hbond)    S(metal)    S(lipo)     H(rot)  DE(clash)    DE(int)     intcor
     15.50     -17.12       2.63        0.00      61.71       1.71       0.07       1.55       ----

> <Gold.Chemscore.Fitness>
15.4987

> <Gold.Chemscore.DG>
-17.1184

> <Gold.Chemscore.ZeroCoef>
-5.4800

> <Gold.Chemscore.Hbond>
2.6299

> <Gold.Chemscore.Metal>
0.0000

> <Gold.Chemscore.Lipo>
61.7074

> <Gold.Chemscore.Internal_Hbond>
0.0000

> <Gold.Chemscore.DEClash>
0.0727

> <Gold.Chemscore.DEInternal>
1.5470

> <Gold.Chemscore.Rot>
1.7052

> <Gold.Chemscore.Internal.Correction>
   9.000000E+99

> <Gold.Chemscore.Hbonds>
donor molecule, donor type, donor heavy atom, donor atom, acceptor molecule, acceptor atom, score
      L1  H     7    32       P1  7948  0.80
      L1  H    10    33       P1  7948  0.81
      L1  H    17    43       P1 10186  0.93

> <Gold.Chemscore.Hbond.Weighted>
-8.7840

> <Gold.Chemscore.Metal.Weighted>
-0.0000

> <Gold.Chemscore.Lipo.Weighted>
-7.2198

> <Gold.Chemscore.Internal_Hbond.Weighted>
0.0000

> <Gold.Chemscore.DEClash.Weighted>
0.0727

> <Gold.Chemscore.DEInternal.Weighted>
1.5470

> <Gold.Chemscore.Rot.Weighted>
4.3653

> <Gold.Chemscore.Internal.Correction.Weighted>
   9.000000E+99

> <Gold.Protein.RotatedTorsions>
[ 6907 6896 6895 6894 ] final  116.68 input  -60.11 | X-H torsion
[ 7974 7965 7964 7962 ] final   81.66 input  175.53 | X-H torsion
[ 8008 7997 7996 7995 ] final  -94.69 input   59.86 | X-H torsion
[ 10167 10162 10161 10158 ] final  176.82 input  -65.29 | X-H torsion
[ 10718 10713 10712 10709 ] final -143.16 input   66.30 | X-H torsion
[ 10763 10752 10751 10750 ] final -154.92 input  -60.55 | X-H torsion
[ 11005 11000 10999 10996 ] final   56.99 input  -57.11 | X-H torsion

> <Gold.Protein.ActiveResidues>
 VAL166  LYS551  ARG553  GLY616  TRP617  ASP618  TYR619  PRO620  LYS621  CYS622 
 ASP623  PHE694  ASN695  SER759  ASP760  ASP761  ALA762  ILE779  LEU786  VAL792 
 PHE793  MET794  SER795  GLU796  ALA797  LYS798  CYS799  TRP800  GLU811  SER814 

> <Gold.Protein.RotatedAtoms>
  152.4662  133.7928  159.6910 H   0  0  0  0  0  0  0  0  0  0  0  0  # atno 6907 bound_to 6896
  150.8627  133.7609  159.2993 H   0  0  0  0  0  0  0  0  0  0  0  0  # atno 6908 bound_to 6896
  151.5169  135.1069  159.9920 H   0  0  0  0  0  0  0  0  0  0  0  0  # atno 6909 bound_to 6896
  145.6353  139.2413  143.2061 H   0  0  0  0  0  0  0  0  0  0  0  0  # atno 7974 bound_to 7965
  154.7516  140.0487  157.0898 H   0  0  0  0  0  0  0  0  0  0  0  0  # atno 8008 bound_to 7997
  155.0049  140.3129  155.4833 H   0  0  0  0  0  0  0  0  0  0  0  0  # atno 8009 bound_to 7997
  156.2886  140.2194  156.5161 H   0  0  0  0  0  0  0  0  0  0  0  0  # atno 8010 bound_to 7997
  139.5229  144.2871  152.0496 H   0  0  0  0  0  0  0  0  0  0  0  0  # atno 10167 bound_to 10162
  156.3546  130.7706  151.1864 H   0  0  0  0  0  0  0  0  0  0  0  0  # atno 10718 bound_to 10713
  154.7824  135.3179  154.7959 H   0  0  0  0  0  0  0  0  0  0  0  0  # atno 10763 bound_to 10752
  153.8668  135.6848  153.4782 H   0  0  0  0  0  0  0  0  0  0  0  0  # atno 10764 bound_to 10752
  153.1465  135.4717  154.9512 H   0  0  0  0  0  0  0  0  0  0  0  0  # atno 10765 bound_to 10752
  140.0487  134.5769  155.9291 H   0  0  0  0  0  0  0  0  0  0  0  0  # atno 11005 bound_to 11000
  146.1324  140.7168  142.9406 LP  0  0  0  0  0  0  0  0  0  0  0  0  # atno 17320 bound_to 7965
  144.7178  140.4269  143.7031 LP  0  0  0  0  0  0  0  0  0  0  0  0  # atno 17321 bound_to 7965
  140.2323  144.4355  150.6294 LP  0  0  0  0  0  0  0  0  0  0  0  0  # atno 17342 bound_to 10162
  140.6347  143.2193  151.6421 LP  0  0  0  0  0  0  0  0  0  0  0  0  # atno 17343 bound_to 10162
  157.7466  131.0417  150.4661 LP  0  0  0  0  0  0  0  0  0  0  0  0  # atno 17370 bound_to 10713
  156.4862  130.4085  149.6433 LP  0  0  0  0  0  0  0  0  0  0  0  0  # atno 17371 bound_to 10713
  141.1919  133.6573  156.5480 LP  0  0  0  0  0  0  0  0  0  0  0  0  # atno 17394 bound_to 11000
  140.3952  134.7405  157.4746 LP  0  0  0  0  0  0  0  0  0  0  0  0  # atno 17395 bound_to 11000

$$$$
