AV-unprocessed.smi:249|AV-procd|sdf|1914|dock4
  -GOLD-   2262021 13D 1   1.00000     0.00000
 Structure written by MMmdl.
 64 67  0  0  0  0  0  0  0  0  2 V2000
  146.1459  133.0713  151.0476 C   0  0  0  0  0  0  0  0  0  0  0  0
  145.8673  133.7288  152.4062 C   0  0  0  0  0  0  0  0  0  0  0  0
  147.1138  134.1403  153.1030 N   0  3  2  0  0  0  0  0  0  0  0  0
  148.0768  133.0243  153.3090 C   0  0  0  0  0  0  0  0  0  0  0  0
  149.4181  133.5448  153.8477 C   0  0  0  0  0  0  0  0  0  0  0  0
  149.2207  134.3283  155.1603 C   0  0  1  0  0  0  0  0  0  0  0  0
  150.4741  134.7883  155.7723 N   0  0  0  0  0  0  0  0  0  0  0  0
  151.3374  133.7791  156.3746 C   0  0  0  0  0  0  0  0  0  0  0  0
  150.4565  135.9692  156.4356 C   0  0  0  0  0  0  0  0  0  0  0  0
  149.6969  136.0455  157.5569 N   0  0  0  0  0  0  0  0  0  0  0  0
  149.6317  137.1882  158.2466 C   0  0  0  0  0  0  0  0  0  0  0  0
  150.2345  138.3514  157.9928 N   0  0  0  0  0  0  0  0  0  0  0  0
  150.9962  138.2804  156.8639 C   0  0  0  0  0  0  0  0  0  0  0  0
  151.1618  137.1384  156.0301 C   0  0  0  0  0  0  0  0  0  0  0  0
  152.0154  137.4428  154.9759 N   0  0  0  0  0  0  0  0  0  0  0  0
  152.3315  138.6937  155.1719 C   0  0  0  0  0  0  0  0  0  0  0  0
  151.7689  139.2726  156.2862 N   0  0  0  0  0  0  0  0  0  0  0  0
  151.9541  140.6419  156.7350 C   0  0  0  0  0  0  0  0  0  0  0  0
  150.8022  141.1488  157.6381 C   0  0  2  0  0  0  0  0  0  0  0  0
  149.4729  141.3280  156.8648 C   0  0  0  0  0  0  0  0  0  0  0  0
  149.6711  142.0234  155.6510 O   0  0  0  0  0  0  0  0  0  0  0  0
  151.2055  142.4274  158.4161 C   0  0  2  0  0  0  0  0  0  0  0  0
  151.4079  143.6614  157.5541 C   0  0  0  0  0  0  0  0  0  0  0  0
  152.2182  144.5675  158.4740 C   0  0  0  0  0  0  0  0  0  0  0  0
  153.0180  143.6954  159.2641 O   0  0  0  0  0  0  0  0  0  0  0  0
  152.5676  142.3524  159.1144 C   0  0  0  0  0  0  0  0  0  0  0  0
  148.2039  135.4644  154.9170 C   0  0  0  0  0  0  0  0  0  0  0  0
  146.8718  134.9375  154.3427 C   0  0  2  0  0  0  0  0  0  0  0  0
  146.0312  134.1888  155.4000 C   0  0  0  0  0  0  0  0  0  0  0  0
  145.2113  132.8513  150.5312 H   0  0  0  0  0  0  0  0  0  0  0  0
  146.6871  132.1311  151.1490 H   0  0  0  0  0  0  0  0  0  0  0  0
  146.7308  133.7293  150.4045 H   0  0  0  0  0  0  0  0  0  0  0  0
  145.2466  134.6078  152.2269 H   0  0  0  0  0  0  0  0  0  0  0  0
  145.2838  133.0606  153.0407 H   0  0  0  0  0  0  0  0  0  0  0  0
  147.6559  132.2829  153.9888 H   0  0  0  0  0  0  0  0  0  0  0  0
  148.2593  132.5084  152.3672 H   0  0  0  0  0  0  0  0  0  0  0  0
  150.0983  132.7080  154.0103 H   0  0  0  0  0  0  0  0  0  0  0  0
  149.8761  134.1782  153.0872 H   0  0  0  0  0  0  0  0  0  0  0  0
  148.7849  133.6374  155.8828 H   0  0  0  0  0  0  0  0  0  0  0  0
  152.2628  134.2240  156.7433 H   0  0  0  0  0  0  0  0  0  0  0  0
  151.6051  133.0259  155.6333 H   0  0  0  0  0  0  0  0  0  0  0  0
  150.8455  133.2744  157.2058 H   0  0  0  0  0  0  0  0  0  0  0  0
  149.0062  137.1686  159.1268 H   0  0  0  0  0  0  0  0  0  0  0  0
  152.9913  139.2319  154.5069 H   0  0  0  0  0  0  0  0  0  0  0  0
  152.9048  140.6839  157.2663 H   0  0  0  0  0  0  0  0  0  0  0  0
  152.0638  141.2857  155.8617 H   0  0  0  0  0  0  0  0  0  0  0  0
  150.6195  140.3694  158.3795 H   0  0  0  0  0  0  0  0  0  0  0  0
  149.0128  140.3647  156.6450 H   0  0  0  0  0  0  0  0  0  0  0  0
  148.7464  141.8755  157.4647 H   0  0  0  0  0  0  0  0  0  0  0  0
  149.0978  142.7744  155.6352 H   0  0  0  0  0  0  0  0  0  0  0  0
  150.4447  142.6555  159.1647 H   0  0  0  0  0  0  0  0  0  0  0  0
  151.9897  143.4152  156.6647 H   0  0  0  0  0  0  0  0  0  0  0  0
  150.4738  144.1244  157.2350 H   0  0  0  0  0  0  0  0  0  0  0  0
  152.8300  145.2830  157.9238 H   0  0  0  0  0  0  0  0  0  0  0  0
  151.5560  145.1262  159.1366 H   0  0  0  0  0  0  0  0  0  0  0  0
  152.5137  141.8495  160.0804 H   0  0  0  0  0  0  0  0  0  0  0  0
  153.2911  141.8187  158.4961 H   0  0  0  0  0  0  0  0  0  0  0  0
  148.0119  136.0152  155.8382 H   0  0  0  0  0  0  0  0  0  0  0  0
  148.6235  136.1860  154.2151 H   0  0  0  0  0  0  0  0  0  0  0  0
  146.2948  135.8147  154.0461 H   0  0  0  0  0  0  0  0  0  0  0  0
  145.8701  134.8164  156.2770 H   0  0  0  0  0  0  0  0  0  0  0  0
  146.5111  133.2725  155.7419 H   0  0  0  0  0  0  0  0  0  0  0  0
  145.0459  133.9223  155.0182 H   0  0  0  0  0  0  0  0  0  0  0  0
  147.5719  134.7815  152.4711 H   0  0  0  0  0  0  0  0  0  0  0  0
  1  2  1  0  0  0  0
  1 30  1  0  0  0  0
  1 31  1  0  0  0  0
  1 32  1  0  0  0  0
  2  3  1  0  0  0  0
  2 33  1  0  0  0  0
  2 34  1  0  0  0  0
  3 28  1  0  0  0  0
  3  4  1  0  0  0  0
  3 64  1  0  0  0  0
  4  5  1  0  0  0  0
  4 35  1  0  0  0  0
  4 36  1  0  0  0  0
  5  6  1  0  0  0  0
  5 37  1  0  0  0  0
  5 38  1  0  0  0  0
  6  7  1  0  0  0  0
  6 27  1  0  0  0  0
  6 39  1  0  0  0  0
  7  8  1  0  0  0  0
  7  9  1  0  0  0  0
  8 40  1  0  0  0  0
  8 41  1  0  0  0  0
  8 42  1  0  0  0  0
  9 14  1  0  0  0  0
  9 10  2  0  0  0  0
 10 11  1  0  0  0  0
 11 12  2  0  0  0  0
 11 43  1  0  0  0  0
 12 13  1  0  0  0  0
 13 17  1  0  0  0  0
 13 14  2  0  0  0  0
 14 15  1  0  0  0  0
 15 16  2  0  0  0  0
 16 17  1  0  0  0  0
 16 44  1  0  0  0  0
 17 18  1  0  0  0  0
 18 19  1  0  0  0  0
 18 45  1  0  0  0  0
 18 46  1  0  0  0  0
 19 20  1  0  0  0  0
 19 22  1  0  0  0  0
 19 47  1  0  0  0  0
 20 21  1  0  0  0  0
 20 48  1  0  0  0  0
 20 49  1  0  0  0  0
 21 50  1  0  0  0  0
 22 26  1  0  0  0  0
 22 23  1  0  0  0  0
 22 51  1  0  0  0  0
 23 24  1  0  0  0  0
 23 52  1  0  0  0  0
 23 53  1  0  0  0  0
 24 25  1  0  0  0  0
 24 54  1  0  0  0  0
 24 55  1  0  0  0  0
 25 26  1  0  0  0  0
 26 56  1  0  0  0  0
 26 57  1  0  0  0  0
 27 28  1  0  0  0  0
 27 58  1  0  0  0  0
 27 59  1  0  0  0  0
 28 29  1  0  0  0  0
 28 60  1  0  0  0  0
 29 61  1  0  0  0  0
 29 62  1  0  0  0  0
 29 63  1  0  0  0  0
M  CHG  1   3   1
M  END
> <s_m_source_file>
AV-unprocessed.smi

> <i_m_source_file_index>
249

> <i_lp_mmshare_version>
43012

> <i_f3d_flags>
0

> <s_epik_input>
W0NIM11bQ0gyXU4xW0NIMl1bQ0gyXVtDQEhdKFtDSDJdW0NASF0xW0NIM10pTihbQ0gzXSljKG5bY0hdbjIpYyhjMjMpbltjSF1uM1tDSDJdW0NASF0oW0NIMl1bT0hdKVtDQEBIXTRbQ0gyXVtDSDJdT1tDSDJdNA==

> <s_epik_cmdline>
J2VwaWtfcHl0aG9uJywgJy1waCcsICc3LjAnLCAnLXRuJywgJzgnLCAnLW1hJywgJzIwMCcsICctbWV0YWxfYmluZGluZycsICctaW1hZScsICc8aW5maWxlLm1hZT4nLCAnLW9tYWUnLCAnPG91dGZpbGUubWFlPic=

> <r_lp_tautomer_probability>
1

> <r_epik_Ionization_Penalty>
0.00294688

> <r_epik_Ionization_Penalty_Charging>
0.00169971

> <r_epik_Ionization_Penalty_Neutral>
0.00124717

> <r_epik_State_Penalty>
-0

> <r_epik_Charging_Adjusted_Penalty>
0.00169971

> <i_epik_Tot_Q>
1

> <i_epik_Tot_abs_Q>
1

> <r_epik_Metal_State_Penalty>
-0

> <b_epik_Metal_Only>
0

> <s_lp_Force_Field>
OPLS_2005

> <r_lp_Energy>
54.2474

> <b_lp_Chiralities_Consistent>
1

> <s_lp_Variant>
AV-unprocessed.smi:249-17

> <Gold.Version>
5.8.1

> <Gold.Id.Protein>
6NUR|6NUR_protein|mol2

> <Gold.PLP.Fitness>
54.8798

> <Gold.PLP.PLP>
-45.4217

> <Gold.PLP.part.hbond>
-3.0000

> <Gold.PLP.part.metal>
0.0000

> <Gold.PLP.part.buried>
-6.4917

> <Gold.PLP.part.nonpolar>
-35.6738

> <Gold.PLP.part.repulsive>
0.1182

> <Gold.PLP.ligand.clash>
0.0000

> <Gold.PLP.ligand.torsion>
1.4883

> <Gold.PLP.Chemscore.Hbond>
3.8000

> <Gold.PLP.Chemscore.CHOScore>
0.0000

> <Gold.PLP.Chemscore.Metal>
0.0000

> <Gold.Chemscore.Hbonds>
donor molecule, donor type, donor heavy atom, donor atom, acceptor molecule, acceptor atom, score
      L1  H     3    64       P1  7948  1.85
      L1  H    21    50       P1  8028  0.99
      P1  H 10752 10763       L1    15  0.72

> <Gold.PLP.Chemscore.Internal.Correction>
1.0347

> <Gold.Rescore>
     Score         DG    S(hbond)    S(metal)    S(lipo)     H(rot)  DE(clash)    DE(int)     intcor
     15.98     -18.79       2.72        0.00      99.60       2.90       0.05       2.76       ----

> <Gold.Chemscore.Fitness>
15.9808

> <Gold.Chemscore.DG>
-18.7932

> <Gold.Chemscore.ZeroCoef>
-5.4800

> <Gold.Chemscore.Hbond>
2.7203

> <Gold.Chemscore.Metal>
0.0000

> <Gold.Chemscore.Lipo>
99.5993

> <Gold.Chemscore.Internal_Hbond>
0.0000

> <Gold.Chemscore.DEClash>
0.0524

> <Gold.Chemscore.DEInternal>
2.7599

> <Gold.Chemscore.Rot>
2.9006

> <Gold.Chemscore.Internal.Correction>
   9.000000E+99

> <Gold.Chemscore.Hbonds>
donor molecule, donor type, donor heavy atom, donor atom, acceptor molecule, acceptor atom, score
      L1  H     3    64       P1  7948  0.81
      L1  H    21    50       P1  8028  0.92
      P1  H 10752 10763       L1    15  0.31

> <Gold.Chemscore.Hbond.Weighted>
-9.0857

> <Gold.Chemscore.Metal.Weighted>
-0.0000

> <Gold.Chemscore.Lipo.Weighted>
-11.6531

> <Gold.Chemscore.Internal_Hbond.Weighted>
0.0000

> <Gold.Chemscore.DEClash.Weighted>
0.0524

> <Gold.Chemscore.DEInternal.Weighted>
2.7599

> <Gold.Chemscore.Rot.Weighted>
7.4256

> <Gold.Chemscore.Internal.Correction.Weighted>
   9.000000E+99

> <Gold.Protein.RotatedTorsions>
[ 6907 6896 6895 6894 ] final   62.86 input  -60.11 | X-H torsion
[ 7974 7965 7964 7962 ] final  -51.70 input  175.53 | X-H torsion
[ 8008 7997 7996 7995 ] final  -35.15 input   59.86 | X-H torsion
[ 10167 10162 10161 10158 ] final  -38.97 input  -65.29 | X-H torsion
[ 10718 10713 10712 10709 ] final  -85.33 input   66.30 | X-H torsion
[ 10763 10752 10751 10750 ] final   56.47 input  -60.55 | X-H torsion
[ 11005 11000 10999 10996 ] final -131.49 input  -57.11 | X-H torsion

> <Gold.Protein.ActiveResidues>
 VAL166  LYS551  ARG553  GLY616  TRP617  ASP618  TYR619  PRO620  LYS621  CYS622 
 ASP623  PHE694  ASN695  SER759  ASP760  ASP761  ALA762  ILE779  LEU786  VAL792 
 PHE793  MET794  SER795  GLU796  ALA797  LYS798  CYS799  TRP800  GLU811  SER814 

> <Gold.Protein.RotatedAtoms>
  152.4207  134.5961  159.9987 H   0  0  0  0  0  0  0  0  0  0  0  0  # atno 6907 bound_to 6896
  151.6111  133.3341  159.3076 H   0  0  0  0  0  0  0  0  0  0  0  0  # atno 6908 bound_to 6896
  150.8095  134.7279  159.6740 H   0  0  0  0  0  0  0  0  0  0  0  0  # atno 6909 bound_to 6896
  145.9161  140.7874  142.9671 H   0  0  0  0  0  0  0  0  0  0  0  0  # atno 7974 bound_to 7965
  154.4102  140.1665  156.2165 H   0  0  0  0  0  0  0  0  0  0  0  0  # atno 8008 bound_to 7997
  155.9400  140.3408  155.6296 H   0  0  0  0  0  0  0  0  0  0  0  0  # atno 8009 bound_to 7997
  155.7001  140.0744  157.2404 H   0  0  0  0  0  0  0  0  0  0  0  0  # atno 8010 bound_to 7997
  140.7077  143.3243  151.2717 H   0  0  0  0  0  0  0  0  0  0  0  0  # atno 10167 bound_to 10162
  155.9998  130.4727  150.4546 H   0  0  0  0  0  0  0  0  0  0  0  0  # atno 10718 bound_to 10713
  152.9832  135.5675  154.5233 H   0  0  0  0  0  0  0  0  0  0  0  0  # atno 10763 bound_to 10752
  154.4718  135.2785  155.1639 H   0  0  0  0  0  0  0  0  0  0  0  0  # atno 10764 bound_to 10752
  154.3184  135.6274  153.5550 H   0  0  0  0  0  0  0  0  0  0  0  0  # atno 10765 bound_to 10752
  140.9254  134.1389  157.4279 H   0  0  0  0  0  0  0  0  0  0  0  0  # atno 11005 bound_to 11000
  144.6748  140.1901  143.7397 LP  0  0  0  0  0  0  0  0  0  0  0  0  # atno 17320 bound_to 7965
  145.8610  139.2223  143.1716 LP  0  0  0  0  0  0  0  0  0  0  0  0  # atno 17321 bound_to 7965
  139.6707  144.0026  152.2751 LP  0  0  0  0  0  0  0  0  0  0  0  0  # atno 17342 bound_to 10162
  139.9623  144.6549  150.8067 LP  0  0  0  0  0  0  0  0  0  0  0  0  # atno 17343 bound_to 10162
  157.2576  131.0560  151.2341 LP  0  0  0  0  0  0  0  0  0  0  0  0  # atno 17370 bound_to 10713
  157.3467  130.7061  149.6415 LP  0  0  0  0  0  0  0  0  0  0  0  0  # atno 17371 bound_to 10713
  139.8784  134.9986  156.5911 LP  0  0  0  0  0  0  0  0  0  0  0  0  # atno 17394 bound_to 11000
  140.7933  133.8565  155.8664 LP  0  0  0  0  0  0  0  0  0  0  0  0  # atno 17395 bound_to 11000

$$$$
