AV-unprocessed.smi:1084|AV-procd|sdf|4716|dock3
  -GOLD-   22720 3243D 1   1.00000     0.00000
 Structure written by MMmdl.
 52 54  0  0  0  0  0  0  0  0  1 V2000
  143.3067  137.2202  152.5819 C   0  0  0  0  0  0  0  0  0  0  0  0
  144.7508  136.6579  152.5354 C   0  0  2  0  0  0  0  0  0  0  0  0
  145.6379  137.6279  151.7076 C   0  0  0  0  0  0  0  0  0  0  0  0
  146.9583  137.8157  152.2995 N   0  0  0  0  0  0  0  0  0  0  0  0
  147.3040  138.8436  153.0852 C   0  0  0  0  0  0  0  0  0  0  0  0
  146.5416  139.7662  153.3727 O   0  0  0  0  0  0  0  0  0  0  0  0
  148.5818  138.7389  153.4876 N   0  0  0  0  0  0  0  0  0  0  0  0
  149.2870  139.5711  154.3971 C   0  0  0  0  0  0  0  0  0  0  0  0
  150.5568  139.1488  154.8386 C   0  0  0  0  0  0  0  0  0  0  0  0
  151.2616  139.9434  155.7624 C   0  0  0  0  0  0  0  0  0  0  0  0
  150.6625  141.1374  156.2255 C   0  0  0  0  0  0  0  0  0  0  0  0
  151.3045  141.9717  157.1499 N   0  0  0  0  0  0  0  0  0  0  0  0
  151.5625  141.3251  158.4295 C   0  0  0  0  0  0  0  0  0  0  0  0
  152.3845  142.2599  159.3338 C   0  0  0  0  0  0  0  0  0  0  0  0
  151.7075  143.5059  159.4764 O   0  0  0  0  0  0  0  0  0  0  0  0
  151.5291  144.1649  158.2253 C   0  0  0  0  0  0  0  0  0  0  0  0
  150.6813  143.2809  157.2948 C   0  0  0  0  0  0  0  0  0  0  0  0
  149.4422  141.5441  155.8153 N   0  0  0  0  0  0  0  0  0  0  0  0
  148.7721  140.7786  154.9278 C   0  0  0  0  0  0  0  0  0  0  0  0
  144.8030  135.2595  152.0494 N   0  0  0  0  0  0  0  0  0  0  0  0
  146.1334  134.6592  152.2025 C   0  0  0  0  0  0  0  0  0  0  0  0
  146.2010  133.2140  151.6800 C   0  0  0  0  0  0  0  0  0  0  0  0
  145.8075  133.1808  150.3152 O   0  0  0  0  0  0  0  0  0  0  0  0
  144.4917  133.6830  150.1278 C   0  0  0  0  0  0  0  0  0  0  0  0
  144.4091  135.1308  150.6416 C   0  0  0  0  0  0  0  0  0  0  0  0
  143.2736  138.2667  152.8825 H   0  0  0  0  0  0  0  0  0  0  0  0
  142.6831  136.6989  153.3068 H   0  0  0  0  0  0  0  0  0  0  0  0
  142.8246  137.1458  151.6065 H   0  0  0  0  0  0  0  0  0  0  0  0
  145.1318  136.6721  153.5578 H   0  0  0  0  0  0  0  0  0  0  0  0
  145.8216  137.2509  150.7029 H   0  0  0  0  0  0  0  0  0  0  0  0
  145.1295  138.5883  151.6021 H   0  0  0  0  0  0  0  0  0  0  0  0
  147.6490  137.1049  152.1089 H   0  0  0  0  0  0  0  0  0  0  0  0
  149.1194  137.9885  153.0790 H   0  0  0  0  0  0  0  0  0  0  0  0
  150.9902  138.2288  154.4740 H   0  0  0  0  0  0  0  0  0  0  0  0
  152.2393  139.6380  156.1054 H   0  0  0  0  0  0  0  0  0  0  0  0
  150.6174  141.0767  158.9142 H   0  0  0  0  0  0  0  0  0  0  0  0
  152.1001  140.3896  158.2695 H   0  0  0  0  0  0  0  0  0  0  0  0
  152.5156  141.8114  160.3186 H   0  0  0  0  0  0  0  0  0  0  0  0
  153.3818  142.4213  158.9212 H   0  0  0  0  0  0  0  0  0  0  0  0
  151.0314  145.1200  158.3936 H   0  0  0  0  0  0  0  0  0  0  0  0
  152.4989  144.3847  157.7758 H   0  0  0  0  0  0  0  0  0  0  0  0
  150.5814  143.7527  156.3165 H   0  0  0  0  0  0  0  0  0  0  0  0
  149.6773  143.1722  157.7063 H   0  0  0  0  0  0  0  0  0  0  0  0
  147.7913  141.1444  154.6665 H   0  0  0  0  0  0  0  0  0  0  0  0
  146.8753  135.2666  151.6820 H   0  0  0  0  0  0  0  0  0  0  0  0
  146.4247  134.6315  153.2509 H   0  0  0  0  0  0  0  0  0  0  0  0
  147.2163  132.8271  151.7668 H   0  0  0  0  0  0  0  0  0  0  0  0
  145.5581  132.5591  152.2702 H   0  0  0  0  0  0  0  0  0  0  0  0
  144.2441  133.6439  149.0670 H   0  0  0  0  0  0  0  0  0  0  0  0
  143.7729  133.0479  150.6480 H   0  0  0  0  0  0  0  0  0  0  0  0
  143.3814  135.4568  150.4964 H   0  0  0  0  0  0  0  0  0  0  0  0
  145.0375  135.7716  150.0211 H   0  0  0  0  0  0  0  0  0  0  0  0
  1  2  1  0  0  0  0
  1 26  1  0  0  0  0
  1 27  1  0  0  0  0
  1 28  1  0  0  0  0
  2  3  1  0  0  0  0
  2 20  1  0  0  0  0
  2 29  1  0  0  0  0
  3  4  1  0  0  0  0
  3 30  1  0  0  0  0
  3 31  1  0  0  0  0
  4  5  1  0  0  0  0
  4 32  1  0  0  0  0
  5  6  2  0  0  0  0
  5  7  1  0  0  0  0
  7  8  1  0  0  0  0
  7 33  1  0  0  0  0
  8 19  1  0  0  0  0
  8  9  2  0  0  0  0
  9 10  1  0  0  0  0
  9 34  1  0  0  0  0
 10 11  2  0  0  0  0
 10 35  1  0  0  0  0
 11 12  1  0  0  0  0
 11 18  1  0  0  0  0
 12 17  1  0  0  0  0
 12 13  1  0  0  0  0
 13 14  1  0  0  0  0
 13 36  1  0  0  0  0
 13 37  1  0  0  0  0
 14 15  1  0  0  0  0
 14 38  1  0  0  0  0
 14 39  1  0  0  0  0
 15 16  1  0  0  0  0
 16 17  1  0  0  0  0
 16 40  1  0  0  0  0
 16 41  1  0  0  0  0
 17 42  1  0  0  0  0
 17 43  1  0  0  0  0
 18 19  2  0  0  0  0
 19 44  1  0  0  0  0
 20 25  1  0  0  0  0
 20 21  1  0  0  0  0
 21 22  1  0  0  0  0
 21 45  1  0  0  0  0
 21 46  1  0  0  0  0
 22 23  1  0  0  0  0
 22 47  1  0  0  0  0
 22 48  1  0  0  0  0
 23 24  1  0  0  0  0
 24 25  1  0  0  0  0
 24 49  1  0  0  0  0
 24 50  1  0  0  0  0
 25 51  1  0  0  0  0
 25 52  1  0  0  0  0
M  END
> <s_m_source_file>
AV-unprocessed.smi

> <i_m_source_file_index>
1084

> <i_lp_mmshare_version>
43012

> <i_f3d_flags>
0

> <s_epik_input>
W0NIMl0xW0NIMl1PW0NIMl1bQ0gyXU4xW0NASF0oW0NIM10pW0NIMl1bTkhdQyg9TylbTkhdYzJbY0hdW2NIXWMobltjSF0yKU4zW0NIMl1bQ0gyXU9bQ0gyXVtDSDJdMw==

> <s_epik_cmdline>
J2VwaWtfcHl0aG9uJywgJy1waCcsICc3LjAnLCAnLXRuJywgJzgnLCAnLW1hJywgJzIwMCcsICctbWV0YWxfYmluZGluZycsICctaW1hZScsICc8aW5maWxlLm1hZT4nLCAnLW9tYWUnLCAnPG91dGZpbGUubWFlPic=

> <r_lp_tautomer_probability>
1

> <r_epik_Ionization_Penalty>
0.268053

> <r_epik_Ionization_Penalty_Charging>
0

> <r_epik_Ionization_Penalty_Neutral>
0.268053

> <r_epik_State_Penalty>
0.269834

> <r_epik_Charging_Adjusted_Penalty>
0.269834

> <i_epik_Tot_Q>
0

> <i_epik_Tot_abs_Q>
0

> <r_epik_Metal_State_Penalty>
0.268436

> <b_epik_Metal_Only>
0

> <s_lp_Force_Field>
OPLS_2005

> <r_lp_Energy>
46.8762

> <b_lp_Chiralities_Consistent>
1

> <s_lp_Variant>
AV-unprocessed.smi:1084-1

> <Gold.Version>
5.8.1

> <Gold.Id.Protein>
6NUR|6NUR_protein|mol2

> <Gold.PLP.Fitness>
47.1839

> <Gold.PLP.PLP>
-43.2396

> <Gold.PLP.part.hbond>
-2.9851

> <Gold.PLP.part.metal>
0.0000

> <Gold.PLP.part.buried>
-0.0585

> <Gold.PLP.part.nonpolar>
-41.2889

> <Gold.PLP.part.repulsive>
0.8725

> <Gold.PLP.ligand.clash>
0.0000

> <Gold.PLP.ligand.torsion>
0.8869

> <Gold.PLP.Chemscore.Hbond>
1.8580

> <Gold.PLP.Chemscore.CHOScore>
0.0000

> <Gold.PLP.Chemscore.Metal>
0.0000

> <Gold.Chemscore.Hbonds>
donor molecule, donor type, donor heavy atom, donor atom, acceptor molecule, acceptor atom, score
      L1  H     4    32       P1  7948  1.00
      L1  H     7    33       P1  7948  0.70

> <Gold.PLP.Chemscore.Internal.Correction>
0.1441

> <Gold.Rescore>
     Score         DG    S(hbond)    S(metal)    S(lipo)     H(rot)  DE(clash)    DE(int)     intcor
     15.37     -19.66       1.79        0.00     105.62       1.62       1.63       2.66       ----

> <Gold.Chemscore.Fitness>
15.3686

> <Gold.Chemscore.DG>
-19.6589

> <Gold.Chemscore.ZeroCoef>
-5.4800

> <Gold.Chemscore.Hbond>
1.7878

> <Gold.Chemscore.Metal>
0.0000

> <Gold.Chemscore.Lipo>
105.6218

> <Gold.Chemscore.Internal_Hbond>
0.0000

> <Gold.Chemscore.DEClash>
1.6302

> <Gold.Chemscore.DEInternal>
2.6601

> <Gold.Chemscore.Rot>
1.6211

> <Gold.Chemscore.Internal.Correction>
   9.000000E+99

> <Gold.Chemscore.Hbonds>
donor molecule, donor type, donor heavy atom, donor atom, acceptor molecule, acceptor atom, score
      L1  H     4    32       P1  7948  0.97
      L1  H     7    33       P1  7948  0.68

> <Gold.Chemscore.Hbond.Weighted>
-5.9712

> <Gold.Chemscore.Metal.Weighted>
-0.0000

> <Gold.Chemscore.Lipo.Weighted>
-12.3578

> <Gold.Chemscore.Internal_Hbond.Weighted>
0.0000

> <Gold.Chemscore.DEClash.Weighted>
1.6302

> <Gold.Chemscore.DEInternal.Weighted>
2.6601

> <Gold.Chemscore.Rot.Weighted>
4.1501

> <Gold.Chemscore.Internal.Correction.Weighted>
   9.000000E+99

> <Gold.Protein.RotatedTorsions>
[ 6907 6896 6895 6894 ] final -125.37 input  -60.11 | X-H torsion
[ 7974 7965 7964 7962 ] final -123.12 input  175.53 | X-H torsion
[ 8008 7997 7996 7995 ] final  -93.08 input   59.86 | X-H torsion
[ 10167 10162 10161 10158 ] final  -75.97 input  -65.29 | X-H torsion
[ 10718 10713 10712 10709 ] final  140.34 input   66.30 | X-H torsion
[ 10763 10752 10751 10750 ] final   15.42 input  -60.55 | X-H torsion
[ 11005 11000 10999 10996 ] final   35.27 input  -57.11 | X-H torsion

> <Gold.Protein.ActiveResidues>
 VAL166  LYS551  ARG553  GLY616  TRP617  ASP618  TYR619  PRO620  LYS621  CYS622 
 ASP623  PHE694  ASN695  SER759  ASP760  ASP761  ALA762  ILE779  LEU786  VAL792 
 PHE793  MET794  SER795  GLU796  ALA797  LYS798  CYS799  TRP800  GLU811  SER814 

> <Gold.Protein.RotatedAtoms>
  150.8861  133.7306  159.2917 H   0  0  0  0  0  0  0  0  0  0  0  0  # atno 6907 bound_to 6896
  151.4871  135.1054  159.9803 H   0  0  0  0  0  0  0  0  0  0  0  0  # atno 6908 bound_to 6896
  152.4791  133.8163  159.7085 H   0  0  0  0  0  0  0  0  0  0  0  0  # atno 6909 bound_to 6896
  145.0221  140.7997  143.4375 H   0  0  0  0  0  0  0  0  0  0  0  0  # atno 7974 bound_to 7965
  154.7312  140.0502  157.0728 H   0  0  0  0  0  0  0  0  0  0  0  0  # atno 8008 bound_to 7997
  155.0300  140.3157  155.4743 H   0  0  0  0  0  0  0  0  0  0  0  0  # atno 8009 bound_to 7997
  156.2842  140.2151  156.5421 H   0  0  0  0  0  0  0  0  0  0  0  0  # atno 8010 bound_to 7997
  140.4897  143.2383  151.7926 H   0  0  0  0  0  0  0  0  0  0  0  0  # atno 10167 bound_to 10162
  157.4044  131.1020  151.0519 H   0  0  0  0  0  0  0  0  0  0  0  0  # atno 10718 bound_to 10713
  153.1527  135.6781  153.8858 H   0  0  0  0  0  0  0  0  0  0  0  0  # atno 10763 bound_to 10752
  153.8279  135.3121  155.3417 H   0  0  0  0  0  0  0  0  0  0  0  0  # atno 10764 bound_to 10752
  154.7874  135.4854  154.0063 H   0  0  0  0  0  0  0  0  0  0  0  0  # atno 10765 bound_to 10752
  140.2443  134.3377  155.7913 H   0  0  0  0  0  0  0  0  0  0  0  0  # atno 11005 bound_to 11000
  145.1882  139.2315  143.5256 LP  0  0  0  0  0  0  0  0  0  0  0  0  # atno 17320 bound_to 7965
  146.3487  140.1672  142.8590 LP  0  0  0  0  0  0  0  0  0  0  0  0  # atno 17321 bound_to 7965
  139.4849  144.4665  151.9478 LP  0  0  0  0  0  0  0  0  0  0  0  0  # atno 17342 bound_to 10162
  140.3751  144.2806  150.5915 LP  0  0  0  0  0  0  0  0  0  0  0  0  # atno 17343 bound_to 10162
  157.1506  130.6182  149.5581 LP  0  0  0  0  0  0  0  0  0  0  0  0  # atno 17370 bound_to 10713
  155.9832  130.4850  150.6921 LP  0  0  0  0  0  0  0  0  0  0  0  0  # atno 17371 bound_to 10713
  141.2207  133.7317  156.8936 LP  0  0  0  0  0  0  0  0  0  0  0  0  # atno 17394 bound_to 11000
  140.1621  134.9158  157.2728 LP  0  0  0  0  0  0  0  0  0  0  0  0  # atno 17395 bound_to 11000

$$$$
