AV-unprocessed.smi:1601|AV-procd|sdf|6435|dock9
  -GOLD-   22720 7 83D 1   1.00000     0.00000
 Structure written by MMmdl.
 42 43  0  0  0  0  0  0  0  0  2 V2000
  151.4475  138.2365  154.6969 C   0  0  0  0  0  0  0  0  0  0  0  0
  150.8227  139.6311  154.9478 C   0  0  2  0  0  0  0  0  0  0  0  0
  150.4786  139.8164  156.4528 C   0  0  0  0  0  0  0  0  0  0  0  0
  151.5832  140.3636  157.2372 N   0  0  0  0  0  0  0  0  0  0  0  0
  151.4710  141.2858  158.2078 C   0  0  0  0  0  0  0  0  0  0  0  0
  150.3897  141.7508  158.5701 O   0  0  0  0  0  0  0  0  0  0  0  0
  152.7835  141.7364  158.8703 C   0  0  2  0  0  0  0  0  0  0  0  0
  153.5393  140.5801  159.5562 C   0  0  0  0  0  0  0  0  0  0  0  0
  152.5402  142.8469  159.7839 N   0  0  0  0  0  0  0  0  0  0  0  0
  152.0039  144.0848  159.4919 C   0  0  0  0  0  0  0  0  0  0  0  0
  151.9347  144.7888  160.6597 C   0  0  0  0  0  0  0  0  0  0  0  0
  152.4499  143.8851  161.6300 C   0  0  0  0  0  0  0  0  0  0  0  0
  152.8051  142.7238  161.1057 N   0  0  0  0  0  0  0  0  0  0  0  0
  149.6336  139.8648  154.0592 N   0  3  0  0  0  0  0  0  0  0  0  0
  148.6380  138.7551  154.0628 C   0  0  0  0  0  0  0  0  0  0  0  0
  147.4513  139.0542  153.1309 C   0  0  0  0  0  0  0  0  0  0  0  0
  146.8405  140.2776  153.5070 O   0  0  0  0  0  0  0  0  0  0  0  0
  147.7450  141.3620  153.3766 C   0  0  0  0  0  0  0  0  0  0  0  0
  148.9389  141.1569  154.3238 C   0  0  0  0  0  0  0  0  0  0  0  0
  152.2893  138.0383  155.3590 H   0  0  0  0  0  0  0  0  0  0  0  0
  151.8561  138.1348  153.6932 H   0  0  0  0  0  0  0  0  0  0  0  0
  150.7160  137.4425  154.8495 H   0  0  0  0  0  0  0  0  0  0  0  0
  151.5731  140.3809  154.6916 H   0  0  0  0  0  0  0  0  0  0  0  0
  149.6743  140.5396  156.5787 H   0  0  0  0  0  0  0  0  0  0  0  0
  150.1187  138.8773  156.8769 H   0  0  0  0  0  0  0  0  0  0  0  0
  152.5100  140.0344  157.0076 H   0  0  0  0  0  0  0  0  0  0  0  0
  153.4292  142.1111  158.0743 H   0  0  0  0  0  0  0  0  0  0  0  0
  153.7620  139.7805  158.8488 H   0  0  0  0  0  0  0  0  0  0  0  0
  152.9673  140.1453  160.3771 H   0  0  0  0  0  0  0  0  0  0  0  0
  154.4888  140.9272  159.9648 H   0  0  0  0  0  0  0  0  0  0  0  0
  151.7191  144.3601  158.4871 H   0  0  0  0  0  0  0  0  0  0  0  0
  151.5689  145.7951  160.7997 H   0  0  0  0  0  0  0  0  0  0  0  0
  152.5722  144.0356  162.6925 H   0  0  0  0  0  0  0  0  0  0  0  0
  149.0849  137.8259  153.7137 H   0  0  0  0  0  0  0  0  0  0  0  0
  148.2817  138.5860  155.0802 H   0  0  0  0  0  0  0  0  0  0  0  0
  147.7741  139.0970  152.0892 H   0  0  0  0  0  0  0  0  0  0  0  0
  146.7116  138.2566  153.2002 H   0  0  0  0  0  0  0  0  0  0  0  0
  148.0782  141.4559  152.3415 H   0  0  0  0  0  0  0  0  0  0  0  0
  147.2236  142.2863  153.6263 H   0  0  0  0  0  0  0  0  0  0  0  0
  148.5998  141.1839  155.3606 H   0  0  0  0  0  0  0  0  0  0  0  0
  149.6083  142.0025  154.1811 H   0  0  0  0  0  0  0  0  0  0  0  0
  149.9903  139.9189  153.1156 H   0  0  0  0  0  0  0  0  0  0  0  0
  1  2  1  0  0  0  0
  1 20  1  0  0  0  0
  1 21  1  0  0  0  0
  1 22  1  0  0  0  0
  2  3  1  0  0  0  0
  2 14  1  0  0  0  0
  2 23  1  0  0  0  0
  3  4  1  0  0  0  0
  3 24  1  0  0  0  0
  3 25  1  0  0  0  0
  4  5  1  0  0  0  0
  4 26  1  0  0  0  0
  5  6  2  0  0  0  0
  5  7  1  0  0  0  0
  7  8  1  0  0  0  0
  7  9  1  0  0  0  0
  7 27  1  0  0  0  0
  8 28  1  0  0  0  0
  8 29  1  0  0  0  0
  8 30  1  0  0  0  0
  9 13  1  0  0  0  0
  9 10  1  0  0  0  0
 10 11  2  0  0  0  0
 10 31  1  0  0  0  0
 11 12  1  0  0  0  0
 11 32  1  0  0  0  0
 12 13  2  0  0  0  0
 12 33  1  0  0  0  0
 14 19  1  0  0  0  0
 14 15  1  0  0  0  0
 14 42  1  0  0  0  0
 15 16  1  0  0  0  0
 15 34  1  0  0  0  0
 15 35  1  0  0  0  0
 16 17  1  0  0  0  0
 16 36  1  0  0  0  0
 16 37  1  0  0  0  0
 17 18  1  0  0  0  0
 18 19  1  0  0  0  0
 18 38  1  0  0  0  0
 18 39  1  0  0  0  0
 19 40  1  0  0  0  0
 19 41  1  0  0  0  0
M  CHG  1  14   1
M  END
> <s_m_source_file>
AV-unprocessed.smi

> <i_m_source_file_index>
1601

> <i_lp_mmshare_version>
43012

> <i_f3d_flags>
0

> <s_epik_input>
W0NIMl0xW0NIMl1PW0NIMl1bQ0gyXU4xW0NASF0oW0NIM10pW0NIMl1bTkhdQyg9TylbQ0BIXShbQ0gzXSluMltjSF1bY0hdW2NIXW4y

> <s_epik_cmdline>
J2VwaWtfcHl0aG9uJywgJy1waCcsICc3LjAnLCAnLXRuJywgJzgnLCAnLW1hJywgJzIwMCcsICctbWV0YWxfYmluZGluZycsICctaW1hZScsICc8aW5maWxlLm1hZT4nLCAnLW9tYWUnLCAnPG91dGZpbGUubWFlPic=

> <r_lp_tautomer_probability>
1

> <r_epik_Ionization_Penalty>
0.732551

> <r_epik_Ionization_Penalty_Charging>
0.732531

> <r_epik_Ionization_Penalty_Neutral>
2.04647e-05

> <r_epik_State_Penalty>
0.757939

> <r_epik_Charging_Adjusted_Penalty>
1.49047

> <i_epik_Tot_Q>
1

> <i_epik_Tot_abs_Q>
1

> <r_epik_Metal_State_Penalty>
0.757952

> <b_epik_Metal_Only>
0

> <s_lp_Force_Field>
OPLS_2005

> <r_lp_Energy>
26.1921

> <b_lp_Chiralities_Consistent>
1

> <s_lp_Variant>
AV-unprocessed.smi:1601-5

> <Gold.Version>
5.8.1

> <Gold.Id.Protein>
6NUR|6NUR_protein|mol2

> <Gold.PLP.Fitness>
43.3976

> <Gold.PLP.PLP>
-41.7439

> <Gold.PLP.part.hbond>
-1.0000

> <Gold.PLP.part.metal>
0.0000

> <Gold.PLP.part.buried>
-5.4298

> <Gold.PLP.part.nonpolar>
-34.4499

> <Gold.PLP.part.repulsive>
0.4507

> <Gold.PLP.ligand.clash>
0.0000

> <Gold.PLP.ligand.torsion>
0.7481

> <Gold.PLP.Chemscore.Hbond>
1.0000

> <Gold.PLP.Chemscore.CHOScore>
0.0000

> <Gold.PLP.Chemscore.Metal>
0.0000

> <Gold.Chemscore.Hbonds>
donor molecule, donor type, donor heavy atom, donor atom, acceptor molecule, acceptor atom, score
      L1  H    14    42       P1  7957  0.98

> <Gold.PLP.Chemscore.Internal.Correction>
0.1499

> <Gold.Rescore>
     Score         DG    S(hbond)    S(metal)    S(lipo)     H(rot)  DE(clash)    DE(int)     intcor
     15.14     -16.07       0.96        0.00     103.78       1.86       0.11       0.82       ----

> <Gold.Chemscore.Fitness>
15.1366

> <Gold.Chemscore.DG>
-16.0658

> <Gold.Chemscore.ZeroCoef>
-5.4800

> <Gold.Chemscore.Hbond>
0.9621

> <Gold.Chemscore.Metal>
0.0000

> <Gold.Chemscore.Lipo>
103.7768

> <Gold.Chemscore.Internal_Hbond>
0.0000

> <Gold.Chemscore.DEClash>
0.1108

> <Gold.Chemscore.DEInternal>
0.8183

> <Gold.Chemscore.Rot>
1.8631

> <Gold.Chemscore.Internal.Correction>
   9.000000E+99

> <Gold.Chemscore.Hbonds>
donor molecule, donor type, donor heavy atom, donor atom, acceptor molecule, acceptor atom, score
      L1  H    14    42       P1  7957  0.90

> <Gold.Chemscore.Hbond.Weighted>
-3.2136

> <Gold.Chemscore.Metal.Weighted>
-0.0000

> <Gold.Chemscore.Lipo.Weighted>
-12.1419

> <Gold.Chemscore.Internal_Hbond.Weighted>
0.0000

> <Gold.Chemscore.DEClash.Weighted>
0.1108

> <Gold.Chemscore.DEInternal.Weighted>
0.8183

> <Gold.Chemscore.Rot.Weighted>
4.7697

> <Gold.Chemscore.Internal.Correction.Weighted>
   9.000000E+99

> <Gold.Protein.RotatedTorsions>
[ 6907 6896 6895 6894 ] final  -35.05 input  -60.11 | X-H torsion
[ 7974 7965 7964 7962 ] final  113.42 input  175.53 | X-H torsion
[ 8008 7997 7996 7995 ] final -113.08 input   59.86 | X-H torsion
[ 10167 10162 10161 10158 ] final -132.60 input  -65.29 | X-H torsion
[ 10718 10713 10712 10709 ] final   27.11 input   66.30 | X-H torsion
[ 10763 10752 10751 10750 ] final   12.71 input  -60.55 | X-H torsion
[ 11005 11000 10999 10996 ] final  -67.33 input  -57.11 | X-H torsion

> <Gold.Protein.ActiveResidues>
 VAL166  LYS551  ARG553  GLY616  TRP617  ASP618  TYR619  PRO620  LYS621  CYS622 
 ASP623  PHE694  ASN695  SER759  ASP760  ASP761  ALA762  ILE779  LEU786  VAL792 
 PHE793  MET794  SER795  GLU796  ALA797  LYS798  CYS799  TRP800  GLU811  SER814 

> <Gold.Protein.RotatedAtoms>
  151.0447  134.9632  159.8179 H   0  0  0  0  0  0  0  0  0  0  0  0  # atno 6907 bound_to 6896
  152.5370  134.2613  159.8946 H   0  0  0  0  0  0  0  0  0  0  0  0  # atno 6908 bound_to 6896
  151.2626  133.4251  159.2651 H   0  0  0  0  0  0  0  0  0  0  0  0  # atno 6909 bound_to 6896
  145.2171  139.2879  143.4237 H   0  0  0  0  0  0  0  0  0  0  0  0  # atno 7974 bound_to 7965
  155.0152  140.0393  157.2415 H   0  0  0  0  0  0  0  0  0  0  0  0  # atno 8008 bound_to 7997
  154.7425  140.2751  155.6337 H   0  0  0  0  0  0  0  0  0  0  0  0  # atno 8009 bound_to 7997
  156.2867  140.2662  156.2157 H   0  0  0  0  0  0  0  0  0  0  0  0  # atno 8010 bound_to 7997
  139.9068  143.6541  152.2583 H   0  0  0  0  0  0  0  0  0  0  0  0  # atno 10167 bound_to 10162
  157.2158  130.6956  149.6248 H   0  0  0  0  0  0  0  0  0  0  0  0  # atno 10718 bound_to 10713
  153.1795  135.6825  153.8498 H   0  0  0  0  0  0  0  0  0  0  0  0  # atno 10763 bound_to 10752
  153.7834  135.3179  155.3370 H   0  0  0  0  0  0  0  0  0  0  0  0  # atno 10764 bound_to 10752
  154.8050  135.4754  154.0465 H   0  0  0  0  0  0  0  0  0  0  0  0  # atno 10765 bound_to 10752
  141.1505  133.6717  156.6277 H   0  0  0  0  0  0  0  0  0  0  0  0  # atno 11005 bound_to 11000
  146.3384  140.2466  142.8597 LP  0  0  0  0  0  0  0  0  0  0  0  0  # atno 17320 bound_to 7965
  144.9800  140.8450  143.5403 LP  0  0  0  0  0  0  0  0  0  0  0  0  # atno 17321 bound_to 7965
  139.6977  144.7639  151.1328 LP  0  0  0  0  0  0  0  0  0  0  0  0  # atno 17342 bound_to 10162
  140.7694  143.5501  150.9214 LP  0  0  0  0  0  0  0  0  0  0  0  0  # atno 17343 bound_to 10162
  155.9686  130.4536  150.5818 LP  0  0  0  0  0  0  0  0  0  0  0  0  # atno 17370 bound_to 10713
  157.3626  131.0752  151.1624 LP  0  0  0  0  0  0  0  0  0  0  0  0  # atno 17371 bound_to 10713
  140.3491  134.7784  157.4454 LP  0  0  0  0  0  0  0  0  0  0  0  0  # atno 17394 bound_to 11000
  140.0875  134.5646  155.8477 LP  0  0  0  0  0  0  0  0  0  0  0  0  # atno 17395 bound_to 11000

$$$$
