AV-unprocessed.smi:1705|AV-procd|sdf|6885|dock7
  -GOLD-   22720 8 93D 1   1.00000     0.00000
 Structure written by MMmdl.
 38 39  0  0  0  0  0  0  0  0  1 V2000
  151.9348  143.5899  158.2093 C   0  0  0  0  0  0  0  0  0  0  0  0
  151.5265  142.1738  158.6439 C   0  0  1  0  0  0  0  0  0  0  0  0
  151.6262  141.2643  157.5121 N   0  0  0  0  0  0  0  0  0  0  0  0
  150.5806  140.8233  156.7069 C   0  0  0  0  0  0  0  0  0  0  0  0
  149.2946  141.2251  156.9129 C   0  0  0  0  0  0  0  0  0  0  0  0
  148.9080  142.1548  157.9271 C   0  0  0  0  0  0  0  0  0  0  0  0
  148.5975  142.8846  158.7710 N   0  0  0  0  0  0  0  0  0  0  0  0
  148.1927  140.7546  156.0762 C   0  0  0  0  0  0  0  0  0  0  0  0
  147.0168  141.0913  156.2353 O   0  0  0  0  0  0  0  0  0  0  0  0
  148.5669  139.8627  155.0512 N   0  0  0  0  0  0  0  0  0  0  0  0
  147.4962  139.3634  154.2109 C   0  0  0  0  0  0  0  0  0  0  0  0
  149.8881  139.4279  154.8181 C   0  0  0  0  0  0  0  0  0  0  0  0
  150.1589  138.6268  153.9184 O   0  0  0  0  0  0  0  0  0  0  0  0
  150.8983  139.9452  155.6662 N   0  0  0  0  0  0  0  0  0  0  0  0
  152.2323  139.4550  155.3820 C   0  0  0  0  0  0  0  0  0  0  0  0
  152.3925  141.6465  159.8028 C   0  0  1  0  0  0  0  0  0  0  0  0
  153.8906  141.5809  159.5086 C   0  0  0  0  0  0  0  0  0  0  0  0
  154.5190  141.6285  160.8909 C   0  0  0  0  0  0  0  0  0  0  0  0
  153.4227  142.2301  161.7750 C   0  0  0  0  0  0  0  0  0  0  0  0
  152.3585  142.5574  160.8915 O   0  0  0  0  0  0  0  0  0  0  0  0
  151.7905  144.3103  159.0144 H   0  0  0  0  0  0  0  0  0  0  0  0
  151.3427  143.9305  157.3603 H   0  0  0  0  0  0  0  0  0  0  0  0
  152.9839  143.6250  157.9137 H   0  0  0  0  0  0  0  0  0  0  0  0
  150.4937  142.2013  158.9899 H   0  0  0  0  0  0  0  0  0  0  0  0
  152.3529  140.5764  157.6487 H   0  0  0  0  0  0  0  0  0  0  0  0
  147.8794  138.7625  153.3874 H   0  0  0  0  0  0  0  0  0  0  0  0
  146.9666  140.2275  153.8054 H   0  0  0  0  0  0  0  0  0  0  0  0
  146.8458  138.7602  154.8467 H   0  0  0  0  0  0  0  0  0  0  0  0
  152.2391  138.3878  155.6101 H   0  0  0  0  0  0  0  0  0  0  0  0
  152.9708  139.9720  155.9900 H   0  0  0  0  0  0  0  0  0  0  0  0
  152.4439  139.6477  154.3285 H   0  0  0  0  0  0  0  0  0  0  0  0
  152.0351  140.6718  160.1413 H   0  0  0  0  0  0  0  0  0  0  0  0
  154.1746  140.6911  158.9462 H   0  0  0  0  0  0  0  0  0  0  0  0
  154.1993  142.4565  158.9358 H   0  0  0  0  0  0  0  0  0  0  0  0
  154.7762  140.6269  161.2373 H   0  0  0  0  0  0  0  0  0  0  0  0
  155.4287  142.2299  160.8951 H   0  0  0  0  0  0  0  0  0  0  0  0
  153.0744  141.4998  162.5064 H   0  0  0  0  0  0  0  0  0  0  0  0
  153.7609  143.1158  162.3130 H   0  0  0  0  0  0  0  0  0  0  0  0
  1  2  1  0  0  0  0
  1 21  1  0  0  0  0
  1 22  1  0  0  0  0
  1 23  1  0  0  0  0
  2  3  1  0  0  0  0
  2 16  1  0  0  0  0
  2 24  1  0  0  0  0
  3  4  1  0  0  0  0
  3 25  1  0  0  0  0
  4 14  1  0  0  0  0
  4  5  2  0  0  0  0
  5  6  1  0  0  0  0
  5  8  1  0  0  0  0
  6  7  3  0  0  0  0
  8  9  2  0  0  0  0
  8 10  1  0  0  0  0
 10 11  1  0  0  0  0
 10 12  1  0  0  0  0
 11 26  1  0  0  0  0
 11 27  1  0  0  0  0
 11 28  1  0  0  0  0
 12 13  2  0  0  0  0
 12 14  1  0  0  0  0
 14 15  1  0  0  0  0
 15 29  1  0  0  0  0
 15 30  1  0  0  0  0
 15 31  1  0  0  0  0
 16 20  1  0  0  0  0
 16 17  1  0  0  0  0
 16 32  1  0  0  0  0
 17 18  1  0  0  0  0
 17 33  1  0  0  0  0
 17 34  1  0  0  0  0
 18 19  1  0  0  0  0
 18 35  1  0  0  0  0
 18 36  1  0  0  0  0
 19 20  1  0  0  0  0
 19 37  1  0  0  0  0
 19 38  1  0  0  0  0
M  END
> <s_m_source_file>
AV-unprocessed.smi

> <i_m_source_file_index>
1705

> <i_lp_mmshare_version>
43012

> <i_f3d_flags>
0

> <s_epik_input>
TzFbQ0gyXVtDSDJdW0NIMl1bQ0BIXTFbQ0BIXShbQ0gzXSlbTkhdYzJjKEMjTiljKD1PKW4oW0NIM10pYyg9TyluMltDSDNd

> <s_epik_cmdline>
J2VwaWtfcHl0aG9uJywgJy1waCcsICc3LjAnLCAnLXRuJywgJzgnLCAnLW1hJywgJzIwMCcsICctbWV0YWxfYmluZGluZycsICctaW1hZScsICc8aW5maWxlLm1hZT4nLCAnLW9tYWUnLCAnPG91dGZpbGUubWFlPic=

> <r_epik_Ionization_Penalty>
0.000446268

> <r_epik_Ionization_Penalty_Charging>
9.41922e-10

> <r_epik_Ionization_Penalty_Neutral>
0.000446267

> <r_epik_State_Penalty>
0.000275531

> <r_epik_Charging_Adjusted_Penalty>
0.000275532

> <i_epik_Tot_Q>
0

> <i_epik_Tot_abs_Q>
0

> <r_epik_Metal_State_Penalty>
-0

> <b_epik_Metal_Only>
0

> <s_lp_Force_Field>
OPLS_2005

> <r_lp_Energy>
37.8394

> <b_lp_Chiralities_Consistent>
1

> <s_lp_Variant>
AV-unprocessed.smi:1705-4

> <Gold.Version>
5.8.1

> <Gold.Id.Protein>
6NUR|6NUR_protein|mol2

> <Gold.PLP.Fitness>
34.9562

> <Gold.PLP.PLP>
-35.4621

> <Gold.PLP.part.hbond>
-0.3175

> <Gold.PLP.part.metal>
0.0000

> <Gold.PLP.part.buried>
-2.3943

> <Gold.PLP.part.nonpolar>
-33.1462

> <Gold.PLP.part.repulsive>
1.1906

> <Gold.PLP.ligand.clash>
9.0509

> <Gold.PLP.ligand.torsion>
0.2675

> <Gold.PLP.Chemscore.Hbond>
0.0000

> <Gold.PLP.Chemscore.CHOScore>
0.0000

> <Gold.PLP.Chemscore.Metal>
0.0000

> <Gold.PLP.Chemscore.Internal.Correction>
9.0800

> <Gold.Rescore>
     Score         DG    S(hbond)    S(metal)    S(lipo)     H(rot)  DE(clash)    DE(int)     intcor
      8.47     -11.32       0.00        0.00      77.91       1.28       0.03       2.82       ----

> <Gold.Chemscore.Fitness>
8.4690

> <Gold.Chemscore.DG>
-11.3238

> <Gold.Chemscore.ZeroCoef>
-5.4800

> <Gold.Chemscore.Hbond>
0.0000

> <Gold.Chemscore.Metal>
0.0000

> <Gold.Chemscore.Lipo>
77.9101

> <Gold.Chemscore.Internal_Hbond>
0.0000

> <Gold.Chemscore.DEClash>
0.0318

> <Gold.Chemscore.DEInternal>
2.8231

> <Gold.Chemscore.Rot>
1.2780

> <Gold.Chemscore.Internal.Correction>
   9.000000E+99

> <Gold.Chemscore.Hbond.Weighted>
-0.0000

> <Gold.Chemscore.Metal.Weighted>
-0.0000

> <Gold.Chemscore.Lipo.Weighted>
-9.1155

> <Gold.Chemscore.Internal_Hbond.Weighted>
0.0000

> <Gold.Chemscore.DEClash.Weighted>
0.0318

> <Gold.Chemscore.DEInternal.Weighted>
2.8231

> <Gold.Chemscore.Rot.Weighted>
3.2717

> <Gold.Chemscore.Internal.Correction.Weighted>
   9.000000E+99

> <Gold.Protein.RotatedTorsions>
[ 6907 6896 6895 6894 ] final  161.22 input  -60.11 | X-H torsion
[ 7974 7965 7964 7962 ] final  -75.83 input  175.53 | X-H torsion
[ 8008 7997 7996 7995 ] final  -80.34 input   59.86 | X-H torsion
[ 10167 10162 10161 10158 ] final    1.42 input  -65.29 | X-H torsion
[ 10718 10713 10712 10709 ] final  -55.24 input   66.30 | X-H torsion
[ 10763 10752 10751 10750 ] final  -19.22 input  -60.55 | X-H torsion
[ 11005 11000 10999 10996 ] final -151.52 input  -57.11 | X-H torsion

> <Gold.Protein.ActiveResidues>
 VAL166  LYS551  ARG553  GLY616  TRP617  ASP618  TYR619  PRO620  LYS621  CYS622 
 ASP623  PHE694  ASN695  SER759  ASP760  ASP761  ALA762  ILE779  LEU786  VAL792 
 PHE793  MET794  SER795  GLU796  ALA797  LYS798  CYS799  TRP800  GLU811  SER814 

> <Gold.Protein.RotatedAtoms>
  151.9588  133.3689  159.4027 H   0  0  0  0  0  0  0  0  0  0  0  0  # atno 6907 bound_to 6896
  150.6968  134.4262  159.5237 H   0  0  0  0  0  0  0  0  0  0  0  0  # atno 6908 bound_to 6896
  152.1947  134.8641  160.0565 H   0  0  0  0  0  0  0  0  0  0  0  0  # atno 6909 bound_to 6896
  145.6208  140.9363  143.1139 H   0  0  0  0  0  0  0  0  0  0  0  0  # atno 7974 bound_to 7965
  154.5873  140.0664  156.9190 H   0  0  0  0  0  0  0  0  0  0  0  0  # atno 8008 bound_to 7997
  155.2356  140.3341  155.4280 H   0  0  0  0  0  0  0  0  0  0  0  0  # atno 8009 bound_to 7997
  156.2232  140.1807  156.7412 H   0  0  0  0  0  0  0  0  0  0  0  0  # atno 8010 bound_to 7997
  140.6684  143.7117  150.7872 H   0  0  0  0  0  0  0  0  0  0  0  0  # atno 10167 bound_to 10162
  156.1385  130.4155  150.0145 H   0  0  0  0  0  0  0  0  0  0  0  0  # atno 10718 bound_to 10713
  153.6014  135.6999  153.5383 H   0  0  0  0  0  0  0  0  0  0  0  0  # atno 10763 bound_to 10752
  153.3094  135.4105  155.1322 H   0  0  0  0  0  0  0  0  0  0  0  0  # atno 10764 bound_to 10752
  154.8582  135.3668  154.5549 H   0  0  0  0  0  0  0  0  0  0  0  0  # atno 10765 bound_to 10752
  140.7287  134.3646  157.5170 H   0  0  0  0  0  0  0  0  0  0  0  0  # atno 11005 bound_to 11000
  144.7232  139.7962  143.7374 LP  0  0  0  0  0  0  0  0  0  0  0  0  # atno 17320 bound_to 7965
  146.1432  139.4495  143.0095 LP  0  0  0  0  0  0  0  0  0  0  0  0  # atno 17321 bound_to 7965
  140.0799  143.4979  152.2536 LP  0  0  0  0  0  0  0  0  0  0  0  0  # atno 17342 bound_to 10162
  139.5941  144.7561  151.3328 LP  0  0  0  0  0  0  0  0  0  0  0  0  # atno 17343 bound_to 10162
  156.8037  130.9300  151.3645 LP  0  0  0  0  0  0  0  0  0  0  0  0  # atno 17370 bound_to 10713
  157.6554  130.8920  149.9718 LP  0  0  0  0  0  0  0  0  0  0  0  0  # atno 17371 bound_to 10713
  139.8831  134.9003  156.2787 LP  0  0  0  0  0  0  0  0  0  0  0  0  # atno 17394 bound_to 11000
  140.9940  133.7191  156.0858 LP  0  0  0  0  0  0  0  0  0  0  0  0  # atno 17395 bound_to 11000

$$$$
