AV-unprocessed.smi:1915|AV-procd|sdf|7760|dock3
  -GOLD-   22720 9503D 1   1.00000     0.00000
 Structure written by MMmdl.
 44 45  0  0  0  0  0  0  0  0  1 V2000
  145.8900  142.7019  154.0313 C   0  0  0  0  0  0  0  0  0  0  0  0
  147.1395  141.8122  153.9122 C   0  0  0  0  0  0  0  0  0  0  0  0
  147.0498  140.9263  152.6608 C   0  0  0  0  0  0  0  0  0  0  0  0
  147.3983  140.9490  155.1674 C   0  0  0  0  0  0  0  0  0  0  0  0
  148.5082  140.0125  154.9962 N   0  0  0  0  0  0  0  0  0  0  0  0
  149.7658  140.4622  154.4233 C   0  0  0  0  0  0  0  0  0  0  0  0
  150.7303  139.2646  154.5501 C   0  0  1  0  0  0  0  0  0  0  0  0
  151.7990  139.4934  155.6305 C   0  0  0  0  0  0  0  0  0  0  0  0
  152.9955  139.4444  155.3421 O   0  0  0  0  0  0  0  0  0  0  0  0
  151.3524  139.7367  156.8703 N   0  0  0  0  0  0  0  0  0  0  0  0
  152.2073  139.9614  158.0297 C   0  0  0  0  0  0  0  0  0  0  0  0
  151.5105  140.8211  159.0987 C   0  0  0  0  0  0  0  0  0  0  0  0
  151.6911  142.3155  158.8880 C   0  0  0  0  0  0  0  0  0  0  0  0
  152.2124  143.1247  159.9199 C   0  0  0  0  0  0  0  0  0  0  0  0
  152.3501  144.5065  159.6854 C   0  0  0  0  0  0  0  0  0  0  0  0
  151.9621  145.0240  158.4344 C   0  0  0  0  0  0  0  0  0  0  0  0
  151.4515  144.1329  157.4698 C   0  0  0  0  0  0  0  0  0  0  0  0
  151.3144  142.8066  157.6850 N   0  0  0  0  0  0  0  0  0  0  0  0
  149.8280  138.0611  154.8880 C   0  0  0  0  0  0  0  0  0  0  0  0
  148.4822  138.6911  155.2069 C   0  0  0  0  0  0  0  0  0  0  0  0
  147.5218  138.0388  155.6137 O   0  0  0  0  0  0  0  0  0  0  0  0
  144.9997  142.1082  154.2400 H   0  0  0  0  0  0  0  0  0  0  0  0
  145.7123  143.2538  153.1079 H   0  0  0  0  0  0  0  0  0  0  0  0
  145.9966  143.4393  154.8269 H   0  0  0  0  0  0  0  0  0  0  0  0
  147.9979  142.4720  153.7778 H   0  0  0  0  0  0  0  0  0  0  0  0
  146.2097  140.2338  152.7257 H   0  0  0  0  0  0  0  0  0  0  0  0
  147.9581  140.3372  152.5297 H   0  0  0  0  0  0  0  0  0  0  0  0
  146.9174  141.5270  151.7605 H   0  0  0  0  0  0  0  0  0  0  0  0
  147.5836  141.5912  156.0302 H   0  0  0  0  0  0  0  0  0  0  0  0
  146.5023  140.3761  155.4108 H   0  0  0  0  0  0  0  0  0  0  0  0
  149.6127  140.7248  153.3757 H   0  0  0  0  0  0  0  0  0  0  0  0
  150.1245  141.3560  154.9368 H   0  0  0  0  0  0  0  0  0  0  0  0
  151.2256  139.0944  153.5924 H   0  0  0  0  0  0  0  0  0  0  0  0
  150.3546  139.7502  157.0271 H   0  0  0  0  0  0  0  0  0  0  0  0
  152.4917  139.0020  158.4655 H   0  0  0  0  0  0  0  0  0  0  0  0
  153.1272  140.4483  157.7039 H   0  0  0  0  0  0  0  0  0  0  0  0
  150.4443  140.5927  159.1103 H   0  0  0  0  0  0  0  0  0  0  0  0
  151.8852  140.5538  160.0880 H   0  0  0  0  0  0  0  0  0  0  0  0
  152.4982  142.6984  160.8703 H   0  0  0  0  0  0  0  0  0  0  0  0
  152.7451  145.1572  160.4513 H   0  0  0  0  0  0  0  0  0  0  0  0
  152.0538  146.0783  158.2193 H   0  0  0  0  0  0  0  0  0  0  0  0
  151.1448  144.4948  156.4996 H   0  0  0  0  0  0  0  0  0  0  0  0
  149.7232  137.3958  154.0305 H   0  0  0  0  0  0  0  0  0  0  0  0
  150.1831  137.4677  155.7323 H   0  0  0  0  0  0  0  0  0  0  0  0
  1  2  1  0  0  0  0
  1 22  1  0  0  0  0
  1 23  1  0  0  0  0
  1 24  1  0  0  0  0
  2  3  1  0  0  0  0
  2  4  1  0  0  0  0
  2 25  1  0  0  0  0
  3 26  1  0  0  0  0
  3 27  1  0  0  0  0
  3 28  1  0  0  0  0
  4  5  1  0  0  0  0
  4 29  1  0  0  0  0
  4 30  1  0  0  0  0
  5 20  1  0  0  0  0
  5  6  1  0  0  0  0
  6  7  1  0  0  0  0
  6 31  1  0  0  0  0
  6 32  1  0  0  0  0
  7  8  1  0  0  0  0
  7 19  1  0  0  0  0
  7 33  1  0  0  0  0
  8  9  2  0  0  0  0
  8 10  1  0  0  0  0
 10 11  1  0  0  0  0
 10 34  1  0  0  0  0
 11 12  1  0  0  0  0
 11 35  1  0  0  0  0
 11 36  1  0  0  0  0
 12 13  1  0  0  0  0
 12 37  1  0  0  0  0
 12 38  1  0  0  0  0
 13 18  1  0  0  0  0
 13 14  2  0  0  0  0
 14 15  1  0  0  0  0
 14 39  1  0  0  0  0
 15 16  2  0  0  0  0
 15 40  1  0  0  0  0
 16 17  1  0  0  0  0
 16 41  1  0  0  0  0
 17 18  2  0  0  0  0
 17 42  1  0  0  0  0
 19 20  1  0  0  0  0
 19 43  1  0  0  0  0
 19 44  1  0  0  0  0
 20 21  2  0  0  0  0
M  END
> <s_m_source_file>
AV-unprocessed.smi

> <i_m_source_file_index>
1915

> <i_lp_mmshare_version>
43012

> <i_f3d_flags>
0

> <s_epik_input>
W0NIM11bQ0hdKFtDSDNdKVtDSDJdTjFbQ0gyXVtDQEhdKFtDSDJdQzE9TylDKD1PKVtOSF1bQ0gyXVtDSDJdYzJbY0hdW2NIXVtjSF1bY0hdbjI=

> <s_epik_cmdline>
J2VwaWtfcHl0aG9uJywgJy1waCcsICc3LjAnLCAnLXRuJywgJzgnLCAnLW1hJywgJzIwMCcsICctbWV0YWxfYmluZGluZycsICctaW1hZScsICc8aW5maWxlLm1hZT4nLCAnLW9tYWUnLCAnPG91dGZpbGUubWFlPic=

> <r_epik_Ionization_Penalty>
0.0252359

> <r_epik_Ionization_Penalty_Charging>
0

> <r_epik_Ionization_Penalty_Neutral>
0.0252359

> <r_epik_State_Penalty>
0.020532

> <r_epik_Charging_Adjusted_Penalty>
0.020532

> <i_epik_Tot_Q>
0

> <i_epik_Tot_abs_Q>
0

> <r_epik_Metal_State_Penalty>
0.0196901

> <b_epik_Metal_Only>
0

> <s_lp_Force_Field>
OPLS_2005

> <r_lp_Energy>
14.3845

> <b_lp_Chiralities_Consistent>
1

> <s_lp_Variant>
AV-unprocessed.smi:1915-1

> <Gold.Version>
5.8.1

> <Gold.Id.Protein>
6NUR|6NUR_protein|mol2

> <Gold.PLP.Fitness>
48.4515

> <Gold.PLP.PLP>
-43.2700

> <Gold.PLP.part.hbond>
-1.0000

> <Gold.PLP.part.metal>
0.0000

> <Gold.PLP.part.buried>
-4.5228

> <Gold.PLP.part.nonpolar>
-38.2563

> <Gold.PLP.part.repulsive>
0.1690

> <Gold.PLP.ligand.clash>
0.0000

> <Gold.PLP.ligand.torsion>
0.5108

> <Gold.PLP.Chemscore.Hbond>
1.0000

> <Gold.PLP.Chemscore.CHOScore>
0.9984

> <Gold.PLP.Chemscore.Metal>
0.0000

> <Gold.Chemscore.Hbonds>
donor molecule, donor type, donor heavy atom, donor atom, acceptor molecule, acceptor atom, score
      P1  H  7997  8009       L1     9  1.00
      L1  C    17    42       P1  8028  0.96

> <Gold.PLP.Chemscore.Internal.Correction>
0.2080

> <Gold.Rescore>
     Score         DG    S(hbond)    S(metal)    S(lipo)     H(rot)  DE(clash)    DE(int)     intcor
     17.11     -17.91       1.00        0.00     115.89       1.75       0.31       0.48       ----

> <Gold.Chemscore.Fitness>
17.1128

> <Gold.Chemscore.DG>
-17.9076

> <Gold.Chemscore.ZeroCoef>
-5.4800

> <Gold.Chemscore.Hbond>
0.9992

> <Gold.Chemscore.Metal>
0.0000

> <Gold.Chemscore.Lipo>
115.8885

> <Gold.Chemscore.Internal_Hbond>
0.0000

> <Gold.Chemscore.DEClash>
0.3144

> <Gold.Chemscore.DEInternal>
0.4804

> <Gold.Chemscore.Rot>
1.7456

> <Gold.Chemscore.Internal.Correction>
   9.000000E+99

> <Gold.Chemscore.Hbonds>
donor molecule, donor type, donor heavy atom, donor atom, acceptor molecule, acceptor atom, score
      P1  H  7997  8009       L1     9  1.00

> <Gold.Chemscore.Hbond.Weighted>
-3.3374

> <Gold.Chemscore.Metal.Weighted>
-0.0000

> <Gold.Chemscore.Lipo.Weighted>
-13.5590

> <Gold.Chemscore.Internal_Hbond.Weighted>
0.0000

> <Gold.Chemscore.DEClash.Weighted>
0.3144

> <Gold.Chemscore.DEInternal.Weighted>
0.4804

> <Gold.Chemscore.Rot.Weighted>
4.4688

> <Gold.Chemscore.Internal.Correction.Weighted>
   9.000000E+99

> <Gold.Protein.RotatedTorsions>
[ 6907 6896 6895 6894 ] final   19.69 input  -60.11 | X-H torsion
[ 7974 7965 7964 7962 ] final -131.11 input  175.53 | X-H torsion
[ 8008 7997 7996 7995 ] final -145.23 input   59.86 | X-H torsion
[ 10167 10162 10161 10158 ] final  148.96 input  -65.29 | X-H torsion
[ 10718 10713 10712 10709 ] final  -24.73 input   66.30 | X-H torsion
[ 10763 10752 10751 10750 ] final   41.54 input  -60.55 | X-H torsion
[ 11005 11000 10999 10996 ] final   81.45 input  -57.11 | X-H torsion

> <Gold.Protein.ActiveResidues>
 VAL166  LYS551  ARG553  GLY616  TRP617  ASP618  TYR619  PRO620  LYS621  CYS622 
 ASP623  PHE694  ASN695  SER759  ASP760  ASP761  ALA762  ILE779  LEU786  VAL792 
 PHE793  MET794  SER795  GLU796  ALA797  LYS798  CYS799  TRP800  GLU811  SER814 

> <Gold.Protein.RotatedAtoms>
  151.8848  135.0439  160.0491 H   0  0  0  0  0  0  0  0  0  0  0  0  # atno 6907 bound_to 6896
  152.2484  133.5189  159.5319 H   0  0  0  0  0  0  0  0  0  0  0  0  # atno 6908 bound_to 6896
  150.7075  134.0911  159.3974 H   0  0  0  0  0  0  0  0  0  0  0  0  # atno 6909 bound_to 6896
  144.9411  140.7239  143.4846 H   0  0  0  0  0  0  0  0  0  0  0  0  # atno 7974 bound_to 7965
  155.5397  140.0607  157.2872 H   0  0  0  0  0  0  0  0  0  0  0  0  # atno 8008 bound_to 7997
  154.4456  140.1921  156.0623 H   0  0  0  0  0  0  0  0  0  0  0  0  # atno 8009 bound_to 7997
  156.0593  140.3274  155.7447 H   0  0  0  0  0  0  0  0  0  0  0  0  # atno 8010 bound_to 7997
  139.4868  144.5639  151.7181 H   0  0  0  0  0  0  0  0  0  0  0  0  # atno 10167 bound_to 10162
  156.4737  130.4530  149.6853 H   0  0  0  0  0  0  0  0  0  0  0  0  # atno 10718 bound_to 10713
  152.9905  135.6158  154.2805 H   0  0  0  0  0  0  0  0  0  0  0  0  # atno 10763 bound_to 10752
  154.2534  135.2784  155.2809 H   0  0  0  0  0  0  0  0  0  0  0  0  # atno 10764 bound_to 10752
  154.5268  135.5799  153.6783 H   0  0  0  0  0  0  0  0  0  0  0  0  # atno 10765 bound_to 10752
  139.9098  134.7997  156.2043 H   0  0  0  0  0  0  0  0  0  0  0  0  # atno 11005 bound_to 11000
  145.2990  139.1857  143.4700 LP  0  0  0  0  0  0  0  0  0  0  0  0  # atno 17320 bound_to 7965
  146.3286  140.2978  142.8619 LP  0  0  0  0  0  0  0  0  0  0  0  0  # atno 17321 bound_to 7965
  140.5213  144.0874  150.6023 LP  0  0  0  0  0  0  0  0  0  0  0  0  # atno 17342 bound_to 10162
  140.3833  143.2791  152.0145 LP  0  0  0  0  0  0  0  0  0  0  0  0  # atno 17343 bound_to 10162
  156.3592  130.7472  151.2442 LP  0  0  0  0  0  0  0  0  0  0  0  0  # atno 17370 bound_to 10713
  157.7489  131.0355  150.4366 LP  0  0  0  0  0  0  0  0  0  0  0  0  # atno 17371 bound_to 10713
  141.0505  133.6891  156.1763 LP  0  0  0  0  0  0  0  0  0  0  0  0  # atno 17394 bound_to 11000
  140.6817  134.4760  157.5589 LP  0  0  0  0  0  0  0  0  0  0  0  0  # atno 17395 bound_to 11000

$$$$
