AV-unprocessed.smi:2095|AV-procd|sdf|8555|dock2
  -GOLD-   2272011273D 1   1.00000     0.00000
 Structure written by MMmdl.
 42 43  0  0  0  0  0  0  0  0  2 V2000
  145.6852  136.0522  151.3449 C   0  0  0  0  0  0  0  0  0  0  0  0
  145.2508  134.8272  152.1688 C   0  0  1  0  0  0  0  0  0  0  0  0
  145.1323  133.5485  151.3168 C   0  0  0  0  0  0  0  0  0  0  0  0
  146.5145  132.9864  150.9517 C   0  0  0  0  0  0  0  0  0  0  0  0
  147.3762  132.7881  152.2082 C   0  0  0  0  0  0  0  0  0  0  0  0
  147.4994  134.0638  152.9643 N   0  3  2  0  0  0  0  0  0  0  0  0
  148.5177  134.0688  154.0551 C   0  0  2  0  0  0  0  0  0  0  0  0
  148.5425  132.7054  154.7744 C   0  0  0  0  0  0  0  0  0  0  0  0
  148.3729  135.2746  155.0194 C   0  0  0  0  0  0  0  0  0  0  0  0
  148.8626  136.5115  154.4186 N   0  0  0  0  0  0  0  0  0  0  0  0
  148.8544  137.7189  155.0068 C   0  0  0  0  0  0  0  0  0  0  0  0
  148.3559  137.9340  156.1109 O   0  0  0  0  0  0  0  0  0  0  0  0
  149.5459  138.8508  154.2472 C   0  0  0  0  0  0  0  0  0  0  0  0
  150.9823  138.7936  154.4455 N   0  0  0  0  0  0  0  0  0  0  0  0
  151.8527  137.7969  154.2721 C   0  0  0  0  0  0  0  0  0  0  0  0
  153.0824  138.1580  154.6043 N   0  0  0  0  0  0  0  0  0  0  0  0
  152.9270  139.4752  155.0021 N   0  0  0  0  0  0  0  0  0  0  0  0
  151.6831  139.8580  154.9107 N   0  0  0  0  0  0  0  0  0  0  0  0
  146.1712  134.5867  153.3837 C   0  0  0  0  0  0  0  0  0  0  0  0
  146.6874  135.9332  150.9331 H   0  0  0  0  0  0  0  0  0  0  0  0
  145.6871  136.9541  151.9578 H   0  0  0  0  0  0  0  0  0  0  0  0
  145.0031  136.2254  150.5121 H   0  0  0  0  0  0  0  0  0  0  0  0
  144.2554  135.0541  152.5529 H   0  0  0  0  0  0  0  0  0  0  0  0
  144.5799  132.7941  151.8788 H   0  0  0  0  0  0  0  0  0  0  0  0
  144.5510  133.7411  150.4143 H   0  0  0  0  0  0  0  0  0  0  0  0
  146.4007  132.0379  150.4262 H   0  0  0  0  0  0  0  0  0  0  0  0
  147.0213  133.6592  150.2592 H   0  0  0  0  0  0  0  0  0  0  0  0
  146.9265  132.0200  152.8385 H   0  0  0  0  0  0  0  0  0  0  0  0
  148.3581  132.4219  151.9108 H   0  0  0  0  0  0  0  0  0  0  0  0
  149.4910  134.1562  153.5698 H   0  0  0  0  0  0  0  0  0  0  0  0
  149.4233  132.6066  155.4097 H   0  0  0  0  0  0  0  0  0  0  0  0
  148.5756  131.8839  154.0584 H   0  0  0  0  0  0  0  0  0  0  0  0
  147.6677  132.5625  155.4085 H   0  0  0  0  0  0  0  0  0  0  0  0
  147.3248  135.4325  155.2720 H   0  0  0  0  0  0  0  0  0  0  0  0
  148.8874  135.0864  155.9626 H   0  0  0  0  0  0  0  0  0  0  0  0
  149.2855  136.4356  153.5045 H   0  0  0  0  0  0  0  0  0  0  0  0
  149.3292  138.7759  153.1808 H   0  0  0  0  0  0  0  0  0  0  0  0
  149.1749  139.8188  154.5876 H   0  0  0  0  0  0  0  0  0  0  0  0
  151.5860  136.8125  153.9170 H   0  0  0  0  0  0  0  0  0  0  0  0
  146.2891  135.5174  153.9399 H   0  0  0  0  0  0  0  0  0  0  0  0
  145.7002  133.8752  154.0632 H   0  0  0  0  0  0  0  0  0  0  0  0
  147.8415  134.7398  152.2961 H   0  0  0  0  0  0  0  0  0  0  0  0
  1  2  1  0  0  0  0
  1 20  1  0  0  0  0
  1 21  1  0  0  0  0
  1 22  1  0  0  0  0
  2 19  1  0  0  0  0
  2  3  1  0  0  0  0
  2 23  1  0  0  0  0
  3  4  1  0  0  0  0
  3 24  1  0  0  0  0
  3 25  1  0  0  0  0
  4  5  1  0  0  0  0
  4 26  1  0  0  0  0
  4 27  1  0  0  0  0
  5  6  1  0  0  0  0
  5 28  1  0  0  0  0
  5 29  1  0  0  0  0
  6  7  1  0  0  0  0
  6 19  1  0  0  0  0
  6 42  1  0  0  0  0
  7  8  1  0  0  0  0
  7  9  1  0  0  0  0
  7 30  1  0  0  0  0
  8 31  1  0  0  0  0
  8 32  1  0  0  0  0
  8 33  1  0  0  0  0
  9 10  1  0  0  0  0
  9 34  1  0  0  0  0
  9 35  1  0  0  0  0
 10 11  1  0  0  0  0
 10 36  1  0  0  0  0
 11 12  2  0  0  0  0
 11 13  1  0  0  0  0
 13 14  1  0  0  0  0
 13 37  1  0  0  0  0
 13 38  1  0  0  0  0
 14 18  1  0  0  0  0
 14 15  1  0  0  0  0
 15 16  2  0  0  0  0
 15 39  1  0  0  0  0
 16 17  1  0  0  0  0
 17 18  2  0  0  0  0
 19 40  1  0  0  0  0
 19 41  1  0  0  0  0
M  CHG  1   6   1
M  END
> <s_m_source_file>
AV-unprocessed.smi

> <i_m_source_file_index>
2095

> <i_lp_mmshare_version>
43012

> <i_f3d_flags>
0

> <s_epik_input>
W0NIM11bQ0BASF0xW0NIMl1bQ0gyXVtDSDJdTihbQ0gyXTEpW0NASF0oW0NIM10pW0NIMl1bTkhdQyg9TylbQ0gyXW4yW2NIXW5ubjI=

> <s_epik_cmdline>
J2VwaWtfcHl0aG9uJywgJy1waCcsICc3LjAnLCAnLXRuJywgJzgnLCAnLW1hJywgJzIwMCcsICctbWV0YWxfYmluZGluZycsICctaW1hZScsICc8aW5maWxlLm1hZT4nLCAnLW9tYWUnLCAnPG91dGZpbGUubWFlPic=

> <r_lp_tautomer_probability>
1

> <r_epik_Ionization_Penalty>
0.00268321

> <r_epik_Ionization_Penalty_Charging>
0.00267875

> <r_epik_Ionization_Penalty_Neutral>
4.46125e-06

> <r_epik_State_Penalty>
0.00186642

> <r_epik_Charging_Adjusted_Penalty>
0.00454517

> <i_epik_Tot_Q>
1

> <i_epik_Tot_abs_Q>
1

> <r_epik_Metal_State_Penalty>
-0

> <b_epik_Metal_Only>
0

> <s_lp_Force_Field>
OPLS_2005

> <r_lp_Energy>
25.1095

> <b_lp_Chiralities_Consistent>
1

> <s_lp_Variant>
AV-unprocessed.smi:2095-2

> <Gold.Version>
5.8.1

> <Gold.Id.Protein>
6NUR|6NUR_protein|mol2

> <Gold.PLP.Fitness>
47.4865

> <Gold.PLP.PLP>
-31.4889

> <Gold.PLP.part.hbond>
-5.7844

> <Gold.PLP.part.metal>
0.0000

> <Gold.PLP.part.buried>
-3.9193

> <Gold.PLP.part.nonpolar>
-23.3188

> <Gold.PLP.part.repulsive>
0.1199

> <Gold.PLP.ligand.clash>
0.0000

> <Gold.PLP.ligand.torsion>
1.0416

> <Gold.PLP.Chemscore.Hbond>
4.9600

> <Gold.PLP.Chemscore.CHOScore>
1.0000

> <Gold.PLP.Chemscore.Metal>
0.0000

> <Gold.Chemscore.Hbonds>
donor molecule, donor type, donor heavy atom, donor atom, acceptor molecule, acceptor atom, score
      L1  H     6    42       P1  7948  2.00
      L1  H    10    36       P1  7948  0.91
      P1  H  7989  7998       L1    18  1.00
      P1  H  7997  8010       L1    17  1.00
      L1  C    15    39       P1  7949  0.84

> <Gold.PLP.Chemscore.Internal.Correction>
0.2009

> <Gold.Rescore>
     Score         DG    S(hbond)    S(metal)    S(lipo)     H(rot)  DE(clash)    DE(int)     intcor
     13.76     -14.78       3.08        0.00      49.27       2.64       0.22       0.80       ----

> <Gold.Chemscore.Fitness>
13.7602

> <Gold.Chemscore.DG>
-14.7792

> <Gold.Chemscore.ZeroCoef>
-5.4800

> <Gold.Chemscore.Hbond>
3.0848

> <Gold.Chemscore.Metal>
0.0000

> <Gold.Chemscore.Lipo>
49.2677

> <Gold.Chemscore.Internal_Hbond>
0.0000

> <Gold.Chemscore.DEClash>
0.2173

> <Gold.Chemscore.DEInternal>
0.8017

> <Gold.Chemscore.Rot>
2.6439

> <Gold.Chemscore.Internal.Correction>
   9.000000E+99

> <Gold.Chemscore.Hbonds>
donor molecule, donor type, donor heavy atom, donor atom, acceptor molecule, acceptor atom, score
      L1  H     6    42       P1  7948  0.62
      L1  H    10    36       P1  7948  0.81
      P1  H  7989  7998       L1    18  0.11
      P1  H  7997  8010       L1    17  0.85

> <Gold.Chemscore.Hbond.Weighted>
-10.3034

> <Gold.Chemscore.Metal.Weighted>
-0.0000

> <Gold.Chemscore.Lipo.Weighted>
-5.7643

> <Gold.Chemscore.Internal_Hbond.Weighted>
0.0000

> <Gold.Chemscore.DEClash.Weighted>
0.2173

> <Gold.Chemscore.DEInternal.Weighted>
0.8017

> <Gold.Chemscore.Rot.Weighted>
6.7685

> <Gold.Chemscore.Internal.Correction.Weighted>
   9.000000E+99

> <Gold.Protein.RotatedTorsions>
[ 6907 6896 6895 6894 ] final  144.25 input  -60.11 | X-H torsion
[ 7974 7965 7964 7962 ] final   64.75 input  175.53 | X-H torsion
[ 8008 7997 7996 7995 ] final  105.66 input   59.86 | X-H torsion
[ 10167 10162 10161 10158 ] final   40.09 input  -65.29 | X-H torsion
[ 10718 10713 10712 10709 ] final  126.14 input   66.30 | X-H torsion
[ 10763 10752 10751 10750 ] final -145.20 input  -60.55 | X-H torsion
[ 11005 11000 10999 10996 ] final -140.17 input  -57.11 | X-H torsion

> <Gold.Protein.ActiveResidues>
 VAL166  LYS551  ARG553  GLY616  TRP617  ASP618  TYR619  PRO620  LYS621  CYS622 
 ASP623  PHE694  ASN695  SER759  ASP760  ASP761  ALA762  ILE779  LEU786  VAL792 
 PHE793  MET794  SER795  GLU796  ALA797  LYS798  CYS799  TRP800  GLU811  SER814 

> <Gold.Protein.RotatedAtoms>
  152.1960  133.4807  159.5032 H   0  0  0  0  0  0  0  0  0  0  0  0  # atno 6907 bound_to 6896
  150.6960  134.1651  159.4200 H   0  0  0  0  0  0  0  0  0  0  0  0  # atno 6908 bound_to 6896
  151.9567  135.0143  160.0596 H   0  0  0  0  0  0  0  0  0  0  0  0  # atno 6909 bound_to 6896
  145.8466  139.3228  143.0900 H   0  0  0  0  0  0  0  0  0  0  0  0  # atno 7974 bound_to 7965
  156.1678  140.3126  155.8920 H   0  0  0  0  0  0  0  0  0  0  0  0  # atno 8008 bound_to 7997
  155.3649  140.0478  157.3063 H   0  0  0  0  0  0  0  0  0  0  0  0  # atno 8009 bound_to 7997
  154.5210  140.2198  155.8986 H   0  0  0  0  0  0  0  0  0  0  0  0  # atno 8010 bound_to 7997
  140.3776  144.2023  150.6131 H   0  0  0  0  0  0  0  0  0  0  0  0  # atno 10167 bound_to 10162
  157.5444  131.1096  150.8806 H   0  0  0  0  0  0  0  0  0  0  0  0  # atno 10718 bound_to 10713
  154.8394  135.3419  154.6467 H   0  0  0  0  0  0  0  0  0  0  0  0  # atno 10763 bound_to 10752
  153.7079  135.6965  153.5050 H   0  0  0  0  0  0  0  0  0  0  0  0  # atno 10764 bound_to 10752
  153.2474  135.4365  155.0715 H   0  0  0  0  0  0  0  0  0  0  0  0  # atno 10765 bound_to 10752
  140.8449  134.2357  157.4791 H   0  0  0  0  0  0  0  0  0  0  0  0  # atno 11005 bound_to 11000
  145.9405  140.8983  143.0310 LP  0  0  0  0  0  0  0  0  0  0  0  0  # atno 17320 bound_to 7965
  144.6731  140.1542  143.7427 LP  0  0  0  0  0  0  0  0  0  0  0  0  # atno 17321 bound_to 7965
  140.4970  143.2329  151.8734 LP  0  0  0  0  0  0  0  0  0  0  0  0  # atno 17342 bound_to 10162
  139.4798  144.5102  151.8943 LP  0  0  0  0  0  0  0  0  0  0  0  0  # atno 17343 bound_to 10162
  156.9349  130.5363  149.5279 LP  0  0  0  0  0  0  0  0  0  0  0  0  # atno 17370 bound_to 10713
  156.0523  130.5590  150.9016 LP  0  0  0  0  0  0  0  0  0  0  0  0  # atno 17371 bound_to 10713
  139.8703  134.9654  156.4528 LP  0  0  0  0  0  0  0  0  0  0  0  0  # atno 17394 bound_to 11000
  140.8854  133.7887  155.9513 LP  0  0  0  0  0  0  0  0  0  0  0  0  # atno 17395 bound_to 11000

$$$$
