AV-unprocessed.smi:302|AV-procd|sdf|2273|dock4
  -GOLD-   2262022163D 1   1.00000     0.00000
 Structure written by MMmdl.
 44 45  0  0  0  0  0  0  0  0  1 V2000
  152.8128  133.5549  165.1070 C   0  0  0  0  0  0  0  0  0  0  0  0
  154.0007  134.4500  164.7475 C   0  0  0  0  0  0  0  0  0  0  0  0
  153.5941  135.3624  163.7342 O   0  0  0  0  0  0  0  0  0  0  0  0
  154.4387  135.4197  162.5867 C   0  0  1  0  0  0  0  0  0  0  0  0
  154.3717  134.0374  161.9056 C   0  0  0  0  0  0  0  0  0  0  0  0
  155.2884  133.8947  160.6808 C   0  0  0  0  0  0  0  0  0  0  0  0
  153.9799  136.5532  161.6521 C   0  0  0  0  0  0  0  0  0  0  0  0
  153.5294  136.2794  160.5400 O   0  0  0  0  0  0  0  0  0  0  0  0
  154.1181  137.8016  162.1358 N   0  0  0  0  0  0  0  0  0  0  0  0
  153.8021  139.0356  161.5061 C   0  0  0  0  0  0  0  0  0  0  0  0
  154.1340  140.3066  162.0327 C   0  0  0  0  0  0  0  0  0  0  0  0
  153.7759  141.4585  161.3067 C   0  0  0  0  0  0  0  0  0  0  0  0
  153.1072  141.3065  160.0748 C   0  0  0  0  0  0  0  0  0  0  0  0
  152.7427  142.4520  159.3536 N   0  0  0  0  0  0  0  0  0  0  0  0
  152.2164  143.5219  160.1918 C   0  0  0  0  0  0  0  0  0  0  0  0
  151.9666  144.7806  159.3431 C   0  0  0  0  0  0  0  0  0  0  0  0
  151.0979  144.4623  158.2593 O   0  0  0  0  0  0  0  0  0  0  0  0
  151.6519  143.4661  157.4040 C   0  0  0  0  0  0  0  0  0  0  0  0
  151.8900  142.1741  158.2044 C   0  0  0  0  0  0  0  0  0  0  0  0
  152.8015  140.0935  159.5566 N   0  0  0  0  0  0  0  0  0  0  0  0
  153.1478  138.9933  160.2576 C   0  0  0  0  0  0  0  0  0  0  0  0
  153.0883  132.8314  165.8746 H   0  0  0  0  0  0  0  0  0  0  0  0
  152.4611  133.0014  164.2362 H   0  0  0  0  0  0  0  0  0  0  0  0
  151.9795  134.1457  165.4882 H   0  0  0  0  0  0  0  0  0  0  0  0
  154.3413  134.9768  165.6395 H   0  0  0  0  0  0  0  0  0  0  0  0
  154.8291  133.8375  164.3890 H   0  0  0  0  0  0  0  0  0  0  0  0
  155.4670  135.5941  162.9100 H   0  0  0  0  0  0  0  0  0  0  0  0
  154.6505  133.2757  162.6343 H   0  0  0  0  0  0  0  0  0  0  0  0
  153.3441  133.8102  161.6178 H   0  0  0  0  0  0  0  0  0  0  0  0
  155.2385  132.8829  160.2783 H   0  0  0  0  0  0  0  0  0  0  0  0
  156.3273  134.0967  160.9422 H   0  0  0  0  0  0  0  0  0  0  0  0
  155.0037  134.5787  159.8810 H   0  0  0  0  0  0  0  0  0  0  0  0
  154.5730  137.8777  163.0342 H   0  0  0  0  0  0  0  0  0  0  0  0
  154.6627  140.4216  162.9658 H   0  0  0  0  0  0  0  0  0  0  0  0
  154.0140  142.4401  161.6899 H   0  0  0  0  0  0  0  0  0  0  0  0
  151.2844  143.2009  160.6598 H   0  0  0  0  0  0  0  0  0  0  0  0
  152.9214  143.7446  160.9938 H   0  0  0  0  0  0  0  0  0  0  0  0
  151.5060  145.5590  159.9511 H   0  0  0  0  0  0  0  0  0  0  0  0
  152.9057  145.1861  158.9633 H   0  0  0  0  0  0  0  0  0  0  0  0
  150.9609  143.2779  156.5823 H   0  0  0  0  0  0  0  0  0  0  0  0
  152.5822  143.8273  156.9620 H   0  0  0  0  0  0  0  0  0  0  0  0
  152.3584  141.4205  157.5700 H   0  0  0  0  0  0  0  0  0  0  0  0
  150.9354  141.7671  158.5407 H   0  0  0  0  0  0  0  0  0  0  0  0
  152.8863  138.0469  159.8073 H   0  0  0  0  0  0  0  0  0  0  0  0
  1  2  1  0  0  0  0
  1 22  1  0  0  0  0
  1 23  1  0  0  0  0
  1 24  1  0  0  0  0
  2  3  1  0  0  0  0
  2 25  1  0  0  0  0
  2 26  1  0  0  0  0
  3  4  1  0  0  0  0
  4  5  1  0  0  0  0
  4  7  1  0  0  0  0
  4 27  1  0  0  0  0
  5  6  1  0  0  0  0
  5 28  1  0  0  0  0
  5 29  1  0  0  0  0
  6 30  1  0  0  0  0
  6 31  1  0  0  0  0
  6 32  1  0  0  0  0
  7  8  2  0  0  0  0
  7  9  1  0  0  0  0
  9 10  1  0  0  0  0
  9 33  1  0  0  0  0
 10 21  1  0  0  0  0
 10 11  2  0  0  0  0
 11 12  1  0  0  0  0
 11 34  1  0  0  0  0
 12 13  2  0  0  0  0
 12 35  1  0  0  0  0
 13 14  1  0  0  0  0
 13 20  1  0  0  0  0
 14 19  1  0  0  0  0
 14 15  1  0  0  0  0
 15 16  1  0  0  0  0
 15 36  1  0  0  0  0
 15 37  1  0  0  0  0
 16 17  1  0  0  0  0
 16 38  1  0  0  0  0
 16 39  1  0  0  0  0
 17 18  1  0  0  0  0
 18 19  1  0  0  0  0
 18 40  1  0  0  0  0
 18 41  1  0  0  0  0
 19 42  1  0  0  0  0
 19 43  1  0  0  0  0
 20 21  2  0  0  0  0
 21 44  1  0  0  0  0
M  END
> <s_m_source_file>
AV-unprocessed.smi

> <i_m_source_file_index>
302

> <i_lp_mmshare_version>
43012

> <i_f3d_flags>
0

> <s_epik_input>
W0NIM11bQ0gyXU9bQ0BIXShbQ0gyXVtDSDNdKUMoPU8pW05IXWMxW2NIXVtjSF1jKG5bY0hdMSlOMltDSDJdW0NIMl1PW0NIMl1bQ0gyXTI=

> <s_epik_cmdline>
J2VwaWtfcHl0aG9uJywgJy1waCcsICc3LjAnLCAnLXRuJywgJzgnLCAnLW1hJywgJzIwMCcsICctbWV0YWxfYmluZGluZycsICctaW1hZScsICc8aW5maWxlLm1hZT4nLCAnLW9tYWUnLCAnPG91dGZpbGUubWFlPic=

> <r_lp_tautomer_probability>
1

> <r_epik_Ionization_Penalty>
0.000497413

> <r_epik_Ionization_Penalty_Charging>
0

> <r_epik_Ionization_Penalty_Neutral>
0.000497413

> <r_epik_State_Penalty>
0.000308489

> <r_epik_Charging_Adjusted_Penalty>
0.000308489

> <i_epik_Tot_Q>
0

> <i_epik_Tot_abs_Q>
0

> <r_epik_Metal_State_Penalty>
-0

> <b_epik_Metal_Only>
0

> <s_lp_Force_Field>
OPLS_2005

> <r_lp_Energy>
26.1218

> <b_lp_Chiralities_Consistent>
1

> <s_lp_Variant>
AV-unprocessed.smi:302-2

> <Gold.Version>
5.8.1

> <Gold.Id.Protein>
6NUR|6NUR_protein|mol2

> <Gold.PLP.Fitness>
40.5823

> <Gold.PLP.PLP>
-38.9978

> <Gold.PLP.part.hbond>
-1.0000

> <Gold.PLP.part.metal>
0.0000

> <Gold.PLP.part.buried>
-6.0744

> <Gold.PLP.part.nonpolar>
-32.8329

> <Gold.PLP.part.repulsive>
0.1948

> <Gold.PLP.ligand.clash>
0.0000

> <Gold.PLP.ligand.torsion>
0.7804

> <Gold.PLP.Chemscore.Hbond>
1.0000

> <Gold.PLP.Chemscore.CHOScore>
0.0000

> <Gold.PLP.Chemscore.Metal>
0.0000

> <Gold.Chemscore.Hbonds>
donor molecule, donor type, donor heavy atom, donor atom, acceptor molecule, acceptor atom, score
      P1  H  6896  6908       L1     8  1.00

> <Gold.PLP.Chemscore.Internal.Correction>
0.1453

> <Gold.Rescore>
     Score         DG    S(hbond)    S(metal)    S(lipo)     H(rot)  DE(clash)    DE(int)     intcor
     15.21     -17.17       1.00        0.00     106.96       1.63       0.02       1.94       ----

> <Gold.Chemscore.Fitness>
15.2072

> <Gold.Chemscore.DG>
-17.1701

> <Gold.Chemscore.ZeroCoef>
-5.4800

> <Gold.Chemscore.Hbond>
0.9996

> <Gold.Chemscore.Metal>
0.0000

> <Gold.Chemscore.Lipo>
106.9569

> <Gold.Chemscore.Internal_Hbond>
0.0000

> <Gold.Chemscore.DEClash>
0.0231

> <Gold.Chemscore.DEInternal>
1.9398

> <Gold.Chemscore.Rot>
1.6260

> <Gold.Chemscore.Internal.Correction>
   9.000000E+99

> <Gold.Chemscore.Hbonds>
donor molecule, donor type, donor heavy atom, donor atom, acceptor molecule, acceptor atom, score
      P1  H  6896  6908       L1     8  0.99

> <Gold.Chemscore.Hbond.Weighted>
-3.3388

> <Gold.Chemscore.Metal.Weighted>
-0.0000

> <Gold.Chemscore.Lipo.Weighted>
-12.5140

> <Gold.Chemscore.Internal_Hbond.Weighted>
0.0000

> <Gold.Chemscore.DEClash.Weighted>
0.0231

> <Gold.Chemscore.DEInternal.Weighted>
1.9398

> <Gold.Chemscore.Rot.Weighted>
4.1626

> <Gold.Chemscore.Internal.Correction.Weighted>
   9.000000E+99

> <Gold.Protein.RotatedTorsions>
[ 6907 6896 6895 6894 ] final  -78.34 input  -60.11 | X-H torsion
[ 7974 7965 7964 7962 ] final  -42.53 input  175.53 | X-H torsion
[ 8008 7997 7996 7995 ] final   83.61 input   59.86 | X-H torsion
[ 10167 10162 10161 10158 ] final   13.30 input  -65.29 | X-H torsion
[ 10718 10713 10712 10709 ] final -164.38 input   66.30 | X-H torsion
[ 10763 10752 10751 10750 ] final   50.88 input  -60.55 | X-H torsion
[ 11005 11000 10999 10996 ] final -105.45 input  -57.11 | X-H torsion

> <Gold.Protein.ActiveResidues>
 VAL166  LYS551  ARG553  GLY616  TRP617  ASP618  TYR619  PRO620  LYS621  CYS622 
 ASP623  PHE694  ASN695  SER759  ASP760  ASP761  ALA762  ILE779  LEU786  VAL792 
 PHE793  MET794  SER795  GLU796  ALA797  LYS798  CYS799  TRP800  GLU811  SER814 

> <Gold.Protein.RotatedAtoms>
  150.6975  134.4287  159.5238 H   0  0  0  0  0  0  0  0  0  0  0  0  # atno 6907 bound_to 6896
  152.2017  134.8579  160.0516 H   0  0  0  0  0  0  0  0  0  0  0  0  # atno 6908 bound_to 6896
  151.9496  133.3627  159.4032 H   0  0  0  0  0  0  0  0  0  0  0  0  # atno 6909 bound_to 6896
  146.0107  140.6967  142.9226 H   0  0  0  0  0  0  0  0  0  0  0  0  # atno 7974 bound_to 7965
  155.9262  140.3418  155.6212 H   0  0  0  0  0  0  0  0  0  0  0  0  # atno 8008 bound_to 7997
  155.7213  140.0784  157.2348 H   0  0  0  0  0  0  0  0  0  0  0  0  # atno 8009 bound_to 7997
  154.4077  140.1605  156.2392 H   0  0  0  0  0  0  0  0  0  0  0  0  # atno 8010 bound_to 7997
  140.6011  143.8602  150.6966 H   0  0  0  0  0  0  0  0  0  0  0  0  # atno 10167 bound_to 10162
  156.6383  130.8958  151.2991 H   0  0  0  0  0  0  0  0  0  0  0  0  # atno 10718 bound_to 10713
  152.9784  135.5864  154.4324 H   0  0  0  0  0  0  0  0  0  0  0  0  # atno 10763 bound_to 10752
  154.3935  135.2768  155.2142 H   0  0  0  0  0  0  0  0  0  0  0  0  # atno 10764 bound_to 10752
  154.4004  135.6105  153.5948 H   0  0  0  0  0  0  0  0  0  0  0  0  # atno 10765 bound_to 10752
  141.1053  133.8809  157.1736 H   0  0  0  0  0  0  0  0  0  0  0  0  # atno 11005 bound_to 11000
  144.6952  140.3393  143.7202 LP  0  0  0  0  0  0  0  0  0  0  0  0  # atno 17320 bound_to 7965
  145.7346  139.1746  143.2410 LP  0  0  0  0  0  0  0  0  0  0  0  0  # atno 17321 bound_to 7965
  140.2148  143.3855  152.1689 LP  0  0  0  0  0  0  0  0  0  0  0  0  # atno 17342 bound_to 10162
  139.5292  144.7139  151.5118 LP  0  0  0  0  0  0  0  0  0  0  0  0  # atno 17343 bound_to 10162
  157.7179  130.9520  150.1324 LP  0  0  0  0  0  0  0  0  0  0  0  0  # atno 17370 bound_to 10713
  156.2180  130.3671  149.8590 LP  0  0  0  0  0  0  0  0  0  0  0  0  # atno 17371 bound_to 10713
  139.9920  135.0061  156.9996 LP  0  0  0  0  0  0  0  0  0  0  0  0  # atno 17394 bound_to 11000
  140.4919  134.1184  155.7234 LP  0  0  0  0  0  0  0  0  0  0  0  0  # atno 17395 bound_to 11000

$$$$
