AV-unprocessed.smi:2465|AV-procd|sdf|9723|dock7
  -GOLD-   2272013363D 1   1.00000     0.00000
 Structure written by MMmdl.
 41 42  0  0  0  0  0  0  0  0  2 V2000
  147.4442  133.2398  152.0138 C   0  0  0  0  0  0  0  0  0  0  0  0
  146.0430  133.5179  151.4968 C   0  0  0  0  0  0  0  0  0  0  0  0
  145.2373  132.4421  151.0617 C   0  0  0  0  0  0  0  0  0  0  0  0
  143.9399  132.6998  150.5796 C   0  0  0  0  0  0  0  0  0  0  0  0
  143.4829  133.9681  150.5339 N   0  3  0  0  0  0  0  0  0  0  0  0
  144.2154  135.0277  150.9386 C   0  0  0  0  0  0  0  0  0  0  0  0
  145.5264  134.8386  151.4461 C   0  0  0  0  0  0  0  0  0  0  0  0
  146.3597  135.9103  151.8801 N   0  0  0  0  0  0  0  0  0  0  0  0
  146.0148  137.0761  152.4546 C   0  0  0  0  0  0  0  0  0  0  0  0
  144.8656  137.4328  152.7122 O   0  0  0  0  0  0  0  0  0  0  0  0
  147.0974  137.8170  152.7314 N   0  0  0  0  0  0  0  0  0  0  0  0
  147.0750  139.1377  153.3500 C   0  0  0  0  0  0  0  0  0  0  0  0
  148.2065  139.3082  154.3766 C   0  0  0  0  0  0  0  0  0  0  0  0
  149.5930  139.0544  153.7623 C   0  0  0  0  0  0  0  0  0  0  0  0
  150.6588  139.2199  154.7471 N   0  0  0  0  0  0  0  0  0  0  0  0
  150.7050  140.3987  155.5961 C   0  0  0  0  0  0  0  0  0  0  0  0
  151.8298  140.1214  156.6039 C   0  0  0  0  0  0  0  0  0  0  0  0
  152.5999  138.9180  156.0493 C   0  0  0  0  0  0  0  0  0  0  0  0
  151.6912  138.3931  154.9507 C   0  0  0  0  0  0  0  0  0  0  0  0
  151.9101  137.3428  154.3487 O   0  0  0  0  0  0  0  0  0  0  0  0
  147.6800  132.1759  151.9736 H   0  0  0  0  0  0  0  0  0  0  0  0
  147.5401  133.5673  153.0495 H   0  0  0  0  0  0  0  0  0  0  0  0
  148.1839  133.7703  151.4136 H   0  0  0  0  0  0  0  0  0  0  0  0
  145.6073  131.4275  151.0943 H   0  0  0  0  0  0  0  0  0  0  0  0
  143.2608  131.9370  150.2272 H   0  0  0  0  0  0  0  0  0  0  0  0
  143.7193  135.9793  150.8262 H   0  0  0  0  0  0  0  0  0  0  0  0
  147.3514  135.7474  151.7849 H   0  0  0  0  0  0  0  0  0  0  0  0
  148.0050  137.4460  152.4908 H   0  0  0  0  0  0  0  0  0  0  0  0
  147.1777  139.8810  152.5587 H   0  0  0  0  0  0  0  0  0  0  0  0
  146.1048  139.3138  153.8178 H   0  0  0  0  0  0  0  0  0  0  0  0
  148.1769  140.3167  154.7914 H   0  0  0  0  0  0  0  0  0  0  0  0
  148.0436  138.6259  155.2120 H   0  0  0  0  0  0  0  0  0  0  0  0
  149.6410  138.0482  153.3431 H   0  0  0  0  0  0  0  0  0  0  0  0
  149.7621  139.7409  152.9315 H   0  0  0  0  0  0  0  0  0  0  0  0
  150.9327  141.2741  154.9862 H   0  0  0  0  0  0  0  0  0  0  0  0
  149.7489  140.5671  156.0935 H   0  0  0  0  0  0  0  0  0  0  0  0
  152.4734  140.9914  156.7386 H   0  0  0  0  0  0  0  0  0  0  0  0
  151.4065  139.8733  157.5781 H   0  0  0  0  0  0  0  0  0  0  0  0
  153.5548  139.2198  155.6178 H   0  0  0  0  0  0  0  0  0  0  0  0
  152.7829  138.1597  156.8111 H   0  0  0  0  0  0  0  0  0  0  0  0
  142.5425  134.1354  150.1750 H   0  0  0  0  0  0  0  0  0  0  0  0
  1  2  1  0  0  0  0
  1 21  1  0  0  0  0
  1 22  1  0  0  0  0
  1 23  1  0  0  0  0
  2  7  1  0  0  0  0
  2  3  2  0  0  0  0
  3  4  1  0  0  0  0
  3 24  1  0  0  0  0
  4  5  2  0  0  0  0
  4 25  1  0  0  0  0
  5  6  1  0  0  0  0
  5 41  1  0  0  0  0
  6  7  2  0  0  0  0
  6 26  1  0  0  0  0
  7  8  1  0  0  0  0
  8  9  1  0  0  0  0
  8 27  1  0  0  0  0
  9 10  2  0  0  0  0
  9 11  1  0  0  0  0
 11 12  1  0  0  0  0
 11 28  1  0  0  0  0
 12 13  1  0  0  0  0
 12 29  1  0  0  0  0
 12 30  1  0  0  0  0
 13 14  1  0  0  0  0
 13 31  1  0  0  0  0
 13 32  1  0  0  0  0
 14 15  1  0  0  0  0
 14 33  1  0  0  0  0
 14 34  1  0  0  0  0
 15 19  1  0  0  0  0
 15 16  1  0  0  0  0
 16 17  1  0  0  0  0
 16 35  1  0  0  0  0
 16 36  1  0  0  0  0
 17 18  1  0  0  0  0
 17 37  1  0  0  0  0
 17 38  1  0  0  0  0
 18 19  1  0  0  0  0
 18 39  1  0  0  0  0
 18 40  1  0  0  0  0
 19 20  2  0  0  0  0
M  CHG  1   5   1
M  END
> <s_m_source_file>
AV-unprocessed.smi

> <i_m_source_file_index>
2465

> <i_lp_mmshare_version>
43012

> <i_f3d_flags>
0

> <s_epik_input>
W0NIM11jMVtjSF1bY0hdbltjSF1jMVtOSF1DKD1PKVtOSF1bQ0gyXVtDSDJdW0NIMl1OMltDSDJdW0NIMl1bQ0gyXUMyPU8=

> <s_epik_cmdline>
J2VwaWtfcHl0aG9uJywgJy1waCcsICc3LjAnLCAnLXRuJywgJzgnLCAnLW1hJywgJzIwMCcsICctbWV0YWxfYmluZGluZycsICctaW1hZScsICc8aW5maWxlLm1hZT4nLCAnLW9tYWUnLCAnPG91dGZpbGUubWFlPic=

> <r_epik_Ionization_Penalty>
1.98477

> <r_epik_Ionization_Penalty_Charging>
1.98474

> <r_epik_Ionization_Penalty_Neutral>
2.19328e-05

> <r_epik_State_Penalty>
2.1123

> <r_epik_Charging_Adjusted_Penalty>
4.09705

> <i_epik_Tot_Q>
1

> <i_epik_Tot_abs_Q>
1

> <r_epik_Metal_State_Penalty>
2.13405

> <b_epik_Metal_Only>
0

> <s_lp_Force_Field>
OPLS_2005

> <r_lp_Energy>
26.0932

> <b_lp_Chiralities_Consistent>
1

> <s_lp_Variant>
AV-unprocessed.smi:2465-2

> <Gold.Version>
5.8.1

> <Gold.Id.Protein>
6NUR|6NUR_protein|mol2

> <Gold.PLP.Fitness>
51.9409

> <Gold.PLP.PLP>
-37.9218

> <Gold.PLP.part.hbond>
-4.0000

> <Gold.PLP.part.metal>
0.0000

> <Gold.PLP.part.buried>
-1.5159

> <Gold.PLP.part.nonpolar>
-33.3843

> <Gold.PLP.part.repulsive>
0.5890

> <Gold.PLP.ligand.clash>
0.0000

> <Gold.PLP.ligand.torsion>
0.4879

> <Gold.PLP.Chemscore.Hbond>
4.9760

> <Gold.PLP.Chemscore.CHOScore>
0.0000

> <Gold.PLP.Chemscore.Metal>
0.0000

> <Gold.Chemscore.Hbonds>
donor molecule, donor type, donor heavy atom, donor atom, acceptor molecule, acceptor atom, score
      L1  H     5    41       P1 10186  2.00
      L1  H     8    27       P1  7948  1.00
      L1  H    11    28       P1  7948  1.00
      P1  H 10752 10763       L1    20  0.96

> <Gold.PLP.Chemscore.Internal.Correction>
0.0668

> <Gold.Rescore>
     Score         DG    S(hbond)    S(metal)    S(lipo)     H(rot)  DE(clash)    DE(int)     intcor
     21.68     -22.55       3.91        0.00      73.32       1.78       0.27       0.60       ----

> <Gold.Chemscore.Fitness>
21.6817

> <Gold.Chemscore.DG>
-22.5472

> <Gold.Chemscore.ZeroCoef>
-5.4800

> <Gold.Chemscore.Hbond>
3.9091

> <Gold.Chemscore.Metal>
0.0000

> <Gold.Chemscore.Lipo>
73.3176

> <Gold.Chemscore.Internal_Hbond>
0.0000

> <Gold.Chemscore.DEClash>
0.2704

> <Gold.Chemscore.DEInternal>
0.5952

> <Gold.Chemscore.Rot>
1.7841

> <Gold.Chemscore.Internal.Correction>
   9.000000E+99

> <Gold.Chemscore.Hbonds>
donor molecule, donor type, donor heavy atom, donor atom, acceptor molecule, acceptor atom, score
      L1  H     5    41       P1 10186  0.94
      L1  H     8    27       P1  7948  0.97
      L1  H    11    28       P1  7948  0.95
      P1  H 10752 10763       L1    20  0.91

> <Gold.Chemscore.Hbond.Weighted>
-13.0564

> <Gold.Chemscore.Metal.Weighted>
-0.0000

> <Gold.Chemscore.Lipo.Weighted>
-8.5782

> <Gold.Chemscore.Internal_Hbond.Weighted>
0.0000

> <Gold.Chemscore.DEClash.Weighted>
0.2704

> <Gold.Chemscore.DEInternal.Weighted>
0.5952

> <Gold.Chemscore.Rot.Weighted>
4.5673

> <Gold.Chemscore.Internal.Correction.Weighted>
   9.000000E+99

> <Gold.Protein.RotatedTorsions>
[ 6907 6896 6895 6894 ] final  -79.70 input  -60.11 | X-H torsion
[ 7974 7965 7964 7962 ] final  -32.19 input  175.53 | X-H torsion
[ 8008 7997 7996 7995 ] final  145.04 input   59.86 | X-H torsion
[ 10167 10162 10161 10158 ] final   89.78 input  -65.29 | X-H torsion
[ 10718 10713 10712 10709 ] final  -68.67 input   66.30 | X-H torsion
[ 10763 10752 10751 10750 ] final   43.32 input  -60.55 | X-H torsion
[ 11005 11000 10999 10996 ] final   83.62 input  -57.11 | X-H torsion

> <Gold.Protein.ActiveResidues>
 VAL166  LYS551  ARG553  GLY616  TRP617  ASP618  TYR619  PRO620  LYS621  CYS622 
 ASP623  PHE694  ASN695  SER759  ASP760  ASP761  ALA762  ILE779  LEU786  VAL792 
 PHE793  MET794  SER795  GLU796  ALA797  LYS798  CYS799  TRP800  GLU811  SER814 

> <Gold.Protein.RotatedAtoms>
  150.6944  134.4082  159.5149 H   0  0  0  0  0  0  0  0  0  0  0  0  # atno 6907 bound_to 6896
  152.1845  134.8723  160.0532 H   0  0  0  0  0  0  0  0  0  0  0  0  # atno 6908 bound_to 6896
  151.9701  133.3688  159.4105 H   0  0  0  0  0  0  0  0  0  0  0  0  # atno 6909 bound_to 6896
  146.1009  140.5762  142.8821 H   0  0  0  0  0  0  0  0  0  0  0  0  # atno 7974 bound_to 7965
  156.2893  140.2219  156.5151 H   0  0  0  0  0  0  0  0  0  0  0  0  # atno 8008 bound_to 7997
  154.7575  140.0476  157.0968 H   0  0  0  0  0  0  0  0  0  0  0  0  # atno 8009 bound_to 7997
  155.0032  140.3104  155.4862 H   0  0  0  0  0  0  0  0  0  0  0  0  # atno 8010 bound_to 7997
  139.8538  144.6579  150.9138 H   0  0  0  0  0  0  0  0  0  0  0  0  # atno 10167 bound_to 10162
  156.0493  130.4299  150.2035 H   0  0  0  0  0  0  0  0  0  0  0  0  # atno 10718 bound_to 10713
  152.9863  135.6105  154.3093 H   0  0  0  0  0  0  0  0  0  0  0  0  # atno 10763 bound_to 10752
  154.2809  135.2777  155.2699 H   0  0  0  0  0  0  0  0  0  0  0  0  # atno 10764 bound_to 10752
  154.5039  135.5859  153.6608 H   0  0  0  0  0  0  0  0  0  0  0  0  # atno 10765 bound_to 10752
  139.9025  134.8158  156.2334 H   0  0  0  0  0  0  0  0  0  0  0  0  # atno 11005 bound_to 11000
  144.7432  140.4998  143.6854 LP  0  0  0  0  0  0  0  0  0  0  0  0  # atno 17320 bound_to 7965
  145.5856  139.1492  143.3211 LP  0  0  0  0  0  0  0  0  0  0  0  0  # atno 17321 bound_to 7965
  140.7784  143.3803  151.1488 LP  0  0  0  0  0  0  0  0  0  0  0  0  # atno 17342 bound_to 10162
  139.7439  143.8882  152.3058 LP  0  0  0  0  0  0  0  0  0  0  0  0  # atno 17343 bound_to 10162
  157.0121  130.9954  151.3363 LP  0  0  0  0  0  0  0  0  0  0  0  0  # atno 17370 bound_to 10713
  157.5403  130.8115  149.8021 LP  0  0  0  0  0  0  0  0  0  0  0  0  # atno 17371 bound_to 10713
  141.0331  133.6978  156.1464 LP  0  0  0  0  0  0  0  0  0  0  0  0  # atno 17394 bound_to 11000
  140.7067  134.4505  157.5584 LP  0  0  0  0  0  0  0  0  0  0  0  0  # atno 17395 bound_to 11000

$$$$
