AV-unprocessed.smi:868|AV-procd|sdf|4002|dock1
  -GOLD-   22720 1483D 1   1.00000     0.00000
 Structure written by MMmdl.
 47 49  0  0  0  0  0  0  0  0  1 V2000
  146.9409  134.9961  162.0420 C   0  0  0  0  0  0  0  0  0  0  0  0
  147.2567  135.2028  160.5515 C   0  0  0  0  0  0  0  0  0  0  0  0
  147.2439  133.8563  159.8121 C   0  0  0  0  0  0  0  0  0  0  0  0
  148.5978  135.9418  160.3007 C   0  0  0  0  0  0  0  0  0  0  0  0
  148.8741  136.4505  158.8681 C   0  0  0  0  0  0  0  0  0  0  0  0
  150.2145  137.2261  158.8207 C   0  0  0  0  0  0  0  0  0  0  0  0
  150.9594  137.2696  159.8004 O   0  0  0  0  0  0  0  0  0  0  0  0
  150.4981  137.8537  157.6678 N   0  0  0  0  0  0  0  0  0  0  0  0
  151.6663  138.6932  157.4349 C   0  0  0  0  0  0  0  0  0  0  0  0
  151.5911  139.9921  158.2531 C   0  0  0  0  0  0  0  0  0  0  0  0
  152.9097  140.3682  158.8527 C   0  0  0  0  0  0  0  0  0  0  0  0
  154.0499  139.7163  158.5939 N   0  0  0  0  0  0  0  0  0  0  0  0
  155.0324  140.3974  159.2836 N   0  0  0  0  0  0  0  0  0  0  0  0
  154.3884  141.3979  159.8828 C   0  0  0  0  0  0  0  0  0  0  0  0
  153.0629  141.4298  159.6714 N   0  0  0  0  0  0  0  0  0  0  0  0
  152.0880  142.4062  160.1286 C   0  0  0  0  0  0  0  0  0  0  0  0
  152.3685  143.8347  159.7176 C   0  0  0  0  0  0  0  0  0  0  0  0
  152.6218  143.3928  161.1414 C   0  0  0  0  0  0  0  0  0  0  0  0
  148.7055  135.4379  157.7040 C   0  0  0  0  0  0  0  0  0  0  0  0
  147.9403  136.4840  156.8950 C   0  0  0  0  0  0  0  0  0  0  0  0
  147.7485  137.2702  158.1916 C   0  0  0  0  0  0  0  0  0  0  0  0
  147.7493  134.4698  162.5505 H   0  0  0  0  0  0  0  0  0  0  0  0
  146.0307  134.4098  162.1716 H   0  0  0  0  0  0  0  0  0  0  0  0
  146.7798  135.9443  162.5532 H   0  0  0  0  0  0  0  0  0  0  0  0
  146.4456  135.7935  160.1253 H   0  0  0  0  0  0  0  0  0  0  0  0
  148.0216  133.1902  160.1874 H   0  0  0  0  0  0  0  0  0  0  0  0
  147.4086  133.9921  158.7429 H   0  0  0  0  0  0  0  0  0  0  0  0
  146.2857  133.3499  159.9324 H   0  0  0  0  0  0  0  0  0  0  0  0
  148.6486  136.7869  160.9884 H   0  0  0  0  0  0  0  0  0  0  0  0
  149.4158  135.2900  160.6111 H   0  0  0  0  0  0  0  0  0  0  0  0
  149.8397  137.7656  156.9073 H   0  0  0  0  0  0  0  0  0  0  0  0
  152.5801  138.1438  157.6679 H   0  0  0  0  0  0  0  0  0  0  0  0
  151.7060  138.9265  156.3707 H   0  0  0  0  0  0  0  0  0  0  0  0
  151.2254  140.8090  157.6313 H   0  0  0  0  0  0  0  0  0  0  0  0
  150.8672  139.8820  159.0617 H   0  0  0  0  0  0  0  0  0  0  0  0
  154.9006  142.1304  160.4892 H   0  0  0  0  0  0  0  0  0  0  0  0
  151.0719  142.0225  160.1942 H   0  0  0  0  0  0  0  0  0  0  0  0
  153.2417  144.0441  159.1026 H   0  0  0  0  0  0  0  0  0  0  0  0
  151.5118  144.4817  159.5412 H   0  0  0  0  0  0  0  0  0  0  0  0
  151.9337  143.7475  161.9059 H   0  0  0  0  0  0  0  0  0  0  0  0
  153.6587  143.2950  161.4583 H   0  0  0  0  0  0  0  0  0  0  0  0
  149.6160  135.0895  157.2158 H   0  0  0  0  0  0  0  0  0  0  0  0
  148.0766  134.5895  157.9779 H   0  0  0  0  0  0  0  0  0  0  0  0
  148.5720  137.0054  156.1744 H   0  0  0  0  0  0  0  0  0  0  0  0
  147.0176  136.1222  156.4408 H   0  0  0  0  0  0  0  0  0  0  0  0
  146.7720  137.0933  158.6453 H   0  0  0  0  0  0  0  0  0  0  0  0
  147.9323  138.3401  158.0827 H   0  0  0  0  0  0  0  0  0  0  0  0
  1  2  1  0  0  0  0
  1 22  1  0  0  0  0
  1 23  1  0  0  0  0
  1 24  1  0  0  0  0
  2  3  1  0  0  0  0
  2  4  1  0  0  0  0
  2 25  1  0  0  0  0
  3 26  1  0  0  0  0
  3 27  1  0  0  0  0
  3 28  1  0  0  0  0
  4  5  1  0  0  0  0
  4 29  1  0  0  0  0
  4 30  1  0  0  0  0
  5 21  1  0  0  0  0
  5  6  1  0  0  0  0
  5 19  1  0  0  0  0
  6  7  2  0  0  0  0
  6  8  1  0  0  0  0
  8  9  1  0  0  0  0
  8 31  1  0  0  0  0
  9 10  1  0  0  0  0
  9 32  1  0  0  0  0
  9 33  1  0  0  0  0
 10 11  1  0  0  0  0
 10 34  1  0  0  0  0
 10 35  1  0  0  0  0
 11 15  1  0  0  0  0
 11 12  2  0  0  0  0
 12 13  1  0  0  0  0
 13 14  2  0  0  0  0
 14 15  1  0  0  0  0
 14 36  1  0  0  0  0
 15 16  1  0  0  0  0
 16 18  1  0  0  0  0
 16 17  1  0  0  0  0
 16 37  1  0  0  0  0
 17 18  1  0  0  0  0
 17 38  1  0  0  0  0
 17 39  1  0  0  0  0
 18 40  1  0  0  0  0
 18 41  1  0  0  0  0
 19 20  1  0  0  0  0
 19 42  1  0  0  0  0
 19 43  1  0  0  0  0
 20 21  1  0  0  0  0
 20 44  1  0  0  0  0
 20 45  1  0  0  0  0
 21 46  1  0  0  0  0
 21 47  1  0  0  0  0
M  END
> <s_m_source_file>
AV-unprocessed.smi

> <i_m_source_file_index>
868

> <i_lp_mmshare_version>
43012

> <i_f3d_flags>
0

> <s_epik_input>
W0NIM11bQ0hdKFtDSDNdKVtDSDJdQzEoW0NIMl1bQ0gyXVtDSDJdMSlDKD1PKVtOSF1bQ0gyXVtDSDJdYzJubltjSF1uMltDSF0zW0NIMl1bQ0gyXTM=

> <s_epik_cmdline>
J2VwaWtfcHl0aG9uJywgJy1waCcsICc3LjAnLCAnLXRuJywgJzgnLCAnLW1hJywgJzIwMCcsICctbWV0YWxfYmluZGluZycsICctaW1hZScsICc8aW5maWxlLm1hZT4nLCAnLW9tYWUnLCAnPG91dGZpbGUubWFlPic=

> <r_lp_tautomer_probability>
1

> <r_epik_Ionization_Penalty>
0.000232087

> <r_epik_Ionization_Penalty_Charging>
0

> <r_epik_Ionization_Penalty_Neutral>
0.000232087

> <r_epik_State_Penalty>
-0

> <r_epik_Charging_Adjusted_Penalty>
0

> <i_epik_Tot_Q>
0

> <i_epik_Tot_abs_Q>
0

> <r_epik_Metal_State_Penalty>
-0

> <b_epik_Metal_Only>
0

> <s_lp_Force_Field>
OPLS_2005

> <r_lp_Energy>
30.4352

> <b_lp_Chiralities_Consistent>
1

> <s_lp_Variant>
AV-unprocessed.smi:868-1

> <Gold.Version>
5.8.1

> <Gold.Id.Protein>
6NUR|6NUR_protein|mol2

> <Gold.PLP.Fitness>
41.6176

> <Gold.PLP.PLP>
-36.7345

> <Gold.PLP.part.hbond>
-3.0667

> <Gold.PLP.part.metal>
0.0000

> <Gold.PLP.part.buried>
-4.8474

> <Gold.PLP.part.nonpolar>
-29.6088

> <Gold.PLP.part.repulsive>
0.0535

> <Gold.PLP.ligand.clash>
0.0000

> <Gold.PLP.ligand.torsion>
0.8547

> <Gold.PLP.Chemscore.Hbond>
1.8695

> <Gold.PLP.Chemscore.CHOScore>
0.0000

> <Gold.PLP.Chemscore.Metal>
0.0000

> <Gold.Chemscore.Hbonds>
donor molecule, donor type, donor heavy atom, donor atom, acceptor molecule, acceptor atom, score
      P1  H  6896  6907       L1     7  0.63
      P1  H  7997  8008       L1    12  0.75

> <Gold.PLP.Chemscore.Internal.Correction>
0.9840

> <Gold.Rescore>
     Score         DG    S(hbond)    S(metal)    S(lipo)     H(rot)  DE(clash)    DE(int)     intcor
     11.17     -13.26       1.63        0.00      67.31       2.17       0.13       1.96       ----

> <Gold.Chemscore.Fitness>
11.1730

> <Gold.Chemscore.DG>
-13.2573

> <Gold.Chemscore.ZeroCoef>
-5.4800

> <Gold.Chemscore.Hbond>
1.6313

> <Gold.Chemscore.Metal>
0.0000

> <Gold.Chemscore.Lipo>
67.3052

> <Gold.Chemscore.Internal_Hbond>
0.0000

> <Gold.Chemscore.DEClash>
0.1251

> <Gold.Chemscore.DEInternal>
1.9592

> <Gold.Chemscore.Rot>
2.1664

> <Gold.Chemscore.Internal.Correction>
   9.000000E+99

> <Gold.Chemscore.Hbonds>
donor molecule, donor type, donor heavy atom, donor atom, acceptor molecule, acceptor atom, score
      P1  H  6896  6907       L1     7  0.14
      P1  H  7997  8008       L1    12  0.08

> <Gold.Chemscore.Hbond.Weighted>
-5.4487

> <Gold.Chemscore.Metal.Weighted>
-0.0000

> <Gold.Chemscore.Lipo.Weighted>
-7.8747

> <Gold.Chemscore.Internal_Hbond.Weighted>
0.0000

> <Gold.Chemscore.DEClash.Weighted>
0.1251

> <Gold.Chemscore.DEInternal.Weighted>
1.9592

> <Gold.Chemscore.Rot.Weighted>
5.5461

> <Gold.Chemscore.Internal.Correction.Weighted>
   9.000000E+99

> <Gold.Protein.RotatedTorsions>
[ 6907 6896 6895 6894 ] final   -6.45 input  -60.11 | X-H torsion
[ 7974 7965 7964 7962 ] final  -29.97 input  175.53 | X-H torsion
[ 8008 7997 7996 7995 ] final  -89.57 input   59.86 | X-H torsion
[ 10167 10162 10161 10158 ] final  -12.70 input  -65.29 | X-H torsion
[ 10718 10713 10712 10709 ] final  128.33 input   66.30 | X-H torsion
[ 10763 10752 10751 10750 ] final -128.39 input  -60.55 | X-H torsion
[ 11005 11000 10999 10996 ] final -110.26 input  -57.11 | X-H torsion

> <Gold.Protein.ActiveResidues>
 VAL166  LYS551  ARG553  GLY616  TRP617  ASP618  TYR619  PRO620  LYS621  CYS622 
 ASP623  PHE694  ASN695  SER759  ASP760  ASP761  ALA762  ILE779  LEU786  VAL792 
 PHE793  MET794  SER795  GLU796  ALA797  LYS798  CYS799  TRP800  GLU811  SER814 

> <Gold.Protein.RotatedAtoms>
  151.4654  135.1041  159.9736 H   0  0  0  0  0  0  0  0  0  0  0  0  # atno 6907 bound_to 6896
  152.4837  133.8314  159.7116 H   0  0  0  0  0  0  0  0  0  0  0  0  # atno 6908 bound_to 6896
  150.8929  133.7159  159.2926 H   0  0  0  0  0  0  0  0  0  0  0  0  # atno 6909 bound_to 6896
  146.1178  140.5480  142.8749 H   0  0  0  0  0  0  0  0  0  0  0  0  # atno 7974 bound_to 7965
  154.6882  140.0540  157.0336 H   0  0  0  0  0  0  0  0  0  0  0  0  # atno 8008 bound_to 7997
  155.0854  140.3214  155.4570 H   0  0  0  0  0  0  0  0  0  0  0  0  # atno 8009 bound_to 7997
  156.2719  140.2057  156.5982 H   0  0  0  0  0  0  0  0  0  0  0  0  # atno 8010 bound_to 7997
  140.7167  143.5505  150.9307 H   0  0  0  0  0  0  0  0  0  0  0  0  # atno 10167 bound_to 10162
  157.5254  131.1098  150.9091 H   0  0  0  0  0  0  0  0  0  0  0  0  # atno 10718 bound_to 10713
  154.8756  135.3930  154.3750 H   0  0  0  0  0  0  0  0  0  0  0  0  # atno 10763 bound_to 10752
  153.4504  135.7028  153.6117 H   0  0  0  0  0  0  0  0  0  0  0  0  # atno 10764 bound_to 10752
  153.4659  135.3801  155.2333 H   0  0  0  0  0  0  0  0  0  0  0  0  # atno 10765 bound_to 10752
  141.0802  133.9233  157.2305 H   0  0  0  0  0  0  0  0  0  0  0  0  # atno 11005 bound_to 11000
  144.7568  140.5328  143.6763 LP  0  0  0  0  0  0  0  0  0  0  0  0  # atno 17320 bound_to 7965
  145.5531  139.1477  143.3383 LP  0  0  0  0  0  0  0  0  0  0  0  0  # atno 17321 bound_to 7965
  139.9229  143.6584  152.3093 LP  0  0  0  0  0  0  0  0  0  0  0  0  # atno 17342 bound_to 10162
  139.7008  144.7635  151.1277 LP  0  0  0  0  0  0  0  0  0  0  0  0  # atno 17343 bound_to 10162
  156.9689  130.5483  149.5289 LP  0  0  0  0  0  0  0  0  0  0  0  0  # atno 17370 bound_to 10713
  156.0383  130.5468  150.8708 LP  0  0  0  0  0  0  0  0  0  0  0  0  # atno 17371 bound_to 10713
  139.9615  135.0153  156.9274 LP  0  0  0  0  0  0  0  0  0  0  0  0  # atno 17394 bound_to 11000
  140.5486  134.0650  155.7362 LP  0  0  0  0  0  0  0  0  0  0  0  0  # atno 17395 bound_to 11000

$$$$
