AV-unprocessed.smi:290|AV-procd|sdf|2233|dock2
  -GOLD-   2262022 93D 1   1.00000     0.00000
 Structure written by MMmdl.
 59 62  0  0  0  0  0  0  0  0  2 V2000
  149.2654  139.9935  153.5257 C   0  0  0  0  0  0  0  0  0  0  0  0
  149.9421  139.6710  154.8681 C   0  0  2  0  0  0  0  0  0  0  0  0
  150.8508  140.7211  155.1847 O   0  0  0  0  0  0  0  0  0  0  0  0
  151.8919  140.1919  155.9851 C   0  0  0  0  0  0  0  0  0  0  0  0
  152.1612  138.8510  155.3187 C   0  0  0  0  0  0  0  0  0  0  0  0
  150.7659  138.3525  154.9371 C   0  0  2  0  0  0  0  0  0  0  0  0
  150.8618  137.7151  153.6748 O   0  0  0  0  0  0  0  0  0  0  0  0
  150.1734  137.2894  155.9061 C   0  0  0  0  0  0  0  0  0  0  0  0
  149.0570  136.5135  155.3803 N   0  0  0  0  0  0  0  0  0  0  0  0
  147.7934  136.9754  155.0815 C   0  0  0  0  0  0  0  0  0  0  0  0
  146.9650  136.0800  154.6171 N   0  0  0  0  0  0  0  0  0  0  0  0
  147.7214  134.9160  154.5688 C   0  0  0  0  0  0  0  0  0  0  0  0
  147.4594  133.5770  154.1631 C   0  0  0  0  0  0  0  0  0  0  0  0
  146.2723  133.1330  153.6960 N   0  0  0  0  0  0  0  0  0  0  0  0
  145.2184  134.1353  153.6398 C   0  0  0  0  0  0  0  0  0  0  0  0
  144.6632  134.0913  152.2212 C   0  0  0  0  0  0  0  0  0  0  0  0
  144.9868  132.6752  151.7246 C   0  0  1  0  0  0  0  0  0  0  0  0
  145.0034  132.6269  150.2300 N   0  3  1  0  0  0  0  0  0  0  0  0
  145.9588  131.6593  149.6391 C   0  0  0  0  0  0  0  0  0  0  0  0
  143.6431  132.4708  149.6463 C   0  0  0  0  0  0  0  0  0  0  0  0
  143.6642  132.5506  148.1111 C   0  0  0  0  0  0  0  0  0  0  0  0
  143.6605  133.9009  147.6967 O   0  0  0  0  0  0  0  0  0  0  0  0
  146.3385  132.4043  152.4303 C   0  0  2  0  0  0  0  0  0  0  0  0
  146.6427  130.9193  152.7179 C   0  0  0  0  0  0  0  0  0  0  0  0
  148.4698  132.6779  154.2384 N   0  0  0  0  0  0  0  0  0  0  0  0
  149.6701  133.0607  154.6837 C   0  0  0  0  0  0  0  0  0  0  0  0
  150.0609  134.2683  155.0970 N   0  0  0  0  0  0  0  0  0  0  0  0
  149.0428  135.1738  155.0286 C   0  0  0  0  0  0  0  0  0  0  0  0
  144.2402  131.9765  152.1073 H   0  0  0  0  0  0  0  0  0  0  0  0
  147.1435  132.8225  151.8242 H   0  0  0  0  0  0  0  0  0  0  0  0
  148.5547  139.2157  153.2456 H   0  0  0  0  0  0  0  0  0  0  0  0
  149.9966  140.0911  152.7226 H   0  0  0  0  0  0  0  0  0  0  0  0
  148.7176  140.9339  153.5860 H   0  0  0  0  0  0  0  0  0  0  0  0
  149.1731  139.6762  155.6373 H   0  0  0  0  0  0  0  0  0  0  0  0
  152.7660  140.8429  155.9901 H   0  0  0  0  0  0  0  0  0  0  0  0
  151.5472  140.0700  157.0126 H   0  0  0  0  0  0  0  0  0  0  0  0
  152.7596  139.0331  154.4242 H   0  0  0  0  0  0  0  0  0  0  0  0
  152.7275  138.1620  155.9425 H   0  0  0  0  0  0  0  0  0  0  0  0
  151.5091  137.0289  153.7331 H   0  0  0  0  0  0  0  0  0  0  0  0
  150.9548  136.5922  156.2128 H   0  0  0  0  0  0  0  0  0  0  0  0
  149.8312  137.7747  156.8216 H   0  0  0  0  0  0  0  0  0  0  0  0
  147.4991  138.0058  155.2196 H   0  0  0  0  0  0  0  0  0  0  0  0
  144.4464  133.8495  154.3550 H   0  0  0  0  0  0  0  0  0  0  0  0
  145.5554  135.1381  153.9069 H   0  0  0  0  0  0  0  0  0  0  0  0
  143.6006  134.3330  152.1969 H   0  0  0  0  0  0  0  0  0  0  0  0
  145.1863  134.8296  151.6108 H   0  0  0  0  0  0  0  0  0  0  0  0
  145.7562  130.6463  149.9889 H   0  0  0  0  0  0  0  0  0  0  0  0
  146.9881  131.9228  149.8803 H   0  0  0  0  0  0  0  0  0  0  0  0
  145.8924  131.6517  148.5517 H   0  0  0  0  0  0  0  0  0  0  0  0
  143.2188  131.5184  149.9680 H   0  0  0  0  0  0  0  0  0  0  0  0
  142.9576  133.2318  150.0186 H   0  0  0  0  0  0  0  0  0  0  0  0
  144.5299  132.0416  147.6881 H   0  0  0  0  0  0  0  0  0  0  0  0
  142.7790  132.0643  147.7002 H   0  0  0  0  0  0  0  0  0  0  0  0
  144.5331  134.1364  147.4187 H   0  0  0  0  0  0  0  0  0  0  0  0
  146.7323  130.3177  151.8170 H   0  0  0  0  0  0  0  0  0  0  0  0
  145.8624  130.4717  153.3342 H   0  0  0  0  0  0  0  0  0  0  0  0
  147.5843  130.8127  153.2572 H   0  0  0  0  0  0  0  0  0  0  0  0
  150.4252  132.2889  154.7146 H   0  0  0  0  0  0  0  0  0  0  0  0
  145.3223  133.5408  149.9400 H   0  0  0  0  0  0  0  0  0  0  0  0
  1  2  1  0  0  0  0
  1 31  1  0  0  0  0
  1 32  1  0  0  0  0
  1 33  1  0  0  0  0
  2  6  1  0  0  0  0
  2  3  1  0  0  0  0
  2 34  1  0  0  0  0
  3  4  1  0  0  0  0
  4  5  1  0  0  0  0
  4 35  1  0  0  0  0
  4 36  1  0  0  0  0
  5  6  1  0  0  0  0
  5 37  1  0  0  0  0
  5 38  1  0  0  0  0
  6  7  1  0  0  0  0
  6  8  1  0  0  0  0
  7 39  1  0  0  0  0
  8  9  1  0  0  0  0
  8 40  1  0  0  0  0
  8 41  1  0  0  0  0
  9 28  1  0  0  0  0
  9 10  1  0  0  0  0
 10 11  2  0  0  0  0
 10 42  1  0  0  0  0
 11 12  1  0  0  0  0
 12 28  2  0  0  0  0
 12 13  1  0  0  0  0
 13 14  1  0  0  0  0
 13 25  2  0  0  0  0
 14 23  1  0  0  0  0
 14 15  1  0  0  0  0
 15 16  1  0  0  0  0
 15 43  1  0  0  0  0
 15 44  1  0  0  0  0
 16 17  1  0  0  0  0
 16 45  1  0  0  0  0
 16 46  1  0  0  0  0
 17 29  1  0  0  0  0
 17 18  1  0  0  0  0
 17 23  1  0  0  0  0
 18 19  1  0  0  0  0
 18 20  1  0  0  0  0
 18 59  1  0  0  0  0
 19 47  1  0  0  0  0
 19 48  1  0  0  0  0
 19 49  1  0  0  0  0
 20 21  1  0  0  0  0
 20 50  1  0  0  0  0
 20 51  1  0  0  0  0
 21 22  1  0  0  0  0
 21 52  1  0  0  0  0
 21 53  1  0  0  0  0
 22 54  1  0  0  0  0
 23 30  1  0  0  0  0
 23 24  1  0  0  0  0
 24 55  1  0  0  0  0
 24 56  1  0  0  0  0
 24 57  1  0  0  0  0
 25 26  1  0  0  0  0
 26 27  2  0  0  0  0
 26 58  1  0  0  0  0
 27 28  1  0  0  0  0
M  CHG  1  18   1
M  END
> <s_m_source_file>
AV-unprocessed.smi

> <i_m_source_file_index>
290

> <i_lp_mmshare_version>
43012

> <i_f3d_flags>
0

> <s_epik_input>
W0NIMl0xW0NIMl1PW0NAQEhdKFtDSDNdKVtDQEBdMShbT0hdKVtDSDJdbihbY0hdbjIpYyhjMjMpbltjSF1uYzNONFtDSDJdW0NIMl1bQ0BIXShbQ0BIXTRbQ0gzXSlOKFtDSDNdKVtDSDJdW0NIMl1bT0hd

> <s_epik_cmdline>
J2VwaWtfcHl0aG9uJywgJy1waCcsICc3LjAnLCAnLXRuJywgJzgnLCAnLW1hJywgJzIwMCcsICctbWV0YWxfYmluZGluZycsICctaW1hZScsICc8aW5maWxlLm1hZT4nLCAnLW9tYWUnLCAnPG91dGZpbGUubWFlPic=

> <r_lp_tautomer_probability>
1

> <r_epik_Ionization_Penalty>
0.0036983

> <r_epik_Ionization_Penalty_Charging>
0.0032725

> <r_epik_Ionization_Penalty_Neutral>
0.000425798

> <r_epik_State_Penalty>
-0

> <r_epik_Charging_Adjusted_Penalty>
0.0032725

> <i_epik_Tot_Q>
1

> <i_epik_Tot_abs_Q>
1

> <r_epik_Metal_State_Penalty>
-0

> <b_epik_Metal_Only>
0

> <s_lp_Force_Field>
OPLS_2005

> <r_lp_Energy>
66.0364

> <b_lp_Chiralities_Consistent>
1

> <s_lp_Variant>
AV-unprocessed.smi:290-19

> <Gold.Version>
5.8.1

> <Gold.Id.Protein>
6NUR|6NUR_protein|mol2

> <Gold.PLP.Fitness>
51.0311

> <Gold.PLP.PLP>
-44.6281

> <Gold.PLP.part.hbond>
-6.9619

> <Gold.PLP.part.metal>
0.0000

> <Gold.PLP.part.buried>
-1.3649

> <Gold.PLP.part.nonpolar>
-36.7097

> <Gold.PLP.part.repulsive>
0.5120

> <Gold.PLP.ligand.clash>
0.0000

> <Gold.PLP.ligand.torsion>
1.0828

> <Gold.PLP.Chemscore.Hbond>
2.7344

> <Gold.PLP.Chemscore.CHOScore>
0.0000

> <Gold.PLP.Chemscore.Metal>
0.0000

> <Gold.Chemscore.Hbonds>
donor molecule, donor type, donor heavy atom, donor atom, acceptor molecule, acceptor atom, score
      L1  H    22    54       P1  7921  1.00
      P1  H  7989  7998       L1     3  0.79
      P1  H 10192 10197       L1    22  0.73

> <Gold.PLP.Chemscore.Internal.Correction>
0.3654

> <Gold.Rescore>
     Score         DG    S(hbond)    S(metal)    S(lipo)     H(rot)  DE(clash)    DE(int)     intcor
     10.65     -14.22       1.96        0.00      98.82       3.67       0.03       3.54       ----

> <Gold.Chemscore.Fitness>
10.6523

> <Gold.Chemscore.DG>
-14.2190

> <Gold.Chemscore.ZeroCoef>
-5.4800

> <Gold.Chemscore.Hbond>
1.9645

> <Gold.Chemscore.Metal>
0.0000

> <Gold.Chemscore.Lipo>
98.8199

> <Gold.Chemscore.Internal_Hbond>
0.0000

> <Gold.Chemscore.DEClash>
0.0252

> <Gold.Chemscore.DEInternal>
3.5415

> <Gold.Chemscore.Rot>
3.6658

> <Gold.Chemscore.Internal.Correction>
   9.000000E+99

> <Gold.Chemscore.Hbonds>
donor molecule, donor type, donor heavy atom, donor atom, acceptor molecule, acceptor atom, score
      L1  H    22    54       P1  7921  0.99
      P1  H  7989  7998       L1     3  0.07
      P1  H 10192 10197       L1    22  0.71

> <Gold.Chemscore.Hbond.Weighted>
-6.5615

> <Gold.Chemscore.Metal.Weighted>
-0.0000

> <Gold.Chemscore.Lipo.Weighted>
-11.5619

> <Gold.Chemscore.Internal_Hbond.Weighted>
0.0000

> <Gold.Chemscore.DEClash.Weighted>
0.0252

> <Gold.Chemscore.DEInternal.Weighted>
3.5415

> <Gold.Chemscore.Rot.Weighted>
9.3844

> <Gold.Chemscore.Internal.Correction.Weighted>
   9.000000E+99

> <Gold.Protein.RotatedTorsions>
[ 6907 6896 6895 6894 ] final  112.86 input  -60.11 | X-H torsion
[ 7974 7965 7964 7962 ] final    9.45 input  175.53 | X-H torsion
[ 8008 7997 7996 7995 ] final   29.15 input   59.86 | X-H torsion
[ 10167 10162 10161 10158 ] final  155.97 input  -65.29 | X-H torsion
[ 10718 10713 10712 10709 ] final  178.22 input   66.30 | X-H torsion
[ 10763 10752 10751 10750 ] final   59.58 input  -60.55 | X-H torsion
[ 11005 11000 10999 10996 ] final   61.08 input  -57.11 | X-H torsion

> <Gold.Protein.ActiveResidues>
 VAL166  LYS551  ARG553  GLY616  TRP617  ASP618  TYR619  PRO620  LYS621  CYS622 
 ASP623  PHE694  ASN695  SER759  ASP760  ASP761  ALA762  ILE779  LEU786  VAL792 
 PHE793  MET794  SER795  GLU796  ALA797  LYS798  CYS799  TRP800  GLU811  SER814 

> <Gold.Protein.RotatedAtoms>
  152.4893  133.8456  159.7175 H   0  0  0  0  0  0  0  0  0  0  0  0  # atno 6907 bound_to 6896
  150.9008  133.7112  159.2886 H   0  0  0  0  0  0  0  0  0  0  0  0  # atno 6908 bound_to 6896
  151.4554  135.1037  159.9762 H   0  0  0  0  0  0  0  0  0  0  0  0  # atno 6909 bound_to 6896
  146.2403  139.9782  142.8439 H   0  0  0  0  0  0  0  0  0  0  0  0  # atno 7974 bound_to 7965
  155.0699  140.3199  155.4634 H   0  0  0  0  0  0  0  0  0  0  0  0  # atno 8008 bound_to 7997
  156.2793  140.2113  156.5772 H   0  0  0  0  0  0  0  0  0  0  0  0  # atno 8009 bound_to 7997
  154.7063  140.0502  157.0494 H   0  0  0  0  0  0  0  0  0  0  0  0  # atno 8010 bound_to 7997
  139.4821  144.5051  151.8110 H   0  0  0  0  0  0  0  0  0  0  0  0  # atno 10167 bound_to 10162
  156.8938  130.9856  151.3045 H   0  0  0  0  0  0  0  0  0  0  0  0  # atno 10718 bound_to 10713
  152.9898  135.5566  154.5736 H   0  0  0  0  0  0  0  0  0  0  0  0  # atno 10763 bound_to 10752
  154.5131  135.2803  155.1328 H   0  0  0  0  0  0  0  0  0  0  0  0  # atno 10764 bound_to 10752
  154.2711  135.6363  153.5363 H   0  0  0  0  0  0  0  0  0  0  0  0  # atno 10765 bound_to 10752
  140.0186  134.6187  155.9672 H   0  0  0  0  0  0  0  0  0  0  0  0  # atno 11005 bound_to 11000
  145.1617  140.9676  143.4373 LP  0  0  0  0  0  0  0  0  0  0  0  0  # atno 17320 bound_to 7965
  145.0110  139.3510  143.6120 LP  0  0  0  0  0  0  0  0  0  0  0  0  # atno 17321 bound_to 7965
  140.4548  144.1805  150.5900 LP  0  0  0  0  0  0  0  0  0  0  0  0  # atno 17342 bound_to 10162
  140.4547  143.2472  151.9301 LP  0  0  0  0  0  0  0  0  0  0  0  0  # atno 17343 bound_to 10162
  157.6068  130.8553  149.8887 LP  0  0  0  0  0  0  0  0  0  0  0  0  # atno 17370 bound_to 10713
  156.0616  130.3699  150.0970 LP  0  0  0  0  0  0  0  0  0  0  0  0  # atno 17371 bound_to 10713
  141.1759  133.6540  156.4828 LP  0  0  0  0  0  0  0  0  0  0  0  0  # atno 17394 bound_to 11000
  140.4426  134.7001  157.5000 LP  0  0  0  0  0  0  0  0  0  0  0  0  # atno 17395 bound_to 11000

$$$$
