AV-unprocessed.smi:1695|AV-procd|sdf|6798|dock7
  -GOLD-   22720 7563D 1   1.00000     0.00000
 Structure written by MMmdl.
 50 52  0  0  0  0  0  0  0  0  1 V2000
  153.6995  141.9883  161.5441 C   0  0  0  0  0  0  0  0  0  0  0  0
  152.9395  141.9432  160.2302 C   0  0  0  0  0  0  0  0  0  0  0  0
  153.1430  140.8517  159.3560 C   0  0  0  0  0  0  0  0  0  0  0  0
  152.4573  140.7726  158.1241 C   0  0  0  0  0  0  0  0  0  0  0  0
  152.5025  139.8098  157.1302 N   0  0  0  0  0  0  0  0  0  0  0  0
  151.6435  140.3018  156.2417 C   0  0  0  0  0  0  0  0  0  0  0  0
  151.0462  141.4707  156.5438 N   0  0  0  0  0  0  0  0  0  0  0  0
  150.0790  142.1960  155.7398 C   0  0  0  0  0  0  0  0  0  0  0  0
  148.7742  141.4046  155.5313 C   0  0  1  0  0  0  0  0  0  0  0  0
  147.7148  142.3120  155.2968 O   0  0  0  0  0  0  0  0  0  0  0  0
  148.8793  140.4531  154.3226 C   0  0  0  0  0  0  0  0  0  0  0  0
  147.6268  139.8208  153.9010 N   0  0  0  0  0  0  0  0  0  0  0  0
  147.1343  138.8446  154.8788 C   0  0  0  0  0  0  0  0  0  0  0  0
  145.7981  138.2084  154.4588 C   0  0  0  0  0  0  0  0  0  0  0  0
  145.9270  137.5297  153.0807 C   0  0  0  0  0  0  0  0  0  0  0  0
  144.5812  136.9636  152.6079 C   0  0  0  0  0  0  0  0  0  0  0  0
  143.5882  137.8355  152.4147 N   0  0  0  0  0  0  0  0  0  0  0  0
  144.4367  135.7572  152.4182 O   0  0  0  0  0  0  0  0  0  0  0  0
  146.4917  138.5492  152.0721 C   0  0  0  0  0  0  0  0  0  0  0  0
  147.7962  139.1677  152.6025 C   0  0  0  0  0  0  0  0  0  0  0  0
  151.5554  141.8241  157.7882 C   0  0  0  0  0  0  0  0  0  0  0  0
  151.3446  142.9156  158.6491 C   0  0  0  0  0  0  0  0  0  0  0  0
  152.0379  142.9790  159.8761 C   0  0  0  0  0  0  0  0  0  0  0  0
  151.8031  144.1613  160.7995 C   0  0  0  0  0  0  0  0  0  0  0  0
  154.3026  141.0913  161.6865 H   0  0  0  0  0  0  0  0  0  0  0  0
  153.0093  142.0622  162.3845 H   0  0  0  0  0  0  0  0  0  0  0  0
  154.3680  142.8490  161.5673 H   0  0  0  0  0  0  0  0  0  0  0  0
  153.8305  140.0634  159.6249 H   0  0  0  0  0  0  0  0  0  0  0  0
  151.4368  139.7840  155.3164 H   0  0  0  0  0  0  0  0  0  0  0  0
  149.8738  143.1552  156.2176 H   0  0  0  0  0  0  0  0  0  0  0  0
  150.5413  142.4198  154.7775 H   0  0  0  0  0  0  0  0  0  0  0  0
  148.5592  140.8529  156.4451 H   0  0  0  0  0  0  0  0  0  0  0  0
  148.0318  143.1869  155.4635 H   0  0  0  0  0  0  0  0  0  0  0  0
  149.2980  141.0190  153.4889 H   0  0  0  0  0  0  0  0  0  0  0  0
  149.6106  139.6736  154.5426 H   0  0  0  0  0  0  0  0  0  0  0  0
  147.8793  138.0612  155.0271 H   0  0  0  0  0  0  0  0  0  0  0  0
  146.9880  139.3167  155.8486 H   0  0  0  0  0  0  0  0  0  0  0  0
  145.4857  137.4809  155.2092 H   0  0  0  0  0  0  0  0  0  0  0  0
  145.0264  138.9797  154.4340 H   0  0  0  0  0  0  0  0  0  0  0  0
  146.6396  136.7074  153.1700 H   0  0  0  0  0  0  0  0  0  0  0  0
  142.6837  137.5109  152.1052 H   0  0  0  0  0  0  0  0  0  0  0  0
  143.7463  138.8191  152.5809 H   0  0  0  0  0  0  0  0  0  0  0  0
  146.6790  138.0659  151.1127 H   0  0  0  0  0  0  0  0  0  0  0  0
  145.7672  139.3434  151.8841 H   0  0  0  0  0  0  0  0  0  0  0  0
  148.1588  139.8926  151.8727 H   0  0  0  0  0  0  0  0  0  0  0  0
  148.5623  138.3943  152.6744 H   0  0  0  0  0  0  0  0  0  0  0  0
  150.6551  143.6970  158.3659 H   0  0  0  0  0  0  0  0  0  0  0  0
  151.1144  144.8812  160.3567 H   0  0  0  0  0  0  0  0  0  0  0  0
  152.7400  144.6789  161.0062 H   0  0  0  0  0  0  0  0  0  0  0  0
  151.3753  143.8268  161.7449 H   0  0  0  0  0  0  0  0  0  0  0  0
  1  2  1  0  0  0  0
  1 25  1  0  0  0  0
  1 26  1  0  0  0  0
  1 27  1  0  0  0  0
  2 23  1  0  0  0  0
  2  3  2  0  0  0  0
  3  4  1  0  0  0  0
  3 28  1  0  0  0  0
  4 21  2  0  0  0  0
  4  5  1  0  0  0  0
  5  6  2  0  0  0  0
  6  7  1  0  0  0  0
  6 29  1  0  0  0  0
  7  8  1  0  0  0  0
  7 21  1  0  0  0  0
  8  9  1  0  0  0  0
  8 30  1  0  0  0  0
  8 31  1  0  0  0  0
  9 10  1  0  0  0  0
  9 11  1  0  0  0  0
  9 32  1  0  0  0  0
 10 33  1  0  0  0  0
 11 12  1  0  0  0  0
 11 34  1  0  0  0  0
 11 35  1  0  0  0  0
 12 20  1  0  0  0  0
 12 13  1  0  0  0  0
 13 14  1  0  0  0  0
 13 36  1  0  0  0  0
 13 37  1  0  0  0  0
 14 15  1  0  0  0  0
 14 38  1  0  0  0  0
 14 39  1  0  0  0  0
 15 16  1  0  0  0  0
 15 19  1  0  0  0  0
 15 40  1  0  0  0  0
 16 17  1  0  0  0  0
 16 18  2  0  0  0  0
 17 41  1  0  0  0  0
 17 42  1  0  0  0  0
 19 20  1  0  0  0  0
 19 43  1  0  0  0  0
 19 44  1  0  0  0  0
 20 45  1  0  0  0  0
 20 46  1  0  0  0  0
 21 22  1  0  0  0  0
 22 23  2  0  0  0  0
 22 47  1  0  0  0  0
 23 24  1  0  0  0  0
 24 48  1  0  0  0  0
 24 49  1  0  0  0  0
 24 50  1  0  0  0  0
M  END
> <s_m_source_file>
AV-unprocessed.smi

> <i_m_source_file_index>
1695

> <i_lp_mmshare_version>
43012

> <i_f3d_flags>
0

> <s_epik_input>
W0NIM11jKFtjSF0xKWMoW0NIM10pW2NIXWMoYzEyKW4oW2NIXW4yKVtDSDJdW0NASF0oW09IXSlbQ0gyXU4zW0NIMl1bQ0gyXVtDSF0oQyg9TylbTkgyXSlbQ0gyXVtDSDJdMw==

> <s_epik_cmdline>
J2VwaWtfcHl0aG9uJywgJy1waCcsICc3LjAnLCAnLXRuJywgJzgnLCAnLW1hJywgJzIwMCcsICctbWV0YWxfYmluZGluZycsICctaW1hZScsICc8aW5maWxlLm1hZT4nLCAnLW9tYWUnLCAnPG91dGZpbGUubWFlPic=

> <r_epik_Ionization_Penalty>
1.9508

> <r_epik_Ionization_Penalty_Charging>
0

> <r_epik_Ionization_Penalty_Neutral>
1.9508

> <r_epik_State_Penalty>
2.03746

> <r_epik_Charging_Adjusted_Penalty>
2.03746

> <i_epik_Tot_Q>
0

> <i_epik_Tot_abs_Q>
0

> <r_epik_Metal_State_Penalty>
2.03012

> <b_epik_Metal_Only>
0

> <s_lp_Force_Field>
OPLS_2005

> <r_lp_Energy>
30.7191

> <b_lp_Chiralities_Consistent>
1

> <s_lp_Variant>
AV-unprocessed.smi:1695-10

> <Gold.Version>
5.8.1

> <Gold.Id.Protein>
6NUR|6NUR_protein|mol2

> <Gold.PLP.Fitness>
50.8224

> <Gold.PLP.PLP>
-42.6241

> <Gold.PLP.part.hbond>
-4.0000

> <Gold.PLP.part.metal>
0.0000

> <Gold.PLP.part.buried>
1.7658

> <Gold.PLP.part.nonpolar>
-40.2963

> <Gold.PLP.part.repulsive>
0.3127

> <Gold.PLP.ligand.clash>
0.0000

> <Gold.PLP.ligand.torsion>
0.4121

> <Gold.PLP.Chemscore.Hbond>
3.0000

> <Gold.PLP.Chemscore.CHOScore>
0.0000

> <Gold.PLP.Chemscore.Metal>
0.0000

> <Gold.Chemscore.Hbonds>
donor molecule, donor type, donor heavy atom, donor atom, acceptor molecule, acceptor atom, score
      L1  H    10    33       P1  8028  1.00
      L1  H    17    42       P1 10175  1.00
      P1  H  7997  8008       L1     5  1.00

> <Gold.PLP.Chemscore.Internal.Correction>
0.0225

> <Gold.Rescore>
     Score         DG    S(hbond)    S(metal)    S(lipo)     H(rot)  DE(clash)    DE(int)     intcor
     16.51     -19.66       2.03        0.00     124.25       2.78       2.75       0.40       ----

> <Gold.Chemscore.Fitness>
16.5108

> <Gold.Chemscore.DG>
-19.6648

> <Gold.Chemscore.ZeroCoef>
-5.4800

> <Gold.Chemscore.Hbond>
2.0290

> <Gold.Chemscore.Metal>
0.0000

> <Gold.Chemscore.Lipo>
124.2516

> <Gold.Chemscore.Internal_Hbond>
0.0000

> <Gold.Chemscore.DEClash>
2.7527

> <Gold.Chemscore.DEInternal>
0.4013

> <Gold.Chemscore.Rot>
2.7849

> <Gold.Chemscore.Internal.Correction>
   9.000000E+99

> <Gold.Chemscore.Hbonds>
donor molecule, donor type, donor heavy atom, donor atom, acceptor molecule, acceptor atom, score
      L1  H    10    33       P1  8028  0.78
      L1  H    17    42       P1 10175  0.99
      P1  H  7997  8008       L1     5  0.15

> <Gold.Chemscore.Hbond.Weighted>
-6.7768

> <Gold.Chemscore.Metal.Weighted>
-0.0000

> <Gold.Chemscore.Lipo.Weighted>
-14.5374

> <Gold.Chemscore.Internal_Hbond.Weighted>
0.0000

> <Gold.Chemscore.DEClash.Weighted>
2.7527

> <Gold.Chemscore.DEInternal.Weighted>
0.4013

> <Gold.Chemscore.Rot.Weighted>
7.1294

> <Gold.Chemscore.Internal.Correction.Weighted>
   9.000000E+99

> <Gold.Protein.RotatedTorsions>
[ 6907 6896 6895 6894 ] final   78.55 input  -60.11 | X-H torsion
[ 7974 7965 7964 7962 ] final  178.03 input  175.53 | X-H torsion
[ 8008 7997 7996 7995 ] final  -42.02 input   59.86 | X-H torsion
[ 10167 10162 10161 10158 ] final   53.89 input  -65.29 | X-H torsion
[ 10718 10713 10712 10709 ] final  163.47 input   66.30 | X-H torsion
[ 10763 10752 10751 10750 ] final  -12.03 input  -60.55 | X-H torsion
[ 11005 11000 10999 10996 ] final  138.51 input  -57.11 | X-H torsion

> <Gold.Protein.ActiveResidues>
 VAL166  LYS551  ARG553  GLY616  TRP617  ASP618  TYR619  PRO620  LYS621  CYS622 
 ASP623  PHE694  ASN695  SER759  ASP760  ASP761  ALA762  ILE779  LEU786  VAL792 
 PHE793  MET794  SER795  GLU796  ALA797  LYS798  CYS799  TRP800  GLU811  SER814 

> <Gold.Protein.RotatedAtoms>
  152.5164  134.3647  159.9296 H   0  0  0  0  0  0  0  0  0  0  0  0  # atno 6907 bound_to 6896
  151.3600  133.3887  159.2696 H   0  0  0  0  0  0  0  0  0  0  0  0  # atno 6908 bound_to 6896
  150.9660  134.9059  159.7817 H   0  0  0  0  0  0  0  0  0  0  0  0  # atno 6909 bound_to 6896
  144.7161  140.0336  143.6438 H   0  0  0  0  0  0  0  0  0  0  0  0  # atno 7974 bound_to 7965
  154.4001  140.1484  156.3287 H   0  0  0  0  0  0  0  0  0  0  0  0  # atno 8008 bound_to 7997
  155.8463  140.3460  155.5643 H   0  0  0  0  0  0  0  0  0  0  0  0  # atno 8009 bound_to 7997
  155.8032  140.0873  157.1936 H   0  0  0  0  0  0  0  0  0  0  0  0  # atno 8010 bound_to 7997
  140.2359  144.3636  150.6397 H   0  0  0  0  0  0  0  0  0  0  0  0  # atno 10167 bound_to 10162
  157.1080  131.0460  151.2469 H   0  0  0  0  0  0  0  0  0  0  0  0  # atno 10718 bound_to 10713
  153.4925  135.7017  153.5876 H   0  0  0  0  0  0  0  0  0  0  0  0  # atno 10763 bound_to 10752
  153.4043  135.3864  155.2008 H   0  0  0  0  0  0  0  0  0  0  0  0  # atno 10764 bound_to 10752
  154.8716  135.3889  154.4387 H   0  0  0  0  0  0  0  0  0  0  0  0  # atno 10765 bound_to 10752
  140.0189  134.9406  157.0432 H   0  0  0  0  0  0  0  0  0  0  0  0  # atno 11005 bound_to 11000
  146.0082  139.3147  143.0886 LP  0  0  0  0  0  0  0  0  0  0  0  0  # atno 17320 bound_to 7965
  145.8713  140.9418  143.0649 LP  0  0  0  0  0  0  0  0  0  0  0  0  # atno 17321 bound_to 7965
  140.6150  143.2172  151.6810 LP  0  0  0  0  0  0  0  0  0  0  0  0  # atno 17342 bound_to 10162
  139.5094  144.3579  152.0590 LP  0  0  0  0  0  0  0  0  0  0  0  0  # atno 17343 bound_to 10162
  157.4583  130.7638  149.7213 LP  0  0  0  0  0  0  0  0  0  0  0  0  # atno 17370 bound_to 10713
  155.9857  130.3981  150.3248 LP  0  0  0  0  0  0  0  0  0  0  0  0  # atno 17371 bound_to 10713
  140.4423  134.1669  155.7175 LP  0  0  0  0  0  0  0  0  0  0  0  0  # atno 17394 bound_to 11000
  141.1761  133.8512  157.1417 LP  0  0  0  0  0  0  0  0  0  0  0  0  # atno 17395 bound_to 11000

$$$$
