AV-unprocessed.smi:713|AV-procd|sdf|3478|dock8
  -GOLD-   22720 0473D 1   1.00000     0.00000
 Structure written by MMmdl.
 41 42  0  0  0  0  0  0  0  0  1 V2000
  149.9270  137.7168  155.7433 C   0  0  0  0  0  0  0  0  0  0  0  0
  150.4559  138.8637  154.8581 C   0  0  2  0  0  0  0  0  0  0  0  0
  151.5781  139.6581  155.5435 C   0  0  0  0  0  0  0  0  0  0  0  0
  152.6719  139.7980  154.9949 O   0  0  0  0  0  0  0  0  0  0  0  0
  151.2915  140.1734  156.7498 N   0  0  0  0  0  0  0  0  0  0  0  0
  152.2100  140.9499  157.5769 C   0  0  2  0  0  0  0  0  0  0  0  0
  152.7407  140.0680  158.7220 C   0  0  0  0  0  0  0  0  0  0  0  0
  153.6694  140.8594  159.6556 C   0  0  0  0  0  0  0  0  0  0  0  0
  152.9706  142.1121  160.2058 C   0  0  0  0  0  0  0  0  0  0  0  0
  152.4465  143.0068  159.0682 C   0  0  2  0  0  0  0  0  0  0  0  0
  151.5824  144.4819  159.7766 S   0  0  0  0  0  0  0  0  0  0  0  0
  152.0969  144.4442  161.5441 C   0  0  0  0  0  0  0  0  0  0  0  0
  152.1479  145.6951  159.1666 O   0  0  0  0  0  0  0  0  0  0  0  0
  150.1324  144.2443  159.7098 O   0  0  0  0  0  0  0  0  0  0  0  0
  151.5146  142.2098  158.1342 C   0  0  0  0  0  0  0  0  0  0  0  0
  149.3963  139.7657  154.4205 N   0  0  0  0  0  0  0  0  0  0  0  0
  148.3329  139.4816  153.5877 C   0  0  0  0  0  0  0  0  0  0  0  0
  147.6222  140.6351  153.4188 C   0  0  0  0  0  0  0  0  0  0  0  0
  148.3440  141.5914  154.1850 C   0  0  0  0  0  0  0  0  0  0  0  0
  149.4082  141.0725  154.7743 N   0  0  0  0  0  0  0  0  0  0  0  0
  150.7269  137.0232  156.0047 H   0  0  0  0  0  0  0  0  0  0  0  0
  149.1588  137.1464  155.2205 H   0  0  0  0  0  0  0  0  0  0  0  0
  149.4907  138.0810  156.6743 H   0  0  0  0  0  0  0  0  0  0  0  0
  150.8742  138.4056  153.9600 H   0  0  0  0  0  0  0  0  0  0  0  0
  150.3686  140.0111  157.1257 H   0  0  0  0  0  0  0  0  0  0  0  0
  153.0590  141.2571  156.9629 H   0  0  0  0  0  0  0  0  0  0  0  0
  151.9055  139.6685  159.2996 H   0  0  0  0  0  0  0  0  0  0  0  0
  153.2750  139.2079  158.3159 H   0  0  0  0  0  0  0  0  0  0  0  0
  153.9965  140.2248  160.4799 H   0  0  0  0  0  0  0  0  0  0  0  0
  154.5703  141.1512  159.1144 H   0  0  0  0  0  0  0  0  0  0  0  0
  152.1426  141.8145  160.8506 H   0  0  0  0  0  0  0  0  0  0  0  0
  153.6645  142.6719  160.8333 H   0  0  0  0  0  0  0  0  0  0  0  0
  153.2955  143.3815  158.4953 H   0  0  0  0  0  0  0  0  0  0  0  0
  151.5672  145.2257  162.0882 H   0  0  0  0  0  0  0  0  0  0  0  0
  153.1686  144.6206  161.6260 H   0  0  0  0  0  0  0  0  0  0  0  0
  151.8507  143.4747  161.9769 H   0  0  0  0  0  0  0  0  0  0  0  0
  151.1879  142.8419  157.3094 H   0  0  0  0  0  0  0  0  0  0  0  0
  150.6136  141.9186  158.6758 H   0  0  0  0  0  0  0  0  0  0  0  0
  148.1713  138.4912  153.1882 H   0  0  0  0  0  0  0  0  0  0  0  0
  146.7264  140.7759  152.8325 H   0  0  0  0  0  0  0  0  0  0  0  0
  148.1311  142.6410  154.3257 H   0  0  0  0  0  0  0  0  0  0  0  0
  1  2  1  0  0  0  0
  1 21  1  0  0  0  0
  1 22  1  0  0  0  0
  1 23  1  0  0  0  0
  2  3  1  0  0  0  0
  2 16  1  0  0  0  0
  2 24  1  0  0  0  0
  3  4  2  0  0  0  0
  3  5  1  0  0  0  0
  5  6  1  0  0  0  0
  5 25  1  0  0  0  0
  6 15  1  0  0  0  0
  6  7  1  0  0  0  0
  6 26  1  0  0  0  0
  7  8  1  0  0  0  0
  7 27  1  0  0  0  0
  7 28  1  0  0  0  0
  8  9  1  0  0  0  0
  8 29  1  0  0  0  0
  8 30  1  0  0  0  0
  9 10  1  0  0  0  0
  9 31  1  0  0  0  0
  9 32  1  0  0  0  0
 10 11  1  0  0  0  0
 10 15  1  0  0  0  0
 10 33  1  0  0  0  0
 11 12  1  0  0  0  0
 11 13  2  0  0  0  0
 11 14  2  0  0  0  0
 12 34  1  0  0  0  0
 12 35  1  0  0  0  0
 12 36  1  0  0  0  0
 15 37  1  0  0  0  0
 15 38  1  0  0  0  0
 16 20  1  0  0  0  0
 16 17  1  0  0  0  0
 17 18  2  0  0  0  0
 17 39  1  0  0  0  0
 18 19  1  0  0  0  0
 18 40  1  0  0  0  0
 19 20  2  0  0  0  0
 19 41  1  0  0  0  0
M  END
> <s_m_source_file>
AV-unprocessed.smi

> <i_m_source_file_index>
713

> <i_lp_mmshare_version>
43012

> <i_f3d_flags>
0

> <s_epik_input>
bjFbY0hdW2NIXVtjSF1uMVtDQEhdKFtDSDNdKUMoPU8pW05IXVtDQEBIXTJbQ0gyXVtDSDJdW0NIMl1bQ0BIXShbQ0gyXTIpUyg9TykoPU8pW0NIM10=

> <s_epik_cmdline>
J2VwaWtfcHl0aG9uJywgJy1waCcsICc3LjAnLCAnLXRuJywgJzgnLCAnLW1hJywgJzIwMCcsICctbWV0YWxfYmluZGluZycsICctaW1hZScsICc8aW5maWxlLm1hZT4nLCAnLW9tYWUnLCAnPG91dGZpbGUubWFlPic=

> <r_lp_tautomer_probability>
1

> <r_epik_Ionization_Penalty>
4.07816e-05

> <r_epik_Ionization_Penalty_Charging>
0

> <r_epik_Ionization_Penalty_Neutral>
4.07816e-05

> <r_epik_State_Penalty>
-0

> <r_epik_Charging_Adjusted_Penalty>
0

> <i_epik_Tot_Q>
0

> <i_epik_Tot_abs_Q>
0

> <r_epik_Metal_State_Penalty>
-0

> <b_epik_Metal_Only>
0

> <s_lp_Force_Field>
OPLS_2005

> <r_lp_Energy>
7.47495

> <b_lp_Chiralities_Consistent>
1

> <s_lp_Variant>
AV-unprocessed.smi:713-5

> <Gold.Version>
5.8.1

> <Gold.Id.Protein>
6NUR|6NUR_protein|mol2

> <Gold.PLP.Fitness>
46.3182

> <Gold.PLP.PLP>
-40.0354

> <Gold.PLP.part.hbond>
-2.8344

> <Gold.PLP.part.metal>
0.0000

> <Gold.PLP.part.buried>
-1.3896

> <Gold.PLP.part.nonpolar>
-35.4467

> <Gold.PLP.part.repulsive>
0.4946

> <Gold.PLP.ligand.clash>
0.0000

> <Gold.PLP.ligand.torsion>
0.9850

> <Gold.PLP.Chemscore.Hbond>
1.2446

> <Gold.PLP.Chemscore.CHOScore>
1.4276

> <Gold.PLP.Chemscore.Metal>
0.0000

> <Gold.Chemscore.Hbonds>
donor molecule, donor type, donor heavy atom, donor atom, acceptor molecule, acceptor atom, score
      P1  H  7989  7998       L1     4  0.19
      P1  H  7997  8009       L1     4  0.99
      L1  C    17    39       P1  7948  0.54
      L1  C    19    41       P1  8028  0.95

> <Gold.PLP.Chemscore.Internal.Correction>
0.2361

> <Gold.Rescore>
     Score         DG    S(hbond)    S(metal)    S(lipo)     H(rot)  DE(clash)    DE(int)     intcor
     13.07     -15.15       0.92        0.00      94.21       1.72       0.06       2.01       ----

> <Gold.Chemscore.Fitness>
13.0750

> <Gold.Chemscore.DG>
-15.1478

> <Gold.Chemscore.ZeroCoef>
-5.4800

> <Gold.Chemscore.Hbond>
0.9164

> <Gold.Chemscore.Metal>
0.0000

> <Gold.Chemscore.Lipo>
94.2130

> <Gold.Chemscore.Internal_Hbond>
0.0000

> <Gold.Chemscore.DEClash>
0.0603

> <Gold.Chemscore.DEInternal>
2.0126

> <Gold.Chemscore.Rot>
1.7249

> <Gold.Chemscore.Internal.Correction>
   9.000000E+99

> <Gold.Chemscore.Hbonds>
donor molecule, donor type, donor heavy atom, donor atom, acceptor molecule, acceptor atom, score
      P1  H  7997  8009       L1     4  0.93

> <Gold.Chemscore.Hbond.Weighted>
-3.0607

> <Gold.Chemscore.Metal.Weighted>
-0.0000

> <Gold.Chemscore.Lipo.Weighted>
-11.0229

> <Gold.Chemscore.Internal_Hbond.Weighted>
0.0000

> <Gold.Chemscore.DEClash.Weighted>
0.0603

> <Gold.Chemscore.DEInternal.Weighted>
2.0126

> <Gold.Chemscore.Rot.Weighted>
4.4157

> <Gold.Chemscore.Internal.Correction.Weighted>
   9.000000E+99

> <Gold.Protein.RotatedTorsions>
[ 6907 6896 6895 6894 ] final   13.95 input  -60.11 | X-H torsion
[ 7974 7965 7964 7962 ] final  -38.99 input  175.53 | X-H torsion
[ 8008 7997 7996 7995 ] final -142.49 input   59.86 | X-H torsion
[ 10167 10162 10161 10158 ] final -174.31 input  -65.29 | X-H torsion
[ 10718 10713 10712 10709 ] final -134.54 input   66.30 | X-H torsion
[ 10763 10752 10751 10750 ] final   69.36 input  -60.55 | X-H torsion
[ 11005 11000 10999 10996 ] final   67.46 input  -57.11 | X-H torsion

> <Gold.Protein.ActiveResidues>
 VAL166  LYS551  ARG553  GLY616  TRP617  ASP618  TYR619  PRO620  LYS621  CYS622 
 ASP623  PHE694  ASN695  SER759  ASP760  ASP761  ALA762  ILE779  LEU786  VAL792 
 PHE793  MET794  SER795  GLU796  ALA797  LYS798  CYS799  TRP800  GLU811  SER814 

> <Gold.Protein.RotatedAtoms>
  151.7944  135.0726  160.0391 H   0  0  0  0  0  0  0  0  0  0  0  0  # atno 6907 bound_to 6896
  152.3133  133.5771  159.5704 H   0  0  0  0  0  0  0  0  0  0  0  0  # atno 6908 bound_to 6896
  150.7331  134.0035  159.3688 H   0  0  0  0  0  0  0  0  0  0  0  0  # atno 6909 bound_to 6896
  146.0436  140.6575  142.9075 H   0  0  0  0  0  0  0  0  0  0  0  0  # atno 7974 bound_to 7965
  155.4950  140.0571  157.2948 H   0  0  0  0  0  0  0  0  0  0  0  0  # atno 8008 bound_to 7997
  154.4608  140.1995  156.0199 H   0  0  0  0  0  0  0  0  0  0  0  0  # atno 8009 bound_to 7997
  156.0887  140.3236  155.7791 H   0  0  0  0  0  0  0  0  0  0  0  0  # atno 8010 bound_to 7997
  139.5640  144.1799  152.1284 H   0  0  0  0  0  0  0  0  0  0  0  0  # atno 10167 bound_to 10162
  156.2566  130.7185  151.1104 H   0  0  0  0  0  0  0  0  0  0  0  0  # atno 10718 bound_to 10713
  153.0283  135.5213  154.7276 H   0  0  0  0  0  0  0  0  0  0  0  0  # atno 10763 bound_to 10752
  154.6313  135.2900  155.0215 H   0  0  0  0  0  0  0  0  0  0  0  0  # atno 10764 bound_to 10752
  154.1166  135.6614  153.4947 H   0  0  0  0  0  0  0  0  0  0  0  0  # atno 10765 bound_to 10752
  139.9769  134.6807  156.0336 H   0  0  0  0  0  0  0  0  0  0  0  0  # atno 11005 bound_to 11000
  144.7087  140.3954  143.7098 LP  0  0  0  0  0  0  0  0  0  0  0  0  # atno 17320 bound_to 7965
  145.6842  139.1625  143.2683 LP  0  0  0  0  0  0  0  0  0  0  0  0  # atno 17321 bound_to 7965
  140.1319  144.5281  150.6797 LP  0  0  0  0  0  0  0  0  0  0  0  0  # atno 17342 bound_to 10162
  140.6923  143.2383  151.5098 LP  0  0  0  0  0  0  0  0  0  0  0  0  # atno 17343 bound_to 10162
  157.7235  131.0666  150.6035 LP  0  0  0  0  0  0  0  0  0  0  0  0  # atno 17370 bound_to 10713
  156.6119  130.4382  149.5855 LP  0  0  0  0  0  0  0  0  0  0  0  0  # atno 17371 bound_to 10713
  141.1445  133.6558  156.3827 LP  0  0  0  0  0  0  0  0  0  0  0  0  # atno 17394 bound_to 11000
  140.5176  134.6335  157.5307 LP  0  0  0  0  0  0  0  0  0  0  0  0  # atno 17395 bound_to 11000

$$$$
