AV-unprocessed.smi:2784|AV-procd|sdf|10744|dock1
  -GOLD-   2272015183D 1   1.00000     0.00000
 Structure written by MMmdl.
 30 31  0  0  0  0  0  0  0  0  2 V2000
  152.3883  144.0809  158.1446 C   0  0  0  0  0  0  0  0  0  0  0  0
  153.0907  143.3047  159.1014 O   0  0  0  0  0  0  0  0  0  0  0  0
  152.2423  142.6266  160.0240 C   0  0  2  0  0  0  0  0  0  0  0  0
  152.7542  142.8884  161.4444 C   0  0  0  0  0  0  0  0  0  0  0  0
  153.8918  141.8862  161.6194 C   0  0  0  0  0  0  0  0  0  0  0  0
  153.4225  140.6308  160.8795 C   0  0  0  0  0  0  0  0  0  0  0  0
  152.3751  141.0962  159.8485 C   0  0  2  0  0  0  0  0  0  0  0  0
  152.7525  140.7014  158.4920 N   0  0  0  0  0  0  0  0  0  0  0  0
  151.9807  140.0186  157.6342 C   0  0  0  0  0  0  0  0  0  0  0  0
  150.8468  139.6703  157.9719 O   0  0  0  0  0  0  0  0  0  0  0  0
  152.5682  139.7851  156.4387 N   0  5  0  0  0  0  0  0  0  0  0  0
  151.9363  139.0400  155.5176 C   0  0  0  0  0  0  0  0  0  0  0  0
  152.1695  137.7552  155.2433 N   0  0  0  0  0  0  0  0  0  0  0  0
  151.2893  137.4192  154.2263 C   0  0  0  0  0  0  0  0  0  0  0  0
  150.5560  138.5331  153.9205 C   0  0  0  0  0  0  0  0  0  0  0  0
  150.9574  139.5628  154.7256 O   0  0  0  0  0  0  0  0  0  0  0  0
  153.0999  144.5897  157.4948 H   0  0  0  0  0  0  0  0  0  0  0  0
  151.7640  144.8388  158.6184 H   0  0  0  0  0  0  0  0  0  0  0  0
  151.7568  143.4494  157.5183 H   0  0  0  0  0  0  0  0  0  0  0  0
  151.2032  142.9358  159.8952 H   0  0  0  0  0  0  0  0  0  0  0  0
  153.0728  143.9174  161.6109 H   0  0  0  0  0  0  0  0  0  0  0  0
  151.9632  142.6689  162.1627 H   0  0  0  0  0  0  0  0  0  0  0  0
  154.7942  142.2737  161.1447 H   0  0  0  0  0  0  0  0  0  0  0  0
  154.1248  141.6934  162.6669 H   0  0  0  0  0  0  0  0  0  0  0  0
  154.2642  140.1061  160.4251 H   0  0  0  0  0  0  0  0  0  0  0  0
  152.9576  139.9385  161.5824 H   0  0  0  0  0  0  0  0  0  0  0  0
  151.4240  140.6252  160.1042 H   0  0  0  0  0  0  0  0  0  0  0  0
  153.6708  140.9748  158.1751 H   0  0  0  0  0  0  0  0  0  0  0  0
  151.2551  136.4255  153.8051 H   0  0  0  0  0  0  0  0  0  0  0  0
  149.7703  138.7462  153.2116 H   0  0  0  0  0  0  0  0  0  0  0  0
  1  2  1  0  0  0  0
  1 17  1  0  0  0  0
  1 18  1  0  0  0  0
  1 19  1  0  0  0  0
  2  3  1  0  0  0  0
  3  7  1  0  0  0  0
  3  4  1  0  0  0  0
  3 20  1  0  0  0  0
  4  5  1  0  0  0  0
  4 21  1  0  0  0  0
  4 22  1  0  0  0  0
  5  6  1  0  0  0  0
  5 23  1  0  0  0  0
  5 24  1  0  0  0  0
  6  7  1  0  0  0  0
  6 25  1  0  0  0  0
  6 26  1  0  0  0  0
  7  8  1  0  0  0  0
  7 27  1  0  0  0  0
  8 28  1  0  0  0  0
  8  9  1  0  0  0  0
  9 11  1  0  0  0  0
  9 10  2  0  0  0  0
 11 12  1  0  0  0  0
 12 16  1  0  0  0  0
 12 13  2  0  0  0  0
 13 14  1  0  0  0  0
 14 29  1  0  0  0  0
 14 15  2  0  0  0  0
 15 30  1  0  0  0  0
 15 16  1  0  0  0  0
M  CHG  1  11  -1
M  END
> <s_m_source_file>
AV-unprocessed.smi

> <i_m_source_file_index>
2784

> <i_lp_mmshare_version>
43012

> <i_f3d_flags>
0

> <s_epik_input>
W0NIM11PW0NAQEhdMVtDSDJdW0NIMl1bQ0gyXVtDQEhdMVtOSF1DKD1PKVtOSF1jMm5bY0hdW2NIXW8y

> <s_epik_cmdline>
J2VwaWtfcHl0aG9uJywgJy1waCcsICc3LjAnLCAnLXRuJywgJzgnLCAnLW1hJywgJzIwMCcsICctbWV0YWxfYmluZGluZycsICctaW1hZScsICc8aW5maWxlLm1hZT4nLCAnLW9tYWUnLCAnPG91dGZpbGUubWFlPic=

> <r_lp_tautomer_probability>
0.107061

> <r_epik_Ionization_Penalty>
10.8857

> <r_epik_Ionization_Penalty_Charging>
7.67908

> <r_epik_Ionization_Penalty_Neutral>
3.20665

> <r_epik_State_Penalty>
5.80296

> <r_epik_Charging_Adjusted_Penalty>
13.482

> <i_epik_Tot_Q>
-1

> <i_epik_Tot_abs_Q>
1

> <r_epik_Metal_State_Penalty>
1.73217

> <b_epik_Metal_Only>
1

> <s_lp_Force_Field>
OPLS_2005

> <r_lp_Energy>
16.6082

> <b_lp_Chiralities_Consistent>
1

> <s_lp_Variant>
AV-unprocessed.smi:2784-19

> <Gold.Version>
5.8.1

> <Gold.Id.Protein>
6NUR|6NUR_protein|mol2

> <Gold.PLP.Fitness>
45.0014

> <Gold.PLP.PLP>
-32.9526

> <Gold.PLP.part.hbond>
-2.2347

> <Gold.PLP.part.metal>
0.0000

> <Gold.PLP.part.buried>
-1.4040

> <Gold.PLP.part.nonpolar>
-27.8847

> <Gold.PLP.part.repulsive>
0.2066

> <Gold.PLP.ligand.clash>
0.0000

> <Gold.PLP.ligand.torsion>
1.4881

> <Gold.PLP.Chemscore.Hbond>
3.0000

> <Gold.PLP.Chemscore.CHOScore>
1.9998

> <Gold.PLP.Chemscore.Metal>
0.0000

> <Gold.Chemscore.Hbonds>
donor molecule, donor type, donor heavy atom, donor atom, acceptor molecule, acceptor atom, score
      P1  H  7989  7998       L1    16  1.00
      P1  H  7997  8008       L1    11  2.00
      L1  C    14    29       P1  7949  0.88
      L1  C    15    30       P1  7948  0.01
      L1  C    15    30       P1  7957  1.00

> <Gold.PLP.Chemscore.Internal.Correction>
0.0256

> <Gold.Rescore>
     Score         DG    S(hbond)    S(metal)    S(lipo)     H(rot)  DE(clash)    DE(int)     intcor
     15.56     -16.93       1.61        0.00      80.59       1.31       0.13       1.23       ----

> <Gold.Chemscore.Fitness>
15.5617

> <Gold.Chemscore.DG>
-16.9262

> <Gold.Chemscore.ZeroCoef>
-5.4800

> <Gold.Chemscore.Hbond>
1.6083

> <Gold.Chemscore.Metal>
0.0000

> <Gold.Chemscore.Lipo>
80.5935

> <Gold.Chemscore.Internal_Hbond>
0.0000

> <Gold.Chemscore.DEClash>
0.1317

> <Gold.Chemscore.DEInternal>
1.2328

> <Gold.Chemscore.Rot>
1.3106

> <Gold.Chemscore.Internal.Correction>
   9.000000E+99

> <Gold.Chemscore.Hbonds>
donor molecule, donor type, donor heavy atom, donor atom, acceptor molecule, acceptor atom, score
      P1  H  7989  7998       L1    16  0.37
      P1  H  7997  8008       L1    11  0.78

> <Gold.Chemscore.Hbond.Weighted>
-5.3718

> <Gold.Chemscore.Metal.Weighted>
-0.0000

> <Gold.Chemscore.Lipo.Weighted>
-9.4294

> <Gold.Chemscore.Internal_Hbond.Weighted>
0.0000

> <Gold.Chemscore.DEClash.Weighted>
0.1317

> <Gold.Chemscore.DEInternal.Weighted>
1.2328

> <Gold.Chemscore.Rot.Weighted>
3.3550

> <Gold.Chemscore.Internal.Correction.Weighted>
   9.000000E+99

> <Gold.Protein.RotatedTorsions>
[ 6907 6896 6895 6894 ] final   38.98 input  -60.11 | X-H torsion
[ 7974 7965 7964 7962 ] final -113.78 input  175.53 | X-H torsion
[ 8008 7997 7996 7995 ] final  -53.86 input   59.86 | X-H torsion
[ 10167 10162 10161 10158 ] final -105.20 input  -65.29 | X-H torsion
[ 10718 10713 10712 10709 ] final  155.38 input   66.30 | X-H torsion
[ 10763 10752 10751 10750 ] final  130.53 input  -60.55 | X-H torsion
[ 11005 11000 10999 10996 ] final  -15.54 input  -57.11 | X-H torsion

> <Gold.Protein.ActiveResidues>
 VAL166  LYS551  ARG553  GLY616  TRP617  ASP618  TYR619  PRO620  LYS621  CYS622 
 ASP623  PHE694  ASN695  SER759  ASP760  ASP761  ALA762  ILE779  LEU786  VAL792 
 PHE793  MET794  SER795  GLU796  ALA797  LYS798  CYS799  TRP800  GLU811  SER814 

> <Gold.Protein.RotatedAtoms>
  152.1636  134.8892  160.0539 H   0  0  0  0  0  0  0  0  0  0  0  0  # atno 6907 bound_to 6896
  151.9878  133.3775  159.4141 H   0  0  0  0  0  0  0  0  0  0  0  0  # atno 6908 bound_to 6896
  150.6891  134.3892  159.5112 H   0  0  0  0  0  0  0  0  0  0  0  0  # atno 6909 bound_to 6896
  145.1280  140.8708  143.3775 H   0  0  0  0  0  0  0  0  0  0  0  0  # atno 7974 bound_to 7965
  154.4145  140.1190  156.5223 H   0  0  0  0  0  0  0  0  0  0  0  0  # atno 8008 bound_to 7997
  155.6690  140.3496  155.4792 H   0  0  0  0  0  0  0  0  0  0  0  0  # atno 8009 bound_to 7997
  155.9649  140.1130  157.0853 H   0  0  0  0  0  0  0  0  0  0  0  0  # atno 8010 bound_to 7997
  140.2011  143.3818  152.1128 H   0  0  0  0  0  0  0  0  0  0  0  0  # atno 10167 bound_to 10162
  157.2191  131.0714  151.1923 H   0  0  0  0  0  0  0  0  0  0  0  0  # atno 10718 bound_to 10713
  153.7596  135.3198  155.3335 H   0  0  0  0  0  0  0  0  0  0  0  0  # atno 10763 bound_to 10752
  154.8235  135.4586  154.0851 H   0  0  0  0  0  0  0  0  0  0  0  0  # atno 10764 bound_to 10752
  153.2078  135.6931  153.8234 H   0  0  0  0  0  0  0  0  0  0  0  0  # atno 10765 bound_to 10752
  140.7977  133.8238  155.9440 H   0  0  0  0  0  0  0  0  0  0  0  0  # atno 11005 bound_to 11000
  145.0667  139.3063  143.5853 LP  0  0  0  0  0  0  0  0  0  0  0  0  # atno 17320 bound_to 7965
  146.3516  140.0127  142.8665 LP  0  0  0  0  0  0  0  0  0  0  0  0  # atno 17321 bound_to 7965
  139.5217  144.7049  151.5384 LP  0  0  0  0  0  0  0  0  0  0  0  0  # atno 17342 bound_to 10162
  140.6389  143.8928  150.6673 LP  0  0  0  0  0  0  0  0  0  0  0  0  # atno 17343 bound_to 10162
  157.3594  130.7123  149.6492 LP  0  0  0  0  0  0  0  0  0  0  0  0  # atno 17370 bound_to 10713
  155.9684  130.4230  150.4541 LP  0  0  0  0  0  0  0  0  0  0  0  0  # atno 17371 bound_to 10713
  140.9326  134.2002  157.4853 LP  0  0  0  0  0  0  0  0  0  0  0  0  # atno 17394 bound_to 11000
  139.8724  134.9839  156.5217 LP  0  0  0  0  0  0  0  0  0  0  0  0  # atno 17395 bound_to 11000

$$$$
