AV-unprocessed.smi:42|AV-procd|sdf|390|dock5
  -GOLD-   2262016243D 1   1.00000     0.00000
 Structure written by MMmdl.
 27 28  0  0  0  0  0  0  0  0  2 V2000
  153.3982  142.0069  161.0814 C   0  0  0  0  0  0  0  0  0  0  0  0
  152.3982  143.1461  160.8582 C   0  0  0  0  0  0  0  0  0  0  0  0
  151.8058  143.1262  159.4889 C   0  0  0  0  0  0  0  0  0  0  0  0
  151.9760  144.0277  158.5194 N   0  0  0  0  0  0  0  0  0  0  0  0
  151.2895  143.5414  157.4307 N   0  0  0  0  0  0  0  0  0  0  0  0
  150.7483  142.3831  157.8251 C   0  0  0  0  0  0  0  0  0  0  0  0
  149.9548  141.4039  157.0141 C   0  0  2  0  0  0  0  0  0  0  0  0
  150.6349  140.9367  155.7262 C   0  0  0  0  0  0  0  0  0  0  0  0
  149.4439  140.6811  154.8076 C   0  0  2  0  0  0  0  0  0  0  0  0
  149.8054  140.7237  153.4437 O   0  0  0  0  0  0  0  0  0  0  0  0
  148.4644  141.7997  155.1820 C   0  0  0  0  0  0  0  0  0  0  0  0
  148.7315  142.1229  156.5983 N   0  3  0  0  0  0  0  0  0  0  0  0
  151.0645  142.0546  159.1047 O   0  0  0  0  0  0  0  0  0  0  0  0
  149.6688  140.5500  157.6298 H   0  0  0  0  0  0  0  0  0  0  0  0
  149.0027  139.7101  155.0379 H   0  0  0  0  0  0  0  0  0  0  0  0
  153.8163  142.0481  162.0874 H   0  0  0  0  0  0  0  0  0  0  0  0
  154.2258  142.0669  160.3739 H   0  0  0  0  0  0  0  0  0  0  0  0
  152.9210  141.0343  160.9581 H   0  0  0  0  0  0  0  0  0  0  0  0
  151.5919  143.0831  161.5897 H   0  0  0  0  0  0  0  0  0  0  0  0
  152.8888  144.1075  161.0143 H   0  0  0  0  0  0  0  0  0  0  0  0
  151.2466  141.7421  155.3147 H   0  0  0  0  0  0  0  0  0  0  0  0
  151.2764  140.0667  155.8701 H   0  0  0  0  0  0  0  0  0  0  0  0
  149.3664  140.0197  152.9904 H   0  0  0  0  0  0  0  0  0  0  0  0
  148.6603  142.6977  154.5942 H   0  0  0  0  0  0  0  0  0  0  0  0
  147.4242  141.5142  155.0231 H   0  0  0  0  0  0  0  0  0  0  0  0
  147.9557  141.8452  157.1818 H   0  0  0  0  0  0  0  0  0  0  0  0
  148.8837  143.1181  156.6842 H   0  0  0  0  0  0  0  0  0  0  0  0
  1  2  1  0  0  0  0
  1 16  1  0  0  0  0
  1 17  1  0  0  0  0
  1 18  1  0  0  0  0
  2  3  1  0  0  0  0
  2 19  1  0  0  0  0
  2 20  1  0  0  0  0
  3 13  1  0  0  0  0
  3  4  2  0  0  0  0
  4  5  1  0  0  0  0
  5  6  2  0  0  0  0
  6  7  1  0  0  0  0
  6 13  1  0  0  0  0
  7 14  1  0  0  0  0
  7 12  1  0  0  0  0
  7  8  1  0  0  0  0
  8  9  1  0  0  0  0
  8 21  1  0  0  0  0
  8 22  1  0  0  0  0
  9 15  1  0  0  0  0
  9 10  1  0  0  0  0
  9 11  1  0  0  0  0
 10 23  1  0  0  0  0
 11 12  1  0  0  0  0
 11 24  1  0  0  0  0
 11 25  1  0  0  0  0
 12 26  1  0  0  0  0
 12 27  1  0  0  0  0
M  CHG  1  12   1
M  END
> <s_m_source_file>
AV-unprocessed.smi

> <i_m_source_file_index>
42

> <i_lp_mmshare_version>
43012

> <i_f3d_flags>
0

> <s_epik_input>
W0NIM11bQ0gyXWMxbm5jKG8xKVtDQEhdMltDSDJdW0NAQEhdKFtPSF0pW0NIMl1bTkhdMg==

> <s_epik_cmdline>
J2VwaWtfcHl0aG9uJywgJy1waCcsICc3LjAnLCAnLXRuJywgJzgnLCAnLW1hJywgJzIwMCcsICctbWV0YWxfYmluZGluZycsICctaW1hZScsICc8aW5maWxlLm1hZT4nLCAnLW9tYWUnLCAnPG91dGZpbGUubWFlPic=

> <r_lp_tautomer_probability>
1

> <r_epik_Ionization_Penalty>
0.00247063

> <r_epik_Ionization_Penalty_Charging>
0.0024706

> <r_epik_Ionization_Penalty_Neutral>
3.27814e-08

> <r_epik_State_Penalty>
0.00171198

> <r_epik_Charging_Adjusted_Penalty>
0.00418258

> <i_epik_Tot_Q>
1

> <i_epik_Tot_abs_Q>
1

> <r_epik_Metal_State_Penalty>
-0

> <b_epik_Metal_Only>
0

> <s_lp_Force_Field>
OPLS_2005

> <r_lp_Energy>
17.8578

> <b_lp_Chiralities_Consistent>
1

> <s_lp_Variant>
AV-unprocessed.smi:42-4

> <Gold.Version>
5.8.1

> <Gold.Id.Protein>
6NUR|6NUR_protein|mol2

> <Gold.PLP.Fitness>
37.3028

> <Gold.PLP.PLP>
-27.3547

> <Gold.PLP.part.hbond>
-3.3466

> <Gold.PLP.part.metal>
0.0000

> <Gold.PLP.part.buried>
-2.1903

> <Gold.PLP.part.nonpolar>
-21.2529

> <Gold.PLP.part.repulsive>
0.2020

> <Gold.PLP.ligand.clash>
0.0000

> <Gold.PLP.ligand.torsion>
0.0531

> <Gold.PLP.Chemscore.Hbond>
3.3360

> <Gold.PLP.Chemscore.CHOScore>
0.0000

> <Gold.PLP.Chemscore.Metal>
0.0000

> <Gold.Chemscore.Hbonds>
donor molecule, donor type, donor heavy atom, donor atom, acceptor molecule, acceptor atom, score
      L1  H    10    23       P1  7957  0.27
      L1  H    12    27       P1  8028  1.70
      P1  H  7989  7998       L1    10  0.35
      P1  H  8011  8017       L1    10  1.00

> <Gold.PLP.Chemscore.Internal.Correction>
0.0463

> <Gold.Rescore>
     Score         DG    S(hbond)    S(metal)    S(lipo)     H(rot)  DE(clash)    DE(int)     intcor
     13.52     -13.60       2.15        0.00      48.65       1.86       0.04       0.04       ----

> <Gold.Chemscore.Fitness>
13.5175

> <Gold.Chemscore.DG>
-13.5991

> <Gold.Chemscore.ZeroCoef>
-5.4800

> <Gold.Chemscore.Hbond>
2.1496

> <Gold.Chemscore.Metal>
0.0000

> <Gold.Chemscore.Lipo>
48.6547

> <Gold.Chemscore.Internal_Hbond>
0.0000

> <Gold.Chemscore.DEClash>
0.0418

> <Gold.Chemscore.DEInternal>
0.0398

> <Gold.Chemscore.Rot>
1.8567

> <Gold.Chemscore.Internal.Correction>
   9.000000E+99

> <Gold.Chemscore.Hbonds>
donor molecule, donor type, donor heavy atom, donor atom, acceptor molecule, acceptor atom, score
      L1  H    10    23       P1  7957  0.28
      L1  H    12    27       P1  8028  0.77
      P1  H  7989  7998       L1    10  0.18
      P1  H  8011  8017       L1    10  0.73

> <Gold.Chemscore.Hbond.Weighted>
-7.1796

> <Gold.Chemscore.Metal.Weighted>
-0.0000

> <Gold.Chemscore.Lipo.Weighted>
-5.6926

> <Gold.Chemscore.Internal_Hbond.Weighted>
0.0000

> <Gold.Chemscore.DEClash.Weighted>
0.0418

> <Gold.Chemscore.DEInternal.Weighted>
0.0398

> <Gold.Chemscore.Rot.Weighted>
4.7531

> <Gold.Chemscore.Internal.Correction.Weighted>
   9.000000E+99

> <Gold.Protein.RotatedTorsions>
[ 6907 6896 6895 6894 ] final -122.70 input  -60.11 | X-H torsion
[ 7974 7965 7964 7962 ] final  -24.17 input  175.53 | X-H torsion
[ 8008 7997 7996 7995 ] final -163.29 input   59.86 | X-H torsion
[ 10167 10162 10161 10158 ] final -166.43 input  -65.29 | X-H torsion
[ 10718 10713 10712 10709 ] final   94.93 input   66.30 | X-H torsion
[ 10763 10752 10751 10750 ] final   93.57 input  -60.55 | X-H torsion
[ 11005 11000 10999 10996 ] final   -8.83 input  -57.11 | X-H torsion

> <Gold.Protein.ActiveResidues>
 VAL166  LYS551  ARG553  GLY616  TRP617  ASP618  TYR619  PRO620  LYS621  CYS622 
 ASP623  PHE694  ASN695  SER759  ASP760  ASP761  ALA762  ILE779  LEU786  VAL792 
 PHE793  MET794  SER795  GLU796  ALA797  LYS798  CYS799  TRP800  GLU811  SER814 

> <Gold.Protein.RotatedAtoms>
  150.8600  133.7657  159.2995 H   0  0  0  0  0  0  0  0  0  0  0  0  # atno 6907 bound_to 6896
  151.5302  135.1066  159.9910 H   0  0  0  0  0  0  0  0  0  0  0  0  # atno 6908 bound_to 6896
  152.4619  133.7797  159.6899 H   0  0  0  0  0  0  0  0  0  0  0  0  # atno 6909 bound_to 6896
  146.1571  140.4715  142.8587 H   0  0  0  0  0  0  0  0  0  0  0  0  # atno 7974 bound_to 7965
  155.8192  140.0917  157.1859 H   0  0  0  0  0  0  0  0  0  0  0  0  # atno 8008 bound_to 7997
  154.3979  140.1440  156.3539 H   0  0  0  0  0  0  0  0  0  0  0  0  # atno 8009 bound_to 7997
  155.8284  140.3443  155.5559 H   0  0  0  0  0  0  0  0  0  0  0  0  # atno 8010 bound_to 7997
  139.6116  144.0804  152.1847 H   0  0  0  0  0  0  0  0  0  0  0  0  # atno 10167 bound_to 10162
  157.6943  131.0529  150.4262 H   0  0  0  0  0  0  0  0  0  0  0  0  # atno 10718 bound_to 10713
  153.2318  135.4321  155.0603 H   0  0  0  0  0  0  0  0  0  0  0  0  # atno 10763 bound_to 10752
  154.8300  135.3381  154.6777 H   0  0  0  0  0  0  0  0  0  0  0  0  # atno 10764 bound_to 10752
  153.7204  135.7017  153.5070 H   0  0  0  0  0  0  0  0  0  0  0  0  # atno 10765 bound_to 10752
  140.7277  133.8775  155.8868 H   0  0  0  0  0  0  0  0  0  0  0  0  # atno 11005 bound_to 11000
  144.7978  140.6156  143.6498 LP  0  0  0  0  0  0  0  0  0  0  0  0  # atno 17320 bound_to 7965
  145.4681  139.1506  143.3829 LP  0  0  0  0  0  0  0  0  0  0  0  0  # atno 17321 bound_to 7965
  140.0424  144.5997  150.7400 LP  0  0  0  0  0  0  0  0  0  0  0  0  # atno 17342 bound_to 10162
  140.7322  143.2703  151.3909 LP  0  0  0  0  0  0  0  0  0  0  0  0  # atno 17343 bound_to 10162
  156.4632  130.4036  149.6563 LP  0  0  0  0  0  0  0  0  0  0  0  0  # atno 17370 bound_to 10713
  156.3670  130.7511  151.2490 LP  0  0  0  0  0  0  0  0  0  0  0  0  # atno 17371 bound_to 10713
  140.9949  134.1229  157.4373 LP  0  0  0  0  0  0  0  0  0  0  0  0  # atno 17394 bound_to 11000
  139.8833  135.0051  156.6293 LP  0  0  0  0  0  0  0  0  0  0  0  0  # atno 17395 bound_to 11000

$$$$
