AV-unprocessed.smi:2409|AV-procd|sdf|9522|dock2
  -GOLD-   2272013153D 1   1.00000     0.00000
 Structure written by MMmdl.
 35 36  0  0  0  0  0  0  0  0  1 V2000
  152.1675  138.9692  157.4298 C   0  0  0  0  0  0  0  0  0  0  0  0
  152.4804  139.9211  156.4274 O   0  0  0  0  0  0  0  0  0  0  0  0
  151.4693  140.1418  155.5602 C   0  0  0  0  0  0  0  0  0  0  0  0
  150.5989  141.1866  155.4172 C   0  0  0  0  0  0  0  0  0  0  0  0
  150.4936  142.3939  156.1529 N   0  0  0  0  0  0  0  0  0  0  0  0
  150.6260  142.5611  157.4817 C   0  0  0  0  0  0  0  0  0  0  0  0
  150.8209  141.6467  158.2796 O   0  0  0  0  0  0  0  0  0  0  0  0
  150.4649  143.8293  157.8992 N   0  0  0  0  0  0  0  0  0  0  0  0
  150.5435  144.3271  159.2395 C   0  0  2  0  0  0  0  0  0  0  0  0
  151.6206  145.3520  159.5181 C   0  0  0  0  0  0  0  0  0  0  0  0
  151.7531  143.9588  160.0735 C   0  0  1  0  0  0  0  0  0  0  0  0
  151.6239  143.7218  161.5623 C   0  0  0  0  0  0  0  0  0  0  0  0
  149.8049  140.8534  154.2853 C   0  0  0  0  0  0  0  0  0  0  0  0
  148.7002  141.6359  153.6350 C   0  0  0  0  0  0  0  0  0  0  0  0
  150.1383  139.6626  153.7999 N   0  0  0  0  0  0  0  0  0  0  0  0
  151.1521  139.2210  154.5835 N   0  0  0  0  0  0  0  0  0  0  0  0
  151.7609  137.9364  154.3063 C   0  0  0  0  0  0  0  0  0  0  0  0
  153.0214  138.8460  158.0956 H   0  0  0  0  0  0  0  0  0  0  0  0
  151.9337  137.9944  157.0001 H   0  0  0  0  0  0  0  0  0  0  0  0
  151.3175  139.2984  158.0292 H   0  0  0  0  0  0  0  0  0  0  0  0
  150.2176  143.2081  155.6240 H   0  0  0  0  0  0  0  0  0  0  0  0
  150.1853  144.5004  157.1983 H   0  0  0  0  0  0  0  0  0  0  0  0
  149.6084  144.4944  159.7721 H   0  0  0  0  0  0  0  0  0  0  0  0
  152.2852  145.6304  158.7021 H   0  0  0  0  0  0  0  0  0  0  0  0
  151.3781  146.1545  160.2120 H   0  0  0  0  0  0  0  0  0  0  0  0
  152.4940  143.3221  159.5930 H   0  0  0  0  0  0  0  0  0  0  0  0
  150.8779  144.3871  161.9983 H   0  0  0  0  0  0  0  0  0  0  0  0
  152.5799  143.9009  162.0542 H   0  0  0  0  0  0  0  0  0  0  0  0
  151.3221  142.6914  161.7513 H   0  0  0  0  0  0  0  0  0  0  0  0
  148.5290  142.5848  154.1437 H   0  0  0  0  0  0  0  0  0  0  0  0
  147.7635  141.0788  153.6525 H   0  0  0  0  0  0  0  0  0  0  0  0
  148.9375  141.8574  152.5943 H   0  0  0  0  0  0  0  0  0  0  0  0
  152.2885  137.5725  155.1883 H   0  0  0  0  0  0  0  0  0  0  0  0
  152.4697  138.0374  153.4841 H   0  0  0  0  0  0  0  0  0  0  0  0
  150.9944  137.2109  154.0319 H   0  0  0  0  0  0  0  0  0  0  0  0
  1  2  1  0  0  0  0
  1 18  1  0  0  0  0
  1 19  1  0  0  0  0
  1 20  1  0  0  0  0
  2  3  1  0  0  0  0
  3 16  1  0  0  0  0
  3  4  2  0  0  0  0
  4  5  1  0  0  0  0
  4 13  1  0  0  0  0
  5  6  1  0  0  0  0
  5 21  1  0  0  0  0
  6  7  2  0  0  0  0
  6  8  1  0  0  0  0
  8  9  1  0  0  0  0
  8 22  1  0  0  0  0
  9 11  1  0  0  0  0
  9 10  1  0  0  0  0
  9 23  1  0  0  0  0
 10 11  1  0  0  0  0
 10 24  1  0  0  0  0
 10 25  1  0  0  0  0
 11 12  1  0  0  0  0
 11 26  1  0  0  0  0
 12 27  1  0  0  0  0
 12 28  1  0  0  0  0
 12 29  1  0  0  0  0
 13 14  1  0  0  0  0
 13 15  2  0  0  0  0
 14 30  1  0  0  0  0
 14 31  1  0  0  0  0
 14 32  1  0  0  0  0
 15 16  1  0  0  0  0
 16 17  1  0  0  0  0
 17 33  1  0  0  0  0
 17 34  1  0  0  0  0
 17 35  1  0  0  0  0
M  END
> <s_m_source_file>
AV-unprocessed.smi

> <i_m_source_file_index>
2409

> <i_lp_mmshare_version>
43012

> <i_f3d_flags>
0

> <s_epik_input>
W0NIM11uMW5jKFtDSDNdKWMoYzFPW0NIM10pW05IXUMoPU8pW05IXVtDQEBIXTJbQ0gyXVtDQEhdMltDSDNd

> <s_epik_cmdline>
J2VwaWtfcHl0aG9uJywgJy1waCcsICc3LjAnLCAnLXRuJywgJzgnLCAnLW1hJywgJzIwMCcsICctbWV0YWxfYmluZGluZycsICctaW1hZScsICc8aW5maWxlLm1hZT4nLCAnLW9tYWUnLCAnPG91dGZpbGUubWFlPic=

> <r_lp_tautomer_probability>
1

> <r_epik_Ionization_Penalty>
0.000417804

> <r_epik_Ionization_Penalty_Charging>
0

> <r_epik_Ionization_Penalty_Neutral>
0.000417804

> <r_epik_State_Penalty>
-0

> <r_epik_Charging_Adjusted_Penalty>
0

> <i_epik_Tot_Q>
0

> <i_epik_Tot_abs_Q>
0

> <r_epik_Metal_State_Penalty>
-0

> <b_epik_Metal_Only>
0

> <s_lp_Force_Field>
OPLS_2005

> <r_lp_Energy>
34.5155

> <b_lp_Chiralities_Consistent>
1

> <s_lp_Variant>
AV-unprocessed.smi:2409-1

> <Gold.Version>
5.8.1

> <Gold.Id.Protein>
6NUR|6NUR_protein|mol2

> <Gold.PLP.Fitness>
49.9374

> <Gold.PLP.PLP>
-41.9592

> <Gold.PLP.part.hbond>
-3.0549

> <Gold.PLP.part.metal>
0.0000

> <Gold.PLP.part.buried>
-4.1107

> <Gold.PLP.part.nonpolar>
-34.9081

> <Gold.PLP.part.repulsive>
1.0256

> <Gold.PLP.ligand.clash>
0.0000

> <Gold.PLP.ligand.torsion>
0.5179

> <Gold.PLP.Chemscore.Hbond>
2.9920

> <Gold.PLP.Chemscore.CHOScore>
0.0000

> <Gold.PLP.Chemscore.Metal>
0.0000

> <Gold.Chemscore.Hbonds>
donor molecule, donor type, donor heavy atom, donor atom, acceptor molecule, acceptor atom, score
      L1  H     5    21       P1  8028  0.83
      L1  H     8    22       P1  8028  0.85
      P1  H  7997  8010       L1     2  0.96

> <Gold.PLP.Chemscore.Internal.Correction>
0.0380

> <Gold.Rescore>
     Score         DG    S(hbond)    S(metal)    S(lipo)     H(rot)  DE(clash)    DE(int)     intcor
     17.16     -18.01       1.73        0.00      84.46       1.23       0.28       0.57       ----

> <Gold.Chemscore.Fitness>
17.1553

> <Gold.Chemscore.DG>
-18.0054

> <Gold.Chemscore.ZeroCoef>
-5.4800

> <Gold.Chemscore.Hbond>
1.7336

> <Gold.Chemscore.Metal>
0.0000

> <Gold.Chemscore.Lipo>
84.4610

> <Gold.Chemscore.Internal_Hbond>
0.0000

> <Gold.Chemscore.DEClash>
0.2816

> <Gold.Chemscore.DEInternal>
0.5684

> <Gold.Chemscore.Rot>
1.2292

> <Gold.Chemscore.Internal.Correction>
   9.000000E+99

> <Gold.Chemscore.Hbonds>
donor molecule, donor type, donor heavy atom, donor atom, acceptor molecule, acceptor atom, score
      L1  H     5    21       P1  8028  0.79
      L1  H     8    22       P1  8028  0.44
      P1  H  7997  8010       L1     2  0.83

> <Gold.Chemscore.Hbond.Weighted>
-5.7901

> <Gold.Chemscore.Metal.Weighted>
-0.0000

> <Gold.Chemscore.Lipo.Weighted>
-9.8819

> <Gold.Chemscore.Internal_Hbond.Weighted>
0.0000

> <Gold.Chemscore.DEClash.Weighted>
0.2816

> <Gold.Chemscore.DEInternal.Weighted>
0.5684

> <Gold.Chemscore.Rot.Weighted>
3.1467

> <Gold.Chemscore.Internal.Correction.Weighted>
   9.000000E+99

> <Gold.Protein.RotatedTorsions>
[ 6907 6896 6895 6894 ] final -114.96 input  -60.11 | X-H torsion
[ 7974 7965 7964 7962 ] final -175.46 input  175.53 | X-H torsion
[ 8008 7997 7996 7995 ] final   93.27 input   59.86 | X-H torsion
[ 10167 10162 10161 10158 ] final   70.43 input  -65.29 | X-H torsion
[ 10718 10713 10712 10709 ] final -123.34 input   66.30 | X-H torsion
[ 10763 10752 10751 10750 ] final  143.79 input  -60.55 | X-H torsion
[ 11005 11000 10999 10996 ] final   38.82 input  -57.11 | X-H torsion

> <Gold.Protein.ActiveResidues>
 VAL166  LYS551  ARG553  GLY616  TRP617  ASP618  TYR619  PRO620  LYS621  CYS622 
 ASP623  PHE694  ASN695  SER759  ASP760  ASP761  ALA762  ILE779  LEU786  VAL792 
 PHE793  MET794  SER795  GLU796  ALA797  LYS798  CYS799  TRP800  GLU811  SER814 

> <Gold.Protein.RotatedAtoms>
  150.7941  133.8727  159.3263 H   0  0  0  0  0  0  0  0  0  0  0  0  # atno 6907 bound_to 6896
  151.6557  135.0994  160.0179 H   0  0  0  0  0  0  0  0  0  0  0  0  # atno 6908 bound_to 6896
  152.4020  133.6793  159.6359 H   0  0  0  0  0  0  0  0  0  0  0  0  # atno 6909 bound_to 6896
  144.7128  140.1318  143.6398 H   0  0  0  0  0  0  0  0  0  0  0  0  # atno 7974 bound_to 7965
  156.0449  140.3315  155.7285 H   0  0  0  0  0  0  0  0  0  0  0  0  # atno 8008 bound_to 7997
  155.5689  140.0626  157.2829 H   0  0  0  0  0  0  0  0  0  0  0  0  # atno 8009 bound_to 7997
  154.4409  140.1864  156.0847 H   0  0  0  0  0  0  0  0  0  0  0  0  # atno 8010 bound_to 7997
  140.0570  144.5264  150.7321 H   0  0  0  0  0  0  0  0  0  0  0  0  # atno 10167 bound_to 10162
  156.1494  130.6523  150.9890 H   0  0  0  0  0  0  0  0  0  0  0  0  # atno 10718 bound_to 10713
  153.9782  135.2944  155.3422 H   0  0  0  0  0  0  0  0  0  0  0  0  # atno 10763 bound_to 10752
  154.7284  135.5078  153.8926 H   0  0  0  0  0  0  0  0  0  0  0  0  # atno 10764 bound_to 10752
  153.0867  135.6695  154.0049 H   0  0  0  0  0  0  0  0  0  0  0  0  # atno 10765 bound_to 10752
  140.2089  134.3779  155.8059 H   0  0  0  0  0  0  0  0  0  0  0  0  # atno 11005 bound_to 11000
  145.9280  139.2588  143.1342 LP  0  0  0  0  0  0  0  0  0  0  0  0  # atno 17320 bound_to 7965
  145.9552  140.8878  143.0239 LP  0  0  0  0  0  0  0  0  0  0  0  0  # atno 17321 bound_to 7965
  140.7190  143.2571  151.4341 LP  0  0  0  0  0  0  0  0  0  0  0  0  # atno 17342 bound_to 10162
  139.5917  144.1484  152.2096 LP  0  0  0  0  0  0  0  0  0  0  0  0  # atno 17343 bound_to 10162
  157.6644  131.0874  150.7763 LP  0  0  0  0  0  0  0  0  0  0  0  0  # atno 17370 bound_to 10713
  156.7832  130.4866  149.5397 LP  0  0  0  0  0  0  0  0  0  0  0  0  # atno 17371 bound_to 10713
  141.2226  133.7132  156.8384 LP  0  0  0  0  0  0  0  0  0  0  0  0  # atno 17394 bound_to 11000
  140.1973  134.8923  157.3128 LP  0  0  0  0  0  0  0  0  0  0  0  0  # atno 17395 bound_to 11000

$$$$
