AV-unprocessed.smi:1643|AV-procd|sdf|6573|dock3
  -GOLD-   22720 7263D 1   1.00000     0.00000
 Structure written by MMmdl.
 54 56  0  0  0  0  0  0  0  0  2 V2000
  145.8836  130.8275  151.2777 C   0  0  0  0  0  0  0  0  0  0  0  0
  144.7725  131.8393  150.9814 C   0  0  0  0  0  0  0  0  0  0  0  0
  143.9315  131.5419  150.1329 O   0  0  0  0  0  0  0  0  0  0  0  0
  144.7497  133.0134  151.6595 N   0  0  0  0  0  0  0  0  0  0  0  0
  143.6720  133.9911  151.4419 C   0  0  0  0  0  0  0  0  0  0  0  0
  144.1190  135.1140  150.4888 C   0  0  0  0  0  0  0  0  0  0  0  0
  145.6046  135.5116  150.6209 C   0  0  0  0  0  0  0  0  0  0  0  0
  146.0087  135.9132  151.9968 N   0  3  1  0  0  0  0  0  0  0  0  0
  145.4823  137.2526  152.3808 C   0  0  0  0  0  0  0  0  0  0  0  0
  146.4858  138.4002  152.1136 C   0  0  2  0  0  0  0  0  0  0  0  0
  147.0980  138.2228  150.8525 O   0  0  0  0  0  0  0  0  0  0  0  0
  147.6269  138.4854  153.1493 C   0  0  0  0  0  0  0  0  0  0  0  0
  147.8292  139.8290  153.6610 N   0  0  0  0  0  0  0  0  0  0  0  0
  147.0225  140.8947  153.4908 C   0  0  0  0  0  0  0  0  0  0  0  0
  147.4047  142.0419  154.0433 N   0  0  0  0  0  0  0  0  0  0  0  0
  148.5893  141.6750  154.6578 C   0  0  0  0  0  0  0  0  0  0  0  0
  149.4976  142.4357  155.4256 C   0  0  0  0  0  0  0  0  0  0  0  0
  150.6608  141.8445  155.9677 C   0  0  0  0  0  0  0  0  0  0  0  0
  151.6072  142.6986  156.7930 C   0  0  0  0  0  0  0  0  0  0  0  0
  150.9308  140.4706  155.7424 C   0  0  0  0  0  0  0  0  0  0  0  0
  152.1722  139.8133  156.3186 C   0  0  0  0  0  0  0  0  0  0  0  0
  150.0353  139.6967  154.9749 C   0  0  0  0  0  0  0  0  0  0  0  0
  148.8811  140.2964  154.4412 C   0  0  0  0  0  0  0  0  0  0  0  0
  145.8361  134.8795  153.0653 C   0  0  0  0  0  0  0  0  0  0  0  0
  145.8211  133.3967  152.6040 C   0  0  0  0  0  0  0  0  0  0  0  0
  145.9499  130.6158  152.3451 H   0  0  0  0  0  0  0  0  0  0  0  0
  146.8476  131.1975  150.9286 H   0  0  0  0  0  0  0  0  0  0  0  0
  145.6862  129.8844  150.7667 H   0  0  0  0  0  0  0  0  0  0  0  0
  142.7679  133.5247  151.0472 H   0  0  0  0  0  0  0  0  0  0  0  0
  143.3428  134.4036  152.3943 H   0  0  0  0  0  0  0  0  0  0  0  0
  143.9512  134.7854  149.4626 H   0  0  0  0  0  0  0  0  0  0  0  0
  143.4787  135.9851  150.6292 H   0  0  0  0  0  0  0  0  0  0  0  0
  146.2473  134.6971  150.2855 H   0  0  0  0  0  0  0  0  0  0  0  0
  145.8224  136.3242  149.9268 H   0  0  0  0  0  0  0  0  0  0  0  0
  144.5916  137.4338  151.7805 H   0  0  0  0  0  0  0  0  0  0  0  0
  145.1411  137.2550  153.4171 H   0  0  0  0  0  0  0  0  0  0  0  0
  145.9517  139.3511  152.0999 H   0  0  0  0  0  0  0  0  0  0  0  0
  147.7460  137.5379  150.9231 H   0  0  0  0  0  0  0  0  0  0  0  0
  147.4273  137.8196  153.9905 H   0  0  0  0  0  0  0  0  0  0  0  0
  148.5660  138.1524  152.7044 H   0  0  0  0  0  0  0  0  0  0  0  0
  146.1078  140.8277  152.9197 H   0  0  0  0  0  0  0  0  0  0  0  0
  149.2911  143.4819  155.5985 H   0  0  0  0  0  0  0  0  0  0  0  0
  152.6047  142.7008  156.3530 H   0  0  0  0  0  0  0  0  0  0  0  0
  151.6777  142.3139  157.8108 H   0  0  0  0  0  0  0  0  0  0  0  0
  151.2642  143.7324  156.8492 H   0  0  0  0  0  0  0  0  0  0  0  0
  152.2233  138.7571  156.0526 H   0  0  0  0  0  0  0  0  0  0  0  0
  152.1720  139.8846  157.4066 H   0  0  0  0  0  0  0  0  0  0  0  0
  153.0725  140.2972  155.9394 H   0  0  0  0  0  0  0  0  0  0  0  0
  150.2282  138.6489  154.7982 H   0  0  0  0  0  0  0  0  0  0  0  0
  146.6633  135.0039  153.7643 H   0  0  0  0  0  0  0  0  0  0  0  0
  144.9433  135.0893  153.6540 H   0  0  0  0  0  0  0  0  0  0  0  0
  145.7373  132.7617  153.4871 H   0  0  0  0  0  0  0  0  0  0  0  0
  146.7950  133.1810  152.1627 H   0  0  0  0  0  0  0  0  0  0  0  0
  147.0079  136.0400  151.9181 H   0  0  0  0  0  0  0  0  0  0  0  0
  1  2  1  0  0  0  0
  1 26  1  0  0  0  0
  1 27  1  0  0  0  0
  1 28  1  0  0  0  0
  2  3  2  0  0  0  0
  2  4  1  0  0  0  0
  4 25  1  0  0  0  0
  4  5  1  0  0  0  0
  5  6  1  0  0  0  0
  5 29  1  0  0  0  0
  5 30  1  0  0  0  0
  6  7  1  0  0  0  0
  6 31  1  0  0  0  0
  6 32  1  0  0  0  0
  7  8  1  0  0  0  0
  7 33  1  0  0  0  0
  7 34  1  0  0  0  0
  8  9  1  0  0  0  0
  8 24  1  0  0  0  0
  8 54  1  0  0  0  0
  9 10  1  0  0  0  0
  9 35  1  0  0  0  0
  9 36  1  0  0  0  0
 10 11  1  0  0  0  0
 10 12  1  0  0  0  0
 10 37  1  0  0  0  0
 11 38  1  0  0  0  0
 12 13  1  0  0  0  0
 12 39  1  0  0  0  0
 12 40  1  0  0  0  0
 13 23  1  0  0  0  0
 13 14  1  0  0  0  0
 14 15  2  0  0  0  0
 14 41  1  0  0  0  0
 15 16  1  0  0  0  0
 16 23  2  0  0  0  0
 16 17  1  0  0  0  0
 17 18  2  0  0  0  0
 17 42  1  0  0  0  0
 18 19  1  0  0  0  0
 18 20  1  0  0  0  0
 19 43  1  0  0  0  0
 19 44  1  0  0  0  0
 19 45  1  0  0  0  0
 20 21  1  0  0  0  0
 20 22  2  0  0  0  0
 21 46  1  0  0  0  0
 21 47  1  0  0  0  0
 21 48  1  0  0  0  0
 22 23  1  0  0  0  0
 22 49  1  0  0  0  0
 24 25  1  0  0  0  0
 24 50  1  0  0  0  0
 24 51  1  0  0  0  0
 25 52  1  0  0  0  0
 25 53  1  0  0  0  0
M  CHG  1   8   1
M  END
> <s_m_source_file>
AV-unprocessed.smi

> <i_m_source_file_index>
1643

> <i_lp_mmshare_version>
43012

> <i_f3d_flags>
0

> <s_epik_input>
W0NIM11DKD1PKU4xW0NIMl1bQ0gyXVtDSDJdTihbQ0gyXVtDSDJdMSlbQ0gyXVtDQEhdKFtPSF0pW0NIMl1uKFtjSF1uMiljKGMyMylbY0hdYyhbQ0gzXSljKFtjSF0zKVtDSDNd

> <s_epik_cmdline>
J2VwaWtfcHl0aG9uJywgJy1waCcsICc3LjAnLCAnLXRuJywgJzgnLCAnLW1hJywgJzIwMCcsICctbWV0YWxfYmluZGluZycsICctaW1hZScsICc8aW5maWxlLm1hZT4nLCAnLW9tYWUnLCAnPG91dGZpbGUubWFlPic=

> <r_epik_Ionization_Penalty>
0.189467

> <r_epik_Ionization_Penalty_Charging>
0.101761

> <r_epik_Ionization_Penalty_Neutral>
0.0877056

> <r_epik_State_Penalty>
0.170758

> <r_epik_Charging_Adjusted_Penalty>
0.272519

> <i_epik_Tot_Q>
1

> <i_epik_Tot_abs_Q>
1

> <r_epik_Metal_State_Penalty>
0.0948013

> <b_epik_Metal_Only>
0

> <s_lp_Force_Field>
OPLS_2005

> <r_lp_Energy>
50.1894

> <b_lp_Chiralities_Consistent>
1

> <s_lp_Variant>
AV-unprocessed.smi:1643-2

> <Gold.Version>
5.8.1

> <Gold.Id.Protein>
6NUR|6NUR_protein|mol2

> <Gold.PLP.Fitness>
54.7996

> <Gold.PLP.PLP>
-43.4189

> <Gold.PLP.part.hbond>
-4.7124

> <Gold.PLP.part.metal>
0.0000

> <Gold.PLP.part.buried>
4.4846

> <Gold.PLP.part.nonpolar>
-43.3632

> <Gold.PLP.part.repulsive>
0.3488

> <Gold.PLP.ligand.clash>
0.0000

> <Gold.PLP.ligand.torsion>
1.4942

> <Gold.PLP.Chemscore.Hbond>
3.7517

> <Gold.PLP.Chemscore.CHOScore>
1.0000

> <Gold.PLP.Chemscore.Metal>
0.0000

> <Gold.Chemscore.Hbonds>
donor molecule, donor type, donor heavy atom, donor atom, acceptor molecule, acceptor atom, score
      L1  H     8    54       P1  7948  2.00
      L1  H    11    38       P1  7948  1.00
      P1  H 10785 10796       L1     3  0.61
      L1  C    14    41       P1 10175  1.00

> <Gold.PLP.Chemscore.Internal.Correction>
0.1140

> <Gold.Rescore>
     Score         DG    S(hbond)    S(metal)    S(lipo)     H(rot)  DE(clash)    DE(int)     intcor
     18.19     -21.76       2.63        0.00     110.38       2.12       1.82       1.75       ----

> <Gold.Chemscore.Fitness>
18.1859

> <Gold.Chemscore.DG>
-21.7572

> <Gold.Chemscore.ZeroCoef>
-5.4800

> <Gold.Chemscore.Hbond>
2.6300

> <Gold.Chemscore.Metal>
0.0000

> <Gold.Chemscore.Lipo>
110.3788

> <Gold.Chemscore.Internal_Hbond>
0.0000

> <Gold.Chemscore.DEClash>
1.8168

> <Gold.Chemscore.DEInternal>
1.7545

> <Gold.Chemscore.Rot>
2.1178

> <Gold.Chemscore.Internal.Correction>
   9.000000E+99

> <Gold.Chemscore.Hbonds>
donor molecule, donor type, donor heavy atom, donor atom, acceptor molecule, acceptor atom, score
      L1  H     8    54       P1  7948  0.99
      L1  H    11    38       P1  7948  0.95
      P1  H 10785 10796       L1     3  0.61

> <Gold.Chemscore.Hbond.Weighted>
-8.7843

> <Gold.Chemscore.Metal.Weighted>
-0.0000

> <Gold.Chemscore.Lipo.Weighted>
-12.9143

> <Gold.Chemscore.Internal_Hbond.Weighted>
0.0000

> <Gold.Chemscore.DEClash.Weighted>
1.8168

> <Gold.Chemscore.DEInternal.Weighted>
1.7545

> <Gold.Chemscore.Rot.Weighted>
5.4215

> <Gold.Chemscore.Internal.Correction.Weighted>
   9.000000E+99

> <Gold.Protein.RotatedTorsions>
[ 6907 6896 6895 6894 ] final  -90.45 input  -60.11 | X-H torsion
[ 7974 7965 7964 7962 ] final  115.34 input  175.53 | X-H torsion
[ 8008 7997 7996 7995 ] final    8.23 input   59.86 | X-H torsion
[ 10167 10162 10161 10158 ] final  -31.21 input  -65.29 | X-H torsion
[ 10718 10713 10712 10709 ] final -157.67 input   66.30 | X-H torsion
[ 10763 10752 10751 10750 ] final  -42.61 input  -60.55 | X-H torsion
[ 11005 11000 10999 10996 ] final   81.36 input  -57.11 | X-H torsion

> <Gold.Protein.ActiveResidues>
 VAL166  LYS551  ARG553  GLY616  TRP617  ASP618  TYR619  PRO620  LYS621  CYS622 
 ASP623  PHE694  ASN695  SER759  ASP760  ASP761  ALA762  ILE779  LEU786  VAL792 
 PHE793  MET794  SER795  GLU796  ALA797  LYS798  CYS799  TRP800  GLU811  SER814 

> <Gold.Protein.RotatedAtoms>
  150.6882  134.2430  159.4479 H   0  0  0  0  0  0  0  0  0  0  0  0  # atno 6907 bound_to 6896
  152.0373  134.9730  160.0582 H   0  0  0  0  0  0  0  0  0  0  0  0  # atno 6908 bound_to 6896
  152.1246  133.4338  159.4728 H   0  0  0  0  0  0  0  0  0  0  0  0  # atno 6909 bound_to 6896
  145.1932  139.2989  143.4357 H   0  0  0  0  0  0  0  0  0  0  0  0  # atno 7974 bound_to 7965
  154.7642  140.2790  155.6190 H   0  0  0  0  0  0  0  0  0  0  0  0  # atno 8008 bound_to 7997
  156.2921  140.2654  156.2355 H   0  0  0  0  0  0  0  0  0  0  0  0  # atno 8009 bound_to 7997
  154.9980  140.0373  157.2338 H   0  0  0  0  0  0  0  0  0  0  0  0  # atno 8010 bound_to 7997
  140.7239  143.3788  151.1639 H   0  0  0  0  0  0  0  0  0  0  0  0  # atno 10167 bound_to 10162
  156.5435  130.8574  151.2756 H   0  0  0  0  0  0  0  0  0  0  0  0  # atno 10718 bound_to 10713
  153.9819  135.6716  153.4750 H   0  0  0  0  0  0  0  0  0  0  0  0  # atno 10763 bound_to 10752
  153.0744  135.4956  154.8370 H   0  0  0  0  0  0  0  0  0  0  0  0  # atno 10764 bound_to 10752
  154.7159  135.3107  154.9086 H   0  0  0  0  0  0  0  0  0  0  0  0  # atno 10765 bound_to 10752
  139.9101  134.7991  156.2031 H   0  0  0  0  0  0  0  0  0  0  0  0  # atno 11005 bound_to 11000
  146.3432  140.2152  142.8590 LP  0  0  0  0  0  0  0  0  0  0  0  0  # atno 17320 bound_to 7965
  145.0020  140.8640  143.5276 LP  0  0  0  0  0  0  0  0  0  0  0  0  # atno 17321 bound_to 7965
  139.7373  143.8978  152.3039 LP  0  0  0  0  0  0  0  0  0  0  0  0  # atno 17342 bound_to 10162
  139.8788  144.7029  150.8902 LP  0  0  0  0  0  0  0  0  0  0  0  0  # atno 17343 bound_to 10162
  157.7401  130.9844  150.2355 LP  0  0  0  0  0  0  0  0  0  0  0  0  # atno 17370 bound_to 10713
  156.2950  130.3750  149.7805 LP  0  0  0  0  0  0  0  0  0  0  0  0  # atno 17371 bound_to 10713
  141.0512  133.6888  156.1775 LP  0  0  0  0  0  0  0  0  0  0  0  0  # atno 17394 bound_to 11000
  140.6807  134.4770  157.5589 LP  0  0  0  0  0  0  0  0  0  0  0  0  # atno 17395 bound_to 11000

$$$$
