AV-unprocessed.smi:2135|AV-procd|sdf|8699|dock8
  -GOLD-   2272011453D 1   1.00000     0.00000
 Structure written by MMmdl.
 42 43  0  0  0  0  0  0  0  0  1 V2000
  158.2728  135.3121  162.5135 C   0  0  0  0  0  0  0  0  0  0  0  0
  157.3610  134.1219  161.4477 S   0  0  0  0  0  0  0  0  0  0  0  0
  157.7441  134.3716  160.0496 O   0  0  0  0  0  0  0  0  0  0  0  0
  157.5264  132.7771  162.0199 O   0  0  0  0  0  0  0  0  0  0  0  0
  155.6907  134.5751  161.6321 N   0  0  0  0  0  0  0  0  0  0  0  0
  155.0357  134.4595  162.9507 C   0  0  0  0  0  0  0  0  0  0  0  0
  154.9205  135.8260  163.6489 C   0  0  0  0  0  0  0  0  0  0  0  0
  154.2355  136.8564  162.7438 C   0  0  0  0  0  0  0  0  0  0  0  0
  154.9999  136.9690  161.4125 C   0  0  2  0  0  0  0  0  0  0  0  0
  154.3359  137.9842  160.4731 C   0  0  0  0  0  0  0  0  0  0  0  0
  154.0370  137.6634  159.3223 O   0  0  0  0  0  0  0  0  0  0  0  0
  154.1169  139.2097  160.9743 N   0  0  0  0  0  0  0  0  0  0  0  0
  153.5273  140.3212  160.2384 C   0  0  0  0  0  0  0  0  0  0  0  0
  154.0618  141.6740  160.7363 C   0  0  0  0  0  0  0  0  0  0  0  0
  153.0684  142.7963  160.5125 C   0  0  0  0  0  0  0  0  0  0  0  0
  152.5529  143.5357  161.5967 C   0  0  0  0  0  0  0  0  0  0  0  0
  151.6290  144.5659  161.3364 C   0  0  0  0  0  0  0  0  0  0  0  0
  151.2590  144.8129  159.9990 C   0  0  0  0  0  0  0  0  0  0  0  0
  151.7461  144.1108  158.9533 N   0  0  0  0  0  0  0  0  0  0  0  0
  152.6321  143.1249  159.2115 C   0  0  0  0  0  0  0  0  0  0  0  0
  155.0942  135.5848  160.7339 C   0  0  0  0  0  0  0  0  0  0  0  0
  159.3378  135.0865  162.4668 H   0  0  0  0  0  0  0  0  0  0  0  0
  157.9373  135.2183  163.5448 H   0  0  0  0  0  0  0  0  0  0  0  0
  158.1125  136.3282  162.1584 H   0  0  0  0  0  0  0  0  0  0  0  0
  154.0393  134.0414  162.8033 H   0  0  0  0  0  0  0  0  0  0  0  0
  155.5746  133.7541  163.5828 H   0  0  0  0  0  0  0  0  0  0  0  0
  154.3578  135.7178  164.5765 H   0  0  0  0  0  0  0  0  0  0  0  0
  155.9077  136.1876  163.9335 H   0  0  0  0  0  0  0  0  0  0  0  0
  153.2016  136.5551  162.5683 H   0  0  0  0  0  0  0  0  0  0  0  0
  154.1993  137.8239  163.2464 H   0  0  0  0  0  0  0  0  0  0  0  0
  156.0074  137.3227  161.6313 H   0  0  0  0  0  0  0  0  0  0  0  0
  154.3913  139.3891  161.9293 H   0  0  0  0  0  0  0  0  0  0  0  0
  153.7145  140.2029  159.1698 H   0  0  0  0  0  0  0  0  0  0  0  0
  152.4460  140.2777  160.3716 H   0  0  0  0  0  0  0  0  0  0  0  0
  154.3019  141.6144  161.7988 H   0  0  0  0  0  0  0  0  0  0  0  0
  154.9919  141.9264  160.2253 H   0  0  0  0  0  0  0  0  0  0  0  0
  152.8570  143.3179  162.6101 H   0  0  0  0  0  0  0  0  0  0  0  0
  151.2133  145.1526  162.1421 H   0  0  0  0  0  0  0  0  0  0  0  0
  150.5520  145.5946  159.7634 H   0  0  0  0  0  0  0  0  0  0  0  0
  153.0011  142.5802  158.3547 H   0  0  0  0  0  0  0  0  0  0  0  0
  155.6693  135.6502  159.8102 H   0  0  0  0  0  0  0  0  0  0  0  0
  154.0997  135.2382  160.4488 H   0  0  0  0  0  0  0  0  0  0  0  0
  1  2  1  0  0  0  0
  1 22  1  0  0  0  0
  1 23  1  0  0  0  0
  1 24  1  0  0  0  0
  2  3  2  0  0  0  0
  2  4  2  0  0  0  0
  2  5  1  0  0  0  0
  5 21  1  0  0  0  0
  5  6  1  0  0  0  0
  6  7  1  0  0  0  0
  6 25  1  0  0  0  0
  6 26  1  0  0  0  0
  7  8  1  0  0  0  0
  7 27  1  0  0  0  0
  7 28  1  0  0  0  0
  8  9  1  0  0  0  0
  8 29  1  0  0  0  0
  8 30  1  0  0  0  0
  9 10  1  0  0  0  0
  9 21  1  0  0  0  0
  9 31  1  0  0  0  0
 10 11  2  0  0  0  0
 10 12  1  0  0  0  0
 12 13  1  0  0  0  0
 12 32  1  0  0  0  0
 13 14  1  0  0  0  0
 13 33  1  0  0  0  0
 13 34  1  0  0  0  0
 14 15  1  0  0  0  0
 14 35  1  0  0  0  0
 14 36  1  0  0  0  0
 15 20  1  0  0  0  0
 15 16  2  0  0  0  0
 16 17  1  0  0  0  0
 16 37  1  0  0  0  0
 17 18  2  0  0  0  0
 17 38  1  0  0  0  0
 18 19  1  0  0  0  0
 18 39  1  0  0  0  0
 19 20  2  0  0  0  0
 20 40  1  0  0  0  0
 21 41  1  0  0  0  0
 21 42  1  0  0  0  0
M  END
> <s_m_source_file>
AV-unprocessed.smi

> <i_m_source_file_index>
2135

> <i_lp_mmshare_version>
43012

> <i_f3d_flags>
0

> <s_epik_input>
W0NIM11TKD1PKSg9TylOMVtDSDJdW0NIMl1bQ0gyXVtDQEhdKFtDSDJdMSlDKD1PKVtOSF1bQ0gyXVtDSDJdYzJbY0hdW2NIXVtjSF1uW2NIXTI=

> <s_epik_cmdline>
J2VwaWtfcHl0aG9uJywgJy1waCcsICc3LjAnLCAnLXRuJywgJzgnLCAnLW1hJywgJzIwMCcsICctbWV0YWxfYmluZGluZycsICctaW1hZScsICc8aW5maWxlLm1hZT4nLCAnLW9tYWUnLCAnPG91dGZpbGUubWFlPic=

> <r_epik_Ionization_Penalty>
0.0134582

> <r_epik_Ionization_Penalty_Charging>
0

> <r_epik_Ionization_Penalty_Neutral>
0.0134582

> <r_epik_State_Penalty>
0.010475

> <r_epik_Charging_Adjusted_Penalty>
0.010475

> <i_epik_Tot_Q>
0

> <i_epik_Tot_abs_Q>
0

> <r_epik_Metal_State_Penalty>
0.0102416

> <b_epik_Metal_Only>
0

> <s_lp_Force_Field>
OPLS_2005

> <r_lp_Energy>
-1.59051

> <b_lp_Chiralities_Consistent>
1

> <s_lp_Variant>
AV-unprocessed.smi:2135-2

> <Gold.Version>
5.8.1

> <Gold.Id.Protein>
6NUR|6NUR_protein|mol2

> <Gold.PLP.Fitness>
41.1093

> <Gold.PLP.PLP>
-41.9182

> <Gold.PLP.part.hbond>
0.0000

> <Gold.PLP.part.metal>
0.0000

> <Gold.PLP.part.buried>
-5.4795

> <Gold.PLP.part.nonpolar>
-36.6199

> <Gold.PLP.part.repulsive>
0.0782

> <Gold.PLP.ligand.clash>
0.0000

> <Gold.PLP.ligand.torsion>
1.4466

> <Gold.PLP.Chemscore.Hbond>
0.0000

> <Gold.PLP.Chemscore.CHOScore>
0.0000

> <Gold.PLP.Chemscore.Metal>
0.0000

> <Gold.PLP.Chemscore.Internal.Correction>
2.0843

> <Gold.Rescore>
     Score         DG    S(hbond)    S(metal)    S(lipo)     H(rot)  DE(clash)    DE(int)     intcor
     14.14     -15.68       0.00        0.00     121.37       1.56       0.03       1.51       ----

> <Gold.Chemscore.Fitness>
14.1380

> <Gold.Chemscore.DG>
-15.6761

> <Gold.Chemscore.ZeroCoef>
-5.4800

> <Gold.Chemscore.Hbond>
0.0000

> <Gold.Chemscore.Metal>
0.0000

> <Gold.Chemscore.Lipo>
121.3733

> <Gold.Chemscore.Internal_Hbond>
0.0000

> <Gold.Chemscore.DEClash>
0.0310

> <Gold.Chemscore.DEInternal>
1.5072

> <Gold.Chemscore.Rot>
1.5643

> <Gold.Chemscore.Internal.Correction>
   9.000000E+99

> <Gold.Chemscore.Hbond.Weighted>
-0.0000

> <Gold.Chemscore.Metal.Weighted>
-0.0000

> <Gold.Chemscore.Lipo.Weighted>
-14.2007

> <Gold.Chemscore.Internal_Hbond.Weighted>
0.0000

> <Gold.Chemscore.DEClash.Weighted>
0.0310

> <Gold.Chemscore.DEInternal.Weighted>
1.5072

> <Gold.Chemscore.Rot.Weighted>
4.0046

> <Gold.Chemscore.Internal.Correction.Weighted>
   9.000000E+99

> <Gold.Protein.RotatedTorsions>
[ 6907 6896 6895 6894 ] final -175.22 input  -60.11 | X-H torsion
[ 7974 7965 7964 7962 ] final  -13.62 input  175.53 | X-H torsion
[ 8008 7997 7996 7995 ] final    1.74 input   59.86 | X-H torsion
[ 10167 10162 10161 10158 ] final   40.60 input  -65.29 | X-H torsion
[ 10718 10713 10712 10709 ] final  -55.40 input   66.30 | X-H torsion
[ 10763 10752 10751 10750 ] final -134.98 input  -60.55 | X-H torsion
[ 11005 11000 10999 10996 ] final  -90.67 input  -57.11 | X-H torsion

> <Gold.Protein.ActiveResidues>
 VAL166  LYS551  ARG553  GLY616  TRP617  ASP618  TYR619  PRO620  LYS621  CYS622 
 ASP623  PHE694  ASN695  SER759  ASP760  ASP761  ALA762  ILE779  LEU786  VAL792 
 PHE793  MET794  SER795  GLU796  ALA797  LYS798  CYS799  TRP800  GLU811  SER814 

> <Gold.Protein.RotatedAtoms>
  151.5851  133.3373  159.3015 H   0  0  0  0  0  0  0  0  0  0  0  0  # atno 6907 bound_to 6896
  150.8292  134.7540  159.6850 H   0  0  0  0  0  0  0  0  0  0  0  0  # atno 6908 bound_to 6896
  152.4377  134.5659  159.9959 H   0  0  0  0  0  0  0  0  0  0  0  0  # atno 6909 bound_to 6896
  146.2107  140.3229  142.8392 H   0  0  0  0  0  0  0  0  0  0  0  0  # atno 7974 bound_to 7965
  154.6833  140.2637  155.6886 H   0  0  0  0  0  0  0  0  0  0  0  0  # atno 8008 bound_to 7997
  156.2705  140.2806  156.1308 H   0  0  0  0  0  0  0  0  0  0  0  0  # atno 8009 bound_to 7997
  155.1000  140.0374  157.2684 H   0  0  0  0  0  0  0  0  0  0  0  0  # atno 8010 bound_to 7997
  140.3725  144.2086  150.6132 H   0  0  0  0  0  0  0  0  0  0  0  0  # atno 10167 bound_to 10162
  156.1372  130.4156  150.0166 H   0  0  0  0  0  0  0  0  0  0  0  0  # atno 10718 bound_to 10713
  154.8710  135.3717  154.4824 H   0  0  0  0  0  0  0  0  0  0  0  0  # atno 10763 bound_to 10752
  153.5477  135.7025  153.5611 H   0  0  0  0  0  0  0  0  0  0  0  0  # atno 10764 bound_to 10752
  153.3744  135.4013  155.1776 H   0  0  0  0  0  0  0  0  0  0  0  0  # atno 10765 bound_to 10752
  141.1561  133.7706  156.9770 H   0  0  0  0  0  0  0  0  0  0  0  0  # atno 11005 bound_to 11000
  144.8907  140.7520  143.5928 LP  0  0  0  0  0  0  0  0  0  0  0  0  # atno 17320 bound_to 7965
  145.3152  139.1806  143.4617 LP  0  0  0  0  0  0  0  0  0  0  0  0  # atno 17321 bound_to 7965
  140.5019  143.2315  151.8666 LP  0  0  0  0  0  0  0  0  0  0  0  0  # atno 17342 bound_to 10162
  139.4802  144.5050  151.9010 LP  0  0  0  0  0  0  0  0  0  0  0  0  # atno 17343 bound_to 10162
  156.8061  130.9308  151.3645 LP  0  0  0  0  0  0  0  0  0  0  0  0  # atno 17370 bound_to 10713
  157.6543  130.8911  149.9696 LP  0  0  0  0  0  0  0  0  0  0  0  0  # atno 17371 bound_to 10713
  140.1091  134.9488  157.2039 LP  0  0  0  0  0  0  0  0  0  0  0  0  # atno 17394 bound_to 11000
  140.3217  134.2909  155.7245 LP  0  0  0  0  0  0  0  0  0  0  0  0  # atno 17395 bound_to 11000

$$$$
