AV-unprocessed.smi:501|AV-procd|sdf|2742|dock1
  -GOLD-   2262023203D 1   1.00000     0.00000
 Structure written by MMmdl.
 45 47  0  0  0  0  0  0  0  0  1 V2000
  147.8233  126.8896  150.7507 C   0  0  0  0  0  0  0  0  0  0  0  0
  147.3881  128.1965  151.3815 C   0  0  0  0  0  0  0  0  0  0  0  0
  146.3167  128.9231  150.8257 C   0  0  0  0  0  0  0  0  0  0  0  0
  145.9106  130.1354  151.4125 C   0  0  0  0  0  0  0  0  0  0  0  0
  146.5734  130.6214  152.5554 C   0  0  0  0  0  0  0  0  0  0  0  0
  147.6451  129.9056  153.1272 C   0  0  0  0  0  0  0  0  0  0  0  0
  148.2337  130.4522  154.2474 O   0  0  0  0  0  0  0  0  0  0  0  0
  148.2221  131.8653  154.3910 C   0  0  0  0  0  0  0  0  0  0  0  0
  149.5818  132.4124  153.9413 C   0  0  0  0  0  0  0  0  0  0  0  0
  150.5744  132.3381  155.0043 N   0  0  0  0  0  0  0  0  0  0  0  0
  151.1643  133.3439  155.7038 C   0  0  0  0  0  0  0  0  0  0  0  0
  150.8523  134.7961  155.4878 C   0  0  0  0  0  0  0  0  0  0  0  0
  152.0949  135.6209  155.1123 C   0  0  0  0  0  0  0  0  0  0  0  0
  151.7395  136.8152  154.3545 N   0  0  0  0  0  0  0  0  0  0  0  0
  152.4362  137.9603  154.3551 C   0  0  0  0  0  0  0  0  0  0  0  0
  153.4706  138.1455  154.9943 O   0  0  0  0  0  0  0  0  0  0  0  0
  152.0428  132.9626  156.6322 N   0  0  0  0  0  0  0  0  0  0  0  0
  152.0234  131.5865  156.5282 C   0  0  0  0  0  0  0  0  0  0  0  0
  152.7398  130.6012  157.2446 C   0  0  0  0  0  0  0  0  0  0  0  0
  152.5481  129.2329  156.9617 C   0  0  0  0  0  0  0  0  0  0  0  0
  151.6394  128.8315  155.9613 C   0  0  0  0  0  0  0  0  0  0  0  0
  150.9166  129.7978  155.2353 C   0  0  0  0  0  0  0  0  0  0  0  0
  151.1128  131.1626  155.5203 C   0  0  0  0  0  0  0  0  0  0  0  0
  148.0488  128.6850  152.5280 C   0  0  0  0  0  0  0  0  0  0  0  0
  147.6884  126.9181  149.6691 H   0  0  0  0  0  0  0  0  0  0  0  0
  147.2323  126.0648  151.1492 H   0  0  0  0  0  0  0  0  0  0  0  0
  148.8755  126.6884  150.9538 H   0  0  0  0  0  0  0  0  0  0  0  0
  145.8038  128.5531  149.9498 H   0  0  0  0  0  0  0  0  0  0  0  0
  145.0894  130.6929  150.9869 H   0  0  0  0  0  0  0  0  0  0  0  0
  146.2544  131.5529  152.9993 H   0  0  0  0  0  0  0  0  0  0  0  0
  147.4273  132.2965  153.7830 H   0  0  0  0  0  0  0  0  0  0  0  0
  148.0414  132.1364  155.4324 H   0  0  0  0  0  0  0  0  0  0  0  0
  149.9465  131.8340  153.0919 H   0  0  0  0  0  0  0  0  0  0  0  0
  149.4892  133.4351  153.5814 H   0  0  0  0  0  0  0  0  0  0  0  0
  150.1153  134.8635  154.6864 H   0  0  0  0  0  0  0  0  0  0  0  0
  150.3663  135.2221  156.3630 H   0  0  0  0  0  0  0  0  0  0  0  0
  152.6205  135.9395  156.0111 H   0  0  0  0  0  0  0  0  0  0  0  0
  152.7998  135.0119  154.5435 H   0  0  0  0  0  0  0  0  0  0  0  0
  150.9014  136.7691  153.7931 H   0  0  0  0  0  0  0  0  0  0  0  0
  151.9577  138.7110  153.7075 H   0  0  0  0  0  0  0  0  0  0  0  0
  153.4369  130.8991  158.0138 H   0  0  0  0  0  0  0  0  0  0  0  0
  153.1005  128.4878  157.5154 H   0  0  0  0  0  0  0  0  0  0  0  0
  151.4974  127.7814  155.7512 H   0  0  0  0  0  0  0  0  0  0  0  0
  150.2193  129.4928  154.4691 H   0  0  0  0  0  0  0  0  0  0  0  0
  148.8651  128.1059  152.9323 H   0  0  0  0  0  0  0  0  0  0  0  0
  1  2  1  0  0  0  0
  1 25  1  0  0  0  0
  1 26  1  0  0  0  0
  1 27  1  0  0  0  0
  2 24  1  0  0  0  0
  2  3  2  0  0  0  0
  3  4  1  0  0  0  0
  3 28  1  0  0  0  0
  4  5  2  0  0  0  0
  4 29  1  0  0  0  0
  5  6  1  0  0  0  0
  5 30  1  0  0  0  0
  6  7  1  0  0  0  0
  6 24  2  0  0  0  0
  7  8  1  0  0  0  0
  8  9  1  0  0  0  0
  8 31  1  0  0  0  0
  8 32  1  0  0  0  0
  9 10  1  0  0  0  0
  9 33  1  0  0  0  0
  9 34  1  0  0  0  0
 10 23  1  0  0  0  0
 10 11  1  0  0  0  0
 11 12  1  0  0  0  0
 11 17  2  0  0  0  0
 12 13  1  0  0  0  0
 12 35  1  0  0  0  0
 12 36  1  0  0  0  0
 13 14  1  0  0  0  0
 13 37  1  0  0  0  0
 13 38  1  0  0  0  0
 14 15  1  0  0  0  0
 14 39  1  0  0  0  0
 15 16  2  0  0  0  0
 15 40  1  0  0  0  0
 17 18  1  0  0  0  0
 18 23  2  0  0  0  0
 18 19  1  0  0  0  0
 19 20  2  0  0  0  0
 19 41  1  0  0  0  0
 20 21  1  0  0  0  0
 20 42  1  0  0  0  0
 21 22  2  0  0  0  0
 21 43  1  0  0  0  0
 22 23  1  0  0  0  0
 22 44  1  0  0  0  0
 24 45  1  0  0  0  0
M  END
> <s_m_source_file>
AV-unprocessed.smi

> <i_m_source_file_index>
501

> <i_lp_mmshare_version>
43012

> <i_f3d_flags>
0

> <s_epik_input>
W0NIM11jMVtjSF1bY0hdW2NIXWMoW2NIXTEpT1tDSDJdW0NIMl1uKGMobjIpW0NIMl1bQ0gyXVtOSF1bQ0hdPU8pYyhjMjMpW2NIXVtjSF1bY0hdW2NIXTM=

> <s_epik_cmdline>
J2VwaWtfcHl0aG9uJywgJy1waCcsICc3LjAnLCAnLXRuJywgJzgnLCAnLW1hJywgJzIwMCcsICctbWV0YWxfYmluZGluZycsICctaW1hZScsICc8aW5maWxlLm1hZT4nLCAnLW9tYWUnLCAnPG91dGZpbGUubWFlPic=

> <r_lp_tautomer_probability>
1

> <r_epik_Ionization_Penalty>
0.092246

> <r_epik_Ionization_Penalty_Charging>
0

> <r_epik_Ionization_Penalty_Neutral>
0.092246

> <r_epik_State_Penalty>
0.0825475

> <r_epik_Charging_Adjusted_Penalty>
0.0825475

> <i_epik_Tot_Q>
0

> <i_epik_Tot_abs_Q>
0

> <r_epik_Metal_State_Penalty>
0.0713424

> <b_epik_Metal_Only>
0

> <s_lp_Force_Field>
OPLS_2005

> <r_lp_Energy>
15.5248

> <b_lp_Chiralities_Consistent>
1

> <s_lp_Variant>
AV-unprocessed.smi:501-1

> <Gold.Version>
5.8.1

> <Gold.Id.Protein>
6NUR|6NUR_protein|mol2

> <Gold.PLP.Fitness>
49.6074

> <Gold.PLP.PLP>
-46.7152

> <Gold.PLP.part.hbond>
-2.1135

> <Gold.PLP.part.metal>
0.0000

> <Gold.PLP.part.buried>
-7.2171

> <Gold.PLP.part.nonpolar>
-38.0638

> <Gold.PLP.part.repulsive>
0.1625

> <Gold.PLP.ligand.clash>
0.0000

> <Gold.PLP.ligand.torsion>
1.1706

> <Gold.PLP.Chemscore.Hbond>
1.6400

> <Gold.PLP.Chemscore.CHOScore>
0.0000

> <Gold.PLP.Chemscore.Metal>
0.0000

> <Gold.PLP.Chemscore.Internal.Correction>
0.3134

> <Gold.Rescore>
     Score         DG    S(hbond)    S(metal)    S(lipo)     H(rot)  DE(clash)    DE(int)     intcor
     14.51     -16.02       1.34        0.00     109.14       2.61       0.49       1.02       ----

> <Gold.Chemscore.Fitness>
14.5138

> <Gold.Chemscore.DG>
-16.0239

> <Gold.Chemscore.ZeroCoef>
-5.4800

> <Gold.Chemscore.Hbond>
1.3359

> <Gold.Chemscore.Metal>
0.0000

> <Gold.Chemscore.Lipo>
109.1395

> <Gold.Chemscore.Internal_Hbond>
0.0000

> <Gold.Chemscore.DEClash>
0.4874

> <Gold.Chemscore.DEInternal>
1.0227

> <Gold.Chemscore.Rot>
2.6122

> <Gold.Chemscore.Internal.Correction>
   9.000000E+99

> <Gold.Chemscore.Hbonds>
donor molecule, donor type, donor heavy atom, donor atom, acceptor molecule, acceptor atom, score
      P1  H  7997  8009       L1    16  0.05

> <Gold.Chemscore.Hbond.Weighted>
-4.4618

> <Gold.Chemscore.Metal.Weighted>
-0.0000

> <Gold.Chemscore.Lipo.Weighted>
-12.7693

> <Gold.Chemscore.Internal_Hbond.Weighted>
0.0000

> <Gold.Chemscore.DEClash.Weighted>
0.4874

> <Gold.Chemscore.DEInternal.Weighted>
1.0227

> <Gold.Chemscore.Rot.Weighted>
6.6872

> <Gold.Chemscore.Internal.Correction.Weighted>
   9.000000E+99

> <Gold.Protein.RotatedTorsions>
[ 6907 6896 6895 6894 ] final   12.97 input  -60.11 | X-H torsion
[ 7974 7965 7964 7962 ] final  -58.02 input  175.53 | X-H torsion
[ 8008 7997 7996 7995 ] final -143.85 input   59.86 | X-H torsion
[ 10167 10162 10161 10158 ] final -158.22 input  -65.29 | X-H torsion
[ 10718 10713 10712 10709 ] final  146.76 input   66.30 | X-H torsion
[ 10763 10752 10751 10750 ] final  -54.57 input  -60.55 | X-H torsion
[ 11005 11000 10999 10996 ] final -132.13 input  -57.11 | X-H torsion

> <Gold.Protein.ActiveResidues>
 VAL166  LYS551  ARG553  GLY616  TRP617  ASP618  TYR619  PRO620  LYS621  CYS622 
 ASP623  PHE694  ASN695  SER759  ASP760  ASP761  ALA762  ILE779  LEU786  VAL792 
 PHE793  MET794  SER795  GLU796  ALA797  LYS798  CYS799  TRP800  GLU811  SER814 

> <Gold.Protein.RotatedAtoms>
  151.7788  135.0767  160.0370 H   0  0  0  0  0  0  0  0  0  0  0  0  # atno 6907 bound_to 6896
  152.3238  133.5878  159.5771 H   0  0  0  0  0  0  0  0  0  0  0  0  # atno 6908 bound_to 6896
  150.7384  133.9888  159.3642 H   0  0  0  0  0  0  0  0  0  0  0  0  # atno 6909 bound_to 6896
  145.8442  140.8396  143.0019 H   0  0  0  0  0  0  0  0  0  0  0  0  # atno 7974 bound_to 7965
  155.5173  140.0588  157.2913 H   0  0  0  0  0  0  0  0  0  0  0  0  # atno 8008 bound_to 7997
  154.4530  140.1959  156.0409 H   0  0  0  0  0  0  0  0  0  0  0  0  # atno 8009 bound_to 7997
  156.0743  140.3256  155.7618 H   0  0  0  0  0  0  0  0  0  0  0  0  # atno 8010 bound_to 7997
  139.6709  143.9747  152.2283 H   0  0  0  0  0  0  0  0  0  0  0  0  # atno 10167 bound_to 10162
  157.3292  131.0917  151.1176 H   0  0  0  0  0  0  0  0  0  0  0  0  # atno 10718 bound_to 10713
  154.1769  135.6450  153.5024 H   0  0  0  0  0  0  0  0  0  0  0  0  # atno 10763 bound_to 10752
  153.0069  135.5397  154.6554 H   0  0  0  0  0  0  0  0  0  0  0  0  # atno 10764 bound_to 10752
  154.5908  135.2934  155.0609 H   0  0  0  0  0  0  0  0  0  0  0  0  # atno 10765 bound_to 10752
  140.9197  134.1460  157.4324 H   0  0  0  0  0  0  0  0  0  0  0  0  # atno 11005 bound_to 11000
  144.6732  140.0857  143.7467 LP  0  0  0  0  0  0  0  0  0  0  0  0  # atno 17320 bound_to 7965
  145.9431  139.2682  143.1257 LP  0  0  0  0  0  0  0  0  0  0  0  0  # atno 17321 bound_to 7965
  139.9511  144.6620  150.8171 LP  0  0  0  0  0  0  0  0  0  0  0  0  # atno 17342 bound_to 10162
  140.7617  143.3182  151.2684 LP  0  0  0  0  0  0  0  0  0  0  0  0  # atno 17343 bound_to 10162
  157.2431  130.6579  149.5898 LP  0  0  0  0  0  0  0  0  0  0  0  0  # atno 17370 bound_to 10713
  155.9694  130.4562  150.5916 LP  0  0  0  0  0  0  0  0  0  0  0  0  # atno 17371 bound_to 10713
  139.8773  134.9967  156.5807 LP  0  0  0  0  0  0  0  0  0  0  0  0  # atno 17394 bound_to 11000
  140.8004  133.8510  155.8721 LP  0  0  0  0  0  0  0  0  0  0  0  0  # atno 17395 bound_to 11000

$$$$
