AV-unprocessed.smi:1419|AV-procd|sdf|5774|dock2
  -GOLD-   22720 5413D 1   1.00000     0.00000
 Structure written by MMmdl.
 42 43  0  0  0  0  0  0  0  0  2 V2000
  151.4786  139.2341  156.7394 C   0  0  0  0  0  0  0  0  0  0  0  0
  150.7653  140.5833  156.8982 C   0  0  2  0  0  0  0  0  0  0  0  0
  150.4271  141.2051  155.5255 C   0  0  0  0  0  0  0  0  0  0  0  0
  149.5560  140.3531  154.7084 N   0  0  0  0  0  0  0  0  0  0  0  0
  148.2323  140.5578  154.4128 C   0  0  0  0  0  0  0  0  0  0  0  0
  147.8351  139.4951  153.6430 C   0  0  0  0  0  0  0  0  0  0  0  0
  148.9338  138.6913  153.4956 N   0  3  0  0  0  0  0  0  0  0  0  0
  149.9806  139.2175  154.1398 C   0  0  0  0  0  0  0  0  0  0  0  0
  151.6156  141.4824  157.6769 N   0  0  0  0  0  0  0  0  0  0  0  0
  152.2150  141.1877  158.8441 C   0  0  0  0  0  0  0  0  0  0  0  0
  152.1696  140.0608  159.3396 O   0  0  0  0  0  0  0  0  0  0  0  0
  152.8645  142.2268  159.4235 N   0  0  0  0  0  0  0  0  0  0  0  0
  152.6949  143.6497  159.1007 C   0  0  0  0  0  0  0  0  0  0  0  0
  151.8226  144.2842  160.2026 C   0  0  2  0  0  0  0  0  0  0  0  0
  151.6178  145.7874  159.9880 C   0  0  0  0  0  0  0  0  0  0  0  0
  152.4586  144.0956  161.4669 O   0  0  0  0  0  0  0  0  0  0  0  0
  152.7015  142.7278  161.7981 C   0  0  2  0  0  0  0  0  0  0  0  0
  153.3754  142.6790  163.1730 C   0  0  0  0  0  0  0  0  0  0  0  0
  153.5737  142.0907  160.6971 C   0  0  0  0  0  0  0  0  0  0  0  0
  150.8655  138.5303  156.1756 H   0  0  0  0  0  0  0  0  0  0  0  0
  151.6860  138.7829  157.7102 H   0  0  0  0  0  0  0  0  0  0  0  0
  152.4274  139.3444  156.2131 H   0  0  0  0  0  0  0  0  0  0  0  0
  149.8358  140.3925  157.4376 H   0  0  0  0  0  0  0  0  0  0  0  0
  149.9347  142.1707  155.6499 H   0  0  0  0  0  0  0  0  0  0  0  0
  151.3379  141.3860  154.9529 H   0  0  0  0  0  0  0  0  0  0  0  0
  147.6833  141.4169  154.7702 H   0  0  0  0  0  0  0  0  0  0  0  0
  146.8785  139.2563  153.2016 H   0  0  0  0  0  0  0  0  0  0  0  0
  150.9698  138.7998  154.2003 H   0  0  0  0  0  0  0  0  0  0  0  0
  151.7205  142.4226  157.3238 H   0  0  0  0  0  0  0  0  0  0  0  0
  153.6736  144.1312  159.0707 H   0  0  0  0  0  0  0  0  0  0  0  0
  152.2524  143.8302  158.1210 H   0  0  0  0  0  0  0  0  0  0  0  0
  150.8453  143.7988  160.2224 H   0  0  0  0  0  0  0  0  0  0  0  0
  151.1181  145.9843  159.0393 H   0  0  0  0  0  0  0  0  0  0  0  0
  152.5702  146.3184  159.9819 H   0  0  0  0  0  0  0  0  0  0  0  0
  151.0041  146.2145  160.7814 H   0  0  0  0  0  0  0  0  0  0  0  0
  151.7458  142.2037  161.8595 H   0  0  0  0  0  0  0  0  0  0  0  0
  153.5655  141.6505  163.4807 H   0  0  0  0  0  0  0  0  0  0  0  0
  152.7447  143.1416  163.9324 H   0  0  0  0  0  0  0  0  0  0  0  0
  154.3289  143.2078  163.1643 H   0  0  0  0  0  0  0  0  0  0  0  0
  153.7979  141.0515  160.9431 H   0  0  0  0  0  0  0  0  0  0  0  0
  154.5379  142.5970  160.6345 H   0  0  0  0  0  0  0  0  0  0  0  0
  148.9536  137.8219  152.9776 H   0  0  0  0  0  0  0  0  0  0  0  0
  1  2  1  0  0  0  0
  1 20  1  0  0  0  0
  1 21  1  0  0  0  0
  1 22  1  0  0  0  0
  2  3  1  0  0  0  0
  2  9  1  0  0  0  0
  2 23  1  0  0  0  0
  3  4  1  0  0  0  0
  3 24  1  0  0  0  0
  3 25  1  0  0  0  0
  4  8  1  0  0  0  0
  4  5  1  0  0  0  0
  5  6  2  0  0  0  0
  5 26  1  0  0  0  0
  6  7  1  0  0  0  0
  6 27  1  0  0  0  0
  7  8  2  0  0  0  0
  7 42  1  0  0  0  0
  8 28  1  0  0  0  0
  9 10  1  0  0  0  0
  9 29  1  0  0  0  0
 10 11  2  0  0  0  0
 10 12  1  0  0  0  0
 12 19  1  0  0  0  0
 12 13  1  0  0  0  0
 13 14  1  0  0  0  0
 13 30  1  0  0  0  0
 13 31  1  0  0  0  0
 14 15  1  0  0  0  0
 14 16  1  0  0  0  0
 14 32  1  0  0  0  0
 15 33  1  0  0  0  0
 15 34  1  0  0  0  0
 15 35  1  0  0  0  0
 16 17  1  0  0  0  0
 17 18  1  0  0  0  0
 17 19  1  0  0  0  0
 17 36  1  0  0  0  0
 18 37  1  0  0  0  0
 18 38  1  0  0  0  0
 18 39  1  0  0  0  0
 19 40  1  0  0  0  0
 19 41  1  0  0  0  0
M  CHG  1   7   1
M  END
> <s_m_source_file>
AV-unprocessed.smi

> <i_m_source_file_index>
1419

> <i_lp_mmshare_version>
43012

> <i_f3d_flags>
0

> <s_epik_input>
W2NIXTFuW2NIXVtjSF1uMVtDSDJdW0NAQEhdKFtDSDNdKVtOSF1DKD1PKU4yW0NIMl1bQ0BASF0oW0NIM10pT1tDQEBIXShbQ0gzXSlbQ0gyXTI=

> <s_epik_cmdline>
J2VwaWtfcHl0aG9uJywgJy1waCcsICc3LjAnLCAnLXRuJywgJzgnLCAnLW1hJywgJzIwMCcsICctbWV0YWxfYmluZGluZycsICctaW1hZScsICc8aW5maWxlLm1hZT4nLCAnLW9tYWUnLCAnPG91dGZpbGUubWFlPic=

> <r_lp_tautomer_probability>
1

> <r_epik_Ionization_Penalty>
0.253607

> <r_epik_Ionization_Penalty_Charging>
0

> <r_epik_Ionization_Penalty_Neutral>
0.253607

> <r_epik_State_Penalty>
0.245018

> <r_epik_Charging_Adjusted_Penalty>
0.245018

> <i_epik_Tot_Q>
1

> <i_epik_Tot_abs_Q>
1

> <r_epik_Metal_State_Penalty>
0.535379

> <b_epik_Metal_Only>
0

> <s_lp_Force_Field>
OPLS_2005

> <r_lp_Energy>
29.0063

> <b_lp_Chiralities_Consistent>
1

> <s_lp_Variant>
AV-unprocessed.smi:1419-1

> <Gold.Version>
5.8.1

> <Gold.Id.Protein>
6NUR|6NUR_protein|mol2

> <Gold.PLP.Fitness>
52.0580

> <Gold.PLP.PLP>
-46.4920

> <Gold.PLP.part.hbond>
-2.0000

> <Gold.PLP.part.metal>
0.0000

> <Gold.PLP.part.buried>
-2.2659

> <Gold.PLP.part.nonpolar>
-42.1031

> <Gold.PLP.part.repulsive>
0.2727

> <Gold.PLP.ligand.clash>
0.0000

> <Gold.PLP.ligand.torsion>
0.2742

> <Gold.PLP.Chemscore.Hbond>
2.0000

> <Gold.PLP.Chemscore.CHOScore>
0.0000

> <Gold.PLP.Chemscore.Metal>
0.0000

> <Gold.Chemscore.Hbonds>
donor molecule, donor type, donor heavy atom, donor atom, acceptor molecule, acceptor atom, score
      L1  H     7    42       P1  7948  2.00

> <Gold.PLP.Chemscore.Internal.Correction>
0.1143

> <Gold.Rescore>
     Score         DG    S(hbond)    S(metal)    S(lipo)     H(rot)  DE(clash)    DE(int)     intcor
     13.64     -16.53       0.99        0.00     101.82       1.63       0.22       2.68       ----

> <Gold.Chemscore.Fitness>
13.6391

> <Gold.Chemscore.DG>
-16.5317

> <Gold.Chemscore.ZeroCoef>
-5.4800

> <Gold.Chemscore.Hbond>
0.9893

> <Gold.Chemscore.Metal>
0.0000

> <Gold.Chemscore.Lipo>
101.8217

> <Gold.Chemscore.Internal_Hbond>
0.0000

> <Gold.Chemscore.DEClash>
0.2173

> <Gold.Chemscore.DEInternal>
2.6752

> <Gold.Chemscore.Rot>
1.6273

> <Gold.Chemscore.Internal.Correction>
   9.000000E+99

> <Gold.Chemscore.Hbonds>
donor molecule, donor type, donor heavy atom, donor atom, acceptor molecule, acceptor atom, score
      L1  H     7    42       P1  7948  1.00

> <Gold.Chemscore.Hbond.Weighted>
-3.3044

> <Gold.Chemscore.Metal.Weighted>
-0.0000

> <Gold.Chemscore.Lipo.Weighted>
-11.9131

> <Gold.Chemscore.Internal_Hbond.Weighted>
0.0000

> <Gold.Chemscore.DEClash.Weighted>
0.2173

> <Gold.Chemscore.DEInternal.Weighted>
2.6752

> <Gold.Chemscore.Rot.Weighted>
4.1658

> <Gold.Chemscore.Internal.Correction.Weighted>
   9.000000E+99

> <Gold.Protein.RotatedTorsions>
[ 6907 6896 6895 6894 ] final  -50.34 input  -60.11 | X-H torsion
[ 7974 7965 7964 7962 ] final  -11.55 input  175.53 | X-H torsion
[ 8008 7997 7996 7995 ] final  130.69 input   59.86 | X-H torsion
[ 10167 10162 10161 10158 ] final -174.50 input  -65.29 | X-H torsion
[ 10718 10713 10712 10709 ] final  -78.20 input   66.30 | X-H torsion
[ 10763 10752 10751 10750 ] final   49.81 input  -60.55 | X-H torsion
[ 11005 11000 10999 10996 ] final -122.96 input  -57.11 | X-H torsion

> <Gold.Protein.ActiveResidues>
 VAL166  LYS551  ARG553  GLY616  TRP617  ASP618  TYR619  PRO620  LYS621  CYS622 
 ASP623  PHE694  ASN695  SER759  ASP760  ASP761  ALA762  ILE779  LEU786  VAL792 
 PHE793  MET794  SER795  GLU796  ALA797  LYS798  CYS799  TRP800  GLU811  SER814 

> <Gold.Protein.RotatedAtoms>
  150.8717  134.8092  159.7159 H   0  0  0  0  0  0  0  0  0  0  0  0  # atno 6907 bound_to 6896
  152.4719  134.4936  159.9713 H   0  0  0  0  0  0  0  0  0  0  0  0  # atno 6908 bound_to 6896
  151.5024  133.3463  159.2906 H   0  0  0  0  0  0  0  0  0  0  0  0  # atno 6909 bound_to 6896
  146.2183  140.2927  142.8369 H   0  0  0  0  0  0  0  0  0  0  0  0  # atno 7974 bound_to 7965
  156.2958  140.2590  156.2803 H   0  0  0  0  0  0  0  0  0  0  0  0  # atno 8008 bound_to 7997
  154.9608  140.0392  157.2208 H   0  0  0  0  0  0  0  0  0  0  0  0  # atno 8009 bound_to 7997
  154.7948  140.2818  155.5969 H   0  0  0  0  0  0  0  0  0  0  0  0  # atno 8010 bound_to 7997
  139.5630  144.1823  152.1269 H   0  0  0  0  0  0  0  0  0  0  0  0  # atno 10167 bound_to 10162
  156.0124  130.4512  150.3461 H   0  0  0  0  0  0  0  0  0  0  0  0  # atno 10718 bound_to 10713
  152.9786  135.5899  154.4150 H   0  0  0  0  0  0  0  0  0  0  0  0  # atno 10763 bound_to 10752
  154.3781  135.2767  155.2229 H   0  0  0  0  0  0  0  0  0  0  0  0  # atno 10764 bound_to 10752
  154.4155  135.6071  153.6033 H   0  0  0  0  0  0  0  0  0  0  0  0  # atno 10765 bound_to 10752
  140.9955  134.0478  157.3602 H   0  0  0  0  0  0  0  0  0  0  0  0  # atno 11005 bound_to 11000
  144.9115  140.7763  143.5804 LP  0  0  0  0  0  0  0  0  0  0  0  0  # atno 17320 bound_to 7965
  145.2858  139.1901  143.4767 LP  0  0  0  0  0  0  0  0  0  0  0  0  # atno 17321 bound_to 7965
  140.1340  144.5262  150.6785 LP  0  0  0  0  0  0  0  0  0  0  0  0  # atno 17342 bound_to 10162
  140.6912  143.2377  151.5127 LP  0  0  0  0  0  0  0  0  0  0  0  0  # atno 17343 bound_to 10162
  157.1555  131.0331  151.2865 LP  0  0  0  0  0  0  0  0  0  0  0  0  # atno 17370 bound_to 10713
  157.4356  130.7515  149.7026 LP  0  0  0  0  0  0  0  0  0  0  0  0  # atno 17371 bound_to 10713
  139.9013  135.0165  156.7279 LP  0  0  0  0  0  0  0  0  0  0  0  0  # atno 17394 bound_to 11000
  140.6972  133.9338  155.8002 LP  0  0  0  0  0  0  0  0  0  0  0  0  # atno 17395 bound_to 11000

$$$$
