AV-unprocessed.smi:1395|AV-procd|sdf|5673|dock8
  -GOLD-   22720 5293D 1   1.00000     0.00000
 Structure written by MMmdl.
 42 43  0  0  0  0  0  0  0  0  3 V2000
  151.6089  144.5115  157.8110 C   0  0  0  0  0  0  0  0  0  0  0  0
  151.7796  143.1170  158.3911 C   0  0  0  0  0  0  0  0  0  0  0  0
  152.6820  142.9191  159.4580 C   0  0  0  0  0  0  0  0  0  0  0  0
  152.8395  141.6289  159.9926 C   0  0  0  0  0  0  0  0  0  0  0  0
  152.0833  140.5845  159.4338 C   0  0  0  0  0  0  0  0  0  0  0  0
  151.2185  140.7647  158.4146 N   0  0  0  0  0  0  0  0  0  0  0  0
  151.0558  142.0036  157.8860 C   0  0  0  0  0  0  0  0  0  0  0  0
  150.1560  142.2684  156.8152 N   0  0  0  0  0  0  0  0  0  0  0  0
  149.5905  141.3952  155.9631 C   0  0  0  0  0  0  0  0  0  0  0  0
  149.8146  140.1852  155.9265 O   0  0  0  0  0  0  0  0  0  0  0  0
  148.7348  142.0127  155.1353 N   0  0  0  0  0  0  0  0  0  0  0  0
  147.9439  141.3609  154.0911 C   0  0  2  0  0  0  0  0  0  0  0  0
  147.0548  142.3907  153.3728 C   0  0  0  0  0  0  0  0  0  0  0  0
  145.9104  142.8925  154.2733 C   0  0  0  0  0  0  0  0  0  0  0  0
  145.0938  141.7667  154.7954 N   0  3  2  0  0  0  0  0  0  0  0  0
  143.9206  142.2413  155.5714 C   0  0  0  0  0  0  0  0  0  0  0  0
  143.0156  141.0625  155.9441 C   0  0  0  0  0  0  0  0  0  0  0  0
  142.5640  140.3977  154.8631 N   0  5  0  0  0  0  0  0  0  0  0  0
  142.7717  140.8364  157.1274 O   0  0  0  0  0  0  0  0  0  0  0  0
  145.9245  140.7797  155.5374 C   0  0  0  0  0  0  0  0  0  0  0  0
  147.0587  140.2316  154.6549 C   0  0  0  0  0  0  0  0  0  0  0  0
  152.2284  145.2387  158.3368 H   0  0  0  0  0  0  0  0  0  0  0  0
  150.5709  144.8350  157.8921 H   0  0  0  0  0  0  0  0  0  0  0  0
  151.8962  144.5241  156.7591 H   0  0  0  0  0  0  0  0  0  0  0  0
  153.2483  143.7442  159.8647 H   0  0  0  0  0  0  0  0  0  0  0  0
  153.5220  141.4446  160.8090 H   0  0  0  0  0  0  0  0  0  0  0  0
  152.1731  139.5780  159.8145 H   0  0  0  0  0  0  0  0  0  0  0  0
  149.8985  143.2372  156.6999 H   0  0  0  0  0  0  0  0  0  0  0  0
  148.6216  143.0109  155.2335 H   0  0  0  0  0  0  0  0  0  0  0  0
  148.6368  140.9384  153.3613 H   0  0  0  0  0  0  0  0  0  0  0  0
  147.6550  143.2324  153.0251 H   0  0  0  0  0  0  0  0  0  0  0  0
  146.6289  141.9336  152.4787 H   0  0  0  0  0  0  0  0  0  0  0  0
  146.3085  143.4703  155.1088 H   0  0  0  0  0  0  0  0  0  0  0  0
  145.2766  143.5680  153.6976 H   0  0  0  0  0  0  0  0  0  0  0  0
  144.2453  142.8166  156.4412 H   0  0  0  0  0  0  0  0  0  0  0  0
  143.3205  142.9175  154.9610 H   0  0  0  0  0  0  0  0  0  0  0  0
  142.9325  140.6442  153.9368 H   0  0  0  0  0  0  0  0  0  0  0  0
  146.3343  141.2461  156.4345 H   0  0  0  0  0  0  0  0  0  0  0  0
  145.3092  139.9451  155.8738 H   0  0  0  0  0  0  0  0  0  0  0  0
  146.6238  139.6712  153.8263 H   0  0  0  0  0  0  0  0  0  0  0  0
  147.6558  139.5138  155.2183 H   0  0  0  0  0  0  0  0  0  0  0  0
  144.7170  141.2873  153.9900 H   0  0  0  0  0  0  0  0  0  0  0  0
  1  2  1  0  0  0  0
  1 22  1  0  0  0  0
  1 23  1  0  0  0  0
  1 24  1  0  0  0  0
  2  7  1  0  0  0  0
  2  3  2  0  0  0  0
  3  4  1  0  0  0  0
  3 25  1  0  0  0  0
  4  5  2  0  0  0  0
  4 26  1  0  0  0  0
  5  6  1  0  0  0  0
  5 27  1  0  0  0  0
  6  7  2  0  0  0  0
  7  8  1  0  0  0  0
  8  9  1  0  0  0  0
  8 28  1  0  0  0  0
  9 10  2  0  0  0  0
  9 11  1  0  0  0  0
 11 12  1  0  0  0  0
 11 29  1  0  0  0  0
 12 21  1  0  0  0  0
 12 13  1  0  0  0  0
 12 30  1  0  0  0  0
 13 14  1  0  0  0  0
 13 31  1  0  0  0  0
 13 32  1  0  0  0  0
 14 15  1  0  0  0  0
 14 33  1  0  0  0  0
 14 34  1  0  0  0  0
 15 16  1  0  0  0  0
 15 20  1  0  0  0  0
 15 42  1  0  0  0  0
 16 17  1  0  0  0  0
 16 35  1  0  0  0  0
 16 36  1  0  0  0  0
 17 18  1  0  0  0  0
 17 19  2  0  0  0  0
 18 37  1  0  0  0  0
 20 21  1  0  0  0  0
 20 38  1  0  0  0  0
 20 39  1  0  0  0  0
 21 40  1  0  0  0  0
 21 41  1  0  0  0  0
M  CHG  1  15   1
M  CHG  1  18  -1
M  END
> <s_m_source_file>
AV-unprocessed.smi

> <i_m_source_file_index>
1395

> <i_lp_mmshare_version>
43012

> <i_f3d_flags>
0

> <s_epik_input>
W0NIM11jMVtjSF1bY0hdW2NIXW5jMVtOSF1DKD1PKVtOSF1bQ0hdMltDSDJdW0NIMl1OKFtDSDJdW0NIMl0yKVtDSDJdQyg9TylbTkgyXQ==

> <s_epik_cmdline>
J2VwaWtfcHl0aG9uJywgJy1waCcsICc3LjAnLCAnLXRuJywgJzgnLCAnLW1hJywgJzIwMCcsICctbWV0YWxfYmluZGluZycsICctaW1hZScsICc8aW5maWxlLm1hZT4nLCAnLW9tYWUnLCAnPG91dGZpbGUubWFlPic=

> <r_epik_Ionization_Penalty>
5.72885

> <r_epik_Ionization_Penalty_Charging>
5.7288

> <r_epik_Ionization_Penalty_Neutral>
4.54304e-05

> <r_epik_State_Penalty>
6.54882

> <r_epik_Charging_Adjusted_Penalty>
12.2776

> <i_epik_Tot_Q>
0

> <i_epik_Tot_abs_Q>
2

> <r_epik_Metal_State_Penalty>
2.51297

> <b_epik_Metal_Only>
1

> <s_lp_Force_Field>
OPLS_2005

> <r_lp_Energy>
8.5501

> <b_lp_Chiralities_Consistent>
1

> <s_lp_Variant>
AV-unprocessed.smi:1395-5

> <Gold.Version>
5.8.1

> <Gold.Id.Protein>
6NUR|6NUR_protein|mol2

> <Gold.PLP.Fitness>
50.8625

> <Gold.PLP.PLP>
-36.0561

> <Gold.PLP.part.hbond>
-4.0000

> <Gold.PLP.part.metal>
0.0000

> <Gold.PLP.part.buried>
-7.3704

> <Gold.PLP.part.nonpolar>
-25.8000

> <Gold.PLP.part.repulsive>
0.2681

> <Gold.PLP.ligand.clash>
0.0000

> <Gold.PLP.ligand.torsion>
0.0837

> <Gold.PLP.Chemscore.Hbond>
4.9833

> <Gold.PLP.Chemscore.CHOScore>
0.0000

> <Gold.PLP.Chemscore.Metal>
0.0000

> <Gold.Chemscore.Hbonds>
donor molecule, donor type, donor heavy atom, donor atom, acceptor molecule, acceptor atom, score
      L1  H     8    28       P1  8028  0.89
      L1  H    11    29       P1  8028  1.00
      L1  H    15    42       P1 10175  2.00
      L1  H    18    37       P1 10175  1.00

> <Gold.PLP.Chemscore.Internal.Correction>
0.0237

> <Gold.Rescore>
     Score         DG    S(hbond)    S(metal)    S(lipo)     H(rot)  DE(clash)    DE(int)     intcor
     20.35     -22.53       3.73        0.00      81.55       1.93       0.87       1.32       ----

> <Gold.Chemscore.Fitness>
20.3463

> <Gold.Chemscore.DG>
-22.5306

> <Gold.Chemscore.ZeroCoef>
-5.4800

> <Gold.Chemscore.Hbond>
3.7306

> <Gold.Chemscore.Metal>
0.0000

> <Gold.Chemscore.Lipo>
81.5508

> <Gold.Chemscore.Internal_Hbond>
0.0000

> <Gold.Chemscore.DEClash>
0.8655

> <Gold.Chemscore.DEInternal>
1.3187

> <Gold.Chemscore.Rot>
1.9341

> <Gold.Chemscore.Internal.Correction>
   9.000000E+99

> <Gold.Chemscore.Hbonds>
donor molecule, donor type, donor heavy atom, donor atom, acceptor molecule, acceptor atom, score
      L1  H     8    28       P1  8028  0.83
      L1  H    11    29       P1  8028  1.00
      L1  H    15    42       P1 10175  0.49
      L1  H    18    37       P1 10175  0.77

> <Gold.Chemscore.Hbond.Weighted>
-12.4604

> <Gold.Chemscore.Metal.Weighted>
-0.0000

> <Gold.Chemscore.Lipo.Weighted>
-9.5414

> <Gold.Chemscore.Internal_Hbond.Weighted>
0.0000

> <Gold.Chemscore.DEClash.Weighted>
0.8655

> <Gold.Chemscore.DEInternal.Weighted>
1.3187

> <Gold.Chemscore.Rot.Weighted>
4.9512

> <Gold.Chemscore.Internal.Correction.Weighted>
   9.000000E+99

> <Gold.Protein.RotatedTorsions>
[ 6907 6896 6895 6894 ] final  145.15 input  -60.11 | X-H torsion
[ 7974 7965 7964 7962 ] final   47.72 input  175.53 | X-H torsion
[ 8008 7997 7996 7995 ] final -166.48 input   59.86 | X-H torsion
[ 10167 10162 10161 10158 ] final  118.68 input  -65.29 | X-H torsion
[ 10718 10713 10712 10709 ] final -176.92 input   66.30 | X-H torsion
[ 10763 10752 10751 10750 ] final  -72.19 input  -60.55 | X-H torsion
[ 11005 11000 10999 10996 ] final  -82.84 input  -57.11 | X-H torsion

> <Gold.Protein.ActiveResidues>
 VAL166  LYS551  ARG553  GLY616  TRP617  ASP618  TYR619  PRO620  LYS621  CYS622 
 ASP623  PHE694  ASN695  SER759  ASP760  ASP761  ALA762  ILE779  LEU786  VAL792 
 PHE793  MET794  SER795  GLU796  ALA797  LYS798  CYS799  TRP800  GLU811  SER814 

> <Gold.Protein.RotatedAtoms>
  152.1846  133.4730  159.4975 H   0  0  0  0  0  0  0  0  0  0  0  0  # atno 6907 bound_to 6896
  150.6940  134.1790  159.4250 H   0  0  0  0  0  0  0  0  0  0  0  0  # atno 6908 bound_to 6896
  151.9703  135.0080  160.0603 H   0  0  0  0  0  0  0  0  0  0  0  0  # atno 6909 bound_to 6896
  146.0271  139.4719  142.9861 H   0  0  0  0  0  0  0  0  0  0  0  0  # atno 7974 bound_to 7965
  155.8645  140.0983  157.1591 H   0  0  0  0  0  0  0  0  0  0  0  0  # atno 8008 bound_to 7997
  154.3992  140.1359  156.4064 H   0  0  0  0  0  0  0  0  0  0  0  0  # atno 8009 bound_to 7997
  155.7820  140.3458  155.5305 H   0  0  0  0  0  0  0  0  0  0  0  0  # atno 8010 bound_to 7997
  139.6096  144.7078  151.2875 H   0  0  0  0  0  0  0  0  0  0  0  0  # atno 10167 bound_to 10162
  156.8218  130.9622  151.3111 H   0  0  0  0  0  0  0  0  0  0  0  0  # atno 10718 bound_to 10713
  154.4423  135.5938  153.6137 H   0  0  0  0  0  0  0  0  0  0  0  0  # atno 10763 bound_to 10752
  152.9806  135.6001  154.3707 H   0  0  0  0  0  0  0  0  0  0  0  0  # atno 10764 bound_to 10752
  154.3558  135.2841  155.2326 H   0  0  0  0  0  0  0  0  0  0  0  0  # atno 10765 bound_to 10752
  141.1661  133.7264  156.8631 H   0  0  0  0  0  0  0  0  0  0  0  0  # atno 11005 bound_to 11000
  145.7100  141.0109  143.1458 LP  0  0  0  0  0  0  0  0  0  0  0  0  # atno 17320 bound_to 7965
  144.7014  139.8746  143.7443 LP  0  0  0  0  0  0  0  0  0  0  0  0  # atno 17321 bound_to 7965
  140.7309  143.6866  150.7957 LP  0  0  0  0  0  0  0  0  0  0  0  0  # atno 17342 bound_to 10162
  140.0458  143.5300  152.2697 LP  0  0  0  0  0  0  0  0  0  0  0  0  # atno 17343 bound_to 10162
  157.6453  130.8839  149.9526 LP  0  0  0  0  0  0  0  0  0  0  0  0  # atno 17370 bound_to 10713
  156.0984  130.3657  150.0263 LP  0  0  0  0  0  0  0  0  0  0  0  0  # atno 17371 bound_to 10713
  140.1834  134.9017  157.2976 LP  0  0  0  0  0  0  0  0  0  0  0  0  # atno 17394 bound_to 11000
  140.2369  134.3841  155.7497 LP  0  0  0  0  0  0  0  0  0  0  0  0  # atno 17395 bound_to 11000

$$$$
