AV-unprocessed.smi:227|AV-procd|sdf|1739|dock4
  -GOLD-   2262020243D 1   1.00000     0.00000
 Structure written by MMmdl.
 54 58  0  0  0  0  0  0  0  0  1 V2000
  146.3551  133.1521  160.0481 O   0  0  0  0  0  0  0  0  0  0  0  0
  146.6774  134.2285  160.9049 C   0  0  0  0  0  0  0  0  0  0  0  0
  145.7982  135.4720  160.6150 C   0  0  2  0  0  0  0  0  0  0  0  0
  146.0329  136.0018  159.1692 C   0  0  0  0  0  0  0  0  0  0  0  0
  147.0972  136.9894  159.0609 N   0  0  0  0  0  0  0  0  0  0  0  0
  148.3343  136.9336  159.6609 C   0  0  0  0  0  0  0  0  0  0  0  0
  149.1158  137.9497  159.4204 N   0  0  0  0  0  0  0  0  0  0  0  0
  148.3703  138.7654  158.5771 C   0  0  0  0  0  0  0  0  0  0  0  0
  148.6004  140.0218  157.9441 C   0  0  0  0  0  0  0  0  0  0  0  0
  149.7403  140.7480  158.0988 N   0  0  0  0  0  0  0  0  0  0  0  0
  151.0461  140.1755  157.8095 C   0  0  2  0  0  0  0  0  0  0  0  0
  151.9996  141.2585  158.3429 C   0  0  0  0  0  0  0  0  0  0  0  0
  151.2114  142.5389  158.0196 C   0  0  0  0  0  0  0  0  0  0  0  0
  149.9652  141.9605  157.3244 C   0  0  1  0  0  0  0  0  0  0  0  0
  150.3766  141.4699  155.9129 C   0  0  2  0  0  0  0  0  0  0  0  0
  149.1965  141.2911  154.9372 C   0  0  0  0  0  0  0  0  0  0  0  0
  149.6495  140.7298  153.7238 O   0  0  0  0  0  0  0  0  0  0  0  0
  151.1087  140.1594  156.2677 C   0  0  0  0  0  0  0  0  0  0  0  0
  147.6181  140.4990  157.1342 N   0  0  0  0  0  0  0  0  0  0  0  0
  146.4792  139.8201  156.9767 C   0  0  0  0  0  0  0  0  0  0  0  0
  146.1206  138.6580  157.5225 N   0  0  0  0  0  0  0  0  0  0  0  0
  147.1056  138.1611  158.3230 C   0  0  0  0  0  0  0  0  0  0  0  0
  145.9873  136.5804  161.6991 C   0  0  1  0  0  0  0  0  0  0  0  0
  144.7562  137.4571  161.9115 C   0  0  0  0  0  0  0  0  0  0  0  0
  143.9171  136.6727  162.9209 C   0  0  0  0  0  0  0  0  0  0  0  0
  144.8207  135.7932  163.5805 O   0  0  0  0  0  0  0  0  0  0  0  0
  146.1417  136.0688  163.1390 C   0  0  0  0  0  0  0  0  0  0  0  0
  147.1380  132.8892  159.5882 H   0  0  0  0  0  0  0  0  0  0  0  0
  146.5229  133.8581  161.9156 H   0  0  0  0  0  0  0  0  0  0  0  0
  147.7380  134.4623  160.8134 H   0  0  0  0  0  0  0  0  0  0  0  0
  144.7602  135.1399  160.6625 H   0  0  0  0  0  0  0  0  0  0  0  0
  146.2735  135.1774  158.4979 H   0  0  0  0  0  0  0  0  0  0  0  0
  145.1229  136.4313  158.7539 H   0  0  0  0  0  0  0  0  0  0  0  0
  148.6377  136.1137  160.2955 H   0  0  0  0  0  0  0  0  0  0  0  0
  151.2299  139.2000  158.2614 H   0  0  0  0  0  0  0  0  0  0  0  0
  152.1425  141.1588  159.4196 H   0  0  0  0  0  0  0  0  0  0  0  0
  152.9792  141.2290  157.8644 H   0  0  0  0  0  0  0  0  0  0  0  0
  150.9352  143.0585  158.9381 H   0  0  0  0  0  0  0  0  0  0  0  0
  151.7682  143.2363  157.3927 H   0  0  0  0  0  0  0  0  0  0  0  0
  149.1446  142.6758  157.3116 H   0  0  0  0  0  0  0  0  0  0  0  0
  151.0716  142.1845  155.4691 H   0  0  0  0  0  0  0  0  0  0  0  0
  148.4197  140.6486  155.3506 H   0  0  0  0  0  0  0  0  0  0  0  0
  148.7354  142.2550  154.7209 H   0  0  0  0  0  0  0  0  0  0  0  0
  148.9565  140.2001  153.3601 H   0  0  0  0  0  0  0  0  0  0  0  0
  152.1309  140.1322  155.8890 H   0  0  0  0  0  0  0  0  0  0  0  0
  150.5849  139.2898  155.8685 H   0  0  0  0  0  0  0  0  0  0  0  0
  145.7499  140.2751  156.3229 H   0  0  0  0  0  0  0  0  0  0  0  0
  146.8525  137.1901  161.4363 H   0  0  0  0  0  0  0  0  0  0  0  0
  145.0652  138.4031  162.3588 H   0  0  0  0  0  0  0  0  0  0  0  0
  144.1966  137.7042  161.0122 H   0  0  0  0  0  0  0  0  0  0  0  0
  143.4188  137.3319  163.6320 H   0  0  0  0  0  0  0  0  0  0  0  0
  143.1548  136.0775  162.4173 H   0  0  0  0  0  0  0  0  0  0  0  0
  146.7959  135.2095  163.2657 H   0  0  0  0  0  0  0  0  0  0  0  0
  146.5484  136.8624  163.7680 H   0  0  0  0  0  0  0  0  0  0  0  0
  1  2  1  0  0  0  0
  1 28  1  0  0  0  0
  2  3  1  0  0  0  0
  2 29  1  0  0  0  0
  2 30  1  0  0  0  0
  3  4  1  0  0  0  0
  3 23  1  0  0  0  0
  3 31  1  0  0  0  0
  4  5  1  0  0  0  0
  4 32  1  0  0  0  0
  4 33  1  0  0  0  0
  5 22  1  0  0  0  0
  5  6  1  0  0  0  0
  6  7  2  0  0  0  0
  6 34  1  0  0  0  0
  7  8  1  0  0  0  0
  8 22  2  0  0  0  0
  8  9  1  0  0  0  0
  9 10  1  0  0  0  0
  9 19  2  0  0  0  0
 10 14  1  0  0  0  0
 10 11  1  0  0  0  0
 11 18  1  0  0  0  0
 11 12  1  0  0  0  0
 11 35  1  0  0  0  0
 12 13  1  0  0  0  0
 12 36  1  0  0  0  0
 12 37  1  0  0  0  0
 13 14  1  0  0  0  0
 13 38  1  0  0  0  0
 13 39  1  0  0  0  0
 14 15  1  0  0  0  0
 14 40  1  0  0  0  0
 15 16  1  0  0  0  0
 15 18  1  0  0  0  0
 15 41  1  0  0  0  0
 16 17  1  0  0  0  0
 16 42  1  0  0  0  0
 16 43  1  0  0  0  0
 17 44  1  0  0  0  0
 18 45  1  0  0  0  0
 18 46  1  0  0  0  0
 19 20  1  0  0  0  0
 20 21  2  0  0  0  0
 20 47  1  0  0  0  0
 21 22  1  0  0  0  0
 23 27  1  0  0  0  0
 23 24  1  0  0  0  0
 23 48  1  0  0  0  0
 24 25  1  0  0  0  0
 24 49  1  0  0  0  0
 24 50  1  0  0  0  0
 25 26  1  0  0  0  0
 25 51  1  0  0  0  0
 25 52  1  0  0  0  0
 26 27  1  0  0  0  0
 27 53  1  0  0  0  0
 27 54  1  0  0  0  0
M  END
> <s_m_source_file>
AV-unprocessed.smi

> <i_m_source_file_index>
227

> <i_lp_mmshare_version>
43012

> <i_f3d_flags>
0

> <s_epik_input>
W0NIMl0xT1tDSDJdW0NIMl1bQ0BIXTFbQ0BIXShbQ0gyXVtPSF0pW0NIMl1uKFtjSF1uMiljKGMyMyluW2NIXW5jM04oW0NASF00NSlbQ0BASF0oW0NIMl1bQ0gyXTQpW0NASF0oW0NIMl01KVtDSDJdW09IXQ==

> <s_epik_cmdline>
J2VwaWtfcHl0aG9uJywgJy1waCcsICc3LjAnLCAnLXRuJywgJzgnLCAnLW1hJywgJzIwMCcsICctbWV0YWxfYmluZGluZycsICctaW1hZScsICc8aW5maWxlLm1hZT4nLCAnLW9tYWUnLCAnPG91dGZpbGUubWFlPic=

> <r_lp_tautomer_probability>
1

> <r_epik_Ionization_Penalty>
0.0055791

> <r_epik_Ionization_Penalty_Charging>
0

> <r_epik_Ionization_Penalty_Neutral>
0.0055791

> <r_epik_State_Penalty>
0.00401299

> <r_epik_Charging_Adjusted_Penalty>
0.00401299

> <i_epik_Tot_Q>
0

> <i_epik_Tot_abs_Q>
0

> <r_epik_Metal_State_Penalty>
-0

> <b_epik_Metal_Only>
0

> <s_lp_Force_Field>
OPLS_2005

> <r_lp_Energy>
89.9209

> <b_lp_Chiralities_Consistent>
1

> <s_lp_Variant>
AV-unprocessed.smi:227-13

> <Gold.Version>
5.8.1

> <Gold.Id.Protein>
6NUR|6NUR_protein|mol2

> <Gold.PLP.Fitness>
41.4666

> <Gold.PLP.PLP>
-38.7236

> <Gold.PLP.part.hbond>
-3.7581

> <Gold.PLP.part.metal>
0.0000

> <Gold.PLP.part.buried>
-6.2654

> <Gold.PLP.part.nonpolar>
-28.2783

> <Gold.PLP.part.repulsive>
0.0155

> <Gold.PLP.ligand.clash>
0.0000

> <Gold.PLP.ligand.torsion>
1.0723

> <Gold.PLP.Chemscore.Hbond>
1.5525

> <Gold.PLP.Chemscore.CHOScore>
0.0000

> <Gold.PLP.Chemscore.Metal>
0.0000

> <Gold.Chemscore.Hbonds>
donor molecule, donor type, donor heavy atom, donor atom, acceptor molecule, acceptor atom, score
      L1  H    17    44       P1  7957  0.01
      P1  H  7989  7998       L1    17  0.46
      P1  H  8011  8017       L1    17  0.60

> <Gold.PLP.Chemscore.Internal.Correction>
0.2303

> <Gold.Rescore>
     Score         DG    S(hbond)    S(metal)    S(lipo)     H(rot)  DE(clash)    DE(int)     intcor
      7.85     -10.89       1.24        0.00      89.83       3.61       0.12       2.92       ----

> <Gold.Chemscore.Fitness>
7.8502

> <Gold.Chemscore.DG>
-10.8891

> <Gold.Chemscore.ZeroCoef>
-5.4800

> <Gold.Chemscore.Hbond>
1.2375

> <Gold.Chemscore.Metal>
0.0000

> <Gold.Chemscore.Lipo>
89.8291

> <Gold.Chemscore.Internal_Hbond>
0.0000

> <Gold.Chemscore.DEClash>
0.1221

> <Gold.Chemscore.DEInternal>
2.9168

> <Gold.Chemscore.Rot>
3.6071

> <Gold.Chemscore.Internal.Correction>
   9.000000E+99

> <Gold.Chemscore.Hbonds>
donor molecule, donor type, donor heavy atom, donor atom, acceptor molecule, acceptor atom, score
      L1  H    17    44       P1  7957  0.03
      P1  H  7989  7998       L1    17  0.40
      P1  H  8011  8017       L1    17  0.13

> <Gold.Chemscore.Hbond.Weighted>
-4.1332

> <Gold.Chemscore.Metal.Weighted>
-0.0000

> <Gold.Chemscore.Lipo.Weighted>
-10.5100

> <Gold.Chemscore.Internal_Hbond.Weighted>
0.0000

> <Gold.Chemscore.DEClash.Weighted>
0.1221

> <Gold.Chemscore.DEInternal.Weighted>
2.9168

> <Gold.Chemscore.Rot.Weighted>
9.2342

> <Gold.Chemscore.Internal.Correction.Weighted>
   9.000000E+99

> <Gold.Protein.RotatedTorsions>
[ 6907 6896 6895 6894 ] final  -16.83 input  -60.11 | X-H torsion
[ 7974 7965 7964 7962 ] final   74.79 input  175.53 | X-H torsion
[ 8008 7997 7996 7995 ] final -164.50 input   59.86 | X-H torsion
[ 10167 10162 10161 10158 ] final   61.55 input  -65.29 | X-H torsion
[ 10718 10713 10712 10709 ] final  144.28 input   66.30 | X-H torsion
[ 10763 10752 10751 10750 ] final -155.19 input  -60.55 | X-H torsion
[ 11005 11000 10999 10996 ] final   99.30 input  -57.11 | X-H torsion

> <Gold.Protein.ActiveResidues>
 VAL166  LYS551  ARG553  GLY616  TRP617  ASP618  TYR619  PRO620  LYS621  CYS622 
 ASP623  PHE694  ASN695  SER759  ASP760  ASP761  ALA762  ILE779  LEU786  VAL792 
 PHE793  MET794  SER795  GLU796  ALA797  LYS798  CYS799  TRP800  GLU811  SER814 

> <Gold.Protein.RotatedAtoms>
  151.3026  135.0773  159.9243 H   0  0  0  0  0  0  0  0  0  0  0  0  # atno 6907 bound_to 6896
  152.5294  133.9817  159.7820 H   0  0  0  0  0  0  0  0  0  0  0  0  # atno 6908 bound_to 6896
  151.0107  133.5917  159.2713 H   0  0  0  0  0  0  0  0  0  0  0  0  # atno 6909 bound_to 6896
  145.7238  139.2658  143.1581 H   0  0  0  0  0  0  0  0  0  0  0  0  # atno 7974 bound_to 7965
  155.8365  140.0942  157.1760 H   0  0  0  0  0  0  0  0  0  0  0  0  # atno 8008 bound_to 7997
  154.3981  140.1409  156.3738 H   0  0  0  0  0  0  0  0  0  0  0  0  # atno 8009 bound_to 7997
  155.8110  140.3449  155.5460 H   0  0  0  0  0  0  0  0  0  0  0  0  # atno 8010 bound_to 7997
  140.1536  144.4439  150.6746 H   0  0  0  0  0  0  0  0  0  0  0  0  # atno 10167 bound_to 10162
  157.3591  131.0962  151.0932 H   0  0  0  0  0  0  0  0  0  0  0  0  # atno 10718 bound_to 10713
  154.7805  135.3173  154.8000 H   0  0  0  0  0  0  0  0  0  0  0  0  # atno 10763 bound_to 10752
  153.8713  135.6844  153.4778 H   0  0  0  0  0  0  0  0  0  0  0  0  # atno 10764 bound_to 10752
  153.1440  135.4727  154.9476 H   0  0  0  0  0  0  0  0  0  0  0  0  # atno 10765 bound_to 10752
  139.8771  134.9089  156.4585 H   0  0  0  0  0  0  0  0  0  0  0  0  # atno 11005 bound_to 11000
  146.0601  140.7979  142.9739 LP  0  0  0  0  0  0  0  0  0  0  0  0  # atno 17320 bound_to 7965
  144.6910  140.3184  143.7236 LP  0  0  0  0  0  0  0  0  0  0  0  0  # atno 17321 bound_to 7965
  140.6687  143.2277  151.5679 LP  0  0  0  0  0  0  0  0  0  0  0  0  # atno 17342 bound_to 10162
  139.5414  144.2637  152.1358 LP  0  0  0  0  0  0  0  0  0  0  0  0  # atno 17343 bound_to 10162
  157.2078  130.6424  149.5763 LP  0  0  0  0  0  0  0  0  0  0  0  0  # atno 17370 bound_to 10713
  155.9734  130.4670  150.6308 LP  0  0  0  0  0  0  0  0  0  0  0  0  # atno 17371 bound_to 10713
  140.8881  133.7868  155.9541 LP  0  0  0  0  0  0  0  0  0  0  0  0  # atno 17394 bound_to 11000
  140.8783  134.2643  157.5157 LP  0  0  0  0  0  0  0  0  0  0  0  0  # atno 17395 bound_to 11000

$$$$
