AV-unprocessed.smi:229|AV-procd|sdf|1760|dock4
  -GOLD-   2262020293D 1   1.00000     0.00000
 Structure written by MMmdl.
 58 62  0  0  0  0  0  0  0  0  1 V2000
  152.3882  145.7059  159.2977 C   0  0  0  0  0  0  0  0  0  0  0  0
  152.8055  145.0125  157.9948 C   0  0  0  0  0  0  0  0  0  0  0  0
  152.6034  143.4905  158.0359 C   0  0  1  0  0  0  0  0  0  0  0  0
  153.1312  142.8785  159.3442 C   0  0  0  0  0  0  0  0  0  0  0  0
  152.8229  141.4534  159.3829 N   0  0  0  0  0  0  0  0  0  0  0  0
  153.4702  140.6754  160.2866 C   0  0  0  0  0  0  0  0  0  0  0  0
  154.3669  141.2319  161.1448 N   0  0  0  0  0  0  0  0  0  0  0  0
  155.0092  140.4726  162.0376 C   0  0  0  0  0  0  0  0  0  0  0  0
  154.9119  139.1570  162.2383 N   0  0  0  0  0  0  0  0  0  0  0  0
  154.0195  138.5919  161.3762 C   0  0  0  0  0  0  0  0  0  0  0  0
  153.2614  139.2701  160.3802 C   0  0  0  0  0  0  0  0  0  0  0  0
  152.4701  138.3596  159.6886 N   0  0  0  0  0  0  0  0  0  0  0  0
  152.7375  137.2121  160.2497 C   0  0  0  0  0  0  0  0  0  0  0  0
  153.6617  137.2602  161.2684 N   0  0  0  0  0  0  0  0  0  0  0  0
  154.1540  136.1412  162.0524 C   0  0  0  0  0  0  0  0  0  0  0  0
  153.8199  136.2805  163.5508 C   0  0  2  0  0  0  0  0  0  0  0  0
  154.5223  137.3887  164.0829 O   0  0  0  0  0  0  0  0  0  0  0  0
  154.1546  134.9972  164.3389 C   0  0  1  0  0  0  0  0  0  0  0  0
  153.7250  134.9449  165.8092 C   0  0  0  0  0  0  0  0  0  0  0  0
  153.6259  133.4530  166.0345 C   0  0  0  0  0  0  0  0  0  0  0  0
  153.0489  132.9773  164.7038 C   0  0  0  0  0  0  0  0  0  0  0  0
  153.5905  133.8472  163.7135 O   0  0  0  0  0  0  0  0  0  0  0  0
  151.3998  141.1781  159.2262 C   0  0  0  0  0  0  0  0  0  0  0  0
  150.8546  141.8319  157.9357 C   0  0  2  0  0  0  0  0  0  0  0  0
  149.3331  141.7372  157.8740 C   0  0  0  0  0  0  0  0  0  0  0  0
  149.0926  140.5019  157.0199 C   0  0  0  0  0  0  0  0  0  0  0  0
  150.0906  140.6267  156.0247 O   0  0  0  0  0  0  0  0  0  0  0  0
  151.2834  141.0848  156.6504 C   0  0  0  0  0  0  0  0  0  0  0  0
  151.2050  143.2192  157.9189 O   0  0  0  0  0  0  0  0  0  0  0  0
  152.5343  146.7838  159.2276 H   0  0  0  0  0  0  0  0  0  0  0  0
  152.9743  145.3459  160.1435 H   0  0  0  0  0  0  0  0  0  0  0  0
  151.3358  145.5267  159.5189 H   0  0  0  0  0  0  0  0  0  0  0  0
  152.2229  145.4328  157.1743 H   0  0  0  0  0  0  0  0  0  0  0  0
  153.8497  145.2401  157.7778 H   0  0  0  0  0  0  0  0  0  0  0  0
  153.1428  143.0477  157.1982 H   0  0  0  0  0  0  0  0  0  0  0  0
  154.2091  143.0331  159.4112 H   0  0  0  0  0  0  0  0  0  0  0  0
  152.6755  143.3717  160.2042 H   0  0  0  0  0  0  0  0  0  0  0  0
  155.7010  140.9939  162.6828 H   0  0  0  0  0  0  0  0  0  0  0  0
  152.2727  136.2915  159.9276 H   0  0  0  0  0  0  0  0  0  0  0  0
  153.7167  135.2260  161.6515 H   0  0  0  0  0  0  0  0  0  0  0  0
  155.2318  136.0613  161.9051 H   0  0  0  0  0  0  0  0  0  0  0  0
  152.7523  136.4807  163.6516 H   0  0  0  0  0  0  0  0  0  0  0  0
  154.0156  138.1695  163.9201 H   0  0  0  0  0  0  0  0  0  0  0  0
  155.2337  134.8399  164.2983 H   0  0  0  0  0  0  0  0  0  0  0  0
  154.4360  135.4316  166.4771 H   0  0  0  0  0  0  0  0  0  0  0  0
  152.7466  135.4004  165.9634 H   0  0  0  0  0  0  0  0  0  0  0  0
  154.6194  133.0291  166.1875 H   0  0  0  0  0  0  0  0  0  0  0  0
  153.0037  133.1873  166.8896 H   0  0  0  0  0  0  0  0  0  0  0  0
  153.2860  131.9342  164.4932 H   0  0  0  0  0  0  0  0  0  0  0  0
  151.9634  133.0852  164.7017 H   0  0  0  0  0  0  0  0  0  0  0  0
  151.1903  140.1091  159.2181 H   0  0  0  0  0  0  0  0  0  0  0  0
  150.8828  141.5870  160.0957 H   0  0  0  0  0  0  0  0  0  0  0  0
  148.8553  141.6786  158.8524 H   0  0  0  0  0  0  0  0  0  0  0  0
  148.9230  142.6074  157.3593 H   0  0  0  0  0  0  0  0  0  0  0  0
  149.2511  139.5871  157.5931 H   0  0  0  0  0  0  0  0  0  0  0  0
  148.0924  140.4738  156.5874 H   0  0  0  0  0  0  0  0  0  0  0  0
  151.8257  141.7178  155.9487 H   0  0  0  0  0  0  0  0  0  0  0  0
  151.9179  140.2278  156.8807 H   0  0  0  0  0  0  0  0  0  0  0  0
  1  2  1  0  0  0  0
  1 30  1  0  0  0  0
  1 31  1  0  0  0  0
  1 32  1  0  0  0  0
  2  3  1  0  0  0  0
  2 33  1  0  0  0  0
  2 34  1  0  0  0  0
  3 29  1  0  0  0  0
  3  4  1  0  0  0  0
  3 35  1  0  0  0  0
  4  5  1  0  0  0  0
  4 36  1  0  0  0  0
  4 37  1  0  0  0  0
  5  6  1  0  0  0  0
  5 23  1  0  0  0  0
  6 11  1  0  0  0  0
  6  7  2  0  0  0  0
  7  8  1  0  0  0  0
  8  9  2  0  0  0  0
  8 38  1  0  0  0  0
  9 10  1  0  0  0  0
 10 14  1  0  0  0  0
 10 11  2  0  0  0  0
 11 12  1  0  0  0  0
 12 13  2  0  0  0  0
 13 14  1  0  0  0  0
 13 39  1  0  0  0  0
 14 15  1  0  0  0  0
 15 16  1  0  0  0  0
 15 40  1  0  0  0  0
 15 41  1  0  0  0  0
 16 17  1  0  0  0  0
 16 18  1  0  0  0  0
 16 42  1  0  0  0  0
 17 43  1  0  0  0  0
 18 22  1  0  0  0  0
 18 19  1  0  0  0  0
 18 44  1  0  0  0  0
 19 20  1  0  0  0  0
 19 45  1  0  0  0  0
 19 46  1  0  0  0  0
 20 21  1  0  0  0  0
 20 47  1  0  0  0  0
 20 48  1  0  0  0  0
 21 22  1  0  0  0  0
 21 49  1  0  0  0  0
 21 50  1  0  0  0  0
 23 24  1  0  0  0  0
 23 51  1  0  0  0  0
 23 52  1  0  0  0  0
 24 28  1  0  0  0  0
 24 25  1  0  0  0  0
 24 29  1  0  0  0  0
 25 26  1  0  0  0  0
 25 53  1  0  0  0  0
 25 54  1  0  0  0  0
 26 27  1  0  0  0  0
 26 55  1  0  0  0  0
 26 56  1  0  0  0  0
 27 28  1  0  0  0  0
 28 57  1  0  0  0  0
 28 58  1  0  0  0  0
M  END
> <s_m_source_file>
AV-unprocessed.smi

> <i_m_source_file_index>
229

> <i_lp_mmshare_version>
43012

> <i_f3d_flags>
0

> <s_epik_input>
W0NIMl0xT1tDSDJdW0NIMl1bQ0BdMTJbQ0gyXU4oW0NIMl1bQ0BIXShPMilbQ0gyXVtDSDNdKWMobltjSF1uMyljKGMzNCluW2NIXW40W0NIMl1bQ0BIXShbT0hdKVtDQEBIXTVbQ0gyXVtDSDJdW0NIMl1PNQ==

> <s_epik_cmdline>
J2VwaWtfcHl0aG9uJywgJy1waCcsICc3LjAnLCAnLXRuJywgJzgnLCAnLW1hJywgJzIwMCcsICctbWV0YWxfYmluZGluZycsICctaW1hZScsICc8aW5maWxlLm1hZT4nLCAnLW9tYWUnLCAnPG91dGZpbGUubWFlPic=

> <r_lp_tautomer_probability>
1

> <r_epik_Ionization_Penalty>
0.00318402

> <r_epik_Ionization_Penalty_Charging>
0

> <r_epik_Ionization_Penalty_Neutral>
0.00318402

> <r_epik_State_Penalty>
0.00215642

> <r_epik_Charging_Adjusted_Penalty>
0.00215642

> <i_epik_Tot_Q>
0

> <i_epik_Tot_abs_Q>
0

> <r_epik_Metal_State_Penalty>
-0

> <b_epik_Metal_Only>
0

> <s_lp_Force_Field>
OPLS_2005

> <r_lp_Energy>
56.4449

> <b_lp_Chiralities_Consistent>
1

> <s_lp_Variant>
AV-unprocessed.smi:229-14

> <Gold.Version>
5.8.1

> <Gold.Id.Protein>
6NUR|6NUR_protein|mol2

> <Gold.PLP.Fitness>
51.8030

> <Gold.PLP.PLP>
-49.7549

> <Gold.PLP.part.hbond>
-1.0000

> <Gold.PLP.part.metal>
0.0000

> <Gold.PLP.part.buried>
-8.1529

> <Gold.PLP.part.nonpolar>
-39.7091

> <Gold.PLP.part.repulsive>
0.1594

> <Gold.PLP.ligand.clash>
0.0000

> <Gold.PLP.ligand.torsion>
0.4126

> <Gold.PLP.Chemscore.Hbond>
0.8268

> <Gold.PLP.Chemscore.CHOScore>
0.0000

> <Gold.PLP.Chemscore.Metal>
0.0000

> <Gold.PLP.Chemscore.Internal.Correction>
0.3929

> <Gold.Rescore>
     Score         DG    S(hbond)    S(metal)    S(lipo)     H(rot)  DE(clash)    DE(int)     intcor
     12.26     -13.62       0.00        0.00     123.34       2.46       0.27       1.08       ----

> <Gold.Chemscore.Fitness>
12.2642

> <Gold.Chemscore.DG>
-13.6151

> <Gold.Chemscore.ZeroCoef>
-5.4800

> <Gold.Chemscore.Hbond>
0.0000

> <Gold.Chemscore.Metal>
0.0000

> <Gold.Chemscore.Lipo>
123.3372

> <Gold.Chemscore.Internal_Hbond>
0.0000

> <Gold.Chemscore.DEClash>
0.2720

> <Gold.Chemscore.DEInternal>
1.0790

> <Gold.Chemscore.Rot>
2.4591

> <Gold.Chemscore.Internal.Correction>
   9.000000E+99

> <Gold.Chemscore.Hbond.Weighted>
-0.0000

> <Gold.Chemscore.Metal.Weighted>
-0.0000

> <Gold.Chemscore.Lipo.Weighted>
-14.4305

> <Gold.Chemscore.Internal_Hbond.Weighted>
0.0000

> <Gold.Chemscore.DEClash.Weighted>
0.2720

> <Gold.Chemscore.DEInternal.Weighted>
1.0790

> <Gold.Chemscore.Rot.Weighted>
6.2953

> <Gold.Chemscore.Internal.Correction.Weighted>
   9.000000E+99

> <Gold.Protein.RotatedTorsions>
[ 6907 6896 6895 6894 ] final -151.94 input  -60.11 | X-H torsion
[ 7974 7965 7964 7962 ] final  179.35 input  175.53 | X-H torsion
[ 8008 7997 7996 7995 ] final -108.31 input   59.86 | X-H torsion
[ 10167 10162 10161 10158 ] final  174.41 input  -65.29 | X-H torsion
[ 10718 10713 10712 10709 ] final -115.82 input   66.30 | X-H torsion
[ 10763 10752 10751 10750 ] final  161.14 input  -60.55 | X-H torsion
[ 11005 11000 10999 10996 ] final   56.29 input  -57.11 | X-H torsion

> <Gold.Protein.ActiveResidues>
 VAL166  LYS551  ARG553  GLY616  TRP617  ASP618  TYR619  PRO620  LYS621  CYS622 
 ASP623  PHE694  ASN695  SER759  ASP760  ASP761  ALA762  ILE779  LEU786  VAL792 
 PHE793  MET794  SER795  GLU796  ALA797  LYS798  CYS799  TRP800  GLU811  SER814 

> <Gold.Protein.RotatedAtoms>
  151.2205  133.4505  159.2600 H   0  0  0  0  0  0  0  0  0  0  0  0  # atno 6907 bound_to 6896
  151.0889  134.9904  159.8403 H   0  0  0  0  0  0  0  0  0  0  0  0  # atno 6908 bound_to 6896
  152.5432  134.2140  159.8814 H   0  0  0  0  0  0  0  0  0  0  0  0  # atno 6909 bound_to 6896
  144.7146  140.0534  143.6434 H   0  0  0  0  0  0  0  0  0  0  0  0  # atno 7974 bound_to 7965
  154.9424  140.0402  157.2103 H   0  0  0  0  0  0  0  0  0  0  0  0  # atno 8008 bound_to 7997
  154.8057  140.2859  155.5867 H   0  0  0  0  0  0  0  0  0  0  0  0  # atno 8009 bound_to 7997
  156.2966  140.2546  156.2934 H   0  0  0  0  0  0  0  0  0  0  0  0  # atno 8010 bound_to 7997
  139.5141  144.3150  152.0256 H   0  0  0  0  0  0  0  0  0  0  0  0  # atno 10167 bound_to 10162
  156.0921  130.6101  150.8955 H   0  0  0  0  0  0  0  0  0  0  0  0  # atno 10718 bound_to 10713
  154.2583  135.2769  155.2788 H   0  0  0  0  0  0  0  0  0  0  0  0  # atno 10763 bound_to 10752
  154.5405  135.5704  153.6839 H   0  0  0  0  0  0  0  0  0  0  0  0  # atno 10764 bound_to 10752
  152.9967  135.6250  154.2733 H   0  0  0  0  0  0  0  0  0  0  0  0  # atno 10765 bound_to 10752
  140.0540  134.5696  155.9229 H   0  0  0  0  0  0  0  0  0  0  0  0  # atno 11005 bound_to 11000
  145.9925  139.3026  143.0976 LP  0  0  0  0  0  0  0  0  0  0  0  0  # atno 17320 bound_to 7965
  145.8887  140.9317  143.0563 LP  0  0  0  0  0  0  0  0  0  0  0  0  # atno 17321 bound_to 7965
  140.2593  144.4084  150.6192 LP  0  0  0  0  0  0  0  0  0  0  0  0  # atno 17342 bound_to 10162
  140.6169  143.2173  151.6774 LP  0  0  0  0  0  0  0  0  0  0  0  0  # atno 17343 bound_to 10162
  157.6073  131.0938  150.8857 LP  0  0  0  0  0  0  0  0  0  0  0  0  # atno 17370 bound_to 10713
  156.9003  130.5244  149.5283 LP  0  0  0  0  0  0  0  0  0  0  0  0  # atno 17371 bound_to 10713
  141.1943  133.6582  156.5591 LP  0  0  0  0  0  0  0  0  0  0  0  0  # atno 17394 bound_to 11000
  140.3872  134.7472  157.4699 LP  0  0  0  0  0  0  0  0  0  0  0  0  # atno 17395 bound_to 11000

$$$$
