AV-unprocessed.smi:1195|AV-procd|sdf|4994|dock10
  -GOLD-   22720 3593D 1   1.00000     0.00000
 Structure written by MMmdl.
 39 40  0  0  0  0  0  0  0  0  1 V2000
  144.4875  142.0463  154.7060 N   0  0  0  0  0  0  0  0  0  0  0  0
  145.5524  142.7934  155.0069 C   0  0  0  0  0  0  0  0  0  0  0  0
  145.5919  143.4923  156.0188 O   0  0  0  0  0  0  0  0  0  0  0  0
  146.7270  142.7325  154.0217 C   0  0  0  0  0  0  0  0  0  0  0  0
  147.2403  141.3850  153.8343 N   0  0  0  0  0  0  0  0  0  0  0  0
  146.6243  140.3160  153.2128 C   0  0  0  0  0  0  0  0  0  0  0  0
  147.5105  139.2796  153.2948 C   0  0  0  0  0  0  0  0  0  0  0  0
  147.3882  137.9514  152.8151 N   0  0  0  0  0  0  0  0  0  0  0  0
  146.2554  137.2590  152.6128 C   0  0  0  0  0  0  0  0  0  0  0  0
  145.1190  137.6830  152.8244 O   0  0  0  0  0  0  0  0  0  0  0  0
  146.5140  136.0294  152.1451 N   0  0  0  0  0  0  0  0  0  0  0  0
  145.5087  135.0215  151.8219 C   0  0  2  0  0  0  0  0  0  0  0  0
  146.1738  133.6330  151.7645 C   0  0  0  0  0  0  0  0  0  0  0  0
  145.1689  132.5416  151.3612 C   0  0  0  0  0  0  0  0  0  0  0  0
  144.4903  132.8812  150.0232 C   0  0  1  0  0  0  0  0  0  0  0  0
  143.5280  131.8940  149.7190 O   0  0  0  0  0  0  0  0  0  0  0  0
  143.8117  134.2603  150.0835 C   0  0  0  0  0  0  0  0  0  0  0  0
  144.8156  135.3535  150.4835 C   0  0  0  0  0  0  0  0  0  0  0  0
  148.6439  139.7922  153.9777 C   0  0  0  0  0  0  0  0  0  0  0  0
  148.4726  141.0643  154.3030 N   0  0  0  0  0  0  0  0  0  0  0  0
  143.6862  142.0476  155.3207 H   0  0  0  0  0  0  0  0  0  0  0  0
  144.4856  141.4826  153.8684 H   0  0  0  0  0  0  0  0  0  0  0  0
  146.4141  143.1362  153.0575 H   0  0  0  0  0  0  0  0  0  0  0  0
  147.5400  143.3619  154.3855 H   0  0  0  0  0  0  0  0  0  0  0  0
  145.6384  140.3956  152.7792 H   0  0  0  0  0  0  0  0  0  0  0  0
  148.2551  137.4776  152.6075 H   0  0  0  0  0  0  0  0  0  0  0  0
  147.4788  135.7693  152.0011 H   0  0  0  0  0  0  0  0  0  0  0  0
  144.7572  135.0043  152.6140 H   0  0  0  0  0  0  0  0  0  0  0  0
  146.9964  133.6463  151.0479 H   0  0  0  0  0  0  0  0  0  0  0  0
  146.6118  133.3877  152.7328 H   0  0  0  0  0  0  0  0  0  0  0  0
  145.6781  131.5798  151.2903 H   0  0  0  0  0  0  0  0  0  0  0  0
  144.4161  132.4365  152.1438 H   0  0  0  0  0  0  0  0  0  0  0  0
  145.2368  132.8789  149.2279 H   0  0  0  0  0  0  0  0  0  0  0  0
  142.6951  132.1674  150.0724 H   0  0  0  0  0  0  0  0  0  0  0  0
  143.3674  134.5042  149.1178 H   0  0  0  0  0  0  0  0  0  0  0  0
  142.9937  134.2404  150.8052 H   0  0  0  0  0  0  0  0  0  0  0  0
  144.3000  136.3122  150.5520 H   0  0  0  0  0  0  0  0  0  0  0  0
  145.5639  135.4617  149.6969 H   0  0  0  0  0  0  0  0  0  0  0  0
  149.5645  139.2946  154.2446 H   0  0  0  0  0  0  0  0  0  0  0  0
  1  2  1  0  0  0  0
  1 21  1  0  0  0  0
  1 22  1  0  0  0  0
  2  3  2  0  0  0  0
  2  4  1  0  0  0  0
  4  5  1  0  0  0  0
  4 23  1  0  0  0  0
  4 24  1  0  0  0  0
  5 20  1  0  0  0  0
  5  6  1  0  0  0  0
  6  7  2  0  0  0  0
  6 25  1  0  0  0  0
  7  8  1  0  0  0  0
  7 19  1  0  0  0  0
  8  9  1  0  0  0  0
  8 26  1  0  0  0  0
  9 10  2  0  0  0  0
  9 11  1  0  0  0  0
 11 12  1  0  0  0  0
 11 27  1  0  0  0  0
 12 18  1  0  0  0  0
 12 13  1  0  0  0  0
 12 28  1  0  0  0  0
 13 14  1  0  0  0  0
 13 29  1  0  0  0  0
 13 30  1  0  0  0  0
 14 15  1  0  0  0  0
 14 31  1  0  0  0  0
 14 32  1  0  0  0  0
 15 16  1  0  0  0  0
 15 17  1  0  0  0  0
 15 33  1  0  0  0  0
 16 34  1  0  0  0  0
 17 18  1  0  0  0  0
 17 35  1  0  0  0  0
 17 36  1  0  0  0  0
 18 37  1  0  0  0  0
 18 38  1  0  0  0  0
 19 20  2  0  0  0  0
 19 39  1  0  0  0  0
M  END
> <s_m_source_file>
AV-unprocessed.smi

> <i_m_source_file_index>
1195

> <i_lp_mmshare_version>
43012

> <i_f3d_flags>
0

> <s_epik_input>
W05IMl1DKD1PKVtDSDJdbjFbY0hdYyhbY0hdbjEpW05IXUMoPU8pW05IXVtDQEBIXTJbQ0gyXVtDSDJdW0NAQEhdKFtPSF0pW0NIMl1bQ0gyXTI=

> <s_epik_cmdline>
J2VwaWtfcHl0aG9uJywgJy1waCcsICc3LjAnLCAnLXRuJywgJzgnLCAnLW1hJywgJzIwMCcsICctbWV0YWxfYmluZGluZycsICctaW1hZScsICc8aW5maWxlLm1hZT4nLCAnLW9tYWUnLCAnPG91dGZpbGUubWFlPic=

> <r_lp_tautomer_probability>
1

> <r_epik_Ionization_Penalty>
4.75851e-05

> <r_epik_Ionization_Penalty_Charging>
0

> <r_epik_Ionization_Penalty_Neutral>
4.75851e-05

> <r_epik_State_Penalty>
-0

> <r_epik_Charging_Adjusted_Penalty>
0

> <i_epik_Tot_Q>
0

> <i_epik_Tot_abs_Q>
0

> <r_epik_Metal_State_Penalty>
-0

> <b_epik_Metal_Only>
0

> <s_lp_Force_Field>
OPLS_2005

> <r_lp_Energy>
13.1232

> <b_lp_Chiralities_Consistent>
1

> <s_lp_Variant>
AV-unprocessed.smi:1195-1

> <Gold.Version>
5.8.1

> <Gold.Id.Protein>
6NUR|6NUR_protein|mol2

> <Gold.PLP.Fitness>
44.0301

> <Gold.PLP.PLP>
-30.6108

> <Gold.PLP.part.hbond>
-4.6478

> <Gold.PLP.part.metal>
0.0000

> <Gold.PLP.part.buried>
2.0071

> <Gold.PLP.part.nonpolar>
-28.4402

> <Gold.PLP.part.repulsive>
0.6111

> <Gold.PLP.ligand.clash>
0.0000

> <Gold.PLP.ligand.torsion>
0.4537

> <Gold.PLP.Chemscore.Hbond>
3.9186

> <Gold.PLP.Chemscore.CHOScore>
0.8546

> <Gold.PLP.Chemscore.Metal>
0.0000

> <Gold.Chemscore.Hbonds>
donor molecule, donor type, donor heavy atom, donor atom, acceptor molecule, acceptor atom, score
      L1  H     1    22       P1 10175  0.90
      L1  H     8    26       P1  7948  0.93
      L1  H    11    27       P1  7948  0.95
      P1  H 10785 10796       L1    16  0.99
      L1  C     6    25       P1 10175  0.86

> <Gold.PLP.Chemscore.Internal.Correction>
0.0074

> <Gold.Rescore>
     Score         DG    S(hbond)    S(metal)    S(lipo)     H(rot)  DE(clash)    DE(int)     intcor
     12.18     -15.84       2.79        0.00      66.11       2.62       2.40       1.26       ----

> <Gold.Chemscore.Fitness>
12.1781

> <Gold.Chemscore.DG>
-15.8359

> <Gold.Chemscore.ZeroCoef>
-5.4800

> <Gold.Chemscore.Hbond>
2.7936

> <Gold.Chemscore.Metal>
0.0000

> <Gold.Chemscore.Lipo>
66.1148

> <Gold.Chemscore.Internal_Hbond>
0.0000

> <Gold.Chemscore.DEClash>
2.3997

> <Gold.Chemscore.DEInternal>
1.2580

> <Gold.Chemscore.Rot>
2.6212

> <Gold.Chemscore.Internal.Correction>
   9.000000E+99

> <Gold.Chemscore.Hbonds>
donor molecule, donor type, donor heavy atom, donor atom, acceptor molecule, acceptor atom, score
      L1  H     1    22       P1 10175  0.17
      L1  H     8    26       P1  7948  0.89
      L1  H    11    27       P1  7948  0.86
      P1  H 10785 10796       L1    16  0.53

> <Gold.Chemscore.Hbond.Weighted>
-9.3308

> <Gold.Chemscore.Metal.Weighted>
-0.0000

> <Gold.Chemscore.Lipo.Weighted>
-7.7354

> <Gold.Chemscore.Internal_Hbond.Weighted>
0.0000

> <Gold.Chemscore.DEClash.Weighted>
2.3997

> <Gold.Chemscore.DEInternal.Weighted>
1.2580

> <Gold.Chemscore.Rot.Weighted>
6.7103

> <Gold.Chemscore.Internal.Correction.Weighted>
   9.000000E+99

> <Gold.Protein.RotatedTorsions>
[ 6907 6896 6895 6894 ] final  164.47 input  -60.11 | X-H torsion
[ 7974 7965 7964 7962 ] final  -71.76 input  175.53 | X-H torsion
[ 8008 7997 7996 7995 ] final -102.69 input   59.86 | X-H torsion
[ 10167 10162 10161 10158 ] final  162.33 input  -65.29 | X-H torsion
[ 10718 10713 10712 10709 ] final  157.08 input   66.30 | X-H torsion
[ 10763 10752 10751 10750 ] final -165.32 input  -60.55 | X-H torsion
[ 11005 11000 10999 10996 ] final  137.38 input  -57.11 | X-H torsion

> <Gold.Protein.ActiveResidues>
 VAL166  LYS551  ARG553  GLY616  TRP617  ASP618  TYR619  PRO620  LYS621  CYS622 
 ASP623  PHE694  ASN695  SER759  ASP760  ASP761  ALA762  ILE779  LEU786  VAL792 
 PHE793  MET794  SER795  GLU796  ALA797  LYS798  CYS799  TRP800  GLU811  SER814 

> <Gold.Protein.RotatedAtoms>
  151.9093  133.3557  159.3857 H   0  0  0  0  0  0  0  0  0  0  0  0  # atno 6907 bound_to 6896
  150.7061  134.4748  159.5451 H   0  0  0  0  0  0  0  0  0  0  0  0  # atno 6908 bound_to 6896
  152.2351  134.8284  160.0519 H   0  0  0  0  0  0  0  0  0  0  0  0  # atno 6909 bound_to 6896
  145.6738  140.9212  143.0868 H   0  0  0  0  0  0  0  0  0  0  0  0  # atno 7974 bound_to 7965
  154.8603  140.0427  157.1661 H   0  0  0  0  0  0  0  0  0  0  0  0  # atno 8008 bound_to 7997
  154.8847  140.2978  155.5384 H   0  0  0  0  0  0  0  0  0  0  0  0  # atno 8009 bound_to 7997
  156.2998  140.2404  156.3855 H   0  0  0  0  0  0  0  0  0  0  0  0  # atno 8010 bound_to 7997
  139.4859  144.4448  151.8906 H   0  0  0  0  0  0  0  0  0  0  0  0  # atno 10167 bound_to 10162
  157.1963  131.0666  151.2051 H   0  0  0  0  0  0  0  0  0  0  0  0  # atno 10718 bound_to 10713
  154.6943  135.2976  154.9434 H   0  0  0  0  0  0  0  0  0  0  0  0  # atno 10763 bound_to 10752
  154.0387  135.6660  153.4792 H   0  0  0  0  0  0  0  0  0  0  0  0  # atno 10764 bound_to 10752
  153.0634  135.5102  154.8052 H   0  0  0  0  0  0  0  0  0  0  0  0  # atno 10765 bound_to 10752
  140.0110  134.9439  157.0277 H   0  0  0  0  0  0  0  0  0  0  0  0  # atno 11005 bound_to 11000
  144.7048  139.8607  143.7433 LP  0  0  0  0  0  0  0  0  0  0  0  0  # atno 17320 bound_to 7965
  146.1022  139.4019  143.0339 LP  0  0  0  0  0  0  0  0  0  0  0  0  # atno 17321 bound_to 7965
  140.3902  144.2625  150.5900 LP  0  0  0  0  0  0  0  0  0  0  0  0  # atno 17342 bound_to 10162
  140.5153  143.2279  151.8472 LP  0  0  0  0  0  0  0  0  0  0  0  0  # atno 17343 bound_to 10162
  157.3811  130.7232  149.6631 LP  0  0  0  0  0  0  0  0  0  0  0  0  # atno 17370 bound_to 10713
  155.9705  130.4172  150.4268 LP  0  0  0  0  0  0  0  0  0  0  0  0  # atno 17371 bound_to 10713
  140.4555  134.1538  155.7186 LP  0  0  0  0  0  0  0  0  0  0  0  0  # atno 17394 bound_to 11000
  141.1711  133.8607  157.1568 LP  0  0  0  0  0  0  0  0  0  0  0  0  # atno 17395 bound_to 11000

$$$$
