AV-unprocessed.smi:2119|AV-procd|sdf|8632|dock1
  -GOLD-   2272011373D 1   1.00000     0.00000
 Structure written by MMmdl.
 47 49  0  0  0  0  0  0  0  0  1 V2000
  144.3919  136.5181  152.3950 O   0  0  0  0  0  0  0  0  0  0  0  0
  145.5864  136.3720  152.1372 C   0  0  0  0  0  0  0  0  0  0  0  0
  146.5184  137.2952  152.4118 N   0  0  0  0  0  0  0  0  0  0  0  0
  146.2542  138.6038  153.0047 C   0  0  0  0  0  0  0  0  0  0  0  0
  146.5430  138.6629  154.5382 C   0  0  2  0  0  0  0  0  0  0  0  0
  145.3300  139.3449  155.2600 C   0  0  1  0  0  0  0  0  0  0  0  0
  143.9416  138.7377  155.1548 C   0  0  0  0  0  0  0  0  0  0  0  0
  143.1890  139.5246  156.2206 C   0  0  0  0  0  0  0  0  0  0  0  0
  144.1336  139.7185  157.2679 O   0  0  0  0  0  0  0  0  0  0  0  0
  145.4533  139.4803  156.7828 C   0  0  0  0  0  0  0  0  0  0  0  0
  147.8606  139.2396  154.9096 N   0  0  0  0  0  0  0  0  0  0  0  0
  148.9723  138.4088  154.4283 C   0  0  0  0  0  0  0  0  0  0  0  0
  150.3390  138.9369  154.8938 C   0  0  0  0  0  0  0  0  0  0  0  0
  150.5125  140.2677  154.4225 O   0  0  0  0  0  0  0  0  0  0  0  0
  149.4799  141.1400  154.8648 C   0  0  0  0  0  0  0  0  0  0  0  0
  148.1088  140.5994  154.4183 C   0  0  0  0  0  0  0  0  0  0  0  0
  146.1343  135.2877  151.5628 N   0  0  0  0  0  0  0  0  0  0  0  0
  145.4920  134.1178  151.0736 C   0  0  0  0  0  0  0  0  0  0  0  0
  146.1590  133.0434  150.4358 C   0  0  0  0  0  0  0  0  0  0  0  0
  145.4059  131.9312  150.0129 C   0  0  0  0  0  0  0  0  0  0  0  0
  144.0175  131.9287  150.2492 C   0  0  0  0  0  0  0  0  0  0  0  0
  143.3710  132.9394  150.8671 N   0  0  0  0  0  0  0  0  0  0  0  0
  144.0993  134.0026  151.2693 C   0  0  0  0  0  0  0  0  0  0  0  0
  147.4780  137.0890  152.1748 H   0  0  0  0  0  0  0  0  0  0  0  0
  146.8617  139.3284  152.4610 H   0  0  0  0  0  0  0  0  0  0  0  0
  145.2147  138.8607  152.7999 H   0  0  0  0  0  0  0  0  0  0  0  0
  146.5498  137.6222  154.8657 H   0  0  0  0  0  0  0  0  0  0  0  0
  145.2346  140.3536  154.8549 H   0  0  0  0  0  0  0  0  0  0  0  0
  143.4980  138.8315  154.1633 H   0  0  0  0  0  0  0  0  0  0  0  0
  143.9411  137.6890  155.4519 H   0  0  0  0  0  0  0  0  0  0  0  0
  142.8861  140.4988  155.8347 H   0  0  0  0  0  0  0  0  0  0  0  0
  142.2975  139.0069  156.5753 H   0  0  0  0  0  0  0  0  0  0  0  0
  145.8231  138.5543  157.2254 H   0  0  0  0  0  0  0  0  0  0  0  0
  146.1233  140.2875  157.0792 H   0  0  0  0  0  0  0  0  0  0  0  0
  148.8755  137.3733  154.7365 H   0  0  0  0  0  0  0  0  0  0  0  0
  148.9611  138.3857  153.3373 H   0  0  0  0  0  0  0  0  0  0  0  0
  150.4157  138.9103  155.9817 H   0  0  0  0  0  0  0  0  0  0  0  0
  151.1412  138.3135  154.4988 H   0  0  0  0  0  0  0  0  0  0  0  0
  149.5200  141.2378  155.9507 H   0  0  0  0  0  0  0  0  0  0  0  0
  149.6498  142.1325  154.4480 H   0  0  0  0  0  0  0  0  0  0  0  0
  148.0468  140.6214  153.3291 H   0  0  0  0  0  0  0  0  0  0  0  0
  147.3513  141.2849  154.7975 H   0  0  0  0  0  0  0  0  0  0  0  0
  147.1415  135.2863  151.4923 H   0  0  0  0  0  0  0  0  0  0  0  0
  147.2256  133.0397  150.2747 H   0  0  0  0  0  0  0  0  0  0  0  0
  145.8831  131.0959  149.5222 H   0  0  0  0  0  0  0  0  0  0  0  0
  143.4118  131.0903  149.9388 H   0  0  0  0  0  0  0  0  0  0  0  0
  143.5491  134.7905  151.7627 H   0  0  0  0  0  0  0  0  0  0  0  0
  1  2  2  0  0  0  0
  2  3  1  0  0  0  0
  2 17  1  0  0  0  0
  3  4  1  0  0  0  0
  3 24  1  0  0  0  0
  4  5  1  0  0  0  0
  4 25  1  0  0  0  0
  4 26  1  0  0  0  0
  5  6  1  0  0  0  0
  5 11  1  0  0  0  0
  5 27  1  0  0  0  0
  6 10  1  0  0  0  0
  6  7  1  0  0  0  0
  6 28  1  0  0  0  0
  7  8  1  0  0  0  0
  7 29  1  0  0  0  0
  7 30  1  0  0  0  0
  8  9  1  0  0  0  0
  8 31  1  0  0  0  0
  8 32  1  0  0  0  0
  9 10  1  0  0  0  0
 10 33  1  0  0  0  0
 10 34  1  0  0  0  0
 11 16  1  0  0  0  0
 11 12  1  0  0  0  0
 12 13  1  0  0  0  0
 12 35  1  0  0  0  0
 12 36  1  0  0  0  0
 13 14  1  0  0  0  0
 13 37  1  0  0  0  0
 13 38  1  0  0  0  0
 14 15  1  0  0  0  0
 15 16  1  0  0  0  0
 15 39  1  0  0  0  0
 15 40  1  0  0  0  0
 16 41  1  0  0  0  0
 16 42  1  0  0  0  0
 17 18  1  0  0  0  0
 17 43  1  0  0  0  0
 18 23  1  0  0  0  0
 18 19  2  0  0  0  0
 19 20  1  0  0  0  0
 19 44  1  0  0  0  0
 20 21  2  0  0  0  0
 20 45  1  0  0  0  0
 21 22  1  0  0  0  0
 21 46  1  0  0  0  0
 22 23  2  0  0  0  0
 23 47  1  0  0  0  0
M  END
> <s_m_source_file>
AV-unprocessed.smi

> <i_m_source_file_index>
2119

> <i_lp_mmshare_version>
43012

> <i_f3d_flags>
0

> <s_epik_input>
W2NIXTFuW2NIXVtjSF1bY0hdYzFbTkhdQyg9TylbTkhdW0NIMl1bQ0BIXShbQ0BASF0yW0NIMl1bQ0gyXU9bQ0gyXTIpTjNbQ0gyXVtDSDJdT1tDSDJdW0NIMl0z

> <s_epik_cmdline>
J2VwaWtfcHl0aG9uJywgJy1waCcsICc3LjAnLCAnLXRuJywgJzgnLCAnLW1hJywgJzIwMCcsICctbWV0YWxfYmluZGluZycsICctaW1hZScsICc8aW5maWxlLm1hZT4nLCAnLW9tYWUnLCAnPG91dGZpbGUubWFlPic=

> <r_epik_Ionization_Penalty>
0.129787

> <r_epik_Ionization_Penalty_Charging>
0

> <r_epik_Ionization_Penalty_Neutral>
0.129787

> <r_epik_State_Penalty>
0.121311

> <r_epik_Charging_Adjusted_Penalty>
0.121311

> <i_epik_Tot_Q>
0

> <i_epik_Tot_abs_Q>
0

> <r_epik_Metal_State_Penalty>
0.117931

> <b_epik_Metal_Only>
0

> <s_lp_Force_Field>
OPLS_2005

> <r_lp_Energy>
58.2648

> <b_lp_Chiralities_Consistent>
1

> <s_lp_Variant>
AV-unprocessed.smi:2119-3

> <Gold.Version>
5.8.1

> <Gold.Id.Protein>
6NUR|6NUR_protein|mol2

> <Gold.PLP.Fitness>
39.8530

> <Gold.PLP.PLP>
-30.8306

> <Gold.PLP.part.hbond>
-2.8660

> <Gold.PLP.part.metal>
0.0000

> <Gold.PLP.part.buried>
-6.8436

> <Gold.PLP.part.nonpolar>
-24.4929

> <Gold.PLP.part.repulsive>
0.6661

> <Gold.PLP.ligand.clash>
0.0000

> <Gold.PLP.ligand.torsion>
0.8576

> <Gold.PLP.Chemscore.Hbond>
3.0000

> <Gold.PLP.Chemscore.CHOScore>
0.4884

> <Gold.PLP.Chemscore.Metal>
0.0000

> <Gold.Chemscore.Hbonds>
donor molecule, donor type, donor heavy atom, donor atom, acceptor molecule, acceptor atom, score
      L1  H     3    24       P1  7948  1.00
      L1  H    17    43       P1  7948  1.00
      P1  H  7989  7998       L1    14  1.00
      L1  C    21    46       P1 10952  0.52

> <Gold.PLP.Chemscore.Internal.Correction>
0.2725

> <Gold.Rescore>
     Score         DG    S(hbond)    S(metal)    S(lipo)     H(rot)  DE(clash)    DE(int)     intcor
     17.47     -19.68       2.85        0.00      76.17       1.65       0.02       2.18       ----

> <Gold.Chemscore.Fitness>
17.4695

> <Gold.Chemscore.DG>
-19.6786

> <Gold.Chemscore.ZeroCoef>
-5.4800

> <Gold.Chemscore.Hbond>
2.8480

> <Gold.Chemscore.Metal>
0.0000

> <Gold.Chemscore.Lipo>
76.1750

> <Gold.Chemscore.Internal_Hbond>
0.0000

> <Gold.Chemscore.DEClash>
0.0246

> <Gold.Chemscore.DEInternal>
2.1845

> <Gold.Chemscore.Rot>
1.6508

> <Gold.Chemscore.Internal.Correction>
   9.000000E+99

> <Gold.Chemscore.Hbonds>
donor molecule, donor type, donor heavy atom, donor atom, acceptor molecule, acceptor atom, score
      L1  H     3    24       P1  7948  1.00
      L1  H    17    43       P1  7948  0.83
      P1  H  7989  7998       L1    14  0.90

> <Gold.Chemscore.Hbond.Weighted>
-9.5123

> <Gold.Chemscore.Metal.Weighted>
-0.0000

> <Gold.Chemscore.Lipo.Weighted>
-8.9125

> <Gold.Chemscore.Internal_Hbond.Weighted>
0.0000

> <Gold.Chemscore.DEClash.Weighted>
0.0246

> <Gold.Chemscore.DEInternal.Weighted>
2.1845

> <Gold.Chemscore.Rot.Weighted>
4.2262

> <Gold.Chemscore.Internal.Correction.Weighted>
   9.000000E+99

> <Gold.Protein.RotatedTorsions>
[ 6907 6896 6895 6894 ] final  -10.40 input  -60.11 | X-H torsion
[ 7974 7965 7964 7962 ] final -100.08 input  175.53 | X-H torsion
[ 8008 7997 7996 7995 ] final  -34.72 input   59.86 | X-H torsion
[ 10167 10162 10161 10158 ] final   83.40 input  -65.29 | X-H torsion
[ 10718 10713 10712 10709 ] final   91.44 input   66.30 | X-H torsion
[ 10763 10752 10751 10750 ] final -101.25 input  -60.55 | X-H torsion
[ 11005 11000 10999 10996 ] final  146.39 input  -57.11 | X-H torsion

> <Gold.Protein.ActiveResidues>
 VAL166  LYS551  ARG553  GLY616  TRP617  ASP618  TYR619  PRO620  LYS621  CYS622 
 ASP623  PHE694  ASN695  SER759  ASP760  ASP761  ALA762  ILE779  LEU786  VAL792 
 PHE793  MET794  SER795  GLU796  ALA797  LYS798  CYS799  TRP800  GLU811  SER814 

> <Gold.Protein.RotatedAtoms>
  151.4025  135.0973  159.9559 H   0  0  0  0  0  0  0  0  0  0  0  0  # atno 6907 bound_to 6896
  152.5046  133.8875  159.7387 H   0  0  0  0  0  0  0  0  0  0  0  0  # atno 6908 bound_to 6896
  150.9352  133.6664  159.2830 H   0  0  0  0  0  0  0  0  0  0  0  0  # atno 6909 bound_to 6896
  145.2992  140.9373  143.2833 H   0  0  0  0  0  0  0  0  0  0  0  0  # atno 7974 bound_to 7965
  154.4113  140.1676  156.2095 H   0  0  0  0  0  0  0  0  0  0  0  0  # atno 8008 bound_to 7997
  155.9456  140.3405  155.6341 H   0  0  0  0  0  0  0  0  0  0  0  0  # atno 8009 bound_to 7997
  155.6934  140.0736  157.2430 H   0  0  0  0  0  0  0  0  0  0  0  0  # atno 8010 bound_to 7997
  139.9187  144.6226  150.8462 H   0  0  0  0  0  0  0  0  0  0  0  0  # atno 10167 bound_to 10162
  157.6960  131.0407  150.3730 H   0  0  0  0  0  0  0  0  0  0  0  0  # atno 10718 bound_to 10713
  154.7643  135.4904  153.9525 H   0  0  0  0  0  0  0  0  0  0  0  0  # atno 10763 bound_to 10752
  153.1289  135.6748  153.9218 H   0  0  0  0  0  0  0  0  0  0  0  0  # atno 10764 bound_to 10752
  153.8928  135.3119  155.3426 H   0  0  0  0  0  0  0  0  0  0  0  0  # atno 10765 bound_to 10752
  140.0789  134.9108  157.1469 H   0  0  0  0  0  0  0  0  0  0  0  0  # atno 11005 bound_to 11000
  144.9108  139.4531  143.6588 LP  0  0  0  0  0  0  0  0  0  0  0  0  # atno 17320 bound_to 7965
  146.3158  139.7914  142.8984 LP  0  0  0  0  0  0  0  0  0  0  0  0  # atno 17321 bound_to 7965
  140.7667  143.3312  151.2405 LP  0  0  0  0  0  0  0  0  0  0  0  0  # atno 17342 bound_to 10162
  139.6880  143.9741  152.2844 LP  0  0  0  0  0  0  0  0  0  0  0  0  # atno 17343 bound_to 10162
  156.4153  130.3942  149.6863 LP  0  0  0  0  0  0  0  0  0  0  0  0  # atno 17370 bound_to 10713
  156.4133  130.7733  151.2747 LP  0  0  0  0  0  0  0  0  0  0  0  0  # atno 17371 bound_to 10713
  140.3516  134.2592  155.7198 LP  0  0  0  0  0  0  0  0  0  0  0  0  # atno 17394 bound_to 11000
  141.2039  133.7899  157.0312 LP  0  0  0  0  0  0  0  0  0  0  0  0  # atno 17395 bound_to 11000

$$$$
