AV-unprocessed.smi:1964|AV-procd|sdf|7929|dock8
  -GOLD-   2272010103D 1   1.00000     0.00000
 Structure written by MMmdl.
 46 48  0  0  0  0  0  0  0  0  1 V2000
  147.5122  137.8898  154.3965 C   0  0  0  0  0  0  0  0  0  0  0  0
  147.4401  139.4034  154.1288 C   0  0  1  0  0  0  0  0  0  0  0  0
  146.3135  140.0670  154.9500 C   0  0  0  0  0  0  0  0  0  0  0  0
  146.2101  141.5726  154.6558 C   0  0  0  0  0  0  0  0  0  0  0  0
  147.5517  142.2852  154.8866 C   0  0  0  0  0  0  0  0  0  0  0  0
  148.6793  141.6277  154.0705 C   0  0  0  0  0  0  0  0  0  0  0  0
  148.7956  140.1166  154.3588 C   0  0  1  0  0  0  0  0  0  0  0  0
  149.2537  139.9014  155.7271 N   0  0  0  0  0  0  0  0  0  0  0  0
  150.5212  139.8968  156.1695 C   0  0  0  0  0  0  0  0  0  0  0  0
  151.4900  140.0814  155.4345 O   0  0  0  0  0  0  0  0  0  0  0  0
  150.7443  139.6547  157.6738 C   0  0  0  0  0  0  0  0  0  0  0  0
  151.4933  140.7359  158.3586 N   0  0  0  0  0  0  0  0  0  0  0  0
  152.5707  140.3801  159.2105 C   0  0  0  0  0  0  0  0  0  0  0  0
  152.8671  139.1994  159.3999 O   0  0  0  0  0  0  0  0  0  0  0  0
  153.2889  141.4981  159.8174 C   0  0  0  0  0  0  0  0  0  0  0  0
  154.3507  141.1802  160.7138 C   0  0  0  0  0  0  0  0  0  0  0  0
  155.2128  140.8986  161.4328 N   0  0  0  0  0  0  0  0  0  0  0  0
  152.9587  142.7741  159.5302 C   0  0  0  0  0  0  0  0  0  0  0  0
  151.9473  143.0972  158.6524 N   0  0  0  0  0  0  0  0  0  0  0  0
  151.5411  144.4580  158.4425 C   0  0  0  0  0  0  0  0  0  0  0  0
  152.2858  145.5906  159.1236 C   0  0  0  0  0  0  0  0  0  0  0  0
  150.8997  145.2154  159.5849 C   0  0  0  0  0  0  0  0  0  0  0  0
  151.1469  142.0822  158.0855 C   0  0  0  0  0  0  0  0  0  0  0  0
  150.1869  142.3555  157.3610 O   0  0  0  0  0  0  0  0  0  0  0  0
  147.7225  137.6730  155.4442 H   0  0  0  0  0  0  0  0  0  0  0  0
  148.2938  137.4227  153.7971 H   0  0  0  0  0  0  0  0  0  0  0  0
  146.5697  137.4036  154.1442 H   0  0  0  0  0  0  0  0  0  0  0  0
  147.1875  139.5247  153.0741 H   0  0  0  0  0  0  0  0  0  0  0  0
  145.3596  139.5885  154.7258 H   0  0  0  0  0  0  0  0  0  0  0  0
  146.4866  139.9142  156.0166 H   0  0  0  0  0  0  0  0  0  0  0  0
  145.8930  141.7204  153.6228 H   0  0  0  0  0  0  0  0  0  0  0  0
  145.4388  142.0210  155.2826 H   0  0  0  0  0  0  0  0  0  0  0  0
  147.4640  143.3375  154.6155 H   0  0  0  0  0  0  0  0  0  0  0  0
  147.8006  142.2627  155.9486 H   0  0  0  0  0  0  0  0  0  0  0  0
  148.4848  141.7757  153.0074 H   0  0  0  0  0  0  0  0  0  0  0  0
  149.6274  142.1264  154.2761 H   0  0  0  0  0  0  0  0  0  0  0  0
  149.5266  139.6886  153.6703 H   0  0  0  0  0  0  0  0  0  0  0  0
  148.5300  139.7388  156.4118 H   0  0  0  0  0  0  0  0  0  0  0  0
  149.7701  139.5019  158.1401 H   0  0  0  0  0  0  0  0  0  0  0  0
  151.2446  138.6927  157.7944 H   0  0  0  0  0  0  0  0  0  0  0  0
  153.5146  143.5755  159.9957 H   0  0  0  0  0  0  0  0  0  0  0  0
  151.1501  144.6776  157.4507 H   0  0  0  0  0  0  0  0  0  0  0  0
  153.1116  145.3411  159.7871 H   0  0  0  0  0  0  0  0  0  0  0  0
  152.3983  146.5203  158.5699 H   0  0  0  0  0  0  0  0  0  0  0  0
  150.0874  145.8971  159.3411 H   0  0  0  0  0  0  0  0  0  0  0  0
  150.8153  144.7169  160.5489 H   0  0  0  0  0  0  0  0  0  0  0  0
  1  2  1  0  0  0  0
  1 25  1  0  0  0  0
  1 26  1  0  0  0  0
  1 27  1  0  0  0  0
  2  7  1  0  0  0  0
  2  3  1  0  0  0  0
  2 28  1  0  0  0  0
  3  4  1  0  0  0  0
  3 29  1  0  0  0  0
  3 30  1  0  0  0  0
  4  5  1  0  0  0  0
  4 31  1  0  0  0  0
  4 32  1  0  0  0  0
  5  6  1  0  0  0  0
  5 33  1  0  0  0  0
  5 34  1  0  0  0  0
  6  7  1  0  0  0  0
  6 35  1  0  0  0  0
  6 36  1  0  0  0  0
  7  8  1  0  0  0  0
  7 37  1  0  0  0  0
  8  9  1  0  0  0  0
  8 38  1  0  0  0  0
  9 10  2  0  0  0  0
  9 11  1  0  0  0  0
 11 12  1  0  0  0  0
 11 39  1  0  0  0  0
 11 40  1  0  0  0  0
 12 23  1  0  0  0  0
 12 13  1  0  0  0  0
 13 14  2  0  0  0  0
 13 15  1  0  0  0  0
 15 16  1  0  0  0  0
 15 18  2  0  0  0  0
 16 17  3  0  0  0  0
 18 19  1  0  0  0  0
 18 41  1  0  0  0  0
 19 20  1  0  0  0  0
 19 23  1  0  0  0  0
 20 22  1  0  0  0  0
 20 21  1  0  0  0  0
 20 42  1  0  0  0  0
 21 22  1  0  0  0  0
 21 43  1  0  0  0  0
 21 44  1  0  0  0  0
 22 45  1  0  0  0  0
 22 46  1  0  0  0  0
 23 24  2  0  0  0  0
M  END
> <s_m_source_file>
AV-unprocessed.smi

> <i_m_source_file_index>
1964

> <i_lp_mmshare_version>
43012

> <i_f3d_flags>
0

> <s_epik_input>
W0NIM11bQ0BASF0xW0NIMl1bQ0gyXVtDSDJdW0NIMl1bQ0BIXTFbTkhdQyg9TylbQ0gyXW4yYyg9TyljKEMjTilbY0hdbihjMj1PKVtDSF0zW0NIMl1bQ0gyXTM=

> <s_epik_cmdline>
J2VwaWtfcHl0aG9uJywgJy1waCcsICc3LjAnLCAnLXRuJywgJzgnLCAnLW1hJywgJzIwMCcsICctbWV0YWxfYmluZGluZycsICctaW1hZScsICc8aW5maWxlLm1hZT4nLCAnLW9tYWUnLCAnPG91dGZpbGUubWFlPic=

> <r_lp_tautomer_probability>
1

> <r_epik_Ionization_Penalty>
1.91372e-08

> <r_epik_Ionization_Penalty_Charging>
9.0283e-11

> <r_epik_Ionization_Penalty_Neutral>
1.90469e-08

> <r_epik_State_Penalty>
-0

> <r_epik_Charging_Adjusted_Penalty>
9.0283e-11

> <i_epik_Tot_Q>
0

> <i_epik_Tot_abs_Q>
0

> <r_epik_Metal_State_Penalty>
-0

> <b_epik_Metal_Only>
0

> <s_lp_Force_Field>
OPLS_2005

> <r_lp_Energy>
33.6562

> <b_lp_Chiralities_Consistent>
1

> <s_lp_Variant>
AV-unprocessed.smi:1964-2

> <Gold.Version>
5.8.1

> <Gold.Id.Protein>
6NUR|6NUR_protein|mol2

> <Gold.PLP.Fitness>
47.7207

> <Gold.PLP.PLP>
-45.9383

> <Gold.PLP.part.hbond>
-2.0000

> <Gold.PLP.part.metal>
0.0000

> <Gold.PLP.part.buried>
-2.6286

> <Gold.PLP.part.nonpolar>
-41.4337

> <Gold.PLP.part.repulsive>
0.1875

> <Gold.PLP.ligand.clash>
0.0000

> <Gold.PLP.ligand.torsion>
0.6665

> <Gold.PLP.Chemscore.Hbond>
0.9760

> <Gold.PLP.Chemscore.CHOScore>
0.0000

> <Gold.PLP.Chemscore.Metal>
0.0000

> <Gold.Chemscore.Hbonds>
donor molecule, donor type, donor heavy atom, donor atom, acceptor molecule, acceptor atom, score
      P1  H  7989  7998       L1    10  0.86

> <Gold.PLP.Chemscore.Internal.Correction>
0.1873

> <Gold.Rescore>
     Score         DG    S(hbond)    S(metal)    S(lipo)     H(rot)  DE(clash)    DE(int)     intcor
     12.92     -15.20       0.95        0.00      93.09       1.70       0.08       2.20       ----

> <Gold.Chemscore.Fitness>
12.9196

> <Gold.Chemscore.DG>
-15.1954

> <Gold.Chemscore.ZeroCoef>
-5.4800

> <Gold.Chemscore.Hbond>
0.9537

> <Gold.Chemscore.Metal>
0.0000

> <Gold.Chemscore.Lipo>
93.0914

> <Gold.Chemscore.Internal_Hbond>
0.0000

> <Gold.Chemscore.DEClash>
0.0760

> <Gold.Chemscore.DEInternal>
2.1997

> <Gold.Chemscore.Rot>
1.7038

> <Gold.Chemscore.Internal.Correction>
   9.000000E+99

> <Gold.Chemscore.Hbonds>
donor molecule, donor type, donor heavy atom, donor atom, acceptor molecule, acceptor atom, score
      P1  H  7989  7998       L1    10  0.79

> <Gold.Chemscore.Hbond.Weighted>
-3.1854

> <Gold.Chemscore.Metal.Weighted>
-0.0000

> <Gold.Chemscore.Lipo.Weighted>
-10.8917

> <Gold.Chemscore.Internal_Hbond.Weighted>
0.0000

> <Gold.Chemscore.DEClash.Weighted>
0.0760

> <Gold.Chemscore.DEInternal.Weighted>
2.1997

> <Gold.Chemscore.Rot.Weighted>
4.3618

> <Gold.Chemscore.Internal.Correction.Weighted>
   9.000000E+99

> <Gold.Protein.RotatedTorsions>
[ 6907 6896 6895 6894 ] final  -84.55 input  -60.11 | X-H torsion
[ 7974 7965 7964 7962 ] final   59.00 input  175.53 | X-H torsion
[ 8008 7997 7996 7995 ] final   60.14 input   59.86 | X-H torsion
[ 10167 10162 10161 10158 ] final   77.51 input  -65.29 | X-H torsion
[ 10718 10713 10712 10709 ] final -120.28 input   66.30 | X-H torsion
[ 10763 10752 10751 10750 ] final -179.16 input  -60.55 | X-H torsion
[ 11005 11000 10999 10996 ] final   -7.11 input  -57.11 | X-H torsion

> <Gold.Protein.ActiveResidues>
 VAL166  LYS551  ARG553  GLY616  TRP617  ASP618  TYR619  PRO620  LYS621  CYS622 
 ASP623  PHE694  ASN695  SER759  ASP760  ASP761  ALA762  ILE779  LEU786  VAL792 
 PHE793  MET794  SER795  GLU796  ALA797  LYS798  CYS799  TRP800  GLU811  SER814 

> <Gold.Protein.RotatedAtoms>
  150.6876  134.3341  159.4839 H   0  0  0  0  0  0  0  0  0  0  0  0  # atno 6907 bound_to 6896
  152.1202  134.9208  160.0572 H   0  0  0  0  0  0  0  0  0  0  0  0  # atno 6908 bound_to 6896
  152.0418  133.3946  159.4377 H   0  0  0  0  0  0  0  0  0  0  0  0  # atno 6909 bound_to 6896
  145.9119  139.3661  143.0530 H   0  0  0  0  0  0  0  0  0  0  0  0  # atno 7974 bound_to 7965
  155.5776  140.3491  155.4531 H   0  0  0  0  0  0  0  0  0  0  0  0  # atno 8008 bound_to 7997
  156.0398  140.1293  157.0194 H   0  0  0  0  0  0  0  0  0  0  0  0  # atno 8009 bound_to 7997
  154.4387  140.1026  156.6205 H   0  0  0  0  0  0  0  0  0  0  0  0  # atno 8010 bound_to 7997
  139.9808  144.5828  150.7902 H   0  0  0  0  0  0  0  0  0  0  0  0  # atno 10167 bound_to 10162
  156.1246  130.6349  150.9521 H   0  0  0  0  0  0  0  0  0  0  0  0  # atno 10718 bound_to 10713
  154.5386  135.2804  155.1116 H   0  0  0  0  0  0  0  0  0  0  0  0  # atno 10763 bound_to 10752
  154.2607  135.6322  153.5277 H   0  0  0  0  0  0  0  0  0  0  0  0  # atno 10764 bound_to 10752
  152.9973  135.5605  154.5919 H   0  0  0  0  0  0  0  0  0  0  0  0  # atno 10765 bound_to 10752
  140.7092  133.8923  155.8738 H   0  0  0  0  0  0  0  0  0  0  0  0  # atno 11005 bound_to 11000
  145.8660  140.9448  143.0675 LP  0  0  0  0  0  0  0  0  0  0  0  0  # atno 17320 bound_to 7965
  144.6744  140.0592  143.7476 LP  0  0  0  0  0  0  0  0  0  0  0  0  # atno 17321 bound_to 7965
  140.7490  143.2931  151.3277 LP  0  0  0  0  0  0  0  0  0  0  0  0  # atno 17342 bound_to 10162
  139.6411  144.0537  152.2555 LP  0  0  0  0  0  0  0  0  0  0  0  0  # atno 17343 bound_to 10162
  157.6428  131.0908  150.8216 LP  0  0  0  0  0  0  0  0  0  0  0  0  # atno 17370 bound_to 10713
  156.8308  130.5015  149.5332 LP  0  0  0  0  0  0  0  0  0  0  0  0  # atno 17371 bound_to 10713
  141.0099  134.1035  157.4232 LP  0  0  0  0  0  0  0  0  0  0  0  0  # atno 17394 bound_to 11000
  139.8876  135.0091  156.6570 LP  0  0  0  0  0  0  0  0  0  0  0  0  # atno 17395 bound_to 11000

$$$$
