AV-unprocessed.smi:290|AV-procd|sdf|2236|dock1
  -GOLD-   2262022103D 1   1.00000     0.00000
 Structure written by MMmdl.
 59 62  0  0  0  0  0  0  0  0  2 V2000
  151.2494  145.5741  159.2402 C   0  0  0  0  0  0  0  0  0  0  0  0
  152.0775  144.2944  159.4330 C   0  0  1  0  0  0  0  0  0  0  0  0
  152.5536  144.1828  160.7732 O   0  0  0  0  0  0  0  0  0  0  0  0
  152.3741  142.8568  161.2571 C   0  0  0  0  0  0  0  0  0  0  0  0
  152.1244  142.0033  160.0179 C   0  0  0  0  0  0  0  0  0  0  0  0
  151.3721  142.9597  159.1027 C   0  0  1  0  0  0  0  0  0  0  0  0
  150.0158  143.0032  159.5142 O   0  0  0  0  0  0  0  0  0  0  0  0
  151.3518  142.5602  157.6039 C   0  0  0  0  0  0  0  0  0  0  0  0
  150.5673  141.3750  157.2936 N   0  0  0  0  0  0  0  0  0  0  0  0
  149.3913  141.3259  156.5790 C   0  0  0  0  0  0  0  0  0  0  0  0
  148.8775  140.1353  156.4321 N   0  0  0  0  0  0  0  0  0  0  0  0
  149.7750  139.2973  157.0824 C   0  0  0  0  0  0  0  0  0  0  0  0
  149.8404  137.8943  157.3128 C   0  0  0  0  0  0  0  0  0  0  0  0
  148.9247  136.9974  156.8880 N   0  0  0  0  0  0  0  0  0  0  0  0
  147.5639  137.1919  157.3786 C   0  0  0  0  0  0  0  0  0  0  0  0
  146.6374  136.8589  156.2079 C   0  0  0  0  0  0  0  0  0  0  0  0
  147.4974  137.2093  154.9893 C   0  0  2  0  0  0  0  0  0  0  0  0
  147.0380  136.6475  153.6843 N   0  3  1  0  0  0  0  0  0  0  0  0
  146.5236  135.2594  153.8066 C   0  0  0  0  0  0  0  0  0  0  0  0
  146.0681  137.5434  152.9948 C   0  0  0  0  0  0  0  0  0  0  0  0
  146.6839  138.8848  152.5541 C   0  0  0  0  0  0  0  0  0  0  0  0
  147.6364  138.6771  151.5332 O   0  0  0  0  0  0  0  0  0  0  0  0
  148.8989  136.7455  155.4495 C   0  0  2  0  0  0  0  0  0  0  0  0
  149.1973  135.2568  155.1898 C   0  0  0  0  0  0  0  0  0  0  0  0
  150.9034  137.4096  157.9985 N   0  0  0  0  0  0  0  0  0  0  0  0
  151.8492  138.2441  158.4411 C   0  0  0  0  0  0  0  0  0  0  0  0
  151.9209  139.5705  158.3080 N   0  0  0  0  0  0  0  0  0  0  0  0
  150.8507  140.0595  157.6177 C   0  0  0  0  0  0  0  0  0  0  0  0
  147.5005  138.2962  154.8942 H   0  0  0  0  0  0  0  0  0  0  0  0
  149.6646  137.3391  154.9469 H   0  0  0  0  0  0  0  0  0  0  0  0
  150.8851  145.6540  158.2159 H   0  0  0  0  0  0  0  0  0  0  0  0
  151.8527  146.4581  159.4468 H   0  0  0  0  0  0  0  0  0  0  0  0
  150.3887  145.6027  159.9087 H   0  0  0  0  0  0  0  0  0  0  0  0
  152.9813  144.3818  158.8322 H   0  0  0  0  0  0  0  0  0  0  0  0
  153.2387  142.5211  161.8298 H   0  0  0  0  0  0  0  0  0  0  0  0
  151.5047  142.8389  161.9154 H   0  0  0  0  0  0  0  0  0  0  0  0
  153.0880  141.7295  159.5896 H   0  0  0  0  0  0  0  0  0  0  0  0
  151.5811  141.0827  160.2339 H   0  0  0  0  0  0  0  0  0  0  0  0
  149.7763  143.9040  159.6683 H   0  0  0  0  0  0  0  0  0  0  0  0
  150.9622  143.3848  157.0052 H   0  0  0  0  0  0  0  0  0  0  0  0
  152.3705  142.3888  157.2528 H   0  0  0  0  0  0  0  0  0  0  0  0
  148.9196  142.2093  156.1735 H   0  0  0  0  0  0  0  0  0  0  0  0
  147.3678  136.5455  158.2343 H   0  0  0  0  0  0  0  0  0  0  0  0
  147.4068  138.2218  157.7023 H   0  0  0  0  0  0  0  0  0  0  0  0
  146.3979  135.7946  156.2156 H   0  0  0  0  0  0  0  0  0  0  0  0
  145.7028  137.4189  156.2541 H   0  0  0  0  0  0  0  0  0  0  0  0
  145.6822  135.2161  154.4994 H   0  0  0  0  0  0  0  0  0  0  0  0
  147.2960  134.5787  154.1638 H   0  0  0  0  0  0  0  0  0  0  0  0
  146.1915  134.8620  152.8493 H   0  0  0  0  0  0  0  0  0  0  0  0
  145.6502  137.0223  152.1322 H   0  0  0  0  0  0  0  0  0  0  0  0
  145.2233  137.7640  153.6470 H   0  0  0  0  0  0  0  0  0  0  0  0
  145.9351  139.6004  152.2179 H   0  0  0  0  0  0  0  0  0  0  0  0
  147.1928  139.3469  153.4004 H   0  0  0  0  0  0  0  0  0  0  0  0
  148.2898  139.3586  151.5860 H   0  0  0  0  0  0  0  0  0  0  0  0
  149.2398  135.0339  154.1252 H   0  0  0  0  0  0  0  0  0  0  0  0
  148.4454  134.6074  155.6386 H   0  0  0  0  0  0  0  0  0  0  0  0
  150.1637  134.9792  155.6121 H   0  0  0  0  0  0  0  0  0  0  0  0
  152.6643  137.7842  158.9801 H   0  0  0  0  0  0  0  0  0  0  0  0
  147.8563  136.6041  153.0934 H   0  0  0  0  0  0  0  0  0  0  0  0
  1  2  1  0  0  0  0
  1 31  1  0  0  0  0
  1 32  1  0  0  0  0
  1 33  1  0  0  0  0
  2  6  1  0  0  0  0
  2  3  1  0  0  0  0
  2 34  1  0  0  0  0
  3  4  1  0  0  0  0
  4  5  1  0  0  0  0
  4 35  1  0  0  0  0
  4 36  1  0  0  0  0
  5  6  1  0  0  0  0
  5 37  1  0  0  0  0
  5 38  1  0  0  0  0
  6  7  1  0  0  0  0
  6  8  1  0  0  0  0
  7 39  1  0  0  0  0
  8  9  1  0  0  0  0
  8 40  1  0  0  0  0
  8 41  1  0  0  0  0
  9 28  1  0  0  0  0
  9 10  1  0  0  0  0
 10 11  2  0  0  0  0
 10 42  1  0  0  0  0
 11 12  1  0  0  0  0
 12 28  2  0  0  0  0
 12 13  1  0  0  0  0
 13 14  1  0  0  0  0
 13 25  2  0  0  0  0
 14 23  1  0  0  0  0
 14 15  1  0  0  0  0
 15 16  1  0  0  0  0
 15 43  1  0  0  0  0
 15 44  1  0  0  0  0
 16 17  1  0  0  0  0
 16 45  1  0  0  0  0
 16 46  1  0  0  0  0
 17 29  1  0  0  0  0
 17 18  1  0  0  0  0
 17 23  1  0  0  0  0
 18 19  1  0  0  0  0
 18 20  1  0  0  0  0
 18 59  1  0  0  0  0
 19 47  1  0  0  0  0
 19 48  1  0  0  0  0
 19 49  1  0  0  0  0
 20 21  1  0  0  0  0
 20 50  1  0  0  0  0
 20 51  1  0  0  0  0
 21 22  1  0  0  0  0
 21 52  1  0  0  0  0
 21 53  1  0  0  0  0
 22 54  1  0  0  0  0
 23 30  1  0  0  0  0
 23 24  1  0  0  0  0
 24 55  1  0  0  0  0
 24 56  1  0  0  0  0
 24 57  1  0  0  0  0
 25 26  1  0  0  0  0
 26 27  2  0  0  0  0
 26 58  1  0  0  0  0
 27 28  1  0  0  0  0
M  CHG  1  18   1
M  END
> <s_m_source_file>
AV-unprocessed.smi

> <i_m_source_file_index>
290

> <i_lp_mmshare_version>
43012

> <i_f3d_flags>
0

> <s_epik_input>
W0NIMl0xW0NIMl1PW0NAQEhdKFtDSDNdKVtDQEBdMShbT0hdKVtDSDJdbihbY0hdbjIpYyhjMjMpbltjSF1uYzNONFtDSDJdW0NIMl1bQ0BIXShbQ0BIXTRbQ0gzXSlOKFtDSDNdKVtDSDJdW0NIMl1bT0hd

> <s_epik_cmdline>
J2VwaWtfcHl0aG9uJywgJy1waCcsICc3LjAnLCAnLXRuJywgJzgnLCAnLW1hJywgJzIwMCcsICctbWV0YWxfYmluZGluZycsICctaW1hZScsICc8aW5maWxlLm1hZT4nLCAnLW9tYWUnLCAnPG91dGZpbGUubWFlPic=

> <r_lp_tautomer_probability>
1

> <r_epik_Ionization_Penalty>
0.0036983

> <r_epik_Ionization_Penalty_Charging>
0.0032725

> <r_epik_Ionization_Penalty_Neutral>
0.000425798

> <r_epik_State_Penalty>
-0

> <r_epik_Charging_Adjusted_Penalty>
0.0032725

> <i_epik_Tot_Q>
1

> <i_epik_Tot_abs_Q>
1

> <r_epik_Metal_State_Penalty>
-0

> <b_epik_Metal_Only>
0

> <s_lp_Force_Field>
OPLS_2005

> <r_lp_Energy>
67.6637

> <b_lp_Chiralities_Consistent>
1

> <s_lp_Variant>
AV-unprocessed.smi:290-22

> <Gold.Version>
5.8.1

> <Gold.Id.Protein>
6NUR|6NUR_protein|mol2

> <Gold.PLP.Fitness>
48.8649

> <Gold.PLP.PLP>
-35.9644

> <Gold.PLP.part.hbond>
-4.5794

> <Gold.PLP.part.metal>
0.0000

> <Gold.PLP.part.buried>
-1.3565

> <Gold.PLP.part.nonpolar>
-28.9445

> <Gold.PLP.part.repulsive>
0.0938

> <Gold.PLP.ligand.clash>
0.0000

> <Gold.PLP.ligand.torsion>
0.8235

> <Gold.PLP.Chemscore.Hbond>
3.8352

> <Gold.PLP.Chemscore.CHOScore>
0.9215

> <Gold.PLP.Chemscore.Metal>
0.0000

> <Gold.Chemscore.Hbonds>
donor molecule, donor type, donor heavy atom, donor atom, acceptor molecule, acceptor atom, score
      L1  H    18    59       P1  7948  2.00
      L1  H    22    54       P1  7957  0.94
      P1  H  7954  7966       L1    22  0.82
      L1  C    10    42       P1  8028  0.93

> <Gold.PLP.Chemscore.Internal.Correction>
0.2775

> <Gold.Rescore>
     Score         DG    S(hbond)    S(metal)    S(lipo)     H(rot)  DE(clash)    DE(int)     intcor
     10.83     -12.87       1.99        0.00      86.59       3.67       0.01       2.03       ----

> <Gold.Chemscore.Fitness>
10.8336

> <Gold.Chemscore.DG>
-12.8684

> <Gold.Chemscore.ZeroCoef>
-5.4800

> <Gold.Chemscore.Hbond>
1.9887

> <Gold.Chemscore.Metal>
0.0000

> <Gold.Chemscore.Lipo>
86.5855

> <Gold.Chemscore.Internal_Hbond>
0.0000

> <Gold.Chemscore.DEClash>
0.0058

> <Gold.Chemscore.DEInternal>
2.0290

> <Gold.Chemscore.Rot>
3.6658

> <Gold.Chemscore.Internal.Correction>
   9.000000E+99

> <Gold.Chemscore.Hbonds>
donor molecule, donor type, donor heavy atom, donor atom, acceptor molecule, acceptor atom, score
      L1  H    18    59       P1  7948  1.00
      L1  H    22    54       P1  7957  0.84
      P1  H  7954  7966       L1    22  0.16

> <Gold.Chemscore.Hbond.Weighted>
-6.6423

> <Gold.Chemscore.Metal.Weighted>
-0.0000

> <Gold.Chemscore.Lipo.Weighted>
-10.1305

> <Gold.Chemscore.Internal_Hbond.Weighted>
0.0000

> <Gold.Chemscore.DEClash.Weighted>
0.0058

> <Gold.Chemscore.DEInternal.Weighted>
2.0290

> <Gold.Chemscore.Rot.Weighted>
9.3844

> <Gold.Chemscore.Internal.Correction.Weighted>
   9.000000E+99

> <Gold.Protein.RotatedTorsions>
[ 6907 6896 6895 6894 ] final -146.90 input  -60.11 | X-H torsion
[ 7974 7965 7964 7962 ] final  -22.67 input  175.53 | X-H torsion
[ 8008 7997 7996 7995 ] final -135.77 input   59.86 | X-H torsion
[ 10167 10162 10161 10158 ] final -145.48 input  -65.29 | X-H torsion
[ 10718 10713 10712 10709 ] final  178.33 input   66.30 | X-H torsion
[ 10763 10752 10751 10750 ] final  143.00 input  -60.55 | X-H torsion
[ 11005 11000 10999 10996 ] final   86.43 input  -57.11 | X-H torsion

> <Gold.Protein.ActiveResidues>
 VAL166  LYS551  ARG553  GLY616  TRP617  ASP618  TYR619  PRO620  LYS621  CYS622 
 ASP623  PHE694  ASN695  SER759  ASP760  ASP761  ALA762  ILE779  LEU786  VAL792 
 PHE793  MET794  SER795  GLU796  ALA797  LYS798  CYS799  TRP800  GLU811  SER814 

> <Gold.Protein.RotatedAtoms>
  151.1481  133.4926  159.2595 H   0  0  0  0  0  0  0  0  0  0  0  0  # atno 6907 bound_to 6896
  151.1583  135.0260  159.8709 H   0  0  0  0  0  0  0  0  0  0  0  0  # atno 6908 bound_to 6896
  152.5463  134.1358  159.8511 H   0  0  0  0  0  0  0  0  0  0  0  0  # atno 6909 bound_to 6896
  146.1662  140.4511  142.8551 H   0  0  0  0  0  0  0  0  0  0  0  0  # atno 7974 bound_to 7965
  155.3841  140.0496  157.3043 H   0  0  0  0  0  0  0  0  0  0  0  0  # atno 8008 bound_to 7997
  154.5068  140.2177  155.9197 H   0  0  0  0  0  0  0  0  0  0  0  0  # atno 8009 bound_to 7997
  156.1535  140.3131  155.8692 H   0  0  0  0  0  0  0  0  0  0  0  0  # atno 8010 bound_to 7997
  139.7802  143.8112  152.2637 H   0  0  0  0  0  0  0  0  0  0  0  0  # atno 10167 bound_to 10162
  156.8922  130.9851  151.3048 H   0  0  0  0  0  0  0  0  0  0  0  0  # atno 10718 bound_to 10713
  153.9652  135.2956  155.3431 H   0  0  0  0  0  0  0  0  0  0  0  0  # atno 10763 bound_to 10752
  154.7353  135.5049  153.9034 H   0  0  0  0  0  0  0  0  0  0  0  0  # atno 10764 bound_to 10752
  153.0927  135.6712  153.9934 H   0  0  0  0  0  0  0  0  0  0  0  0  # atno 10765 bound_to 10752
  139.8945  134.8355  156.2719 H   0  0  0  0  0  0  0  0  0  0  0  0  # atno 11005 bound_to 11000
  144.8096  140.6361  143.6424 LP  0  0  0  0  0  0  0  0  0  0  0  0  # atno 17320 bound_to 7965
  145.4461  139.1529  143.3944 LP  0  0  0  0  0  0  0  0  0  0  0  0  # atno 17321 bound_to 7965
  139.8172  144.7311  150.9619 LP  0  0  0  0  0  0  0  0  0  0  0  0  # atno 17342 bound_to 10162
  140.7818  143.4193  151.0867 LP  0  0  0  0  0  0  0  0  0  0  0  0  # atno 17343 bound_to 10162
  157.6077  130.8559  149.8901 LP  0  0  0  0  0  0  0  0  0  0  0  0  # atno 17370 bound_to 10713
  156.0623  130.3698  150.0954 LP  0  0  0  0  0  0  0  0  0  0  0  0  # atno 17371 bound_to 10713
  141.0095  133.7104  156.1088 LP  0  0  0  0  0  0  0  0  0  0  0  0  # atno 17394 bound_to 11000
  140.7387  134.4174  157.5557 LP  0  0  0  0  0  0  0  0  0  0  0  0  # atno 17395 bound_to 11000

$$$$
