AV-unprocessed.smi:1829|AV-procd|sdf|7430|dock5
  -GOLD-   22720 9113D 1   1.00000     0.00000
 Structure written by MMmdl.
 46 48  0  0  0  0  0  0  0  0  2 V2000
  150.2274  132.2466  155.9279 C   0  0  0  0  0  0  0  0  0  0  0  0
  149.1731  132.9956  155.0983 C   0  0  0  0  0  0  0  0  0  0  0  0
  149.0986  132.4639  153.6580 C   0  0  0  0  0  0  0  0  0  0  0  0
  149.4042  134.5006  155.1366 C   0  0  0  0  0  0  0  0  0  0  0  0
  148.3935  135.3568  155.6225 C   0  0  0  0  0  0  0  0  0  0  0  0
  148.6061  136.7470  155.6790 C   0  0  0  0  0  0  0  0  0  0  0  0
  149.8314  137.2990  155.2502 C   0  0  0  0  0  0  0  0  0  0  0  0
  150.0641  138.7991  155.3619 C   0  0  2  0  0  0  0  0  0  0  0  0
  151.1793  139.2298  154.6098 O   0  0  0  0  0  0  0  0  0  0  0  0
  150.2672  139.2494  156.8239 C   0  0  0  0  0  0  0  0  0  0  0  0
  150.3336  140.7130  156.9663 N   0  0  0  0  0  0  0  0  0  0  0  0
  149.6371  141.6996  156.3292 C   0  0  0  0  0  0  0  0  0  0  0  0
  148.5727  141.5304  155.2961 C   0  0  0  0  0  0  0  0  0  0  0  0
  148.7129  142.4402  154.2281 O   0  0  0  0  0  0  0  0  0  0  0  0
  150.0887  142.8899  156.8152 N   0  3  0  0  0  0  0  0  0  0  0  0
  151.0786  142.6654  157.7722 C   0  0  0  0  0  0  0  0  0  0  0  0
  151.8283  143.5558  158.5345 C   0  0  0  0  0  0  0  0  0  0  0  0
  152.7619  142.9924  159.4288 C   0  0  0  0  0  0  0  0  0  0  0  0
  152.9213  141.5957  159.5409 C   0  0  0  0  0  0  0  0  0  0  0  0
  152.1556  140.7028  158.7623 C   0  0  0  0  0  0  0  0  0  0  0  0
  151.2370  141.2685  157.8789 C   0  0  0  0  0  0  0  0  0  0  0  0
  150.8403  136.4447  154.7556 C   0  0  0  0  0  0  0  0  0  0  0  0
  150.6284  135.0540  154.7017 C   0  0  0  0  0  0  0  0  0  0  0  0
  150.2290  132.5928  156.9621 H   0  0  0  0  0  0  0  0  0  0  0  0
  151.2312  132.3910  155.5273 H   0  0  0  0  0  0  0  0  0  0  0  0
  150.0277  131.1749  155.9408 H   0  0  0  0  0  0  0  0  0  0  0  0
  148.2041  132.7987  155.5592 H   0  0  0  0  0  0  0  0  0  0  0  0
  148.3183  132.9746  153.0927 H   0  0  0  0  0  0  0  0  0  0  0  0
  148.8686  131.3984  153.6464 H   0  0  0  0  0  0  0  0  0  0  0  0
  150.0403  132.6019  153.1260 H   0  0  0  0  0  0  0  0  0  0  0  0
  147.4516  134.9511  155.9621 H   0  0  0  0  0  0  0  0  0  0  0  0
  147.8284  137.3882  156.0671 H   0  0  0  0  0  0  0  0  0  0  0  0
  149.1985  139.3126  154.9424 H   0  0  0  0  0  0  0  0  0  0  0  0
  151.6307  138.4676  154.2797 H   0  0  0  0  0  0  0  0  0  0  0  0
  149.4527  138.8867  157.4521 H   0  0  0  0  0  0  0  0  0  0  0  0
  151.1842  138.8279  157.2382 H   0  0  0  0  0  0  0  0  0  0  0  0
  148.6095  140.5144  154.9023 H   0  0  0  0  0  0  0  0  0  0  0  0
  147.5917  141.6595  155.7506 H   0  0  0  0  0  0  0  0  0  0  0  0
  149.0053  143.2689  154.5758 H   0  0  0  0  0  0  0  0  0  0  0  0
  151.7073  144.6260  158.4511 H   0  0  0  0  0  0  0  0  0  0  0  0
  153.3676  143.6446  160.0413 H   0  0  0  0  0  0  0  0  0  0  0  0
  153.6459  141.2006  160.2382 H   0  0  0  0  0  0  0  0  0  0  0  0
  152.2851  139.6346  158.8551 H   0  0  0  0  0  0  0  0  0  0  0  0
  151.7877  136.8504  154.4319 H   0  0  0  0  0  0  0  0  0  0  0  0
  151.4154  134.4132  154.3321 H   0  0  0  0  0  0  0  0  0  0  0  0
  149.7388  143.7899  156.5124 H   0  0  0  0  0  0  0  0  0  0  0  0
  1  2  1  0  0  0  0
  1 24  1  0  0  0  0
  1 25  1  0  0  0  0
  1 26  1  0  0  0  0
  2  3  1  0  0  0  0
  2  4  1  0  0  0  0
  2 27  1  0  0  0  0
  3 28  1  0  0  0  0
  3 29  1  0  0  0  0
  3 30  1  0  0  0  0
  4 23  1  0  0  0  0
  4  5  2  0  0  0  0
  5  6  1  0  0  0  0
  5 31  1  0  0  0  0
  6  7  2  0  0  0  0
  6 32  1  0  0  0  0
  7  8  1  0  0  0  0
  7 22  1  0  0  0  0
  8  9  1  0  0  0  0
  8 10  1  0  0  0  0
  8 33  1  0  0  0  0
  9 34  1  0  0  0  0
 10 11  1  0  0  0  0
 10 35  1  0  0  0  0
 10 36  1  0  0  0  0
 11 21  1  0  0  0  0
 11 12  1  0  0  0  0
 12 13  1  0  0  0  0
 12 15  2  0  0  0  0
 13 14  1  0  0  0  0
 13 37  1  0  0  0  0
 13 38  1  0  0  0  0
 14 39  1  0  0  0  0
 15 16  1  0  0  0  0
 15 46  1  0  0  0  0
 16 21  2  0  0  0  0
 16 17  1  0  0  0  0
 17 18  2  0  0  0  0
 17 40  1  0  0  0  0
 18 19  1  0  0  0  0
 18 41  1  0  0  0  0
 19 20  2  0  0  0  0
 19 42  1  0  0  0  0
 20 21  1  0  0  0  0
 20 43  1  0  0  0  0
 22 23  2  0  0  0  0
 22 44  1  0  0  0  0
 23 45  1  0  0  0  0
M  CHG  1  15   1
M  END
> <s_m_source_file>
AV-unprocessed.smi

> <i_m_source_file_index>
1829

> <i_lp_mmshare_version>
43012

> <i_f3d_flags>
0

> <s_epik_input>
W0NIM11bQ0hdKFtDSDNdKWMxW2NIXVtjSF1jKFtjSF1bY0hdMSlbQ0BIXShbT0hdKVtDSDJdbihjKG4yKVtDSDJdW09IXSljKGMyMylbY0hdW2NIXVtjSF1bY0hdMw==

> <s_epik_cmdline>
J2VwaWtfcHl0aG9uJywgJy1waCcsICc3LjAnLCAnLXRuJywgJzgnLCAnLW1hJywgJzIwMCcsICctbWV0YWxfYmluZGluZycsICctaW1hZScsICc8aW5maWxlLm1hZT4nLCAnLW9tYWUnLCAnPG91dGZpbGUubWFlPic=

> <r_epik_Ionization_Penalty>
1.35642

> <r_epik_Ionization_Penalty_Charging>
1.35557

> <r_epik_Ionization_Penalty_Neutral>
0.000856322

> <r_epik_State_Penalty>
1.43401

> <r_epik_Charging_Adjusted_Penalty>
2.78958

> <i_epik_Tot_Q>
1

> <i_epik_Tot_abs_Q>
1

> <r_epik_Metal_State_Penalty>
5.47166

> <b_epik_Metal_Only>
0

> <s_lp_Force_Field>
OPLS_2005

> <r_lp_Energy>
15.3194

> <b_lp_Chiralities_Consistent>
1

> <s_lp_Variant>
AV-unprocessed.smi:1829-3

> <Gold.Version>
5.8.1

> <Gold.Id.Protein>
6NUR|6NUR_protein|mol2

> <Gold.PLP.Fitness>
50.6204

> <Gold.PLP.PLP>
-40.1020

> <Gold.PLP.part.hbond>
-4.0190

> <Gold.PLP.part.metal>
0.0000

> <Gold.PLP.part.buried>
-4.6780

> <Gold.PLP.part.nonpolar>
-33.3702

> <Gold.PLP.part.repulsive>
0.0345

> <Gold.PLP.ligand.clash>
0.0000

> <Gold.PLP.ligand.torsion>
0.9436

> <Gold.PLP.Chemscore.Hbond>
4.0950

> <Gold.PLP.Chemscore.CHOScore>
0.0000

> <Gold.PLP.Chemscore.Metal>
0.0000

> <Gold.Chemscore.Hbonds>
donor molecule, donor type, donor heavy atom, donor atom, acceptor molecule, acceptor atom, score
      L1  H    14    39       P1  8028  1.00
      L1  H    15    46       P1  8028  1.92
      P1  H  7989  7998       L1     9  1.00
      P1  H  8011  8017       L1    14  0.11

> <Gold.PLP.Chemscore.Internal.Correction>
0.1208

> <Gold.Rescore>
     Score         DG    S(hbond)    S(metal)    S(lipo)     H(rot)  DE(clash)    DE(int)     intcor
     20.18     -21.40       2.92        0.00     112.87       2.75       0.08       1.15       ----

> <Gold.Chemscore.Fitness>
20.1767

> <Gold.Chemscore.DG>
-21.4010

> <Gold.Chemscore.ZeroCoef>
-5.4800

> <Gold.Chemscore.Hbond>
2.9247

> <Gold.Chemscore.Metal>
0.0000

> <Gold.Chemscore.Lipo>
112.8651

> <Gold.Chemscore.Internal_Hbond>
0.0000

> <Gold.Chemscore.DEClash>
0.0793

> <Gold.Chemscore.DEInternal>
1.1450

> <Gold.Chemscore.Rot>
2.7550

> <Gold.Chemscore.Internal.Correction>
   9.000000E+99

> <Gold.Chemscore.Hbonds>
donor molecule, donor type, donor heavy atom, donor atom, acceptor molecule, acceptor atom, score
      L1  H    14    39       P1  8028  0.98
      L1  H    15    46       P1  8028  0.90
      P1  H  7989  7998       L1     9  0.70
      P1  H  8011  8017       L1    14  0.02

> <Gold.Chemscore.Hbond.Weighted>
-9.7685

> <Gold.Chemscore.Metal.Weighted>
-0.0000

> <Gold.Chemscore.Lipo.Weighted>
-13.2052

> <Gold.Chemscore.Internal_Hbond.Weighted>
0.0000

> <Gold.Chemscore.DEClash.Weighted>
0.0793

> <Gold.Chemscore.DEInternal.Weighted>
1.1450

> <Gold.Chemscore.Rot.Weighted>
7.0527

> <Gold.Chemscore.Internal.Correction.Weighted>
   9.000000E+99

> <Gold.Protein.RotatedTorsions>
[ 6907 6896 6895 6894 ] final   -8.41 input  -60.11 | X-H torsion
[ 7974 7965 7964 7962 ] final  -77.79 input  175.53 | X-H torsion
[ 8008 7997 7996 7995 ] final   26.68 input   59.86 | X-H torsion
[ 10167 10162 10161 10158 ] final   26.45 input  -65.29 | X-H torsion
[ 10718 10713 10712 10709 ] final  142.63 input   66.30 | X-H torsion
[ 10763 10752 10751 10750 ] final -101.39 input  -60.55 | X-H torsion
[ 11005 11000 10999 10996 ] final -179.53 input  -57.11 | X-H torsion

> <Gold.Protein.ActiveResidues>
 VAL166  LYS551  ARG553  GLY616  TRP617  ASP618  TYR619  PRO620  LYS621  CYS622 
 ASP623  PHE694  ASN695  SER759  ASP760  ASP761  ALA762  ILE779  LEU786  VAL792 
 PHE793  MET794  SER795  GLU796  ALA797  LYS798  CYS799  TRP800  GLU811  SER814 

> <Gold.Protein.RotatedAtoms>
  151.4340  135.1013  159.9650 H   0  0  0  0  0  0  0  0  0  0  0  0  # atno 6907 bound_to 6896
  152.4946  133.8591  159.7251 H   0  0  0  0  0  0  0  0  0  0  0  0  # atno 6908 bound_to 6896
  150.9135  133.6910  159.2877 H   0  0  0  0  0  0  0  0  0  0  0  0  # atno 6909 bound_to 6896
  145.5950  140.9421  143.1271 H   0  0  0  0  0  0  0  0  0  0  0  0  # atno 7974 bound_to 7965
  155.0310  140.3158  155.4758 H   0  0  0  0  0  0  0  0  0  0  0  0  # atno 8008 bound_to 7997
  156.2874  140.2180  156.5374 H   0  0  0  0  0  0  0  0  0  0  0  0  # atno 8009 bound_to 7997
  154.7370  140.0476  157.0765 H   0  0  0  0  0  0  0  0  0  0  0  0  # atno 8010 bound_to 7997
  140.5022  144.0297  150.6337 H   0  0  0  0  0  0  0  0  0  0  0  0  # atno 10167 bound_to 10162
  157.3783  131.0988  151.0763 H   0  0  0  0  0  0  0  0  0  0  0  0  # atno 10718 bound_to 10713
  154.7654  135.4899  153.9544 H   0  0  0  0  0  0  0  0  0  0  0  0  # atno 10763 bound_to 10752
  153.1301  135.6751  153.9200 H   0  0  0  0  0  0  0  0  0  0  0  0  # atno 10764 bound_to 10752
  153.8906  135.3121  155.3426 H   0  0  0  0  0  0  0  0  0  0  0  0  # atno 10765 bound_to 10752
  140.4177  134.6634  157.4647 H   0  0  0  0  0  0  0  0  0  0  0  0  # atno 11005 bound_to 11000
  144.7334  139.7656  143.7338 LP  0  0  0  0  0  0  0  0  0  0  0  0  # atno 17320 bound_to 7965
  146.1618  139.4735  142.9983 LP  0  0  0  0  0  0  0  0  0  0  0  0  # atno 17321 bound_to 7965
  140.3596  143.2916  152.0398 LP  0  0  0  0  0  0  0  0  0  0  0  0  # atno 17342 bound_to 10162
  139.4875  144.6313  151.7064 LP  0  0  0  0  0  0  0  0  0  0  0  0  # atno 17343 bound_to 10162
  157.1841  130.6322  149.5682 LP  0  0  0  0  0  0  0  0  0  0  0  0  # atno 17370 bound_to 10713
  155.9770  130.4744  150.6566 LP  0  0  0  0  0  0  0  0  0  0  0  0  # atno 17371 bound_to 10713
  140.0222  134.6529  155.9223 LP  0  0  0  0  0  0  0  0  0  0  0  0  # atno 17394 bound_to 11000
  141.1796  133.6544  156.4968 LP  0  0  0  0  0  0  0  0  0  0  0  0  # atno 17395 bound_to 11000

$$$$
