AV-unprocessed.smi:235|AV-procd|sdf|1804|dock1
  -GOLD-   2262020383D 1   1.00000     0.00000
 Structure written by MMmdl.
 54 58  0  0  0  0  0  0  0  0  1 V2000
  151.6021  141.0182  157.3676 O   0  0  0  0  0  0  0  0  0  0  0  0
  150.6000  141.6960  157.1346 C   0  0  0  0  0  0  0  0  0  0  0  0
  150.5791  143.0346  157.2089 N   0  0  0  0  0  0  0  0  0  0  0  0
  151.6849  143.8620  157.5671 C   0  0  0  0  0  0  0  0  0  0  0  0
  152.4994  143.4609  158.7779 C   0  0  0  0  0  0  0  0  0  0  0  0
  151.5828  144.6507  158.8547 C   0  0  0  0  0  0  0  0  0  0  0  0
  149.2812  141.0205  156.7258 C   0  0  1  0  0  0  0  0  0  0  0  0
  148.7633  141.5604  155.3825 C   0  0  0  0  0  0  0  0  0  0  0  0
  147.9703  140.3932  154.8031 C   0  0  0  0  0  0  0  0  0  0  0  0
  148.7598  139.1695  155.2647 C   0  0  0  0  0  0  0  0  0  0  0  0
  149.4454  139.5845  156.4822 N   0  0  0  0  0  0  0  0  0  0  0  0
  149.6380  138.6883  157.4872 C   0  0  0  0  0  0  0  0  0  0  0  0
  150.8922  138.4939  157.9759 N   0  0  0  0  0  0  0  0  0  0  0  0
  151.1095  137.6190  158.9614 C   0  0  0  0  0  0  0  0  0  0  0  0
  150.2307  136.8406  159.5935 N   0  0  0  0  0  0  0  0  0  0  0  0
  148.9705  137.0232  159.1058 C   0  0  0  0  0  0  0  0  0  0  0  0
  148.5880  137.9165  158.0643 C   0  0  0  0  0  0  0  0  0  0  0  0
  147.2203  137.8104  157.8352 N   0  0  0  0  0  0  0  0  0  0  0  0
  146.8190  136.9125  158.6926 C   0  0  0  0  0  0  0  0  0  0  0  0
  147.8041  136.3926  159.5006 N   0  0  0  0  0  0  0  0  0  0  0  0
  147.6409  135.3847  160.5360 C   0  0  0  0  0  0  0  0  0  0  0  0
  146.8896  135.8920  161.7869 C   0  0  1  0  0  0  0  0  0  0  0  0
  146.7423  137.2959  161.7028 O   0  0  0  0  0  0  0  0  0  0  0  0
  145.4934  135.2649  161.9752 C   0  0  2  0  0  0  0  0  0  0  0  0
  145.4812  133.7352  161.9989 C   0  0  0  0  0  0  0  0  0  0  0  0
  144.0861  133.3750  161.5093 C   0  0  0  0  0  0  0  0  0  0  0  0
  143.5356  134.6884  160.9475 C   0  0  0  0  0  0  0  0  0  0  0  0
  144.6622  135.5475  160.8602 O   0  0  0  0  0  0  0  0  0  0  0  0
  149.7094  143.5037  157.0019 H   0  0  0  0  0  0  0  0  0  0  0  0
  152.2348  144.3408  156.7579 H   0  0  0  0  0  0  0  0  0  0  0  0
  152.2025  142.5627  159.3161 H   0  0  0  0  0  0  0  0  0  0  0  0
  153.5700  143.6526  158.7474 H   0  0  0  0  0  0  0  0  0  0  0  0
  152.0407  145.6377  158.8757 H   0  0  0  0  0  0  0  0  0  0  0  0
  150.6746  144.5466  159.4455 H   0  0  0  0  0  0  0  0  0  0  0  0
  148.5163  141.1721  157.4902 H   0  0  0  0  0  0  0  0  0  0  0  0
  148.1547  142.4575  155.5000 H   0  0  0  0  0  0  0  0  0  0  0  0
  149.5872  141.8040  154.7089 H   0  0  0  0  0  0  0  0  0  0  0  0
  146.9723  140.3758  155.2433 H   0  0  0  0  0  0  0  0  0  0  0  0
  147.8602  140.4450  153.7196 H   0  0  0  0  0  0  0  0  0  0  0  0
  148.0982  138.3159  155.4204 H   0  0  0  0  0  0  0  0  0  0  0  0
  149.5073  138.8916  154.5207 H   0  0  0  0  0  0  0  0  0  0  0  0
  152.1346  137.5292  159.2890 H   0  0  0  0  0  0  0  0  0  0  0  0
  145.7852  136.6066  158.7641 H   0  0  0  0  0  0  0  0  0  0  0  0
  147.1093  134.5369  160.1024 H   0  0  0  0  0  0  0  0  0  0  0  0
  148.6270  135.0108  160.8146 H   0  0  0  0  0  0  0  0  0  0  0  0
  147.5020  135.6759  162.6631 H   0  0  0  0  0  0  0  0  0  0  0  0
  146.4243  137.6152  162.5334 H   0  0  0  0  0  0  0  0  0  0  0  0
  145.0128  135.6469  162.8782 H   0  0  0  0  0  0  0  0  0  0  0  0
  146.2229  133.3384  161.3043 H   0  0  0  0  0  0  0  0  0  0  0  0
  145.6999  133.3319  162.9883 H   0  0  0  0  0  0  0  0  0  0  0  0
  144.1364  132.6021  160.7413 H   0  0  0  0  0  0  0  0  0  0  0  0
  143.4558  133.0047  162.3186 H   0  0  0  0  0  0  0  0  0  0  0  0
  143.0579  134.5629  159.9756 H   0  0  0  0  0  0  0  0  0  0  0  0
  142.8064  135.1231  161.6325 H   0  0  0  0  0  0  0  0  0  0  0  0
  1  2  2  0  0  0  0
  2  3  1  0  0  0  0
  2  7  1  0  0  0  0
  3  4  1  0  0  0  0
  3 29  1  0  0  0  0
  4  6  1  0  0  0  0
  4  5  1  0  0  0  0
  4 30  1  0  0  0  0
  5  6  1  0  0  0  0
  5 31  1  0  0  0  0
  5 32  1  0  0  0  0
  6 33  1  0  0  0  0
  6 34  1  0  0  0  0
  7 11  1  0  0  0  0
  7  8  1  0  0  0  0
  7 35  1  0  0  0  0
  8  9  1  0  0  0  0
  8 36  1  0  0  0  0
  8 37  1  0  0  0  0
  9 10  1  0  0  0  0
  9 38  1  0  0  0  0
  9 39  1  0  0  0  0
 10 11  1  0  0  0  0
 10 40  1  0  0  0  0
 10 41  1  0  0  0  0
 11 12  1  0  0  0  0
 12 17  1  0  0  0  0
 12 13  2  0  0  0  0
 13 14  1  0  0  0  0
 14 15  2  0  0  0  0
 14 42  1  0  0  0  0
 15 16  1  0  0  0  0
 16 20  1  0  0  0  0
 16 17  2  0  0  0  0
 17 18  1  0  0  0  0
 18 19  2  0  0  0  0
 19 20  1  0  0  0  0
 19 43  1  0  0  0  0
 20 21  1  0  0  0  0
 21 22  1  0  0  0  0
 21 44  1  0  0  0  0
 21 45  1  0  0  0  0
 22 23  1  0  0  0  0
 22 24  1  0  0  0  0
 22 46  1  0  0  0  0
 23 47  1  0  0  0  0
 24 28  1  0  0  0  0
 24 25  1  0  0  0  0
 24 48  1  0  0  0  0
 25 26  1  0  0  0  0
 25 49  1  0  0  0  0
 25 50  1  0  0  0  0
 26 27  1  0  0  0  0
 26 51  1  0  0  0  0
 26 52  1  0  0  0  0
 27 28  1  0  0  0  0
 27 53  1  0  0  0  0
 27 54  1  0  0  0  0
M  END
> <s_m_source_file>
AV-unprocessed.smi

> <i_m_source_file_index>
235

> <i_lp_mmshare_version>
43012

> <i_f3d_flags>
0

> <s_epik_input>
W0NIMl0xW0NIMl1bQ0hdMVtOSF1DKD1PKVtDQEBIXTJbQ0gyXVtDSDJdW0NIMl1OMmMobltjSF1uMyljKGMzNCluW2NIXW40W0NIMl1bQ0BIXShbT0hdKVtDQEBIXTVbQ0gyXVtDSDJdW0NIMl1PNQ==

> <s_epik_cmdline>
J2VwaWtfcHl0aG9uJywgJy1waCcsICc3LjAnLCAnLXRuJywgJzgnLCAnLW1hJywgJzIwMCcsICctbWV0YWxfYmluZGluZycsICctaW1hZScsICc8aW5maWxlLm1hZT4nLCAnLW9tYWUnLCAnPG91dGZpbGUubWFlPic=

> <r_lp_tautomer_probability>
1

> <r_epik_Ionization_Penalty>
0.000526714

> <r_epik_Ionization_Penalty_Charging>
0

> <r_epik_Ionization_Penalty_Neutral>
0.000526714

> <r_epik_State_Penalty>
0.000272704

> <r_epik_Charging_Adjusted_Penalty>
0.000272704

> <i_epik_Tot_Q>
0

> <i_epik_Tot_abs_Q>
0

> <r_epik_Metal_State_Penalty>
-0

> <b_epik_Metal_Only>
0

> <s_lp_Force_Field>
OPLS_2005

> <r_lp_Energy>
57.0845

> <b_lp_Chiralities_Consistent>
1

> <s_lp_Variant>
AV-unprocessed.smi:235-4

> <Gold.Version>
5.8.1

> <Gold.Id.Protein>
6NUR|6NUR_protein|mol2

> <Gold.PLP.Fitness>
51.5162

> <Gold.PLP.PLP>
-45.8187

> <Gold.PLP.part.hbond>
-4.1201

> <Gold.PLP.part.metal>
0.0000

> <Gold.PLP.part.buried>
-7.0319

> <Gold.PLP.part.nonpolar>
-36.0269

> <Gold.PLP.part.repulsive>
0.0129

> <Gold.PLP.ligand.clash>
0.0000

> <Gold.PLP.ligand.torsion>
2.2181

> <Gold.PLP.Chemscore.Hbond>
3.2310

> <Gold.PLP.Chemscore.CHOScore>
0.0000

> <Gold.PLP.Chemscore.Metal>
0.0000

> <Gold.Chemscore.Hbonds>
donor molecule, donor type, donor heavy atom, donor atom, acceptor molecule, acceptor atom, score
      L1  H     3    29       P1  8028  0.83
      P1  H  6896  6907       L1    15  1.00
      P1  H  6934  6947       L1    23  0.79

> <Gold.PLP.Chemscore.Internal.Correction>
0.4407

> <Gold.Rescore>
     Score         DG    S(hbond)    S(metal)    S(lipo)     H(rot)  DE(clash)    DE(int)     intcor
     12.46     -16.73       1.97        0.00      98.45       2.68       0.03       4.23       ----

> <Gold.Chemscore.Fitness>
12.4643

> <Gold.Chemscore.DG>
-16.7271

> <Gold.Chemscore.ZeroCoef>
-5.4800

> <Gold.Chemscore.Hbond>
1.9697

> <Gold.Chemscore.Metal>
0.0000

> <Gold.Chemscore.Lipo>
98.4518

> <Gold.Chemscore.Internal_Hbond>
0.0000

> <Gold.Chemscore.DEClash>
0.0284

> <Gold.Chemscore.DEInternal>
4.2344

> <Gold.Chemscore.Rot>
2.6760

> <Gold.Chemscore.Internal.Correction>
   9.000000E+99

> <Gold.Chemscore.Hbonds>
donor molecule, donor type, donor heavy atom, donor atom, acceptor molecule, acceptor atom, score
      L1  H     3    29       P1  8028  0.77
      P1  H  6896  6907       L1    15  0.70
      P1  H  6934  6947       L1    23  0.11

> <Gold.Chemscore.Hbond.Weighted>
-6.5789

> <Gold.Chemscore.Metal.Weighted>
-0.0000

> <Gold.Chemscore.Lipo.Weighted>
-11.5189

> <Gold.Chemscore.Internal_Hbond.Weighted>
0.0000

> <Gold.Chemscore.DEClash.Weighted>
0.0284

> <Gold.Chemscore.DEInternal.Weighted>
4.2344

> <Gold.Chemscore.Rot.Weighted>
6.8506

> <Gold.Chemscore.Internal.Correction.Weighted>
   9.000000E+99

> <Gold.Protein.RotatedTorsions>
[ 6907 6896 6895 6894 ] final  -39.80 input  -60.11 | X-H torsion
[ 7974 7965 7964 7962 ] final    8.15 input  175.53 | X-H torsion
[ 8008 7997 7996 7995 ] final   12.64 input   59.86 | X-H torsion
[ 10167 10162 10161 10158 ] final  -78.55 input  -65.29 | X-H torsion
[ 10718 10713 10712 10709 ] final -154.95 input   66.30 | X-H torsion
[ 10763 10752 10751 10750 ] final -128.49 input  -60.55 | X-H torsion
[ 11005 11000 10999 10996 ] final -136.53 input  -57.11 | X-H torsion

> <Gold.Protein.ActiveResidues>
 VAL166  LYS551  ARG553  GLY616  TRP617  ASP618  TYR619  PRO620  LYS621  CYS622 
 ASP623  PHE694  ASN695  SER759  ASP760  ASP761  ALA762  ILE779  LEU786  VAL792 
 PHE793  MET794  SER795  GLU796  ALA797  LYS798  CYS799  TRP800  GLU811  SER814 

> <Gold.Protein.RotatedAtoms>
  150.9860  134.9205  159.7871 H   0  0  0  0  0  0  0  0  0  0  0  0  # atno 6907 bound_to 6896
  152.5236  134.3346  159.9205 H   0  0  0  0  0  0  0  0  0  0  0  0  # atno 6908 bound_to 6896
  151.3353  133.3943  159.2700 H   0  0  0  0  0  0  0  0  0  0  0  0  # atno 6909 bound_to 6896
  146.2419  139.9976  142.8419 H   0  0  0  0  0  0  0  0  0  0  0  0  # atno 7974 bound_to 7965
  154.8235  140.2887  155.5771 H   0  0  0  0  0  0  0  0  0  0  0  0  # atno 8008 bound_to 7997
  156.2999  140.2545  156.3077 H   0  0  0  0  0  0  0  0  0  0  0  0  # atno 8009 bound_to 7997
  154.9312  140.0383  157.2038 H   0  0  0  0  0  0  0  0  0  0  0  0  # atno 8010 bound_to 7997
  140.4672  143.2437  151.8260 H   0  0  0  0  0  0  0  0  0  0  0  0  # atno 10167 bound_to 10162
  156.5062  130.8414  151.2629 H   0  0  0  0  0  0  0  0  0  0  0  0  # atno 10718 bound_to 10713
  154.8756  135.3926  154.3766 H   0  0  0  0  0  0  0  0  0  0  0  0  # atno 10763 bound_to 10752
  153.4519  135.7028  153.6109 H   0  0  0  0  0  0  0  0  0  0  0  0  # atno 10764 bound_to 10752
  153.4645  135.3804  155.2325 H   0  0  0  0  0  0  0  0  0  0  0  0  # atno 10765 bound_to 10752
  140.8796  134.1948  157.4599 H   0  0  0  0  0  0  0  0  0  0  0  0  # atno 11005 bound_to 11000
  145.1445  140.9589  143.4469 LP  0  0  0  0  0  0  0  0  0  0  0  0  # atno 17320 bound_to 7965
  145.0264  139.3379  143.6046 LP  0  0  0  0  0  0  0  0  0  0  0  0  # atno 17321 bound_to 7965
  139.4813  144.4936  151.9153 LP  0  0  0  0  0  0  0  0  0  0  0  0  # atno 17342 bound_to 10162
  140.4021  144.2479  150.5892 LP  0  0  0  0  0  0  0  0  0  0  0  0  # atno 17343 bound_to 10162
  157.7456  130.9965  150.2782 LP  0  0  0  0  0  0  0  0  0  0  0  0  # atno 17370 bound_to 10713
  156.3284  130.3796  149.7512 LP  0  0  0  0  0  0  0  0  0  0  0  0  # atno 17371 bound_to 10713
  139.8718  134.9811  156.5103 LP  0  0  0  0  0  0  0  0  0  0  0  0  # atno 17394 bound_to 11000
  140.8477  133.8156  155.9137 LP  0  0  0  0  0  0  0  0  0  0  0  0  # atno 17395 bound_to 11000

$$$$
