AV-unprocessed.smi:2424|AV-procd|sdf|9559|dock3
  -GOLD-   2272013193D 1   1.00000     0.00000
 Structure written by MMmdl.
 50 51  0  0  0  0  0  0  0  0  1 V2000
  150.8316  139.1560  154.5802 C   0  0  0  0  0  0  0  0  0  0  0  0
  149.6314  138.9270  153.6474 C   0  0  0  0  0  0  0  0  0  0  0  0
  148.2969  139.5582  154.1252 C   0  0  0  0  0  0  0  0  0  0  0  0
  148.4647  141.0975  154.1586 C   0  0  0  0  0  0  0  0  0  0  0  0
  149.3096  141.6430  155.3223 C   0  0  0  0  0  0  0  0  0  0  0  0
  146.9824  139.0846  153.4375 C   0  0  1  0  0  0  0  0  0  0  0  0
  147.0750  137.7451  152.8538 N   0  0  0  0  0  0  0  0  0  0  0  0
  146.0453  137.0245  152.3922 C   0  0  0  0  0  0  0  0  0  0  0  0
  144.8775  137.4105  152.4275 O   0  0  0  0  0  0  0  0  0  0  0  0
  146.4747  135.8570  151.8813 N   0  0  0  0  0  0  0  0  0  0  0  0
  145.7212  134.7992  151.3563 C   0  0  0  0  0  0  0  0  0  0  0  0
  144.5919  135.0982  150.6916 C   0  0  0  0  0  0  0  0  0  0  0  0
  143.7853  134.1032  150.1344 N   0  0  0  0  0  0  0  0  0  0  0  0
  144.0563  132.7800  150.1999 C   0  0  0  0  0  0  0  0  0  0  0  0
  143.2914  131.9615  149.6926 O   0  0  0  0  0  0  0  0  0  0  0  0
  145.3008  132.4224  150.9001 C   0  0  0  0  0  0  0  0  0  0  0  0
  145.6788  130.9540  150.9773 C   0  0  0  0  0  0  0  0  0  0  0  0
  146.0786  133.3875  151.4434 C   0  0  0  0  0  0  0  0  0  0  0  0
  146.2930  139.0605  154.8126 C   0  0  1  0  0  0  0  0  0  0  0  0
  145.2145  138.0294  155.1406 C   0  0  0  0  0  0  0  0  0  0  0  0
  147.6991  138.9751  155.4354 C   0  0  1  0  0  0  0  0  0  0  0  0
  148.1155  137.6323  155.6609 O   0  0  0  0  0  0  0  0  0  0  0  0
  147.5552  137.0646  156.8322 C   0  0  0  0  0  0  0  0  0  0  0  0
  142.9451  134.4043  149.6624 H   0  0  0  0  0  0  0  0  0  0  0  0
  151.6911  138.5765  154.2431 H   0  0  0  0  0  0  0  0  0  0  0  0
  150.6077  138.8470  155.6013 H   0  0  0  0  0  0  0  0  0  0  0  0
  151.1395  140.2009  154.6009 H   0  0  0  0  0  0  0  0  0  0  0  0
  149.8825  139.2641  152.6424 H   0  0  0  0  0  0  0  0  0  0  0  0
  149.5255  137.8471  153.5475 H   0  0  0  0  0  0  0  0  0  0  0  0
  148.9374  141.4361  153.2367 H   0  0  0  0  0  0  0  0  0  0  0  0
  147.4947  141.5936  154.1559 H   0  0  0  0  0  0  0  0  0  0  0  0
  149.4812  142.7122  155.1987 H   0  0  0  0  0  0  0  0  0  0  0  0
  150.2848  141.1595  155.3745 H   0  0  0  0  0  0  0  0  0  0  0  0
  148.8136  141.5094  156.2831 H   0  0  0  0  0  0  0  0  0  0  0  0
  146.5412  139.8300  152.7744 H   0  0  0  0  0  0  0  0  0  0  0  0
  148.0017  137.3507  152.7816 H   0  0  0  0  0  0  0  0  0  0  0  0
  147.4740  135.7149  151.8669 H   0  0  0  0  0  0  0  0  0  0  0  0
  144.2170  136.1009  150.5443 H   0  0  0  0  0  0  0  0  0  0  0  0
  146.6204  130.8112  151.5083 H   0  0  0  0  0  0  0  0  0  0  0  0
  145.7896  130.5353  149.9764 H   0  0  0  0  0  0  0  0  0  0  0  0
  144.9072  130.3896  151.5020 H   0  0  0  0  0  0  0  0  0  0  0  0
  146.9916  133.0809  151.9281 H   0  0  0  0  0  0  0  0  0  0  0  0
  145.8962  140.0585  155.0047 H   0  0  0  0  0  0  0  0  0  0  0  0
  145.5807  137.0073  155.0433 H   0  0  0  0  0  0  0  0  0  0  0  0
  144.3579  138.1343  154.4746 H   0  0  0  0  0  0  0  0  0  0  0  0
  144.8522  138.1515  156.1612 H   0  0  0  0  0  0  0  0  0  0  0  0
  147.8508  139.6270  156.2980 H   0  0  0  0  0  0  0  0  0  0  0  0
  147.8757  136.0272  156.9236 H   0  0  0  0  0  0  0  0  0  0  0  0
  146.4655  137.0804  156.8066 H   0  0  0  0  0  0  0  0  0  0  0  0
  147.8896  137.5992  157.7220 H   0  0  0  0  0  0  0  0  0  0  0  0
  1  2  1  0  0  0  0
  1 25  1  0  0  0  0
  1 26  1  0  0  0  0
  1 27  1  0  0  0  0
  2  3  1  0  0  0  0
  2 28  1  0  0  0  0
  2 29  1  0  0  0  0
  3 21  1  0  0  0  0
  3  4  1  0  0  0  0
  3  6  1  0  0  0  0
  4  5  1  0  0  0  0
  4 30  1  0  0  0  0
  4 31  1  0  0  0  0
  5 32  1  0  0  0  0
  5 33  1  0  0  0  0
  5 34  1  0  0  0  0
  6  7  1  0  0  0  0
  6 19  1  0  0  0  0
  6 35  1  0  0  0  0
  7  8  1  0  0  0  0
  7 36  1  0  0  0  0
  8  9  2  0  0  0  0
  8 10  1  0  0  0  0
 10 11  1  0  0  0  0
 10 37  1  0  0  0  0
 11 18  1  0  0  0  0
 11 12  2  0  0  0  0
 12 13  1  0  0  0  0
 12 38  1  0  0  0  0
 13 24  1  0  0  0  0
 13 14  1  0  0  0  0
 14 15  2  0  0  0  0
 14 16  1  0  0  0  0
 16 17  1  0  0  0  0
 16 18  2  0  0  0  0
 17 39  1  0  0  0  0
 17 40  1  0  0  0  0
 17 41  1  0  0  0  0
 18 42  1  0  0  0  0
 19 20  1  0  0  0  0
 19 21  1  0  0  0  0
 19 43  1  0  0  0  0
 20 44  1  0  0  0  0
 20 45  1  0  0  0  0
 20 46  1  0  0  0  0
 21 22  1  0  0  0  0
 21 47  1  0  0  0  0
 22 23  1  0  0  0  0
 23 48  1  0  0  0  0
 23 49  1  0  0  0  0
 23 50  1  0  0  0  0
M  END
> <s_m_source_file>
AV-unprocessed.smi

> <i_m_source_file_index>
2424

> <i_lp_mmshare_version>
43012

> <i_f3d_flags>
0

> <s_epik_input>
W0NIM11PW0NAQEhdMVtDQEhdKFtDSDNdKVtDQEBIXShDMShbQ0gyXVtDSDNdKVtDSDJdW0NIM10pW05IXUMoPU8pW05IXWMyW2NIXVtuSF1jKD1PKWMoW0NIM10pW2NIXTI=

> <s_epik_cmdline>
J2VwaWtfcHl0aG9uJywgJy1waCcsICc3LjAnLCAnLXRuJywgJzgnLCAnLW1hJywgJzIwMCcsICctbWV0YWxfYmluZGluZycsICctaW1hZScsICc8aW5maWxlLm1hZT4nLCAnLW9tYWUnLCAnPG91dGZpbGUubWFlPic=

> <r_lp_tautomer_probability>
1

> <r_epik_Ionization_Penalty>
4.7326e-05

> <r_epik_Ionization_Penalty_Charging>
2.70169e-05

> <r_epik_Ionization_Penalty_Neutral>
2.0309e-05

> <r_epik_State_Penalty>
-0

> <r_epik_Charging_Adjusted_Penalty>
2.70169e-05

> <i_epik_Tot_Q>
0

> <i_epik_Tot_abs_Q>
0

> <r_epik_Metal_State_Penalty>
0.0198736

> <b_epik_Metal_Only>
0

> <s_lp_Force_Field>
OPLS_2005

> <r_lp_Energy>
37.8943

> <b_lp_Chiralities_Consistent>
1

> <s_lp_Variant>
AV-unprocessed.smi:2424-1

> <Gold.Version>
5.8.1

> <Gold.Id.Protein>
6NUR|6NUR_protein|mol2

> <Gold.PLP.Fitness>
45.5677

> <Gold.PLP.PLP>
-32.5080

> <Gold.PLP.part.hbond>
-3.7498

> <Gold.PLP.part.metal>
0.0000

> <Gold.PLP.part.buried>
-2.1370

> <Gold.PLP.part.nonpolar>
-30.4291

> <Gold.PLP.part.repulsive>
2.8852

> <Gold.PLP.ligand.clash>
0.0000

> <Gold.PLP.ligand.torsion>
0.7044

> <Gold.PLP.Chemscore.Hbond>
3.5980

> <Gold.PLP.Chemscore.CHOScore>
1.0000

> <Gold.PLP.Chemscore.Metal>
0.0000

> <Gold.Chemscore.Hbonds>
donor molecule, donor type, donor heavy atom, donor atom, acceptor molecule, acceptor atom, score
      L1  H     7    36       P1  7948  0.85
      L1  H    10    37       P1  7948  1.00
      L1  H    13    24       P1 10186  1.00
      P1  H 10785 10796       L1    15  0.94
      L1  C    12    38       P1 10171  0.83

> <Gold.PLP.Chemscore.Internal.Correction>
0.6746

> <Gold.Rescore>
     Score         DG    S(hbond)    S(metal)    S(lipo)     H(rot)  DE(clash)    DE(int)     intcor
     15.37     -22.73       3.52        0.00      80.90       1.55       1.96       5.41       ----

> <Gold.Chemscore.Fitness>
15.3656

> <Gold.Chemscore.DG>
-22.7341

> <Gold.Chemscore.ZeroCoef>
-5.4800

> <Gold.Chemscore.Hbond>
3.5203

> <Gold.Chemscore.Metal>
0.0000

> <Gold.Chemscore.Lipo>
80.8954

> <Gold.Chemscore.Internal_Hbond>
0.0000

> <Gold.Chemscore.DEClash>
1.9616

> <Gold.Chemscore.DEInternal>
5.4069

> <Gold.Chemscore.Rot>
1.5502

> <Gold.Chemscore.Internal.Correction>
   9.000000E+99

> <Gold.Chemscore.Hbonds>
donor molecule, donor type, donor heavy atom, donor atom, acceptor molecule, acceptor atom, score
      L1  H     7    36       P1  7948  0.85
      L1  H    10    37       P1  7948  0.91
      L1  H    13    24       P1 10186  0.92
      P1  H 10785 10796       L1    15  0.89

> <Gold.Chemscore.Hbond.Weighted>
-11.7578

> <Gold.Chemscore.Metal.Weighted>
-0.0000

> <Gold.Chemscore.Lipo.Weighted>
-9.4648

> <Gold.Chemscore.Internal_Hbond.Weighted>
0.0000

> <Gold.Chemscore.DEClash.Weighted>
1.9616

> <Gold.Chemscore.DEInternal.Weighted>
5.4069

> <Gold.Chemscore.Rot.Weighted>
3.9685

> <Gold.Chemscore.Internal.Correction.Weighted>
   9.000000E+99

> <Gold.Protein.RotatedTorsions>
[ 6907 6896 6895 6894 ] final -170.00 input  -60.11 | X-H torsion
[ 7974 7965 7964 7962 ] final  156.05 input  175.53 | X-H torsion
[ 8008 7997 7996 7995 ] final  160.05 input   59.86 | X-H torsion
[ 10167 10162 10161 10158 ] final -125.33 input  -65.29 | X-H torsion
[ 10718 10713 10712 10709 ] final  103.71 input   66.30 | X-H torsion
[ 10763 10752 10751 10750 ] final   37.65 input  -60.55 | X-H torsion
[ 11005 11000 10999 10996 ] final   81.96 input  -57.11 | X-H torsion

> <Gold.Protein.ActiveResidues>
 VAL166  LYS551  ARG553  GLY616  TRP617  ASP618  TYR619  PRO620  LYS621  CYS622 
 ASP623  PHE694  ASN695  SER759  ASP760  ASP761  ALA762  ILE779  LEU786  VAL792 
 PHE793  MET794  SER795  GLU796  ALA797  LYS798  CYS799  TRP800  GLU811  SER814 

> <Gold.Protein.RotatedAtoms>
  151.5007  133.3505  159.2868 H   0  0  0  0  0  0  0  0  0  0  0  0  # atno 6907 bound_to 6896
  150.8774  134.8162  159.7211 H   0  0  0  0  0  0  0  0  0  0  0  0  # atno 6908 bound_to 6896
  152.4740  134.4900  159.9744 H   0  0  0  0  0  0  0  0  0  0  0  0  # atno 6909 bound_to 6896
  144.7987  139.7151  143.6191 H   0  0  0  0  0  0  0  0  0  0  0  0  # atno 7974 bound_to 7965
  156.2198  140.1814  156.7504 H   0  0  0  0  0  0  0  0  0  0  0  0  # atno 8008 bound_to 7997
  154.5847  140.0660  156.9183 H   0  0  0  0  0  0  0  0  0  0  0  0  # atno 8009 bound_to 7997
  155.2440  140.3324  155.4291 H   0  0  0  0  0  0  0  0  0  0  0  0  # atno 8010 bound_to 7997
  139.9833  143.5719  152.2370 H   0  0  0  0  0  0  0  0  0  0  0  0  # atno 10167 bound_to 10162
  157.6764  131.0786  150.5596 H   0  0  0  0  0  0  0  0  0  0  0  0  # atno 10718 bound_to 10713
  153.0030  135.6272  154.2178 H   0  0  0  0  0  0  0  0  0  0  0  0  # atno 10763 bound_to 10752
  154.1921  135.2808  155.3020 H   0  0  0  0  0  0  0  0  0  0  0  0  # atno 10764 bound_to 10752
  154.5751  135.5664  153.7191 H   0  0  0  0  0  0  0  0  0  0  0  0  # atno 10765 bound_to 10752
  139.9080  134.8036  156.2111 H   0  0  0  0  0  0  0  0  0  0  0  0  # atno 11005 bound_to 11000
  146.2262  139.5728  142.9585 LP  0  0  0  0  0  0  0  0  0  0  0  0  # atno 17320 bound_to 7965
  145.5608  141.0404  143.2227 LP  0  0  0  0  0  0  0  0  0  0  0  0  # atno 17321 bound_to 7965
  139.6394  144.7653  151.2371 LP  0  0  0  0  0  0  0  0  0  0  0  0  # atno 17342 bound_to 10162
  140.7481  143.6343  150.8394 LP  0  0  0  0  0  0  0  0  0  0  0  0  # atno 17343 bound_to 10162
  156.5899  130.4326  149.5941 LP  0  0  0  0  0  0  0  0  0  0  0  0  # atno 17370 bound_to 10713
  156.2592  130.6952  151.1715 LP  0  0  0  0  0  0  0  0  0  0  0  0  # atno 17371 bound_to 10713
  141.0465  133.6911  156.1692 LP  0  0  0  0  0  0  0  0  0  0  0  0  # atno 17394 bound_to 11000
  140.6876  134.4700  157.5589 LP  0  0  0  0  0  0  0  0  0  0  0  0  # atno 17395 bound_to 11000

$$$$
