AV-unprocessed.smi:274|AV-procd|sdf|2059|dock9
  -GOLD-   2262021303D 1   1.00000     0.00000
 Structure written by MMmdl.
 50 53  0  0  0  0  0  0  0  0  1 V2000
  151.6135  139.2871  155.0498 C   0  0  0  0  0  0  0  0  0  0  0  0
  150.9076  140.5064  155.6772 C   0  0  0  0  0  0  0  0  0  0  0  0
  151.6410  140.8941  156.9770 C   0  0  0  0  0  0  0  0  0  0  0  0
  149.3791  140.2569  155.8749 C   0  0  1  0  0  0  0  0  0  0  0  0
  148.6315  141.5021  156.4151 C   0  0  0  0  0  0  0  0  0  0  0  0
  148.7250  141.8060  157.6026 O   0  0  0  0  0  0  0  0  0  0  0  0
  147.8594  142.2176  155.5774 N   0  0  0  0  0  0  0  0  0  0  0  0
  147.5991  141.9135  154.1700 C   0  0  0  0  0  0  0  0  0  0  0  0
  148.5159  140.8160  153.6007 C   0  0  0  0  0  0  0  0  0  0  0  0
  148.7816  139.7948  154.6107 N   0  0  0  0  0  0  0  0  0  0  0  0
  147.8859  138.7743  154.6385 C   0  0  0  0  0  0  0  0  0  0  0  0
  147.6869  138.0692  155.7839 N   0  0  0  0  0  0  0  0  0  0  0  0
  146.7954  137.0746  155.8164 C   0  0  0  0  0  0  0  0  0  0  0  0
  146.0106  136.6253  154.8352 N   0  0  0  0  0  0  0  0  0  0  0  0
  146.2093  137.3260  153.6821 C   0  0  0  0  0  0  0  0  0  0  0  0
  147.1152  138.4086  153.5006 C   0  0  0  0  0  0  0  0  0  0  0  0
  147.0410  138.8751  152.1938 N   0  0  0  0  0  0  0  0  0  0  0  0
  146.1383  138.1152  151.6361 C   0  0  0  0  0  0  0  0  0  0  0  0
  145.5949  137.1498  152.4540 N   0  0  0  0  0  0  0  0  0  0  0  0
  144.5821  136.1677  152.0969 C   0  0  0  0  0  0  0  0  0  0  0  0
  145.0214  135.2057  150.9672 C   0  0  1  0  0  0  0  0  0  0  0  0
  145.1327  135.9311  149.7547 O   0  0  0  0  0  0  0  0  0  0  0  0
  146.3602  134.5363  151.2495 C   0  0  0  0  0  0  0  0  0  0  0  0
  146.2418  133.2169  150.4986 C   0  0  0  0  0  0  0  0  0  0  0  0
  144.8962  132.8384  150.7332 O   0  0  0  0  0  0  0  0  0  0  0  0
  144.0793  134.0059  150.7354 C   0  0  0  0  0  0  0  0  0  0  0  0
  151.4917  138.3990  155.6707 H   0  0  0  0  0  0  0  0  0  0  0  0
  152.6829  139.4668  154.9362 H   0  0  0  0  0  0  0  0  0  0  0  0
  151.2268  139.0554  154.0571 H   0  0  0  0  0  0  0  0  0  0  0  0
  151.0374  141.3401  154.9865 H   0  0  0  0  0  0  0  0  0  0  0  0
  151.4803  140.1514  157.7590 H   0  0  0  0  0  0  0  0  0  0  0  0
  151.3151  141.8614  157.3581 H   0  0  0  0  0  0  0  0  0  0  0  0
  152.7161  140.9734  156.8127 H   0  0  0  0  0  0  0  0  0  0  0  0
  149.2866  139.4744  156.6303 H   0  0  0  0  0  0  0  0  0  0  0  0
  147.3820  143.0207  155.9604 H   0  0  0  0  0  0  0  0  0  0  0  0
  146.5614  141.5851  154.1025 H   0  0  0  0  0  0  0  0  0  0  0  0
  147.6781  142.8238  153.5757 H   0  0  0  0  0  0  0  0  0  0  0  0
  148.0796  140.4010  152.6917 H   0  0  0  0  0  0  0  0  0  0  0  0
  149.4661  141.2537  153.2953 H   0  0  0  0  0  0  0  0  0  0  0  0
  146.6966  136.5665  156.7643 H   0  0  0  0  0  0  0  0  0  0  0  0
  145.8458  138.2393  150.6038 H   0  0  0  0  0  0  0  0  0  0  0  0
  144.3246  135.6004  152.9925 H   0  0  0  0  0  0  0  0  0  0  0  0
  143.6775  136.7030  151.8055 H   0  0  0  0  0  0  0  0  0  0  0  0
  145.7182  135.4643  149.1784 H   0  0  0  0  0  0  0  0  0  0  0  0
  147.2221  135.1306  150.9427 H   0  0  0  0  0  0  0  0  0  0  0  0
  146.4622  134.3301  152.3160 H   0  0  0  0  0  0  0  0  0  0  0  0
  146.4021  133.3580  149.4286 H   0  0  0  0  0  0  0  0  0  0  0  0
  146.9411  132.4613  150.8567 H   0  0  0  0  0  0  0  0  0  0  0  0
  143.3466  133.8969  151.5342 H   0  0  0  0  0  0  0  0  0  0  0  0
  143.5296  134.0846  149.7961 H   0  0  0  0  0  0  0  0  0  0  0  0
  1  2  1  0  0  0  0
  1 27  1  0  0  0  0
  1 28  1  0  0  0  0
  1 29  1  0  0  0  0
  2  3  1  0  0  0  0
  2  4  1  0  0  0  0
  2 30  1  0  0  0  0
  3 31  1  0  0  0  0
  3 32  1  0  0  0  0
  3 33  1  0  0  0  0
  4 10  1  0  0  0  0
  4  5  1  0  0  0  0
  4 34  1  0  0  0  0
  5  6  2  0  0  0  0
  5  7  1  0  0  0  0
  7  8  1  0  0  0  0
  7 35  1  0  0  0  0
  8  9  1  0  0  0  0
  8 36  1  0  0  0  0
  8 37  1  0  0  0  0
  9 10  1  0  0  0  0
  9 38  1  0  0  0  0
  9 39  1  0  0  0  0
 10 11  1  0  0  0  0
 11 16  1  0  0  0  0
 11 12  2  0  0  0  0
 12 13  1  0  0  0  0
 13 14  2  0  0  0  0
 13 40  1  0  0  0  0
 14 15  1  0  0  0  0
 15 19  1  0  0  0  0
 15 16  2  0  0  0  0
 16 17  1  0  0  0  0
 17 18  2  0  0  0  0
 18 19  1  0  0  0  0
 18 41  1  0  0  0  0
 19 20  1  0  0  0  0
 20 21  1  0  0  0  0
 20 42  1  0  0  0  0
 20 43  1  0  0  0  0
 21 26  1  0  0  0  0
 21 22  1  0  0  0  0
 21 23  1  0  0  0  0
 22 44  1  0  0  0  0
 23 24  1  0  0  0  0
 23 45  1  0  0  0  0
 23 46  1  0  0  0  0
 24 25  1  0  0  0  0
 24 47  1  0  0  0  0
 24 48  1  0  0  0  0
 25 26  1  0  0  0  0
 26 49  1  0  0  0  0
 26 50  1  0  0  0  0
M  END
> <s_m_source_file>
AV-unprocessed.smi

> <i_m_source_file_index>
274

> <i_lp_mmshare_version>
43012

> <i_f3d_flags>
0

> <s_epik_input>
W0NIM11bQ0hdKFtDSDNdKVtDQEBIXTFDKD1PKVtOSF1bQ0gyXVtDSDJdTjFjKG5bY0hdbjIpYyhjMjMpbltjSF1uM1tDSDJdW0NAQF00KFtPSF0pW0NIMl1bQ0gyXU9bQ0gyXTQ=

> <s_epik_cmdline>
J2VwaWtfcHl0aG9uJywgJy1waCcsICc3LjAnLCAnLXRuJywgJzgnLCAnLW1hJywgJzIwMCcsICctbWV0YWxfYmluZGluZycsICctaW1hZScsICc8aW5maWxlLm1hZT4nLCAnLW9tYWUnLCAnPG91dGZpbGUubWFlPic=

> <r_lp_tautomer_probability>
1

> <r_epik_Ionization_Penalty>
0.000690079

> <r_epik_Ionization_Penalty_Charging>
0

> <r_epik_Ionization_Penalty_Neutral>
0.000690079

> <r_epik_State_Penalty>
0.000321372

> <r_epik_Charging_Adjusted_Penalty>
0.000321372

> <i_epik_Tot_Q>
0

> <i_epik_Tot_abs_Q>
0

> <r_epik_Metal_State_Penalty>
-0

> <b_epik_Metal_Only>
0

> <s_lp_Force_Field>
OPLS_2005

> <r_lp_Energy>
42.7916

> <b_lp_Chiralities_Consistent>
1

> <s_lp_Variant>
AV-unprocessed.smi:274-2

> <Gold.Version>
5.8.1

> <Gold.Id.Protein>
6NUR|6NUR_protein|mol2

> <Gold.PLP.Fitness>
42.8565

> <Gold.PLP.PLP>
-37.0098

> <Gold.PLP.part.hbond>
-3.0000

> <Gold.PLP.part.metal>
0.0000

> <Gold.PLP.part.buried>
-1.1612

> <Gold.PLP.part.nonpolar>
-34.5929

> <Gold.PLP.part.repulsive>
1.6958

> <Gold.PLP.ligand.clash>
0.0000

> <Gold.PLP.ligand.torsion>
0.2416

> <Gold.PLP.Chemscore.Hbond>
1.0423

> <Gold.PLP.Chemscore.CHOScore>
0.9693

> <Gold.PLP.Chemscore.Metal>
0.0000

> <Gold.Chemscore.Hbonds>
donor molecule, donor type, donor heavy atom, donor atom, acceptor molecule, acceptor atom, score
      L1  H     7    35       P1  8028  0.03
      L1  H    22    44       P1  7921  1.00
      L1  C    18    41       P1 10171  0.98

> <Gold.PLP.Chemscore.Internal.Correction>
0.2950

> <Gold.Rescore>
     Score         DG    S(hbond)    S(metal)    S(lipo)     H(rot)  DE(clash)    DE(int)     intcor
      9.31     -11.12       0.99        0.00      66.84       2.14       0.12       1.68       ----

> <Gold.Chemscore.Fitness>
9.3126

> <Gold.Chemscore.DG>
-11.1163

> <Gold.Chemscore.ZeroCoef>
-5.4800

> <Gold.Chemscore.Hbond>
0.9886

> <Gold.Chemscore.Metal>
0.0000

> <Gold.Chemscore.Lipo>
66.8429

> <Gold.Chemscore.Internal_Hbond>
0.0000

> <Gold.Chemscore.DEClash>
0.1239

> <Gold.Chemscore.DEInternal>
1.6798

> <Gold.Chemscore.Rot>
2.1431

> <Gold.Chemscore.Internal.Correction>
   9.000000E+99

> <Gold.Chemscore.Hbonds>
donor molecule, donor type, donor heavy atom, donor atom, acceptor molecule, acceptor atom, score
      L1  H    22    44       P1  7921  0.96

> <Gold.Chemscore.Hbond.Weighted>
-3.3019

> <Gold.Chemscore.Metal.Weighted>
-0.0000

> <Gold.Chemscore.Lipo.Weighted>
-7.8206

> <Gold.Chemscore.Internal_Hbond.Weighted>
0.0000

> <Gold.Chemscore.DEClash.Weighted>
0.1239

> <Gold.Chemscore.DEInternal.Weighted>
1.6798

> <Gold.Chemscore.Rot.Weighted>
5.4863

> <Gold.Chemscore.Internal.Correction.Weighted>
   9.000000E+99

> <Gold.Protein.RotatedTorsions>
[ 6907 6896 6895 6894 ] final  154.86 input  -60.11 | X-H torsion
[ 7974 7965 7964 7962 ] final  -15.84 input  175.53 | X-H torsion
[ 8008 7997 7996 7995 ] final   49.57 input   59.86 | X-H torsion
[ 10167 10162 10161 10158 ] final   43.75 input  -65.29 | X-H torsion
[ 10718 10713 10712 10709 ] final  141.36 input   66.30 | X-H torsion
[ 10763 10752 10751 10750 ] final   60.69 input  -60.55 | X-H torsion
[ 11005 11000 10999 10996 ] final  167.08 input  -57.11 | X-H torsion

> <Gold.Protein.ActiveResidues>
 VAL166  LYS551  ARG553  GLY616  TRP617  ASP618  TYR619  PRO620  LYS621  CYS622 
 ASP623  PHE694  ASN695  SER759  ASP760  ASP761  ALA762  ILE779  LEU786  VAL792 
 PHE793  MET794  SER795  GLU796  ALA797  LYS798  CYS799  TRP800  GLU811  SER814 

> <Gold.Protein.RotatedAtoms>
  152.0524  133.4025  159.4382 H   0  0  0  0  0  0  0  0  0  0  0  0  # atno 6907 bound_to 6896
  150.6869  134.3293  159.4829 H   0  0  0  0  0  0  0  0  0  0  0  0  # atno 6908 bound_to 6896
  152.1104  134.9278  160.0617 H   0  0  0  0  0  0  0  0  0  0  0  0  # atno 6909 bound_to 6896
  146.2014  140.3551  142.8422 H   0  0  0  0  0  0  0  0  0  0  0  0  # atno 7974 bound_to 7965
  155.4044  140.3439  155.4259 H   0  0  0  0  0  0  0  0  0  0  0  0  # atno 8008 bound_to 7997
  156.1485  140.1563  156.8840 H   0  0  0  0  0  0  0  0  0  0  0  0  # atno 8009 bound_to 7997
  154.5031  140.0809  156.7820 H   0  0  0  0  0  0  0  0  0  0  0  0  # atno 8010 bound_to 7997
  140.3412  144.2468  150.6155 H   0  0  0  0  0  0  0  0  0  0  0  0  # atno 10167 bound_to 10162
  157.3928  131.1007  151.0629 H   0  0  0  0  0  0  0  0  0  0  0  0  # atno 10718 bound_to 10713
  152.9928  135.5527  154.5913 H   0  0  0  0  0  0  0  0  0  0  0  0  # atno 10763 bound_to 10752
  154.5274  135.2811  155.1212 H   0  0  0  0  0  0  0  0  0  0  0  0  # atno 10764 bound_to 10752
  154.2541  135.6393  153.5303 H   0  0  0  0  0  0  0  0  0  0  0  0  # atno 10765 bound_to 10752
  140.2730  134.7811  157.3692 H   0  0  0  0  0  0  0  0  0  0  0  0  # atno 11005 bound_to 11000
  144.8692  140.7249  143.6058 LP  0  0  0  0  0  0  0  0  0  0  0  0  # atno 17320 bound_to 7965
  145.3471  139.1716  143.4455 LP  0  0  0  0  0  0  0  0  0  0  0  0  # atno 17321 bound_to 7965
  140.5307  143.2244  151.8243 LP  0  0  0  0  0  0  0  0  0  0  0  0  # atno 17342 bound_to 10162
  139.4840  144.4724  151.9409 LP  0  0  0  0  0  0  0  0  0  0  0  0  # atno 17343 bound_to 10162
  157.1656  130.6245  149.5624 LP  0  0  0  0  0  0  0  0  0  0  0  0  # atno 17370 bound_to 10713
  155.9803  130.4802  150.6763 LP  0  0  0  0  0  0  0  0  0  0  0  0  # atno 17371 bound_to 10713
  140.1355  134.5040  155.8072 LP  0  0  0  0  0  0  0  0  0  0  0  0  # atno 17394 bound_to 11000
  141.2174  133.6805  156.7116 LP  0  0  0  0  0  0  0  0  0  0  0  0  # atno 17395 bound_to 11000

$$$$
