AV-unprocessed.smi:2175|AV-procd|sdf|8843|dock2
  -GOLD-   2272012 33D 1   1.00000     0.00000
 Structure written by MMmdl.
 34 35  0  0  0  0  0  0  0  0  1 V2000
  146.5328  138.4957  151.9470 C   0  0  0  0  0  0  0  0  0  0  0  0
  147.3128  139.5152  152.7499 C   0  0  0  0  0  0  0  0  0  0  0  0
  146.8148  140.6267  153.1821 N   0  0  0  0  0  0  0  0  0  0  0  0
  147.6368  141.4932  153.9164 C   0  0  0  0  0  0  0  0  0  0  0  0
  146.9791  142.7777  154.3907 C   0  0  0  0  0  0  0  0  0  0  0  0
  148.9409  141.1889  154.1822 C   0  0  0  0  0  0  0  0  0  0  0  0
  149.8605  142.1129  154.9792 C   0  0  0  0  0  0  0  0  0  0  0  0
  150.2092  141.6422  156.3934 C   0  0  0  0  0  0  0  0  0  0  0  0
  149.7360  140.5936  156.8320 O   0  0  0  0  0  0  0  0  0  0  0  0
  151.0407  142.4265  157.0958 N   0  0  0  0  0  0  0  0  0  0  0  0
  151.4915  142.1609  158.4555 C   0  0  0  0  0  0  0  0  0  0  0  0
  152.3989  143.2236  159.0452 C   0  0  0  0  0  0  0  0  0  0  0  0
  151.8284  144.4812  159.6575 C   0  0  0  0  0  0  0  0  0  0  0  0
  152.5765  144.5518  158.3478 C   0  0  0  0  0  0  0  0  0  0  0  0
  149.4995  139.9174  153.6828 C   0  0  0  0  0  0  0  0  0  0  0  0
  150.6592  139.5471  153.8594 O   0  0  0  0  0  0  0  0  0  0  0  0
  148.6356  139.1450  152.9865 N   0  0  0  0  0  0  0  0  0  0  0  0
  148.9701  138.2647  152.6230 H   0  0  0  0  0  0  0  0  0  0  0  0
  146.1644  138.9468  151.0254 H   0  0  0  0  0  0  0  0  0  0  0  0
  145.6766  138.1415  152.5215 H   0  0  0  0  0  0  0  0  0  0  0  0
  147.1471  137.6336  151.6834 H   0  0  0  0  0  0  0  0  0  0  0  0
  146.9588  142.8174  155.4797 H   0  0  0  0  0  0  0  0  0  0  0  0
  145.9506  142.8510  154.0347 H   0  0  0  0  0  0  0  0  0  0  0  0
  147.5214  143.6475  154.0203 H   0  0  0  0  0  0  0  0  0  0  0  0
  150.7821  142.2526  154.4133 H   0  0  0  0  0  0  0  0  0  0  0  0
  149.4292  143.1117  155.0528 H   0  0  0  0  0  0  0  0  0  0  0  0
  151.3818  143.2701  156.6579 H   0  0  0  0  0  0  0  0  0  0  0  0
  150.6274  142.0368  159.1102 H   0  0  0  0  0  0  0  0  0  0  0  0
  152.0132  141.2033  158.4574 H   0  0  0  0  0  0  0  0  0  0  0  0
  153.2946  142.8237  159.5172 H   0  0  0  0  0  0  0  0  0  0  0  0
  150.7490  144.6161  159.6275 H   0  0  0  0  0  0  0  0  0  0  0  0
  152.3231  144.8758  160.5426 H   0  0  0  0  0  0  0  0  0  0  0  0
  153.5690  144.9973  158.3597 H   0  0  0  0  0  0  0  0  0  0  0  0
  151.9943  144.7336  157.4465 H   0  0  0  0  0  0  0  0  0  0  0  0
  1  2  1  0  0  0  0
  1 19  1  0  0  0  0
  1 20  1  0  0  0  0
  1 21  1  0  0  0  0
  2 17  1  0  0  0  0
  2  3  2  0  0  0  0
  3  4  1  0  0  0  0
  4  5  1  0  0  0  0
  4  6  2  0  0  0  0
  5 22  1  0  0  0  0
  5 23  1  0  0  0  0
  5 24  1  0  0  0  0
  6  7  1  0  0  0  0
  6 15  1  0  0  0  0
  7  8  1  0  0  0  0
  7 25  1  0  0  0  0
  7 26  1  0  0  0  0
  8  9  2  0  0  0  0
  8 10  1  0  0  0  0
 10 11  1  0  0  0  0
 10 27  1  0  0  0  0
 11 12  1  0  0  0  0
 11 28  1  0  0  0  0
 11 29  1  0  0  0  0
 12 14  1  0  0  0  0
 12 13  1  0  0  0  0
 12 30  1  0  0  0  0
 13 14  1  0  0  0  0
 13 31  1  0  0  0  0
 13 32  1  0  0  0  0
 14 33  1  0  0  0  0
 14 34  1  0  0  0  0
 15 16  2  0  0  0  0
 15 17  1  0  0  0  0
 17 18  1  0  0  0  0
M  END
> <s_m_source_file>
AV-unprocessed.smi

> <i_m_source_file_index>
2175

> <i_lp_mmshare_version>
43012

> <i_f3d_flags>
0

> <s_epik_input>
W0NIM11jMW5jKFtDSDNdKWMoYyg9TylbbkhdMSlbQ0gyXUMoPU8pW05IXVtDSDJdW0NIXTJbQ0gyXVtDSDJdMg==

> <s_epik_cmdline>
J2VwaWtfcHl0aG9uJywgJy1waCcsICc3LjAnLCAnLXRuJywgJzgnLCAnLW1hJywgJzIwMCcsICctbWV0YWxfYmluZGluZycsICctaW1hZScsICc8aW5maWxlLm1hZT4nLCAnLW9tYWUnLCAnPG91dGZpbGUubWFlPic=

> <r_lp_tautomer_probability>
0.839158

> <r_epik_Ionization_Penalty>
0.000395354

> <r_epik_Ionization_Penalty_Charging>
0.00036358

> <r_epik_Ionization_Penalty_Neutral>
3.17744e-05

> <r_epik_State_Penalty>
0.047122

> <r_epik_Charging_Adjusted_Penalty>
0.0474856

> <i_epik_Tot_Q>
0

> <i_epik_Tot_abs_Q>
0

> <r_epik_Metal_State_Penalty>
0.225273

> <b_epik_Metal_Only>
0

> <s_lp_Force_Field>
OPLS_2005

> <r_lp_Energy>
14.3429

> <b_lp_Chiralities_Consistent>
1

> <s_lp_Variant>
AV-unprocessed.smi:2175-1

> <Gold.Version>
5.8.1

> <Gold.Id.Protein>
6NUR|6NUR_protein|mol2

> <Gold.PLP.Fitness>
41.6815

> <Gold.PLP.PLP>
-36.3226

> <Gold.PLP.part.hbond>
-3.0000

> <Gold.PLP.part.metal>
0.0000

> <Gold.PLP.part.buried>
2.6081

> <Gold.PLP.part.nonpolar>
-35.7691

> <Gold.PLP.part.repulsive>
0.5527

> <Gold.PLP.ligand.clash>
0.0000

> <Gold.PLP.ligand.torsion>
0.5934

> <Gold.PLP.Chemscore.Hbond>
2.0000

> <Gold.PLP.Chemscore.CHOScore>
0.0000

> <Gold.PLP.Chemscore.Metal>
0.0000

> <Gold.Chemscore.Hbonds>
donor molecule, donor type, donor heavy atom, donor atom, acceptor molecule, acceptor atom, score
      L1  H    17    18       P1  7948  0.73
      P1  H  7989  7998       L1    16  1.00

> <Gold.PLP.Chemscore.Internal.Correction>
0.5457

> <Gold.Rescore>
     Score         DG    S(hbond)    S(metal)    S(lipo)     H(rot)  DE(clash)    DE(int)     intcor
     14.64     -15.75       1.56        0.00      81.39       1.75       0.34       0.77       ----

> <Gold.Chemscore.Fitness>
14.6354

> <Gold.Chemscore.DG>
-15.7480

> <Gold.Chemscore.ZeroCoef>
-5.4800

> <Gold.Chemscore.Hbond>
1.5644

> <Gold.Chemscore.Metal>
0.0000

> <Gold.Chemscore.Lipo>
81.3862

> <Gold.Chemscore.Internal_Hbond>
0.0000

> <Gold.Chemscore.DEClash>
0.3379

> <Gold.Chemscore.DEInternal>
0.7748

> <Gold.Chemscore.Rot>
1.7497

> <Gold.Chemscore.Internal.Correction>
   9.000000E+99

> <Gold.Chemscore.Hbonds>
donor molecule, donor type, donor heavy atom, donor atom, acceptor molecule, acceptor atom, score
      L1  H    17    18       P1  7948  0.72
      P1  H  7989  7998       L1    16  0.54

> <Gold.Chemscore.Hbond.Weighted>
-5.2249

> <Gold.Chemscore.Metal.Weighted>
-0.0000

> <Gold.Chemscore.Lipo.Weighted>
-9.5222

> <Gold.Chemscore.Internal_Hbond.Weighted>
0.0000

> <Gold.Chemscore.DEClash.Weighted>
0.3379

> <Gold.Chemscore.DEInternal.Weighted>
0.7748

> <Gold.Chemscore.Rot.Weighted>
4.4791

> <Gold.Chemscore.Internal.Correction.Weighted>
   9.000000E+99

> <Gold.Protein.RotatedTorsions>
[ 6907 6896 6895 6894 ] final  -81.71 input  -60.11 | X-H torsion
[ 7974 7965 7964 7962 ] final -151.66 input  175.53 | X-H torsion
[ 8008 7997 7996 7995 ] final -132.86 input   59.86 | X-H torsion
[ 10167 10162 10161 10158 ] final   20.81 input  -65.29 | X-H torsion
[ 10718 10713 10712 10709 ] final -129.58 input   66.30 | X-H torsion
[ 10763 10752 10751 10750 ] final  151.49 input  -60.55 | X-H torsion
[ 11005 11000 10999 10996 ] final   35.72 input  -57.11 | X-H torsion

> <Gold.Protein.ActiveResidues>
 VAL166  LYS551  ARG553  GLY616  TRP617  ASP618  TYR619  PRO620  LYS621  CYS622 
 ASP623  PHE694  ASN695  SER759  ASP760  ASP761  ALA762  ILE779  LEU786  VAL792 
 PHE793  MET794  SER795  GLU796  ALA797  LYS798  CYS799  TRP800  GLU811  SER814 

> <Gold.Protein.RotatedAtoms>
  150.6908  134.3775  159.5019 H   0  0  0  0  0  0  0  0  0  0  0  0  # atno 6907 bound_to 6896
  152.1582  134.8931  160.0552 H   0  0  0  0  0  0  0  0  0  0  0  0  # atno 6908 bound_to 6896
  152.0002  133.3788  159.4216 H   0  0  0  0  0  0  0  0  0  0  0  0  # atno 6909 bound_to 6896
  144.7837  140.4767  143.5821 H   0  0  0  0  0  0  0  0  0  0  0  0  # atno 7974 bound_to 7965
  155.3358  140.0469  157.3044 H   0  0  0  0  0  0  0  0  0  0  0  0  # atno 8008 bound_to 7997
  154.5303  140.2255  155.8781 H   0  0  0  0  0  0  0  0  0  0  0  0  # atno 8009 bound_to 7997
  156.1782  140.3080  155.9105 H   0  0  0  0  0  0  0  0  0  0  0  0  # atno 8010 bound_to 7997
  140.5475  143.9569  150.6557 H   0  0  0  0  0  0  0  0  0  0  0  0  # atno 10167 bound_to 10162
  156.2060  130.6888  151.0595 H   0  0  0  0  0  0  0  0  0  0  0  0  # atno 10718 bound_to 10713
  154.1046  135.2843  155.3244 H   0  0  0  0  0  0  0  0  0  0  0  0  # atno 10763 bound_to 10752
  154.6531  135.5361  153.7929 H   0  0  0  0  0  0  0  0  0  0  0  0  # atno 10764 bound_to 10752
  153.0366  135.6515  154.1208 H   0  0  0  0  0  0  0  0  0  0  0  0  # atno 10765 bound_to 10752
  140.2398  134.3428  155.7930 H   0  0  0  0  0  0  0  0  0  0  0  0  # atno 11005 bound_to 11000
  145.5980  139.1501  143.3145 LP  0  0  0  0  0  0  0  0  0  0  0  0  # atno 17320 bound_to 7965
  146.2058  140.6102  142.9081 LP  0  0  0  0  0  0  0  0  0  0  0  0  # atno 17321 bound_to 7965
  140.2986  143.3276  152.0994 LP  0  0  0  0  0  0  0  0  0  0  0  0  # atno 17342 bound_to 10162
  139.5013  144.6711  151.6240 LP  0  0  0  0  0  0  0  0  0  0  0  0  # atno 17343 bound_to 10162
  157.7012  131.0775  150.6812 LP  0  0  0  0  0  0  0  0  0  0  0  0  # atno 17370 bound_to 10713
  156.6871  130.4584  149.5610 LP  0  0  0  0  0  0  0  0  0  0  0  0  # atno 17371 bound_to 10713
  141.2211  133.7292  156.8867 LP  0  0  0  0  0  0  0  0  0  0  0  0  # atno 17394 bound_to 11000
  140.1665  134.9130  157.2780 LP  0  0  0  0  0  0  0  0  0  0  0  0  # atno 17395 bound_to 11000

$$$$
