AV-unprocessed.smi:3025|AV-procd|sdf|11510|dock4
  -GOLD-   2272016443D 1   1.00000     0.00000
 Structure written by MMmdl.
 42 43  0  0  0  0  0  0  0  0  2 V2000
  154.6706  139.8682  161.6498 C   0  0  0  0  0  0  0  0  0  0  0  0
  154.5145  140.9861  160.6132 C   0  0  0  0  0  0  0  0  0  0  0  0
  153.0557  141.1682  160.1611 C   0  0  0  0  0  0  0  0  0  0  0  0
  152.8032  142.4486  159.3381 C   0  0  2  0  0  0  0  0  0  0  0  0
  152.4869  143.6724  160.2245 C   0  0  0  0  0  0  0  0  0  0  0  0
  152.2177  144.9328  159.3843 C   0  0  0  0  0  0  0  0  0  0  0  0
  151.0913  144.7218  158.3504 C   0  0  2  0  0  0  0  0  0  0  0  0
  149.7574  144.5963  158.9835 N   0  3  0  0  0  0  0  0  0  0  0  0
  149.6649  145.0885  160.3740 C   0  0  0  0  0  0  0  0  0  0  0  0
  148.2024  145.3006  160.7867 C   0  0  0  0  0  0  0  0  0  0  0  0
  147.3220  144.1727  160.3582 C   0  0  0  0  0  0  0  0  0  0  0  0
  146.8715  143.2105  161.1719 N   0  0  0  0  0  0  0  0  0  0  0  0
  146.0846  142.3905  160.3786 N   0  0  0  0  0  0  0  0  0  0  0  0
  146.1354  142.9390  159.1638 C   0  0  0  0  0  0  0  0  0  0  0  0
  146.8854  144.0454  159.0958 N   0  0  0  0  0  0  0  0  0  0  0  0
  151.3906  143.4868  157.4806 C   0  0  0  0  0  0  0  0  0  0  0  0
  151.6633  142.2285  158.3235 C   0  0  0  0  0  0  0  0  0  0  0  0
  147.0732  144.6312  158.2950 H   0  0  0  0  0  0  0  0  0  0  0  0
  155.7120  139.7645  161.9552 H   0  0  0  0  0  0  0  0  0  0  0  0
  154.3453  138.9082  161.2475 H   0  0  0  0  0  0  0  0  0  0  0  0
  154.0809  140.0744  162.5435 H   0  0  0  0  0  0  0  0  0  0  0  0
  154.8959  141.9129  161.0409 H   0  0  0  0  0  0  0  0  0  0  0  0
  155.1412  140.7620  159.7493 H   0  0  0  0  0  0  0  0  0  0  0  0
  152.7778  140.3030  159.5574 H   0  0  0  0  0  0  0  0  0  0  0  0
  152.3963  141.1517  161.0298 H   0  0  0  0  0  0  0  0  0  0  0  0
  153.7100  142.6650  158.7708 H   0  0  0  0  0  0  0  0  0  0  0  0
  151.6238  143.4598  160.8565 H   0  0  0  0  0  0  0  0  0  0  0  0
  153.3171  143.8768  160.9000 H   0  0  0  0  0  0  0  0  0  0  0  0
  152.0021  145.7784  160.0368 H   0  0  0  0  0  0  0  0  0  0  0  0
  153.1336  145.1995  158.8549 H   0  0  0  0  0  0  0  0  0  0  0  0
  151.0559  145.5887  157.6891 H   0  0  0  0  0  0  0  0  0  0  0  0
  149.1078  145.1367  158.4303 H   0  0  0  0  0  0  0  0  0  0  0  0
  150.1355  144.3742  161.0497 H   0  0  0  0  0  0  0  0  0  0  0  0
  150.2118  146.0280  160.4638 H   0  0  0  0  0  0  0  0  0  0  0  0
  148.1293  145.4158  161.8692 H   0  0  0  0  0  0  0  0  0  0  0  0
  147.8183  146.2230  160.3486 H   0  0  0  0  0  0  0  0  0  0  0  0
  145.6148  142.5272  158.3117 H   0  0  0  0  0  0  0  0  0  0  0  0
  150.5676  143.3024  156.7890 H   0  0  0  0  0  0  0  0  0  0  0  0
  152.2646  143.6910  156.8607 H   0  0  0  0  0  0  0  0  0  0  0  0
  151.9127  141.4004  157.6590 H   0  0  0  0  0  0  0  0  0  0  0  0
  150.7539  141.9327  158.8484 H   0  0  0  0  0  0  0  0  0  0  0  0
  149.4729  143.6274  158.9536 H   0  0  0  0  0  0  0  0  0  0  0  0
  1  2  1  0  0  0  0
  1 19  1  0  0  0  0
  1 20  1  0  0  0  0
  1 21  1  0  0  0  0
  2  3  1  0  0  0  0
  2 22  1  0  0  0  0
  2 23  1  0  0  0  0
  3  4  1  0  0  0  0
  3 24  1  0  0  0  0
  3 25  1  0  0  0  0
  4 17  1  0  0  0  0
  4  5  1  0  0  0  0
  4 26  1  0  0  0  0
  5  6  1  0  0  0  0
  5 27  1  0  0  0  0
  5 28  1  0  0  0  0
  6  7  1  0  0  0  0
  6 29  1  0  0  0  0
  6 30  1  0  0  0  0
  7  8  1  0  0  0  0
  7 16  1  0  0  0  0
  7 31  1  0  0  0  0
  8  9  1  0  0  0  0
  8 32  1  0  0  0  0
  8 42  1  0  0  0  0
  9 10  1  0  0  0  0
  9 33  1  0  0  0  0
  9 34  1  0  0  0  0
 10 11  1  0  0  0  0
 10 35  1  0  0  0  0
 10 36  1  0  0  0  0
 11 15  1  0  0  0  0
 11 12  2  0  0  0  0
 12 13  1  0  0  0  0
 13 14  2  0  0  0  0
 14 15  1  0  0  0  0
 14 37  1  0  0  0  0
 15 18  1  0  0  0  0
 16 17  1  0  0  0  0
 16 38  1  0  0  0  0
 16 39  1  0  0  0  0
 17 40  1  0  0  0  0
 17 41  1  0  0  0  0
M  CHG  1   8   1
M  END
> <s_m_source_file>
AV-unprocessed.smi

> <i_m_source_file_index>
3025

> <i_lp_mmshare_version>
43012

> <i_f3d_flags>
0

> <s_epik_input>
W0NIM11bQ0gyXVtDSDJdW0NAQEhdMVtDSDJdW0NIMl1bQ0BIXShbQ0gyXVtDSDJdMSlbTkhdW0NIMl1bQ0gyXWMybm5bY0hdW25IXTI=

> <s_epik_cmdline>
J2VwaWtfcHl0aG9uJywgJy1waCcsICc3LjAnLCAnLXRuJywgJzgnLCAnLW1hJywgJzIwMCcsICctbWV0YWxfYmluZGluZycsICctaW1hZScsICc8aW5maWxlLm1hZT4nLCAnLW9tYWUnLCAnPG91dGZpbGUubWFlPic=

> <r_lp_tautomer_probability>
0.0517155

> <r_epik_Ionization_Penalty>
0.0349397

> <r_epik_Ionization_Penalty_Charging>
0.000546397

> <r_epik_Ionization_Penalty_Neutral>
0.0343933

> <r_epik_State_Penalty>
2.24019

> <r_epik_Charging_Adjusted_Penalty>
2.24074

> <i_epik_Tot_Q>
1

> <i_epik_Tot_abs_Q>
1

> <r_epik_Metal_State_Penalty>
2.47389

> <b_epik_Metal_Only>
0

> <s_lp_Force_Field>
OPLS_2005

> <r_lp_Energy>
17.8014

> <b_lp_Chiralities_Consistent>
1

> <s_lp_Variant>
AV-unprocessed.smi:3025-6

> <Gold.Version>
5.8.1

> <Gold.Id.Protein>
6NUR|6NUR_protein|mol2

> <Gold.PLP.Fitness>
54.7552

> <Gold.PLP.PLP>
-42.7090

> <Gold.PLP.part.hbond>
-4.5324

> <Gold.PLP.part.metal>
0.0000

> <Gold.PLP.part.buried>
-6.2872

> <Gold.PLP.part.nonpolar>
-32.5822

> <Gold.PLP.part.repulsive>
0.2735

> <Gold.PLP.ligand.clash>
0.2774

> <Gold.PLP.ligand.torsion>
1.3306

> <Gold.PLP.Chemscore.Hbond>
4.9500

> <Gold.PLP.Chemscore.CHOScore>
0.0000

> <Gold.PLP.Chemscore.Metal>
0.0000

> <Gold.Chemscore.Hbonds>
donor molecule, donor type, donor heavy atom, donor atom, acceptor molecule, acceptor atom, score
      L1  H     8    32       P1  8029  2.00
      L1  H    15    18       P1  8029  1.00
      P1  H  6933  6944       L1    12  0.90
      P1  H  6934  6946       L1    13  0.90

> <Gold.PLP.Chemscore.Internal.Correction>
0.1347

> <Gold.Rescore>
     Score         DG    S(hbond)    S(metal)    S(lipo)     H(rot)  DE(clash)    DE(int)     intcor
     19.79     -21.23       2.81        0.00     110.37       2.56       0.08       1.35       ----

> <Gold.Chemscore.Fitness>
19.7900

> <Gold.Chemscore.DG>
-21.2275

> <Gold.Chemscore.ZeroCoef>
-5.4800

> <Gold.Chemscore.Hbond>
2.8109

> <Gold.Chemscore.Metal>
0.0000

> <Gold.Chemscore.Lipo>
110.3702

> <Gold.Chemscore.Internal_Hbond>
0.0000

> <Gold.Chemscore.DEClash>
0.0841

> <Gold.Chemscore.DEInternal>
1.3534

> <Gold.Chemscore.Rot>
2.5602

> <Gold.Chemscore.Internal.Correction>
   9.000000E+99

> <Gold.Chemscore.Hbonds>
donor molecule, donor type, donor heavy atom, donor atom, acceptor molecule, acceptor atom, score
      L1  H     8    32       P1  8029  0.85
      L1  H    15    18       P1  8029  0.88
      P1  H  6933  6944       L1    12  0.11
      P1  H  6934  6946       L1    13  0.18

> <Gold.Chemscore.Hbond.Weighted>
-9.3884

> <Gold.Chemscore.Metal.Weighted>
-0.0000

> <Gold.Chemscore.Lipo.Weighted>
-12.9133

> <Gold.Chemscore.Internal_Hbond.Weighted>
0.0000

> <Gold.Chemscore.DEClash.Weighted>
0.0841

> <Gold.Chemscore.DEInternal.Weighted>
1.3534

> <Gold.Chemscore.Rot.Weighted>
6.5542

> <Gold.Chemscore.Internal.Correction.Weighted>
   9.000000E+99

> <Gold.Protein.RotatedTorsions>
[ 6907 6896 6895 6894 ] final  -82.26 input  -60.11 | X-H torsion
[ 7974 7965 7964 7962 ] final  159.45 input  175.53 | X-H torsion
[ 8008 7997 7996 7995 ] final  131.58 input   59.86 | X-H torsion
[ 10167 10162 10161 10158 ] final   -8.12 input  -65.29 | X-H torsion
[ 10718 10713 10712 10709 ] final   48.62 input   66.30 | X-H torsion
[ 10763 10752 10751 10750 ] final   33.58 input  -60.55 | X-H torsion
[ 11005 11000 10999 10996 ] final -126.76 input  -57.11 | X-H torsion

> <Gold.Protein.ActiveResidues>
 VAL166  LYS551  ARG553  GLY616  TRP617  ASP618  TYR619  PRO620  LYS621  CYS622 
 ASP623  PHE694  ASN695  SER759  ASP760  ASP761  ALA762  ILE779  LEU786  VAL792 
 PHE793  MET794  SER795  GLU796  ALA797  LYS798  CYS799  TRP800  GLU811  SER814 

> <Gold.Protein.RotatedAtoms>
  150.6900  134.3693  159.4984 H   0  0  0  0  0  0  0  0  0  0  0  0  # atno 6907 bound_to 6896
  152.1511  134.8985  160.0557 H   0  0  0  0  0  0  0  0  0  0  0  0  # atno 6908 bound_to 6896
  152.0082  133.3816  159.4246 H   0  0  0  0  0  0  0  0  0  0  0  0  # atno 6909 bound_to 6896
  144.7789  139.7619  143.6267 H   0  0  0  0  0  0  0  0  0  0  0  0  # atno 7974 bound_to 7965
  156.2972  140.2567  156.2950 H   0  0  0  0  0  0  0  0  0  0  0  0  # atno 8008 bound_to 7997
  154.9473  140.0395  157.2145 H   0  0  0  0  0  0  0  0  0  0  0  0  # atno 8009 bound_to 7997
  154.8069  140.2838  155.5885 H   0  0  0  0  0  0  0  0  0  0  0  0  # atno 8010 bound_to 7997
  140.7050  143.6004  150.8804 H   0  0  0  0  0  0  0  0  0  0  0  0  # atno 10167 bound_to 10162
  157.4705  130.8252  149.7983 H   0  0  0  0  0  0  0  0  0  0  0  0  # atno 10718 bound_to 10713
  153.0205  135.6383  154.1534 H   0  0  0  0  0  0  0  0  0  0  0  0  # atno 10763 bound_to 10752
  154.1269  135.2843  155.3196 H   0  0  0  0  0  0  0  0  0  0  0  0  # atno 10764 bound_to 10752
  154.6223  135.5521  153.7650 H   0  0  0  0  0  0  0  0  0  0  0  0  # atno 10765 bound_to 10752
  140.9655  134.0877  157.3924 H   0  0  0  0  0  0  0  0  0  0  0  0  # atno 11005 bound_to 11000
  146.1986  139.5267  142.9758 LP  0  0  0  0  0  0  0  0  0  0  0  0  # atno 17320 bound_to 7965
  145.6105  141.0340  143.1969 LP  0  0  0  0  0  0  0  0  0  0  0  0  # atno 17321 bound_to 7965
  139.9728  143.6037  152.2968 LP  0  0  0  0  0  0  0  0  0  0  0  0  # atno 17342 bound_to 10162
  139.6630  144.7662  151.1926 LP  0  0  0  0  0  0  0  0  0  0  0  0  # atno 17343 bound_to 10162
  156.0071  130.3850  150.2393 LP  0  0  0  0  0  0  0  0  0  0  0  0  # atno 17370 bound_to 10713
  157.0575  131.0080  151.3233 LP  0  0  0  0  0  0  0  0  0  0  0  0  # atno 17371 bound_to 10713
  139.8893  135.0104  156.6671 LP  0  0  0  0  0  0  0  0  0  0  0  0  # atno 17394 bound_to 11000
  140.7405  133.8981  155.8275 LP  0  0  0  0  0  0  0  0  0  0  0  0  # atno 17395 bound_to 11000

$$$$
