AV-unprocessed.smi:37|AV-procd|sdf|319|dock10
  -GOLD-   2262016143D 1   1.00000     0.00000
 Structure written by MMmdl.
 43 44  0  0  0  0  0  0  0  0  2 V2000
  150.8582  140.7294  160.3463 C   0  0  0  0  0  0  0  0  0  0  0  0
  152.0644  139.8015  160.5448 C   0  0  0  0  0  0  0  0  0  0  0  0
  152.5504  139.1970  159.2294 C   0  0  0  0  0  0  0  0  0  0  0  0
  153.7094  139.3495  158.8429 O   0  0  0  0  0  0  0  0  0  0  0  0
  151.5879  138.5197  158.5838 O   0  0  0  0  0  0  0  0  0  0  0  0
  151.6058  138.4549  157.1677 C   0  0  0  0  0  0  0  0  0  0  0  0
  150.5017  137.5065  156.6893 C   0  0  2  0  0  0  0  0  0  0  0  0
  150.8102  136.1626  157.0635 O   0  0  0  0  0  0  0  0  0  0  0  0
  150.7659  135.3314  155.9429 C   0  0  1  0  0  0  0  0  0  0  0  0
  150.2127  133.9765  156.3195 N   0  0  0  0  0  0  0  0  0  0  0  0
  149.2896  133.8331  157.3424 C   0  0  0  0  0  0  0  0  0  0  0  0
  148.7980  132.6215  157.6735 C   0  0  0  0  0  0  0  0  0  0  0  0
  147.8995  132.5128  158.6673 F   0  0  0  0  0  0  0  0  0  0  0  0
  149.2454  131.4352  156.9456 C   0  0  0  0  0  0  0  0  0  0  0  0
  148.7959  130.3327  157.2540 O   0  0  0  0  0  0  0  0  0  0  0  0
  150.1545  131.6076  155.9424 N   0  5  0  0  0  0  0  0  0  0  0  0
  150.6532  132.8320  155.6023 C   0  0  0  0  0  0  0  0  0  0  0  0
  151.4711  132.9998  154.6973 O   0  0  0  0  0  0  0  0  0  0  0  0
  149.9110  136.0567  154.9020 C   0  0  1  0  0  0  0  0  0  0  0  0
  147.9543  135.8569  155.2724 Br  0  0  0  0  0  0  0  0  0  0  0  0
  150.3550  137.4850  155.1633 C   0  0  1  0  0  0  0  0  0  0  0  0
  149.4150  138.4503  154.7095 O   0  0  0  0  0  0  0  0  0  0  0  0
  149.7971  139.7231  154.5017 C   0  0  0  0  0  0  0  0  0  0  0  0
  150.9318  140.1723  154.6636 O   0  0  0  0  0  0  0  0  0  0  0  0
  148.6544  140.6072  154.0077 C   0  0  0  0  0  0  0  0  0  0  0  0
  147.3350  139.8338  153.8798 C   0  0  0  0  0  0  0  0  0  0  0  0
  150.5142  141.1209  161.3037 H   0  0  0  0  0  0  0  0  0  0  0  0
  150.0225  140.2006  159.8864 H   0  0  0  0  0  0  0  0  0  0  0  0
  151.1077  141.5813  159.7127 H   0  0  0  0  0  0  0  0  0  0  0  0
  152.8862  140.3505  161.0052 H   0  0  0  0  0  0  0  0  0  0  0  0
  151.8011  138.9937  161.2282 H   0  0  0  0  0  0  0  0  0  0  0  0
  151.4327  139.4557  156.7692 H   0  0  0  0  0  0  0  0  0  0  0  0
  152.5789  138.1196  156.8058 H   0  0  0  0  0  0  0  0  0  0  0  0
  149.5459  137.7701  157.1451 H   0  0  0  0  0  0  0  0  0  0  0  0
  151.7911  135.1586  155.6095 H   0  0  0  0  0  0  0  0  0  0  0  0
  148.9412  134.6978  157.8871 H   0  0  0  0  0  0  0  0  0  0  0  0
  150.1176  135.7053  153.8906 H   0  0  0  0  0  0  0  0  0  0  0  0
  151.3368  137.6464  154.7143 H   0  0  0  0  0  0  0  0  0  0  0  0
  148.5291  141.4405  154.6998 H   0  0  0  0  0  0  0  0  0  0  0  0
  148.9322  141.0354  153.0443 H   0  0  0  0  0  0  0  0  0  0  0  0
  146.5307  140.4976  153.5632 H   0  0  0  0  0  0  0  0  0  0  0  0
  147.0414  139.3895  154.8315 H   0  0  0  0  0  0  0  0  0  0  0  0
  147.4099  139.0335  153.1428 H   0  0  0  0  0  0  0  0  0  0  0  0
  1  2  1  0  0  0  0
  1 27  1  0  0  0  0
  1 28  1  0  0  0  0
  1 29  1  0  0  0  0
  2  3  1  0  0  0  0
  2 30  1  0  0  0  0
  2 31  1  0  0  0  0
  3  4  2  0  0  0  0
  3  5  1  0  0  0  0
  5  6  1  0  0  0  0
  6  7  1  0  0  0  0
  6 32  1  0  0  0  0
  6 33  1  0  0  0  0
  7 21  1  0  0  0  0
  7  8  1  0  0  0  0
  7 34  1  0  0  0  0
  8  9  1  0  0  0  0
  9 10  1  0  0  0  0
  9 19  1  0  0  0  0
  9 35  1  0  0  0  0
 10 17  1  0  0  0  0
 10 11  1  0  0  0  0
 11 12  2  0  0  0  0
 11 36  1  0  0  0  0
 12 13  1  0  0  0  0
 12 14  1  0  0  0  0
 14 15  2  0  0  0  0
 14 16  1  0  0  0  0
 16 17  1  0  0  0  0
 17 18  2  0  0  0  0
 19 20  1  0  0  0  0
 19 21  1  0  0  0  0
 19 37  1  0  0  0  0
 21 22  1  0  0  0  0
 21 38  1  0  0  0  0
 22 23  1  0  0  0  0
 23 24  2  0  0  0  0
 23 25  1  0  0  0  0
 25 26  1  0  0  0  0
 25 39  1  0  0  0  0
 25 40  1  0  0  0  0
 26 41  1  0  0  0  0
 26 42  1  0  0  0  0
 26 43  1  0  0  0  0
M  CHG  1  16  -1
M  END
> <s_m_source_file>
AV-unprocessed.smi

> <i_m_source_file_index>
37

> <i_lp_mmshare_version>
43012

> <i_f3d_flags>
0

> <s_epik_input>
W0NIM11bQ0gyXUMoPU8pT1tDSDJdW0NAQEhdMU9bQ0BASF0objJbY0hdYyhGKWMoPU8pW25IXWMyPU8pW0NAQEhdKEJyKVtDQEhdMU9DKD1PKVtDSDJdW0NIM10=

> <s_epik_cmdline>
J2VwaWtfcHl0aG9uJywgJy1waCcsICc3LjAnLCAnLXRuJywgJzgnLCAnLW1hJywgJzIwMCcsICctbWV0YWxfYmluZGluZycsICctaW1hZScsICc8aW5maWxlLm1hZT4nLCAnLW9tYWUnLCAnPG91dGZpbGUubWFlPic=

> <r_epik_Ionization_Penalty>
1.08158

> <r_epik_Ionization_Penalty_Charging>
9.05154e-09

> <r_epik_Ionization_Penalty_Neutral>
1.08158

> <r_epik_State_Penalty>
1.13706

> <r_epik_Charging_Adjusted_Penalty>
1.13706

> <i_epik_Tot_Q>
-1

> <i_epik_Tot_abs_Q>
1

> <r_epik_Metal_State_Penalty>
0.00343535

> <b_epik_Metal_Only>
0

> <s_epik_Chemistry_Notes>
This compound has an ester and may undergo hydrolysis at high or low pH. This compound contains an acetal/aminal-like group ( X-CH(R)-Y where X, Y are N, S, or O) that may be acid/base labile, releasing an aldehyde.

> <s_lp_Force_Field>
OPLS_2005

> <r_lp_Energy>
34.8687

> <b_lp_Chiralities_Consistent>
1

> <s_lp_Variant>
AV-unprocessed.smi:37-17

> <Gold.Version>
5.8.1

> <Gold.Id.Protein>
6NUR|6NUR_protein|mol2

> <Gold.PLP.Fitness>
45.6261

> <Gold.PLP.PLP>
-39.1951

> <Gold.PLP.part.hbond>
-3.4461

> <Gold.PLP.part.metal>
0.0000

> <Gold.PLP.part.buried>
-3.6911

> <Gold.PLP.part.nonpolar>
-31.1693

> <Gold.PLP.part.repulsive>
0.0441

> <Gold.PLP.ligand.clash>
0.0000

> <Gold.PLP.ligand.torsion>
1.3897

> <Gold.PLP.Chemscore.Hbond>
3.0000

> <Gold.PLP.Chemscore.CHOScore>
0.0000

> <Gold.PLP.Chemscore.Metal>
0.0000

> <Gold.Chemscore.Hbonds>
donor molecule, donor type, donor heavy atom, donor atom, acceptor molecule, acceptor atom, score
      P1  H  7989  7998       L1    24  0.99
      P1  H  7997  8010       L1     4  0.88

> <Gold.PLP.Chemscore.Internal.Correction>
0.2105

> <Gold.Rescore>
     Score         DG    S(hbond)    S(metal)    S(lipo)     H(rot)  DE(clash)    DE(int)     intcor
      9.91     -12.67       2.69        0.00      56.12       3.27       0.64       2.12       ----

> <Gold.Chemscore.Fitness>
9.9098

> <Gold.Chemscore.DG>
-12.6719

> <Gold.Chemscore.ZeroCoef>
-5.4800

> <Gold.Chemscore.Hbond>
2.6913

> <Gold.Chemscore.Metal>
0.0000

> <Gold.Chemscore.Lipo>
56.1213

> <Gold.Chemscore.Internal_Hbond>
0.0000

> <Gold.Chemscore.DEClash>
0.6440

> <Gold.Chemscore.DEInternal>
2.1181

> <Gold.Chemscore.Rot>
3.2669

> <Gold.Chemscore.Internal.Correction>
   9.000000E+99

> <Gold.Chemscore.Hbonds>
donor molecule, donor type, donor heavy atom, donor atom, acceptor molecule, acceptor atom, score
      P1  H  7989  7998       L1    24  0.89
      P1  H  7997  8010       L1     4  0.86

> <Gold.Chemscore.Hbond.Weighted>
-8.9891

> <Gold.Chemscore.Metal.Weighted>
-0.0000

> <Gold.Chemscore.Lipo.Weighted>
-6.5662

> <Gold.Chemscore.Internal_Hbond.Weighted>
0.0000

> <Gold.Chemscore.DEClash.Weighted>
0.6440

> <Gold.Chemscore.DEInternal.Weighted>
2.1181

> <Gold.Chemscore.Rot.Weighted>
8.3634

> <Gold.Chemscore.Internal.Correction.Weighted>
   9.000000E+99

> <Gold.Protein.RotatedTorsions>
[ 6907 6896 6895 6894 ] final  130.69 input  -60.11 | X-H torsion
[ 7974 7965 7964 7962 ] final  107.71 input  175.53 | X-H torsion
[ 8008 7997 7996 7995 ] final   16.64 input   59.86 | X-H torsion
[ 10167 10162 10161 10158 ] final   39.79 input  -65.29 | X-H torsion
[ 10718 10713 10712 10709 ] final  151.78 input   66.30 | X-H torsion
[ 10763 10752 10751 10750 ] final -148.95 input  -60.55 | X-H torsion
[ 11005 11000 10999 10996 ] final    0.68 input  -57.11 | X-H torsion

> <Gold.Protein.ActiveResidues>
 VAL166  LYS551  ARG553  GLY616  TRP617  ASP618  TYR619  PRO620  LYS621  CYS622 
 ASP623  PHE694  ASN695  SER759  ASP760  ASP761  ALA762  ILE779  LEU786  VAL792 
 PHE793  MET794  SER795  GLU796  ALA797  LYS798  CYS799  TRP800  GLU811  SER814 

> <Gold.Protein.RotatedAtoms>
  152.3501  133.6169  159.5938 H   0  0  0  0  0  0  0  0  0  0  0  0  # atno 6907 bound_to 6896
  150.7532  133.9588  159.3518 H   0  0  0  0  0  0  0  0  0  0  0  0  # atno 6908 bound_to 6896
  151.7441  135.0848  160.0371 H   0  0  0  0  0  0  0  0  0  0  0  0  # atno 6909 bound_to 6896
  145.2901  139.2603  143.3869 H   0  0  0  0  0  0  0  0  0  0  0  0  # atno 7974 bound_to 7965
  154.8799  140.2971  155.5431 H   0  0  0  0  0  0  0  0  0  0  0  0  # atno 8008 bound_to 7997
  156.3022  140.2444  156.3734 H   0  0  0  0  0  0  0  0  0  0  0  0  # atno 8009 bound_to 7997
  154.8728  140.0401  157.1724 H   0  0  0  0  0  0  0  0  0  0  0  0  # atno 8010 bound_to 7997
  140.3805  144.1985  150.6131 H   0  0  0  0  0  0  0  0  0  0  0  0  # atno 10167 bound_to 10162
  157.2662  131.0808  151.1631 H   0  0  0  0  0  0  0  0  0  0  0  0  # atno 10718 bound_to 10713
  154.8205  135.3321  154.7053 H   0  0  0  0  0  0  0  0  0  0  0  0  # atno 10763 bound_to 10752
  153.7687  135.6927  153.4915 H   0  0  0  0  0  0  0  0  0  0  0  0  # atno 10764 bound_to 10752
  153.2060  135.4499  155.0272 H   0  0  0  0  0  0  0  0  0  0  0  0  # atno 10765 bound_to 10752
  140.6239  133.9636  155.8239 H   0  0  0  0  0  0  0  0  0  0  0  0  # atno 11005 bound_to 11000
  146.3187  140.3390  142.8646 LP  0  0  0  0  0  0  0  0  0  0  0  0  # atno 17320 bound_to 7965
  144.9180  140.7834  143.5766 LP  0  0  0  0  0  0  0  0  0  0  0  0  # atno 17321 bound_to 7965
  140.4942  143.2338  151.8774 LP  0  0  0  0  0  0  0  0  0  0  0  0  # atno 17342 bound_to 10162
  139.4796  144.5132  151.8904 LP  0  0  0  0  0  0  0  0  0  0  0  0  # atno 17343 bound_to 10162
  157.3121  130.6895  149.6221 LP  0  0  0  0  0  0  0  0  0  0  0  0  # atno 17370 bound_to 10713
  155.9663  130.4360  150.5117 LP  0  0  0  0  0  0  0  0  0  0  0  0  # atno 17371 bound_to 10713
  141.0723  134.0187  157.3508 LP  0  0  0  0  0  0  0  0  0  0  0  0  # atno 17394 bound_to 11000
  139.9142  135.0194  156.7816 LP  0  0  0  0  0  0  0  0  0  0  0  0  # atno 17395 bound_to 11000

$$$$
