AV-unprocessed.smi:3110|AV-procd|sdf|11828|dock10
  -GOLD-   2272017203D 1   1.00000     0.00000
 Structure written by MMmdl.
 34 35  0  0  0  0  0  0  0  0  2 V2000
  152.8394  140.0471  157.5223 O   0  0  0  0  0  0  0  0  0  0  0  0
  151.8357  140.7292  157.7319 C   0  0  0  0  0  0  0  0  0  0  0  0
  151.6379  141.4293  159.0809 C   0  0  0  0  0  0  0  0  0  0  0  0
  152.3911  142.7714  159.1957 C   0  0  2  0  0  0  0  0  0  0  0  0
  152.1493  143.4491  160.5196 C   0  0  0  0  0  0  0  0  0  0  0  0
  151.7712  144.7187  160.3877 C   0  0  0  0  0  0  0  0  0  0  0  0
  151.6827  145.1454  158.9488 C   0  0  0  0  0  0  0  0  0  0  0  0
  151.9567  143.8450  158.1616 C   0  0  0  0  0  0  0  0  0  0  0  0
  150.8639  140.9021  156.8228 N   0  0  0  0  0  0  0  0  0  0  0  0
  150.8665  140.3328  155.4807 C   0  0  0  0  0  0  0  0  0  0  0  0
  149.7820  139.2543  155.3204 C   0  0  0  0  0  0  0  0  0  0  0  0
  148.5559  139.8027  154.7395 N   0  0  0  0  0  0  0  0  0  0  0  0
  148.2778  141.1178  154.4693 C   0  0  0  0  0  0  0  0  0  0  0  0
  147.0174  141.1469  153.9296 C   0  0  0  0  0  0  0  0  0  0  0  0
  146.5808  139.8495  153.8933 N   0  3  0  0  0  0  0  0  0  0  0  0
  147.5184  139.0334  154.3860 C   0  0  0  0  0  0  0  0  0  0  0  0
  150.5728  141.5911  159.2553 H   0  0  0  0  0  0  0  0  0  0  0  0
  151.9783  140.7493  159.8626 H   0  0  0  0  0  0  0  0  0  0  0  0
  153.4664  142.6014  159.1213 H   0  0  0  0  0  0  0  0  0  0  0  0
  152.2921  142.9391  161.4612 H   0  0  0  0  0  0  0  0  0  0  0  0
  151.5602  145.3944  161.2036 H   0  0  0  0  0  0  0  0  0  0  0  0
  150.6975  145.5558  158.7263 H   0  0  0  0  0  0  0  0  0  0  0  0
  152.4344  145.9082  158.7432 H   0  0  0  0  0  0  0  0  0  0  0  0
  152.7194  143.9926  157.3963 H   0  0  0  0  0  0  0  0  0  0  0  0
  151.0444  143.5396  157.6473 H   0  0  0  0  0  0  0  0  0  0  0  0
  150.0731  141.4771  157.0762 H   0  0  0  0  0  0  0  0  0  0  0  0
  150.6958  141.1409  154.7687 H   0  0  0  0  0  0  0  0  0  0  0  0
  151.8527  139.9235  155.2545 H   0  0  0  0  0  0  0  0  0  0  0  0
  150.1247  138.4423  154.6771 H   0  0  0  0  0  0  0  0  0  0  0  0
  149.5295  138.8141  156.2860 H   0  0  0  0  0  0  0  0  0  0  0  0
  148.9780  141.9143  154.6754 H   0  0  0  0  0  0  0  0  0  0  0  0
  146.4142  141.9716  153.5781 H   0  0  0  0  0  0  0  0  0  0  0  0
  147.4512  137.9638  154.4787 H   0  0  0  0  0  0  0  0  0  0  0  0
  145.6792  139.5485  153.5448 H   0  0  0  0  0  0  0  0  0  0  0  0
  1  2  2  0  0  0  0
  2  3  1  0  0  0  0
  2  9  1  0  0  0  0
  3  4  1  0  0  0  0
  3 17  1  0  0  0  0
  3 18  1  0  0  0  0
  4  8  1  0  0  0  0
  4  5  1  0  0  0  0
  4 19  1  0  0  0  0
  5  6  2  0  0  0  0
  5 20  1  0  0  0  0
  6  7  1  0  0  0  0
  6 21  1  0  0  0  0
  7  8  1  0  0  0  0
  7 22  1  0  0  0  0
  7 23  1  0  0  0  0
  8 24  1  0  0  0  0
  8 25  1  0  0  0  0
  9 10  1  0  0  0  0
  9 26  1  0  0  0  0
 10 11  1  0  0  0  0
 10 27  1  0  0  0  0
 10 28  1  0  0  0  0
 11 12  1  0  0  0  0
 11 29  1  0  0  0  0
 11 30  1  0  0  0  0
 12 16  1  0  0  0  0
 12 13  1  0  0  0  0
 13 14  2  0  0  0  0
 13 31  1  0  0  0  0
 14 15  1  0  0  0  0
 14 32  1  0  0  0  0
 15 16  2  0  0  0  0
 15 34  1  0  0  0  0
 16 33  1  0  0  0  0
M  CHG  1  15   1
M  END
> <s_m_source_file>
AV-unprocessed.smi

> <i_m_source_file_index>
3110

> <i_lp_mmshare_version>
43012

> <i_f3d_flags>
0

> <s_epik_input>
W0NIMl0xW0NIMl1bQ0hdPVtDSF1bQ0BIXTFbQ0gyXUMoPU8pW05IXVtDSDJdW0NIMl1uMltjSF1bY0hdbltjSF0y

> <s_epik_cmdline>
J2VwaWtfcHl0aG9uJywgJy1waCcsICc3LjAnLCAnLXRuJywgJzgnLCAnLW1hJywgJzIwMCcsICctbWV0YWxfYmluZGluZycsICctaW1hZScsICc8aW5maWxlLm1hZT4nLCAnLW9tYWUnLCAnPG91dGZpbGUubWFlPic=

> <r_lp_tautomer_probability>
1

> <r_epik_Ionization_Penalty>
0.271094

> <r_epik_Ionization_Penalty_Charging>
0

> <r_epik_Ionization_Penalty_Neutral>
0.271094

> <r_epik_State_Penalty>
0.263241

> <r_epik_Charging_Adjusted_Penalty>
0.263241

> <i_epik_Tot_Q>
1

> <i_epik_Tot_abs_Q>
1

> <r_epik_Metal_State_Penalty>
0.547832

> <b_epik_Metal_Only>
0

> <s_lp_Force_Field>
OPLS_2005

> <r_lp_Energy>
18.4695

> <b_lp_Chiralities_Consistent>
1

> <s_lp_Variant>
AV-unprocessed.smi:3110-1

> <Gold.Version>
5.8.1

> <Gold.Id.Protein>
6NUR|6NUR_protein|mol2

> <Gold.PLP.Fitness>
49.6861

> <Gold.PLP.PLP>
-38.9265

> <Gold.PLP.part.hbond>
-2.0000

> <Gold.PLP.part.metal>
0.0000

> <Gold.PLP.part.buried>
-2.6993

> <Gold.PLP.part.nonpolar>
-34.2933

> <Gold.PLP.part.repulsive>
0.0777

> <Gold.PLP.ligand.clash>
0.0000

> <Gold.PLP.ligand.torsion>
0.6315

> <Gold.PLP.Chemscore.Hbond>
3.0000

> <Gold.PLP.Chemscore.CHOScore>
1.0000

> <Gold.PLP.Chemscore.Metal>
0.0000

> <Gold.Chemscore.Hbonds>
donor molecule, donor type, donor heavy atom, donor atom, acceptor molecule, acceptor atom, score
      P1  H  7997  8010       L1     1  1.00

> <Gold.PLP.Chemscore.Internal.Correction>
0.0226

> <Gold.Rescore>
     Score         DG    S(hbond)    S(metal)    S(lipo)     H(rot)  DE(clash)    DE(int)     intcor
     16.78     -18.14       1.94        0.00      98.70       2.10       0.65       0.72       ----

> <Gold.Chemscore.Fitness>
16.7805

> <Gold.Chemscore.DG>
-18.1419

> <Gold.Chemscore.ZeroCoef>
-5.4800

> <Gold.Chemscore.Hbond>
1.9401

> <Gold.Chemscore.Metal>
0.0000

> <Gold.Chemscore.Lipo>
98.7034

> <Gold.Chemscore.Internal_Hbond>
0.0000

> <Gold.Chemscore.DEClash>
0.6458

> <Gold.Chemscore.DEInternal>
0.7155

> <Gold.Chemscore.Rot>
2.0963

> <Gold.Chemscore.Internal.Correction>
   9.000000E+99

> <Gold.Chemscore.Hbonds>
donor molecule, donor type, donor heavy atom, donor atom, acceptor molecule, acceptor atom, score
      L1  H    15    34       P1 10175  0.04
      P1  H  7997  8010       L1     1  0.95

> <Gold.Chemscore.Hbond.Weighted>
-6.4800

> <Gold.Chemscore.Metal.Weighted>
-0.0000

> <Gold.Chemscore.Lipo.Weighted>
-11.5483

> <Gold.Chemscore.Internal_Hbond.Weighted>
0.0000

> <Gold.Chemscore.DEClash.Weighted>
0.6458

> <Gold.Chemscore.DEInternal.Weighted>
0.7155

> <Gold.Chemscore.Rot.Weighted>
5.3665

> <Gold.Chemscore.Internal.Correction.Weighted>
   9.000000E+99

> <Gold.Protein.RotatedTorsions>
[ 6907 6896 6895 6894 ] final  -48.13 input  -60.11 | X-H torsion
[ 7974 7965 7964 7962 ] final  155.22 input  175.53 | X-H torsion
[ 8008 7997 7996 7995 ] final   61.76 input   59.86 | X-H torsion
[ 10167 10162 10161 10158 ] final  121.79 input  -65.29 | X-H torsion
[ 10718 10713 10712 10709 ] final -131.45 input   66.30 | X-H torsion
[ 10763 10752 10751 10750 ] final  173.63 input  -60.55 | X-H torsion
[ 11005 11000 10999 10996 ] final   44.63 input  -57.11 | X-H torsion

> <Gold.Protein.ActiveResidues>
 VAL166  LYS551  ARG553  GLY616  TRP617  ASP618  TYR619  PRO620  LYS621  CYS622 
 ASP623  PHE694  ASN695  SER759  ASP760  ASP761  ALA762  ILE779  LEU786  VAL792 
 PHE793  MET794  SER795  GLU796  ALA797  LYS798  CYS799  TRP800  GLU811  SER814 

> <Gold.Protein.RotatedAtoms>
  150.8936  134.8343  159.7310 H   0  0  0  0  0  0  0  0  0  0  0  0  # atno 6907 bound_to 6896
  152.4852  134.4609  159.9615 H   0  0  0  0  0  0  0  0  0  0  0  0  # atno 6908 bound_to 6896
  151.4669  133.3540  159.2853 H   0  0  0  0  0  0  0  0  0  0  0  0  # atno 6909 bound_to 6896
  144.8038  139.7039  143.6170 H   0  0  0  0  0  0  0  0  0  0  0  0  # atno 7974 bound_to 7965
  155.6035  140.3494  155.4601 H   0  0  0  0  0  0  0  0  0  0  0  0  # atno 8008 bound_to 7997
  156.0210  140.1253  157.0382 H   0  0  0  0  0  0  0  0  0  0  0  0  # atno 8009 bound_to 7997
  154.4315  140.1062  156.5950 H   0  0  0  0  0  0  0  0  0  0  0  0  # atno 8010 bound_to 7997
  139.5898  144.7021  151.3318 H   0  0  0  0  0  0  0  0  0  0  0  0  # atno 10167 bound_to 10162
  156.2246  130.6999  151.0793 H   0  0  0  0  0  0  0  0  0  0  0  0  # atno 10718 bound_to 10713
  154.4427  135.2762  155.1836 H   0  0  0  0  0  0  0  0  0  0  0  0  # atno 10763 bound_to 10752
  154.3696  135.6111  153.5736 H   0  0  0  0  0  0  0  0  0  0  0  0  # atno 10764 bound_to 10752
  152.9842  135.5854  154.4758 H   0  0  0  0  0  0  0  0  0  0  0  0  # atno 10765 bound_to 10752
  140.1534  134.4433  155.8366 H   0  0  0  0  0  0  0  0  0  0  0  0  # atno 11005 bound_to 11000
  146.2326  139.5843  142.9545 LP  0  0  0  0  0  0  0  0  0  0  0  0  # atno 17320 bound_to 7965
  145.5487  141.0415  143.2290 LP  0  0  0  0  0  0  0  0  0  0  0  0  # atno 17321 bound_to 7965
  140.7163  143.7257  150.7662 LP  0  0  0  0  0  0  0  0  0  0  0  0  # atno 17342 bound_to 10162
  140.0810  143.4969  152.2530 LP  0  0  0  0  0  0  0  0  0  0  0  0  # atno 17343 bound_to 10162
  157.7104  131.0737  150.6521 LP  0  0  0  0  0  0  0  0  0  0  0  0  # atno 17370 bound_to 10713
  156.6585  130.4505  149.5695 LP  0  0  0  0  0  0  0  0  0  0  0  0  # atno 17371 bound_to 10713
  141.2201  133.6882  156.7462 LP  0  0  0  0  0  0  0  0  0  0  0  0  # atno 17394 bound_to 11000
  140.2577  134.8491  157.3729 LP  0  0  0  0  0  0  0  0  0  0  0  0  # atno 17395 bound_to 11000

$$$$
