AV-unprocessed.smi:765|AV-procd|sdf|3645|dock7
  -GOLD-   22720 1 53D 1   1.00000     0.00000
 Structure written by MMmdl.
 39 40  0  0  0  0  0  0  0  0  1 V2000
  152.2196  138.1740  154.1194 C   0  0  0  0  0  0  0  0  0  0  0  0
  151.2170  138.7585  155.1243 C   0  0  2  0  0  0  0  0  0  0  0  0
  150.0783  139.5086  154.4102 C   0  0  0  0  0  0  0  0  0  0  0  0
  149.0828  140.1096  155.4124 C   0  0  0  0  0  0  0  0  0  0  0  0
  149.8002  141.0209  156.4213 C   0  0  0  0  0  0  0  0  0  0  0  0
  150.9287  140.2849  157.1768 C   0  0  2  0  0  0  0  0  0  0  0  0
  150.3410  139.2208  158.0159 C   0  0  0  0  0  0  0  0  0  0  0  0
  149.8813  138.3871  158.6740 N   0  0  0  0  0  0  0  0  0  0  0  0
  151.6146  141.2805  158.0029 N   0  0  0  0  0  0  0  0  0  0  0  0
  152.7533  141.1111  158.6965 C   0  0  0  0  0  0  0  0  0  0  0  0
  153.3953  140.0605  158.6960 O   0  0  0  0  0  0  0  0  0  0  0  0
  153.2249  142.3189  159.5211 C   0  0  2  0  0  0  0  0  0  0  0  0
  153.3168  142.0184  161.0286 C   0  0  0  0  0  0  0  0  0  0  0  0
  152.3661  143.4695  159.2710 N   0  0  0  0  0  0  0  0  0  0  0  0
  151.8422  144.3740  160.1749 C   0  0  0  0  0  0  0  0  0  0  0  0
  151.1046  145.2791  159.4675 C   0  0  0  0  0  0  0  0  0  0  0  0
  151.2401  144.8448  158.1196 C   0  0  0  0  0  0  0  0  0  0  0  0
  151.9956  143.7646  158.0052 N   0  0  0  0  0  0  0  0  0  0  0  0
  151.9141  139.6846  156.1422 C   0  0  0  0  0  0  0  0  0  0  0  0
  152.6996  138.9590  153.5342 H   0  0  0  0  0  0  0  0  0  0  0  0
  151.7267  137.4943  153.4237 H   0  0  0  0  0  0  0  0  0  0  0  0
  153.0031  137.6119  154.6283 H   0  0  0  0  0  0  0  0  0  0  0  0
  150.7793  137.9209  155.6689 H   0  0  0  0  0  0  0  0  0  0  0  0
  150.4930  140.3045  153.7900 H   0  0  0  0  0  0  0  0  0  0  0  0
  149.5523  138.8338  153.7340 H   0  0  0  0  0  0  0  0  0  0  0  0
  148.3184  140.6762  154.8800 H   0  0  0  0  0  0  0  0  0  0  0  0
  148.5609  139.3095  155.9381 H   0  0  0  0  0  0  0  0  0  0  0  0
  150.2095  141.8818  155.8900 H   0  0  0  0  0  0  0  0  0  0  0  0
  149.0736  141.4190  157.1312 H   0  0  0  0  0  0  0  0  0  0  0  0
  151.1646  142.1817  158.0744 H   0  0  0  0  0  0  0  0  0  0  0  0
  154.2315  142.5652  159.1769 H   0  0  0  0  0  0  0  0  0  0  0  0
  153.9639  141.1624  161.2232 H   0  0  0  0  0  0  0  0  0  0  0  0
  152.3381  141.8011  161.4587 H   0  0  0  0  0  0  0  0  0  0  0  0
  153.7315  142.8699  161.5687 H   0  0  0  0  0  0  0  0  0  0  0  0
  152.0356  144.2974  161.2349 H   0  0  0  0  0  0  0  0  0  0  0  0
  150.5536  146.1237  159.8539 H   0  0  0  0  0  0  0  0  0  0  0  0
  150.8158  145.2801  157.2270 H   0  0  0  0  0  0  0  0  0  0  0  0
  152.6983  139.1244  156.6523 H   0  0  0  0  0  0  0  0  0  0  0  0
  152.4181  140.4911  155.6069 H   0  0  0  0  0  0  0  0  0  0  0  0
  1  2  1  0  0  0  0
  1 20  1  0  0  0  0
  1 21  1  0  0  0  0
  1 22  1  0  0  0  0
  2 19  1  0  0  0  0
  2  3  1  0  0  0  0
  2 23  1  0  0  0  0
  3  4  1  0  0  0  0
  3 24  1  0  0  0  0
  3 25  1  0  0  0  0
  4  5  1  0  0  0  0
  4 26  1  0  0  0  0
  4 27  1  0  0  0  0
  5  6  1  0  0  0  0
  5 28  1  0  0  0  0
  5 29  1  0  0  0  0
  6  7  1  0  0  0  0
  6  9  1  0  0  0  0
  6 19  1  0  0  0  0
  7  8  3  0  0  0  0
  9 10  1  0  0  0  0
  9 30  1  0  0  0  0
 10 11  2  0  0  0  0
 10 12  1  0  0  0  0
 12 13  1  0  0  0  0
 12 14  1  0  0  0  0
 12 31  1  0  0  0  0
 13 32  1  0  0  0  0
 13 33  1  0  0  0  0
 13 34  1  0  0  0  0
 14 18  1  0  0  0  0
 14 15  1  0  0  0  0
 15 16  2  0  0  0  0
 15 35  1  0  0  0  0
 16 17  1  0  0  0  0
 16 36  1  0  0  0  0
 17 18  2  0  0  0  0
 17 37  1  0  0  0  0
 19 38  1  0  0  0  0
 19 39  1  0  0  0  0
M  END
> <s_m_source_file>
AV-unprocessed.smi

> <i_m_source_file_index>
765

> <i_lp_mmshare_version>
43012

> <i_f3d_flags>
0

> <s_epik_input>
W0NIM11bQ0BASF0oW0NIMl0xKVtDSDJdW0NIMl1bQ0gyXVtDQEBdMShDI04pW05IXUMoPU8pW0NASF0oW0NIM10pbjJbY0hdW2NIXVtjSF1uMg==

> <s_epik_cmdline>
J2VwaWtfcHl0aG9uJywgJy1waCcsICc3LjAnLCAnLXRuJywgJzgnLCAnLW1hJywgJzIwMCcsICctbWV0YWxfYmluZGluZycsICctaW1hZScsICc8aW5maWxlLm1hZT4nLCAnLW9tYWUnLCAnPG91dGZpbGUubWFlPic=

> <r_lp_tautomer_probability>
1

> <r_epik_Ionization_Penalty>
2.71142e-05

> <r_epik_Ionization_Penalty_Charging>
0

> <r_epik_Ionization_Penalty_Neutral>
2.71142e-05

> <r_epik_State_Penalty>
-0

> <r_epik_Charging_Adjusted_Penalty>
0

> <i_epik_Tot_Q>
0

> <i_epik_Tot_abs_Q>
0

> <r_epik_Metal_State_Penalty>
-0

> <b_epik_Metal_Only>
0

> <s_lp_Force_Field>
OPLS_2005

> <r_lp_Energy>
10.9875

> <b_lp_Chiralities_Consistent>
1

> <s_lp_Variant>
AV-unprocessed.smi:765-3

> <Gold.Version>
5.8.1

> <Gold.Id.Protein>
6NUR|6NUR_protein|mol2

> <Gold.PLP.Fitness>
46.7637

> <Gold.PLP.PLP>
-41.5869

> <Gold.PLP.part.hbond>
-1.0000

> <Gold.PLP.part.metal>
0.0000

> <Gold.PLP.part.buried>
-5.9137

> <Gold.PLP.part.nonpolar>
-33.8626

> <Gold.PLP.part.repulsive>
0.1373

> <Gold.PLP.ligand.clash>
0.0000

> <Gold.PLP.ligand.torsion>
0.4390

> <Gold.PLP.Chemscore.Hbond>
1.0000

> <Gold.PLP.Chemscore.CHOScore>
0.9964

> <Gold.PLP.Chemscore.Metal>
0.0000

> <Gold.Chemscore.Hbonds>
donor molecule, donor type, donor heavy atom, donor atom, acceptor molecule, acceptor atom, score
      P1  H  7997  8008       L1    11  0.99
      L1  C    17    37       P1  8028  0.97

> <Gold.PLP.Chemscore.Internal.Correction>
0.0656

> <Gold.Rescore>
     Score         DG    S(hbond)    S(metal)    S(lipo)     H(rot)  DE(clash)    DE(int)     intcor
     13.27     -16.22       0.86        0.00      98.27       1.42       0.14       2.82       ----

> <Gold.Chemscore.Fitness>
13.2696

> <Gold.Chemscore.DG>
-16.2239

> <Gold.Chemscore.ZeroCoef>
-5.4800

> <Gold.Chemscore.Hbond>
0.8613

> <Gold.Chemscore.Metal>
0.0000

> <Gold.Chemscore.Lipo>
98.2736

> <Gold.Chemscore.Internal_Hbond>
0.0000

> <Gold.Chemscore.DEClash>
0.1367

> <Gold.Chemscore.DEInternal>
2.8176

> <Gold.Chemscore.Rot>
1.4183

> <Gold.Chemscore.Internal.Correction>
   9.000000E+99

> <Gold.Chemscore.Hbonds>
donor molecule, donor type, donor heavy atom, donor atom, acceptor molecule, acceptor atom, score
      P1  H  7997  8008       L1    11  0.62

> <Gold.Chemscore.Hbond.Weighted>
-2.8768

> <Gold.Chemscore.Metal.Weighted>
-0.0000

> <Gold.Chemscore.Lipo.Weighted>
-11.4980

> <Gold.Chemscore.Internal_Hbond.Weighted>
0.0000

> <Gold.Chemscore.DEClash.Weighted>
0.1367

> <Gold.Chemscore.DEInternal.Weighted>
2.8176

> <Gold.Chemscore.Rot.Weighted>
3.6309

> <Gold.Chemscore.Internal.Correction.Weighted>
   9.000000E+99

> <Gold.Protein.RotatedTorsions>
[ 6907 6896 6895 6894 ] final  173.55 input  -60.11 | X-H torsion
[ 7974 7965 7964 7962 ] final  133.82 input  175.53 | X-H torsion
[ 8008 7997 7996 7995 ] final  -90.53 input   59.86 | X-H torsion
[ 10167 10162 10161 10158 ] final  -18.25 input  -65.29 | X-H torsion
[ 10718 10713 10712 10709 ] final   48.50 input   66.30 | X-H torsion
[ 10763 10752 10751 10750 ] final -172.14 input  -60.55 | X-H torsion
[ 11005 11000 10999 10996 ] final   30.13 input  -57.11 | X-H torsion

> <Gold.Protein.ActiveResidues>
 VAL166  LYS551  ARG553  GLY616  TRP617  ASP618  TYR619  PRO620  LYS621  CYS622 
 ASP623  PHE694  ASN695  SER759  ASP760  ASP761  ALA762  ILE779  LEU786  VAL792 
 PHE793  MET794  SER795  GLU796  ALA797  LYS798  CYS799  TRP800  GLU811  SER814 

> <Gold.Protein.RotatedAtoms>
  151.7666  133.3338  159.3432 H   0  0  0  0  0  0  0  0  0  0  0  0  # atno 6907 bound_to 6896
  150.7477  134.6057  159.6069 H   0  0  0  0  0  0  0  0  0  0  0  0  # atno 6908 bound_to 6896
  152.3370  134.7187  160.0326 H   0  0  0  0  0  0  0  0  0  0  0  0  # atno 6909 bound_to 6896
  144.9826  139.4488  143.5378 H   0  0  0  0  0  0  0  0  0  0  0  0  # atno 7974 bound_to 7965
  154.6997  140.0529  157.0445 H   0  0  0  0  0  0  0  0  0  0  0  0  # atno 8008 bound_to 7997
  155.0702  140.3199  155.4614 H   0  0  0  0  0  0  0  0  0  0  0  0  # atno 8009 bound_to 7997
  156.2756  140.2083  156.5830 H   0  0  0  0  0  0  0  0  0  0  0  0  # atno 8010 bound_to 7997
  140.7256  143.4935  150.9961 H   0  0  0  0  0  0  0  0  0  0  0  0  # atno 10167 bound_to 10162
  157.4693  130.8245  149.7970 H   0  0  0  0  0  0  0  0  0  0  0  0  # atno 10718 bound_to 10713
  154.6226  135.2877  155.0308 H   0  0  0  0  0  0  0  0  0  0  0  0  # atno 10763 bound_to 10752
  154.1498  135.6505  153.4965 H   0  0  0  0  0  0  0  0  0  0  0  0  # atno 10764 bound_to 10752
  153.0243  135.5353  154.7022 H   0  0  0  0  0  0  0  0  0  0  0  0  # atno 10765 bound_to 10752
  140.2976  134.2793  155.7761 H   0  0  0  0  0  0  0  0  0  0  0  0  # atno 11005 bound_to 11000
  146.3412  139.9109  142.8780 LP  0  0  0  0  0  0  0  0  0  0  0  0  # atno 17320 bound_to 7965
  145.2399  141.0005  143.3942 LP  0  0  0  0  0  0  0  0  0  0  0  0  # atno 17321 bound_to 7965
  139.8641  143.7277  152.3171 LP  0  0  0  0  0  0  0  0  0  0  0  0  # atno 17342 bound_to 10162
  139.7503  144.7536  151.0517 LP  0  0  0  0  0  0  0  0  0  0  0  0  # atno 17343 bound_to 10162
  156.0065  130.3853  150.2412 LP  0  0  0  0  0  0  0  0  0  0  0  0  # atno 17370 bound_to 10713
  157.0593  131.0085  151.3228 LP  0  0  0  0  0  0  0  0  0  0  0  0  # atno 17371 bound_to 10713
  141.2134  133.7625  156.9719 LP  0  0  0  0  0  0  0  0  0  0  0  0  # atno 17394 bound_to 11000
  140.1138  134.9460  157.2104 LP  0  0  0  0  0  0  0  0  0  0  0  0  # atno 17395 bound_to 11000

$$$$
