AV-unprocessed.smi:2243|AV-procd|sdf|9067|dock2
  -GOLD-   2272012273D 1   1.00000     0.00000
 Structure written by MMmdl.
 34 35  0  0  0  0  0  0  0  0  1 V2000
  151.4964  140.5691  157.6379 C   0  0  0  0  0  0  0  0  0  0  0  0
  151.4764  142.0255  157.1429 C   0  0  1  0  0  0  0  0  0  0  0  0
  150.4097  142.1477  156.1480 N   0  0  0  0  0  0  0  0  0  0  0  0
  150.1955  141.3356  155.1006 C   0  0  0  0  0  0  0  0  0  0  0  0
  150.9227  140.3640  154.8723 O   0  0  0  0  0  0  0  0  0  0  0  0
  149.0909  141.7743  154.3850 N   0  0  0  0  0  0  0  0  0  0  0  0
  148.3568  140.9183  153.7440 C   0  0  0  0  0  0  0  0  0  0  0  0
  147.2279  141.1760  152.9826 N   0  0  0  0  0  0  0  0  0  0  0  0
  146.7679  139.9873  152.4873 C   0  0  0  0  0  0  0  0  0  0  0  0
  147.5722  139.0201  152.9187 C   0  0  0  0  0  0  0  0  0  0  0  0
  148.5566  139.5579  153.6916 O   0  0  0  0  0  0  0  0  0  0  0  0
  151.2766  143.0592  158.2834 C   0  0  0  0  0  0  0  0  0  0  0  0
  151.4768  144.5150  157.8090 C   0  0  0  0  0  0  0  0  0  0  0  0
  151.3456  145.5068  158.9761 C   0  0  0  0  0  0  0  0  0  0  0  0
  152.2759  145.1807  160.0010 O   0  0  0  0  0  0  0  0  0  0  0  0
  152.0465  143.8928  160.5583 C   0  0  0  0  0  0  0  0  0  0  0  0
  152.2201  142.8128  159.4781 C   0  0  0  0  0  0  0  0  0  0  0  0
  152.3576  140.3695  158.2746 H   0  0  0  0  0  0  0  0  0  0  0  0
  151.5557  139.8735  156.8002 H   0  0  0  0  0  0  0  0  0  0  0  0
  150.5961  140.3295  158.2045 H   0  0  0  0  0  0  0  0  0  0  0  0
  152.4433  142.2221  156.6767 H   0  0  0  0  0  0  0  0  0  0  0  0
  149.7725  142.9217  156.2695 H   0  0  0  0  0  0  0  0  0  0  0  0
  146.7873  142.0656  152.7981 H   0  0  0  0  0  0  0  0  0  0  0  0
  145.8887  139.9601  151.8608 H   0  0  0  0  0  0  0  0  0  0  0  0
  147.5791  137.9505  152.7712 H   0  0  0  0  0  0  0  0  0  0  0  0
  150.2509  142.9682  158.6447 H   0  0  0  0  0  0  0  0  0  0  0  0
  152.4617  144.6224  157.3525 H   0  0  0  0  0  0  0  0  0  0  0  0
  150.7488  144.7769  157.0411 H   0  0  0  0  0  0  0  0  0  0  0  0
  151.5479  146.5198  158.6284 H   0  0  0  0  0  0  0  0  0  0  0  0
  150.3306  145.5055  159.3762 H   0  0  0  0  0  0  0  0  0  0  0  0
  152.7580  143.7293  161.3676 H   0  0  0  0  0  0  0  0  0  0  0  0
  151.0490  143.8466  160.9984 H   0  0  0  0  0  0  0  0  0  0  0  0
  152.0322  141.8374  159.9259 H   0  0  0  0  0  0  0  0  0  0  0  0
  153.2560  142.8062  159.1364 H   0  0  0  0  0  0  0  0  0  0  0  0
  1  2  1  0  0  0  0
  1 18  1  0  0  0  0
  1 19  1  0  0  0  0
  1 20  1  0  0  0  0
  2  3  1  0  0  0  0
  2 12  1  0  0  0  0
  2 21  1  0  0  0  0
  3 22  1  0  0  0  0
  3  4  1  0  0  0  0
  4  6  1  0  0  0  0
  4  5  2  0  0  0  0
  6  7  2  0  0  0  0
  7 11  1  0  0  0  0
  7  8  1  0  0  0  0
  8 23  1  0  0  0  0
  8  9  1  0  0  0  0
  9 24  1  0  0  0  0
  9 10  2  0  0  0  0
 10 25  1  0  0  0  0
 10 11  1  0  0  0  0
 12 17  1  0  0  0  0
 12 13  1  0  0  0  0
 12 26  1  0  0  0  0
 13 14  1  0  0  0  0
 13 27  1  0  0  0  0
 13 28  1  0  0  0  0
 14 15  1  0  0  0  0
 14 29  1  0  0  0  0
 14 30  1  0  0  0  0
 15 16  1  0  0  0  0
 16 17  1  0  0  0  0
 16 31  1  0  0  0  0
 16 32  1  0  0  0  0
 17 33  1  0  0  0  0
 17 34  1  0  0  0  0
M  END
> <s_m_source_file>
AV-unprocessed.smi

> <i_m_source_file_index>
2243

> <i_lp_mmshare_version>
43012

> <i_f3d_flags>
0

> <s_epik_input>
W0NIMl0xW0NIMl1PW0NIMl1bQ0gyXVtDSF0xW0NASF0oW0NIM10pW05IXUMoPU8pW05IXWMybltjSF1bY0hdbzI=

> <s_epik_cmdline>
J2VwaWtfcHl0aG9uJywgJy1waCcsICc3LjAnLCAnLXRuJywgJzgnLCAnLW1hJywgJzIwMCcsICctbWV0YWxfYmluZGluZycsICctaW1hZScsICc8aW5maWxlLm1hZT4nLCAnLW9tYWUnLCAnPG91dGZpbGUubWFlPic=

> <r_lp_tautomer_probability>
0.107061

> <r_epik_Ionization_Penalty>
1.44639

> <r_epik_Ionization_Penalty_Charging>
1.44602

> <r_epik_Ionization_Penalty_Neutral>
0.000368208

> <r_epik_State_Penalty>
2.61815

> <r_epik_Charging_Adjusted_Penalty>
4.06418

> <i_epik_Tot_Q>
0

> <i_epik_Tot_abs_Q>
0

> <r_epik_Metal_State_Penalty>
3.54171

> <b_epik_Metal_Only>
0

> <s_lp_Force_Field>
OPLS_2005

> <r_lp_Energy>
34.6671

> <b_lp_Chiralities_Consistent>
1

> <s_lp_Variant>
AV-unprocessed.smi:2243-6

> <Gold.Version>
5.8.1

> <Gold.Id.Protein>
6NUR|6NUR_protein|mol2

> <Gold.PLP.Fitness>
41.2898

> <Gold.PLP.PLP>
-31.2347

> <Gold.PLP.part.hbond>
-2.3963

> <Gold.PLP.part.metal>
0.0000

> <Gold.PLP.part.buried>
-0.3232

> <Gold.PLP.part.nonpolar>
-28.7070

> <Gold.PLP.part.repulsive>
1.3095

> <Gold.PLP.ligand.clash>
0.0000

> <Gold.PLP.ligand.torsion>
0.3609

> <Gold.PLP.Chemscore.Hbond>
1.5928

> <Gold.PLP.Chemscore.CHOScore>
1.9948

> <Gold.PLP.Chemscore.Metal>
0.0000

> <Gold.Chemscore.Hbonds>
donor molecule, donor type, donor heavy atom, donor atom, acceptor molecule, acceptor atom, score
      L1  H     3    22       P1  8028  0.84
      P1  H  7989  7998       L1     5  0.95
      P1  H  8011  8017       L1     6  0.06
      L1  C     9    24       P1 10175  0.97
      L1  C    10    25       P1  7948  1.00

> <Gold.PLP.Chemscore.Internal.Correction>
0.0140

> <Gold.Rescore>
     Score         DG    S(hbond)    S(metal)    S(lipo)     H(rot)  DE(clash)    DE(int)     intcor
     11.94     -16.63       1.41        0.00      83.84       1.32       1.77       2.92       ----

> <Gold.Chemscore.Fitness>
11.9351

> <Gold.Chemscore.DG>
-16.6261

> <Gold.Chemscore.ZeroCoef>
-5.4800

> <Gold.Chemscore.Hbond>
1.4122

> <Gold.Chemscore.Metal>
0.0000

> <Gold.Chemscore.Lipo>
83.8350

> <Gold.Chemscore.Internal_Hbond>
0.0000

> <Gold.Chemscore.DEClash>
1.7690

> <Gold.Chemscore.DEInternal>
2.9219

> <Gold.Chemscore.Rot>
1.3201

> <Gold.Chemscore.Internal.Correction>
   9.000000E+99

> <Gold.Chemscore.Hbonds>
donor molecule, donor type, donor heavy atom, donor atom, acceptor molecule, acceptor atom, score
      L1  H     3    22       P1  8028  0.80
      P1  H  7989  7998       L1     5  0.21

> <Gold.Chemscore.Hbond.Weighted>
-4.7168

> <Gold.Chemscore.Metal.Weighted>
-0.0000

> <Gold.Chemscore.Lipo.Weighted>
-9.8087

> <Gold.Chemscore.Internal_Hbond.Weighted>
0.0000

> <Gold.Chemscore.DEClash.Weighted>
1.7690

> <Gold.Chemscore.DEInternal.Weighted>
2.9219

> <Gold.Chemscore.Rot.Weighted>
3.3794

> <Gold.Chemscore.Internal.Correction.Weighted>
   9.000000E+99

> <Gold.Protein.RotatedTorsions>
[ 6907 6896 6895 6894 ] final -137.41 input  -60.11 | X-H torsion
[ 7974 7965 7964 7962 ] final   20.08 input  175.53 | X-H torsion
[ 8008 7997 7996 7995 ] final   48.81 input   59.86 | X-H torsion
[ 10167 10162 10161 10158 ] final  178.55 input  -65.29 | X-H torsion
[ 10718 10713 10712 10709 ] final  179.91 input   66.30 | X-H torsion
[ 10763 10752 10751 10750 ] final   25.50 input  -60.55 | X-H torsion
[ 11005 11000 10999 10996 ] final -129.79 input  -57.11 | X-H torsion

> <Gold.Protein.ActiveResidues>
 VAL166  LYS551  ARG553  GLY616  TRP617  ASP618  TYR619  PRO620  LYS621  CYS622 
 ASP623  PHE694  ASN695  SER759  ASP760  ASP761  ALA762  ILE779  LEU786  VAL792 
 PHE793  MET794  SER795  GLU796  ALA797  LYS798  CYS799  TRP800  GLU811  SER814 

> <Gold.Protein.RotatedAtoms>
  151.0221  133.5867  159.2669 H   0  0  0  0  0  0  0  0  0  0  0  0  # atno 6907 bound_to 6896
  151.2980  135.0760  159.9238 H   0  0  0  0  0  0  0  0  0  0  0  0  # atno 6908 bound_to 6896
  152.5325  133.9907  159.7904 H   0  0  0  0  0  0  0  0  0  0  0  0  # atno 6909 bound_to 6896
  146.2125  139.8221  142.8677 H   0  0  0  0  0  0  0  0  0  0  0  0  # atno 7974 bound_to 7965
  155.3918  140.3433  155.4252 H   0  0  0  0  0  0  0  0  0  0  0  0  # atno 8008 bound_to 7997
  156.1553  140.1583  156.8735 H   0  0  0  0  0  0  0  0  0  0  0  0  # atno 8009 bound_to 7997
  154.5089  140.0795  156.7932 H   0  0  0  0  0  0  0  0  0  0  0  0  # atno 8010 bound_to 7997
  139.5299  144.2666  152.0663 H   0  0  0  0  0  0  0  0  0  0  0  0  # atno 10167 bound_to 10162
  156.8687  130.9776  151.3075 H   0  0  0  0  0  0  0  0  0  0  0  0  # atno 10718 bound_to 10713
  153.0687  135.6581  154.0295 H   0  0  0  0  0  0  0  0  0  0  0  0  # atno 10763 bound_to 10752
  153.9945  135.2943  155.3410 H   0  0  0  0  0  0  0  0  0  0  0  0  # atno 10764 bound_to 10752
  154.7055  135.5227  153.8658 H   0  0  0  0  0  0  0  0  0  0  0  0  # atno 10765 bound_to 10752
  140.9401  134.1204  157.4158 H   0  0  0  0  0  0  0  0  0  0  0  0  # atno 11005 bound_to 11000
  145.3085  141.0213  143.3568 LP  0  0  0  0  0  0  0  0  0  0  0  0  # atno 17320 bound_to 7965
  144.8953  139.4720  143.6658 LP  0  0  0  0  0  0  0  0  0  0  0  0  # atno 17321 bound_to 7965
  140.2128  144.4545  150.6378 LP  0  0  0  0  0  0  0  0  0  0  0  0  # atno 17342 bound_to 10162
  140.6469  143.2215  151.6165 LP  0  0  0  0  0  0  0  0  0  0  0  0  # atno 17343 bound_to 10162
  157.6208  130.8654  149.9105 LP  0  0  0  0  0  0  0  0  0  0  0  0  # atno 17370 bound_to 10713
  156.0738  130.3681  150.0721 LP  0  0  0  0  0  0  0  0  0  0  0  0  # atno 17371 bound_to 10713
  139.8818  135.0034  156.6183 LP  0  0  0  0  0  0  0  0  0  0  0  0  # atno 17394 bound_to 11000
  140.7745  133.8711  155.8518 LP  0  0  0  0  0  0  0  0  0  0  0  0  # atno 17395 bound_to 11000

$$$$
