AV-unprocessed.smi:1460|AV-procd|sdf|5928|dock6
  -GOLD-   22720 6 13D 1   1.00000     0.00000
 Structure written by MMmdl.
 41 42  0  0  0  0  0  0  0  0  1 V2000
  150.1594  144.6064  159.3841 C   0  0  0  0  0  0  0  0  0  0  0  0
  150.4814  143.1891  158.8820 C   0  0  2  0  0  0  0  0  0  0  0  0
  151.9970  142.9179  158.7539 C   0  0  0  0  0  0  0  0  0  0  0  0
  152.6269  142.5911  160.0204 N   0  0  0  0  0  0  0  0  0  0  0  0
  152.5511  143.2740  161.2161 C   0  0  0  0  0  0  0  0  0  0  0  0
  153.3129  142.5931  162.1218 C   0  0  0  0  0  0  0  0  0  0  0  0
  153.8269  141.4967  161.3745 C   0  0  0  0  0  0  0  0  0  0  0  0
  153.4174  141.5002  160.1163 N   0  0  0  0  0  0  0  0  0  0  0  0
  149.8260  142.9796  157.5943 N   0  0  0  0  0  0  0  0  0  0  0  0
  149.3963  141.7996  157.1204 C   0  0  0  0  0  0  0  0  0  0  0  0
  149.5117  140.7407  157.7381 O   0  0  0  0  0  0  0  0  0  0  0  0
  148.7382  141.8203  155.7346 C   0  0  0  0  0  0  0  0  0  0  0  0
  147.2392  141.4523  155.8277 C   0  0  0  0  0  0  0  0  0  0  0  0
  146.6072  141.3483  154.4280 C   0  0  0  0  0  0  0  0  0  0  0  0
  147.3586  140.3553  153.6419 N   0  0  0  0  0  0  0  0  0  0  0  0
  146.9436  139.1033  153.3227 C   0  0  0  0  0  0  0  0  0  0  0  0
  147.6567  138.4891  152.3735 N   0  0  0  0  0  0  0  0  0  0  0  0
  145.9968  138.5371  153.8663 O   0  0  0  0  0  0  0  0  0  0  0  0
  148.7372  140.8002  153.4025 C   0  0  0  0  0  0  0  0  0  0  0  0
  149.4759  140.8816  154.7509 C   0  0  0  0  0  0  0  0  0  0  0  0
  150.5577  144.7769  160.3844 H   0  0  0  0  0  0  0  0  0  0  0  0
  149.0821  144.7683  159.4353 H   0  0  0  0  0  0  0  0  0  0  0  0
  150.5795  145.3660  158.7241 H   0  0  0  0  0  0  0  0  0  0  0  0
  150.0612  142.4867  159.6045 H   0  0  0  0  0  0  0  0  0  0  0  0
  152.1813  142.0960  158.0603 H   0  0  0  0  0  0  0  0  0  0  0  0
  152.5002  143.7927  158.3391 H   0  0  0  0  0  0  0  0  0  0  0  0
  151.9659  144.1756  161.3220 H   0  0  0  0  0  0  0  0  0  0  0  0
  153.4793  142.8412  163.1593 H   0  0  0  0  0  0  0  0  0  0  0  0
  154.4823  140.7050  161.7061 H   0  0  0  0  0  0  0  0  0  0  0  0
  149.6889  143.7966  157.0172 H   0  0  0  0  0  0  0  0  0  0  0  0
  148.8059  142.8340  155.3353 H   0  0  0  0  0  0  0  0  0  0  0  0
  147.1123  140.5019  156.3490 H   0  0  0  0  0  0  0  0  0  0  0  0
  146.7067  142.2009  156.4157 H   0  0  0  0  0  0  0  0  0  0  0  0
  145.5439  141.1280  154.5192 H   0  0  0  0  0  0  0  0  0  0  0  0
  146.6579  142.3148  153.9244 H   0  0  0  0  0  0  0  0  0  0  0  0
  147.4110  137.5536  152.0851 H   0  0  0  0  0  0  0  0  0  0  0  0
  148.4415  138.9644  151.9524 H   0  0  0  0  0  0  0  0  0  0  0  0
  149.2791  140.1437  152.7204 H   0  0  0  0  0  0  0  0  0  0  0  0
  148.7241  141.7788  152.9205 H   0  0  0  0  0  0  0  0  0  0  0  0
  150.4955  141.2344  154.5907 H   0  0  0  0  0  0  0  0  0  0  0  0
  149.5595  139.8778  155.1710 H   0  0  0  0  0  0  0  0  0  0  0  0
  1  2  1  0  0  0  0
  1 21  1  0  0  0  0
  1 22  1  0  0  0  0
  1 23  1  0  0  0  0
  2  3  1  0  0  0  0
  2  9  1  0  0  0  0
  2 24  1  0  0  0  0
  3  4  1  0  0  0  0
  3 25  1  0  0  0  0
  3 26  1  0  0  0  0
  4  8  1  0  0  0  0
  4  5  1  0  0  0  0
  5  6  2  0  0  0  0
  5 27  1  0  0  0  0
  6  7  1  0  0  0  0
  6 28  1  0  0  0  0
  7  8  2  0  0  0  0
  7 29  1  0  0  0  0
  9 10  1  0  0  0  0
  9 30  1  0  0  0  0
 10 11  2  0  0  0  0
 10 12  1  0  0  0  0
 12 20  1  0  0  0  0
 12 13  1  0  0  0  0
 12 31  1  0  0  0  0
 13 14  1  0  0  0  0
 13 32  1  0  0  0  0
 13 33  1  0  0  0  0
 14 15  1  0  0  0  0
 14 34  1  0  0  0  0
 14 35  1  0  0  0  0
 15 16  1  0  0  0  0
 15 19  1  0  0  0  0
 16 17  1  0  0  0  0
 16 18  2  0  0  0  0
 17 36  1  0  0  0  0
 17 37  1  0  0  0  0
 19 20  1  0  0  0  0
 19 38  1  0  0  0  0
 19 39  1  0  0  0  0
 20 40  1  0  0  0  0
 20 41  1  0  0  0  0
M  END
> <s_m_source_file>
AV-unprocessed.smi

> <i_m_source_file_index>
1460

> <i_lp_mmshare_version>
43012

> <i_f3d_flags>
0

> <s_epik_input>
bjFbY0hdW2NIXVtjSF1uMVtDSDJdW0NAQEhdKFtDSDNdKVtOSF1DKD1PKVtDSF0yW0NIMl1bQ0gyXU4oQyg9TylbTkgyXSlbQ0gyXVtDSDJdMg==

> <s_epik_cmdline>
J2VwaWtfcHl0aG9uJywgJy1waCcsICc3LjAnLCAnLXRuJywgJzgnLCAnLW1hJywgJzIwMCcsICctbWV0YWxfYmluZGluZycsICctaW1hZScsICc8aW5maWxlLm1hZT4nLCAnLW9tYWUnLCAnPG91dGZpbGUubWFlPic=

> <r_lp_tautomer_probability>
1

> <r_epik_Ionization_Penalty>
0.000387527

> <r_epik_Ionization_Penalty_Charging>
0

> <r_epik_Ionization_Penalty_Neutral>
0.000387527

> <r_epik_State_Penalty>
-0

> <r_epik_Charging_Adjusted_Penalty>
0

> <i_epik_Tot_Q>
0

> <i_epik_Tot_abs_Q>
0

> <r_epik_Metal_State_Penalty>
-0

> <b_epik_Metal_Only>
0

> <s_lp_Force_Field>
OPLS_2005

> <r_lp_Energy>
26.2675

> <b_lp_Chiralities_Consistent>
1

> <s_lp_Variant>
AV-unprocessed.smi:1460-1

> <Gold.Version>
5.8.1

> <Gold.Id.Protein>
6NUR|6NUR_protein|mol2

> <Gold.PLP.Fitness>
43.1833

> <Gold.PLP.PLP>
-37.7658

> <Gold.PLP.part.hbond>
-3.0000

> <Gold.PLP.part.metal>
0.0000

> <Gold.PLP.part.buried>
1.4471

> <Gold.PLP.part.nonpolar>
-35.8935

> <Gold.PLP.part.repulsive>
0.2992

> <Gold.PLP.ligand.clash>
0.0000

> <Gold.PLP.ligand.torsion>
0.8780

> <Gold.PLP.Chemscore.Hbond>
2.3680

> <Gold.PLP.Chemscore.CHOScore>
0.0000

> <Gold.PLP.Chemscore.Metal>
0.0000

> <Gold.Chemscore.Hbonds>
donor molecule, donor type, donor heavy atom, donor atom, acceptor molecule, acceptor atom, score
      L1  H     9    30       P1  8028  1.00
      L1  H    17    36       P1  7948  0.34
      L1  H    17    37       P1  7957  1.00

> <Gold.PLP.Chemscore.Internal.Correction>
0.0696

> <Gold.Rescore>
     Score         DG    S(hbond)    S(metal)    S(lipo)     H(rot)  DE(clash)    DE(int)     intcor
     15.41     -19.20       2.30        0.00      91.34       1.82       2.92       0.88       ----

> <Gold.Chemscore.Fitness>
15.4059

> <Gold.Chemscore.DG>
-19.2030

> <Gold.Chemscore.ZeroCoef>
-5.4800

> <Gold.Chemscore.Hbond>
2.3044

> <Gold.Chemscore.Metal>
0.0000

> <Gold.Chemscore.Lipo>
91.3409

> <Gold.Chemscore.Internal_Hbond>
0.0000

> <Gold.Chemscore.DEClash>
2.9206

> <Gold.Chemscore.DEInternal>
0.8765

> <Gold.Chemscore.Rot>
1.8206

> <Gold.Chemscore.Internal.Correction>
   9.000000E+99

> <Gold.Chemscore.Hbonds>
donor molecule, donor type, donor heavy atom, donor atom, acceptor molecule, acceptor atom, score
      L1  H     9    30       P1  8028  0.88
      L1  H    17    36       P1  7948  0.30
      L1  H    17    37       P1  7957  0.94

> <Gold.Chemscore.Hbond.Weighted>
-7.6968

> <Gold.Chemscore.Metal.Weighted>
-0.0000

> <Gold.Chemscore.Lipo.Weighted>
-10.6869

> <Gold.Chemscore.Internal_Hbond.Weighted>
0.0000

> <Gold.Chemscore.DEClash.Weighted>
2.9206

> <Gold.Chemscore.DEInternal.Weighted>
0.8765

> <Gold.Chemscore.Rot.Weighted>
4.6607

> <Gold.Chemscore.Internal.Correction.Weighted>
   9.000000E+99

> <Gold.Protein.RotatedTorsions>
[ 6907 6896 6895 6894 ] final -140.68 input  -60.11 | X-H torsion
[ 7974 7965 7964 7962 ] final   -6.93 input  175.53 | X-H torsion
[ 8008 7997 7996 7995 ] final  -56.82 input   59.86 | X-H torsion
[ 10167 10162 10161 10158 ] final -106.92 input  -65.29 | X-H torsion
[ 10718 10713 10712 10709 ] final  -67.72 input   66.30 | X-H torsion
[ 10763 10752 10751 10750 ] final  -46.02 input  -60.55 | X-H torsion
[ 11005 11000 10999 10996 ] final  139.04 input  -57.11 | X-H torsion

> <Gold.Protein.ActiveResidues>
 VAL166  LYS551  ARG553  GLY616  TRP617  ASP618  TYR619  PRO620  LYS621  CYS622 
 ASP623  PHE694  ASN695  SER759  ASP760  ASP761  ALA762  ILE779  LEU786  VAL792 
 PHE793  MET794  SER795  GLU796  ALA797  LYS798  CYS799  TRP800  GLU811  SER814 

> <Gold.Protein.RotatedAtoms>
  151.0638  133.5522  159.2631 H   0  0  0  0  0  0  0  0  0  0  0  0  # atno 6907 bound_to 6896
  151.2487  135.0614  159.9063 H   0  0  0  0  0  0  0  0  0  0  0  0  # atno 6908 bound_to 6896
  152.5401  134.0402  159.8118 H   0  0  0  0  0  0  0  0  0  0  0  0  # atno 6909 bound_to 6896
  146.2319  140.2243  142.8338 H   0  0  0  0  0  0  0  0  0  0  0  0  # atno 7974 bound_to 7965
  154.4244  140.1121  156.5698 H   0  0  0  0  0  0  0  0  0  0  0  0  # atno 8008 bound_to 7997
  155.6224  140.3495  155.4637 H   0  0  0  0  0  0  0  0  0  0  0  0  # atno 8009 bound_to 7997
  156.0014  140.1200  157.0533 H   0  0  0  0  0  0  0  0  0  0  0  0  # atno 8010 bound_to 7997
  140.1825  143.3955  152.1270 H   0  0  0  0  0  0  0  0  0  0  0  0  # atno 10167 bound_to 10162
  156.0542  130.4282  150.1896 H   0  0  0  0  0  0  0  0  0  0  0  0  # atno 10718 bound_to 10713
  154.0382  135.6647  153.4787 H   0  0  0  0  0  0  0  0  0  0  0  0  # atno 10763 bound_to 10752
  153.0512  135.5083  154.7868 H   0  0  0  0  0  0  0  0  0  0  0  0  # atno 10764 bound_to 10752
  154.6835  135.3049  154.9545 H   0  0  0  0  0  0  0  0  0  0  0  0  # atno 10765 bound_to 10752
  140.0226  134.9389  157.0505 H   0  0  0  0  0  0  0  0  0  0  0  0  # atno 11005 bound_to 11000
  144.9607  140.8272  143.5515 LP  0  0  0  0  0  0  0  0  0  0  0  0  # atno 17320 bound_to 7965
  145.2214  139.2157  143.5091 LP  0  0  0  0  0  0  0  0  0  0  0  0  # atno 17321 bound_to 7965
  139.5290  144.7137  151.5125 LP  0  0  0  0  0  0  0  0  0  0  0  0  # atno 17342 bound_to 10162
  140.6510  143.8697  150.6785 LP  0  0  0  0  0  0  0  0  0  0  0  0  # atno 17343 bound_to 10162
  156.9975  130.9912  151.3399 LP  0  0  0  0  0  0  0  0  0  0  0  0  # atno 17370 bound_to 10713
  157.5497  130.8174  149.8130 LP  0  0  0  0  0  0  0  0  0  0  0  0  # atno 17371 bound_to 10713
  140.4360  134.1730  155.7171 LP  0  0  0  0  0  0  0  0  0  0  0  0  # atno 17394 bound_to 11000
  141.1783  133.8467  157.1345 LP  0  0  0  0  0  0  0  0  0  0  0  0  # atno 17395 bound_to 11000

$$$$
