AV-unprocessed.smi:2524|AV-procd|sdf|9924|dock6
  -GOLD-   2272013563D 1   1.00000     0.00000
 Structure written by MMmdl.
 35 36  0  0  0  0  0  0  0  0  2 V2000
  152.6660  143.1246  161.3409 C   0  0  0  0  0  0  0  0  0  0  0  0
  152.8461  142.9348  160.0254 C   0  0  0  0  0  0  0  0  0  0  0  0
  153.2441  141.6161  159.3963 C   0  0  0  0  0  0  0  0  0  0  0  0
  152.1525  141.0747  158.4650 C   0  0  0  0  0  0  0  0  0  0  0  0
  152.6427  139.4434  157.7449 S   0  0  0  0  0  0  0  0  0  0  0  0
  154.0233  139.1919  158.1918 O   0  0  0  0  0  0  0  0  0  0  0  0
  151.6203  138.4954  158.2129 O   0  0  0  0  0  0  0  0  0  0  0  0
  152.5025  139.7142  156.1485 N   0  5  0  0  0  0  0  0  0  0  0  0
  151.2702  140.2461  155.5773 C   0  0  0  0  0  0  0  0  0  0  0  0
  150.3256  139.1395  155.0618 C   0  0  0  0  0  0  0  0  0  0  0  0
  148.9959  139.7249  154.6440 C   0  0  0  0  0  0  0  0  0  0  0  0
  147.9628  138.9074  154.1289 C   0  0  0  0  0  0  0  0  0  0  0  0
  146.7471  139.5037  153.7397 C   0  0  0  0  0  0  0  0  0  0  0  0
  146.5110  140.8295  153.8243 N   0  0  0  0  0  0  0  0  0  0  0  0
  147.4979  141.6132  154.3072 C   0  0  0  0  0  0  0  0  0  0  0  0
  148.7485  141.1153  154.7233 C   0  0  0  0  0  0  0  0  0  0  0  0
  150.8439  137.9423  154.2781 C   0  0  0  0  0  0  0  0  0  0  0  0
  150.3151  137.7486  155.6794 C   0  0  0  0  0  0  0  0  0  0  0  0
  152.8011  142.3190  162.0476 H   0  0  0  0  0  0  0  0  0  0  0  0
  152.3807  144.0916  161.7277 H   0  0  0  0  0  0  0  0  0  0  0  0
  152.7018  143.7639  159.3481 H   0  0  0  0  0  0  0  0  0  0  0  0
  154.1767  141.7396  158.8441 H   0  0  0  0  0  0  0  0  0  0  0  0
  153.4431  140.9004  160.1944 H   0  0  0  0  0  0  0  0  0  0  0  0
  151.2169  140.9358  159.0066 H   0  0  0  0  0  0  0  0  0  0  0  0
  151.9671  141.7745  157.6501 H   0  0  0  0  0  0  0  0  0  0  0  0
  150.7151  140.8354  156.3079 H   0  0  0  0  0  0  0  0  0  0  0  0
  151.4836  140.9244  154.7505 H   0  0  0  0  0  0  0  0  0  0  0  0
  148.0994  137.8398  154.0384 H   0  0  0  0  0  0  0  0  0  0  0  0
  145.9431  138.8984  153.3479 H   0  0  0  0  0  0  0  0  0  0  0  0
  147.2855  142.6707  154.3622 H   0  0  0  0  0  0  0  0  0  0  0  0
  149.5044  141.7881  155.1012 H   0  0  0  0  0  0  0  0  0  0  0  0
  150.2302  137.5645  153.4627 H   0  0  0  0  0  0  0  0  0  0  0  0
  151.9153  137.8009  154.1429 H   0  0  0  0  0  0  0  0  0  0  0  0
  151.0491  137.4830  156.4391 H   0  0  0  0  0  0  0  0  0  0  0  0
  149.3560  137.2440  155.7789 H   0  0  0  0  0  0  0  0  0  0  0  0
  1  2  2  0  0  0  0
  1 19  1  0  0  0  0
  1 20  1  0  0  0  0
  2  3  1  0  0  0  0
  2 21  1  0  0  0  0
  3  4  1  0  0  0  0
  3 22  1  0  0  0  0
  3 23  1  0  0  0  0
  4  5  1  0  0  0  0
  4 24  1  0  0  0  0
  4 25  1  0  0  0  0
  5  6  2  0  0  0  0
  5  7  2  0  0  0  0
  5  8  1  0  0  0  0
  8  9  1  0  0  0  0
  9 10  1  0  0  0  0
  9 26  1  0  0  0  0
  9 27  1  0  0  0  0
 10 18  1  0  0  0  0
 10 11  1  0  0  0  0
 10 17  1  0  0  0  0
 11 16  1  0  0  0  0
 11 12  2  0  0  0  0
 12 13  1  0  0  0  0
 12 28  1  0  0  0  0
 13 14  2  0  0  0  0
 13 29  1  0  0  0  0
 14 15  1  0  0  0  0
 15 16  2  0  0  0  0
 15 30  1  0  0  0  0
 16 31  1  0  0  0  0
 17 18  1  0  0  0  0
 17 32  1  0  0  0  0
 17 33  1  0  0  0  0
 18 34  1  0  0  0  0
 18 35  1  0  0  0  0
M  CHG  1   8  -1
M  END
> <s_m_source_file>
AV-unprocessed.smi

> <i_m_source_file_index>
2524

> <i_lp_mmshare_version>
43012

> <i_f3d_flags>
0

> <s_epik_input>
W0NIMl09W0NIXVtDSDJdW0NIMl1TKD1PKSg9TylbTkhdW0NIMl1DMShbQ0gyXVtDSDJdMSljMltjSF1bY0hdbltjSF1bY0hdMg==

> <s_epik_cmdline>
J2VwaWtfcHl0aG9uJywgJy1waCcsICc3LjAnLCAnLXRuJywgJzgnLCAnLW1hJywgJzIwMCcsICctbWV0YWxfYmluZGluZycsICctaW1hZScsICc8aW5maWxlLm1hZT4nLCAnLW9tYWUnLCAnPG91dGZpbGUubWFlPic=

> <r_epik_Ionization_Penalty>
6.82782

> <r_epik_Ionization_Penalty_Charging>
6.77146

> <r_epik_Ionization_Penalty_Neutral>
0.0563627

> <r_epik_State_Penalty>
6.80009

> <r_epik_Charging_Adjusted_Penalty>
13.5715

> <i_epik_Tot_Q>
-1

> <i_epik_Tot_abs_Q>
1

> <r_epik_Metal_State_Penalty>
2.75227

> <b_epik_Metal_Only>
1

> <s_lp_Force_Field>
OPLS_2005

> <r_lp_Energy>
12.2049

> <b_lp_Chiralities_Consistent>
1

> <s_lp_Variant>
AV-unprocessed.smi:2524-3

> <Gold.Version>
5.8.1

> <Gold.Id.Protein>
6NUR|6NUR_protein|mol2

> <Gold.PLP.Fitness>
49.2444

> <Gold.PLP.PLP>
-38.7215

> <Gold.PLP.part.hbond>
-2.0000

> <Gold.PLP.part.metal>
0.0000

> <Gold.PLP.part.buried>
-1.9341

> <Gold.PLP.part.nonpolar>
-33.9454

> <Gold.PLP.part.repulsive>
0.1963

> <Gold.PLP.ligand.clash>
0.0000

> <Gold.PLP.ligand.torsion>
1.7443

> <Gold.PLP.Chemscore.Hbond>
2.2319

> <Gold.PLP.Chemscore.CHOScore>
1.6325

> <Gold.PLP.Chemscore.Metal>
0.0000

> <Gold.Chemscore.Hbonds>
donor molecule, donor type, donor heavy atom, donor atom, acceptor molecule, acceptor atom, score
      P1  H  7997  8008       L1     8  1.16
      P1  H  7997  8010       L1     6  0.51
      L1  C    13    29       P1 10175  0.07
      L1  C    15    30       P1  8028  0.17

> <Gold.PLP.Chemscore.Internal.Correction>
2.4183

> <Gold.Rescore>
     Score         DG    S(hbond)    S(metal)    S(lipo)     H(rot)  DE(clash)    DE(int)     intcor
     14.10     -16.51       0.87        0.00     104.28       1.59       0.64       1.77       ----

> <Gold.Chemscore.Fitness>
14.0995

> <Gold.Chemscore.DG>
-16.5079

> <Gold.Chemscore.ZeroCoef>
-5.4800

> <Gold.Chemscore.Hbond>
0.8683

> <Gold.Chemscore.Metal>
0.0000

> <Gold.Chemscore.Lipo>
104.2765

> <Gold.Chemscore.Internal_Hbond>
0.0000

> <Gold.Chemscore.DEClash>
0.6357

> <Gold.Chemscore.DEInternal>
1.7727

> <Gold.Chemscore.Rot>
1.5908

> <Gold.Chemscore.Internal.Correction>
   9.000000E+99

> <Gold.Chemscore.Hbonds>
donor molecule, donor type, donor heavy atom, donor atom, acceptor molecule, acceptor atom, score
      P1  H  7997  8008       L1     8  0.05
      P1  H  7997  8010       L1     6  0.50

> <Gold.Chemscore.Hbond.Weighted>
-2.9000

> <Gold.Chemscore.Metal.Weighted>
-0.0000

> <Gold.Chemscore.Lipo.Weighted>
-12.2003

> <Gold.Chemscore.Internal_Hbond.Weighted>
0.0000

> <Gold.Chemscore.DEClash.Weighted>
0.6357

> <Gold.Chemscore.DEInternal.Weighted>
1.7727

> <Gold.Chemscore.Rot.Weighted>
4.0724

> <Gold.Chemscore.Internal.Correction.Weighted>
   9.000000E+99

> <Gold.Protein.RotatedTorsions>
[ 6907 6896 6895 6894 ] final   15.11 input  -60.11 | X-H torsion
[ 7974 7965 7964 7962 ] final   -9.43 input  175.53 | X-H torsion
[ 8008 7997 7996 7995 ] final  -17.06 input   59.86 | X-H torsion
[ 10167 10162 10161 10158 ] final -105.32 input  -65.29 | X-H torsion
[ 10718 10713 10712 10709 ] final -136.91 input   66.30 | X-H torsion
[ 10763 10752 10751 10750 ] final   52.67 input  -60.55 | X-H torsion
[ 11005 11000 10999 10996 ] final -172.20 input  -57.11 | X-H torsion

> <Gold.Protein.ActiveResidues>
 VAL166  LYS551  ARG553  GLY616  TRP617  ASP618  TYR619  PRO620  LYS621  CYS622 
 ASP623  PHE694  ASN695  SER759  ASP760  ASP761  ALA762  ILE779  LEU786  VAL792 
 PHE793  MET794  SER795  GLU796  ALA797  LYS798  CYS799  TRP800  GLU811  SER814 

> <Gold.Protein.RotatedAtoms>
  151.8129  135.0675  160.0414 H   0  0  0  0  0  0  0  0  0  0  0  0  # atno 6907 bound_to 6896
  152.3008  133.5648  159.5625 H   0  0  0  0  0  0  0  0  0  0  0  0  # atno 6908 bound_to 6896
  150.7272  134.0211  159.3743 H   0  0  0  0  0  0  0  0  0  0  0  0  # atno 6909 bound_to 6896
  146.2252  140.2615  142.8352 H   0  0  0  0  0  0  0  0  0  0  0  0  # atno 7974 bound_to 7965
  154.5007  140.2153  155.9354 H   0  0  0  0  0  0  0  0  0  0  0  0  # atno 8008 bound_to 7997
  156.1429  140.3176  155.8492 H   0  0  0  0  0  0  0  0  0  0  0  0  # atno 8009 bound_to 7997
  155.4085  140.0489  157.3023 H   0  0  0  0  0  0  0  0  0  0  0  0  # atno 8010 bound_to 7997
  140.1998  143.3828  152.1139 H   0  0  0  0  0  0  0  0  0  0  0  0  # atno 10167 bound_to 10162
  156.2822  130.7327  151.1328 H   0  0  0  0  0  0  0  0  0  0  0  0  # atno 10718 bound_to 10713
  152.9790  135.5805  154.4616 H   0  0  0  0  0  0  0  0  0  0  0  0  # atno 10763 bound_to 10752
  154.4191  135.2771  155.1989 H   0  0  0  0  0  0  0  0  0  0  0  0  # atno 10764 bound_to 10752
  154.3746  135.6160  153.5812 H   0  0  0  0  0  0  0  0  0  0  0  0  # atno 10765 bound_to 10752
  140.4997  134.5905  157.4983 H   0  0  0  0  0  0  0  0  0  0  0  0  # atno 11005 bound_to 11000
  144.9336  140.8001  143.5674 LP  0  0  0  0  0  0  0  0  0  0  0  0  # atno 17320 bound_to 7965
  145.2561  139.2011  143.4917 LP  0  0  0  0  0  0  0  0  0  0  0  0  # atno 17321 bound_to 7965
  139.5222  144.7056  151.5365 LP  0  0  0  0  0  0  0  0  0  0  0  0  # atno 17342 bound_to 10162
  140.6398  143.8911  150.6681 LP  0  0  0  0  0  0  0  0  0  0  0  0  # atno 17343 bound_to 10162
  157.7318  131.0605  150.5660 LP  0  0  0  0  0  0  0  0  0  0  0  0  # atno 17370 bound_to 10713
  156.5768  130.4294  149.5995 LP  0  0  0  0  0  0  0  0  0  0  0  0  # atno 17371 bound_to 10713
  139.9721  134.7276  156.0022 LP  0  0  0  0  0  0  0  0  0  0  0  0  # atno 17394 bound_to 11000
  141.1442  133.6559  156.3818 LP  0  0  0  0  0  0  0  0  0  0  0  0  # atno 17395 bound_to 11000

$$$$
