AV-unprocessed.smi:3234|AV-procd|sdf|12356|dock9
  -GOLD-   2272018213D 1   1.00000     0.00000
 Structure written by MMmdl.
 37 39  0  0  0  0  0  0  0  0  4 V2000
  151.5865  140.3688  156.4586 O   0  0  0  0  0  0  0  0  0  0  0  0
  150.8378  141.2540  156.0289 C   0  0  0  0  0  0  0  0  0  0  0  0
  150.7369  142.4299  156.6740 N   0  0  0  0  0  0  0  0  0  0  0  0
  151.3570  142.8372  157.8854 C   0  0  0  0  0  0  0  0  0  0  0  0
  151.2855  144.2038  158.2344 C   0  0  0  0  0  0  0  0  0  0  0  0
  151.8689  144.6437  159.4400 C   0  0  0  0  0  0  0  0  0  0  0  0
  152.4771  143.7562  160.2560 N   0  3  0  0  0  0  0  0  0  0  0  0
  152.5536  142.4377  159.9737 C   0  0  0  0  0  0  0  0  0  0  0  0
  151.9893  141.9394  158.7820 C   0  0  0  0  0  0  0  0  0  0  0  0
  150.0685  141.2170  154.9073 N   0  5  0  0  0  0  0  0  0  0  0  0
  148.6628  140.8035  154.8703 C   0  0  2  0  0  0  0  0  0  0  0  0
  147.9577  141.3611  153.6189 C   0  0  0  0  0  0  0  0  0  0  0  0
  146.6360  141.9294  154.1322 C   0  0  0  0  0  0  0  0  0  0  0  0
  146.9411  142.3800  155.5004 N   0  3  1  0  0  0  0  0  0  0  0  0
  145.7506  142.6325  156.3394 C   0  0  0  0  0  0  0  0  0  0  0  0
  144.5763  141.7456  156.0021 C   0  0  0  0  0  0  0  0  0  0  0  0
  144.5801  143.1959  155.5698 C   0  0  0  0  0  0  0  0  0  0  0  0
  147.8884  141.3969  156.0626 C   0  0  0  0  0  0  0  0  0  0  0  0
  150.1964  143.1385  156.1999 H   0  0  0  0  0  0  0  0  0  0  0  0
  150.7948  144.9116  157.5818 H   0  0  0  0  0  0  0  0  0  0  0  0
  151.8646  145.6708  159.7741 H   0  0  0  0  0  0  0  0  0  0  0  0
  153.0541  141.8232  160.7075 H   0  0  0  0  0  0  0  0  0  0  0  0
  152.0377  140.8798  158.5805 H   0  0  0  0  0  0  0  0  0  0  0  0
  148.5481  139.7187  154.8962 H   0  0  0  0  0  0  0  0  0  0  0  0
  148.5363  142.1688  153.1666 H   0  0  0  0  0  0  0  0  0  0  0  0
  147.8100  140.5999  152.8522 H   0  0  0  0  0  0  0  0  0  0  0  0
  146.2685  142.7488  153.5137 H   0  0  0  0  0  0  0  0  0  0  0  0
  145.8650  141.1553  154.1556 H   0  0  0  0  0  0  0  0  0  0  0  0
  145.9360  142.9408  157.3671 H   0  0  0  0  0  0  0  0  0  0  0  0
  144.7062  140.9907  155.2284 H   0  0  0  0  0  0  0  0  0  0  0  0
  143.9063  141.4692  156.8137 H   0  0  0  0  0  0  0  0  0  0  0  0
  143.9124  143.8743  156.0969 H   0  0  0  0  0  0  0  0  0  0  0  0
  144.7138  143.4049  154.5099 H   0  0  0  0  0  0  0  0  0  0  0  0
  147.3319  140.6007  156.5601 H   0  0  0  0  0  0  0  0  0  0  0  0
  148.5272  141.8636  156.8142 H   0  0  0  0  0  0  0  0  0  0  0  0
  147.4533  143.2457  155.4098 H   0  0  0  0  0  0  0  0  0  0  0  0
  152.8909  144.0948  161.1250 H   0  0  0  0  0  0  0  0  0  0  0  0
  1  2  2  0  0  0  0
  2  3  1  0  0  0  0
  2 10  1  0  0  0  0
  3  4  1  0  0  0  0
  3 19  1  0  0  0  0
  4  9  1  0  0  0  0
  4  5  2  0  0  0  0
  5  6  1  0  0  0  0
  5 20  1  0  0  0  0
  6  7  2  0  0  0  0
  6 21  1  0  0  0  0
  7  8  1  0  0  0  0
  7 37  1  0  0  0  0
  8  9  2  0  0  0  0
  8 22  1  0  0  0  0
  9 23  1  0  0  0  0
 10 11  1  0  0  0  0
 11 18  1  0  0  0  0
 11 12  1  0  0  0  0
 11 24  1  0  0  0  0
 12 13  1  0  0  0  0
 12 25  1  0  0  0  0
 12 26  1  0  0  0  0
 13 14  1  0  0  0  0
 13 27  1  0  0  0  0
 13 28  1  0  0  0  0
 14 15  1  0  0  0  0
 14 18  1  0  0  0  0
 14 36  1  0  0  0  0
 15 17  1  0  0  0  0
 15 16  1  0  0  0  0
 15 29  1  0  0  0  0
 16 17  1  0  0  0  0
 16 30  1  0  0  0  0
 16 31  1  0  0  0  0
 17 32  1  0  0  0  0
 17 33  1  0  0  0  0
 18 34  1  0  0  0  0
 18 35  1  0  0  0  0
M  CHG  1   7   1
M  CHG  1  10  -1
M  CHG  1  14   1
M  END
> <s_m_source_file>
AV-unprocessed.smi

> <i_m_source_file_index>
3234

> <i_lp_mmshare_version>
43012

> <i_f3d_flags>
0

> <s_epik_input>
W2NIXTFbY0hdbltjSF1bY0hdYzFbTkhdQyg9TylbTkhdW0NAQEhdMltDSDJdW0NIMl1OKFtDSDJdMilbQ0hdM1tDSDJdW0NIMl0z

> <s_epik_cmdline>
J2VwaWtfcHl0aG9uJywgJy1waCcsICc3LjAnLCAnLXRuJywgJzgnLCAnLW1hJywgJzIwMCcsICctbWV0YWxfYmluZGluZycsICctaW1hZScsICc8aW5maWxlLm1hZT4nLCAnLW9tYWUnLCAnPG91dGZpbGUubWFlPic=

> <r_epik_Ionization_Penalty>
8.3234

> <r_epik_Ionization_Penalty_Charging>
8.3234

> <r_epik_Ionization_Penalty_Neutral>
3.58513e-06

> <r_epik_State_Penalty>
7.99376

> <r_epik_Charging_Adjusted_Penalty>
16.3172

> <i_epik_Tot_Q>
1

> <i_epik_Tot_abs_Q>
3

> <r_epik_Metal_State_Penalty>
3.98956

> <b_epik_Metal_Only>
1

> <s_lp_Force_Field>
OPLS_2005

> <r_lp_Energy>
40.8871

> <b_lp_Chiralities_Consistent>
1

> <s_lp_Variant>
AV-unprocessed.smi:3234-9

> <Gold.Version>
5.8.1

> <Gold.Id.Protein>
6NUR|6NUR_protein|mol2

> <Gold.PLP.Fitness>
46.0384

> <Gold.PLP.PLP>
-37.9946

> <Gold.PLP.part.hbond>
-3.0000

> <Gold.PLP.part.metal>
0.0000

> <Gold.PLP.part.buried>
-3.8408

> <Gold.PLP.part.nonpolar>
-30.6526

> <Gold.PLP.part.repulsive>
0.3040

> <Gold.PLP.ligand.clash>
0.0000

> <Gold.PLP.ligand.torsion>
1.6837

> <Gold.PLP.Chemscore.Hbond>
3.3814

> <Gold.PLP.Chemscore.CHOScore>
0.0000

> <Gold.PLP.Chemscore.Metal>
0.0000

> <Gold.Chemscore.Hbonds>
donor molecule, donor type, donor heavy atom, donor atom, acceptor molecule, acceptor atom, score
      L1  H     3    19       P1  8028  0.78
      L1  H    14    36       P1  8028  1.70
      P1  H  7989  7998       L1    10  0.40

> <Gold.PLP.Chemscore.Internal.Correction>
1.2671

> <Gold.Rescore>
     Score         DG    S(hbond)    S(metal)    S(lipo)     H(rot)  DE(clash)    DE(int)     intcor
     15.30     -18.38       1.62        0.00      90.62       1.21       0.08       3.00       ----

> <Gold.Chemscore.Fitness>
15.3027

> <Gold.Chemscore.DG>
-18.3814

> <Gold.Chemscore.ZeroCoef>
-5.4800

> <Gold.Chemscore.Hbond>
1.6165

> <Gold.Chemscore.Metal>
0.0000

> <Gold.Chemscore.Lipo>
90.6151

> <Gold.Chemscore.Internal_Hbond>
0.0000

> <Gold.Chemscore.DEClash>
0.0806

> <Gold.Chemscore.DEInternal>
2.9982

> <Gold.Chemscore.Rot>
1.2108

> <Gold.Chemscore.Internal.Correction>
   9.000000E+99

> <Gold.Chemscore.Hbonds>
donor molecule, donor type, donor heavy atom, donor atom, acceptor molecule, acceptor atom, score
      L1  H     3    19       P1  8028  0.77
      L1  H    14    36       P1  8028  0.14
      P1  H  7989  7998       L1    10  0.08

> <Gold.Chemscore.Hbond.Weighted>
-5.3990

> <Gold.Chemscore.Metal.Weighted>
-0.0000

> <Gold.Chemscore.Lipo.Weighted>
-10.6020

> <Gold.Chemscore.Internal_Hbond.Weighted>
0.0000

> <Gold.Chemscore.DEClash.Weighted>
0.0806

> <Gold.Chemscore.DEInternal.Weighted>
2.9982

> <Gold.Chemscore.Rot.Weighted>
3.0996

> <Gold.Chemscore.Internal.Correction.Weighted>
   9.000000E+99

> <Gold.Protein.RotatedTorsions>
[ 6907 6896 6895 6894 ] final  -47.94 input  -60.11 | X-H torsion
[ 7974 7965 7964 7962 ] final  168.94 input  175.53 | X-H torsion
[ 8008 7997 7996 7995 ] final   61.93 input   59.86 | X-H torsion
[ 10167 10162 10161 10158 ] final  171.97 input  -65.29 | X-H torsion
[ 10718 10713 10712 10709 ] final    6.72 input   66.30 | X-H torsion
[ 10763 10752 10751 10750 ] final   33.44 input  -60.55 | X-H torsion
[ 11005 11000 10999 10996 ] final -165.31 input  -57.11 | X-H torsion

> <Gold.Protein.ActiveResidues>
 VAL166  LYS551  ARG553  GLY616  TRP617  ASP618  TYR619  PRO620  LYS621  CYS622 
 ASP623  PHE694  ASN695  SER759  ASP760  ASP761  ALA762  ILE779  LEU786  VAL792 
 PHE793  MET794  SER795  GLU796  ALA797  LYS798  CYS799  TRP800  GLU811  SER814 

> <Gold.Protein.RotatedAtoms>
  150.8956  134.8364  159.7324 H   0  0  0  0  0  0  0  0  0  0  0  0  # atno 6907 bound_to 6896
  152.4863  134.4580  159.9606 H   0  0  0  0  0  0  0  0  0  0  0  0  # atno 6908 bound_to 6896
  151.4638  133.3547  159.2848 H   0  0  0  0  0  0  0  0  0  0  0  0  # atno 6909 bound_to 6896
  144.7371  139.8981  143.6407 H   0  0  0  0  0  0  0  0  0  0  0  0  # atno 7974 bound_to 7965
  155.6063  140.3494  155.4609 H   0  0  0  0  0  0  0  0  0  0  0  0  # atno 8008 bound_to 7997
  156.0189  140.1249  157.0402 H   0  0  0  0  0  0  0  0  0  0  0  0  # atno 8009 bound_to 7997
  154.4308  140.1066  156.5921 H   0  0  0  0  0  0  0  0  0  0  0  0  # atno 8010 bound_to 7997
  139.5062  144.3426  152.0003 H   0  0  0  0  0  0  0  0  0  0  0  0  # atno 10167 bound_to 10162
  156.9264  130.5809  149.5648 H   0  0  0  0  0  0  0  0  0  0  0  0  # atno 10718 bound_to 10713
  153.0212  135.6387  154.1512 H   0  0  0  0  0  0  0  0  0  0  0  0  # atno 10763 bound_to 10752
  154.1246  135.2844  155.3201 H   0  0  0  0  0  0  0  0  0  0  0  0  # atno 10764 bound_to 10752
  154.6238  135.5516  153.7667 H   0  0  0  0  0  0  0  0  0  0  0  0  # atno 10765 bound_to 10752
  140.5771  134.5179  157.5172 H   0  0  0  0  0  0  0  0  0  0  0  0  # atno 11005 bound_to 11000
  146.1092  139.4095  143.0298 LP  0  0  0  0  0  0  0  0  0  0  0  0  # atno 17320 bound_to 7965
  145.7468  140.9988  143.1272 LP  0  0  0  0  0  0  0  0  0  0  0  0  # atno 17321 bound_to 7965
  140.2863  144.3803  150.6102 LP  0  0  0  0  0  0  0  0  0  0  0  0  # atno 17342 bound_to 10162
  140.5980  143.2167  151.7127 LP  0  0  0  0  0  0  0  0  0  0  0  0  # atno 17343 bound_to 10162
  156.0467  130.5543  150.8897 LP  0  0  0  0  0  0  0  0  0  0  0  0  # atno 17370 bound_to 10713
  157.5875  131.0945  150.9172 LP  0  0  0  0  0  0  0  0  0  0  0  0  # atno 17371 bound_to 10713
  139.9334  134.7920  156.0868 LP  0  0  0  0  0  0  0  0  0  0  0  0  # atno 17394 bound_to 11000
  141.1019  133.6674  156.2775 LP  0  0  0  0  0  0  0  0  0  0  0  0  # atno 17395 bound_to 11000

$$$$
