AV-unprocessed.smi:820|AV-procd|sdf|3837|dock8
  -GOLD-   22720 1283D 1   1.00000     0.00000
 Structure written by MMmdl.
 31 32  0  0  0  0  0  0  0  0  2 V2000
  152.7627  143.2171  162.0857 C   0  0  0  0  0  0  0  0  0  0  0  0
  152.4623  142.9778  160.6036 C   0  0  0  0  0  0  0  0  0  0  0  0
  153.2450  141.4532  160.0038 S   0  0  0  0  0  0  0  0  0  0  0  0
  152.4805  141.0369  158.4646 C   0  0  0  0  0  0  0  0  0  0  0  0
  151.4793  141.8631  157.9225 C   0  0  0  0  0  0  0  0  0  0  0  0
  150.9031  141.4856  156.6950 C   0  0  0  0  0  0  0  0  0  0  0  0
  151.3397  140.3079  156.0474 C   0  0  0  0  0  0  0  0  0  0  0  0
  150.8081  139.9122  154.8799 N   0  5  0  0  0  0  0  0  0  0  0  0
  149.6580  139.1907  154.8524 C   0  0  0  0  0  0  0  0  0  0  0  0
  148.5417  139.6785  154.6522 O   0  0  0  0  0  0  0  0  0  0  0  0
  149.8086  137.7562  155.0833 C   0  0  0  0  0  0  0  0  0  0  0  0
  151.0246  137.1718  154.9619 C   0  0  0  0  0  0  0  0  0  0  0  0
  151.2445  135.8261  155.1209 O   0  0  0  0  0  0  0  0  0  0  0  0
  150.0637  135.0351  155.1729 C   0  0  0  0  0  0  0  0  0  0  0  0
  148.9870  135.7392  156.0106 C   0  0  0  0  0  0  0  0  0  0  0  0
  148.7062  137.0235  155.4667 O   0  0  0  0  0  0  0  0  0  0  0  0
  152.3504  139.5593  156.6956 C   0  0  0  0  0  0  0  0  0  0  0  0
  152.9147  139.9052  157.8728 N   0  0  0  0  0  0  0  0  0  0  0  0
  152.2895  144.1352  162.4341 H   0  0  0  0  0  0  0  0  0  0  0  0
  153.8352  143.3075  162.2597 H   0  0  0  0  0  0  0  0  0  0  0  0
  152.3903  142.3964  162.6992 H   0  0  0  0  0  0  0  0  0  0  0  0
  151.3853  142.9088  160.4488 H   0  0  0  0  0  0  0  0  0  0  0  0
  152.8217  143.8192  160.0107 H   0  0  0  0  0  0  0  0  0  0  0  0
  151.1599  142.7608  158.4303 H   0  0  0  0  0  0  0  0  0  0  0  0
  150.1313  142.0989  156.2530 H   0  0  0  0  0  0  0  0  0  0  0  0
  151.9332  137.6891  154.6892 H   0  0  0  0  0  0  0  0  0  0  0  0
  149.7028  134.8615  154.1583 H   0  0  0  0  0  0  0  0  0  0  0  0
  150.3040  134.0612  155.5996 H   0  0  0  0  0  0  0  0  0  0  0  0
  148.0699  135.1505  156.0268 H   0  0  0  0  0  0  0  0  0  0  0  0
  149.3175  135.8499  157.0443 H   0  0  0  0  0  0  0  0  0  0  0  0
  152.7224  138.6473  156.2516 H   0  0  0  0  0  0  0  0  0  0  0  0
  1  2  1  0  0  0  0
  1 19  1  0  0  0  0
  1 20  1  0  0  0  0
  1 21  1  0  0  0  0
  2  3  1  0  0  0  0
  2 22  1  0  0  0  0
  2 23  1  0  0  0  0
  3  4  1  0  0  0  0
  4 18  1  0  0  0  0
  4  5  2  0  0  0  0
  5  6  1  0  0  0  0
  5 24  1  0  0  0  0
  6  7  2  0  0  0  0
  6 25  1  0  0  0  0
  7  8  1  0  0  0  0
  7 17  1  0  0  0  0
  8  9  1  0  0  0  0
  9 10  2  0  0  0  0
  9 11  1  0  0  0  0
 11 16  1  0  0  0  0
 11 12  2  0  0  0  0
 12 13  1  0  0  0  0
 12 26  1  0  0  0  0
 13 14  1  0  0  0  0
 14 15  1  0  0  0  0
 14 27  1  0  0  0  0
 14 28  1  0  0  0  0
 15 16  1  0  0  0  0
 15 29  1  0  0  0  0
 15 30  1  0  0  0  0
 17 18  2  0  0  0  0
 17 31  1  0  0  0  0
M  CHG  1   8  -1
M  END
> <s_m_source_file>
AV-unprocessed.smi

> <i_m_source_file_index>
820

> <i_lp_mmshare_version>
43012

> <i_f3d_flags>
0

> <s_epik_input>
W0NIM11bQ0gyXVNjMVtjSF1bY0hdYyhbY0hdbjEpW05IXUMoPU8pQzI9W0NIXU9bQ0gyXVtDSDJdTzI=

> <s_epik_cmdline>
J2VwaWtfcHl0aG9uJywgJy1waCcsICc3LjAnLCAnLXRuJywgJzgnLCAnLW1hJywgJzIwMCcsICctbWV0YWxfYmluZGluZycsICctaW1hZScsICc8aW5maWxlLm1hZT4nLCAnLW9tYWUnLCAnPG91dGZpbGUubWFlPic=

> <r_lp_tautomer_probability>
1

> <r_epik_Ionization_Penalty>
5.63505

> <r_epik_Ionization_Penalty_Charging>
5.63079

> <r_epik_Ionization_Penalty_Neutral>
0.00426194

> <r_epik_State_Penalty>
5.63074

> <r_epik_Charging_Adjusted_Penalty>
11.2615

> <i_epik_Tot_Q>
-1

> <i_epik_Tot_abs_Q>
1

> <r_epik_Metal_State_Penalty>
1.62037

> <b_epik_Metal_Only>
1

> <s_lp_Force_Field>
OPLS_2005

> <r_lp_Energy>
4.11082

> <b_lp_Chiralities_Consistent>
1

> <s_lp_Variant>
AV-unprocessed.smi:820-2

> <Gold.Version>
5.8.1

> <Gold.Id.Protein>
6NUR|6NUR_protein|mol2

> <Gold.PLP.Fitness>
40.7293

> <Gold.PLP.PLP>
-34.5269

> <Gold.PLP.part.hbond>
-3.0000

> <Gold.PLP.part.metal>
0.0000

> <Gold.PLP.part.buried>
-4.2869

> <Gold.PLP.part.nonpolar>
-28.0001

> <Gold.PLP.part.repulsive>
0.4395

> <Gold.PLP.ligand.clash>
0.0000

> <Gold.PLP.ligand.torsion>
1.6859

> <Gold.PLP.Chemscore.Hbond>
3.0000

> <Gold.PLP.Chemscore.CHOScore>
0.0000

> <Gold.PLP.Chemscore.Metal>
0.0000

> <Gold.Chemscore.Hbonds>
donor molecule, donor type, donor heavy atom, donor atom, acceptor molecule, acceptor atom, score
      P1  H  7989  7998       L1     8  1.00
      P1  H  7997  8009       L1    18  0.45
      P1  H 10752 10765       L1    13  0.86

> <Gold.PLP.Chemscore.Internal.Correction>
0.5742

> <Gold.Rescore>
     Score         DG    S(hbond)    S(metal)    S(lipo)     H(rot)  DE(clash)    DE(int)     intcor
     17.75     -19.42       1.82        0.00      91.95       1.13       0.04       1.63       ----

> <Gold.Chemscore.Fitness>
17.7471

> <Gold.Chemscore.DG>
-19.4233

> <Gold.Chemscore.ZeroCoef>
-5.4800

> <Gold.Chemscore.Hbond>
1.8179

> <Gold.Chemscore.Metal>
0.0000

> <Gold.Chemscore.Lipo>
91.9541

> <Gold.Chemscore.Internal_Hbond>
0.0000

> <Gold.Chemscore.DEClash>
0.0424

> <Gold.Chemscore.DEInternal>
1.6338

> <Gold.Chemscore.Rot>
1.1277

> <Gold.Chemscore.Internal.Correction>
   9.000000E+99

> <Gold.Chemscore.Hbonds>
donor molecule, donor type, donor heavy atom, donor atom, acceptor molecule, acceptor atom, score
      P1  H  7989  7998       L1     8  0.65
      P1  H  7997  8009       L1    18  0.01
      P1  H 10752 10765       L1    13  0.26

> <Gold.Chemscore.Hbond.Weighted>
-6.0716

> <Gold.Chemscore.Metal.Weighted>
-0.0000

> <Gold.Chemscore.Lipo.Weighted>
-10.7586

> <Gold.Chemscore.Internal_Hbond.Weighted>
0.0000

> <Gold.Chemscore.DEClash.Weighted>
0.0424

> <Gold.Chemscore.DEInternal.Weighted>
1.6338

> <Gold.Chemscore.Rot.Weighted>
2.8870

> <Gold.Chemscore.Internal.Correction.Weighted>
   9.000000E+99

> <Gold.Protein.RotatedTorsions>
[ 6907 6896 6895 6894 ] final  -87.76 input  -60.11 | X-H torsion
[ 7974 7965 7964 7962 ] final  104.50 input  175.53 | X-H torsion
[ 8008 7997 7996 7995 ] final  155.34 input   59.86 | X-H torsion
[ 10167 10162 10161 10158 ] final    4.09 input  -65.29 | X-H torsion
[ 10718 10713 10712 10709 ] final  -16.68 input   66.30 | X-H torsion
[ 10763 10752 10751 10750 ] final  160.69 input  -60.55 | X-H torsion
[ 11005 11000 10999 10996 ] final   61.09 input  -57.11 | X-H torsion

> <Gold.Protein.ActiveResidues>
 VAL166  LYS551  ARG553  GLY616  TRP617  ASP618  TYR619  PRO620  LYS621  CYS622 
 ASP623  PHE694  ASN695  SER759  ASP760  ASP761  ALA762  ILE779  LEU786  VAL792 
 PHE793  MET794  SER795  GLU796  ALA797  LYS798  CYS799  TRP800  GLU811  SER814 

> <Gold.Protein.RotatedAtoms>
  150.6867  134.2846  159.4641 H   0  0  0  0  0  0  0  0  0  0  0  0  # atno 6907 bound_to 6896
  152.0757  134.9502  160.0583 H   0  0  0  0  0  0  0  0  0  0  0  0  # atno 6908 bound_to 6896
  152.0874  133.4148  159.4565 H   0  0  0  0  0  0  0  0  0  0  0  0  # atno 6909 bound_to 6896
  145.3319  139.2484  143.3656 H   0  0  0  0  0  0  0  0  0  0  0  0  # atno 7974 bound_to 7965
  156.2483  140.1942  156.6786 H   0  0  0  0  0  0  0  0  0  0  0  0  # atno 8008 bound_to 7997
  154.6339  140.0592  156.9791 H   0  0  0  0  0  0  0  0  0  0  0  0  # atno 8009 bound_to 7997
  155.1668  140.3264  155.4403 H   0  0  0  0  0  0  0  0  0  0  0  0  # atno 8010 bound_to 7997
  140.6552  143.7444  150.7642 H   0  0  0  0  0  0  0  0  0  0  0  0  # atno 10167 bound_to 10162
  156.5842  130.4782  149.6307 H   0  0  0  0  0  0  0  0  0  0  0  0  # atno 10718 bound_to 10713
  154.2513  135.2771  155.2815 H   0  0  0  0  0  0  0  0  0  0  0  0  # atno 10763 bound_to 10752
  154.5462  135.5688  153.6886 H   0  0  0  0  0  0  0  0  0  0  0  0  # atno 10764 bound_to 10752
  152.9980  135.6263  154.2660 H   0  0  0  0  0  0  0  0  0  0  0  0  # atno 10765 bound_to 10752
  140.0186  134.6188  155.9673 H   0  0  0  0  0  0  0  0  0  0  0  0  # atno 11005 bound_to 11000
  146.3042  140.3899  142.8693 LP  0  0  0  0  0  0  0  0  0  0  0  0  # atno 17320 bound_to 7965
  144.8857  140.7459  143.5958 LP  0  0  0  0  0  0  0  0  0  0  0  0  # atno 17321 bound_to 7965
  140.1103  143.4706  152.2374 LP  0  0  0  0  0  0  0  0  0  0  0  0  # atno 17342 bound_to 10162
  139.5774  144.7494  151.3730 LP  0  0  0  0  0  0  0  0  0  0  0  0  # atno 17343 bound_to 10162
  156.2605  130.6959  151.1726 LP  0  0  0  0  0  0  0  0  0  0  0  0  # atno 17370 bound_to 10713
  157.7319  131.0604  150.5654 LP  0  0  0  0  0  0  0  0  0  0  0  0  # atno 17371 bound_to 10713
  141.1759  133.6540  156.4826 LP  0  0  0  0  0  0  0  0  0  0  0  0  # atno 17394 bound_to 11000
  140.4427  134.7000  157.5000 LP  0  0  0  0  0  0  0  0  0  0  0  0  # atno 17395 bound_to 11000

$$$$
