AV-unprocessed.smi:2951|AV-procd|sdf|11290|dock8
  -GOLD-   2272016183D 1   1.00000     0.00000
 Structure written by MMmdl.
 17 17  0  0  0  0  0  0  0  0  1 V2000
  149.9869  135.9017  154.1762 N   0  0  0  0  0  0  0  0  0  0  0  0
  151.0441  136.5138  154.7170 C   0  0  0  0  0  0  0  0  0  0  0  0
  151.6418  136.0576  155.6895 O   0  0  0  0  0  0  0  0  0  0  0  0
  151.4970  137.8258  154.0740 C   0  0  0  0  0  0  0  0  0  0  0  0
  150.4847  138.9047  154.3283 C   0  0  0  0  0  0  0  0  0  0  0  0
  149.1425  138.8606  154.0355 C   0  0  0  0  0  0  0  0  0  0  0  0
  148.3239  140.3291  154.4955 S   0  0  0  0  0  0  0  0  0  0  0  0
  149.8589  140.9521  155.0802 C   0  0  0  0  0  0  0  0  0  0  0  0
  149.9633  142.2137  155.6397 N   0  0  0  0  0  0  0  0  0  0  0  0
  150.8786  140.1059  154.9299 N   0  0  0  0  0  0  0  0  0  0  0  0
  149.6507  135.0368  154.5742 H   0  0  0  0  0  0  0  0  0  0  0  0
  149.5232  136.3084  153.3764 H   0  0  0  0  0  0  0  0  0  0  0  0
  152.4669  138.1083  154.4855 H   0  0  0  0  0  0  0  0  0  0  0  0
  151.6508  137.6762  153.0044 H   0  0  0  0  0  0  0  0  0  0  0  0
  148.5893  138.0560  153.5739 H   0  0  0  0  0  0  0  0  0  0  0  0
  149.1581  142.8166  155.7292 H   0  0  0  0  0  0  0  0  0  0  0  0
  150.8259  142.5351  156.0547 H   0  0  0  0  0  0  0  0  0  0  0  0
  1  2  1  0  0  0  0
  1 11  1  0  0  0  0
  1 12  1  0  0  0  0
  2  3  2  0  0  0  0
  2  4  1  0  0  0  0
  4  5  1  0  0  0  0
  4 13  1  0  0  0  0
  4 14  1  0  0  0  0
  5 10  1  0  0  0  0
  5  6  2  0  0  0  0
  6  7  1  0  0  0  0
  6 15  1  0  0  0  0
  7  8  1  0  0  0  0
  8  9  1  0  0  0  0
  8 10  2  0  0  0  0
  9 16  1  0  0  0  0
  9 17  1  0  0  0  0
M  END
> <s_m_source_file>
AV-unprocessed.smi

> <i_m_source_file_index>
2951

> <i_lp_mmshare_version>
43012

> <i_f3d_flags>
0

> <s_epik_input>
W05IMl1DKD1PKVtDSDJdYzFbY0hdc2MobjEpW05IMl0=

> <s_epik_cmdline>
J2VwaWtfcHl0aG9uJywgJy1waCcsICc3LjAnLCAnLXRuJywgJzgnLCAnLW1hJywgJzIwMCcsICctbWV0YWxfYmluZGluZycsICctaW1hZScsICc8aW5maWxlLm1hZT4nLCAnLW9tYWUnLCAnPG91dGZpbGUubWFlPic=

> <r_lp_tautomer_probability>
1

> <r_epik_Ionization_Penalty>
0.00145479

> <r_epik_Ionization_Penalty_Charging>
0

> <r_epik_Ionization_Penalty_Neutral>
0.00145479

> <r_epik_State_Penalty>
-0

> <r_epik_Charging_Adjusted_Penalty>
0

> <i_epik_Tot_Q>
0

> <i_epik_Tot_abs_Q>
0

> <r_epik_Metal_State_Penalty>
-0

> <b_epik_Metal_Only>
0

> <s_lp_Force_Field>
OPLS_2005

> <r_lp_Energy>
-0.412786

> <b_lp_Chiralities_Consistent>
1

> <s_lp_Variant>
AV-unprocessed.smi:2951-1

> <Gold.Version>
5.8.1

> <Gold.Id.Protein>
6NUR|6NUR_protein|mol2

> <Gold.PLP.Fitness>
31.0741

> <Gold.PLP.PLP>
-17.9551

> <Gold.PLP.part.hbond>
-5.0000

> <Gold.PLP.part.metal>
0.0000

> <Gold.PLP.part.buried>
1.1216

> <Gold.PLP.part.nonpolar>
-13.8488

> <Gold.PLP.part.repulsive>
0.3173

> <Gold.PLP.ligand.clash>
0.0000

> <Gold.PLP.ligand.torsion>
0.1091

> <Gold.PLP.Chemscore.Hbond>
3.5350

> <Gold.PLP.Chemscore.CHOScore>
0.9106

> <Gold.PLP.Chemscore.Metal>
0.0000

> <Gold.Chemscore.Hbonds>
donor molecule, donor type, donor heavy atom, donor atom, acceptor molecule, acceptor atom, score
      L1  H     1    12       P1  7948  1.00
      L1  H     9    16       P1  8028  0.69
      P1  H  7989  7998       L1    10  0.81
      P1  H 10752 10764       L1     3  1.00
      L1  C     6    15       P1  7948  1.00

> <Gold.PLP.Chemscore.Internal.Correction>
0.0001

> <Gold.Rescore>
     Score         DG    S(hbond)    S(metal)    S(lipo)     H(rot)  DE(clash)    DE(int)     intcor
     12.59     -12.90       2.47        0.00      28.98       1.65       0.19       0.11       ----

> <Gold.Chemscore.Fitness>
12.5934

> <Gold.Chemscore.DG>
-12.8952

> <Gold.Chemscore.ZeroCoef>
-5.4800

> <Gold.Chemscore.Hbond>
2.4690

> <Gold.Chemscore.Metal>
0.0000

> <Gold.Chemscore.Lipo>
28.9827

> <Gold.Chemscore.Internal_Hbond>
0.0000

> <Gold.Chemscore.DEClash>
0.1911

> <Gold.Chemscore.DEInternal>
0.1107

> <Gold.Chemscore.Rot>
1.6493

> <Gold.Chemscore.Internal.Correction>
   9.000000E+99

> <Gold.Chemscore.Hbonds>
donor molecule, donor type, donor heavy atom, donor atom, acceptor molecule, acceptor atom, score
      L1  H     1    12       P1  7948  0.47
      L1  H     9    16       P1  8028  0.70
      P1  H  7989  7998       L1    10  0.03
      P1  H 10752 10764       L1     3  0.45

> <Gold.Chemscore.Hbond.Weighted>
-8.2464

> <Gold.Chemscore.Metal.Weighted>
-0.0000

> <Gold.Chemscore.Lipo.Weighted>
-3.3910

> <Gold.Chemscore.Internal_Hbond.Weighted>
0.0000

> <Gold.Chemscore.DEClash.Weighted>
0.1911

> <Gold.Chemscore.DEInternal.Weighted>
0.1107

> <Gold.Chemscore.Rot.Weighted>
4.2222

> <Gold.Chemscore.Internal.Correction.Weighted>
   9.000000E+99

> <Gold.Protein.RotatedTorsions>
[ 6907 6896 6895 6894 ] final    4.49 input  -60.11 | X-H torsion
[ 7974 7965 7964 7962 ] final  156.60 input  175.53 | X-H torsion
[ 8008 7997 7996 7995 ] final -134.52 input   59.86 | X-H torsion
[ 10167 10162 10161 10158 ] final  -34.90 input  -65.29 | X-H torsion
[ 10718 10713 10712 10709 ] final -132.66 input   66.30 | X-H torsion
[ 10763 10752 10751 10750 ] final  -29.46 input  -60.55 | X-H torsion
[ 11005 11000 10999 10996 ] final   51.52 input  -57.11 | X-H torsion

> <Gold.Protein.ActiveResidues>
 VAL166  LYS551  ARG553  GLY616  TRP617  ASP618  TYR619  PRO620  LYS621  CYS622 
 ASP623  PHE694  ASN695  SER759  ASP760  ASP761  ALA762  ILE779  LEU786  VAL792 
 PHE793  MET794  SER795  GLU796  ALA797  LYS798  CYS799  TRP800  GLU811  SER814 

> <Gold.Protein.RotatedAtoms>
  151.6421  135.1011  160.0143 H   0  0  0  0  0  0  0  0  0  0  0  0  # atno 6907 bound_to 6896
  152.4048  133.6868  159.6355 H   0  0  0  0  0  0  0  0  0  0  0  0  # atno 6908 bound_to 6896
  150.7944  133.8645  159.3282 H   0  0  0  0  0  0  0  0  0  0  0  0  # atno 6909 bound_to 6896
  144.7953  139.7226  143.6204 H   0  0  0  0  0  0  0  0  0  0  0  0  # atno 7974 bound_to 7965
  155.3634  140.0484  157.3046 H   0  0  0  0  0  0  0  0  0  0  0  0  # atno 8008 bound_to 7997
  154.5166  140.2210  155.9017 H   0  0  0  0  0  0  0  0  0  0  0  0  # atno 8009 bound_to 7997
  156.1644  140.3109  155.8868 H   0  0  0  0  0  0  0  0  0  0  0  0  # atno 8010 bound_to 7997
  140.7176  143.3515  151.2146 H   0  0  0  0  0  0  0  0  0  0  0  0  # atno 10167 bound_to 10162
  156.2368  130.7071  151.0916 H   0  0  0  0  0  0  0  0  0  0  0  0  # atno 10718 bound_to 10713
  153.7650  135.6916  153.4918 H   0  0  0  0  0  0  0  0  0  0  0  0  # atno 10763 bound_to 10752
  153.1913  135.4470  155.0151 H   0  0  0  0  0  0  0  0  0  0  0  0  # atno 10764 bound_to 10752
  154.8139  135.3390  154.7163 H   0  0  0  0  0  0  0  0  0  0  0  0  # atno 10765 bound_to 10752
  140.0926  134.5189  155.8838 H   0  0  0  0  0  0  0  0  0  0  0  0  # atno 11005 bound_to 11000
  146.2219  139.5651  142.9613 LP  0  0  0  0  0  0  0  0  0  0  0  0  # atno 17320 bound_to 7965
  145.5689  141.0396  143.2185 LP  0  0  0  0  0  0  0  0  0  0  0  0  # atno 17321 bound_to 7965
  139.7047  143.9475  152.2921 LP  0  0  0  0  0  0  0  0  0  0  0  0  # atno 17342 bound_to 10162
  139.9180  144.6817  150.8492 LP  0  0  0  0  0  0  0  0  0  0  0  0  # atno 17343 bound_to 10162
  157.7158  131.0710  150.6332 LP  0  0  0  0  0  0  0  0  0  0  0  0  # atno 17370 bound_to 10713
  156.6403  130.4456  149.5755 LP  0  0  0  0  0  0  0  0  0  0  0  0  # atno 17371 bound_to 10713
  141.2082  133.6671  156.6357 LP  0  0  0  0  0  0  0  0  0  0  0  0  # atno 17394 bound_to 11000
  140.3331  134.7912  157.4341 LP  0  0  0  0  0  0  0  0  0  0  0  0  # atno 17395 bound_to 11000

$$$$
