AV-unprocessed.smi:1652|AV-procd|sdf|6640|dock3
  -GOLD-   22720 7343D 1   1.00000     0.00000
 Structure written by MMmdl.
 38 40  0  0  0  0  0  0  0  0  1 V2000
  153.2629  139.3330  158.3587 O   0  0  0  0  0  0  0  0  0  0  0  0
  152.9221  140.4145  158.8400 C   0  0  0  0  0  0  0  0  0  0  0  0
  153.5754  141.0262  160.0073 C   0  0  0  0  0  0  0  0  0  0  0  0
  154.7247  140.2666  160.6643 C   0  0  0  0  0  0  0  0  0  0  0  0
  155.8917  140.5303  160.0744 F   0  0  0  0  0  0  0  0  0  0  0  0
  154.8341  140.5996  161.9510 F   0  0  0  0  0  0  0  0  0  0  0  0
  154.5178  138.9513  160.5902 F   0  0  0  0  0  0  0  0  0  0  0  0
  153.1475  142.2246  160.4744 C   0  0  0  0  0  0  0  0  0  0  0  0
  152.0501  142.9135  159.8251 C   0  0  0  0  0  0  0  0  0  0  0  0
  151.5376  144.2504  160.2789 C   0  0  0  0  0  0  0  0  0  0  0  0
  150.4702  144.9931  159.5099 C   0  0  0  0  0  0  0  0  0  0  0  0
  151.8810  145.5327  159.5556 C   0  0  0  0  0  0  0  0  0  0  0  0
  151.4735  142.3706  158.8061 N   0  0  0  0  0  0  0  0  0  0  0  0
  151.8907  141.1461  158.3236 N   0  0  0  0  0  0  0  0  0  0  0  0
  151.1237  140.6723  157.1641 C   0  0  0  0  0  0  0  0  0  0  0  0
  150.0502  141.6872  156.7131 C   0  0  1  0  0  0  0  0  0  0  0  0
  150.6928  142.8851  156.3216 O   0  0  0  0  0  0  0  0  0  0  0  0
  149.2002  141.1158  155.5877 C   0  0  0  0  0  0  0  0  0  0  0  0
  148.2091  141.9017  154.9580 C   0  0  0  0  0  0  0  0  0  0  0  0
  147.4332  141.3630  153.9128 C   0  0  0  0  0  0  0  0  0  0  0  0
  147.6461  140.0377  153.4879 C   0  0  0  0  0  0  0  0  0  0  0  0
  146.9003  139.5196  152.4835 F   0  0  0  0  0  0  0  0  0  0  0  0
  148.6368  139.2518  154.1073 C   0  0  0  0  0  0  0  0  0  0  0  0
  149.4124  139.7898  155.1528 C   0  0  0  0  0  0  0  0  0  0  0  0
  153.6108  142.6873  161.3329 H   0  0  0  0  0  0  0  0  0  0  0  0
  151.4887  144.2956  161.3654 H   0  0  0  0  0  0  0  0  0  0  0  0
  150.1282  144.5656  158.5689 H   0  0  0  0  0  0  0  0  0  0  0  0
  149.7115  145.5194  160.0856 H   0  0  0  0  0  0  0  0  0  0  0  0
  152.0605  146.4181  160.1619 H   0  0  0  0  0  0  0  0  0  0  0  0
  152.4660  145.4697  158.6398 H   0  0  0  0  0  0  0  0  0  0  0  0
  151.7818  140.4189  156.3302 H   0  0  0  0  0  0  0  0  0  0  0  0
  150.6424  139.7311  157.4373 H   0  0  0  0  0  0  0  0  0  0  0  0
  149.3878  141.9314  157.5444 H   0  0  0  0  0  0  0  0  0  0  0  0
  150.0694  143.4190  155.8531 H   0  0  0  0  0  0  0  0  0  0  0  0
  148.0410  142.9213  155.2731 H   0  0  0  0  0  0  0  0  0  0  0  0
  146.6756  141.9675  153.4363 H   0  0  0  0  0  0  0  0  0  0  0  0
  148.8027  138.2360  153.7800 H   0  0  0  0  0  0  0  0  0  0  0  0
  150.1723  139.1799  155.6190 H   0  0  0  0  0  0  0  0  0  0  0  0
  1  2  2  0  0  0  0
  2 14  1  0  0  0  0
  2  3  1  0  0  0  0
  3  4  1  0  0  0  0
  3  8  2  0  0  0  0
  4  5  1  0  0  0  0
  4  6  1  0  0  0  0
  4  7  1  0  0  0  0
  8  9  1  0  0  0  0
  8 25  1  0  0  0  0
  9 10  1  0  0  0  0
  9 13  2  0  0  0  0
 10 12  1  0  0  0  0
 10 11  1  0  0  0  0
 10 26  1  0  0  0  0
 11 12  1  0  0  0  0
 11 27  1  0  0  0  0
 11 28  1  0  0  0  0
 12 29  1  0  0  0  0
 12 30  1  0  0  0  0
 13 14  1  0  0  0  0
 14 15  1  0  0  0  0
 15 16  1  0  0  0  0
 15 31  1  0  0  0  0
 15 32  1  0  0  0  0
 16 17  1  0  0  0  0
 16 18  1  0  0  0  0
 16 33  1  0  0  0  0
 17 34  1  0  0  0  0
 18 24  1  0  0  0  0
 18 19  2  0  0  0  0
 19 20  1  0  0  0  0
 19 35  1  0  0  0  0
 20 21  2  0  0  0  0
 20 36  1  0  0  0  0
 21 22  1  0  0  0  0
 21 23  1  0  0  0  0
 23 24  2  0  0  0  0
 23 37  1  0  0  0  0
 24 38  1  0  0  0  0
M  END
> <s_m_source_file>
AV-unprocessed.smi

> <i_m_source_file_index>
1652

> <i_lp_mmshare_version>
43012

> <i_f3d_flags>
0

> <s_epik_input>
Tz1jMWMoQyhGKShGKUYpW2NIXWMoW0NIXTJbQ0gyXVtDSDJdMilubjFbQ0gyXVtDQEhdKFtPSF0pYzNbY0hdW2NIXWMoRilbY0hdW2NIXTM=

> <s_epik_cmdline>
J2VwaWtfcHl0aG9uJywgJy1waCcsICc3LjAnLCAnLXRuJywgJzgnLCAnLW1hJywgJzIwMCcsICctbWV0YWxfYmluZGluZycsICctaW1hZScsICc8aW5maWxlLm1hZT4nLCAnLW9tYWUnLCAnPG91dGZpbGUubWFlPic=

> <r_lp_tautomer_probability>
1

> <r_epik_Ionization_Penalty>
9.17026e-08

> <r_epik_Ionization_Penalty_Charging>
9.677e-10

> <r_epik_Ionization_Penalty_Neutral>
9.07349e-08

> <r_epik_State_Penalty>
-0

> <r_epik_Charging_Adjusted_Penalty>
9.677e-10

> <i_epik_Tot_Q>
0

> <i_epik_Tot_abs_Q>
0

> <r_epik_Metal_State_Penalty>
-0

> <b_epik_Metal_Only>
0

> <s_lp_Force_Field>
OPLS_2005

> <r_lp_Energy>
33.8456

> <b_lp_Chiralities_Consistent>
1

> <s_lp_Variant>
AV-unprocessed.smi:1652-2

> <Gold.Version>
5.8.1

> <Gold.Id.Protein>
6NUR|6NUR_protein|mol2

> <Gold.PLP.Fitness>
55.6146

> <Gold.PLP.PLP>
-51.9862

> <Gold.PLP.part.hbond>
-2.0000

> <Gold.PLP.part.metal>
0.0000

> <Gold.PLP.part.buried>
-1.2531

> <Gold.PLP.part.nonpolar>
-49.0876

> <Gold.PLP.part.repulsive>
0.0147

> <Gold.PLP.ligand.clash>
0.0000

> <Gold.PLP.ligand.torsion>
1.3895

> <Gold.PLP.Chemscore.Hbond>
1.9000

> <Gold.PLP.Chemscore.CHOScore>
0.0000

> <Gold.PLP.Chemscore.Metal>
0.0000

> <Gold.Chemscore.Hbonds>
donor molecule, donor type, donor heavy atom, donor atom, acceptor molecule, acceptor atom, score
      L1  H    17    34       P1  8028  1.00
      P1  H  7997  8010       L1     1  0.90

> <Gold.PLP.Chemscore.Internal.Correction>
0.7075

> <Gold.Rescore>
     Score         DG    S(hbond)    S(metal)    S(lipo)     H(rot)  DE(clash)    DE(int)     intcor
     15.67     -19.07       1.70        0.00     115.65       2.20       0.87       2.52       ----

> <Gold.Chemscore.Fitness>
15.6738

> <Gold.Chemscore.DG>
-19.0666

> <Gold.Chemscore.ZeroCoef>
-5.4800

> <Gold.Chemscore.Hbond>
1.7031

> <Gold.Chemscore.Metal>
0.0000

> <Gold.Chemscore.Lipo>
115.6495

> <Gold.Chemscore.Internal_Hbond>
0.0000

> <Gold.Chemscore.DEClash>
0.8689

> <Gold.Chemscore.DEInternal>
2.5239

> <Gold.Chemscore.Rot>
2.2003

> <Gold.Chemscore.Internal.Correction>
   9.000000E+99

> <Gold.Chemscore.Hbonds>
donor molecule, donor type, donor heavy atom, donor atom, acceptor molecule, acceptor atom, score
      L1  H    17    34       P1  8028  0.99
      P1  H  7997  8010       L1     1  0.17

> <Gold.Chemscore.Hbond.Weighted>
-5.6885

> <Gold.Chemscore.Metal.Weighted>
-0.0000

> <Gold.Chemscore.Lipo.Weighted>
-13.5310

> <Gold.Chemscore.Internal_Hbond.Weighted>
0.0000

> <Gold.Chemscore.DEClash.Weighted>
0.8689

> <Gold.Chemscore.DEInternal.Weighted>
2.5239

> <Gold.Chemscore.Rot.Weighted>
5.6328

> <Gold.Chemscore.Internal.Correction.Weighted>
   9.000000E+99

> <Gold.Protein.RotatedTorsions>
[ 6907 6896 6895 6894 ] final   64.87 input  -60.11 | X-H torsion
[ 7974 7965 7964 7962 ] final -103.63 input  175.53 | X-H torsion
[ 8008 7997 7996 7995 ] final   37.17 input   59.86 | X-H torsion
[ 10167 10162 10161 10158 ] final  -47.47 input  -65.29 | X-H torsion
[ 10718 10713 10712 10709 ] final   59.17 input   66.30 | X-H torsion
[ 10763 10752 10751 10750 ] final -136.47 input  -60.55 | X-H torsion
[ 11005 11000 10999 10996 ] final    5.07 input  -57.11 | X-H torsion

> <Gold.Protein.ActiveResidues>
 VAL166  LYS551  ARG553  GLY616  TRP617  ASP618  TYR619  PRO620  LYS621  CYS622 
 ASP623  PHE694  ASN695  SER759  ASP760  ASP761  ALA762  ILE779  LEU786  VAL792 
 PHE793  MET794  SER795  GLU796  ALA797  LYS798  CYS799  TRP800  GLU811  SER814 

> <Gold.Protein.RotatedAtoms>
  152.4365  134.5677  159.9911 H   0  0  0  0  0  0  0  0  0  0  0  0  # atno 6907 bound_to 6896
  151.5786  133.3375  159.3012 H   0  0  0  0  0  0  0  0  0  0  0  0  # atno 6908 bound_to 6896
  150.8264  134.7531  159.6880 H   0  0  0  0  0  0  0  0  0  0  0  0  # atno 6909 bound_to 6896
  145.2534  140.9245  143.3082 H   0  0  0  0  0  0  0  0  0  0  0  0  # atno 7974 bound_to 7965
  155.1994  140.3314  155.4345 H   0  0  0  0  0  0  0  0  0  0  0  0  # atno 8008 bound_to 7997
  156.2412  140.1896  156.7031 H   0  0  0  0  0  0  0  0  0  0  0  0  # atno 8009 bound_to 7997
  154.6152  140.0603  156.9530 H   0  0  0  0  0  0  0  0  0  0  0  0  # atno 8010 bound_to 7997
  140.6773  143.2783  151.3931 H   0  0  0  0  0  0  0  0  0  0  0  0  # atno 10167 bound_to 10162
  157.5655  130.8867  149.9180 H   0  0  0  0  0  0  0  0  0  0  0  0  # atno 10718 bound_to 10713
  154.8683  135.3672  154.5065 H   0  0  0  0  0  0  0  0  0  0  0  0  # atno 10763 bound_to 10752
  153.5703  135.7021  153.5512 H   0  0  0  0  0  0  0  0  0  0  0  0  # atno 10764 bound_to 10752
  153.3548  135.4062  155.1637 H   0  0  0  0  0  0  0  0  0  0  0  0  # atno 10765 bound_to 10752
  140.5748  134.0068  155.8023 H   0  0  0  0  0  0  0  0  0  0  0  0  # atno 11005 bound_to 11000
  144.9483  139.4112  143.6415 LP  0  0  0  0  0  0  0  0  0  0  0  0  # atno 17320 bound_to 7965
  146.3296  139.8477  142.8879 LP  0  0  0  0  0  0  0  0  0  0  0  0  # atno 17321 bound_to 7965
  139.6074  144.1169  152.2263 LP  0  0  0  0  0  0  0  0  0  0  0  0  # atno 17342 bound_to 10162
  140.0572  144.5885  150.7290 LP  0  0  0  0  0  0  0  0  0  0  0  0  # atno 17343 bound_to 10162
  156.0703  130.3686  150.0789 LP  0  0  0  0  0  0  0  0  0  0  0  0  # atno 17370 bound_to 10713
  156.8948  130.9601  151.3584 LP  0  0  0  0  0  0  0  0  0  0  0  0  # atno 17371 bound_to 10713
  141.1033  133.9733  157.3041 LP  0  0  0  0  0  0  0  0  0  0  0  0  # atno 17394 bound_to 11000
  139.9344  135.0197  156.8509 LP  0  0  0  0  0  0  0  0  0  0  0  0  # atno 17395 bound_to 11000

$$$$
