AV-unprocessed.smi:1701|AV-procd|sdf|6828|dock3
  -GOLD-   22720 8 03D 1   1.00000     0.00000
 Structure written by MMmdl.
 55 57  0  0  0  0  0  0  0  0  3 V2000
  148.6366  144.8862  160.4406 C   0  0  0  0  0  0  0  0  0  0  0  0
  150.1145  145.2764  160.2878 C   0  0  0  0  0  0  0  0  0  0  0  0
  150.9906  144.1356  160.0200 N   0  0  0  0  0  0  0  0  0  0  0  0
  150.9559  143.4970  158.7020 C   0  0  0  0  0  0  0  0  0  0  0  0
  152.0516  144.0065  157.7536 C   0  0  0  0  0  0  0  0  0  0  0  0
  151.9928  143.7733  160.9532 C   0  0  0  0  0  0  0  0  0  0  0  0
  152.7533  142.5805  160.8639 C   0  0  0  0  0  0  0  0  0  0  0  0
  153.7312  142.2926  161.8377 C   0  0  0  0  0  0  0  0  0  0  0  0
  153.9590  143.1964  162.8955 C   0  0  0  0  0  0  0  0  0  0  0  0
  154.9458  142.8498  163.8583 N   0  0  0  0  0  0  0  0  0  0  0  0
  155.3509  143.5388  164.9440 C   0  0  0  0  0  0  0  0  0  0  0  0
  154.9315  144.6470  165.2682 O   0  0  0  0  0  0  0  0  0  0  0  0
  156.3019  142.9197  165.6660 N   0  0  0  0  0  0  0  0  0  0  0  0
  156.9537  143.3883  166.8902 C   0  0  1  0  0  0  0  0  0  0  0  0
  157.0795  144.9179  166.9867 C   0  0  0  0  0  0  0  0  0  0  0  0
  156.8003  145.2613  168.4638 C   0  0  0  0  0  0  0  0  0  0  0  0
  156.6236  143.9739  169.1743 N   0  3  2  0  0  0  0  0  0  0  0  0
  157.8685  143.5408  169.8666 C   0  0  0  0  0  0  0  0  0  0  0  0
  157.7629  142.1069  170.4015 C   0  0  0  0  0  0  0  0  0  0  0  0
  157.4507  141.1385  169.2582 C   0  0  0  0  0  0  0  0  0  0  0  0
  156.1427  141.5561  168.5773 C   0  0  0  0  0  0  0  0  0  0  0  0
  156.1323  143.0369  168.1352 C   0  0  2  0  0  0  0  0  0  0  0  0
  153.1727  144.3712  162.9474 C   0  0  0  0  0  0  0  0  0  0  0  0
  152.2457  144.6053  161.9937 N   0  3  0  0  0  0  0  0  0  0  0  0
  148.0229  145.7738  160.5940 H   0  0  0  0  0  0  0  0  0  0  0  0
  148.4789  144.2336  161.2980 H   0  0  0  0  0  0  0  0  0  0  0  0
  148.2592  144.3741  159.5554 H   0  0  0  0  0  0  0  0  0  0  0  0
  150.2325  146.0299  159.5096 H   0  0  0  0  0  0  0  0  0  0  0  0
  150.4451  145.7636  161.2055 H   0  0  0  0  0  0  0  0  0  0  0  0
  151.0248  142.4141  158.8086 H   0  0  0  0  0  0  0  0  0  0  0  0
  149.9819  143.6791  158.2471 H   0  0  0  0  0  0  0  0  0  0  0  0
  151.9989  143.4876  156.7963 H   0  0  0  0  0  0  0  0  0  0  0  0
  153.0480  143.8388  158.1628 H   0  0  0  0  0  0  0  0  0  0  0  0
  151.9479  145.0713  157.5509 H   0  0  0  0  0  0  0  0  0  0  0  0
  152.6026  141.8691  160.0666 H   0  0  0  0  0  0  0  0  0  0  0  0
  154.3036  141.3794  161.7667 H   0  0  0  0  0  0  0  0  0  0  0  0
  155.4311  141.9822  163.6842 H   0  0  0  0  0  0  0  0  0  0  0  0
  156.6219  142.0295  165.3113 H   0  0  0  0  0  0  0  0  0  0  0  0
  157.9432  142.9368  166.9786 H   0  0  0  0  0  0  0  0  0  0  0  0
  158.0713  145.2484  166.6765 H   0  0  0  0  0  0  0  0  0  0  0  0
  156.3523  145.4199  166.3468 H   0  0  0  0  0  0  0  0  0  0  0  0
  157.5849  145.8787  168.9038 H   0  0  0  0  0  0  0  0  0  0  0  0
  155.8685  145.8235  168.5381 H   0  0  0  0  0  0  0  0  0  0  0  0
  158.7171  143.6089  169.1841 H   0  0  0  0  0  0  0  0  0  0  0  0
  158.0752  144.2278  170.6882 H   0  0  0  0  0  0  0  0  0  0  0  0
  158.6971  141.8211  170.8859 H   0  0  0  0  0  0  0  0  0  0  0  0
  156.9855  142.0488  171.1647 H   0  0  0  0  0  0  0  0  0  0  0  0
  158.2684  141.1328  168.5368 H   0  0  0  0  0  0  0  0  0  0  0  0
  157.3663  140.1206  169.6400 H   0  0  0  0  0  0  0  0  0  0  0  0
  155.9378  140.9058  167.7262 H   0  0  0  0  0  0  0  0  0  0  0  0
  155.3230  141.3970  169.2793 H   0  0  0  0  0  0  0  0  0  0  0  0
  155.0940  143.3110  167.9370 H   0  0  0  0  0  0  0  0  0  0  0  0
  153.2314  145.1303  163.7123 H   0  0  0  0  0  0  0  0  0  0  0  0
  155.9094  144.0768  169.8813 H   0  0  0  0  0  0  0  0  0  0  0  0
  151.6971  145.4623  162.0644 H   0  0  0  0  0  0  0  0  0  0  0  0
  1  2  1  0  0  0  0
  1 25  1  0  0  0  0
  1 26  1  0  0  0  0
  1 27  1  0  0  0  0
  2  3  1  0  0  0  0
  2 28  1  0  0  0  0
  2 29  1  0  0  0  0
  3  4  1  0  0  0  0
  3  6  1  0  0  0  0
  4  5  1  0  0  0  0
  4 30  1  0  0  0  0
  4 31  1  0  0  0  0
  5 32  1  0  0  0  0
  5 33  1  0  0  0  0
  5 34  1  0  0  0  0
  6 24  1  0  0  0  0
  6  7  2  0  0  0  0
  7  8  1  0  0  0  0
  7 35  1  0  0  0  0
  8  9  2  0  0  0  0
  8 36  1  0  0  0  0
  9 10  1  0  0  0  0
  9 23  1  0  0  0  0
 10 11  1  0  0  0  0
 10 37  1  0  0  0  0
 11 12  2  0  0  0  0
 11 13  1  0  0  0  0
 13 14  1  0  0  0  0
 13 38  1  0  0  0  0
 14 22  1  0  0  0  0
 14 15  1  0  0  0  0
 14 39  1  0  0  0  0
 15 16  1  0  0  0  0
 15 40  1  0  0  0  0
 15 41  1  0  0  0  0
 16 17  1  0  0  0  0
 16 42  1  0  0  0  0
 16 43  1  0  0  0  0
 17 22  1  0  0  0  0
 17 18  1  0  0  0  0
 17 54  1  0  0  0  0
 18 19  1  0  0  0  0
 18 44  1  0  0  0  0
 18 45  1  0  0  0  0
 19 20  1  0  0  0  0
 19 46  1  0  0  0  0
 19 47  1  0  0  0  0
 20 21  1  0  0  0  0
 20 48  1  0  0  0  0
 20 49  1  0  0  0  0
 21 22  1  0  0  0  0
 21 50  1  0  0  0  0
 21 51  1  0  0  0  0
 22 52  1  0  0  0  0
 23 24  2  0  0  0  0
 23 53  1  0  0  0  0
 24 55  1  0  0  0  0
M  CHG  1  17   1
M  CHG  1  24   1
M  END
> <s_m_source_file>
AV-unprocessed.smi

> <i_m_source_file_index>
1701

> <i_lp_mmshare_version>
43012

> <i_f3d_flags>
0

> <s_epik_input>
W0NIM11bQ0gyXU4oW0NIMl1bQ0gzXSljMVtjSF1bY0hdYyhbY0hdbjEpW05IXUMoPU8pW05IXVtDQEhdKFtDSDJdW0NIMl0yKVtDQEBIXShOMjMpW0NIMl1bQ0gyXVtDSDJdW0NIMl0z

> <s_epik_cmdline>
J2VwaWtfcHl0aG9uJywgJy1waCcsICc3LjAnLCAnLXRuJywgJzgnLCAnLW1hJywgJzIwMCcsICctbWV0YWxfYmluZGluZycsICctaW1hZScsICc8aW5maWxlLm1hZT4nLCAnLW9tYWUnLCAnPG91dGZpbGUubWFlPic=

> <r_lp_tautomer_probability>
0.999994

> <r_epik_Ionization_Penalty>
0.302862

> <r_epik_Ionization_Penalty_Charging>
0.302842

> <r_epik_Ionization_Penalty_Neutral>
1.95166e-05

> <r_epik_State_Penalty>
0.019791

> <r_epik_Charging_Adjusted_Penalty>
0.322633

> <i_epik_Tot_Q>
2

> <i_epik_Tot_abs_Q>
2

> <r_epik_Metal_State_Penalty>
0.0536763

> <b_epik_Metal_Only>
0

> <s_lp_Force_Field>
OPLS_2005

> <r_lp_Energy>
65.6354

> <b_lp_Chiralities_Consistent>
1

> <s_lp_Variant>
AV-unprocessed.smi:1701-8

> <Gold.Version>
5.8.1

> <Gold.Id.Protein>
6NUR|6NUR_protein|mol2

> <Gold.PLP.Fitness>
44.1571

> <Gold.PLP.PLP>
-45.5374

> <Gold.PLP.part.hbond>
-2.9260

> <Gold.PLP.part.metal>
0.0000

> <Gold.PLP.part.buried>
-2.7687

> <Gold.PLP.part.nonpolar>
-39.2659

> <Gold.PLP.part.repulsive>
0.2399

> <Gold.PLP.ligand.clash>
0.0000

> <Gold.PLP.ligand.torsion>
0.7917

> <Gold.PLP.Chemscore.Hbond>
0.0000

> <Gold.PLP.Chemscore.CHOScore>
0.0000

> <Gold.PLP.Chemscore.Metal>
0.0000

> <Gold.PLP.Chemscore.Internal.Correction>
0.2031

> <Gold.Rescore>
     Score         DG    S(hbond)    S(metal)    S(lipo)     H(rot)  DE(clash)    DE(int)     intcor
     10.68     -15.31       0.00        0.00     112.50       1.30       1.53       3.09       ----

> <Gold.Chemscore.Fitness>
10.6842

> <Gold.Chemscore.DG>
-15.3096

> <Gold.Chemscore.ZeroCoef>
-5.4800

> <Gold.Chemscore.Hbond>
0.0000

> <Gold.Chemscore.Metal>
0.0000

> <Gold.Chemscore.Lipo>
112.5013

> <Gold.Chemscore.Internal_Hbond>
0.0000

> <Gold.Chemscore.DEClash>
1.5314

> <Gold.Chemscore.DEInternal>
3.0940

> <Gold.Chemscore.Rot>
1.3020

> <Gold.Chemscore.Internal.Correction>
   9.000000E+99

> <Gold.Chemscore.Hbond.Weighted>
-0.0000

> <Gold.Chemscore.Metal.Weighted>
-0.0000

> <Gold.Chemscore.Lipo.Weighted>
-13.1626

> <Gold.Chemscore.Internal_Hbond.Weighted>
0.0000

> <Gold.Chemscore.DEClash.Weighted>
1.5314

> <Gold.Chemscore.DEInternal.Weighted>
3.0940

> <Gold.Chemscore.Rot.Weighted>
3.3330

> <Gold.Chemscore.Internal.Correction.Weighted>
   9.000000E+99

> <Gold.Protein.RotatedTorsions>
[ 6907 6896 6895 6894 ] final  155.19 input  -60.11 | X-H torsion
[ 7974 7965 7964 7962 ] final   77.16 input  175.53 | X-H torsion
[ 8008 7997 7996 7995 ] final  112.63 input   59.86 | X-H torsion
[ 10167 10162 10161 10158 ] final  117.55 input  -65.29 | X-H torsion
[ 10718 10713 10712 10709 ] final -151.16 input   66.30 | X-H torsion
[ 10763 10752 10751 10750 ] final -129.96 input  -60.55 | X-H torsion
[ 11005 11000 10999 10996 ] final  139.76 input  -57.11 | X-H torsion

> <Gold.Protein.ActiveResidues>
 VAL166  LYS551  ARG553  GLY616  TRP617  ASP618  TYR619  PRO620  LYS621  CYS622 
 ASP623  PHE694  ASN695  SER759  ASP760  ASP761  ALA762  ILE779  LEU786  VAL792 
 PHE793  MET794  SER795  GLU796  ALA797  LYS798  CYS799  TRP800  GLU811  SER814 

> <Gold.Protein.RotatedAtoms>
  152.0477  133.4005  159.4363 H   0  0  0  0  0  0  0  0  0  0  0  0  # atno 6907 bound_to 6896
  150.6872  134.3343  159.4850 H   0  0  0  0  0  0  0  0  0  0  0  0  # atno 6908 bound_to 6896
  152.1149  134.9247  160.0616 H   0  0  0  0  0  0  0  0  0  0  0  0  # atno 6909 bound_to 6896
  145.6936  139.2560  143.1746 H   0  0  0  0  0  0  0  0  0  0  0  0  # atno 7974 bound_to 7965
  156.2205  140.2996  155.9941 H   0  0  0  0  0  0  0  0  0  0  0  0  # atno 8008 bound_to 7997
  155.2494  140.0425  157.3002 H   0  0  0  0  0  0  0  0  0  0  0  0  # atno 8009 bound_to 7997
  154.5833  140.2381  155.8031 H   0  0  0  0  0  0  0  0  0  0  0  0  # atno 8010 bound_to 7997
  139.6171  144.7094  151.2716 H   0  0  0  0  0  0  0  0  0  0  0  0  # atno 10167 bound_to 10162
  156.4556  130.8189  151.2420 H   0  0  0  0  0  0  0  0  0  0  0  0  # atno 10718 bound_to 10713
  154.8756  135.3878  154.4006 H   0  0  0  0  0  0  0  0  0  0  0  0  # atno 10763 bound_to 10752
  153.4731  135.7030  153.5987 H   0  0  0  0  0  0  0  0  0  0  0  0  # atno 10764 bound_to 10752
  153.4435  135.3850  155.2210 H   0  0  0  0  0  0  0  0  0  0  0  0  # atno 10765 bound_to 10752
  140.0278  134.9366  157.0603 H   0  0  0  0  0  0  0  0  0  0  0  0  # atno 11005 bound_to 11000
  146.0860  140.7710  142.9618 LP  0  0  0  0  0  0  0  0  0  0  0  0  # atno 17320 bound_to 7965
  144.6989  140.3563  143.7172 LP  0  0  0  0  0  0  0  0  0  0  0  0  # atno 17321 bound_to 7965
  140.7358  143.6726  150.8068 LP  0  0  0  0  0  0  0  0  0  0  0  0  # atno 17342 bound_to 10162
  140.0331  143.5423  152.2751 LP  0  0  0  0  0  0  0  0  0  0  0  0  # atno 17343 bound_to 10162
  157.7500  131.0124  150.3382 LP  0  0  0  0  0  0  0  0  0  0  0  0  # atno 17370 bound_to 10713
  156.3770  130.3873  149.7131 LP  0  0  0  0  0  0  0  0  0  0  0  0  # atno 17371 bound_to 10713
  140.4277  134.1814  155.7167 LP  0  0  0  0  0  0  0  0  0  0  0  0  # atno 17394 bound_to 11000
  141.1813  133.8407  157.1247 LP  0  0  0  0  0  0  0  0  0  0  0  0  # atno 17395 bound_to 11000

$$$$
