AV-unprocessed.smi:2548|AV-procd|sdf|10008|dock8
  -GOLD-   2272014 53D 1   1.00000     0.00000
 Structure written by MMmdl.
 44 45  0  0  0  0  0  0  0  0  1 V2000
  136.6118  137.1529  154.3001 C   0  0  0  0  0  0  0  0  0  0  0  0
  138.0830  136.8742  154.3925 C   0  0  0  0  0  0  0  0  0  0  0  0
  139.1248  137.3516  153.5444 C   0  0  0  0  0  0  0  0  0  0  0  0
  140.2639  136.8070  154.0688 C   0  0  0  0  0  0  0  0  0  0  0  0
  141.6971  136.9163  153.6495 C   0  0  0  0  0  0  0  0  0  0  0  0
  142.2958  135.5673  153.2340 C   0  0  0  0  0  0  0  0  0  0  0  0
  141.5931  134.5583  153.1560 O   0  0  0  0  0  0  0  0  0  0  0  0
  143.6087  135.5724  152.9542 N   0  0  0  0  0  0  0  0  0  0  0  0
  144.4009  134.4136  152.5413 C   0  0  0  0  0  0  0  0  0  0  0  0
  145.2310  134.6441  151.2410 C   0  0  0  0  0  0  0  0  0  0  0  0
  145.6583  136.1303  151.1898 C   0  0  0  0  0  0  0  0  0  0  0  0
  146.5422  133.8059  151.2674 C   0  0  0  0  0  0  0  0  0  0  0  0
  146.3977  132.2760  151.4083 C   0  0  0  0  0  0  0  0  0  0  0  0
  146.1894  131.4953  150.0997 C   0  0  0  0  0  0  0  0  0  0  0  0
  145.1982  132.0898  149.0856 C   0  0  0  0  0  0  0  0  0  0  0  0
  144.0315  132.8920  149.6829 C   0  0  0  0  0  0  0  0  0  0  0  0
  144.4017  134.3616  149.9600 C   0  0  0  0  0  0  0  0  0  0  0  0
  139.8658  136.0594  155.1543 N   0  0  0  0  0  0  0  0  0  0  0  0
  138.5366  136.0936  155.3618 N   0  0  0  0  0  0  0  0  0  0  0  0
  140.4824  135.5329  155.7567 H   0  0  0  0  0  0  0  0  0  0  0  0
  136.3836  137.7828  153.4400 H   0  0  0  0  0  0  0  0  0  0  0  0
  136.2527  137.6670  155.1921 H   0  0  0  0  0  0  0  0  0  0  0  0
  136.0428  136.2288  154.1944 H   0  0  0  0  0  0  0  0  0  0  0  0
  139.0474  137.9993  152.6837 H   0  0  0  0  0  0  0  0  0  0  0  0
  142.2838  137.3323  154.4696 H   0  0  0  0  0  0  0  0  0  0  0  0
  141.7912  137.6114  152.8144 H   0  0  0  0  0  0  0  0  0  0  0  0
  144.1034  136.4486  153.0384 H   0  0  0  0  0  0  0  0  0  0  0  0
  145.0773  134.1830  153.3650 H   0  0  0  0  0  0  0  0  0  0  0  0
  143.7462  133.5480  152.4546 H   0  0  0  0  0  0  0  0  0  0  0  0
  146.3168  136.3261  150.3425 H   0  0  0  0  0  0  0  0  0  0  0  0
  146.1967  136.4221  152.0921 H   0  0  0  0  0  0  0  0  0  0  0  0
  144.8038  136.8001  151.0882 H   0  0  0  0  0  0  0  0  0  0  0  0
  147.1482  134.0262  150.3874 H   0  0  0  0  0  0  0  0  0  0  0  0
  147.1380  134.1493  152.1143 H   0  0  0  0  0  0  0  0  0  0  0  0
  147.3104  131.8921  151.8652 H   0  0  0  0  0  0  0  0  0  0  0  0
  145.6149  132.0147  152.1163 H   0  0  0  0  0  0  0  0  0  0  0  0
  147.1508  131.3675  149.6009 H   0  0  0  0  0  0  0  0  0  0  0  0
  145.8644  130.4876  150.3613 H   0  0  0  0  0  0  0  0  0  0  0  0
  145.7400  132.7160  148.3759 H   0  0  0  0  0  0  0  0  0  0  0  0
  144.7961  131.2698  148.4892 H   0  0  0  0  0  0  0  0  0  0  0  0
  143.2269  132.8954  148.9469 H   0  0  0  0  0  0  0  0  0  0  0  0
  143.6173  132.3993  150.5624 H   0  0  0  0  0  0  0  0  0  0  0  0
  143.4820  134.9449  149.9912 H   0  0  0  0  0  0  0  0  0  0  0  0
  144.9351  134.7505  149.0915 H   0  0  0  0  0  0  0  0  0  0  0  0
  1 21  1  0  0  0  0
  1 22  1  0  0  0  0
  1 23  1  0  0  0  0
  1  2  1  0  0  0  0
  2 19  2  0  0  0  0
  2  3  1  0  0  0  0
  3  4  2  0  0  0  0
  3 24  1  0  0  0  0
  4 18  1  0  0  0  0
  4  5  1  0  0  0  0
  5  6  1  0  0  0  0
  5 25  1  0  0  0  0
  5 26  1  0  0  0  0
  6  7  2  0  0  0  0
  6  8  1  0  0  0  0
  8  9  1  0  0  0  0
  8 27  1  0  0  0  0
  9 10  1  0  0  0  0
  9 28  1  0  0  0  0
  9 29  1  0  0  0  0
 10 17  1  0  0  0  0
 10 11  1  0  0  0  0
 10 12  1  0  0  0  0
 11 30  1  0  0  0  0
 11 31  1  0  0  0  0
 11 32  1  0  0  0  0
 12 13  1  0  0  0  0
 12 33  1  0  0  0  0
 12 34  1  0  0  0  0
 13 14  1  0  0  0  0
 13 35  1  0  0  0  0
 13 36  1  0  0  0  0
 14 15  1  0  0  0  0
 14 37  1  0  0  0  0
 14 38  1  0  0  0  0
 15 16  1  0  0  0  0
 15 39  1  0  0  0  0
 15 40  1  0  0  0  0
 16 17  1  0  0  0  0
 16 41  1  0  0  0  0
 16 42  1  0  0  0  0
 17 43  1  0  0  0  0
 17 44  1  0  0  0  0
 18 19  1  0  0  0  0
 18 20  1  0  0  0  0
M  END
> <s_m_source_file>
AV-unprocessed.smi

> <i_m_source_file_index>
2548

> <i_lp_mmshare_version>
43012

> <i_f3d_flags>
0

> <s_epik_input>
W0NIM11jMVtjSF1jKG5bbkhdMSlbQ0gyXUMoPU8pW05IXVtDSDJdQzIoW0NIM10pW0NIMl1bQ0gyXVtDSDJdW0NIMl1bQ0gyXVtDSDJdMg==

> <s_epik_cmdline>
J2VwaWtfcHl0aG9uJywgJy1waCcsICc3LjAnLCAnLXRuJywgJzgnLCAnLW1hJywgJzIwMCcsICctbWV0YWxfYmluZGluZycsICctaW1hZScsICc8aW5maWxlLm1hZT4nLCAnLW9tYWUnLCAnPG91dGZpbGUubWFlPic=

> <r_lp_tautomer_probability>
0.5

> <r_epik_Ionization_Penalty>
0.000120089

> <r_epik_Ionization_Penalty_Charging>
0

> <r_epik_Ionization_Penalty_Neutral>
0.000120089

> <r_epik_State_Penalty>
0.41068

> <r_epik_Charging_Adjusted_Penalty>
0.41068

> <i_epik_Tot_Q>
0

> <i_epik_Tot_abs_Q>
0

> <r_epik_Metal_State_Penalty>
0.410662

> <b_epik_Metal_Only>
0

> <s_lp_Force_Field>
OPLS_2005

> <r_lp_Energy>
21.4694

> <b_lp_Chiralities_Consistent>
1

> <s_lp_Variant>
AV-unprocessed.smi:2548-2

> <Gold.Version>
5.8.1

> <Gold.Id.Protein>
6NUR|6NUR_protein|mol2

> <Gold.PLP.Fitness>
36.8660

> <Gold.PLP.PLP>
-36.2309

> <Gold.PLP.part.hbond>
-1.8785

> <Gold.PLP.part.metal>
0.0000

> <Gold.PLP.part.buried>
-2.0978

> <Gold.PLP.part.nonpolar>
-32.8605

> <Gold.PLP.part.repulsive>
0.3696

> <Gold.PLP.ligand.clash>
0.0000

> <Gold.PLP.ligand.torsion>
0.5758

> <Gold.PLP.Chemscore.Hbond>
0.5920

> <Gold.PLP.Chemscore.CHOScore>
0.0000

> <Gold.PLP.Chemscore.Metal>
0.0000

> <Gold.Chemscore.Hbonds>
donor molecule, donor type, donor heavy atom, donor atom, acceptor molecule, acceptor atom, score
      L1  H    18    20       P1 11000  0.69

> <Gold.PLP.Chemscore.Internal.Correction>
0.0107

> <Gold.Rescore>
     Score         DG    S(hbond)    S(metal)    S(lipo)     H(rot)  DE(clash)    DE(int)     intcor
     14.20     -15.08       0.34        0.00     106.16       1.55       0.28       0.59       ----

> <Gold.Chemscore.Fitness>
14.2026

> <Gold.Chemscore.DG>
-15.0755

> <Gold.Chemscore.ZeroCoef>
-5.4800

> <Gold.Chemscore.Hbond>
0.3415

> <Gold.Chemscore.Metal>
0.0000

> <Gold.Chemscore.Lipo>
106.1553

> <Gold.Chemscore.Internal_Hbond>
0.0000

> <Gold.Chemscore.DEClash>
0.2833

> <Gold.Chemscore.DEInternal>
0.5896

> <Gold.Chemscore.Rot>
1.5489

> <Gold.Chemscore.Internal.Correction>
   9.000000E+99

> <Gold.Chemscore.Hbonds>
donor molecule, donor type, donor heavy atom, donor atom, acceptor molecule, acceptor atom, score
      L1  H    18    20       P1 11000  0.58

> <Gold.Chemscore.Hbond.Weighted>
-1.1406

> <Gold.Chemscore.Metal.Weighted>
-0.0000

> <Gold.Chemscore.Lipo.Weighted>
-12.4202

> <Gold.Chemscore.Internal_Hbond.Weighted>
0.0000

> <Gold.Chemscore.DEClash.Weighted>
0.2833

> <Gold.Chemscore.DEInternal.Weighted>
0.5896

> <Gold.Chemscore.Rot.Weighted>
3.9652

> <Gold.Chemscore.Internal.Correction.Weighted>
   9.000000E+99

> <Gold.Protein.RotatedTorsions>
[ 6907 6896 6895 6894 ] final  -27.50 input  -60.11 | X-H torsion
[ 7974 7965 7964 7962 ] final  -61.49 input  175.53 | X-H torsion
[ 8008 7997 7996 7995 ] final   30.68 input   59.86 | X-H torsion
[ 10167 10162 10161 10158 ] final -104.82 input  -65.29 | X-H torsion
[ 10718 10713 10712 10709 ] final  -58.02 input   66.30 | X-H torsion
[ 10763 10752 10751 10750 ] final  128.08 input  -60.55 | X-H torsion
[ 11005 11000 10999 10996 ] final -108.65 input  -57.11 | X-H torsion

> <Gold.Protein.ActiveResidues>
 VAL166  LYS551  ARG553  GLY616  TRP617  ASP618  TYR619  PRO620  LYS621  CYS622 
 ASP623  PHE694  ASN695  SER759  ASP760  ASP761  ALA762  ILE779  LEU786  VAL792 
 PHE793  MET794  SER795  GLU796  ALA797  LYS798  CYS799  TRP800  GLU811  SER814 

> <Gold.Protein.RotatedAtoms>
  151.1460  135.0203  159.8646 H   0  0  0  0  0  0  0  0  0  0  0  0  # atno 6907 bound_to 6896
  152.5453  134.1444  159.8502 H   0  0  0  0  0  0  0  0  0  0  0  0  # atno 6908 bound_to 6896
  151.1524  133.4853  159.2628 H   0  0  0  0  0  0  0  0  0  0  0  0  # atno 6909 bound_to 6896
  145.8028  140.8645  143.0222 H   0  0  0  0  0  0  0  0  0  0  0  0  # atno 7974 bound_to 7965
  155.0942  140.3223  155.4565 H   0  0  0  0  0  0  0  0  0  0  0  0  # atno 8008 bound_to 7997
  156.2734  140.2072  156.6015 H   0  0  0  0  0  0  0  0  0  0  0  0  # atno 8009 bound_to 7997
  154.6879  140.0519  157.0321 H   0  0  0  0  0  0  0  0  0  0  0  0  # atno 8010 bound_to 7997
  140.2051  143.3789  152.1097 H   0  0  0  0  0  0  0  0  0  0  0  0  # atno 10167 bound_to 10162
  156.1167  130.4170  150.0520 H   0  0  0  0  0  0  0  0  0  0  0  0  # atno 10718 bound_to 10713
  153.7198  135.3255  155.3264 H   0  0  0  0  0  0  0  0  0  0  0  0  # atno 10763 bound_to 10752
  154.8359  135.4497  154.1229 H   0  0  0  0  0  0  0  0  0  0  0  0  # atno 10764 bound_to 10752
  153.2346  135.6964  153.7931 H   0  0  0  0  0  0  0  0  0  0  0  0  # atno 10765 bound_to 10752
  141.0890  133.9088  157.2119 H   0  0  0  0  0  0  0  0  0  0  0  0  # atno 11005 bound_to 11000
  144.6766  140.0284  143.7483 LP  0  0  0  0  0  0  0  0  0  0  0  0  # atno 17320 bound_to 7965
  145.9860  139.2977  143.1013 LP  0  0  0  0  0  0  0  0  0  0  0  0  # atno 17321 bound_to 7965
  139.5202  144.7029  151.5440 LP  0  0  0  0  0  0  0  0  0  0  0  0  # atno 17342 bound_to 10162
  140.6363  143.8978  150.6650 LP  0  0  0  0  0  0  0  0  0  0  0  0  # atno 17343 bound_to 10162
  156.8469  130.9445  151.3628 LP  0  0  0  0  0  0  0  0  0  0  0  0  # atno 17370 bound_to 10713
  157.6350  130.8759  149.9342 LP  0  0  0  0  0  0  0  0  0  0  0  0  # atno 17371 bound_to 10713
  139.9713  135.0127  156.9519 LP  0  0  0  0  0  0  0  0  0  0  0  0  # atno 17394 bound_to 11000
  140.5296  134.0827  155.7312 LP  0  0  0  0  0  0  0  0  0  0  0  0  # atno 17395 bound_to 11000

$$$$
