AV-unprocessed.smi:177|AV-procd|sdf|1439|dock4
  -GOLD-   2262019223D 1   1.00000     0.00000
 Structure written by MMmdl.
 61 65  0  0  0  0  0  0  0  0  1 V2000
  154.0653  136.5043  161.8880 C   0  0  0  0  0  0  0  0  0  0  0  0
  153.2035  137.2228  161.0186 O   0  0  0  0  0  0  0  0  0  0  0  0
  153.8067  138.3503  160.3966 C   0  0  2  0  0  0  0  0  0  0  0  0
  154.4324  139.2099  161.5062 C   0  0  0  0  0  0  0  0  0  0  0  0
  155.0859  140.4749  160.9293 C   0  0  0  0  0  0  0  0  0  0  0  0
  154.0986  141.3075  160.0934 C   0  0  2  0  0  0  0  0  0  0  0  0
  153.1253  141.8950  160.9534 O   0  0  0  0  0  0  0  0  0  0  0  0
  152.2583  142.7797  160.2516 C   0  0  0  0  0  0  0  0  0  0  0  0
  151.4837  142.0046  159.1742 C   0  0  0  0  0  0  0  0  0  0  0  0
  152.4109  141.2807  158.3040 N   0  0  0  0  0  0  0  0  0  0  0  0
  151.9287  140.7795  157.1353 C   0  0  0  0  0  0  0  0  0  0  0  0
  152.6722  139.8844  156.4304 N   0  0  0  0  0  0  0  0  0  0  0  0
  152.2239  139.3925  155.2725 C   0  0  0  0  0  0  0  0  0  0  0  0
  151.0781  139.6560  154.6435 N   0  0  0  0  0  0  0  0  0  0  0  0
  150.3233  140.5502  155.3432 C   0  0  0  0  0  0  0  0  0  0  0  0
  150.6650  141.1484  156.5899 C   0  0  0  0  0  0  0  0  0  0  0  0
  149.6318  141.9778  157.0103 N   0  0  0  0  0  0  0  0  0  0  0  0
  148.7408  141.8866  156.0620 C   0  0  0  0  0  0  0  0  0  0  0  0
  149.0826  141.0668  155.0104 N   0  0  0  0  0  0  0  0  0  0  0  0
  148.2765  140.7823  153.8319 C   0  0  0  0  0  0  0  0  0  0  0  0
  147.3836  139.5063  153.9115 C   0  0  0  0  0  0  0  0  0  0  0  0
  146.7957  139.1503  152.5127 C   0  0  0  0  0  0  0  0  0  0  0  0
  147.6814  138.4169  151.6908 O   0  0  0  0  0  0  0  0  0  0  0  0
  148.1614  138.3155  154.5290 C   0  0  0  0  0  0  0  0  0  0  0  0
  147.2421  137.1471  154.9225 C   0  0  0  0  0  0  0  0  0  0  0  0
  146.2621  137.5983  155.8481 O   0  0  0  0  0  0  0  0  0  0  0  0
  145.4049  138.5927  155.3032 C   0  0  0  0  0  0  0  0  0  0  0  0
  146.2222  139.8312  154.8855 C   0  0  0  0  0  0  0  0  0  0  0  0
  153.3935  140.4543  159.0118 C   0  0  2  0  0  0  0  0  0  0  0  0
  152.7666  139.1738  159.6127 C   0  0  0  0  0  0  0  0  0  0  0  0
  153.5118  135.6877  162.3510 H   0  0  0  0  0  0  0  0  0  0  0  0
  154.4437  137.1436  162.6863 H   0  0  0  0  0  0  0  0  0  0  0  0
  154.9116  136.0700  161.3566 H   0  0  0  0  0  0  0  0  0  0  0  0
  154.6026  138.0209  159.7257 H   0  0  0  0  0  0  0  0  0  0  0  0
  153.6676  139.4907  162.2318 H   0  0  0  0  0  0  0  0  0  0  0  0
  155.1761  138.6281  162.0516 H   0  0  0  0  0  0  0  0  0  0  0  0
  155.4986  141.0839  161.7341 H   0  0  0  0  0  0  0  0  0  0  0  0
  155.9294  140.1847  160.3018 H   0  0  0  0  0  0  0  0  0  0  0  0
  154.6604  142.1103  159.6120 H   0  0  0  0  0  0  0  0  0  0  0  0
  151.5642  143.2334  160.9587 H   0  0  0  0  0  0  0  0  0  0  0  0
  152.8341  143.5923  159.8059 H   0  0  0  0  0  0  0  0  0  0  0  0
  150.7900  141.3050  159.6413 H   0  0  0  0  0  0  0  0  0  0  0  0
  150.8871  142.7047  158.5879 H   0  0  0  0  0  0  0  0  0  0  0  0
  152.8776  138.6891  154.7782 H   0  0  0  0  0  0  0  0  0  0  0  0
  147.8065  142.4278  156.0978 H   0  0  0  0  0  0  0  0  0  0  0  0
  147.6574  141.6610  153.6455 H   0  0  0  0  0  0  0  0  0  0  0  0
  148.9489  140.7116  152.9757 H   0  0  0  0  0  0  0  0  0  0  0  0
  145.8930  138.5489  152.6000 H   0  0  0  0  0  0  0  0  0  0  0  0
  146.5024  140.0577  151.9836 H   0  0  0  0  0  0  0  0  0  0  0  0
  148.4420  138.1833  152.2010 H   0  0  0  0  0  0  0  0  0  0  0  0
  148.9398  137.9583  153.8546 H   0  0  0  0  0  0  0  0  0  0  0  0
  148.6782  138.6519  155.4287 H   0  0  0  0  0  0  0  0  0  0  0  0
  146.7645  136.7012  154.0492 H   0  0  0  0  0  0  0  0  0  0  0  0
  147.8281  136.3593  155.3959 H   0  0  0  0  0  0  0  0  0  0  0  0
  144.8342  138.1809  154.4706 H   0  0  0  0  0  0  0  0  0  0  0  0
  144.6760  138.8732  156.0637 H   0  0  0  0  0  0  0  0  0  0  0  0
  146.6246  140.2808  155.7945 H   0  0  0  0  0  0  0  0  0  0  0  0
  145.5603  140.5806  154.4498 H   0  0  0  0  0  0  0  0  0  0  0  0
  154.1675  140.1387  158.3147 H   0  0  0  0  0  0  0  0  0  0  0  0
  152.3376  138.5722  158.8119 H   0  0  0  0  0  0  0  0  0  0  0  0
  151.9430  139.4302  160.2796 H   0  0  0  0  0  0  0  0  0  0  0  0
  1  2  1  0  0  0  0
  1 31  1  0  0  0  0
  1 32  1  0  0  0  0
  1 33  1  0  0  0  0
  2  3  1  0  0  0  0
  3 30  1  0  0  0  0
  3  4  1  0  0  0  0
  3 34  1  0  0  0  0
  4  5  1  0  0  0  0
  4 35  1  0  0  0  0
  4 36  1  0  0  0  0
  5  6  1  0  0  0  0
  5 37  1  0  0  0  0
  5 38  1  0  0  0  0
  6 29  1  0  0  0  0
  6  7  1  0  0  0  0
  6 39  1  0  0  0  0
  7  8  1  0  0  0  0
  8  9  1  0  0  0  0
  8 40  1  0  0  0  0
  8 41  1  0  0  0  0
  9 10  1  0  0  0  0
  9 42  1  0  0  0  0
  9 43  1  0  0  0  0
 10 11  1  0  0  0  0
 10 29  1  0  0  0  0
 11 16  1  0  0  0  0
 11 12  2  0  0  0  0
 12 13  1  0  0  0  0
 13 14  2  0  0  0  0
 13 44  1  0  0  0  0
 14 15  1  0  0  0  0
 15 19  1  0  0  0  0
 15 16  2  0  0  0  0
 16 17  1  0  0  0  0
 17 18  2  0  0  0  0
 18 19  1  0  0  0  0
 18 45  1  0  0  0  0
 19 20  1  0  0  0  0
 20 21  1  0  0  0  0
 20 46  1  0  0  0  0
 20 47  1  0  0  0  0
 21 28  1  0  0  0  0
 21 22  1  0  0  0  0
 21 24  1  0  0  0  0
 22 23  1  0  0  0  0
 22 48  1  0  0  0  0
 22 49  1  0  0  0  0
 23 50  1  0  0  0  0
 24 25  1  0  0  0  0
 24 51  1  0  0  0  0
 24 52  1  0  0  0  0
 25 26  1  0  0  0  0
 25 53  1  0  0  0  0
 25 54  1  0  0  0  0
 26 27  1  0  0  0  0
 27 28  1  0  0  0  0
 27 55  1  0  0  0  0
 27 56  1  0  0  0  0
 28 57  1  0  0  0  0
 28 58  1  0  0  0  0
 29 30  1  0  0  0  0
 29 59  1  0  0  0  0
 30 60  1  0  0  0  0
 30 61  1  0  0  0  0
M  END
> <s_m_source_file>
AV-unprocessed.smi

> <i_m_source_file_index>
177

> <i_lp_mmshare_version>
43012

> <i_f3d_flags>
0

> <s_epik_input>
W0NIM11PW0NASF0oW0NIMl1bQ0gyXTEpW0NIMl1bQ0BIXShbQ0BASF0xMilOKFtDSDJdW0NIMl1PMiljKG5bY0hdbjMpYyhjMzQpbltjSF1uNFtDSDJdQzUoW0NIMl1bT0hdKVtDSDJdW0NIMl1PW0NIMl1bQ0gyXTU=

> <s_epik_cmdline>
J2VwaWtfcHl0aG9uJywgJy1waCcsICc3LjAnLCAnLXRuJywgJzgnLCAnLW1hJywgJzIwMCcsICctbWV0YWxfYmluZGluZycsICctaW1hZScsICc8aW5maWxlLm1hZT4nLCAnLW9tYWUnLCAnPG91dGZpbGUubWFlPic=

> <r_lp_tautomer_probability>
1

> <r_epik_Ionization_Penalty>
0.0065899

> <r_epik_Ionization_Penalty_Charging>
0

> <r_epik_Ionization_Penalty_Neutral>
0.0065899

> <r_epik_State_Penalty>
0.00470042

> <r_epik_Charging_Adjusted_Penalty>
0.00470042

> <i_epik_Tot_Q>
0

> <i_epik_Tot_abs_Q>
0

> <r_epik_Metal_State_Penalty>
-0

> <b_epik_Metal_Only>
0

> <s_lp_Force_Field>
OPLS_2005

> <r_lp_Energy>
44.7828

> <b_lp_Chiralities_Consistent>
1

> <s_lp_Variant>
AV-unprocessed.smi:177-3

> <Gold.Version>
5.8.1

> <Gold.Id.Protein>
6NUR|6NUR_protein|mol2

> <Gold.PLP.Fitness>
52.6268

> <Gold.PLP.PLP>
-45.1220

> <Gold.PLP.part.hbond>
-4.8734

> <Gold.PLP.part.metal>
0.0000

> <Gold.PLP.part.buried>
0.7412

> <Gold.PLP.part.nonpolar>
-38.4720

> <Gold.PLP.part.repulsive>
0.2225

> <Gold.PLP.ligand.clash>
0.0000

> <Gold.PLP.ligand.torsion>
1.3013

> <Gold.PLP.Chemscore.Hbond>
2.9080

> <Gold.PLP.Chemscore.CHOScore>
0.2934

> <Gold.PLP.Chemscore.Metal>
0.0000

> <Gold.Chemscore.Hbonds>
donor molecule, donor type, donor heavy atom, donor atom, acceptor molecule, acceptor atom, score
      L1  H    23    50       P1  7948  0.21
      P1  H  7954  7966       L1    23  1.00
      P1  H  7989  7998       L1    14  0.70
      P1  H  7997  8010       L1    12  1.00
      L1  C    18    45       P1  8028  0.29

> <Gold.PLP.Chemscore.Internal.Correction>
0.5033

> <Gold.Rescore>
     Score         DG    S(hbond)    S(metal)    S(lipo)     H(rot)  DE(clash)    DE(int)     intcor
     13.24     -16.09       1.56        0.00     102.52       2.58       0.26       2.58       ----

> <Gold.Chemscore.Fitness>
13.2441

> <Gold.Chemscore.DG>
-16.0865

> <Gold.Chemscore.ZeroCoef>
-5.4800

> <Gold.Chemscore.Hbond>
1.5623

> <Gold.Chemscore.Metal>
0.0000

> <Gold.Chemscore.Lipo>
102.5182

> <Gold.Chemscore.Internal_Hbond>
0.0000

> <Gold.Chemscore.DEClash>
0.2600

> <Gold.Chemscore.DEInternal>
2.5824

> <Gold.Chemscore.Rot>
2.5806

> <Gold.Chemscore.Internal.Correction>
   9.000000E+99

> <Gold.Chemscore.Hbonds>
donor molecule, donor type, donor heavy atom, donor atom, acceptor molecule, acceptor atom, score
      L1  H    23    50       P1  7948  0.19
      P1  H  7954  7966       L1    23  0.33
      P1  H  7989  7998       L1    14  0.02
      P1  H  7997  8010       L1    12  0.77

> <Gold.Chemscore.Hbond.Weighted>
-5.2181

> <Gold.Chemscore.Metal.Weighted>
-0.0000

> <Gold.Chemscore.Lipo.Weighted>
-11.9946

> <Gold.Chemscore.Internal_Hbond.Weighted>
0.0000

> <Gold.Chemscore.DEClash.Weighted>
0.2600

> <Gold.Chemscore.DEInternal.Weighted>
2.5824

> <Gold.Chemscore.Rot.Weighted>
6.6062

> <Gold.Chemscore.Internal.Correction.Weighted>
   9.000000E+99

> <Gold.Protein.RotatedTorsions>
[ 6907 6896 6895 6894 ] final  -56.12 input  -60.11 | X-H torsion
[ 7974 7965 7964 7962 ] final   22.09 input  175.53 | X-H torsion
[ 8008 7997 7996 7995 ] final   73.51 input   59.86 | X-H torsion
[ 10167 10162 10161 10158 ] final  130.54 input  -65.29 | X-H torsion
[ 10718 10713 10712 10709 ] final  -78.66 input   66.30 | X-H torsion
[ 10763 10752 10751 10750 ] final   66.27 input  -60.55 | X-H torsion
[ 11005 11000 10999 10996 ] final  -91.28 input  -57.11 | X-H torsion

> <Gold.Protein.ActiveResidues>
 VAL166  LYS551  ARG553  GLY616  TRP617  ASP618  TYR619  PRO620  LYS621  CYS622 
 ASP623  PHE694  ASN695  SER759  ASP760  ASP761  ALA762  ILE779  LEU786  VAL792 
 PHE793  MET794  SER795  GLU796  ALA797  LYS798  CYS799  TRP800  GLU811  SER814 

> <Gold.Protein.RotatedAtoms>
  150.8194  134.7394  159.6758 H   0  0  0  0  0  0  0  0  0  0  0  0  # atno 6907 bound_to 6896
  152.4311  134.5772  159.9947 H   0  0  0  0  0  0  0  0  0  0  0  0  # atno 6908 bound_to 6896
  151.5960  133.3324  159.3073 H   0  0  0  0  0  0  0  0  0  0  0  0  # atno 6909 bound_to 6896
  146.2043  139.7934  142.8737 H   0  0  0  0  0  0  0  0  0  0  0  0  # atno 7974 bound_to 7965
  155.7847  140.3481  155.5316 H   0  0  0  0  0  0  0  0  0  0  0  0  # atno 8008 bound_to 7997
  155.8693  140.0984  157.1581 H   0  0  0  0  0  0  0  0  0  0  0  0  # atno 8009 bound_to 7997
  154.4016  140.1343  156.4046 H   0  0  0  0  0  0  0  0  0  0  0  0  # atno 8010 bound_to 7997
  139.5425  144.6743  151.4579 H   0  0  0  0  0  0  0  0  0  0  0  0  # atno 10167 bound_to 10162
  156.0112  130.4524  150.3531 H   0  0  0  0  0  0  0  0  0  0  0  0  # atno 10718 bound_to 10713
  153.0132  135.5326  154.6797 H   0  0  0  0  0  0  0  0  0  0  0  0  # atno 10763 bound_to 10752
  154.5960  135.2863  155.0587 H   0  0  0  0  0  0  0  0  0  0  0  0  # atno 10764 bound_to 10752
  154.1662  135.6539  153.5050 H   0  0  0  0  0  0  0  0  0  0  0  0  # atno 10765 bound_to 10752
  141.1548  133.7745  156.9857 H   0  0  0  0  0  0  0  0  0  0  0  0  # atno 11005 bound_to 11000
  145.3373  141.0280  143.3412 LP  0  0  0  0  0  0  0  0  0  0  0  0  # atno 17320 bound_to 7965
  144.8756  139.4975  143.6747 LP  0  0  0  0  0  0  0  0  0  0  0  0  # atno 17321 bound_to 7965
  140.6661  143.8396  150.6943 LP  0  0  0  0  0  0  0  0  0  0  0  0  # atno 17342 bound_to 10162
  140.1805  143.4119  152.1936 LP  0  0  0  0  0  0  0  0  0  0  0  0  # atno 17343 bound_to 10162
  157.1622  131.0348  151.2835 LP  0  0  0  0  0  0  0  0  0  0  0  0  # atno 17370 bound_to 10713
  157.4301  130.7486  149.6983 LP  0  0  0  0  0  0  0  0  0  0  0  0  # atno 17371 bound_to 10713
  140.1036  134.9520  157.1961 LP  0  0  0  0  0  0  0  0  0  0  0  0  # atno 17394 bound_to 11000
  140.3285  134.2836  155.7232 LP  0  0  0  0  0  0  0  0  0  0  0  0  # atno 17395 bound_to 11000

$$$$
