AV-unprocessed.smi:72|AV-procd|sdf|750|dock5
  -GOLD-   2262017 83D 1   1.00000     0.00000
 Structure written by MMmdl.
 29 30  0  0  0  0  0  0  0  0  1 V2000
  155.4782  135.8850  158.3203 N   0  0  0  0  0  0  0  0  0  0  0  0
  154.2944  136.4245  157.8621 C   0  0  0  0  0  0  0  0  0  0  0  0
  153.1153  135.8888  158.3988 N   0  0  0  0  0  0  0  0  0  0  0  0
  152.0017  136.3892  157.9657 C   0  0  0  0  0  0  0  0  0  0  0  0
  151.9872  137.4447  156.9686 N   0  0  0  0  0  0  0  0  0  0  0  0
  150.6840  138.0299  156.4654 C   0  0  1  0  0  0  0  0  0  0  0  0
  150.7464  139.4176  156.5695 O   0  0  0  0  0  0  0  0  0  0  0  0
  149.9486  139.9848  155.5425 C   0  0  1  0  0  0  0  0  0  0  0  0
  150.3662  141.4434  155.3028 C   0  0  0  0  0  0  0  0  0  0  0  0
  149.5846  142.0059  154.2708 O   0  0  0  0  0  0  0  0  0  0  0  0
  150.2291  139.0630  154.3504 C   0  0  2  0  0  0  0  0  0  0  0  0
  149.1407  139.0855  153.4481 O   0  0  0  0  0  0  0  0  0  0  0  0
  150.3733  137.6845  154.9905 C   0  0  1  0  0  0  0  0  0  0  0  0
  151.3796  136.9319  154.3369 O   0  0  0  0  0  0  0  0  0  0  0  0
  153.2210  137.9563  156.4824 C   0  0  0  0  0  0  0  0  0  0  0  0
  153.2324  138.8766  155.6650 O   0  0  0  0  0  0  0  0  0  0  0  0
  154.3947  137.3772  156.9796 N   0  0  0  0  0  0  0  0  0  0  0  0
  149.9019  137.6905  157.1462 H   0  0  0  0  0  0  0  0  0  0  0  0
  148.8968  139.9143  155.8292 H   0  0  0  0  0  0  0  0  0  0  0  0
  151.1524  139.3618  153.8504 H   0  0  0  0  0  0  0  0  0  0  0  0
  149.4343  137.1290  154.9718 H   0  0  0  0  0  0  0  0  0  0  0  0
  156.3873  136.1920  158.0066 H   0  0  0  0  0  0  0  0  0  0  0  0
  155.5236  135.1423  159.0027 H   0  0  0  0  0  0  0  0  0  0  0  0
  151.0215  136.0635  158.3170 H   0  0  0  0  0  0  0  0  0  0  0  0
  150.2795  142.0367  156.2135 H   0  0  0  0  0  0  0  0  0  0  0  0
  151.4081  141.4879  154.9848 H   0  0  0  0  0  0  0  0  0  0  0  0
  149.4422  142.9192  154.4682 H   0  0  0  0  0  0  0  0  0  0  0  0
  149.4812  139.0636  152.5669 H   0  0  0  0  0  0  0  0  0  0  0  0
  151.0403  136.6356  153.5062 H   0  0  0  0  0  0  0  0  0  0  0  0
  1  2  1  0  0  0  0
  1 22  1  0  0  0  0
  1 23  1  0  0  0  0
  2 17  2  0  0  0  0
  2  3  1  0  0  0  0
  3  4  2  0  0  0  0
  4  5  1  0  0  0  0
  4 24  1  0  0  0  0
  5  6  1  0  0  0  0
  5 15  1  0  0  0  0
  6 18  1  0  0  0  0
  6 13  1  0  0  0  0
  6  7  1  0  0  0  0
  7  8  1  0  0  0  0
  8 19  1  0  0  0  0
  8  9  1  0  0  0  0
  8 11  1  0  0  0  0
  9 10  1  0  0  0  0
  9 25  1  0  0  0  0
  9 26  1  0  0  0  0
 10 27  1  0  0  0  0
 11 20  1  0  0  0  0
 11 12  1  0  0  0  0
 11 13  1  0  0  0  0
 12 28  1  0  0  0  0
 13 21  1  0  0  0  0
 13 14  1  0  0  0  0
 14 29  1  0  0  0  0
 15 16  2  0  0  0  0
 15 17  1  0  0  0  0
M  END
> <s_m_source_file>
AV-unprocessed.smi

> <i_m_source_file_index>
72

> <i_lp_mmshare_version>
43012

> <i_f3d_flags>
0

> <s_epik_input>
W05IMl1jMW5bY0hdbihjKD1PKW4xKVtDQEBIXTJPW0NASF0oW0NIMl1bT0hdKVtDQEBIXShbT0hdKVtDQEhdMltPSF0=

> <s_epik_cmdline>
J2VwaWtfcHl0aG9uJywgJy1waCcsICc3LjAnLCAnLXRuJywgJzgnLCAnLW1hJywgJzIwMCcsICctbWV0YWxfYmluZGluZycsICctaW1hZScsICc8aW5maWxlLm1hZT4nLCAnLW9tYWUnLCAnPG91dGZpbGUubWFlPic=

> <r_lp_tautomer_probability>
4.77166e-05

> <r_epik_Ionization_Penalty>
1.3546

> <r_epik_Ionization_Penalty_Charging>
1.46833e-10

> <r_epik_Ionization_Penalty_Neutral>
1.3546

> <r_epik_State_Penalty>
3.51908

> <r_epik_Charging_Adjusted_Penalty>
3.51908

> <i_epik_Tot_Q>
0

> <i_epik_Tot_abs_Q>
0

> <r_epik_Metal_State_Penalty>
3.44088

> <b_epik_Metal_Only>
1

> <s_epik_Chemistry_Notes>
This compound contains an acetal/aminal-like group ( X-CH(R)-Y where X, Y are N, S, or O) that may be acid/base labile, releasing an aldehyde.

> <s_lp_Force_Field>
OPLS_2005

> <r_lp_Energy>
31.5358

> <b_lp_Chiralities_Consistent>
1

> <s_lp_Variant>
AV-unprocessed.smi:72-88

> <Gold.Version>
5.8.1

> <Gold.Id.Protein>
6NUR|6NUR_protein|mol2

> <Gold.PLP.Fitness>
36.2733

> <Gold.PLP.PLP>
-21.3185

> <Gold.PLP.part.hbond>
-7.4413

> <Gold.PLP.part.metal>
0.0000

> <Gold.PLP.part.buried>
-2.6676

> <Gold.PLP.part.nonpolar>
-11.4169

> <Gold.PLP.part.repulsive>
0.0704

> <Gold.PLP.ligand.clash>
0.0000

> <Gold.PLP.ligand.torsion>
0.1759

> <Gold.PLP.Chemscore.Hbond>
5.0228

> <Gold.PLP.Chemscore.CHOScore>
0.0000

> <Gold.PLP.Chemscore.Metal>
0.0000

> <Gold.Chemscore.Hbonds>
donor molecule, donor type, donor heavy atom, donor atom, acceptor molecule, acceptor atom, score
      L1  H    10    27       P1  8028  0.55
      L1  H    12    28       P1  7957  0.85
      L1  H    14    29       P1  7949  0.78
      P1  H  6896  6907       L1     3  0.40
      P1  H  7997  8009       L1    16  1.00
      P1  H  8011  8017       L1    10  0.18
      P1  H 10752 10763       L1    14  0.55

> <Gold.PLP.Chemscore.Internal.Correction>
0.2382

> <Gold.Rescore>
     Score         DG    S(hbond)    S(metal)    S(lipo)     H(rot)  DE(clash)    DE(int)     intcor
      8.33     -10.33       3.64        0.00      26.24       4.06       0.00       2.00       ----

> <Gold.Chemscore.Fitness>
8.3263

> <Gold.Chemscore.DG>
-10.3293

> <Gold.Chemscore.ZeroCoef>
-5.4800

> <Gold.Chemscore.Hbond>
3.6444

> <Gold.Chemscore.Metal>
0.0000

> <Gold.Chemscore.Lipo>
26.2436

> <Gold.Chemscore.Internal_Hbond>
0.0000

> <Gold.Chemscore.DEClash>
0.0000

> <Gold.Chemscore.DEInternal>
2.0030

> <Gold.Chemscore.Rot>
4.0600

> <Gold.Chemscore.Internal.Correction>
   9.000000E+99

> <Gold.Chemscore.Hbonds>
donor molecule, donor type, donor heavy atom, donor atom, acceptor molecule, acceptor atom, score
      L1  H    10    27       P1  8028  0.56
      L1  H    12    28       P1  7957  0.80
      L1  H    14    29       P1  7949  0.23
      P1  H  6896  6907       L1     3  0.12
      P1  H  7997  8009       L1    16  0.58
      P1  H  8011  8017       L1    10  0.01
      P1  H 10752 10763       L1    14  0.03

> <Gold.Chemscore.Hbond.Weighted>
-12.1724

> <Gold.Chemscore.Metal.Weighted>
-0.0000

> <Gold.Chemscore.Lipo.Weighted>
-3.0705

> <Gold.Chemscore.Internal_Hbond.Weighted>
0.0000

> <Gold.Chemscore.DEClash.Weighted>
0.0000

> <Gold.Chemscore.DEInternal.Weighted>
2.0030

> <Gold.Chemscore.Rot.Weighted>
10.3936

> <Gold.Chemscore.Internal.Correction.Weighted>
   9.000000E+99

> <Gold.Protein.RotatedTorsions>
[ 6907 6896 6895 6894 ] final   61.44 input  -60.11 | X-H torsion
[ 7974 7965 7964 7962 ] final  132.20 input  175.53 | X-H torsion
[ 8008 7997 7996 7995 ] final -160.25 input   59.86 | X-H torsion
[ 10167 10162 10161 10158 ] final    0.13 input  -65.29 | X-H torsion
[ 10718 10713 10712 10709 ] final   66.71 input   66.30 | X-H torsion
[ 10763 10752 10751 10750 ] final   34.63 input  -60.55 | X-H torsion
[ 11005 11000 10999 10996 ] final -115.01 input  -57.11 | X-H torsion

> <Gold.Protein.ActiveResidues>
 VAL166  LYS551  ARG553  GLY616  TRP617  ASP618  TYR619  PRO620  LYS621  CYS622 
 ASP623  PHE694  ASN695  SER759  ASP760  ASP761  ALA762  ILE779  LEU786  VAL792 
 PHE793  MET794  SER795  GLU796  ALA797  LYS798  CYS799  TRP800  GLU811  SER814 

> <Gold.Protein.RotatedAtoms>
  152.4089  134.6159  160.0037 H   0  0  0  0  0  0  0  0  0  0  0  0  # atno 6907 bound_to 6896
  151.6343  133.3324  159.3124 H   0  0  0  0  0  0  0  0  0  0  0  0  # atno 6908 bound_to 6896
  150.7981  134.7096  159.6641 H   0  0  0  0  0  0  0  0  0  0  0  0  # atno 6909 bound_to 6896
  144.9993  139.4328  143.5300 H   0  0  0  0  0  0  0  0  0  0  0  0  # atno 7974 bound_to 7965
  155.7747  140.0857  157.2090 H   0  0  0  0  0  0  0  0  0  0  0  0  # atno 8008 bound_to 7997
  154.3994  140.1519  156.3040 H   0  0  0  0  0  0  0  0  0  0  0  0  # atno 8009 bound_to 7997
  155.8713  140.3425  155.5825 H   0  0  0  0  0  0  0  0  0  0  0  0  # atno 8010 bound_to 7997
  140.6742  143.6962  150.7988 H   0  0  0  0  0  0  0  0  0  0  0  0  # atno 10167 bound_to 10162
  157.6186  130.9282  150.0145 H   0  0  0  0  0  0  0  0  0  0  0  0  # atno 10718 bound_to 10713
  153.0155  135.6355  154.1699 H   0  0  0  0  0  0  0  0  0  0  0  0  # atno 10763 bound_to 10752
  154.1438  135.2833  155.3155 H   0  0  0  0  0  0  0  0  0  0  0  0  # atno 10764 bound_to 10752
  154.6105  135.5558  153.7529 H   0  0  0  0  0  0  0  0  0  0  0  0  # atno 10765 bound_to 10752
  141.0515  133.9680  157.2828 H   0  0  0  0  0  0  0  0  0  0  0  0  # atno 11005 bound_to 11000
  146.3448  139.9372  142.8745 LP  0  0  0  0  0  0  0  0  0  0  0  0  # atno 17320 bound_to 7965
  145.2175  140.9921  143.4065 LP  0  0  0  0  0  0  0  0  0  0  0  0  # atno 17321 bound_to 7965
  140.0652  143.5115  152.2607 LP  0  0  0  0  0  0  0  0  0  0  0  0  # atno 17342 bound_to 10162
  139.6026  144.7587  151.3136 LP  0  0  0  0  0  0  0  0  0  0  0  0  # atno 17343 bound_to 10162
  156.1319  130.3643  149.9717 LP  0  0  0  0  0  0  0  0  0  0  0  0  # atno 17370 bound_to 10713
  156.7776  130.9209  151.3645 LP  0  0  0  0  0  0  0  0  0  0  0  0  # atno 17371 bound_to 10713
  139.9354  135.0197  156.8539 LP  0  0  0  0  0  0  0  0  0  0  0  0  # atno 17394 bound_to 11000
  140.6046  134.0139  155.7551 LP  0  0  0  0  0  0  0  0  0  0  0  0  # atno 17395 bound_to 11000

$$$$
