AV-unprocessed.smi:845|AV-procd|sdf|3933|dock3
  -GOLD-   22720 1393D 1   1.00000     0.00000
 Structure written by MMmdl.
 41 42  0  0  0  0  0  0  0  0  2 V2000
  148.3132  141.4988  154.6143 C   0  0  0  0  0  0  0  0  0  0  0  0
  147.7554  140.6273  155.7523 C   0  0  0  0  0  0  0  0  0  0  0  0
  147.4394  141.4799  156.9967 C   0  0  0  0  0  0  0  0  0  0  0  0
  148.6067  139.3374  155.9800 C   0  0  2  0  0  0  0  0  0  0  0  0
  147.7697  138.1011  156.4073 C   0  0  0  0  0  0  0  0  0  0  0  0
  147.4189  138.1474  157.8249 N   0  0  0  0  0  0  0  0  0  0  0  0
  147.5256  137.1461  158.7102 C   0  0  0  0  0  0  0  0  0  0  0  0
  147.9399  136.0414  158.3515 O   0  0  0  0  0  0  0  0  0  0  0  0
  147.1443  137.4885  159.9618 N   0  5  0  0  0  0  0  0  0  0  0  0
  147.2757  136.6086  160.9678 C   0  0  0  0  0  0  0  0  0  0  0  0
  147.5791  136.9706  162.2197 N   0  0  0  0  0  0  0  0  0  0  0  0
  147.6601  135.8940  163.1048 C   0  0  0  0  0  0  0  0  0  0  0  0
  147.4021  134.6850  162.5153 C   0  0  0  0  0  0  0  0  0  0  0  0
  147.0493  134.8633  160.8202 S   0  0  0  0  0  0  0  0  0  0  0  0
  149.8482  139.5413  156.7538 N   0  0  0  0  0  0  0  0  0  0  0  0
  150.6607  138.3437  156.9663 C   0  0  0  0  0  0  0  0  0  0  0  0
  151.8765  138.6351  157.8626 C   0  0  0  0  0  0  0  0  0  0  0  0
  152.6537  139.6838  157.2931 O   0  0  0  0  0  0  0  0  0  0  0  0
  151.9074  140.8826  157.1092 C   0  0  0  0  0  0  0  0  0  0  0  0
  150.6930  140.6017  156.2082 C   0  0  0  0  0  0  0  0  0  0  0  0
  149.2671  141.9510  154.8872 H   0  0  0  0  0  0  0  0  0  0  0  0
  147.6244  142.3071  154.3675 H   0  0  0  0  0  0  0  0  0  0  0  0
  148.4689  140.9121  153.7086 H   0  0  0  0  0  0  0  0  0  0  0  0
  146.7849  140.2813  155.3947 H   0  0  0  0  0  0  0  0  0  0  0  0
  148.2872  142.0824  157.3152 H   0  0  0  0  0  0  0  0  0  0  0  0
  147.1093  140.8772  157.8413 H   0  0  0  0  0  0  0  0  0  0  0  0
  146.6328  142.1793  156.7756 H   0  0  0  0  0  0  0  0  0  0  0  0
  148.9396  139.0958  154.9692 H   0  0  0  0  0  0  0  0  0  0  0  0
  146.8299  138.0665  155.8583 H   0  0  0  0  0  0  0  0  0  0  0  0
  148.2944  137.1792  156.1570 H   0  0  0  0  0  0  0  0  0  0  0  0
  147.0731  139.0292  158.1739 H   0  0  0  0  0  0  0  0  0  0  0  0
  147.9059  136.0809  164.1395 H   0  0  0  0  0  0  0  0  0  0  0  0
  147.3967  133.7064  162.9709 H   0  0  0  0  0  0  0  0  0  0  0  0
  150.0773  137.5534  157.4265 H   0  0  0  0  0  0  0  0  0  0  0  0
  151.0153  137.9564  156.0109 H   0  0  0  0  0  0  0  0  0  0  0  0
  151.5561  138.9148  158.8674 H   0  0  0  0  0  0  0  0  0  0  0  0
  152.4972  137.7446  157.9607 H   0  0  0  0  0  0  0  0  0  0  0  0
  151.5885  141.2729  158.0769 H   0  0  0  0  0  0  0  0  0  0  0  0
  152.5501  141.6369  156.6552 H   0  0  0  0  0  0  0  0  0  0  0  0
  151.0491  140.3294  155.2146 H   0  0  0  0  0  0  0  0  0  0  0  0
  150.1139  141.5186  156.0939 H   0  0  0  0  0  0  0  0  0  0  0  0
  1  2  1  0  0  0  0
  1 21  1  0  0  0  0
  1 22  1  0  0  0  0
  1 23  1  0  0  0  0
  2  3  1  0  0  0  0
  2  4  1  0  0  0  0
  2 24  1  0  0  0  0
  3 25  1  0  0  0  0
  3 26  1  0  0  0  0
  3 27  1  0  0  0  0
  4  5  1  0  0  0  0
  4 15  1  0  0  0  0
  4 28  1  0  0  0  0
  5  6  1  0  0  0  0
  5 29  1  0  0  0  0
  5 30  1  0  0  0  0
  6  7  1  0  0  0  0
  6 31  1  0  0  0  0
  7  8  2  0  0  0  0
  7  9  1  0  0  0  0
  9 10  1  0  0  0  0
 10 14  1  0  0  0  0
 10 11  2  0  0  0  0
 11 12  1  0  0  0  0
 12 13  2  0  0  0  0
 12 32  1  0  0  0  0
 13 14  1  0  0  0  0
 13 33  1  0  0  0  0
 15 20  1  0  0  0  0
 15 16  1  0  0  0  0
 16 17  1  0  0  0  0
 16 34  1  0  0  0  0
 16 35  1  0  0  0  0
 17 18  1  0  0  0  0
 17 36  1  0  0  0  0
 17 37  1  0  0  0  0
 18 19  1  0  0  0  0
 19 20  1  0  0  0  0
 19 38  1  0  0  0  0
 19 39  1  0  0  0  0
 20 40  1  0  0  0  0
 20 41  1  0  0  0  0
M  CHG  1   9  -1
M  END
> <s_m_source_file>
AV-unprocessed.smi

> <i_m_source_file_index>
845

> <i_lp_mmshare_version>
43012

> <i_f3d_flags>
0

> <s_epik_input>
W0NIMl0xW0NIMl1PW0NIMl1bQ0gyXU4xW0NASF0oW0NIXShbQ0gzXSlbQ0gzXSlbQ0gyXVtOSF1DKD1PKVtOSF1jMm5bY0hdW2NIXXMy

> <s_epik_cmdline>
J2VwaWtfcHl0aG9uJywgJy1waCcsICc3LjAnLCAnLXRuJywgJzgnLCAnLW1hJywgJzIwMCcsICctbWV0YWxfYmluZGluZycsICctaW1hZScsICc8aW5maWxlLm1hZT4nLCAnLW9tYWUnLCAnPG91dGZpbGUubWFlPic=

> <r_lp_tautomer_probability>
0.999

> <r_epik_Ionization_Penalty>
9.02543

> <r_epik_Ionization_Penalty_Charging>
6.76546

> <r_epik_Ionization_Penalty_Neutral>
2.25997

> <r_epik_State_Penalty>
7.18984

> <r_epik_Charging_Adjusted_Penalty>
13.9553

> <i_epik_Tot_Q>
-1

> <i_epik_Tot_abs_Q>
1

> <r_epik_Metal_State_Penalty>
3.11401

> <b_epik_Metal_Only>
1

> <s_lp_Force_Field>
OPLS_2005

> <r_lp_Energy>
34.1255

> <b_lp_Chiralities_Consistent>
1

> <s_lp_Variant>
AV-unprocessed.smi:845-7

> <Gold.Version>
5.8.1

> <Gold.Id.Protein>
6NUR|6NUR_protein|mol2

> <Gold.PLP.Fitness>
36.7201

> <Gold.PLP.PLP>
-26.1873

> <Gold.PLP.part.hbond>
-3.4244

> <Gold.PLP.part.metal>
0.0000

> <Gold.PLP.part.buried>
-5.1740

> <Gold.PLP.part.nonpolar>
-18.1339

> <Gold.PLP.part.repulsive>
0.0798

> <Gold.PLP.ligand.clash>
0.0000

> <Gold.PLP.ligand.torsion>
0.9787

> <Gold.PLP.Chemscore.Hbond>
4.0000

> <Gold.PLP.Chemscore.CHOScore>
0.0000

> <Gold.PLP.Chemscore.Metal>
0.0000

> <Gold.Chemscore.Hbonds>
donor molecule, donor type, donor heavy atom, donor atom, acceptor molecule, acceptor atom, score
      P1  H  6931  6943       L1    11  1.00
      P1  H  6934  6947       L1     9  2.00
      P1  H  7997  8009       L1    18  1.00

> <Gold.PLP.Chemscore.Internal.Correction>
0.4903

> <Gold.Rescore>
     Score         DG    S(hbond)    S(metal)    S(lipo)     H(rot)  DE(clash)    DE(int)     intcor
     11.37     -14.67       2.02        0.00      58.29       1.71       0.05       3.26       ----

> <Gold.Chemscore.Fitness>
11.3651

> <Gold.Chemscore.DG>
-14.6732

> <Gold.Chemscore.ZeroCoef>
-5.4800

> <Gold.Chemscore.Hbond>
2.0197

> <Gold.Chemscore.Metal>
0.0000

> <Gold.Chemscore.Lipo>
58.2921

> <Gold.Chemscore.Internal_Hbond>
0.0000

> <Gold.Chemscore.DEClash>
0.0528

> <Gold.Chemscore.DEInternal>
3.2553

> <Gold.Chemscore.Rot>
1.7081

> <Gold.Chemscore.Internal.Correction>
   9.000000E+99

> <Gold.Chemscore.Hbonds>
donor molecule, donor type, donor heavy atom, donor atom, acceptor molecule, acceptor atom, score
      P1  H  6931  6943       L1    11  0.33
      P1  H  6934  6947       L1     9  0.24
      P1  H  7997  8009       L1    18  0.68

> <Gold.Chemscore.Hbond.Weighted>
-6.7458

> <Gold.Chemscore.Metal.Weighted>
-0.0000

> <Gold.Chemscore.Lipo.Weighted>
-6.8202

> <Gold.Chemscore.Internal_Hbond.Weighted>
0.0000

> <Gold.Chemscore.DEClash.Weighted>
0.0528

> <Gold.Chemscore.DEInternal.Weighted>
3.2553

> <Gold.Chemscore.Rot.Weighted>
4.3728

> <Gold.Chemscore.Internal.Correction.Weighted>
   9.000000E+99

> <Gold.Protein.RotatedTorsions>
[ 6907 6896 6895 6894 ] final    3.99 input  -60.11 | X-H torsion
[ 7974 7965 7964 7962 ] final   38.77 input  175.53 | X-H torsion
[ 8008 7997 7996 7995 ] final  160.73 input   59.86 | X-H torsion
[ 10167 10162 10161 10158 ] final    1.11 input  -65.29 | X-H torsion
[ 10718 10713 10712 10709 ] final  138.56 input   66.30 | X-H torsion
[ 10763 10752 10751 10750 ] final  -62.98 input  -60.55 | X-H torsion
[ 11005 11000 10999 10996 ] final  -65.64 input  -57.11 | X-H torsion

> <Gold.Protein.ActiveResidues>
 VAL166  LYS551  ARG553  GLY616  TRP617  ASP618  TYR619  PRO620  LYS621  CYS622 
 ASP623  PHE694  ASN695  SER759  ASP760  ASP761  ALA762  ILE779  LEU786  VAL792 
 PHE793  MET794  SER795  GLU796  ALA797  LYS798  CYS799  TRP800  GLU811  SER814 

> <Gold.Protein.RotatedAtoms>
  151.6341  135.1020  160.0127 H   0  0  0  0  0  0  0  0  0  0  0  0  # atno 6907 bound_to 6896
  152.4090  133.6930  159.6390 H   0  0  0  0  0  0  0  0  0  0  0  0  # atno 6908 bound_to 6896
  150.7982  133.8575  159.3263 H   0  0  0  0  0  0  0  0  0  0  0  0  # atno 6909 bound_to 6896
  146.1036  139.5732  142.9398 H   0  0  0  0  0  0  0  0  0  0  0  0  # atno 7974 bound_to 7965
  156.2152  140.1796  156.7605 H   0  0  0  0  0  0  0  0  0  0  0  0  # atno 8008 bound_to 7997
  154.5781  140.0671  156.9093 H   0  0  0  0  0  0  0  0  0  0  0  0  # atno 8009 bound_to 7997
  155.2551  140.3332  155.4281 H   0  0  0  0  0  0  0  0  0  0  0  0  # atno 8010 bound_to 7997
  140.6698  143.7080  150.7899 H   0  0  0  0  0  0  0  0  0  0  0  0  # atno 10167 bound_to 10162
  157.4239  131.1041  151.0323 H   0  0  0  0  0  0  0  0  0  0  0  0  # atno 10718 bound_to 10713
  154.3080  135.6221  153.5453 H   0  0  0  0  0  0  0  0  0  0  0  0  # atno 10763 bound_to 10752
  152.9832  135.5694  154.5209 H   0  0  0  0  0  0  0  0  0  0  0  0  # atno 10764 bound_to 10752
  154.4853  135.2865  155.1515 H   0  0  0  0  0  0  0  0  0  0  0  0  # atno 10765 bound_to 10752
  141.1460  133.6685  156.6018 H   0  0  0  0  0  0  0  0  0  0  0  0  # atno 11005 bound_to 11000
  145.5805  141.0383  143.2125 LP  0  0  0  0  0  0  0  0  0  0  0  0  # atno 17320 bound_to 7965
  144.7453  139.7338  143.7295 LP  0  0  0  0  0  0  0  0  0  0  0  0  # atno 17321 bound_to 7965
  140.0764  143.5011  152.2553 LP  0  0  0  0  0  0  0  0  0  0  0  0  # atno 17342 bound_to 10162
  139.5961  144.7567  151.3282 LP  0  0  0  0  0  0  0  0  0  0  0  0  # atno 17343 bound_to 10162
  157.1244  130.6075  149.5513 LP  0  0  0  0  0  0  0  0  0  0  0  0  # atno 17370 bound_to 10713
  155.9890  130.4935  150.7194 LP  0  0  0  0  0  0  0  0  0  0  0  0  # atno 17371 bound_to 10713
  140.3683  134.7628  157.4581 LP  0  0  0  0  0  0  0  0  0  0  0  0  # atno 17394 bound_to 11000
  140.0731  134.5835  155.8621 LP  0  0  0  0  0  0  0  0  0  0  0  0  # atno 17395 bound_to 11000

$$$$
