AV-unprocessed.smi:186|AV-procd|sdf|1466|dock6
  -GOLD-   2262019283D 1   1.00000     0.00000
 Structure written by MMmdl.
 48 51  0  0  0  0  0  0  0  0  1 V2000
  149.3000  130.4116  153.7667 C   0  0  0  0  0  0  0  0  0  0  0  0
  149.1838  131.5532  154.5975 O   0  0  0  0  0  0  0  0  0  0  0  0
  149.5088  132.7558  153.9169 C   0  0  0  0  0  0  0  0  0  0  0  0
  149.8934  133.8348  154.9308 C   0  0  0  0  0  0  0  0  0  0  0  0
  150.0434  133.5583  156.1215 O   0  0  0  0  0  0  0  0  0  0  0  0
  150.0490  135.0727  154.4403 N   0  0  0  0  0  0  0  0  0  0  0  0
  150.4139  136.2339  155.2409 C   0  0  0  0  0  0  0  0  0  0  0  0
  150.8148  137.4568  154.4130 C   0  0  0  0  0  0  0  0  0  0  0  0
  151.9502  137.6104  155.3216 N   0  0  0  0  0  0  0  0  0  0  0  0
  151.7302  138.6200  156.3086 C   0  0  0  0  0  0  0  0  0  0  0  0
  152.2390  138.3468  157.5378 N   0  0  0  0  0  0  0  0  0  0  0  0
  152.1080  139.2012  158.5551 C   0  0  0  0  0  0  0  0  0  0  0  0
  151.5057  140.3886  158.5707 N   0  0  0  0  0  0  0  0  0  0  0  0
  150.9853  140.6869  157.3478 C   0  0  0  0  0  0  0  0  0  0  0  0
  151.0506  139.8731  156.1772 C   0  0  0  0  0  0  0  0  0  0  0  0
  150.4114  140.5308  155.1305 N   0  0  0  0  0  0  0  0  0  0  0  0
  149.9944  141.6526  155.6481 C   0  0  0  0  0  0  0  0  0  0  0  0
  150.2910  141.8260  156.9788 N   0  0  0  0  0  0  0  0  0  0  0  0
  149.9486  142.9751  157.8032 C   0  0  0  0  0  0  0  0  0  0  0  0
  151.1520  143.9012  158.0960 C   0  0  1  0  0  0  0  0  0  0  0  0
  151.6418  144.4200  156.8711 O   0  0  0  0  0  0  0  0  0  0  0  0
  150.8306  145.0695  159.0237 C   0  0  0  0  0  0  0  0  0  0  0  0
  152.1439  145.2878  159.7614 C   0  0  0  0  0  0  0  0  0  0  0  0
  152.5982  143.9632  159.9806 O   0  0  0  0  0  0  0  0  0  0  0  0
  152.3114  143.1882  158.8204 C   0  0  0  0  0  0  0  0  0  0  0  0
  151.8652  136.2053  155.7207 C   0  0  0  0  0  0  0  0  0  0  0  0
  149.0366  129.5185  154.3330 H   0  0  0  0  0  0  0  0  0  0  0  0
  150.3216  130.2910  153.4039 H   0  0  0  0  0  0  0  0  0  0  0  0
  148.6287  130.4772  152.9095 H   0  0  0  0  0  0  0  0  0  0  0  0
  150.3423  132.5891  153.2326 H   0  0  0  0  0  0  0  0  0  0  0  0
  148.6557  133.1027  153.3320 H   0  0  0  0  0  0  0  0  0  0  0  0
  149.9059  135.2199  153.4517 H   0  0  0  0  0  0  0  0  0  0  0  0
  149.7025  136.4710  156.0341 H   0  0  0  0  0  0  0  0  0  0  0  0
  151.1408  137.2166  153.3998 H   0  0  0  0  0  0  0  0  0  0  0  0
  150.0898  138.2721  154.4287 H   0  0  0  0  0  0  0  0  0  0  0  0
  152.5491  138.8873  159.4896 H   0  0  0  0  0  0  0  0  0  0  0  0
  149.4520  142.3877  155.0714 H   0  0  0  0  0  0  0  0  0  0  0  0
  149.1594  143.5338  157.2986 H   0  0  0  0  0  0  0  0  0  0  0  0
  149.5149  142.6117  158.7357 H   0  0  0  0  0  0  0  0  0  0  0  0
  150.9075  144.5728  156.2960 H   0  0  0  0  0  0  0  0  0  0  0  0
  150.4716  145.9601  158.5057 H   0  0  0  0  0  0  0  0  0  0  0  0
  150.0701  144.7776  159.7485 H   0  0  0  0  0  0  0  0  0  0  0  0
  152.8608  145.8266  159.1397 H   0  0  0  0  0  0  0  0  0  0  0  0
  152.0181  145.8319  160.6977 H   0  0  0  0  0  0  0  0  0  0  0  0
  152.0494  142.1750  159.1262 H   0  0  0  0  0  0  0  0  0  0  0  0
  153.2048  143.1186  158.1975 H   0  0  0  0  0  0  0  0  0  0  0  0
  152.0196  135.9888  156.7760 H   0  0  0  0  0  0  0  0  0  0  0  0
  152.5123  135.5866  155.0971 H   0  0  0  0  0  0  0  0  0  0  0  0
  1  2  1  0  0  0  0
  1 27  1  0  0  0  0
  1 28  1  0  0  0  0
  1 29  1  0  0  0  0
  2  3  1  0  0  0  0
  3  4  1  0  0  0  0
  3 30  1  0  0  0  0
  3 31  1  0  0  0  0
  4  5  2  0  0  0  0
  4  6  1  0  0  0  0
  6  7  1  0  0  0  0
  6 32  1  0  0  0  0
  7 26  1  0  0  0  0
  7  8  1  0  0  0  0
  7 33  1  0  0  0  0
  8  9  1  0  0  0  0
  8 34  1  0  0  0  0
  8 35  1  0  0  0  0
  9 10  1  0  0  0  0
  9 26  1  0  0  0  0
 10 15  1  0  0  0  0
 10 11  2  0  0  0  0
 11 12  1  0  0  0  0
 12 13  2  0  0  0  0
 12 36  1  0  0  0  0
 13 14  1  0  0  0  0
 14 18  1  0  0  0  0
 14 15  2  0  0  0  0
 15 16  1  0  0  0  0
 16 17  2  0  0  0  0
 17 18  1  0  0  0  0
 17 37  1  0  0  0  0
 18 19  1  0  0  0  0
 19 20  1  0  0  0  0
 19 38  1  0  0  0  0
 19 39  1  0  0  0  0
 20 25  1  0  0  0  0
 20 21  1  0  0  0  0
 20 22  1  0  0  0  0
 21 40  1  0  0  0  0
 22 23  1  0  0  0  0
 22 41  1  0  0  0  0
 22 42  1  0  0  0  0
 23 24  1  0  0  0  0
 23 43  1  0  0  0  0
 23 44  1  0  0  0  0
 24 25  1  0  0  0  0
 25 45  1  0  0  0  0
 25 46  1  0  0  0  0
 26 47  1  0  0  0  0
 26 48  1  0  0  0  0
M  END
> <s_m_source_file>
AV-unprocessed.smi

> <i_m_source_file_index>
186

> <i_lp_mmshare_version>
43012

> <i_f3d_flags>
0

> <s_epik_input>
W0NIM11PW0NIMl1DKD1PKVtOSF1bQ0hdMVtDSDJdTihbQ0gyXTEpYyhuW2NIXW4yKWMoYzIzKW5bY0hdbjNbQ0gyXVtDQEBdNChbT0hdKVtDSDJdW0NIMl1PW0NIMl00

> <s_epik_cmdline>
J2VwaWtfcHl0aG9uJywgJy1waCcsICc3LjAnLCAnLXRuJywgJzgnLCAnLW1hJywgJzIwMCcsICctbWV0YWxfYmluZGluZycsICctaW1hZScsICc8aW5maWxlLm1hZT4nLCAnLW9tYWUnLCAnPG91dGZpbGUubWFlPic=

> <r_lp_tautomer_probability>
1

> <r_epik_Ionization_Penalty>
0.00138671

> <r_epik_Ionization_Penalty_Charging>
0

> <r_epik_Ionization_Penalty_Neutral>
0.00138671

> <r_epik_State_Penalty>
0.000746021

> <r_epik_Charging_Adjusted_Penalty>
0.000746021

> <i_epik_Tot_Q>
0

> <i_epik_Tot_abs_Q>
0

> <r_epik_Metal_State_Penalty>
-0

> <b_epik_Metal_Only>
0

> <s_lp_Force_Field>
OPLS_2005

> <r_lp_Energy>
46.8047

> <b_lp_Chiralities_Consistent>
1

> <s_lp_Variant>
AV-unprocessed.smi:186-1

> <Gold.Version>
5.8.1

> <Gold.Id.Protein>
6NUR|6NUR_protein|mol2

> <Gold.PLP.Fitness>
46.4080

> <Gold.PLP.PLP>
-38.7138

> <Gold.PLP.part.hbond>
-3.4238

> <Gold.PLP.part.metal>
0.0000

> <Gold.PLP.part.buried>
-0.6110

> <Gold.PLP.part.nonpolar>
-35.1523

> <Gold.PLP.part.repulsive>
0.2373

> <Gold.PLP.ligand.clash>
0.0000

> <Gold.PLP.ligand.torsion>
1.1312

> <Gold.PLP.Chemscore.Hbond>
2.1206

> <Gold.PLP.Chemscore.CHOScore>
0.9983

> <Gold.PLP.Chemscore.Metal>
0.0000

> <Gold.Chemscore.Hbonds>
donor molecule, donor type, donor heavy atom, donor atom, acceptor molecule, acceptor atom, score
      L1  H     6    32       P1  7948  0.19
      L1  H    21    40       P1  8028  0.86
      P1  H  7989  7998       L1    16  0.90
      L1  C    17    37       P1  8028  1.00

> <Gold.PLP.Chemscore.Internal.Correction>
0.6000

> <Gold.Rescore>
     Score         DG    S(hbond)    S(metal)    S(lipo)     H(rot)  DE(clash)    DE(int)     intcor
     10.84     -12.23       1.88        0.00      77.51       3.36       0.02       1.36       ----

> <Gold.Chemscore.Fitness>
10.8436

> <Gold.Chemscore.DG>
-12.2262

> <Gold.Chemscore.ZeroCoef>
-5.4800

> <Gold.Chemscore.Hbond>
1.8816

> <Gold.Chemscore.Metal>
0.0000

> <Gold.Chemscore.Lipo>
77.5075

> <Gold.Chemscore.Internal_Hbond>
0.0000

> <Gold.Chemscore.DEClash>
0.0227

> <Gold.Chemscore.DEInternal>
1.3600

> <Gold.Chemscore.Rot>
3.3620

> <Gold.Chemscore.Internal.Correction>
   9.000000E+99

> <Gold.Chemscore.Hbonds>
donor molecule, donor type, donor heavy atom, donor atom, acceptor molecule, acceptor atom, score
      L1  H    21    40       P1  8028  0.83
      P1  H  7989  7998       L1    16  0.57

> <Gold.Chemscore.Hbond.Weighted>
-6.2846

> <Gold.Chemscore.Metal.Weighted>
-0.0000

> <Gold.Chemscore.Lipo.Weighted>
-9.0684

> <Gold.Chemscore.Internal_Hbond.Weighted>
0.0000

> <Gold.Chemscore.DEClash.Weighted>
0.0227

> <Gold.Chemscore.DEInternal.Weighted>
1.3600

> <Gold.Chemscore.Rot.Weighted>
8.6067

> <Gold.Chemscore.Internal.Correction.Weighted>
   9.000000E+99

> <Gold.Protein.RotatedTorsions>
[ 6907 6896 6895 6894 ] final  -48.44 input  -60.11 | X-H torsion
[ 7974 7965 7964 7962 ] final -129.85 input  175.53 | X-H torsion
[ 8008 7997 7996 7995 ] final -158.00 input   59.86 | X-H torsion
[ 10167 10162 10161 10158 ] final  119.43 input  -65.29 | X-H torsion
[ 10718 10713 10712 10709 ] final -156.48 input   66.30 | X-H torsion
[ 10763 10752 10751 10750 ] final -162.21 input  -60.55 | X-H torsion
[ 11005 11000 10999 10996 ] final   62.56 input  -57.11 | X-H torsion

> <Gold.Protein.ActiveResidues>
 VAL166  LYS551  ARG553  GLY616  TRP617  ASP618  TYR619  PRO620  LYS621  CYS622 
 ASP623  PHE694  ASN695  SER759  ASP760  ASP761  ALA762  ILE779  LEU786  VAL792 
 PHE793  MET794  SER795  GLU796  ALA797  LYS798  CYS799  TRP800  GLU811  SER814 

> <Gold.Protein.RotatedAtoms>
  150.8906  134.8309  159.7290 H   0  0  0  0  0  0  0  0  0  0  0  0  # atno 6907 bound_to 6896
  152.4834  134.4654  159.9628 H   0  0  0  0  0  0  0  0  0  0  0  0  # atno 6908 bound_to 6896
  151.4718  133.3528  159.2860 H   0  0  0  0  0  0  0  0  0  0  0  0  # atno 6909 bound_to 6896
  144.9532  140.7367  143.4775 H   0  0  0  0  0  0  0  0  0  0  0  0  # atno 7974 bound_to 7965
  155.7410  140.0814  157.2246 H   0  0  0  0  0  0  0  0  0  0  0  0  # atno 8008 bound_to 7997
  154.4022  140.1578  156.2671 H   0  0  0  0  0  0  0  0  0  0  0  0  # atno 8009 bound_to 7997
  155.9020  140.3409  155.6036 H   0  0  0  0  0  0  0  0  0  0  0  0  # atno 8010 bound_to 7997
  139.6047  144.7066  151.2982 H   0  0  0  0  0  0  0  0  0  0  0  0  # atno 10167 bound_to 10162
  156.5272  130.8504  151.2703 H   0  0  0  0  0  0  0  0  0  0  0  0  # atno 10718 bound_to 10713
  154.7234  135.3030  154.9010 H   0  0  0  0  0  0  0  0  0  0  0  0  # atno 10763 bound_to 10752
  153.9874  135.6723  153.4756 H   0  0  0  0  0  0  0  0  0  0  0  0  # atno 10764 bound_to 10752
  153.0854  135.4987  154.8504 H   0  0  0  0  0  0  0  0  0  0  0  0  # atno 10765 bound_to 10752
  140.0084  134.6334  155.9819 H   0  0  0  0  0  0  0  0  0  0  0  0  # atno 11005 bound_to 11000
  145.2812  139.1918  143.4790 LP  0  0  0  0  0  0  0  0  0  0  0  0  # atno 17320 bound_to 7965
  146.3328  140.2774  142.8608 LP  0  0  0  0  0  0  0  0  0  0  0  0  # atno 17321 bound_to 7965
  140.7276  143.6959  150.7884 LP  0  0  0  0  0  0  0  0  0  0  0  0  # atno 17342 bound_to 10162
  140.0543  143.5218  152.2659 LP  0  0  0  0  0  0  0  0  0  0  0  0  # atno 17343 bound_to 10162
  157.7427  130.9897  150.2540 LP  0  0  0  0  0  0  0  0  0  0  0  0  # atno 17370 bound_to 10713
  156.3094  130.3769  149.7676 LP  0  0  0  0  0  0  0  0  0  0  0  0  # atno 17371 bound_to 10713
  141.1693  133.6537  156.4594 LP  0  0  0  0  0  0  0  0  0  0  0  0  # atno 17394 bound_to 11000
  140.4599  134.6851  157.5080 LP  0  0  0  0  0  0  0  0  0  0  0  0  # atno 17395 bound_to 11000

$$$$
