AV-unprocessed.smi:99|AV-procd|sdf|874|dock6
  -GOLD-   2262017343D 1   1.00000     0.00000
 Structure written by MMmdl.
 53 56  0  0  0  0  0  0  0  0  1 V2000
  152.0480  135.3358  156.5716 O   0  0  0  0  0  0  0  0  0  0  0  0
  151.0120  135.5139  155.9274 C   0  0  0  0  0  0  0  0  0  0  0  0
  150.4775  136.7292  155.6967 O   0  0  0  0  0  0  0  0  0  0  0  0
  151.3108  137.8762  155.6750 C   0  0  0  0  0  0  0  0  0  0  0  0
  150.5072  139.0779  155.1685 C   0  0  1  0  0  0  0  0  0  0  0  0
  149.7195  138.6987  154.0504 O   0  0  0  0  0  0  0  0  0  0  0  0
  148.6034  139.5278  153.9614 C   0  0  1  0  0  0  0  0  0  0  0  0
  147.4164  138.6598  153.5996 N   0  0  0  0  0  0  0  0  0  0  0  0
  147.1023  137.5430  154.3624 C   0  0  0  0  0  0  0  0  0  0  0  0
  146.0627  136.7232  154.0799 C   0  0  0  0  0  0  0  0  0  0  0  0
  145.2052  136.9865  152.9287 C   0  0  0  0  0  0  0  0  0  0  0  0
  144.2421  136.3015  152.5909 O   0  0  0  0  0  0  0  0  0  0  0  0
  145.5557  138.1215  152.1914 N   0  0  0  0  0  0  0  0  0  0  0  0
  146.6232  138.9757  152.4741 C   0  0  0  0  0  0  0  0  0  0  0  0
  146.8299  139.9559  151.7600 O   0  0  0  0  0  0  0  0  0  0  0  0
  148.4328  140.2562  155.3135 C   0  0  1  0  0  0  0  0  0  0  0  0
  147.1464  140.1367  155.8936 O   0  0  0  0  0  0  0  0  0  0  0  0
  149.4845  139.5832  156.1858 C   0  0  2  0  0  0  0  0  0  0  0  0
  150.1037  140.5291  157.0487 O   0  0  0  0  0  0  0  0  0  0  0  0
  150.6330  141.6693  156.5559 C   0  0  0  0  0  0  0  0  0  0  0  0
  150.6000  141.9795  155.3633 O   0  0  0  0  0  0  0  0  0  0  0  0
  151.2640  142.5172  157.6078 C   0  0  0  0  0  0  0  0  0  0  0  0
  151.6060  141.9369  158.8516 C   0  0  0  0  0  0  0  0  0  0  0  0
  152.1991  142.7125  159.8666 C   0  0  0  0  0  0  0  0  0  0  0  0
  152.4565  144.0787  159.6505 C   0  0  0  0  0  0  0  0  0  0  0  0
  152.1209  144.6680  158.4176 C   0  0  0  0  0  0  0  0  0  0  0  0
  151.5286  143.8936  157.4007 C   0  0  0  0  0  0  0  0  0  0  0  0
  150.2195  134.4058  155.3204 C   0  0  0  0  0  0  0  0  0  0  0  0
  149.0147  134.7063  154.6430 C   0  0  0  0  0  0  0  0  0  0  0  0
  148.2442  133.6814  154.0605 C   0  0  0  0  0  0  0  0  0  0  0  0
  148.6694  132.3431  154.1476 C   0  0  0  0  0  0  0  0  0  0  0  0
  149.8671  132.0310  154.8168 C   0  0  0  0  0  0  0  0  0  0  0  0
  150.6387  133.0547  155.4006 C   0  0  0  0  0  0  0  0  0  0  0  0
  144.9871  138.3436  151.3872 H   0  0  0  0  0  0  0  0  0  0  0  0
  151.7152  138.0805  156.6675 H   0  0  0  0  0  0  0  0  0  0  0  0
  152.1531  137.6865  155.0084 H   0  0  0  0  0  0  0  0  0  0  0  0
  151.1680  139.8935  154.8683 H   0  0  0  0  0  0  0  0  0  0  0  0
  148.7718  140.2210  153.1361 H   0  0  0  0  0  0  0  0  0  0  0  0
  147.7077  137.3117  155.2272 H   0  0  0  0  0  0  0  0  0  0  0  0
  145.8635  135.8678  154.7092 H   0  0  0  0  0  0  0  0  0  0  0  0
  148.6726  141.3094  155.1595 H   0  0  0  0  0  0  0  0  0  0  0  0
  146.6640  139.4771  155.4188 H   0  0  0  0  0  0  0  0  0  0  0  0
  149.0586  138.7307  156.7182 H   0  0  0  0  0  0  0  0  0  0  0  0
  151.4170  140.8901  159.0418 H   0  0  0  0  0  0  0  0  0  0  0  0
  152.4555  142.2584  160.8125 H   0  0  0  0  0  0  0  0  0  0  0  0
  152.9104  144.6736  160.4294 H   0  0  0  0  0  0  0  0  0  0  0  0
  152.3172  145.7171  158.2514 H   0  0  0  0  0  0  0  0  0  0  0  0
  151.2818  144.3778  156.4672 H   0  0  0  0  0  0  0  0  0  0  0  0
  148.6673  135.7266  154.5632 H   0  0  0  0  0  0  0  0  0  0  0  0
  147.3257  133.9231  153.5462 H   0  0  0  0  0  0  0  0  0  0  0  0
  148.0780  131.5573  153.7014 H   0  0  0  0  0  0  0  0  0  0  0  0
  150.1948  131.0040  154.8830 H   0  0  0  0  0  0  0  0  0  0  0  0
  151.5529  132.7802  155.9064 H   0  0  0  0  0  0  0  0  0  0  0  0
  1  2  2  0  0  0  0
  2  3  1  0  0  0  0
  2 28  1  0  0  0  0
  3  4  1  0  0  0  0
  4  5  1  0  0  0  0
  4 35  1  0  0  0  0
  4 36  1  0  0  0  0
  5 18  1  0  0  0  0
  5  6  1  0  0  0  0
  5 37  1  0  0  0  0
  6  7  1  0  0  0  0
  7  8  1  0  0  0  0
  7 16  1  0  0  0  0
  7 38  1  0  0  0  0
  8 14  1  0  0  0  0
  8  9  1  0  0  0  0
  9 10  2  0  0  0  0
  9 39  1  0  0  0  0
 10 11  1  0  0  0  0
 10 40  1  0  0  0  0
 11 12  2  0  0  0  0
 11 13  1  0  0  0  0
 13 34  1  0  0  0  0
 13 14  1  0  0  0  0
 14 15  2  0  0  0  0
 16 17  1  0  0  0  0
 16 18  1  0  0  0  0
 16 41  1  0  0  0  0
 17 42  1  0  0  0  0
 18 19  1  0  0  0  0
 18 43  1  0  0  0  0
 19 20  1  0  0  0  0
 20 21  2  0  0  0  0
 20 22  1  0  0  0  0
 22 27  1  0  0  0  0
 22 23  2  0  0  0  0
 23 24  1  0  0  0  0
 23 44  1  0  0  0  0
 24 25  2  0  0  0  0
 24 45  1  0  0  0  0
 25 26  1  0  0  0  0
 25 46  1  0  0  0  0
 26 27  2  0  0  0  0
 26 47  1  0  0  0  0
 27 48  1  0  0  0  0
 28 33  1  0  0  0  0
 28 29  2  0  0  0  0
 29 30  1  0  0  0  0
 29 49  1  0  0  0  0
 30 31  2  0  0  0  0
 30 50  1  0  0  0  0
 31 32  1  0  0  0  0
 31 51  1  0  0  0  0
 32 33  2  0  0  0  0
 32 52  1  0  0  0  0
 33 53  1  0  0  0  0
M  END
> <s_m_source_file>
AV-unprocessed.smi

> <i_m_source_file_index>
99

> <i_lp_mmshare_version>
43012

> <i_f3d_flags>
0

> <s_epik_input>
W2NIXTFbY0hdW2NIXVtjSF1bY0hdYzFDKD1PKU9bQ0gyXVtDQEBIXTJPW0NAQEhdKG4zW2NIXVtjSF1jKD1PKVtuSF1jMz1PKVtDQEBIXShbT0hdKVtDQEhdMk9DKD1PKWM0W2NIXVtjSF1bY0hdW2NIXVtjSF00

> <s_epik_cmdline>
J2VwaWtfcHl0aG9uJywgJy1waCcsICc3LjAnLCAnLXRuJywgJzgnLCAnLW1hJywgJzIwMCcsICctbWV0YWxfYmluZGluZycsICctaW1hZScsICc8aW5maWxlLm1hZT4nLCAnLW9tYWUnLCAnPG91dGZpbGUubWFlPic=

> <r_lp_tautomer_probability>
1

> <r_epik_Ionization_Penalty>
0.00454555

> <r_epik_Ionization_Penalty_Charging>
0.0045191

> <r_epik_Ionization_Penalty_Neutral>
2.64449e-05

> <r_epik_State_Penalty>
-0

> <r_epik_Charging_Adjusted_Penalty>
0.0045191

> <i_epik_Tot_Q>
0

> <i_epik_Tot_abs_Q>
0

> <r_epik_Metal_State_Penalty>
1.27877

> <b_epik_Metal_Only>
0

> <s_epik_Chemistry_Notes>
This compound has an ester and may undergo hydrolysis at high or low pH. This compound contains an acetal/aminal-like group ( X-CH(R)-Y where X, Y are N, S, or O) that may be acid/base labile, releasing an aldehyde.

> <s_lp_Force_Field>
OPLS_2005

> <r_lp_Energy>
37.9182

> <b_lp_Chiralities_Consistent>
1

> <s_lp_Variant>
AV-unprocessed.smi:99-10

> <Gold.Version>
5.8.1

> <Gold.Id.Protein>
6NUR|6NUR_protein|mol2

> <Gold.PLP.Fitness>
54.1302

> <Gold.PLP.PLP>
-48.9287

> <Gold.PLP.part.hbond>
-4.0000

> <Gold.PLP.part.metal>
0.0000

> <Gold.PLP.part.buried>
-3.1148

> <Gold.PLP.part.nonpolar>
-44.8021

> <Gold.PLP.part.repulsive>
2.7507

> <Gold.PLP.ligand.clash>
0.0000

> <Gold.PLP.ligand.torsion>
0.7260

> <Gold.PLP.Chemscore.Hbond>
2.0499

> <Gold.PLP.Chemscore.CHOScore>
0.0000

> <Gold.PLP.Chemscore.Metal>
0.0000

> <Gold.Chemscore.Hbonds>
donor molecule, donor type, donor heavy atom, donor atom, acceptor molecule, acceptor atom, score
      L1  H    13    34       P1 10171  1.00
      P1  H  7989  7998       L1    21  0.04
      P1  H 10752 10764       L1     1  1.00

> <Gold.PLP.Chemscore.Internal.Correction>
0.5037

> <Gold.Rescore>
     Score         DG    S(hbond)    S(metal)    S(lipo)     H(rot)  DE(clash)    DE(int)     intcor
     11.25     -18.26       1.92        0.00     124.18       3.19       3.42       3.60       ----

> <Gold.Chemscore.Fitness>
11.2466

> <Gold.Chemscore.DG>
-18.2645

> <Gold.Chemscore.ZeroCoef>
-5.4800

> <Gold.Chemscore.Hbond>
1.9229

> <Gold.Chemscore.Metal>
0.0000

> <Gold.Chemscore.Lipo>
124.1817

> <Gold.Chemscore.Internal_Hbond>
0.0000

> <Gold.Chemscore.DEClash>
3.4155

> <Gold.Chemscore.DEInternal>
3.6024

> <Gold.Chemscore.Rot>
3.1903

> <Gold.Chemscore.Internal.Correction>
   9.000000E+99

> <Gold.Chemscore.Hbonds>
donor molecule, donor type, donor heavy atom, donor atom, acceptor molecule, acceptor atom, score
      L1  H    13    34       P1 10171  0.99
      P1  H  7989  7998       L1    21  0.04
      P1  H 10752 10764       L1     1  0.35

> <Gold.Chemscore.Hbond.Weighted>
-6.4224

> <Gold.Chemscore.Metal.Weighted>
-0.0000

> <Gold.Chemscore.Lipo.Weighted>
-14.5293

> <Gold.Chemscore.Internal_Hbond.Weighted>
0.0000

> <Gold.Chemscore.DEClash.Weighted>
3.4155

> <Gold.Chemscore.DEInternal.Weighted>
3.6024

> <Gold.Chemscore.Rot.Weighted>
8.1671

> <Gold.Chemscore.Internal.Correction.Weighted>
   9.000000E+99

> <Gold.Protein.RotatedTorsions>
[ 6907 6896 6895 6894 ] final   -4.72 input  -60.11 | X-H torsion
[ 7974 7965 7964 7962 ] final  100.06 input  175.53 | X-H torsion
[ 8008 7997 7996 7995 ] final  -66.44 input   59.86 | X-H torsion
[ 10167 10162 10161 10158 ] final  -79.31 input  -65.29 | X-H torsion
[ 10718 10713 10712 10709 ] final   32.70 input   66.30 | X-H torsion
[ 10763 10752 10751 10750 ] final  -13.11 input  -60.55 | X-H torsion
[ 11005 11000 10999 10996 ] final  -32.87 input  -57.11 | X-H torsion

> <Gold.Protein.ActiveResidues>
 VAL166  LYS551  ARG553  GLY616  TRP617  ASP618  TYR619  PRO620  LYS621  CYS622 
 ASP623  PHE694  ASN695  SER759  ASP760  ASP761  ALA762  ILE779  LEU786  VAL792 
 PHE793  MET794  SER795  GLU796  ALA797  LYS798  CYS799  TRP800  GLU811  SER814 

> <Gold.Protein.RotatedAtoms>
  151.4932  135.1058  159.9808 H   0  0  0  0  0  0  0  0  0  0  0  0  # atno 6907 bound_to 6896
  152.4732  133.8074  159.6996 H   0  0  0  0  0  0  0  0  0  0  0  0  # atno 6908 bound_to 6896
  150.8754  133.7384  159.2974 H   0  0  0  0  0  0  0  0  0  0  0  0  # atno 6909 bound_to 6896
  145.3906  139.2363  143.3354 H   0  0  0  0  0  0  0  0  0  0  0  0  # atno 7974 bound_to 7965
  154.4735  140.0912  156.7204 H   0  0  0  0  0  0  0  0  0  0  0  0  # atno 8008 bound_to 7997
  155.4660  140.3462  155.4301 H   0  0  0  0  0  0  0  0  0  0  0  0  # atno 8009 bound_to 7997
  156.1078  140.1439  156.9369 H   0  0  0  0  0  0  0  0  0  0  0  0  # atno 8010 bound_to 7997
  140.4605  143.2455  151.8356 H   0  0  0  0  0  0  0  0  0  0  0  0  # atno 10167 bound_to 10162
  157.2886  130.7291  149.6597 H   0  0  0  0  0  0  0  0  0  0  0  0  # atno 10718 bound_to 10713
  153.5084  135.7016  153.5794 H   0  0  0  0  0  0  0  0  0  0  0  0  # atno 10763 bound_to 10752
  153.3895  135.3899  155.1913 H   0  0  0  0  0  0  0  0  0  0  0  0  # atno 10764 bound_to 10752
  154.8705  135.3855  154.4562 H   0  0  0  0  0  0  0  0  0  0  0  0  # atno 10765 bound_to 10752
  140.9588  133.7177  156.1335 H   0  0  0  0  0  0  0  0  0  0  0  0  # atno 11005 bound_to 11000
  146.2799  140.4588  142.8780 LP  0  0  0  0  0  0  0  0  0  0  0  0  # atno 17320 bound_to 7965
  144.8443  140.6905  143.6209 LP  0  0  0  0  0  0  0  0  0  0  0  0  # atno 17321 bound_to 7965
  139.4806  144.5014  151.9056 LP  0  0  0  0  0  0  0  0  0  0  0  0  # atno 17342 bound_to 10162
  140.4099  144.2382  150.5889 LP  0  0  0  0  0  0  0  0  0  0  0  0  # atno 17343 bound_to 10162
  155.9666  130.4316  150.4926 LP  0  0  0  0  0  0  0  0  0  0  0  0  # atno 17370 bound_to 10713
  157.2884  131.0621  151.2150 LP  0  0  0  0  0  0  0  0  0  0  0  0  # atno 17371 bound_to 10713
  140.7498  134.4058  157.5543 LP  0  0  0  0  0  0  0  0  0  0  0  0  # atno 17394 bound_to 11000
  139.8871  134.8892  156.2548 LP  0  0  0  0  0  0  0  0  0  0  0  0  # atno 17395 bound_to 11000

$$$$
