AV-unprocessed.smi:255|AV-procd|sdf|1952|dock5
  -GOLD-   2262021 93D 1   1.00000     0.00000
 Structure written by MMmdl.
 44 47  0  0  0  0  0  0  0  0  1 V2000
  149.1707  136.1704  154.5742 O   0  0  0  0  0  0  0  0  0  0  0  0
  148.4010  137.0899  155.3180 C   0  0  0  0  0  0  0  0  0  0  0  0
  147.8377  138.1859  154.3867 C   0  0  1  0  0  0  0  0  0  0  0  0
  146.8085  139.1152  155.0328 C   0  0  0  0  0  0  0  0  0  0  0  0
  146.7491  140.2818  154.0446 C   0  0  1  0  0  0  0  0  0  0  0  0
  146.6182  141.4461  154.6807 F   0  0  0  0  0  0  0  0  0  0  0  0
  148.0641  140.2057  153.2485 C   0  0  0  0  0  0  0  0  0  0  0  0
  148.8293  139.0807  153.7852 N   0  0  0  0  0  0  0  0  0  0  0  0
  149.8944  139.4138  154.5580 C   0  0  0  0  0  0  0  0  0  0  0  0
  151.1348  138.9311  154.2782 N   0  0  0  0  0  0  0  0  0  0  0  0
  152.1810  139.2992  155.0231 C   0  0  0  0  0  0  0  0  0  0  0  0
  152.2099  140.1253  156.0710 N   0  0  0  0  0  0  0  0  0  0  0  0
  150.9660  140.6050  156.3602 C   0  0  0  0  0  0  0  0  0  0  0  0
  149.7662  140.3043  155.6572 C   0  0  0  0  0  0  0  0  0  0  0  0
  148.6985  140.9902  156.2205 N   0  0  0  0  0  0  0  0  0  0  0  0
  149.2387  141.6658  157.1978 C   0  0  0  0  0  0  0  0  0  0  0  0
  150.5932  141.4796  157.3675 N   0  0  0  0  0  0  0  0  0  0  0  0
  151.4447  142.1166  158.3627 C   0  0  0  0  0  0  0  0  0  0  0  0
  150.9290  143.4758  158.9033 C   0  0  1  0  0  0  0  0  0  0  0  0
  150.6205  144.2684  157.7710 O   0  0  0  0  0  0  0  0  0  0  0  0
  149.6755  143.3986  159.7750 C   0  0  0  0  0  0  0  0  0  0  0  0
  149.8325  144.5939  160.7049 C   0  0  0  0  0  0  0  0  0  0  0  0
  151.2200  144.5762  160.9894 O   0  0  0  0  0  0  0  0  0  0  0  0
  151.9175  144.2687  159.7874 C   0  0  0  0  0  0  0  0  0  0  0  0
  147.3564  137.6802  153.5479 H   0  0  0  0  0  0  0  0  0  0  0  0
  145.8953  140.1825  153.3737 H   0  0  0  0  0  0  0  0  0  0  0  0
  149.0177  136.3260  153.6546 H   0  0  0  0  0  0  0  0  0  0  0  0
  147.6047  136.5489  155.8307 H   0  0  0  0  0  0  0  0  0  0  0  0
  149.0441  137.5302  156.0805 H   0  0  0  0  0  0  0  0  0  0  0  0
  145.8389  138.6392  155.1809 H   0  0  0  0  0  0  0  0  0  0  0  0
  147.1666  139.4574  156.0048 H   0  0  0  0  0  0  0  0  0  0  0  0
  147.8552  140.0113  152.1962 H   0  0  0  0  0  0  0  0  0  0  0  0
  148.6156  141.1463  153.2901 H   0  0  0  0  0  0  0  0  0  0  0  0
  153.1312  138.8738  154.7360 H   0  0  0  0  0  0  0  0  0  0  0  0
  148.6574  142.3252  157.8257 H   0  0  0  0  0  0  0  0  0  0  0  0
  151.5745  141.4165  159.1893 H   0  0  0  0  0  0  0  0  0  0  0  0
  152.4339  142.2454  157.9213 H   0  0  0  0  0  0  0  0  0  0  0  0
  149.7271  144.0931  157.5174 H   0  0  0  0  0  0  0  0  0  0  0  0
  148.7435  143.4159  159.2085 H   0  0  0  0  0  0  0  0  0  0  0  0
  149.6702  142.4975  160.3849 H   0  0  0  0  0  0  0  0  0  0  0  0
  149.5684  145.5249  160.2010 H   0  0  0  0  0  0  0  0  0  0  0  0
  149.2335  144.5069  161.6116 H   0  0  0  0  0  0  0  0  0  0  0  0
  152.8201  143.7148  160.0340 H   0  0  0  0  0  0  0  0  0  0  0  0
  152.2356  145.1971  159.3104 H   0  0  0  0  0  0  0  0  0  0  0  0
  1  2  1  0  0  0  0
  1 27  1  0  0  0  0
  2  3  1  0  0  0  0
  2 28  1  0  0  0  0
  2 29  1  0  0  0  0
  3 25  1  0  0  0  0
  3  8  1  0  0  0  0
  3  4  1  0  0  0  0
  4  5  1  0  0  0  0
  4 30  1  0  0  0  0
  4 31  1  0  0  0  0
  5 26  1  0  0  0  0
  5  6  1  0  0  0  0
  5  7  1  0  0  0  0
  7  8  1  0  0  0  0
  7 32  1  0  0  0  0
  7 33  1  0  0  0  0
  8  9  1  0  0  0  0
  9 14  1  0  0  0  0
  9 10  2  0  0  0  0
 10 11  1  0  0  0  0
 11 12  2  0  0  0  0
 11 34  1  0  0  0  0
 12 13  1  0  0  0  0
 13 17  1  0  0  0  0
 13 14  2  0  0  0  0
 14 15  1  0  0  0  0
 15 16  2  0  0  0  0
 16 17  1  0  0  0  0
 16 35  1  0  0  0  0
 17 18  1  0  0  0  0
 18 19  1  0  0  0  0
 18 36  1  0  0  0  0
 18 37  1  0  0  0  0
 19 24  1  0  0  0  0
 19 20  1  0  0  0  0
 19 21  1  0  0  0  0
 20 38  1  0  0  0  0
 21 22  1  0  0  0  0
 21 39  1  0  0  0  0
 21 40  1  0  0  0  0
 22 23  1  0  0  0  0
 22 41  1  0  0  0  0
 22 42  1  0  0  0  0
 23 24  1  0  0  0  0
 24 43  1  0  0  0  0
 24 44  1  0  0  0  0
M  END
> <s_m_source_file>
AV-unprocessed.smi

> <i_m_source_file_index>
255

> <i_lp_mmshare_version>
43012

> <i_f3d_flags>
0

> <s_epik_input>
W09IXVtDSDJdW0NAQEhdMVtDSDJdW0NASF0oRilbQ0gyXU4xYyhuW2NIXW4yKWMoYzIzKW5bY0hdbjNbQ0gyXVtDQEBdNChbT0hdKVtDSDJdW0NIMl1PW0NIMl00

> <s_epik_cmdline>
J2VwaWtfcHl0aG9uJywgJy1waCcsICc3LjAnLCAnLXRuJywgJzgnLCAnLW1hJywgJzIwMCcsICctbWV0YWxfYmluZGluZycsICctaW1hZScsICc8aW5maWxlLm1hZT4nLCAnLW9tYWUnLCAnPG91dGZpbGUubWFlPic=

> <r_lp_tautomer_probability>
1

> <r_epik_Ionization_Penalty>
0.0058098

> <r_epik_Ionization_Penalty_Charging>
0

> <r_epik_Ionization_Penalty_Neutral>
0.0058098

> <r_epik_State_Penalty>
0.00411166

> <r_epik_Charging_Adjusted_Penalty>
0.00411166

> <i_epik_Tot_Q>
0

> <i_epik_Tot_abs_Q>
0

> <r_epik_Metal_State_Penalty>
-0

> <b_epik_Metal_Only>
0

> <s_lp_Force_Field>
OPLS_2005

> <r_lp_Energy>
52.3077

> <b_lp_Chiralities_Consistent>
1

> <s_lp_Variant>
AV-unprocessed.smi:255-4

> <Gold.Version>
5.8.1

> <Gold.Id.Protein>
6NUR|6NUR_protein|mol2

> <Gold.PLP.Fitness>
46.4724

> <Gold.PLP.PLP>
-36.9041

> <Gold.PLP.part.hbond>
-3.0000

> <Gold.PLP.part.metal>
0.0000

> <Gold.PLP.part.buried>
-0.4151

> <Gold.PLP.part.nonpolar>
-35.6249

> <Gold.PLP.part.repulsive>
2.8264

> <Gold.PLP.ligand.clash>
0.0000

> <Gold.PLP.ligand.torsion>
0.6148

> <Gold.PLP.Chemscore.Hbond>
3.0000

> <Gold.PLP.Chemscore.CHOScore>
0.5854

> <Gold.PLP.Chemscore.Metal>
0.0000

> <Gold.Chemscore.Hbonds>
donor molecule, donor type, donor heavy atom, donor atom, acceptor molecule, acceptor atom, score
      L1  H     1    27       P1  7948  1.00
      L1  H    20    38       P1  8028  0.38
      P1  H  7997  8009       L1    12  0.56

> <Gold.PLP.Chemscore.Internal.Correction>
0.0418

> <Gold.Rescore>
     Score         DG    S(hbond)    S(metal)    S(lipo)     H(rot)  DE(clash)    DE(int)     intcor
      6.93     -14.86       2.58        0.00      79.34       3.33       3.29       4.64       ----

> <Gold.Chemscore.Fitness>
6.9256

> <Gold.Chemscore.DG>
-14.8566

> <Gold.Chemscore.ZeroCoef>
-5.4800

> <Gold.Chemscore.Hbond>
2.5782

> <Gold.Chemscore.Metal>
0.0000

> <Gold.Chemscore.Lipo>
79.3445

> <Gold.Chemscore.Internal_Hbond>
0.0000

> <Gold.Chemscore.DEClash>
3.2881

> <Gold.Chemscore.DEInternal>
4.6430

> <Gold.Chemscore.Rot>
3.3273

> <Gold.Chemscore.Internal.Correction>
   9.000000E+99

> <Gold.Chemscore.Hbonds>
donor molecule, donor type, donor heavy atom, donor atom, acceptor molecule, acceptor atom, score
      L1  H     1    27       P1  7948  0.99
      L1  H    20    38       P1  8028  0.13
      P1  H  7997  8009       L1    12  0.07

> <Gold.Chemscore.Hbond.Weighted>
-8.6112

> <Gold.Chemscore.Metal.Weighted>
-0.0000

> <Gold.Chemscore.Lipo.Weighted>
-9.2833

> <Gold.Chemscore.Internal_Hbond.Weighted>
0.0000

> <Gold.Chemscore.DEClash.Weighted>
3.2881

> <Gold.Chemscore.DEInternal.Weighted>
4.6430

> <Gold.Chemscore.Rot.Weighted>
8.5179

> <Gold.Chemscore.Internal.Correction.Weighted>
   9.000000E+99

> <Gold.Protein.RotatedTorsions>
[ 6907 6896 6895 6894 ] final   21.17 input  -60.11 | X-H torsion
[ 7974 7965 7964 7962 ] final  -97.81 input  175.53 | X-H torsion
[ 8008 7997 7996 7995 ] final -156.44 input   59.86 | X-H torsion
[ 10167 10162 10161 10158 ] final  119.85 input  -65.29 | X-H torsion
[ 10718 10713 10712 10709 ] final  -62.65 input   66.30 | X-H torsion
[ 10763 10752 10751 10750 ] final -129.53 input  -60.55 | X-H torsion
[ 11005 11000 10999 10996 ] final   46.48 input  -57.11 | X-H torsion

> <Gold.Protein.ActiveResidues>
 VAL166  LYS551  ARG553  GLY616  TRP617  ASP618  TYR619  PRO620  LYS621  CYS622 
 ASP623  PHE694  ASN695  SER759  ASP760  ASP761  ALA762  ILE779  LEU786  VAL792 
 PHE793  MET794  SER795  GLU796  ALA797  LYS798  CYS799  TRP800  GLU811  SER814 

> <Gold.Protein.RotatedAtoms>
  151.9077  135.0352  160.0511 H   0  0  0  0  0  0  0  0  0  0  0  0  # atno 6907 bound_to 6896
  152.2305  133.5050  159.5221 H   0  0  0  0  0  0  0  0  0  0  0  0  # atno 6908 bound_to 6896
  150.7024  134.1139  159.4053 H   0  0  0  0  0  0  0  0  0  0  0  0  # atno 6909 bound_to 6896
  145.3288  140.9437  143.2674 H   0  0  0  0  0  0  0  0  0  0  0  0  # atno 7974 bound_to 7965
  155.7173  140.0785  157.2346 H   0  0  0  0  0  0  0  0  0  0  0  0  # atno 8008 bound_to 7997
  154.4050  140.1619  156.2416 H   0  0  0  0  0  0  0  0  0  0  0  0  # atno 8009 bound_to 7997
  155.9229  140.3396  155.6190 H   0  0  0  0  0  0  0  0  0  0  0  0  # atno 8010 bound_to 7997
  139.6019  144.7059  151.3042 H   0  0  0  0  0  0  0  0  0  0  0  0  # atno 10167 bound_to 10162
  156.0841  130.4211  150.1165 H   0  0  0  0  0  0  0  0  0  0  0  0  # atno 10718 bound_to 10713
  154.8757  135.3892  154.3936 H   0  0  0  0  0  0  0  0  0  0  0  0  # atno 10763 bound_to 10752
  153.4669  135.7029  153.6022 H   0  0  0  0  0  0  0  0  0  0  0  0  # atno 10764 bound_to 10752
  153.4496  135.3837  155.2244 H   0  0  0  0  0  0  0  0  0  0  0  0  # atno 10765 bound_to 10752
  140.1365  134.4639  155.8482 H   0  0  0  0  0  0  0  0  0  0  0  0  # atno 11005 bound_to 11000
  144.8881  139.4812  143.6691 LP  0  0  0  0  0  0  0  0  0  0  0  0  # atno 17320 bound_to 7965
  146.3054  139.7562  142.9060 LP  0  0  0  0  0  0  0  0  0  0  0  0  # atno 17321 bound_to 7965
  140.7256  143.7013  150.7843 LP  0  0  0  0  0  0  0  0  0  0  0  0  # atno 17342 bound_to 10162
  140.0591  143.5173  152.2637 LP  0  0  0  0  0  0  0  0  0  0  0  0  # atno 17343 bound_to 10162
  156.9190  130.9677  151.3551 LP  0  0  0  0  0  0  0  0  0  0  0  0  # atno 17370 bound_to 10713
  157.5969  130.8484  149.8743 LP  0  0  0  0  0  0  0  0  0  0  0  0  # atno 17371 bound_to 10713
  141.2179  133.6816  156.7166 LP  0  0  0  0  0  0  0  0  0  0  0  0  # atno 17394 bound_to 11000
  140.2776  134.8342  157.3904 LP  0  0  0  0  0  0  0  0  0  0  0  0  # atno 17395 bound_to 11000

$$$$
