AV-unprocessed.smi:678|AV-procd|sdf|3314|dock9
  -GOLD-   22720 0283D 1   1.00000     0.00000
 Structure written by MMmdl.
 51 52  0  0  0  0  0  0  0  0  2 V2000
  151.6907  141.3448  157.9676 C   0  0  0  0  0  0  0  0  0  0  0  0
  150.9770  140.8212  156.7334 C   0  0  0  0  0  0  0  0  0  0  0  0
  149.8452  141.3995  156.2759 C   0  0  0  0  0  0  0  0  0  0  0  0
  149.1634  140.8867  155.1124 C   0  0  0  0  0  0  0  0  0  0  0  0
  149.6798  139.8139  154.4964 C   0  0  0  0  0  0  0  0  0  0  0  0
  150.8573  139.1924  154.9519 N   0  0  0  0  0  0  0  0  0  0  0  0
  151.3293  138.0165  154.2009 C   0  0  0  0  0  0  0  0  0  0  0  0
  151.0764  136.7046  154.9546 C   0  0  0  0  0  0  0  0  0  0  0  0
  151.7601  136.4068  155.9344 O   0  0  0  0  0  0  0  0  0  0  0  0
  150.0957  135.9255  154.4749 N   0  0  0  0  0  0  0  0  0  0  0  0
  149.7544  134.5941  154.9651 C   0  0  0  0  0  0  0  0  0  0  0  0
  148.5143  134.0243  154.2496 C   0  0  1  0  0  0  0  0  0  0  0  0
  148.8513  133.2351  152.9599 C   0  0  0  0  0  0  0  0  0  0  0  0
  147.6454  132.6063  152.3634 N   0  3  2  0  0  0  0  0  0  0  0  0
  146.7818  133.5393  151.5899 C   0  0  0  0  0  0  0  0  0  0  0  0
  145.5426  132.8412  150.9891 C   0  0  0  0  0  0  0  0  0  0  0  0
  145.9638  131.7371  150.0084 C   0  0  0  0  0  0  0  0  0  0  0  0
  144.5975  133.8411  150.3034 C   0  0  0  0  0  0  0  0  0  0  0  0
  146.9144  131.8137  153.3810 C   0  0  0  0  0  0  0  0  0  0  0  0
  146.6254  132.6528  154.6375 C   0  0  0  0  0  0  0  0  0  0  0  0
  147.8495  133.1549  155.1598 O   0  0  0  0  0  0  0  0  0  0  0  0
  151.5456  139.6465  156.0463 C   0  0  0  0  0  0  0  0  0  0  0  0
  152.5801  139.0953  156.4290 O   0  0  0  0  0  0  0  0  0  0  0  0
  151.2317  142.2645  158.3318 H   0  0  0  0  0  0  0  0  0  0  0  0
  152.7378  141.5567  157.7481 H   0  0  0  0  0  0  0  0  0  0  0  0
  151.6482  140.6081  158.7700 H   0  0  0  0  0  0  0  0  0  0  0  0
  149.4330  142.2564  156.7884 H   0  0  0  0  0  0  0  0  0  0  0  0
  148.2578  141.3514  154.7508 H   0  0  0  0  0  0  0  0  0  0  0  0
  149.2259  139.3644  153.6252 H   0  0  0  0  0  0  0  0  0  0  0  0
  150.8407  137.9477  153.2282 H   0  0  0  0  0  0  0  0  0  0  0  0
  152.3935  138.1245  153.9807 H   0  0  0  0  0  0  0  0  0  0  0  0
  149.5761  136.2613  153.6766 H   0  0  0  0  0  0  0  0  0  0  0  0
  150.6004  133.9098  154.8809 H   0  0  0  0  0  0  0  0  0  0  0  0
  149.5449  134.6885  156.0308 H   0  0  0  0  0  0  0  0  0  0  0  0
  147.8481  134.8570  154.0194 H   0  0  0  0  0  0  0  0  0  0  0  0
  149.3418  133.8731  152.2274 H   0  0  0  0  0  0  0  0  0  0  0  0
  149.5633  132.4437  153.1971 H   0  0  0  0  0  0  0  0  0  0  0  0
  146.4368  134.3456  152.2386 H   0  0  0  0  0  0  0  0  0  0  0  0
  147.3651  134.0202  150.8048 H   0  0  0  0  0  0  0  0  0  0  0  0
  144.9828  132.3552  151.7864 H   0  0  0  0  0  0  0  0  0  0  0  0
  146.5409  132.1426  149.1766 H   0  0  0  0  0  0  0  0  0  0  0  0
  145.0949  131.2266  149.5921 H   0  0  0  0  0  0  0  0  0  0  0  0
  146.5767  130.9841  150.5050 H   0  0  0  0  0  0  0  0  0  0  0  0
  145.0942  134.3596  149.4827 H   0  0  0  0  0  0  0  0  0  0  0  0
  144.2371  134.5943  151.0042 H   0  0  0  0  0  0  0  0  0  0  0  0
  143.7227  133.3346  149.8944 H   0  0  0  0  0  0  0  0  0  0  0  0
  145.9936  131.4034  152.9649 H   0  0  0  0  0  0  0  0  0  0  0  0
  147.5321  130.9580  153.6562 H   0  0  0  0  0  0  0  0  0  0  0  0
  145.9395  133.4727  154.4188 H   0  0  0  0  0  0  0  0  0  0  0  0
  146.1474  132.0345  155.3974 H   0  0  0  0  0  0  0  0  0  0  0  0
  147.9757  131.9366  151.6832 H   0  0  0  0  0  0  0  0  0  0  0  0
  1  2  1  0  0  0  0
  1 24  1  0  0  0  0
  1 25  1  0  0  0  0
  1 26  1  0  0  0  0
  2 22  1  0  0  0  0
  2  3  2  0  0  0  0
  3  4  1  0  0  0  0
  3 27  1  0  0  0  0
  4  5  2  0  0  0  0
  4 28  1  0  0  0  0
  5  6  1  0  0  0  0
  5 29  1  0  0  0  0
  6  7  1  0  0  0  0
  6 22  1  0  0  0  0
  7  8  1  0  0  0  0
  7 30  1  0  0  0  0
  7 31  1  0  0  0  0
  8  9  2  0  0  0  0
  8 10  1  0  0  0  0
 10 11  1  0  0  0  0
 10 32  1  0  0  0  0
 11 12  1  0  0  0  0
 11 33  1  0  0  0  0
 11 34  1  0  0  0  0
 12 21  1  0  0  0  0
 12 13  1  0  0  0  0
 12 35  1  0  0  0  0
 13 14  1  0  0  0  0
 13 36  1  0  0  0  0
 13 37  1  0  0  0  0
 14 15  1  0  0  0  0
 14 19  1  0  0  0  0
 14 51  1  0  0  0  0
 15 16  1  0  0  0  0
 15 38  1  0  0  0  0
 15 39  1  0  0  0  0
 16 17  1  0  0  0  0
 16 18  1  0  0  0  0
 16 40  1  0  0  0  0
 17 41  1  0  0  0  0
 17 42  1  0  0  0  0
 17 43  1  0  0  0  0
 18 44  1  0  0  0  0
 18 45  1  0  0  0  0
 18 46  1  0  0  0  0
 19 20  1  0  0  0  0
 19 47  1  0  0  0  0
 19 48  1  0  0  0  0
 20 21  1  0  0  0  0
 20 49  1  0  0  0  0
 20 50  1  0  0  0  0
 22 23  2  0  0  0  0
M  CHG  1  14   1
M  END
> <s_m_source_file>
AV-unprocessed.smi

> <i_m_source_file_index>
678

> <i_lp_mmshare_version>
43012

> <i_f3d_flags>
0

> <s_epik_input>
W0NIM11jMVtjSF1bY0hdW2NIXW4oYzE9TylbQ0gyXUMoPU8pW05IXVtDSDJdW0NAQEhdMltDSDJdTihbQ0gyXVtDSDJdTzIpW0NIMl1bQ0hdKFtDSDNdKVtDSDNd

> <s_epik_cmdline>
J2VwaWtfcHl0aG9uJywgJy1waCcsICc3LjAnLCAnLXRuJywgJzgnLCAnLW1hJywgJzIwMCcsICctbWV0YWxfYmluZGluZycsICctaW1hZScsICc8aW5maWxlLm1hZT4nLCAnLW9tYWUnLCAnPG91dGZpbGUubWFlPic=

> <r_lp_tautomer_probability>
1

> <r_epik_Ionization_Penalty>
0.0975937

> <r_epik_Ionization_Penalty_Charging>
0.0975937

> <r_epik_Ionization_Penalty_Neutral>
6.27044e-08

> <r_epik_State_Penalty>
0.0877056

> <r_epik_Charging_Adjusted_Penalty>
0.185299

> <i_epik_Tot_Q>
1

> <i_epik_Tot_abs_Q>
1

> <r_epik_Metal_State_Penalty>
0.0877109

> <b_epik_Metal_Only>
0

> <s_lp_Force_Field>
OPLS_2005

> <r_lp_Energy>
27.4135

> <b_lp_Chiralities_Consistent>
1

> <s_lp_Variant>
AV-unprocessed.smi:678-2

> <Gold.Version>
5.8.1

> <Gold.Id.Protein>
6NUR|6NUR_protein|mol2

> <Gold.PLP.Fitness>
57.3357

> <Gold.PLP.PLP>
-43.8694

> <Gold.PLP.part.hbond>
-4.8951

> <Gold.PLP.part.metal>
0.0000

> <Gold.PLP.part.buried>
-1.2617

> <Gold.PLP.part.nonpolar>
-36.7162

> <Gold.PLP.part.repulsive>
0.1214

> <Gold.PLP.ligand.clash>
0.0000

> <Gold.PLP.ligand.torsion>
0.7161

> <Gold.PLP.Chemscore.Hbond>
4.0000

> <Gold.PLP.Chemscore.CHOScore>
0.9214

> <Gold.PLP.Chemscore.Metal>
0.0000

> <Gold.Chemscore.Hbonds>
donor molecule, donor type, donor heavy atom, donor atom, acceptor molecule, acceptor atom, score
      L1  H    10    32       P1  7948  1.00
      L1  H    14    51       P1 10747  0.99
      P1  H  7997  8009       L1    23  0.99
      P1  H 10752 10765       L1     9  0.85
      L1  C     5    29       P1  7957  0.82

> <Gold.PLP.Chemscore.Internal.Correction>
0.1342

> <Gold.Rescore>
     Score         DG    S(hbond)    S(metal)    S(lipo)     H(rot)  DE(clash)    DE(int)     intcor
     22.06     -23.44       3.49        0.00      95.20       1.89       0.34       1.05       ----

> <Gold.Chemscore.Fitness>
22.0550

> <Gold.Chemscore.DG>
-23.4417

> <Gold.Chemscore.ZeroCoef>
-5.4800

> <Gold.Chemscore.Hbond>
3.4892

> <Gold.Chemscore.Metal>
0.0000

> <Gold.Chemscore.Lipo>
95.2012

> <Gold.Chemscore.Internal_Hbond>
0.0000

> <Gold.Chemscore.DEClash>
0.3384

> <Gold.Chemscore.DEInternal>
1.0482

> <Gold.Chemscore.Rot>
1.8871

> <Gold.Chemscore.Internal.Correction>
   9.000000E+99

> <Gold.Chemscore.Hbonds>
donor molecule, donor type, donor heavy atom, donor atom, acceptor molecule, acceptor atom, score
      L1  H    10    32       P1  7948  0.54
      L1  H    14    51       P1 10747  0.92
      P1  H  7997  8009       L1    23  0.91
      P1  H 10752 10765       L1     9  0.15

> <Gold.Chemscore.Hbond.Weighted>
-11.6541

> <Gold.Chemscore.Metal.Weighted>
-0.0000

> <Gold.Chemscore.Lipo.Weighted>
-11.1385

> <Gold.Chemscore.Internal_Hbond.Weighted>
0.0000

> <Gold.Chemscore.DEClash.Weighted>
0.3384

> <Gold.Chemscore.DEInternal.Weighted>
1.0482

> <Gold.Chemscore.Rot.Weighted>
4.8309

> <Gold.Chemscore.Internal.Correction.Weighted>
   9.000000E+99

> <Gold.Protein.RotatedTorsions>
[ 6907 6896 6895 6894 ] final  -39.89 input  -60.11 | X-H torsion
[ 7974 7965 7964 7962 ] final  129.32 input  175.53 | X-H torsion
[ 8008 7997 7996 7995 ] final -174.63 input   59.86 | X-H torsion
[ 10167 10162 10161 10158 ] final   40.10 input  -65.29 | X-H torsion
[ 10718 10713 10712 10709 ] final  -80.61 input   66.30 | X-H torsion
[ 10763 10752 10751 10750 ] final -152.58 input  -60.55 | X-H torsion
[ 11005 11000 10999 10996 ] final  -44.33 input  -57.11 | X-H torsion

> <Gold.Protein.ActiveResidues>
 VAL166  LYS551  ARG553  GLY616  TRP617  ASP618  TYR619  PRO620  LYS621  CYS622 
 ASP623  PHE694  ASN695  SER759  ASP760  ASP761  ALA762  ILE779  LEU786  VAL792 
 PHE793  MET794  SER795  GLU796  ALA797  LYS798  CYS799  TRP800  GLU811  SER814 

> <Gold.Protein.RotatedAtoms>
  150.9849  134.9196  159.7865 H   0  0  0  0  0  0  0  0  0  0  0  0  # atno 6907 bound_to 6896
  152.5233  134.3360  159.9210 H   0  0  0  0  0  0  0  0  0  0  0  0  # atno 6908 bound_to 6896
  151.3367  133.3938  159.2702 H   0  0  0  0  0  0  0  0  0  0  0  0  # atno 6909 bound_to 6896
  145.0299  139.4055  143.5155 H   0  0  0  0  0  0  0  0  0  0  0  0  # atno 7974 bound_to 7965
  155.9725  140.1165  157.0800 H   0  0  0  0  0  0  0  0  0  0  0  0  # atno 8008 bound_to 7997
  154.4160  140.1160  156.5393 H   0  0  0  0  0  0  0  0  0  0  0  0  # atno 8009 bound_to 7997
  155.6578  140.3473  155.4774 H   0  0  0  0  0  0  0  0  0  0  0  0  # atno 8010 bound_to 7997
  140.3775  144.2023  150.6131 H   0  0  0  0  0  0  0  0  0  0  0  0  # atno 10167 bound_to 10162
  156.0066  130.4579  150.3827 H   0  0  0  0  0  0  0  0  0  0  0  0  # atno 10718 bound_to 10713
  154.7985  135.3233  154.7608 H   0  0  0  0  0  0  0  0  0  0  0  0  # atno 10763 bound_to 10752
  153.8282  135.6882  153.4822 H   0  0  0  0  0  0  0  0  0  0  0  0  # atno 10764 bound_to 10752
  153.1689  135.4631  154.9817 H   0  0  0  0  0  0  0  0  0  0  0  0  # atno 10765 bound_to 10752
  141.0443  133.6767  156.2858 H   0  0  0  0  0  0  0  0  0  0  0  0  # atno 11005 bound_to 11000
  146.3497  139.9844  142.8692 LP  0  0  0  0  0  0  0  0  0  0  0  0  # atno 17320 bound_to 7965
  145.1784  140.9755  143.4281 LP  0  0  0  0  0  0  0  0  0  0  0  0  # atno 17321 bound_to 7965
  140.4971  143.2329  151.8733 LP  0  0  0  0  0  0  0  0  0  0  0  0  # atno 17342 bound_to 10162
  139.4798  144.5101  151.8944 LP  0  0  0  0  0  0  0  0  0  0  0  0  # atno 17343 bound_to 10162
  157.1906  131.0414  151.2702 LP  0  0  0  0  0  0  0  0  0  0  0  0  # atno 17370 bound_to 10713
  157.4065  130.7361  149.6806 LP  0  0  0  0  0  0  0  0  0  0  0  0  # atno 17371 bound_to 10713
  140.6175  134.5395  157.5543 LP  0  0  0  0  0  0  0  0  0  0  0  0  # atno 17394 bound_to 11000
  139.9300  134.7982  156.0958 LP  0  0  0  0  0  0  0  0  0  0  0  0  # atno 17395 bound_to 11000

$$$$
