AV-unprocessed.smi:2067|AV-procd|sdf|8423|dock6
  -GOLD-   2272011113D 1   1.00000     0.00000
 Structure written by MMmdl.
 47 48  0  0  0  0  0  0  0  0  1 V2000
  152.0963  131.4334  156.0946 C   0  0  0  0  0  0  0  0  0  0  0  0
  150.6614  131.1168  155.6418 C   0  0  2  0  0  0  0  0  0  0  0  0
  150.5997  129.7328  154.9646 C   0  0  0  0  0  0  0  0  0  0  0  0
  149.1778  129.3889  154.4962 C   0  0  0  0  0  0  0  0  0  0  0  0
  148.6289  130.4749  153.5609 C   0  0  0  0  0  0  0  0  0  0  0  0
  148.6730  131.8553  154.2325 C   0  0  0  0  0  0  0  0  0  0  0  0
  150.1000  132.2107  154.7041 C   0  0  1  0  0  0  0  0  0  0  0  0
  150.0881  133.4350  155.4289 O   0  0  0  0  0  0  0  0  0  0  0  0
  149.4672  134.5215  154.7572 C   0  0  0  0  0  0  0  0  0  0  0  0
  150.4308  135.7113  154.7589 C   0  0  0  0  0  0  0  0  0  0  0  0
  149.7298  136.9541  154.4787 N   0  0  0  0  0  0  0  0  0  0  0  0
  150.0893  138.2370  154.8796 C   0  0  0  0  0  0  0  0  0  0  0  0
  151.1926  138.4637  155.6474 C   0  0  0  0  0  0  0  0  0  0  0  0
  152.0485  137.4236  156.1258 C   0  0  0  0  0  0  0  0  0  0  0  0
  152.7453  136.5922  156.5316 N   0  0  0  0  0  0  0  0  0  0  0  0
  151.5660  139.8052  156.0901 C   0  0  0  0  0  0  0  0  0  0  0  0
  152.5643  140.0512  156.7717 O   0  0  0  0  0  0  0  0  0  0  0  0
  150.6880  140.8288  155.6807 N   0  0  0  0  0  0  0  0  0  0  0  0
  151.0213  142.1712  156.1154 C   0  0  0  0  0  0  0  0  0  0  0  0
  149.5359  140.6218  154.8936 C   0  0  0  0  0  0  0  0  0  0  0  0
  148.7978  141.5550  154.5639 O   0  0  0  0  0  0  0  0  0  0  0  0
  149.2580  139.2921  154.4913 N   0  0  0  0  0  0  0  0  0  0  0  0
  148.0738  139.1473  153.6682 C   0  0  0  0  0  0  0  0  0  0  0  0
  152.7746  131.5027  155.2435 H   0  0  0  0  0  0  0  0  0  0  0  0
  152.4769  130.6592  156.7611 H   0  0  0  0  0  0  0  0  0  0  0  0
  152.1439  132.3789  156.6355 H   0  0  0  0  0  0  0  0  0  0  0  0
  150.0338  131.0802  156.5336 H   0  0  0  0  0  0  0  0  0  0  0  0
  151.2779  129.7102  154.1102 H   0  0  0  0  0  0  0  0  0  0  0  0
  150.9500  128.9648  155.6552 H   0  0  0  0  0  0  0  0  0  0  0  0
  149.1766  128.4244  153.9878 H   0  0  0  0  0  0  0  0  0  0  0  0
  148.5220  129.2833  155.3614 H   0  0  0  0  0  0  0  0  0  0  0  0
  149.2147  130.4968  152.6413 H   0  0  0  0  0  0  0  0  0  0  0  0
  147.6058  130.2343  153.2710 H   0  0  0  0  0  0  0  0  0  0  0  0
  148.3012  132.6005  153.5302 H   0  0  0  0  0  0  0  0  0  0  0  0
  147.9922  131.8674  155.0847 H   0  0  0  0  0  0  0  0  0  0  0  0
  150.7606  132.2967  153.8392 H   0  0  0  0  0  0  0  0  0  0  0  0
  149.2462  134.2408  153.7266 H   0  0  0  0  0  0  0  0  0  0  0  0
  148.5258  134.7993  155.2316 H   0  0  0  0  0  0  0  0  0  0  0  0
  150.9429  135.7892  155.7183 H   0  0  0  0  0  0  0  0  0  0  0  0
  151.1913  135.5411  153.9970 H   0  0  0  0  0  0  0  0  0  0  0  0
  149.2104  136.9131  153.6130 H   0  0  0  0  0  0  0  0  0  0  0  0
  150.2684  142.8937  155.8029 H   0  0  0  0  0  0  0  0  0  0  0  0
  151.9857  142.4233  155.6708 H   0  0  0  0  0  0  0  0  0  0  0  0
  151.0777  142.1555  157.2055 H   0  0  0  0  0  0  0  0  0  0  0  0
  147.2158  139.4308  154.2804 H   0  0  0  0  0  0  0  0  0  0  0  0
  147.9660  138.1208  153.3248 H   0  0  0  0  0  0  0  0  0  0  0  0
  148.1883  139.8025  152.8026 H   0  0  0  0  0  0  0  0  0  0  0  0
  1  2  1  0  0  0  0
  1 24  1  0  0  0  0
  1 25  1  0  0  0  0
  1 26  1  0  0  0  0
  2  7  1  0  0  0  0
  2  3  1  0  0  0  0
  2 27  1  0  0  0  0
  3  4  1  0  0  0  0
  3 28  1  0  0  0  0
  3 29  1  0  0  0  0
  4  5  1  0  0  0  0
  4 30  1  0  0  0  0
  4 31  1  0  0  0  0
  5  6  1  0  0  0  0
  5 32  1  0  0  0  0
  5 33  1  0  0  0  0
  6  7  1  0  0  0  0
  6 34  1  0  0  0  0
  6 35  1  0  0  0  0
  7  8  1  0  0  0  0
  7 36  1  0  0  0  0
  8  9  1  0  0  0  0
  9 10  1  0  0  0  0
  9 37  1  0  0  0  0
  9 38  1  0  0  0  0
 10 11  1  0  0  0  0
 10 39  1  0  0  0  0
 10 40  1  0  0  0  0
 11 12  1  0  0  0  0
 11 41  1  0  0  0  0
 12 22  1  0  0  0  0
 12 13  2  0  0  0  0
 13 14  1  0  0  0  0
 13 16  1  0  0  0  0
 14 15  3  0  0  0  0
 16 17  2  0  0  0  0
 16 18  1  0  0  0  0
 18 19  1  0  0  0  0
 18 20  1  0  0  0  0
 19 42  1  0  0  0  0
 19 43  1  0  0  0  0
 19 44  1  0  0  0  0
 20 21  2  0  0  0  0
 20 22  1  0  0  0  0
 22 23  1  0  0  0  0
 23 45  1  0  0  0  0
 23 46  1  0  0  0  0
 23 47  1  0  0  0  0
M  END
> <s_m_source_file>
AV-unprocessed.smi

> <i_m_source_file_index>
2067

> <i_lp_mmshare_version>
43012

> <i_f3d_flags>
0

> <s_epik_input>
W0NIM11bQ0BASF0xW0NIMl1bQ0gyXVtDSDJdW0NIMl1bQ0BIXTFPW0NIMl1bQ0gyXVtOSF1jMmMoQyNOKWMoPU8pbihbQ0gzXSljKD1PKW4yW0NIM10=

> <s_epik_cmdline>
J2VwaWtfcHl0aG9uJywgJy1waCcsICc3LjAnLCAnLXRuJywgJzgnLCAnLW1hJywgJzIwMCcsICctbWV0YWxfYmluZGluZycsICctaW1hZScsICc8aW5maWxlLm1hZT4nLCAnLW9tYWUnLCAnPG91dGZpbGUubWFlPic=

> <r_epik_Ionization_Penalty>
0.00056529

> <r_epik_Ionization_Penalty_Charging>
3.94678e-10

> <r_epik_Ionization_Penalty_Neutral>
0.000565289

> <r_epik_State_Penalty>
0.000354611

> <r_epik_Charging_Adjusted_Penalty>
0.000354611

> <i_epik_Tot_Q>
0

> <i_epik_Tot_abs_Q>
0

> <r_epik_Metal_State_Penalty>
-0

> <b_epik_Metal_Only>
0

> <s_lp_Force_Field>
OPLS_2005

> <r_lp_Energy>
32.0891

> <b_lp_Chiralities_Consistent>
1

> <s_lp_Variant>
AV-unprocessed.smi:2067-1

> <Gold.Version>
5.8.1

> <Gold.Id.Protein>
6NUR|6NUR_protein|mol2

> <Gold.PLP.Fitness>
45.2598

> <Gold.PLP.PLP>
-37.5434

> <Gold.PLP.part.hbond>
-3.0016

> <Gold.PLP.part.metal>
0.0000

> <Gold.PLP.part.buried>
-3.0435

> <Gold.PLP.part.nonpolar>
-31.0299

> <Gold.PLP.part.repulsive>
0.2018

> <Gold.PLP.ligand.clash>
8.7922

> <Gold.PLP.ligand.torsion>
0.6443

> <Gold.PLP.Chemscore.Hbond>
3.0000

> <Gold.PLP.Chemscore.CHOScore>
0.0000

> <Gold.PLP.Chemscore.Metal>
0.0000

> <Gold.Chemscore.Hbonds>
donor molecule, donor type, donor heavy atom, donor atom, acceptor molecule, acceptor atom, score
      L1  H    11    41       P1  7948  0.99
      P1  H  7997  8009       L1    17  1.00
      P1  H 10752 10764       L1    15  1.00

> <Gold.PLP.Chemscore.Internal.Correction>
8.7971

> <Gold.Rescore>
     Score         DG    S(hbond)    S(metal)    S(lipo)     H(rot)  DE(clash)    DE(int)     intcor
     15.15     -18.19       2.76        0.00      68.16       1.76       0.09       2.95       ----

> <Gold.Chemscore.Fitness>
15.1463

> <Gold.Chemscore.DG>
-18.1861

> <Gold.Chemscore.ZeroCoef>
-5.4800

> <Gold.Chemscore.Hbond>
2.7641

> <Gold.Chemscore.Metal>
0.0000

> <Gold.Chemscore.Lipo>
68.1636

> <Gold.Chemscore.Internal_Hbond>
0.0000

> <Gold.Chemscore.DEClash>
0.0924

> <Gold.Chemscore.DEInternal>
2.9474

> <Gold.Chemscore.Rot>
1.7583

> <Gold.Chemscore.Internal.Correction>
   9.000000E+99

> <Gold.Chemscore.Hbonds>
donor molecule, donor type, donor heavy atom, donor atom, acceptor molecule, acceptor atom, score
      L1  H    11    41       P1  7948  0.93
      P1  H  7997  8009       L1    17  0.99
      P1  H 10752 10764       L1    15  0.75

> <Gold.Chemscore.Hbond.Weighted>
-9.2321

> <Gold.Chemscore.Metal.Weighted>
-0.0000

> <Gold.Chemscore.Lipo.Weighted>
-7.9751

> <Gold.Chemscore.Internal_Hbond.Weighted>
0.0000

> <Gold.Chemscore.DEClash.Weighted>
0.0924

> <Gold.Chemscore.DEInternal.Weighted>
2.9474

> <Gold.Chemscore.Rot.Weighted>
4.5012

> <Gold.Chemscore.Internal.Correction.Weighted>
   9.000000E+99

> <Gold.Protein.RotatedTorsions>
[ 6907 6896 6895 6894 ] final  177.20 input  -60.11 | X-H torsion
[ 7974 7965 7964 7962 ] final  100.12 input  175.53 | X-H torsion
[ 8008 7997 7996 7995 ] final -165.88 input   59.86 | X-H torsion
[ 10167 10162 10161 10158 ] final -152.57 input  -65.29 | X-H torsion
[ 10718 10713 10712 10709 ] final -124.01 input   66.30 | X-H torsion
[ 10763 10752 10751 10750 ] final  -20.70 input  -60.55 | X-H torsion
[ 11005 11000 10999 10996 ] final -147.11 input  -57.11 | X-H torsion

> <Gold.Protein.ActiveResidues>
 VAL166  LYS551  ARG553  GLY616  TRP617  ASP618  TYR619  PRO620  LYS621  CYS622 
 ASP623  PHE694  ASN695  SER759  ASP760  ASP761  ALA762  ILE779  LEU786  VAL792 
 PHE793  MET794  SER795  GLU796  ALA797  LYS798  CYS799  TRP800  GLU811  SER814 

> <Gold.Protein.RotatedAtoms>
  151.7078  133.3312  159.3282 H   0  0  0  0  0  0  0  0  0  0  0  0  # atno 6907 bound_to 6896
  150.7707  134.6559  159.6322 H   0  0  0  0  0  0  0  0  0  0  0  0  # atno 6908 bound_to 6896
  152.3730  134.6708  160.0221 H   0  0  0  0  0  0  0  0  0  0  0  0  # atno 6909 bound_to 6896
  145.3897  139.2365  143.3358 H   0  0  0  0  0  0  0  0  0  0  0  0  # atno 7974 bound_to 7965
  155.8560  140.0970  157.1644 H   0  0  0  0  0  0  0  0  0  0  0  0  # atno 8008 bound_to 7997
  154.3988  140.1374  156.3964 H   0  0  0  0  0  0  0  0  0  0  0  0  # atno 8009 bound_to 7997
  155.7909  140.3456  155.5351 H   0  0  0  0  0  0  0  0  0  0  0  0  # atno 8010 bound_to 7997
  139.7171  143.9017  152.2490 H   0  0  0  0  0  0  0  0  0  0  0  0  # atno 10167 bound_to 10162
  156.1551  130.6562  150.9969 H   0  0  0  0  0  0  0  0  0  0  0  0  # atno 10718 bound_to 10713
  153.6246  135.6991  153.5298 H   0  0  0  0  0  0  0  0  0  0  0  0  # atno 10763 bound_to 10752
  153.2909  135.4157  155.1166 H   0  0  0  0  0  0  0  0  0  0  0  0  # atno 10764 bound_to 10752
  154.8536  135.3625  154.5787 H   0  0  0  0  0  0  0  0  0  0  0  0  # atno 10765 bound_to 10752
  140.7750  134.3144  157.5063 H   0  0  0  0  0  0  0  0  0  0  0  0  # atno 11005 bound_to 11000
  146.2803  140.4578  142.8779 LP  0  0  0  0  0  0  0  0  0  0  0  0  # atno 17320 bound_to 7965
  144.8448  140.6913  143.6206 LP  0  0  0  0  0  0  0  0  0  0  0  0  # atno 17321 bound_to 7965
  139.8902  144.6970  150.8779 LP  0  0  0  0  0  0  0  0  0  0  0  0  # atno 17342 bound_to 10162
  140.7746  143.3592  151.1861 LP  0  0  0  0  0  0  0  0  0  0  0  0  # atno 17343 bound_to 10162
  157.6688  131.0866  150.7663 LP  0  0  0  0  0  0  0  0  0  0  0  0  # atno 17370 bound_to 10713
  156.7729  130.4834  149.5415 LP  0  0  0  0  0  0  0  0  0  0  0  0  # atno 17371 bound_to 10713
  139.8750  134.9284  156.3450 LP  0  0  0  0  0  0  0  0  0  0  0  0  # atno 17394 bound_to 11000
  140.9537  133.7434  156.0306 LP  0  0  0  0  0  0  0  0  0  0  0  0  # atno 17395 bound_to 11000

$$$$
