AV-unprocessed.smi:2718|AV-procd|sdf|10493|dock1
  -GOLD-   2272014543D 1   1.00000     0.00000
 Structure written by MMmdl.
 47 48  0  0  0  0  0  0  0  0  1 V2000
  151.6407  145.2123  160.3946 C   0  0  0  0  0  0  0  0  0  0  0  0
  151.7416  144.2065  159.2651 C   0  0  0  0  0  0  0  0  0  0  0  0
  151.8007  144.8158  157.8752 C   0  0  0  0  0  0  0  0  0  0  0  0
  151.7724  142.8808  159.4997 C   0  0  0  0  0  0  0  0  0  0  0  0
  151.8647  141.8013  158.4818 C   0  0  1  0  0  0  0  0  0  0  0  0
  151.8644  140.3419  158.8997 C   0  0  2  0  0  0  0  0  0  0  0  0
  152.7635  139.3831  158.1839 C   0  0  0  0  0  0  0  0  0  0  0  0
  152.8126  139.2804  156.9577 O   0  0  0  0  0  0  0  0  0  0  0  0
  153.5176  138.6429  159.0096 N   0  0  0  0  0  0  0  0  0  0  0  0
  154.4907  137.6312  158.6046 C   0  0  0  0  0  0  0  0  0  0  0  0
  155.5347  137.2963  159.6961 C   0  0  1  0  0  0  0  0  0  0  0  0
  156.4222  136.1117  159.2885 C   0  0  0  0  0  0  0  0  0  0  0  0
  156.3579  138.4863  160.1122 C   0  0  0  0  0  0  0  0  0  0  0  0
  156.2891  139.6815  159.5107 N   0  0  0  0  0  0  0  0  0  0  0  0
  157.1899  140.4879  160.1762 N   0  0  0  0  0  0  0  0  0  0  0  0
  157.7265  139.6961  161.1031 C   0  0  0  0  0  0  0  0  0  0  0  0
  157.2622  138.4379  161.1135 N   0  0  0  0  0  0  0  0  0  0  0  0
  157.6541  137.3416  161.9770 C   0  0  0  0  0  0  0  0  0  0  0  0
  150.6677  140.9235  158.1562 C   0  0  0  0  0  0  0  0  0  0  0  0
  149.3602  141.0493  158.9237 C   0  0  0  0  0  0  0  0  0  0  0  0
  150.3648  140.6171  156.6953 C   0  0  0  0  0  0  0  0  0  0  0  0
  152.5022  145.8805  160.3843 H   0  0  0  0  0  0  0  0  0  0  0  0
  151.6046  144.7214  161.3678 H   0  0  0  0  0  0  0  0  0  0  0  0
  150.7377  145.8130  160.2849 H   0  0  0  0  0  0  0  0  0  0  0  0
  150.8940  145.3885  157.6792 H   0  0  0  0  0  0  0  0  0  0  0  0
  151.8978  144.0641  157.0926 H   0  0  0  0  0  0  0  0  0  0  0  0
  152.6535  145.4905  157.7975 H   0  0  0  0  0  0  0  0  0  0  0  0
  151.7303  142.5394  160.5239 H   0  0  0  0  0  0  0  0  0  0  0  0
  152.5149  142.0861  157.6562 H   0  0  0  0  0  0  0  0  0  0  0  0
  151.7067  140.1286  159.9563 H   0  0  0  0  0  0  0  0  0  0  0  0
  153.4081  138.7896  160.0028 H   0  0  0  0  0  0  0  0  0  0  0  0
  153.9741  136.7276  158.2776 H   0  0  0  0  0  0  0  0  0  0  0  0
  155.0016  138.0263  157.7260 H   0  0  0  0  0  0  0  0  0  0  0  0
  154.9697  136.9619  160.5652 H   0  0  0  0  0  0  0  0  0  0  0  0
  157.0906  135.8265  160.1013 H   0  0  0  0  0  0  0  0  0  0  0  0
  157.0372  136.3559  158.4219 H   0  0  0  0  0  0  0  0  0  0  0  0
  155.8201  135.2391  159.0347 H   0  0  0  0  0  0  0  0  0  0  0  0
  158.4849  140.0431  161.7895 H   0  0  0  0  0  0  0  0  0  0  0  0
  158.3644  137.6897  162.7273 H   0  0  0  0  0  0  0  0  0  0  0  0
  158.1212  136.5562  161.3825 H   0  0  0  0  0  0  0  0  0  0  0  0
  156.7791  136.9352  162.4833 H   0  0  0  0  0  0  0  0  0  0  0  0
  148.7790  140.1313  158.8329 H   0  0  0  0  0  0  0  0  0  0  0  0
  148.7676  141.8770  158.5332 H   0  0  0  0  0  0  0  0  0  0  0  0
  149.5417  141.2308  159.9833 H   0  0  0  0  0  0  0  0  0  0  0  0
  149.9447  139.6158  156.5998 H   0  0  0  0  0  0  0  0  0  0  0  0
  151.2596  140.6820  156.0774 H   0  0  0  0  0  0  0  0  0  0  0  0
  149.6435  141.3328  156.3001 H   0  0  0  0  0  0  0  0  0  0  0  0
  1  2  1  0  0  0  0
  1 22  1  0  0  0  0
  1 23  1  0  0  0  0
  1 24  1  0  0  0  0
  2  3  1  0  0  0  0
  2  4  2  0  0  0  0
  3 25  1  0  0  0  0
  3 26  1  0  0  0  0
  3 27  1  0  0  0  0
  4  5  1  0  0  0  0
  4 28  1  0  0  0  0
  5 19  1  0  0  0  0
  5  6  1  0  0  0  0
  5 29  1  0  0  0  0
  6  7  1  0  0  0  0
  6 19  1  0  0  0  0
  6 30  1  0  0  0  0
  7  8  2  0  0  0  0
  7  9  1  0  0  0  0
  9 10  1  0  0  0  0
  9 31  1  0  0  0  0
 10 11  1  0  0  0  0
 10 32  1  0  0  0  0
 10 33  1  0  0  0  0
 11 12  1  0  0  0  0
 11 13  1  0  0  0  0
 11 34  1  0  0  0  0
 12 35  1  0  0  0  0
 12 36  1  0  0  0  0
 12 37  1  0  0  0  0
 13 17  1  0  0  0  0
 13 14  2  0  0  0  0
 14 15  1  0  0  0  0
 15 16  2  0  0  0  0
 16 17  1  0  0  0  0
 16 38  1  0  0  0  0
 17 18  1  0  0  0  0
 18 39  1  0  0  0  0
 18 40  1  0  0  0  0
 18 41  1  0  0  0  0
 19 20  1  0  0  0  0
 19 21  1  0  0  0  0
 20 42  1  0  0  0  0
 20 43  1  0  0  0  0
 20 44  1  0  0  0  0
 21 45  1  0  0  0  0
 21 46  1  0  0  0  0
 21 47  1  0  0  0  0
M  END
> <s_m_source_file>
AV-unprocessed.smi

> <i_m_source_file_index>
2718

> <i_lp_mmshare_version>
43012

> <i_f3d_flags>
0

> <s_epik_input>
W0NIM11DKFtDSDNdKT1bQ0hdW0NAQEhdKEMxKFtDSDNdKVtDSDNdKVtDQEhdMUMoPU8pW05IXVtDSDJdW0NASF0oW0NIM10pYzJubltjSF1uMltDSDNd

> <s_epik_cmdline>
J2VwaWtfcHl0aG9uJywgJy1waCcsICc3LjAnLCAnLXRuJywgJzgnLCAnLW1hJywgJzIwMCcsICctbWV0YWxfYmluZGluZycsICctaW1hZScsICc8aW5maWxlLm1hZT4nLCAnLW9tYWUnLCAnPG91dGZpbGUubWFlPic=

> <r_lp_tautomer_probability>
1

> <r_epik_Ionization_Penalty>
0.000449586

> <r_epik_Ionization_Penalty_Charging>
0

> <r_epik_Ionization_Penalty_Neutral>
0.000449586

> <r_epik_State_Penalty>
0.000243372

> <r_epik_Charging_Adjusted_Penalty>
0.000243372

> <i_epik_Tot_Q>
0

> <i_epik_Tot_abs_Q>
0

> <r_epik_Metal_State_Penalty>
-0

> <b_epik_Metal_Only>
0

> <s_lp_Force_Field>
OPLS_2005

> <r_lp_Energy>
15.3902

> <b_lp_Chiralities_Consistent>
1

> <s_lp_Variant>
AV-unprocessed.smi:2718-8

> <Gold.Version>
5.8.1

> <Gold.Id.Protein>
6NUR|6NUR_protein|mol2

> <Gold.PLP.Fitness>
45.4802

> <Gold.PLP.PLP>
-43.4085

> <Gold.PLP.part.hbond>
-1.0000

> <Gold.PLP.part.metal>
0.0000

> <Gold.PLP.part.buried>
-6.1828

> <Gold.PLP.part.nonpolar>
-36.6004

> <Gold.PLP.part.repulsive>
0.0970

> <Gold.PLP.ligand.clash>
0.0000

> <Gold.PLP.ligand.torsion>
0.6035

> <Gold.PLP.Chemscore.Hbond>
1.0000

> <Gold.PLP.Chemscore.CHOScore>
0.0000

> <Gold.PLP.Chemscore.Metal>
0.0000

> <Gold.Chemscore.Hbonds>
donor molecule, donor type, donor heavy atom, donor atom, acceptor molecule, acceptor atom, score
      P1  H  7997  8008       L1     8  1.00

> <Gold.PLP.Chemscore.Internal.Correction>
0.2788

> <Gold.Rescore>
     Score         DG    S(hbond)    S(metal)    S(lipo)     H(rot)  DE(clash)    DE(int)     intcor
     14.18     -16.23       1.00        0.00     106.10       1.95       0.01       2.03       ----

> <Gold.Chemscore.Fitness>
14.1843

> <Gold.Chemscore.DG>
-16.2323

> <Gold.Chemscore.ZeroCoef>
-5.4800

> <Gold.Chemscore.Hbond>
0.9997

> <Gold.Chemscore.Metal>
0.0000

> <Gold.Chemscore.Lipo>
106.1005

> <Gold.Chemscore.Internal_Hbond>
0.0000

> <Gold.Chemscore.DEClash>
0.0137

> <Gold.Chemscore.DEInternal>
2.0343

> <Gold.Chemscore.Rot>
1.9533

> <Gold.Chemscore.Internal.Correction>
   9.000000E+99

> <Gold.Chemscore.Hbonds>
donor molecule, donor type, donor heavy atom, donor atom, acceptor molecule, acceptor atom, score
      P1  H  7997  8008       L1     8  0.30
      P1  H  7997  8010       L1    14  0.03

> <Gold.Chemscore.Hbond.Weighted>
-3.3391

> <Gold.Chemscore.Metal.Weighted>
-0.0000

> <Gold.Chemscore.Lipo.Weighted>
-12.4138

> <Gold.Chemscore.Internal_Hbond.Weighted>
0.0000

> <Gold.Chemscore.DEClash.Weighted>
0.0137

> <Gold.Chemscore.DEInternal.Weighted>
2.0343

> <Gold.Chemscore.Rot.Weighted>
5.0005

> <Gold.Chemscore.Internal.Correction.Weighted>
   9.000000E+99

> <Gold.Protein.RotatedTorsions>
[ 6907 6896 6895 6894 ] final   56.41 input  -60.11 | X-H torsion
[ 7974 7965 7964 7962 ] final -129.13 input  175.53 | X-H torsion
[ 8008 7997 7996 7995 ] final  -58.57 input   59.86 | X-H torsion
[ 10167 10162 10161 10158 ] final -114.36 input  -65.29 | X-H torsion
[ 10718 10713 10712 10709 ] final -144.45 input   66.30 | X-H torsion
[ 10763 10752 10751 10750 ] final  104.05 input  -60.55 | X-H torsion
[ 11005 11000 10999 10996 ] final  -75.34 input  -57.11 | X-H torsion

> <Gold.Protein.ActiveResidues>
 VAL166  LYS551  ARG553  GLY616  TRP617  ASP618  TYR619  PRO620  LYS621  CYS622 
 ASP623  PHE694  ASN695  SER759  ASP760  ASP761  ALA762  ILE779  LEU786  VAL792 
 PHE793  MET794  SER795  GLU796  ALA797  LYS798  CYS799  TRP800  GLU811  SER814 

> <Gold.Protein.RotatedAtoms>
  152.3633  134.6841  160.0199 H   0  0  0  0  0  0  0  0  0  0  0  0  # atno 6907 bound_to 6896
  151.7157  133.3308  159.3310 H   0  0  0  0  0  0  0  0  0  0  0  0  # atno 6908 bound_to 6896
  150.7620  134.6427  159.6290 H   0  0  0  0  0  0  0  0  0  0  0  0  # atno 6909 bound_to 6896
  144.9602  140.7439  143.4733 H   0  0  0  0  0  0  0  0  0  0  0  0  # atno 7974 bound_to 7965
  154.4314  140.1081  156.5978 H   0  0  0  0  0  0  0  0  0  0  0  0  # atno 8008 bound_to 7997
  155.5943  140.3492  155.4556 H   0  0  0  0  0  0  0  0  0  0  0  0  # atno 8009 bound_to 7997
  156.0222  140.1242  157.0335 H   0  0  0  0  0  0  0  0  0  0  0  0  # atno 8010 bound_to 7997
  140.1018  143.4606  152.1807 H   0  0  0  0  0  0  0  0  0  0  0  0  # atno 10167 bound_to 10162
  156.3703  130.7784  151.1964 H   0  0  0  0  0  0  0  0  0  0  0  0  # atno 10718 bound_to 10713
  153.3608  135.3956  155.1716 H   0  0  0  0  0  0  0  0  0  0  0  0  # atno 10763 bound_to 10752
  154.8679  135.3679  154.5102 H   0  0  0  0  0  0  0  0  0  0  0  0  # atno 10764 bound_to 10752
  153.5561  135.7082  153.5629 H   0  0  0  0  0  0  0  0  0  0  0  0  # atno 10765 bound_to 10752
  141.1644  133.6943  156.7502 H   0  0  0  0  0  0  0  0  0  0  0  0  # atno 11005 bound_to 11000
  145.2711  139.1954  143.4841 LP  0  0  0  0  0  0  0  0  0  0  0  0  # atno 17320 bound_to 7965
  146.3350  140.2657  142.8604 LP  0  0  0  0  0  0  0  0  0  0  0  0  # atno 17321 bound_to 7965
  139.5667  144.7439  151.4003 LP  0  0  0  0  0  0  0  0  0  0  0  0  # atno 17342 bound_to 10162
  140.6974  143.7716  150.7347 LP  0  0  0  0  0  0  0  0  0  0  0  0  # atno 17343 bound_to 10162
  157.7483  131.0374  150.4455 LP  0  0  0  0  0  0  0  0  0  0  0  0  # atno 17370 bound_to 10713
  156.4680  130.4046  149.6535 LP  0  0  0  0  0  0  0  0  0  0  0  0  # atno 17371 bound_to 10713
  140.2609  134.8467  157.3758 LP  0  0  0  0  0  0  0  0  0  0  0  0  # atno 17394 bound_to 11000
  140.1612  134.4726  155.7893 LP  0  0  0  0  0  0  0  0  0  0  0  0  # atno 17395 bound_to 11000

$$$$
