AV-unprocessed.smi:351|AV-procd|sdf|2400|dock6
  -GOLD-   2262022333D 1   1.00000     0.00000
 Structure written by MMmdl.
 39 40  0  0  0  0  0  0  0  0  1 V2000
  153.2669  143.0745  163.3929 C   0  0  0  0  0  0  0  0  0  0  0  0
  152.7347  143.0926  161.9723 C   0  0  0  0  0  0  0  0  0  0  0  0
  151.9088  144.1562  161.5518 C   0  0  0  0  0  0  0  0  0  0  0  0
  151.4062  144.1871  160.2384 C   0  0  0  0  0  0  0  0  0  0  0  0
  151.7278  143.1527  159.3421 C   0  0  0  0  0  0  0  0  0  0  0  0
  152.5508  142.0885  159.7569 C   0  0  0  0  0  0  0  0  0  0  0  0
  153.0643  142.0465  161.0787 C   0  0  0  0  0  0  0  0  0  0  0  0
  153.8748  141.0362  161.5543 O   0  0  0  0  0  0  0  0  0  0  0  0
  154.1827  139.9507  160.6920 C   0  0  0  0  0  0  0  0  0  0  0  0
  155.3024  139.1187  161.3436 C   0  0  0  0  0  0  0  0  0  0  0  0
  155.4555  137.7915  160.7033 N   0  0  0  0  0  0  0  0  0  0  0  0
  155.3683  136.5999  161.4899 C   0  0  0  0  0  0  0  0  0  0  0  0
  155.1441  136.7081  163.0051 C   0  0  0  0  0  0  0  0  0  0  0  0
  155.1523  135.5048  163.5807 F   0  0  0  0  0  0  0  0  0  0  0  0
  156.0990  137.4201  163.6026 F   0  0  0  0  0  0  0  0  0  0  0  0
  153.9572  137.2552  163.2697 F   0  0  0  0  0  0  0  0  0  0  0  0
  155.5055  135.3981  160.8999 C   0  0  0  0  0  0  0  0  0  0  0  0
  155.7307  135.3089  159.4839 C   0  0  0  0  0  0  0  0  0  0  0  0
  155.8134  136.4258  158.7258 C   0  0  0  0  0  0  0  0  0  0  0  0
  156.0489  136.3845  157.2642 C   0  0  0  0  0  0  0  0  0  0  0  0
  156.5791  137.5060  156.7601 N   0  0  0  0  0  0  0  0  0  0  0  0
  155.8109  135.4485  156.5010 O   0  0  0  0  0  0  0  0  0  0  0  0
  155.6716  137.7697  159.3440 C   0  0  0  0  0  0  0  0  0  0  0  0
  155.7370  138.8277  158.7103 O   0  0  0  0  0  0  0  0  0  0  0  0
  153.0054  143.9870  163.9295 H   0  0  0  0  0  0  0  0  0  0  0  0
  154.3534  142.9833  163.3916 H   0  0  0  0  0  0  0  0  0  0  0  0
  152.8516  142.2275  163.9396 H   0  0  0  0  0  0  0  0  0  0  0  0
  151.6561  144.9528  162.2358 H   0  0  0  0  0  0  0  0  0  0  0  0
  150.7739  145.0026  159.9198 H   0  0  0  0  0  0  0  0  0  0  0  0
  151.3420  143.1740  158.3335 H   0  0  0  0  0  0  0  0  0  0  0  0
  152.7729  141.3143  159.0388 H   0  0  0  0  0  0  0  0  0  0  0  0
  153.2949  139.3359  160.5390 H   0  0  0  0  0  0  0  0  0  0  0  0
  154.5044  140.3236  159.7193 H   0  0  0  0  0  0  0  0  0  0  0  0
  156.2227  139.6943  161.3476 H   0  0  0  0  0  0  0  0  0  0  0  0
  155.0906  139.0049  162.4085 H   0  0  0  0  0  0  0  0  0  0  0  0
  155.4489  134.4856  161.4745 H   0  0  0  0  0  0  0  0  0  0  0  0
  155.8315  134.3195  159.0630 H   0  0  0  0  0  0  0  0  0  0  0  0
  156.7746  137.5739  155.7721 H   0  0  0  0  0  0  0  0  0  0  0  0
  156.7805  138.2826  157.3734 H   0  0  0  0  0  0  0  0  0  0  0  0
  1  2  1  0  0  0  0
  1 25  1  0  0  0  0
  1 26  1  0  0  0  0
  1 27  1  0  0  0  0
  2  7  1  0  0  0  0
  2  3  2  0  0  0  0
  3  4  1  0  0  0  0
  3 28  1  0  0  0  0
  4  5  2  0  0  0  0
  4 29  1  0  0  0  0
  5  6  1  0  0  0  0
  5 30  1  0  0  0  0
  6  7  2  0  0  0  0
  6 31  1  0  0  0  0
  7  8  1  0  0  0  0
  8  9  1  0  0  0  0
  9 10  1  0  0  0  0
  9 32  1  0  0  0  0
  9 33  1  0  0  0  0
 10 11  1  0  0  0  0
 10 34  1  0  0  0  0
 10 35  1  0  0  0  0
 11 23  1  0  0  0  0
 11 12  1  0  0  0  0
 12 13  1  0  0  0  0
 12 17  2  0  0  0  0
 13 14  1  0  0  0  0
 13 15  1  0  0  0  0
 13 16  1  0  0  0  0
 17 18  1  0  0  0  0
 17 36  1  0  0  0  0
 18 19  2  0  0  0  0
 18 37  1  0  0  0  0
 19 20  1  0  0  0  0
 19 23  1  0  0  0  0
 20 21  1  0  0  0  0
 20 22  2  0  0  0  0
 21 38  1  0  0  0  0
 21 39  1  0  0  0  0
 23 24  2  0  0  0  0
M  END
> <s_m_source_file>
AV-unprocessed.smi

> <i_m_source_file_index>
351

> <i_lp_mmshare_version>
43012

> <i_f3d_flags>
0

> <s_epik_input>
W0NIM11jMVtjSF1bY0hdW2NIXVtjSF1jMU9bQ0gyXVtDSDJdbjJjKEMoRikoRilGKVtjSF1bY0hdYyhjMj1PKUMoPU8pW05IMl0=

> <s_epik_cmdline>
J2VwaWtfcHl0aG9uJywgJy1waCcsICc3LjAnLCAnLXRuJywgJzgnLCAnLW1hJywgJzIwMCcsICctbWV0YWxfYmluZGluZycsICctaW1hZScsICc8aW5maWxlLm1hZT4nLCAnLW9tYWUnLCAnPG91dGZpbGUubWFlPic=

> <r_lp_tautomer_probability>
1

> <r_epik_Ionization_Penalty>
1.75286e-06

> <r_epik_Ionization_Penalty_Charging>
1.15608e-09

> <r_epik_Ionization_Penalty_Neutral>
1.7517e-06

> <r_epik_State_Penalty>
-0

> <r_epik_Charging_Adjusted_Penalty>
1.15608e-09

> <i_epik_Tot_Q>
0

> <i_epik_Tot_abs_Q>
0

> <r_epik_Metal_State_Penalty>
-0

> <b_epik_Metal_Only>
0

> <s_lp_Force_Field>
OPLS_2005

> <r_lp_Energy>
33.8975

> <b_lp_Chiralities_Consistent>
1

> <s_lp_Variant>
AV-unprocessed.smi:351-1

> <Gold.Version>
5.8.1

> <Gold.Id.Protein>
6NUR|6NUR_protein|mol2

> <Gold.PLP.Fitness>
50.2765

> <Gold.PLP.PLP>
-44.8838

> <Gold.PLP.part.hbond>
-2.0000

> <Gold.PLP.part.metal>
0.0000

> <Gold.PLP.part.buried>
-5.9935

> <Gold.PLP.part.nonpolar>
-37.1074

> <Gold.PLP.part.repulsive>
0.1416

> <Gold.PLP.ligand.clash>
3.7261

> <Gold.PLP.ligand.torsion>
0.3594

> <Gold.PLP.Chemscore.Hbond>
2.0000

> <Gold.PLP.Chemscore.CHOScore>
0.0000

> <Gold.PLP.Chemscore.Metal>
0.0000

> <Gold.Chemscore.Hbonds>
donor molecule, donor type, donor heavy atom, donor atom, acceptor molecule, acceptor atom, score
      P1  H  7997  8008       L1    24  0.99
      P1  H 10752 10763       L1    22  1.00

> <Gold.PLP.Chemscore.Internal.Correction>
3.8376

> <Gold.Rescore>
     Score         DG    S(hbond)    S(metal)    S(lipo)     H(rot)  DE(clash)    DE(int)     intcor
     15.88     -21.00       1.97        0.00     116.81       1.84       0.02       5.09       ----

> <Gold.Chemscore.Fitness>
15.8841

> <Gold.Chemscore.DG>
-20.9989

> <Gold.Chemscore.ZeroCoef>
-5.4800

> <Gold.Chemscore.Hbond>
1.9656

> <Gold.Chemscore.Metal>
0.0000

> <Gold.Chemscore.Lipo>
116.8143

> <Gold.Chemscore.Internal_Hbond>
0.0000

> <Gold.Chemscore.DEClash>
0.0212

> <Gold.Chemscore.DEInternal>
5.0937

> <Gold.Chemscore.Rot>
1.8412

> <Gold.Chemscore.Internal.Correction>
   9.000000E+99

> <Gold.Chemscore.Hbonds>
donor molecule, donor type, donor heavy atom, donor atom, acceptor molecule, acceptor atom, score
      P1  H  7997  8008       L1    24  0.94
      P1  H 10752 10763       L1    22  1.00

> <Gold.Chemscore.Hbond.Weighted>
-6.5650

> <Gold.Chemscore.Metal.Weighted>
-0.0000

> <Gold.Chemscore.Lipo.Weighted>
-13.6673

> <Gold.Chemscore.Internal_Hbond.Weighted>
0.0000

> <Gold.Chemscore.DEClash.Weighted>
0.0212

> <Gold.Chemscore.DEInternal.Weighted>
5.0937

> <Gold.Chemscore.Rot.Weighted>
4.7134

> <Gold.Chemscore.Internal.Correction.Weighted>
   9.000000E+99

> <Gold.Protein.RotatedTorsions>
[ 6907 6896 6895 6894 ] final   -2.84 input  -60.11 | X-H torsion
[ 7974 7965 7964 7962 ] final -141.65 input  175.53 | X-H torsion
[ 8008 7997 7996 7995 ] final -161.24 input   59.86 | X-H torsion
[ 10167 10162 10161 10158 ] final   87.67 input  -65.29 | X-H torsion
[ 10718 10713 10712 10709 ] final  -62.91 input   66.30 | X-H torsion
[ 10763 10752 10751 10750 ] final  179.16 input  -60.55 | X-H torsion
[ 11005 11000 10999 10996 ] final   75.45 input  -57.11 | X-H torsion

> <Gold.Protein.ActiveResidues>
 VAL166  LYS551  ARG553  GLY616  TRP617  ASP618  TYR619  PRO620  LYS621  CYS622 
 ASP623  PHE694  ASN695  SER759  ASP760  ASP761  ALA762  ILE779  LEU786  VAL792 
 PHE793  MET794  SER795  GLU796  ALA797  LYS798  CYS799  TRP800  GLU811  SER814 

> <Gold.Protein.RotatedAtoms>
  151.5234  135.1067  159.9883 H   0  0  0  0  0  0  0  0  0  0  0  0  # atno 6907 bound_to 6896
  152.4610  133.7819  159.6866 H   0  0  0  0  0  0  0  0  0  0  0  0  # atno 6908 bound_to 6896
  150.8573  133.7631  159.3029 H   0  0  0  0  0  0  0  0  0  0  0  0  # atno 6909 bound_to 6896
  144.8503  140.6054  143.5394 H   0  0  0  0  0  0  0  0  0  0  0  0  # atno 7974 bound_to 7965
  155.7893  140.0876  157.2017 H   0  0  0  0  0  0  0  0  0  0  0  0  # atno 8008 bound_to 7997
  154.3986  140.1493  156.3203 H   0  0  0  0  0  0  0  0  0  0  0  0  # atno 8009 bound_to 7997
  155.8574  140.3432  155.5736 H   0  0  0  0  0  0  0  0  0  0  0  0  # atno 8010 bound_to 7997
  139.8750  144.6472  150.8906 H   0  0  0  0  0  0  0  0  0  0  0  0  # atno 10167 bound_to 10162
  156.0825  130.4214  150.1202 H   0  0  0  0  0  0  0  0  0  0  0  0  # atno 10718 bound_to 10713
  154.5171  135.2792  155.1294 H   0  0  0  0  0  0  0  0  0  0  0  0  # atno 10763 bound_to 10752
  154.2866  135.6275  153.5372 H   0  0  0  0  0  0  0  0  0  0  0  0  # atno 10764 bound_to 10752
  152.9929  135.5664  154.5651 H   0  0  0  0  0  0  0  0  0  0  0  0  # atno 10765 bound_to 10752
  139.9343  134.7519  156.1273 H   0  0  0  0  0  0  0  0  0  0  0  0  # atno 11005 bound_to 11000
  145.4513  139.1523  143.3916 LP  0  0  0  0  0  0  0  0  0  0  0  0  # atno 17320 bound_to 7965
  146.2779  140.4639  142.8788 LP  0  0  0  0  0  0  0  0  0  0  0  0  # atno 17321 bound_to 7965
  140.7754  143.3632  151.1788 LP  0  0  0  0  0  0  0  0  0  0  0  0  # atno 17342 bound_to 10162
  139.7248  143.9165  152.2999 LP  0  0  0  0  0  0  0  0  0  0  0  0  # atno 17343 bound_to 10162
  156.9230  130.9689  151.3545 LP  0  0  0  0  0  0  0  0  0  0  0  0  # atno 17370 bound_to 10713
  157.5947  130.8469  149.8711 LP  0  0  0  0  0  0  0  0  0  0  0  0  # atno 17371 bound_to 10713
  141.0949  133.6700  156.2622 LP  0  0  0  0  0  0  0  0  0  0  0  0  # atno 17394 bound_to 11000
  140.6117  134.5451  157.5534 LP  0  0  0  0  0  0  0  0  0  0  0  0  # atno 17395 bound_to 11000

$$$$
