AV-unprocessed.smi:1710|AV-procd|sdf|6899|dock5
  -GOLD-   22720 8103D 1   1.00000     0.00000
 Structure written by MMmdl.
 36 37  0  0  0  0  0  0  0  0  1 V2000
  150.7097  139.8675  157.7442 C   0  0  0  0  0  0  0  0  0  0  0  0
  150.6536  140.8395  156.1837 S   0  0  0  0  0  0  0  0  0  0  0  0
  150.9065  142.2507  156.5132 O   0  0  0  0  0  0  0  0  0  0  0  0
  151.4984  140.1603  155.1895 O   0  0  0  0  0  0  0  0  0  0  0  0
  148.9998  140.7037  155.6590 N   0  0  0  0  0  0  0  0  0  0  0  0
  148.6202  141.1309  154.2970 C   0  0  0  0  0  0  0  0  0  0  0  0
  148.4513  139.9308  153.3485 C   0  0  0  0  0  0  0  0  0  0  0  0
  147.4729  138.8942  153.9252 C   0  0  0  0  0  0  0  0  0  0  0  0
  147.3742  137.7307  153.0484 N   0  0  0  0  0  0  0  0  0  0  0  0
  146.2273  137.1797  152.6259 C   0  0  0  0  0  0  0  0  0  0  0  0
  145.1137  137.5999  152.9408 O   0  0  0  0  0  0  0  0  0  0  0  0
  146.4564  136.1295  151.8204 N   0  0  0  0  0  0  0  0  0  0  0  0
  145.4919  135.2969  151.1982 C   0  0  0  0  0  0  0  0  0  0  0  0
  145.6958  133.9301  150.8652 C   0  0  0  0  0  0  0  0  0  0  0  0
  144.6194  133.4048  150.2974 N   0  0  0  0  0  0  0  0  0  0  0  0
  143.7296  134.4224  150.2673 N   0  0  0  0  0  0  0  0  0  0  0  0
  144.2166  135.5929  150.8057 C   0  0  0  0  0  0  0  0  0  0  0  0
  147.9549  138.4632  155.3177 C   0  0  0  0  0  0  0  0  0  0  0  0
  148.1205  139.6755  156.2510 C   0  0  0  0  0  0  0  0  0  0  0  0
  142.8032  134.3036  149.8821 H   0  0  0  0  0  0  0  0  0  0  0  0
  151.7247  139.8903  158.1400 H   0  0  0  0  0  0  0  0  0  0  0  0
  150.4300  138.8341  157.5484 H   0  0  0  0  0  0  0  0  0  0  0  0
  150.0352  140.3053  158.4778 H   0  0  0  0  0  0  0  0  0  0  0  0
  147.6799  141.6797  154.3589 H   0  0  0  0  0  0  0  0  0  0  0  0
  149.3563  141.8280  153.8980 H   0  0  0  0  0  0  0  0  0  0  0  0
  148.0944  140.2845  152.3805 H   0  0  0  0  0  0  0  0  0  0  0  0
  149.4186  139.4648  153.1627 H   0  0  0  0  0  0  0  0  0  0  0  0
  146.4872  139.3519  154.0307 H   0  0  0  0  0  0  0  0  0  0  0  0
  148.2425  137.3194  152.7380 H   0  0  0  0  0  0  0  0  0  0  0  0
  147.4214  135.9025  151.6300 H   0  0  0  0  0  0  0  0  0  0  0  0
  146.5709  133.3146  151.0130 H   0  0  0  0  0  0  0  0  0  0  0  0
  143.6255  136.4950  150.8576 H   0  0  0  0  0  0  0  0  0  0  0  0
  147.2439  137.7623  155.7569 H   0  0  0  0  0  0  0  0  0  0  0  0
  148.8994  137.9261  155.2348 H   0  0  0  0  0  0  0  0  0  0  0  0
  148.5043  139.3590  157.2205 H   0  0  0  0  0  0  0  0  0  0  0  0
  147.1452  140.1255  156.4393 H   0  0  0  0  0  0  0  0  0  0  0  0
  1  2  1  0  0  0  0
  1 21  1  0  0  0  0
  1 22  1  0  0  0  0
  1 23  1  0  0  0  0
  2  3  2  0  0  0  0
  2  4  2  0  0  0  0
  2  5  1  0  0  0  0
  5 19  1  0  0  0  0
  5  6  1  0  0  0  0
  6  7  1  0  0  0  0
  6 24  1  0  0  0  0
  6 25  1  0  0  0  0
  7  8  1  0  0  0  0
  7 26  1  0  0  0  0
  7 27  1  0  0  0  0
  8  9  1  0  0  0  0
  8 18  1  0  0  0  0
  8 28  1  0  0  0  0
  9 10  1  0  0  0  0
  9 29  1  0  0  0  0
 10 11  2  0  0  0  0
 10 12  1  0  0  0  0
 12 13  1  0  0  0  0
 12 30  1  0  0  0  0
 13 17  2  0  0  0  0
 13 14  1  0  0  0  0
 14 15  2  0  0  0  0
 14 31  1  0  0  0  0
 15 16  1  0  0  0  0
 16 20  1  0  0  0  0
 16 17  1  0  0  0  0
 17 32  1  0  0  0  0
 18 19  1  0  0  0  0
 18 33  1  0  0  0  0
 18 34  1  0  0  0  0
 19 35  1  0  0  0  0
 19 36  1  0  0  0  0
M  END
> <s_m_source_file>
AV-unprocessed.smi

> <i_m_source_file_index>
1710

> <i_lp_mmshare_version>
43012

> <i_f3d_flags>
0

> <s_epik_input>
W0NIM11TKD1PKSg9TylOMVtDSDJdW0NIMl1bQ0hdKFtDSDJdW0NIMl0xKVtOSF1DKD1PKVtOSF1jMltjSF1uW25IXVtjSF0y

> <s_epik_cmdline>
J2VwaWtfcHl0aG9uJywgJy1waCcsICc3LjAnLCAnLXRuJywgJzgnLCAnLW1hJywgJzIwMCcsICctbWV0YWxfYmluZGluZycsICctaW1hZScsICc8aW5maWxlLm1hZT4nLCAnLW9tYWUnLCAnPG91dGZpbGUubWFlPic=

> <r_lp_tautomer_probability>
1

> <r_epik_Ionization_Penalty>
5.00334e-05

> <r_epik_Ionization_Penalty_Charging>
0

> <r_epik_Ionization_Penalty_Neutral>
5.00334e-05

> <r_epik_State_Penalty>
-0

> <r_epik_Charging_Adjusted_Penalty>
0

> <i_epik_Tot_Q>
0

> <i_epik_Tot_abs_Q>
0

> <r_epik_Metal_State_Penalty>
-0

> <b_epik_Metal_Only>
0

> <s_lp_Force_Field>
OPLS_2005

> <r_lp_Energy>
2.71919

> <b_lp_Chiralities_Consistent>
1

> <s_lp_Variant>
AV-unprocessed.smi:1710-1

> <Gold.Version>
5.8.1

> <Gold.Id.Protein>
6NUR|6NUR_protein|mol2

> <Gold.PLP.Fitness>
36.2600

> <Gold.PLP.PLP>
-22.3249

> <Gold.PLP.part.hbond>
-3.6439

> <Gold.PLP.part.metal>
0.0000

> <Gold.PLP.part.buried>
0.0254

> <Gold.PLP.part.nonpolar>
-19.6184

> <Gold.PLP.part.repulsive>
0.6123

> <Gold.PLP.ligand.clash>
0.0000

> <Gold.PLP.ligand.torsion>
1.5136

> <Gold.PLP.Chemscore.Hbond>
3.9760

> <Gold.PLP.Chemscore.CHOScore>
0.9942

> <Gold.PLP.Chemscore.Metal>
0.0000

> <Gold.Chemscore.Hbonds>
donor molecule, donor type, donor heavy atom, donor atom, acceptor molecule, acceptor atom, score
      L1  H     9    29       P1  7948  0.96
      L1  H    12    30       P1  7948  1.00
      L1  H    16    20       P1 10186  1.00
      P1  H  7989  7998       L1     4  1.00
      L1  C    17    32       P1 10171  1.00

> <Gold.PLP.Chemscore.Internal.Correction>
2.0515

> <Gold.Rescore>
     Score         DG    S(hbond)    S(metal)    S(lipo)     H(rot)  DE(clash)    DE(int)     intcor
     17.67     -20.90       3.88        0.00      43.02       1.00       1.60       1.64       ----

> <Gold.Chemscore.Fitness>
17.6658

> <Gold.Chemscore.DG>
-20.9014

> <Gold.Chemscore.ZeroCoef>
-5.4800

> <Gold.Chemscore.Hbond>
3.8767

> <Gold.Chemscore.Metal>
0.0000

> <Gold.Chemscore.Lipo>
43.0179

> <Gold.Chemscore.Internal_Hbond>
0.0000

> <Gold.Chemscore.DEClash>
1.5952

> <Gold.Chemscore.DEInternal>
1.6403

> <Gold.Chemscore.Rot>
1.0000

> <Gold.Chemscore.Internal.Correction>
   9.000000E+99

> <Gold.Chemscore.Hbonds>
donor molecule, donor type, donor heavy atom, donor atom, acceptor molecule, acceptor atom, score
      L1  H     9    29       P1  7948  0.89
      L1  H    12    30       P1  7948  0.89
      L1  H    16    20       P1 10186  0.98
      P1  H  7989  7998       L1     4  0.92

> <Gold.Chemscore.Hbond.Weighted>
-12.9483

> <Gold.Chemscore.Metal.Weighted>
-0.0000

> <Gold.Chemscore.Lipo.Weighted>
-5.0331

> <Gold.Chemscore.Internal_Hbond.Weighted>
0.0000

> <Gold.Chemscore.DEClash.Weighted>
1.5952

> <Gold.Chemscore.DEInternal.Weighted>
1.6403

> <Gold.Chemscore.Rot.Weighted>
2.5600

> <Gold.Chemscore.Internal.Correction.Weighted>
   9.000000E+99

> <Gold.Protein.RotatedTorsions>
[ 6907 6896 6895 6894 ] final  114.95 input  -60.11 | X-H torsion
[ 7974 7965 7964 7962 ] final   31.94 input  175.53 | X-H torsion
[ 8008 7997 7996 7995 ] final   28.31 input   59.86 | X-H torsion
[ 10167 10162 10161 10158 ] final -127.09 input  -65.29 | X-H torsion
[ 10718 10713 10712 10709 ] final  -19.75 input   66.30 | X-H torsion
[ 10763 10752 10751 10750 ] final    5.14 input  -60.55 | X-H torsion
[ 11005 11000 10999 10996 ] final  -58.78 input  -57.11 | X-H torsion

> <Gold.Protein.ActiveResidues>
 VAL166  LYS551  ARG553  GLY616  TRP617  ASP618  TYR619  PRO620  LYS621  CYS622 
 ASP623  PHE694  ASN695  SER759  ASP760  ASP761  ALA762  ILE779  LEU786  VAL792 
 PHE793  MET794  SER795  GLU796  ALA797  LYS798  CYS799  TRP800  GLU811  SER814 

> <Gold.Protein.RotatedAtoms>
  152.4771  133.8165  159.7030 H   0  0  0  0  0  0  0  0  0  0  0  0  # atno 6907 bound_to 6896
  150.8796  133.7382  159.2943 H   0  0  0  0  0  0  0  0  0  0  0  0  # atno 6908 bound_to 6896
  151.4890  135.1060  159.9850 H   0  0  0  0  0  0  0  0  0  0  0  0  # atno 6909 bound_to 6896
  146.1518  139.6591  142.9093 H   0  0  0  0  0  0  0  0  0  0  0  0  # atno 7974 bound_to 7965
  155.0567  140.3185  155.4674 H   0  0  0  0  0  0  0  0  0  0  0  0  # atno 8008 bound_to 7997
  156.2822  140.2136  156.5638 H   0  0  0  0  0  0  0  0  0  0  0  0  # atno 8009 bound_to 7997
  154.7166  140.0493  157.0587 H   0  0  0  0  0  0  0  0  0  0  0  0  # atno 8010 bound_to 7997
  139.9645  143.5913  152.2434 H   0  0  0  0  0  0  0  0  0  0  0  0  # atno 10167 bound_to 10162
  156.5414  130.4679  149.6497 H   0  0  0  0  0  0  0  0  0  0  0  0  # atno 10718 bound_to 10713
  153.2629  135.6925  153.7560 H   0  0  0  0  0  0  0  0  0  0  0  0  # atno 10763 bound_to 10752
  153.6613  135.3360  155.3128 H   0  0  0  0  0  0  0  0  0  0  0  0  # atno 10764 bound_to 10752
  154.8436  135.4477  154.1625 H   0  0  0  0  0  0  0  0  0  0  0  0  # atno 10765 bound_to 10752
  141.1221  133.6613  156.4972 H   0  0  0  0  0  0  0  0  0  0  0  0  # atno 11005 bound_to 11000
  145.4804  141.0438  143.2649 LP  0  0  0  0  0  0  0  0  0  0  0  0  # atno 17320 bound_to 7965
  144.7914  139.6321  143.7111 LP  0  0  0  0  0  0  0  0  0  0  0  0  # atno 17321 bound_to 7965
  139.6528  144.7661  151.2114 LP  0  0  0  0  0  0  0  0  0  0  0  0  # atno 17342 bound_to 10162
  140.7542  143.6133  150.8584 LP  0  0  0  0  0  0  0  0  0  0  0  0  # atno 17343 bound_to 10162
  156.2968  130.7155  151.2017 LP  0  0  0  0  0  0  0  0  0  0  0  0  # atno 17370 bound_to 10713
  157.7404  131.0517  150.5165 LP  0  0  0  0  0  0  0  0  0  0  0  0  # atno 17371 bound_to 10713
  140.4475  134.6959  157.5023 LP  0  0  0  0  0  0  0  0  0  0  0  0  # atno 17394 bound_to 11000
  140.0188  134.6579  155.9270 LP  0  0  0  0  0  0  0  0  0  0  0  0  # atno 17395 bound_to 11000

$$$$
