AV-unprocessed.smi:197|AV-procd|sdf|1547|dock5
  -GOLD-   2262019413D 1   1.00000     0.00000
 Structure written by MMmdl.
 54 57  0  0  0  0  0  0  0  0  1 V2000
  151.8691  144.4420  158.1028 C   0  0  0  0  0  0  0  0  0  0  0  0
  151.5582  143.2269  158.7611 O   0  0  0  0  0  0  0  0  0  0  0  0
  151.6102  142.1079  157.8915 C   0  0  0  0  0  0  0  0  0  0  0  0
  150.2023  141.8210  157.3478 C   0  0  0  0  0  0  0  0  0  0  0  0
  150.1718  141.2643  155.8988 C   0  0  1  0  0  0  0  0  0  0  0  0
  151.2401  140.1590  155.7139 C   0  0  0  0  0  0  0  0  0  0  0  0
  151.1688  139.5968  154.4092 O   0  0  0  0  0  0  0  0  0  0  0  0
  149.9131  138.9776  154.1718 C   0  0  0  0  0  0  0  0  0  0  0  0
  148.8155  140.0449  154.2509 C   0  0  0  0  0  0  0  0  0  0  0  0
  148.8508  140.7241  155.5424 N   0  0  0  0  0  0  0  0  0  0  0  0
  147.7829  141.5516  155.6485 C   0  0  0  0  0  0  0  0  0  0  0  0
  147.1778  142.0419  154.5335 N   0  0  0  0  0  0  0  0  0  0  0  0
  146.1101  142.8376  154.6463 C   0  0  0  0  0  0  0  0  0  0  0  0
  145.4901  143.2510  155.7540 N   0  0  0  0  0  0  0  0  0  0  0  0
  146.0880  142.7498  156.8729 C   0  0  0  0  0  0  0  0  0  0  0  0
  147.2289  141.9008  156.9087 C   0  0  0  0  0  0  0  0  0  0  0  0
  147.5555  141.5939  158.2232 N   0  0  0  0  0  0  0  0  0  0  0  0
  146.6545  142.2240  158.9268 C   0  0  0  0  0  0  0  0  0  0  0  0
  145.7294  142.9363  158.1964 N   0  0  0  0  0  0  0  0  0  0  0  0
  144.6177  143.7147  158.7202 C   0  0  0  0  0  0  0  0  0  0  0  0
  144.9867  144.5348  159.9792 C   0  0  2  0  0  0  0  0  0  0  0  0
  143.9389  145.4564  160.2389 O   0  0  0  0  0  0  0  0  0  0  0  0
  146.2912  145.3086  159.8575 C   0  0  0  0  0  0  0  0  0  0  0  0
  146.6978  145.5005  161.3132 C   0  0  0  0  0  0  0  0  0  0  0  0
  146.2940  144.3027  161.9646 O   0  0  0  0  0  0  0  0  0  0  0  0
  145.2624  143.6564  161.2194 C   0  0  1  0  0  0  0  0  0  0  0  0
  144.0561  143.3329  162.1158 C   0  0  0  0  0  0  0  0  0  0  0  0
  151.8186  145.2668  158.8135 H   0  0  0  0  0  0  0  0  0  0  0  0
  151.1609  144.6466  157.2989 H   0  0  0  0  0  0  0  0  0  0  0  0
  152.8766  144.4183  157.6855 H   0  0  0  0  0  0  0  0  0  0  0  0
  152.3189  142.2813  157.0816 H   0  0  0  0  0  0  0  0  0  0  0  0
  151.9678  141.2366  158.4422 H   0  0  0  0  0  0  0  0  0  0  0  0
  149.6972  141.1200  158.0134 H   0  0  0  0  0  0  0  0  0  0  0  0
  149.6379  142.7504  157.4187 H   0  0  0  0  0  0  0  0  0  0  0  0
  150.3999  142.0724  155.2022 H   0  0  0  0  0  0  0  0  0  0  0  0
  152.2427  140.5660  155.8385 H   0  0  0  0  0  0  0  0  0  0  0  0
  151.1221  139.3718  156.4606 H   0  0  0  0  0  0  0  0  0  0  0  0
  149.9223  138.5200  153.1825 H   0  0  0  0  0  0  0  0  0  0  0  0
  149.7379  138.1788  154.8944 H   0  0  0  0  0  0  0  0  0  0  0  0
  148.9527  140.7761  153.4526 H   0  0  0  0  0  0  0  0  0  0  0  0
  147.8424  139.5769  154.0936 H   0  0  0  0  0  0  0  0  0  0  0  0
  145.6903  143.1904  153.7159 H   0  0  0  0  0  0  0  0  0  0  0  0
  146.6346  142.1798  160.0062 H   0  0  0  0  0  0  0  0  0  0  0  0
  144.2549  144.3735  157.9299 H   0  0  0  0  0  0  0  0  0  0  0  0
  143.8001  143.0278  158.9429 H   0  0  0  0  0  0  0  0  0  0  0  0
  143.8233  146.0010  159.4755 H   0  0  0  0  0  0  0  0  0  0  0  0
  147.0436  144.6999  159.3547 H   0  0  0  0  0  0  0  0  0  0  0  0
  146.1983  146.2473  159.3095 H   0  0  0  0  0  0  0  0  0  0  0  0
  147.7663  145.6806  161.4315 H   0  0  0  0  0  0  0  0  0  0  0  0
  146.1603  146.3415  161.7534 H   0  0  0  0  0  0  0  0  0  0  0  0
  145.6982  142.7136  160.8861 H   0  0  0  0  0  0  0  0  0  0  0  0
  143.2644  142.8450  161.5468 H   0  0  0  0  0  0  0  0  0  0  0  0
  143.6410  144.2310  162.5740 H   0  0  0  0  0  0  0  0  0  0  0  0
  144.3464  142.6603  162.9230 H   0  0  0  0  0  0  0  0  0  0  0  0
  1  2  1  0  0  0  0
  1 28  1  0  0  0  0
  1 29  1  0  0  0  0
  1 30  1  0  0  0  0
  2  3  1  0  0  0  0
  3  4  1  0  0  0  0
  3 31  1  0  0  0  0
  3 32  1  0  0  0  0
  4  5  1  0  0  0  0
  4 33  1  0  0  0  0
  4 34  1  0  0  0  0
  5 10  1  0  0  0  0
  5  6  1  0  0  0  0
  5 35  1  0  0  0  0
  6  7  1  0  0  0  0
  6 36  1  0  0  0  0
  6 37  1  0  0  0  0
  7  8  1  0  0  0  0
  8  9  1  0  0  0  0
  8 38  1  0  0  0  0
  8 39  1  0  0  0  0
  9 10  1  0  0  0  0
  9 40  1  0  0  0  0
  9 41  1  0  0  0  0
 10 11  1  0  0  0  0
 11 16  1  0  0  0  0
 11 12  2  0  0  0  0
 12 13  1  0  0  0  0
 13 14  2  0  0  0  0
 13 42  1  0  0  0  0
 14 15  1  0  0  0  0
 15 19  1  0  0  0  0
 15 16  2  0  0  0  0
 16 17  1  0  0  0  0
 17 18  2  0  0  0  0
 18 19  1  0  0  0  0
 18 43  1  0  0  0  0
 19 20  1  0  0  0  0
 20 21  1  0  0  0  0
 20 44  1  0  0  0  0
 20 45  1  0  0  0  0
 21 26  1  0  0  0  0
 21 22  1  0  0  0  0
 21 23  1  0  0  0  0
 22 46  1  0  0  0  0
 23 24  1  0  0  0  0
 23 47  1  0  0  0  0
 23 48  1  0  0  0  0
 24 25  1  0  0  0  0
 24 49  1  0  0  0  0
 24 50  1  0  0  0  0
 25 26  1  0  0  0  0
 26 27  1  0  0  0  0
 26 51  1  0  0  0  0
 27 52  1  0  0  0  0
 27 53  1  0  0  0  0
 27 54  1  0  0  0  0
M  END
> <s_m_source_file>
AV-unprocessed.smi

> <i_m_source_file_index>
197

> <i_lp_mmshare_version>
43012

> <i_f3d_flags>
0

> <s_epik_input>
W0NIM11PW0NIMl1bQ0gyXVtDQEBIXTFbQ0gyXU9bQ0gyXVtDSDJdTjFjKG5bY0hdbjIpYyhjMjMpbltjSF1uM1tDSDJdW0NAQF00KFtPSF0pW0NIMl1bQ0gyXU9bQ0BIXTRbQ0gzXQ==

> <s_epik_cmdline>
J2VwaWtfcHl0aG9uJywgJy1waCcsICc3LjAnLCAnLXRuJywgJzgnLCAnLW1hJywgJzIwMCcsICctbWV0YWxfYmluZGluZycsICctaW1hZScsICc8aW5maWxlLm1hZT4nLCAnLW9tYWUnLCAnPG91dGZpbGUubWFlPic=

> <r_lp_tautomer_probability>
1

> <r_epik_Ionization_Penalty>
0.000106218

> <r_epik_Ionization_Penalty_Charging>
0

> <r_epik_Ionization_Penalty_Neutral>
0.000106218

> <r_epik_State_Penalty>
-0

> <r_epik_Charging_Adjusted_Penalty>
0

> <i_epik_Tot_Q>
0

> <i_epik_Tot_abs_Q>
0

> <r_epik_Metal_State_Penalty>
-0

> <b_epik_Metal_Only>
0

> <s_lp_Force_Field>
OPLS_2005

> <r_lp_Energy>
42.2665

> <b_lp_Chiralities_Consistent>
1

> <s_lp_Variant>
AV-unprocessed.smi:197-4

> <Gold.Version>
5.8.1

> <Gold.Id.Protein>
6NUR|6NUR_protein|mol2

> <Gold.PLP.Fitness>
42.0555

> <Gold.PLP.PLP>
-41.4017

> <Gold.PLP.part.hbond>
-2.9424

> <Gold.PLP.part.metal>
0.0000

> <Gold.PLP.part.buried>
-3.9422

> <Gold.PLP.part.nonpolar>
-35.7306

> <Gold.PLP.part.repulsive>
0.7446

> <Gold.PLP.ligand.clash>
0.0000

> <Gold.PLP.ligand.torsion>
1.4216

> <Gold.PLP.Chemscore.Hbond>
1.0000

> <Gold.PLP.Chemscore.CHOScore>
0.0000

> <Gold.PLP.Chemscore.Metal>
0.0000

> <Gold.Chemscore.Hbonds>
donor molecule, donor type, donor heavy atom, donor atom, acceptor molecule, acceptor atom, score
      P1  H  7989  7998       L1     7  1.00

> <Gold.PLP.Chemscore.Internal.Correction>
0.4970

> <Gold.Rescore>
     Score         DG    S(hbond)    S(metal)    S(lipo)     H(rot)  DE(clash)    DE(int)     intcor
      5.38     -10.37       0.60        0.00      86.64       2.84       0.17       4.81       ----

> <Gold.Chemscore.Fitness>
5.3819

> <Gold.Chemscore.DG>
-10.3677

> <Gold.Chemscore.ZeroCoef>
-5.4800

> <Gold.Chemscore.Hbond>
0.6021

> <Gold.Chemscore.Metal>
0.0000

> <Gold.Chemscore.Lipo>
86.6354

> <Gold.Chemscore.Internal_Hbond>
0.0000

> <Gold.Chemscore.DEClash>
0.1714

> <Gold.Chemscore.DEInternal>
4.8145

> <Gold.Chemscore.Rot>
2.8358

> <Gold.Chemscore.Internal.Correction>
   9.000000E+99

> <Gold.Chemscore.Hbonds>
donor molecule, donor type, donor heavy atom, donor atom, acceptor molecule, acceptor atom, score
      P1  H  7989  7998       L1     7  0.34

> <Gold.Chemscore.Hbond.Weighted>
-2.0109

> <Gold.Chemscore.Metal.Weighted>
-0.0000

> <Gold.Chemscore.Lipo.Weighted>
-10.1363

> <Gold.Chemscore.Internal_Hbond.Weighted>
0.0000

> <Gold.Chemscore.DEClash.Weighted>
0.1714

> <Gold.Chemscore.DEInternal.Weighted>
4.8145

> <Gold.Chemscore.Rot.Weighted>
7.2596

> <Gold.Chemscore.Internal.Correction.Weighted>
   9.000000E+99

> <Gold.Protein.RotatedTorsions>
[ 6907 6896 6895 6894 ] final  -52.22 input  -60.11 | X-H torsion
[ 7974 7965 7964 7962 ] final  -75.31 input  175.53 | X-H torsion
[ 8008 7997 7996 7995 ] final   41.88 input   59.86 | X-H torsion
[ 10167 10162 10161 10158 ] final   87.13 input  -65.29 | X-H torsion
[ 10718 10713 10712 10709 ] final   53.80 input   66.30 | X-H torsion
[ 10763 10752 10751 10750 ] final   72.91 input  -60.55 | X-H torsion
[ 11005 11000 10999 10996 ] final  -27.88 input  -57.11 | X-H torsion

> <Gold.Protein.ActiveResidues>
 VAL166  LYS551  ARG553  GLY616  TRP617  ASP618  TYR619  PRO620  LYS621  CYS622 
 ASP623  PHE694  ASN695  SER759  ASP760  ASP761  ALA762  ILE779  LEU786  VAL792 
 PHE793  MET794  SER795  GLU796  ALA797  LYS798  CYS799  TRP800  GLU811  SER814 

> <Gold.Protein.RotatedAtoms>
  150.8538  134.7871  159.7029 H   0  0  0  0  0  0  0  0  0  0  0  0  # atno 6907 bound_to 6896
  152.4596  134.5212  159.9793 H   0  0  0  0  0  0  0  0  0  0  0  0  # atno 6908 bound_to 6896
  151.5328  133.3408  159.2957 H   0  0  0  0  0  0  0  0  0  0  0  0  # atno 6909 bound_to 6896
  145.6277  140.9346  143.1104 H   0  0  0  0  0  0  0  0  0  0  0  0  # atno 7974 bound_to 7965
  155.2770  140.3370  155.4261 H   0  0  0  0  0  0  0  0  0  0  0  0  # atno 8008 bound_to 7997
  156.2107  140.1769  156.7742 H   0  0  0  0  0  0  0  0  0  0  0  0  # atno 8009 bound_to 7997
  154.5682  140.0675  156.8909 H   0  0  0  0  0  0  0  0  0  0  0  0  # atno 8010 bound_to 7997
  139.8805  144.6443  150.8848 H   0  0  0  0  0  0  0  0  0  0  0  0  # atno 10167 bound_to 10162
  157.5200  130.8558  149.8546 H   0  0  0  0  0  0  0  0  0  0  0  0  # atno 10718 bound_to 10713
  153.0488  135.5082  154.7814 H   0  0  0  0  0  0  0  0  0  0  0  0  # atno 10763 bound_to 10752
  154.6693  135.2950  154.9765 H   0  0  0  0  0  0  0  0  0  0  0  0  # atno 10764 bound_to 10752
  154.0589  135.6693  153.4862 H   0  0  0  0  0  0  0  0  0  0  0  0  # atno 10765 bound_to 10752
  140.9159  133.7430  156.0734 H   0  0  0  0  0  0  0  0  0  0  0  0  # atno 11005 bound_to 11000
  144.7206  139.8044  143.7383 LP  0  0  0  0  0  0  0  0  0  0  0  0  # atno 17320 bound_to 7965
  146.1381  139.4432  143.0126 LP  0  0  0  0  0  0  0  0  0  0  0  0  # atno 17321 bound_to 7965
  140.7745  143.3590  151.1866 LP  0  0  0  0  0  0  0  0  0  0  0  0  # atno 17342 bound_to 10162
  139.7200  143.9238  152.2982 LP  0  0  0  0  0  0  0  0  0  0  0  0  # atno 17343 bound_to 10162
  156.0347  130.3755  150.1593 LP  0  0  0  0  0  0  0  0  0  0  0  0  # atno 17370 bound_to 10713
  156.9781  130.9856  151.3443 LP  0  0  0  0  0  0  0  0  0  0  0  0  # atno 17371 bound_to 10713
  140.8050  134.3465  157.5428 LP  0  0  0  0  0  0  0  0  0  0  0  0  # atno 17394 bound_to 11000
  139.8766  134.9220  156.3290 LP  0  0  0  0  0  0  0  0  0  0  0  0  # atno 17395 bound_to 11000

$$$$
