AV-unprocessed.smi:1328|AV-procd|sdf|5481|dock6
  -GOLD-   22720 5 53D 1   1.00000     0.00000
 Structure written by MMmdl.
 38 39  0  0  0  0  0  0  0  0  1 V2000
  151.4212  136.7728  155.9400 C   0  0  0  0  0  0  0  0  0  0  0  0
  151.1932  138.2364  155.6920 C   0  0  0  0  0  0  0  0  0  0  0  0
  151.0198  138.6728  154.4556 N   0  0  0  0  0  0  0  0  0  0  0  0
  150.8387  140.0554  154.5596 O   0  0  0  0  0  0  0  0  0  0  0  0
  150.9116  140.4007  155.8702 C   0  0  0  0  0  0  0  0  0  0  0  0
  150.7491  141.8479  156.1911 C   0  0  0  0  0  0  0  0  0  0  0  0
  151.1301  139.2938  156.6437 C   0  0  0  0  0  0  0  0  0  0  0  0
  151.2754  139.2040  158.1426 C   0  0  0  0  0  0  0  0  0  0  0  0
  152.5423  139.9205  158.6239 C   0  0  0  0  0  0  0  0  0  0  0  0
  153.6592  139.5220  158.2896 O   0  0  0  0  0  0  0  0  0  0  0  0
  152.3471  140.9953  159.4039 N   0  0  0  0  0  0  0  0  0  0  0  0
  153.3960  141.8477  159.9596 C   0  0  2  0  0  0  0  0  0  0  0  0
  153.6155  141.4529  161.4281 C   0  0  0  0  0  0  0  0  0  0  0  0
  153.0060  143.3334  159.8052 C   0  0  1  0  0  0  0  0  0  0  0  0
  152.5475  143.7329  158.4039 C   0  0  0  0  0  0  0  0  0  0  0  0
  151.7679  145.0084  158.6604 C   0  0  0  0  0  0  0  0  0  0  0  0
  151.2860  144.8542  160.1055 C   0  0  0  0  0  0  0  0  0  0  0  0
  151.8569  143.6409  160.5821 O   0  0  0  0  0  0  0  0  0  0  0  0
  150.5885  136.3379  156.4927 H   0  0  0  0  0  0  0  0  0  0  0  0
  152.3272  136.6136  156.5249 H   0  0  0  0  0  0  0  0  0  0  0  0
  151.5275  136.2153  155.0085 H   0  0  0  0  0  0  0  0  0  0  0  0
  151.2632  142.1006  157.1186 H   0  0  0  0  0  0  0  0  0  0  0  0
  149.6953  142.1005  156.3077 H   0  0  0  0  0  0  0  0  0  0  0  0
  151.1626  142.4718  155.3985 H   0  0  0  0  0  0  0  0  0  0  0  0
  150.4199  139.6524  158.6488 H   0  0  0  0  0  0  0  0  0  0  0  0
  151.3062  138.1627  158.4660 H   0  0  0  0  0  0  0  0  0  0  0  0
  151.3949  141.2513  159.6212 H   0  0  0  0  0  0  0  0  0  0  0  0
  154.3318  141.6698  159.4267 H   0  0  0  0  0  0  0  0  0  0  0  0
  154.4399  142.0114  161.8714 H   0  0  0  0  0  0  0  0  0  0  0  0
  153.8584  140.3934  161.5173 H   0  0  0  0  0  0  0  0  0  0  0  0
  152.7246  141.6418  162.0280 H   0  0  0  0  0  0  0  0  0  0  0  0
  153.8269  143.9794  160.1229 H   0  0  0  0  0  0  0  0  0  0  0  0
  153.3743  143.8778  157.7081 H   0  0  0  0  0  0  0  0  0  0  0  0
  151.8845  142.9711  157.9916 H   0  0  0  0  0  0  0  0  0  0  0  0
  152.4229  145.8764  158.5763 H   0  0  0  0  0  0  0  0  0  0  0  0
  150.9461  145.1364  157.9554 H   0  0  0  0  0  0  0  0  0  0  0  0
  151.6254  145.6892  160.7194 H   0  0  0  0  0  0  0  0  0  0  0  0
  150.1989  144.8030  160.1724 H   0  0  0  0  0  0  0  0  0  0  0  0
  1  2  1  0  0  0  0
  1 19  1  0  0  0  0
  1 20  1  0  0  0  0
  1 21  1  0  0  0  0
  2  7  1  0  0  0  0
  2  3  2  0  0  0  0
  3  4  1  0  0  0  0
  4  5  1  0  0  0  0
  5  6  1  0  0  0  0
  5  7  2  0  0  0  0
  6 22  1  0  0  0  0
  6 23  1  0  0  0  0
  6 24  1  0  0  0  0
  7  8  1  0  0  0  0
  8  9  1  0  0  0  0
  8 25  1  0  0  0  0
  8 26  1  0  0  0  0
  9 10  2  0  0  0  0
  9 11  1  0  0  0  0
 11 12  1  0  0  0  0
 11 27  1  0  0  0  0
 12 13  1  0  0  0  0
 12 14  1  0  0  0  0
 12 28  1  0  0  0  0
 13 29  1  0  0  0  0
 13 30  1  0  0  0  0
 13 31  1  0  0  0  0
 14 18  1  0  0  0  0
 14 15  1  0  0  0  0
 14 32  1  0  0  0  0
 15 16  1  0  0  0  0
 15 33  1  0  0  0  0
 15 34  1  0  0  0  0
 16 17  1  0  0  0  0
 16 35  1  0  0  0  0
 16 36  1  0  0  0  0
 17 18  1  0  0  0  0
 17 37  1  0  0  0  0
 17 38  1  0  0  0  0
M  END
> <s_m_source_file>
AV-unprocessed.smi

> <i_m_source_file_index>
1328

> <i_lp_mmshare_version>
43012

> <i_f3d_flags>
0

> <s_epik_input>
W0NIM11jMW5vYyhbQ0gzXSljMVtDSDJdQyg9TylbTkhdW0NASF0oW0NIM10pW0NAQEhdMltDSDJdW0NIMl1bQ0gyXU8y

> <s_epik_cmdline>
J2VwaWtfcHl0aG9uJywgJy1waCcsICc3LjAnLCAnLXRuJywgJzgnLCAnLW1hJywgJzIwMCcsICctbWV0YWxfYmluZGluZycsICctaW1hZScsICc8aW5maWxlLm1hZT4nLCAnLW9tYWUnLCAnPG91dGZpbGUubWFlPic=

> <r_lp_tautomer_probability>
1

> <r_epik_Ionization_Penalty>
2.66156e-08

> <r_epik_Ionization_Penalty_Charging>
0

> <r_epik_Ionization_Penalty_Neutral>
2.66156e-08

> <r_epik_State_Penalty>
-0

> <r_epik_Charging_Adjusted_Penalty>
0

> <i_epik_Tot_Q>
0

> <i_epik_Tot_abs_Q>
0

> <r_epik_Metal_State_Penalty>
-0

> <b_epik_Metal_Only>
0

> <s_lp_Force_Field>
OPLS_2005

> <r_lp_Energy>
12.7116

> <b_lp_Chiralities_Consistent>
1

> <s_lp_Variant>
AV-unprocessed.smi:1328-3

> <Gold.Version>
5.8.1

> <Gold.Id.Protein>
6NUR|6NUR_protein|mol2

> <Gold.PLP.Fitness>
45.3517

> <Gold.PLP.PLP>
-40.0208

> <Gold.PLP.part.hbond>
-1.9579

> <Gold.PLP.part.metal>
0.0000

> <Gold.PLP.part.buried>
-6.8175

> <Gold.PLP.part.nonpolar>
-32.4099

> <Gold.PLP.part.repulsive>
0.4755

> <Gold.PLP.ligand.clash>
0.0000

> <Gold.PLP.ligand.torsion>
0.3551

> <Gold.PLP.Chemscore.Hbond>
2.0000

> <Gold.PLP.Chemscore.CHOScore>
0.0000

> <Gold.PLP.Chemscore.Metal>
0.0000

> <Gold.Chemscore.Hbonds>
donor molecule, donor type, donor heavy atom, donor atom, acceptor molecule, acceptor atom, score
      P1  H  7989  7998       L1     4  1.00
      P1  H  7997  8010       L1    10  1.00

> <Gold.PLP.Chemscore.Internal.Correction>
0.0410

> <Gold.Rescore>
     Score         DG    S(hbond)    S(metal)    S(lipo)     H(rot)  DE(clash)    DE(int)     intcor
     20.18     -20.52       1.96        0.00     105.80       1.52       0.00       0.34       ----

> <Gold.Chemscore.Fitness>
20.1792

> <Gold.Chemscore.DG>
-20.5204

> <Gold.Chemscore.ZeroCoef>
-5.4800

> <Gold.Chemscore.Hbond>
1.9587

> <Gold.Chemscore.Metal>
0.0000

> <Gold.Chemscore.Lipo>
105.8046

> <Gold.Chemscore.Internal_Hbond>
0.0000

> <Gold.Chemscore.DEClash>
0.0000

> <Gold.Chemscore.DEInternal>
0.3412

> <Gold.Chemscore.Rot>
1.5159

> <Gold.Chemscore.Internal.Correction>
   9.000000E+99

> <Gold.Chemscore.Hbonds>
donor molecule, donor type, donor heavy atom, donor atom, acceptor molecule, acceptor atom, score
      P1  H  7989  7998       L1     4  0.82
      P1  H  7997  8010       L1    10  0.99

> <Gold.Chemscore.Hbond.Weighted>
-6.5420

> <Gold.Chemscore.Metal.Weighted>
-0.0000

> <Gold.Chemscore.Lipo.Weighted>
-12.3791

> <Gold.Chemscore.Internal_Hbond.Weighted>
0.0000

> <Gold.Chemscore.DEClash.Weighted>
0.0000

> <Gold.Chemscore.DEInternal.Weighted>
0.3412

> <Gold.Chemscore.Rot.Weighted>
3.8807

> <Gold.Chemscore.Internal.Correction.Weighted>
   9.000000E+99

> <Gold.Protein.RotatedTorsions>
[ 6907 6896 6895 6894 ] final  107.58 input  -60.11 | X-H torsion
[ 7974 7965 7964 7962 ] final -150.82 input  175.53 | X-H torsion
[ 8008 7997 7996 7995 ] final   13.59 input   59.86 | X-H torsion
[ 10167 10162 10161 10158 ] final  -18.26 input  -65.29 | X-H torsion
[ 10718 10713 10712 10709 ] final   74.99 input   66.30 | X-H torsion
[ 10763 10752 10751 10750 ] final   55.49 input  -60.55 | X-H torsion
[ 11005 11000 10999 10996 ] final  105.99 input  -57.11 | X-H torsion

> <Gold.Protein.ActiveResidues>
 VAL166  LYS551  ARG553  GLY616  TRP617  ASP618  TYR619  PRO620  LYS621  CYS622 
 ASP623  PHE694  ASN695  SER759  ASP760  ASP761  ALA762  ILE779  LEU786  VAL792 
 PHE793  MET794  SER795  GLU796  ALA797  LYS798  CYS799  TRP800  GLU811  SER814 

> <Gold.Protein.RotatedAtoms>
  152.5148  133.9214  159.7535 H   0  0  0  0  0  0  0  0  0  0  0  0  # atno 6907 bound_to 6896
  150.9585  133.6463  159.2765 H   0  0  0  0  0  0  0  0  0  0  0  0  # atno 6908 bound_to 6896
  151.3716  135.0929  159.9520 H   0  0  0  0  0  0  0  0  0  0  0  0  # atno 6909 bound_to 6896
  144.7885  140.4880  143.5789 H   0  0  0  0  0  0  0  0  0  0  0  0  # atno 7974 bound_to 7965
  154.8366  140.2908  155.5687 H   0  0  0  0  0  0  0  0  0  0  0  0  # atno 8008 bound_to 7997
  156.3009  140.2522  156.3232 H   0  0  0  0  0  0  0  0  0  0  0  0  # atno 8009 bound_to 7997
  154.9172  140.0387  157.1968 H   0  0  0  0  0  0  0  0  0  0  0  0  # atno 8010 bound_to 7997
  140.7256  143.4934  150.9962 H   0  0  0  0  0  0  0  0  0  0  0  0  # atno 10167 bound_to 10162
  157.6616  130.9705  150.1290 H   0  0  0  0  0  0  0  0  0  0  0  0  # atno 10718 bound_to 10713
  152.9817  135.5709  154.5074 H   0  0  0  0  0  0  0  0  0  0  0  0  # atno 10763 bound_to 10752
  154.4584  135.2780  155.1733 H   0  0  0  0  0  0  0  0  0  0  0  0  # atno 10764 bound_to 10752
  154.3331  135.6245  153.5614 H   0  0  0  0  0  0  0  0  0  0  0  0  # atno 10765 bound_to 10752
  139.8808  134.9354  156.5598 H   0  0  0  0  0  0  0  0  0  0  0  0  # atno 11005 bound_to 11000
  145.5857  139.1492  143.3210 LP  0  0  0  0  0  0  0  0  0  0  0  0  # atno 17320 bound_to 7965
  146.2127  140.5985  142.9052 LP  0  0  0  0  0  0  0  0  0  0  0  0  # atno 17321 bound_to 7965
  139.8640  143.7278  152.3171 LP  0  0  0  0  0  0  0  0  0  0  0  0  # atno 17342 bound_to 10162
  139.7503  144.7536  151.0516 LP  0  0  0  0  0  0  0  0  0  0  0  0  # atno 17343 bound_to 10162
  156.2142  130.3669  149.8634 LP  0  0  0  0  0  0  0  0  0  0  0  0  # atno 17370 bound_to 10713
  156.6504  130.8741  151.3530 LP  0  0  0  0  0  0  0  0  0  0  0  0  # atno 17371 bound_to 10713
  140.8178  133.8378  155.8868 LP  0  0  0  0  0  0  0  0  0  0  0  0  # atno 17394 bound_to 11000
  140.9447  134.1856  157.4772 LP  0  0  0  0  0  0  0  0  0  0  0  0  # atno 17395 bound_to 11000

$$$$
