AV-unprocessed.smi:2565|AV-procd|sdf|10068|dock7
  -GOLD-   2272014103D 1   1.00000     0.00000
 Structure written by MMmdl.
 25 26  0  0  0  0  0  0  0  0  2 V2000
  151.9201  145.3331  159.1970 C   0  0  0  0  0  0  0  0  0  0  0  0
  151.8958  144.0045  159.7756 N   0  0  0  0  0  0  0  0  0  0  0  0
  152.3955  143.5956  160.9515 C   0  0  0  0  0  0  0  0  0  0  0  0
  152.2121  142.3044  161.2231 N   0  0  0  0  0  0  0  0  0  0  0  0
  151.5286  141.8131  160.1292 N   0  0  0  0  0  0  0  0  0  0  0  0
  151.3736  142.8546  159.3008 C   0  0  0  0  0  0  0  0  0  0  0  0
  150.6538  142.7766  157.9862 C   0  0  2  0  0  0  0  0  0  0  0  0
  149.1653  142.4161  158.1568 C   0  0  0  0  0  0  0  0  0  0  0  0
  148.5292  142.2537  156.8348 N   0  3  0  0  0  0  0  0  0  0  0  0
  149.2511  141.2687  156.0053 C   0  0  0  0  0  0  0  0  0  0  0  0
  150.7387  141.6496  155.9043 C   0  0  0  0  0  0  0  0  0  0  0  0
  151.2954  141.7670  157.2098 O   0  0  0  0  0  0  0  0  0  0  0  0
  152.3194  146.0481  159.9171 H   0  0  0  0  0  0  0  0  0  0  0  0
  150.9092  145.6362  158.9228 H   0  0  0  0  0  0  0  0  0  0  0  0
  152.5516  145.3360  158.3085 H   0  0  0  0  0  0  0  0  0  0  0  0
  152.9045  144.2620  161.6327 H   0  0  0  0  0  0  0  0  0  0  0  0
  150.7531  143.7318  157.4678 H   0  0  0  0  0  0  0  0  0  0  0  0
  149.0601  141.4865  158.7182 H   0  0  0  0  0  0  0  0  0  0  0  0
  148.6416  143.1913  158.7167 H   0  0  0  0  0  0  0  0  0  0  0  0
  147.5724  141.9530  156.9568 H   0  0  0  0  0  0  0  0  0  0  0  0
  149.1449  140.2784  156.4505 H   0  0  0  0  0  0  0  0  0  0  0  0
  148.7972  141.2271  155.0150 H   0  0  0  0  0  0  0  0  0  0  0  0
  151.2860  140.8841  155.3541 H   0  0  0  0  0  0  0  0  0  0  0  0
  150.8652  142.5856  155.3581 H   0  0  0  0  0  0  0  0  0  0  0  0
  148.5362  143.1447  156.3590 H   0  0  0  0  0  0  0  0  0  0  0  0
  1  2  1  0  0  0  0
  1 13  1  0  0  0  0
  1 14  1  0  0  0  0
  1 15  1  0  0  0  0
  2  6  1  0  0  0  0
  2  3  1  0  0  0  0
  3  4  2  0  0  0  0
  3 16  1  0  0  0  0
  4  5  1  0  0  0  0
  5  6  2  0  0  0  0
  6  7  1  0  0  0  0
  7 12  1  0  0  0  0
  7  8  1  0  0  0  0
  7 17  1  0  0  0  0
  8  9  1  0  0  0  0
  8 18  1  0  0  0  0
  8 19  1  0  0  0  0
  9 10  1  0  0  0  0
  9 20  1  0  0  0  0
  9 25  1  0  0  0  0
 10 11  1  0  0  0  0
 10 21  1  0  0  0  0
 10 22  1  0  0  0  0
 11 12  1  0  0  0  0
 11 23  1  0  0  0  0
 11 24  1  0  0  0  0
M  CHG  1   9   1
M  END
> <s_m_source_file>
AV-unprocessed.smi

> <i_m_source_file_index>
2565

> <i_lp_mmshare_version>
43012

> <i_f3d_flags>
0

> <s_epik_input>
W0NIM11uMVtjSF1ubmMxW0NAQEhdMltDSDJdW05IXVtDSDJdW0NIMl1PMg==

> <s_epik_cmdline>
J2VwaWtfcHl0aG9uJywgJy1waCcsICc3LjAnLCAnLXRuJywgJzgnLCAnLW1hJywgJzIwMCcsICctbWV0YWxfYmluZGluZycsICctaW1hZScsICc8aW5maWxlLm1hZT4nLCAnLW9tYWUnLCAnPG91dGZpbGUubWFlPic=

> <r_lp_tautomer_probability>
1

> <r_epik_Ionization_Penalty>
0.12571

> <r_epik_Ionization_Penalty_Charging>
0.125708

> <r_epik_Ionization_Penalty_Neutral>
1.64918e-06

> <r_epik_State_Penalty>
0.115169

> <r_epik_Charging_Adjusted_Penalty>
0.240877

> <i_epik_Tot_Q>
1

> <i_epik_Tot_abs_Q>
1

> <r_epik_Metal_State_Penalty>
0.115216

> <b_epik_Metal_Only>
0

> <s_lp_Force_Field>
OPLS_2005

> <r_lp_Energy>
13.9295

> <b_lp_Chiralities_Consistent>
1

> <s_lp_Variant>
AV-unprocessed.smi:2565-1

> <Gold.Version>
5.8.1

> <Gold.Id.Protein>
6NUR|6NUR_protein|mol2

> <Gold.PLP.Fitness>
31.6129

> <Gold.PLP.PLP>
-25.6769

> <Gold.PLP.part.hbond>
-2.1205

> <Gold.PLP.part.metal>
0.0000

> <Gold.PLP.part.buried>
-4.6072

> <Gold.PLP.part.nonpolar>
-18.3800

> <Gold.PLP.part.repulsive>
0.1077

> <Gold.PLP.ligand.clash>
0.0000

> <Gold.PLP.ligand.torsion>
0.0340

> <Gold.PLP.Chemscore.Hbond>
2.0000

> <Gold.PLP.Chemscore.CHOScore>
0.0000

> <Gold.PLP.Chemscore.Metal>
0.0000

> <Gold.Chemscore.Hbonds>
donor molecule, donor type, donor heavy atom, donor atom, acceptor molecule, acceptor atom, score
      L1  H     9    25       P1  8028  2.00

> <Gold.PLP.Chemscore.Internal.Correction>
0.0039

> <Gold.Rescore>
     Score         DG    S(hbond)    S(metal)    S(lipo)     H(rot)  DE(clash)    DE(int)     intcor
     10.92     -10.97       1.00        0.00      40.33       1.00       0.04       0.01       ----

> <Gold.Chemscore.Fitness>
10.9217

> <Gold.Chemscore.DG>
-10.9710

> <Gold.Chemscore.ZeroCoef>
-5.4800

> <Gold.Chemscore.Hbond>
0.9977

> <Gold.Chemscore.Metal>
0.0000

> <Gold.Chemscore.Lipo>
40.3291

> <Gold.Chemscore.Internal_Hbond>
0.0000

> <Gold.Chemscore.DEClash>
0.0427

> <Gold.Chemscore.DEInternal>
0.0066

> <Gold.Chemscore.Rot>
1.0000

> <Gold.Chemscore.Internal.Correction>
   9.000000E+99

> <Gold.Chemscore.Hbonds>
donor molecule, donor type, donor heavy atom, donor atom, acceptor molecule, acceptor atom, score
      L1  H     9    25       P1  8028  0.85

> <Gold.Chemscore.Hbond.Weighted>
-3.3325

> <Gold.Chemscore.Metal.Weighted>
-0.0000

> <Gold.Chemscore.Lipo.Weighted>
-4.7185

> <Gold.Chemscore.Internal_Hbond.Weighted>
0.0000

> <Gold.Chemscore.DEClash.Weighted>
0.0427

> <Gold.Chemscore.DEInternal.Weighted>
0.0066

> <Gold.Chemscore.Rot.Weighted>
2.5600

> <Gold.Chemscore.Internal.Correction.Weighted>
   9.000000E+99

> <Gold.Protein.RotatedTorsions>
[ 6907 6896 6895 6894 ] final  122.67 input  -60.11 | X-H torsion
[ 7974 7965 7964 7962 ] final   11.04 input  175.53 | X-H torsion
[ 8008 7997 7996 7995 ] final  -17.55 input   59.86 | X-H torsion
[ 10167 10162 10161 10158 ] final  -21.96 input  -65.29 | X-H torsion
[ 10718 10713 10712 10709 ] final  -11.93 input   66.30 | X-H torsion
[ 10763 10752 10751 10750 ] final  -97.47 input  -60.55 | X-H torsion
[ 11005 11000 10999 10996 ] final -125.89 input  -57.11 | X-H torsion

> <Gold.Protein.ActiveResidues>
 VAL166  LYS551  ARG553  GLY616  TRP617  ASP618  TYR619  PRO620  LYS621  CYS622 
 ASP623  PHE694  ASN695  SER759  ASP760  ASP761  ALA762  ILE779  LEU786  VAL792 
 PHE793  MET794  SER795  GLU796  ALA797  LYS798  CYS799  TRP800  GLU811  SER814 

> <Gold.Protein.RotatedAtoms>
  152.4224  133.7138  159.6493 H   0  0  0  0  0  0  0  0  0  0  0  0  # atno 6907 bound_to 6896
  150.8100  133.8429  159.3193 H   0  0  0  0  0  0  0  0  0  0  0  0  # atno 6908 bound_to 6896
  151.6141  135.1040  160.0139 H   0  0  0  0  0  0  0  0  0  0  0  0  # atno 6909 bound_to 6896
  146.2378  139.9544  142.8466 H   0  0  0  0  0  0  0  0  0  0  0  0  # atno 7974 bound_to 7965
  154.4970  140.2140  155.9426 H   0  0  0  0  0  0  0  0  0  0  0  0  # atno 8008 bound_to 7997
  156.1384  140.3184  155.8424 H   0  0  0  0  0  0  0  0  0  0  0  0  # atno 8009 bound_to 7997
  155.4167  140.0494  157.3019 H   0  0  0  0  0  0  0  0  0  0  0  0  # atno 8010 bound_to 7997
  140.7284  143.4579  151.0422 H   0  0  0  0  0  0  0  0  0  0  0  0  # atno 10167 bound_to 10162
  156.6519  130.4957  149.6059 H   0  0  0  0  0  0  0  0  0  0  0  0  # atno 10718 bound_to 10713
  154.7331  135.5045  153.8996 H   0  0  0  0  0  0  0  0  0  0  0  0  # atno 10763 bound_to 10752
  153.0969  135.6674  153.9755 H   0  0  0  0  0  0  0  0  0  0  0  0  # atno 10764 bound_to 10752
  153.9551  135.3053  155.3416 H   0  0  0  0  0  0  0  0  0  0  0  0  # atno 10765 bound_to 10752
  140.9725  134.0785  157.3854 H   0  0  0  0  0  0  0  0  0  0  0  0  # atno 11005 bound_to 11000
  145.1830  140.9776  143.4255 LP  0  0  0  0  0  0  0  0  0  0  0  0  # atno 17320 bound_to 7965
  144.9925  139.3676  143.6208 LP  0  0  0  0  0  0  0  0  0  0  0  0  # atno 17321 bound_to 7965
  139.8261  143.7754  152.3178 LP  0  0  0  0  0  0  0  0  0  0  0  0  # atno 17342 bound_to 10162
  139.7854  144.7430  151.0030 LP  0  0  0  0  0  0  0  0  0  0  0  0  # atno 17343 bound_to 10162
  156.2077  130.6660  151.1236 LP  0  0  0  0  0  0  0  0  0  0  0  0  # atno 17370 bound_to 10713
  157.7138  131.0720  150.6404 LP  0  0  0  0  0  0  0  0  0  0  0  0  # atno 17371 bound_to 10713
  139.8918  135.0120  156.6810 LP  0  0  0  0  0  0  0  0  0  0  0  0  # atno 17394 bound_to 11000
  140.7307  133.9061  155.8209 LP  0  0  0  0  0  0  0  0  0  0  0  0  # atno 17395 bound_to 11000

$$$$
