AV-unprocessed.smi:38|AV-procd|sdf|335|dock5
  -GOLD-   2262016173D 1   1.00000     0.00000
 Structure written by MMmdl.
 28 29  0  0  0  0  0  0  0  0  1 V2000
  140.6460  135.1329  154.0650 O   0  0  0  0  0  0  0  0  0  0  0  0
  141.7728  135.4785  153.7152 C   0  0  0  0  0  0  0  0  0  0  0  0
  142.8290  134.5628  153.7405 N   0  0  0  0  0  0  0  0  0  0  0  0
  144.1472  134.8317  153.3661 C   0  0  0  0  0  0  0  0  0  0  0  0
  144.9910  133.9382  153.4190 O   0  0  0  0  0  0  0  0  0  0  0  0
  144.4370  136.1442  152.9292 N   0  0  0  0  0  0  0  0  0  0  0  0
  145.8445  136.5138  152.5192 C   0  0  1  0  0  0  0  0  0  0  0  0
  145.8513  137.2327  151.1664 C   0  0  0  0  0  0  0  0  0  0  0  0
  146.1457  138.6685  151.5599 C   0  0  2  0  0  0  0  0  0  0  0  0
  146.8560  139.3334  150.5353 O   0  0  0  0  0  0  0  0  0  0  0  0
  146.9793  138.4982  152.8329 C   0  0  1  0  0  0  0  0  0  0  0  0
  146.9393  139.7215  153.7616 C   0  0  0  0  0  0  0  0  0  0  0  0
  147.6849  140.7803  153.2002 O   0  0  0  0  0  0  0  0  0  0  0  0
  146.3653  137.3858  153.4761 O   0  0  0  0  0  0  0  0  0  0  0  0
  143.4182  137.0864  152.8872 C   0  0  0  0  0  0  0  0  0  0  0  0
  142.1433  136.8120  153.2505 C   0  0  0  0  0  0  0  0  0  0  0  0
  141.2114  137.7780  153.1832 F   0  0  0  0  0  0  0  0  0  0  0  0
  142.6207  133.6265  154.0552 H   0  0  0  0  0  0  0  0  0  0  0  0
  146.4460  135.6040  152.5176 H   0  0  0  0  0  0  0  0  0  0  0  0
  145.2166  139.1983  151.7729 H   0  0  0  0  0  0  0  0  0  0  0  0
  148.0046  138.2322  152.5671 H   0  0  0  0  0  0  0  0  0  0  0  0
  146.6601  136.8143  150.5649 H   0  0  0  0  0  0  0  0  0  0  0  0
  144.9127  137.1093  150.6246 H   0  0  0  0  0  0  0  0  0  0  0  0
  147.7534  139.4426  150.8111 H   0  0  0  0  0  0  0  0  0  0  0  0
  145.9135  140.0718  153.8780 H   0  0  0  0  0  0  0  0  0  0  0  0
  147.3134  139.4771  154.7564 H   0  0  0  0  0  0  0  0  0  0  0  0
  148.4189  140.4158  152.7296 H   0  0  0  0  0  0  0  0  0  0  0  0
  143.6415  138.0887  152.5530 H   0  0  0  0  0  0  0  0  0  0  0  0
  1  2  2  0  0  0  0
  2 16  1  0  0  0  0
  2  3  1  0  0  0  0
  3 18  1  0  0  0  0
  3  4  1  0  0  0  0
  4  5  2  0  0  0  0
  4  6  1  0  0  0  0
  6  7  1  0  0  0  0
  6 15  1  0  0  0  0
  7 19  1  0  0  0  0
  7 14  1  0  0  0  0
  7  8  1  0  0  0  0
  8  9  1  0  0  0  0
  8 22  1  0  0  0  0
  8 23  1  0  0  0  0
  9 20  1  0  0  0  0
  9 10  1  0  0  0  0
  9 11  1  0  0  0  0
 10 24  1  0  0  0  0
 11 21  1  0  0  0  0
 11 12  1  0  0  0  0
 11 14  1  0  0  0  0
 12 13  1  0  0  0  0
 12 25  1  0  0  0  0
 12 26  1  0  0  0  0
 13 27  1  0  0  0  0
 15 16  2  0  0  0  0
 15 28  1  0  0  0  0
 16 17  1  0  0  0  0
M  END
> <s_m_source_file>
AV-unprocessed.smi

> <i_m_source_file_index>
38

> <i_lp_mmshare_version>
43012

> <i_f3d_flags>
0

> <s_epik_input>
Tz1jMVtuSF1jKD1PKW4oW2NIXWMxRilbQ0BIXTJbQ0gyXVtDQEhdKFtPSF0pW0NASF0oTzIpW0NIMl1bT0hd

> <s_epik_cmdline>
J2VwaWtfcHl0aG9uJywgJy1waCcsICc3LjAnLCAnLXRuJywgJzgnLCAnLW1hJywgJzIwMCcsICctbWV0YWxfYmluZGluZycsICctaW1hZScsICc8aW5maWxlLm1hZT4nLCAnLW9tYWUnLCAnPG91dGZpbGUubWFlPic=

> <r_lp_tautomer_probability>
0.999537

> <r_epik_Ionization_Penalty>
0.0357432

> <r_epik_Ionization_Penalty_Charging>
0.0357431

> <r_epik_Ionization_Penalty_Neutral>
1.19946e-07

> <r_epik_State_Penalty>
0.0298169

> <r_epik_Charging_Adjusted_Penalty>
0.06556

> <i_epik_Tot_Q>
0

> <i_epik_Tot_abs_Q>
0

> <r_epik_Metal_State_Penalty>
2.348

> <b_epik_Metal_Only>
0

> <s_epik_Chemistry_Notes>
This compound contains an acetal/aminal-like group ( X-CH(R)-Y where X, Y are N, S, or O) that may be acid/base labile, releasing an aldehyde.

> <s_lp_Force_Field>
OPLS_2005

> <r_lp_Energy>
27.0042

> <b_lp_Chiralities_Consistent>
1

> <s_lp_Variant>
AV-unprocessed.smi:38-1

> <Gold.Version>
5.8.1

> <Gold.Id.Protein>
6NUR|6NUR_protein|mol2

> <Gold.PLP.Fitness>
37.5255

> <Gold.PLP.PLP>
-22.1140

> <Gold.PLP.part.hbond>
-6.4320

> <Gold.PLP.part.metal>
0.0000

> <Gold.PLP.part.buried>
7.6206

> <Gold.PLP.part.nonpolar>
-22.4884

> <Gold.PLP.part.repulsive>
0.4403

> <Gold.PLP.ligand.clash>
0.0000

> <Gold.PLP.ligand.torsion>
0.2441

> <Gold.PLP.Chemscore.Hbond>
4.0000

> <Gold.PLP.Chemscore.CHOScore>
1.2968

> <Gold.PLP.Chemscore.Metal>
0.0000

> <Gold.Chemscore.Hbonds>
donor molecule, donor type, donor heavy atom, donor atom, acceptor molecule, acceptor atom, score
      L1  H     3    18       P1 10957  1.00
      L1  H    10    24       P1  7957  1.00
      L1  H    13    27       P1  7957  1.00
      P1  H 11000 11005       L1     1  1.00
      L1  C    15    28       P1 10171  0.30
      L1  C    15    28       P1 10175  1.00

> <Gold.PLP.Chemscore.Internal.Correction>
0.0092

> <Gold.Rescore>
     Score         DG    S(hbond)    S(metal)    S(lipo)     H(rot)  DE(clash)    DE(int)     intcor
     11.21     -14.81       3.72        0.00      37.43       2.91       3.35       0.25       ----

> <Gold.Chemscore.Fitness>
11.2129

> <Gold.Chemscore.DG>
-14.8124

> <Gold.Chemscore.ZeroCoef>
-5.4800

> <Gold.Chemscore.Hbond>
3.7165

> <Gold.Chemscore.Metal>
0.0000

> <Gold.Chemscore.Lipo>
37.4300

> <Gold.Chemscore.Internal_Hbond>
0.0000

> <Gold.Chemscore.DEClash>
3.3503

> <Gold.Chemscore.DEInternal>
0.2492

> <Gold.Chemscore.Rot>
2.9141

> <Gold.Chemscore.Internal.Correction>
   9.000000E+99

> <Gold.Chemscore.Hbonds>
donor molecule, donor type, donor heavy atom, donor atom, acceptor molecule, acceptor atom, score
      L1  H     3    18       P1 10957  0.97
      L1  H    10    24       P1  7957  0.45
      L1  H    13    27       P1  7957  0.95
      P1  H 11000 11005       L1     1  0.99

> <Gold.Chemscore.Hbond.Weighted>
-12.4132

> <Gold.Chemscore.Metal.Weighted>
-0.0000

> <Gold.Chemscore.Lipo.Weighted>
-4.3793

> <Gold.Chemscore.Internal_Hbond.Weighted>
0.0000

> <Gold.Chemscore.DEClash.Weighted>
3.3503

> <Gold.Chemscore.DEInternal.Weighted>
0.2492

> <Gold.Chemscore.Rot.Weighted>
7.4601

> <Gold.Chemscore.Internal.Correction.Weighted>
   9.000000E+99

> <Gold.Protein.RotatedTorsions>
[ 6907 6896 6895 6894 ] final   34.11 input  -60.11 | X-H torsion
[ 7974 7965 7964 7962 ] final -116.97 input  175.53 | X-H torsion
[ 8008 7997 7996 7995 ] final -174.98 input   59.86 | X-H torsion
[ 10167 10162 10161 10158 ] final   99.24 input  -65.29 | X-H torsion
[ 10718 10713 10712 10709 ] final  -99.64 input   66.30 | X-H torsion
[ 10763 10752 10751 10750 ] final    8.35 input  -60.55 | X-H torsion
[ 11005 11000 10999 10996 ] final   37.11 input  -57.11 | X-H torsion

> <Gold.Protein.ActiveResidues>
 VAL166  LYS551  ARG553  GLY616  TRP617  ASP618  TYR619  PRO620  LYS621  CYS622 
 ASP623  PHE694  ASN695  SER759  ASP760  ASP761  ALA762  ILE779  LEU786  VAL792 
 PHE793  MET794  SER795  GLU796  ALA797  LYS798  CYS799  TRP800  GLU811  SER814 

> <Gold.Protein.RotatedAtoms>
  152.0978  134.9363  160.0570 H   0  0  0  0  0  0  0  0  0  0  0  0  # atno 6907 bound_to 6896
  152.0589  133.4048  159.4417 H   0  0  0  0  0  0  0  0  0  0  0  0  # atno 6908 bound_to 6896
  150.6838  134.3143  159.4803 H   0  0  0  0  0  0  0  0  0  0  0  0  # atno 6909 bound_to 6896
  145.0906  140.8487  143.3985 H   0  0  0  0  0  0  0  0  0  0  0  0  # atno 7974 bound_to 7965
  155.9769  140.1174  157.0762 H   0  0  0  0  0  0  0  0  0  0  0  0  # atno 8008 bound_to 7997
  154.4172  140.1152  156.5450 H   0  0  0  0  0  0  0  0  0  0  0  0  # atno 8009 bound_to 7997
  155.6522  140.3473  155.4754 H   0  0  0  0  0  0  0  0  0  0  0  0  # atno 8010 bound_to 7997
  139.7635  144.6946  151.0258 H   0  0  0  0  0  0  0  0  0  0  0  0  # atno 10167 bound_to 10162
  156.0140  130.5292  150.6700 H   0  0  0  0  0  0  0  0  0  0  0  0  # atno 10718 bound_to 10713
  153.2260  135.6887  153.7945 H   0  0  0  0  0  0  0  0  0  0  0  0  # atno 10763 bound_to 10752
  153.7126  135.3280  155.3250 H   0  0  0  0  0  0  0  0  0  0  0  0  # atno 10764 bound_to 10752
  154.8292  135.4594  154.1126 H   0  0  0  0  0  0  0  0  0  0  0  0  # atno 10765 bound_to 10752
  140.2258  134.3586  155.7985 H   0  0  0  0  0  0  0  0  0  0  0  0  # atno 11005 bound_to 11000
  145.1071  139.2782  143.5656 LP  0  0  0  0  0  0  0  0  0  0  0  0  # atno 17320 bound_to 7965
  146.3531  140.0655  142.8626 LP  0  0  0  0  0  0  0  0  0  0  0  0  # atno 17321 bound_to 7965
  140.7809  143.4669  151.0199 LP  0  0  0  0  0  0  0  0  0  0  0  0  # atno 17342 bound_to 10162
  139.8355  143.7634  152.3180 LP  0  0  0  0  0  0  0  0  0  0  0  0  # atno 17343 bound_to 10162
  157.4425  131.0863  151.0929 LP  0  0  0  0  0  0  0  0  0  0  0  0  # atno 17370 bound_to 10713
  157.1469  130.6167  149.5571 LP  0  0  0  0  0  0  0  0  0  0  0  0  # atno 17371 bound_to 10713
  141.2220  133.7218  156.8651 LP  0  0  0  0  0  0  0  0  0  0  0  0  # atno 17394 bound_to 11000
  140.1802  134.9039  157.2939 LP  0  0  0  0  0  0  0  0  0  0  0  0  # atno 17395 bound_to 11000

$$$$
