AV-unprocessed.smi:1881|AV-procd|sdf|7640|dock9
  -GOLD-   22720 9373D 1   1.00000     0.00000
 Structure written by MMmdl.
 51 52  0  0  0  0  0  0  0  0  2 V2000
  149.6006  140.9574  158.0011 C   0  0  0  0  0  0  0  0  0  0  0  0
  151.0521  141.4323  157.7379 C   0  0  0  0  0  0  0  0  0  0  0  0
  150.9388  142.5659  156.6827 C   0  0  0  0  0  0  0  0  0  0  0  0
  151.7013  142.0780  158.9838 C   0  0  0  0  0  0  0  0  0  0  0  0
  151.9537  140.2899  157.1649 C   0  0  0  0  0  0  0  0  0  0  0  0
  152.9828  140.0134  157.7857 O   0  0  0  0  0  0  0  0  0  0  0  0
  151.6494  139.6073  156.0243 N   0  0  0  0  0  0  0  0  0  0  0  0
  152.3927  138.5128  155.3853 C   0  0  0  0  0  0  0  0  0  0  0  0
  151.6100  137.1993  155.5670 C   0  0  0  0  0  0  0  0  0  0  0  0
  150.1857  137.3166  154.9763 C   0  0  0  0  0  0  0  0  0  0  0  0
  149.3595  136.0643  155.2941 C   0  0  0  0  0  0  0  0  0  0  0  0
  148.9991  135.8350  156.4492 O   0  0  0  0  0  0  0  0  0  0  0  0
  149.0875  135.2483  154.2629 N   0  0  0  0  0  0  0  0  0  0  0  0
  148.3413  133.9949  154.3460 C   0  0  0  0  0  0  0  0  0  0  0  0
  148.5719  133.0752  153.1294 C   0  0  0  0  0  0  0  0  0  0  0  0
  147.3918  133.0060  152.1747 C   0  0  0  0  0  0  0  0  0  0  0  0
  146.7503  131.7865  151.8687 C   0  0  0  0  0  0  0  0  0  0  0  0
  145.6834  131.7813  150.9463 C   0  0  0  0  0  0  0  0  0  0  0  0
  145.2808  132.9937  150.3491 C   0  0  0  0  0  0  0  0  0  0  0  0
  145.9558  134.1830  150.6909 C   0  0  0  0  0  0  0  0  0  0  0  0
  146.9723  134.1471  151.5802 N   0  3  0  0  0  0  0  0  0  0  0  0
  149.4834  138.5964  155.4859 C   0  0  0  0  0  0  0  0  0  0  0  0
  150.3845  139.8309  155.3031 C   0  0  0  0  0  0  0  0  0  0  0  0
  148.9009  141.7937  157.9832 H   0  0  0  0  0  0  0  0  0  0  0  0
  149.4642  140.4931  158.9746 H   0  0  0  0  0  0  0  0  0  0  0  0
  149.2649  140.2505  157.2412 H   0  0  0  0  0  0  0  0  0  0  0  0
  150.4846  142.2126  155.7554 H   0  0  0  0  0  0  0  0  0  0  0  0
  151.9117  142.9936  156.4343 H   0  0  0  0  0  0  0  0  0  0  0  0
  150.3223  143.3896  157.0449 H   0  0  0  0  0  0  0  0  0  0  0  0
  151.1401  142.9568  159.3030 H   0  0  0  0  0  0  0  0  0  0  0  0
  152.7191  142.4075  158.7705 H   0  0  0  0  0  0  0  0  0  0  0  0
  151.7560  141.4183  159.8457 H   0  0  0  0  0  0  0  0  0  0  0  0
  152.5010  138.7290  154.3215 H   0  0  0  0  0  0  0  0  0  0  0  0
  153.4085  138.3919  155.7366 H   0  0  0  0  0  0  0  0  0  0  0  0
  152.1481  136.3829  155.0835 H   0  0  0  0  0  0  0  0  0  0  0  0
  151.5627  136.9500  156.6281 H   0  0  0  0  0  0  0  0  0  0  0  0
  150.2822  137.4030  153.8924 H   0  0  0  0  0  0  0  0  0  0  0  0
  149.4183  135.5199  153.3481 H   0  0  0  0  0  0  0  0  0  0  0  0
  148.5841  133.4649  155.2687 H   0  0  0  0  0  0  0  0  0  0  0  0
  147.2821  134.2438  154.4129 H   0  0  0  0  0  0  0  0  0  0  0  0
  149.4460  133.4198  152.5758 H   0  0  0  0  0  0  0  0  0  0  0  0
  148.8120  132.0674  153.4711 H   0  0  0  0  0  0  0  0  0  0  0  0
  147.0768  130.8642  152.3266 H   0  0  0  0  0  0  0  0  0  0  0  0
  145.1827  130.8574  150.6964 H   0  0  0  0  0  0  0  0  0  0  0  0
  144.4680  133.0098  149.6379 H   0  0  0  0  0  0  0  0  0  0  0  0
  145.7179  135.1534  150.2803 H   0  0  0  0  0  0  0  0  0  0  0  0
  148.5440  138.7450  154.9520 H   0  0  0  0  0  0  0  0  0  0  0  0
  149.2262  138.4977  156.5421 H   0  0  0  0  0  0  0  0  0  0  0  0
  149.8480  140.7233  155.6266 H   0  0  0  0  0  0  0  0  0  0  0  0
  150.5893  139.9920  154.2435 H   0  0  0  0  0  0  0  0  0  0  0  0
  147.4518  135.0185  151.8070 H   0  0  0  0  0  0  0  0  0  0  0  0
  1  2  1  0  0  0  0
  1 24  1  0  0  0  0
  1 25  1  0  0  0  0
  1 26  1  0  0  0  0
  2  3  1  0  0  0  0
  2  4  1  0  0  0  0
  2  5  1  0  0  0  0
  3 27  1  0  0  0  0
  3 28  1  0  0  0  0
  3 29  1  0  0  0  0
  4 30  1  0  0  0  0
  4 31  1  0  0  0  0
  4 32  1  0  0  0  0
  5  6  2  0  0  0  0
  5  7  1  0  0  0  0
  7 23  1  0  0  0  0
  7  8  1  0  0  0  0
  8  9  1  0  0  0  0
  8 33  1  0  0  0  0
  8 34  1  0  0  0  0
  9 10  1  0  0  0  0
  9 35  1  0  0  0  0
  9 36  1  0  0  0  0
 10 11  1  0  0  0  0
 10 22  1  0  0  0  0
 10 37  1  0  0  0  0
 11 12  2  0  0  0  0
 11 13  1  0  0  0  0
 13 14  1  0  0  0  0
 13 38  1  0  0  0  0
 14 15  1  0  0  0  0
 14 39  1  0  0  0  0
 14 40  1  0  0  0  0
 15 16  1  0  0  0  0
 15 41  1  0  0  0  0
 15 42  1  0  0  0  0
 16 21  1  0  0  0  0
 16 17  2  0  0  0  0
 17 18  1  0  0  0  0
 17 43  1  0  0  0  0
 18 19  2  0  0  0  0
 18 44  1  0  0  0  0
 19 20  1  0  0  0  0
 19 45  1  0  0  0  0
 20 21  2  0  0  0  0
 20 46  1  0  0  0  0
 21 51  1  0  0  0  0
 22 23  1  0  0  0  0
 22 47  1  0  0  0  0
 22 48  1  0  0  0  0
 23 49  1  0  0  0  0
 23 50  1  0  0  0  0
M  CHG  1  21   1
M  END
> <s_m_source_file>
AV-unprocessed.smi

> <i_m_source_file_index>
1881

> <i_lp_mmshare_version>
43012

> <i_f3d_flags>
0

> <s_epik_input>
W0NIM11DKFtDSDNdKShbQ0gzXSlDKD1PKU4xW0NIMl1bQ0gyXVtDSF0oW0NIMl1bQ0gyXTEpQyg9TylbTkhdW0NIMl1bQ0gyXWMyW2NIXVtjSF1bY0hdW2NIXW4y

> <s_epik_cmdline>
J2VwaWtfcHl0aG9uJywgJy1waCcsICc3LjAnLCAnLXRuJywgJzgnLCAnLW1hJywgJzIwMCcsICctbWV0YWxfYmluZGluZycsICctaW1hZScsICc8aW5maWxlLm1hZT4nLCAnLW9tYWUnLCAnPG91dGZpbGUubWFlPic=

> <r_epik_Ionization_Penalty>
1.84673

> <r_epik_Ionization_Penalty_Charging>
1.84673

> <r_epik_Ionization_Penalty_Neutral>
1.24553e-07

> <r_epik_State_Penalty>
1.9639

> <r_epik_Charging_Adjusted_Penalty>
3.81063

> <i_epik_Tot_Q>
1

> <i_epik_Tot_abs_Q>
1

> <r_epik_Metal_State_Penalty>
1.98977

> <b_epik_Metal_Only>
0

> <s_lp_Force_Field>
OPLS_2005

> <r_lp_Energy>
43.8057

> <b_lp_Chiralities_Consistent>
1

> <s_lp_Variant>
AV-unprocessed.smi:1881-2

> <Gold.Version>
5.8.1

> <Gold.Id.Protein>
6NUR|6NUR_protein|mol2

> <Gold.PLP.Fitness>
49.3866

> <Gold.PLP.PLP>
-38.5349

> <Gold.PLP.part.hbond>
-3.0000

> <Gold.PLP.part.metal>
0.0000

> <Gold.PLP.part.buried>
-2.9951

> <Gold.PLP.part.nonpolar>
-32.2687

> <Gold.PLP.part.repulsive>
0.0666

> <Gold.PLP.ligand.clash>
0.0000

> <Gold.PLP.ligand.torsion>
0.6241

> <Gold.PLP.Chemscore.Hbond>
4.0000

> <Gold.PLP.Chemscore.CHOScore>
0.0000

> <Gold.PLP.Chemscore.Metal>
0.0000

> <Gold.Chemscore.Hbonds>
donor molecule, donor type, donor heavy atom, donor atom, acceptor molecule, acceptor atom, score
      L1  H    13    38       P1  7948  0.78
      L1  H    21    51       P1  7948  2.00
      P1  H  7997  8009       L1     6  1.00

> <Gold.PLP.Chemscore.Internal.Correction>
0.0999

> <Gold.Rescore>
     Score         DG    S(hbond)    S(metal)    S(lipo)     H(rot)  DE(clash)    DE(int)     intcor
     19.99     -21.62       2.67        0.00      97.75       1.65       0.12       1.50       ----

> <Gold.Chemscore.Fitness>
19.9917

> <Gold.Chemscore.DG>
-21.6160

> <Gold.Chemscore.ZeroCoef>
-5.4800

> <Gold.Chemscore.Hbond>
2.6745

> <Gold.Chemscore.Metal>
0.0000

> <Gold.Chemscore.Lipo>
97.7549

> <Gold.Chemscore.Internal_Hbond>
0.0000

> <Gold.Chemscore.DEClash>
0.1232

> <Gold.Chemscore.DEInternal>
1.5011

> <Gold.Chemscore.Rot>
1.6540

> <Gold.Chemscore.Internal.Correction>
   9.000000E+99

> <Gold.Chemscore.Hbonds>
donor molecule, donor type, donor heavy atom, donor atom, acceptor molecule, acceptor atom, score
      L1  H    13    38       P1  7948  0.13
      L1  H    21    51       P1  7948  0.83
      P1  H  7997  8009       L1     6  0.79

> <Gold.Chemscore.Hbond.Weighted>
-8.9328

> <Gold.Chemscore.Metal.Weighted>
-0.0000

> <Gold.Chemscore.Lipo.Weighted>
-11.4373

> <Gold.Chemscore.Internal_Hbond.Weighted>
0.0000

> <Gold.Chemscore.DEClash.Weighted>
0.1232

> <Gold.Chemscore.DEInternal.Weighted>
1.5011

> <Gold.Chemscore.Rot.Weighted>
4.2342

> <Gold.Chemscore.Internal.Correction.Weighted>
   9.000000E+99

> <Gold.Protein.RotatedTorsions>
[ 6907 6896 6895 6894 ] final   22.43 input  -60.11 | X-H torsion
[ 7974 7965 7964 7962 ] final -134.97 input  175.53 | X-H torsion
[ 8008 7997 7996 7995 ] final  174.44 input   59.86 | X-H torsion
[ 10167 10162 10161 10158 ] final -154.58 input  -65.29 | X-H torsion
[ 10718 10713 10712 10709 ] final   81.87 input   66.30 | X-H torsion
[ 10763 10752 10751 10750 ] final  138.97 input  -60.55 | X-H torsion
[ 11005 11000 10999 10996 ] final  124.28 input  -57.11 | X-H torsion

> <Gold.Protein.ActiveResidues>
 VAL166  LYS551  ARG553  GLY616  TRP617  ASP618  TYR619  PRO620  LYS621  CYS622 
 ASP623  PHE694  ASN695  SER759  ASP760  ASP761  ALA762  ILE779  LEU786  VAL792 
 PHE793  MET794  SER795  GLU796  ALA797  LYS798  CYS799  TRP800  GLU811  SER814 

> <Gold.Protein.RotatedAtoms>
  151.9269  135.0273  160.0526 H   0  0  0  0  0  0  0  0  0  0  0  0  # atno 6907 bound_to 6896
  152.2151  133.4936  159.5140 H   0  0  0  0  0  0  0  0  0  0  0  0  # atno 6908 bound_to 6896
  150.6986  134.1332  159.4120 H   0  0  0  0  0  0  0  0  0  0  0  0  # atno 6909 bound_to 6896
  144.9055  140.6827  143.5058 H   0  0  0  0  0  0  0  0  0  0  0  0  # atno 7974 bound_to 7965
  156.0973  140.1434  156.9514 H   0  0  0  0  0  0  0  0  0  0  0  0  # atno 8008 bound_to 7997
  154.4680  140.0919  156.7116 H   0  0  0  0  0  0  0  0  0  0  0  0  # atno 8009 bound_to 7997
  155.4819  140.3445  155.4343 H   0  0  0  0  0  0  0  0  0  0  0  0  # atno 8010 bound_to 7997
  139.7002  143.9276  152.2425 H   0  0  0  0  0  0  0  0  0  0  0  0  # atno 10167 bound_to 10162
  157.6844  131.0023  150.2291 H   0  0  0  0  0  0  0  0  0  0  0  0  # atno 10718 bound_to 10713
  153.8984  135.3025  155.3448 H   0  0  0  0  0  0  0  0  0  0  0  0  # atno 10763 bound_to 10752
  154.7682  135.4899  153.9600 H   0  0  0  0  0  0  0  0  0  0  0  0  # atno 10764 bound_to 10752
  153.1258  135.6793  153.9358 H   0  0  0  0  0  0  0  0  0  0  0  0  # atno 10765 bound_to 10752
  139.9351  134.9640  156.8385 H   0  0  0  0  0  0  0  0  0  0  0  0  # atno 11005 bound_to 11000
  145.3543  139.1698  143.4417 LP  0  0  0  0  0  0  0  0  0  0  0  0  # atno 17320 bound_to 7965
  146.3131  140.3598  142.8664 LP  0  0  0  0  0  0  0  0  0  0  0  0  # atno 17321 bound_to 7965
  139.9116  144.6853  150.8556 LP  0  0  0  0  0  0  0  0  0  0  0  0  # atno 17342 bound_to 10162
  140.7707  143.3439  151.2151 LP  0  0  0  0  0  0  0  0  0  0  0  0  # atno 17343 bound_to 10162
  156.2927  130.3748  149.7825 LP  0  0  0  0  0  0  0  0  0  0  0  0  # atno 17370 bound_to 10713
  156.5480  130.8329  151.3290 LP  0  0  0  0  0  0  0  0  0  0  0  0  # atno 17371 bound_to 10713
  140.6097  134.0094  155.7571 LP  0  0  0  0  0  0  0  0  0  0  0  0  # atno 17394 bound_to 11000
  141.0961  133.9842  157.3158 LP  0  0  0  0  0  0  0  0  0  0  0  0  # atno 17395 bound_to 11000

$$$$
