AV-unprocessed.smi:841|AV-procd|sdf|3915|dock7
  -GOLD-   22720 1373D 1   1.00000     0.00000
 Structure written by MMmdl.
 30 31  0  0  0  0  0  0  0  0  1 V2000
  154.2717  140.1944  159.1716 O   0  0  0  0  0  0  0  0  0  0  0  0
  153.2531  140.7950  159.5134 C   0  0  0  0  0  0  0  0  0  0  0  0
  153.3153  141.8395  160.6308 C   0  0  0  0  0  0  0  0  0  0  0  0
  152.8606  143.1409  160.1715 N   0  0  0  0  0  0  0  0  0  0  0  0
  152.1734  144.1083  160.8757 C   0  0  0  0  0  0  0  0  0  0  0  0
  151.9540  145.1534  160.0249 C   0  0  0  0  0  0  0  0  0  0  0  0
  152.5464  144.7251  158.8043 C   0  0  0  0  0  0  0  0  0  0  0  0
  153.0856  143.5200  158.8943 N   0  0  0  0  0  0  0  0  0  0  0  0
  152.0509  140.5912  158.9523 N   0  0  0  0  0  0  0  0  0  0  0  0
  151.7656  139.6504  157.8735 C   0  0  0  0  0  0  0  0  0  0  0  0
  151.4403  140.3736  156.5531 C   0  0  2  0  0  0  0  0  0  0  0  0
  150.0844  141.0493  156.5432 C   0  0  0  0  0  0  0  0  0  0  0  0
  149.8444  141.2573  155.0506 C   0  0  0  0  0  0  0  0  0  0  0  0
  150.5158  140.1859  154.3940 O   0  0  0  0  0  0  0  0  0  0  0  0
  151.3185  139.4678  155.3261 C   0  0  0  0  0  0  0  0  0  0  0  0
  152.6968  141.5074  161.4660 H   0  0  0  0  0  0  0  0  0  0  0  0
  154.3337  141.9447  161.0079 H   0  0  0  0  0  0  0  0  0  0  0  0
  151.9024  143.9736  161.9124 H   0  0  0  0  0  0  0  0  0  0  0  0
  151.4456  146.0814  160.2408 H   0  0  0  0  0  0  0  0  0  0  0  0
  152.5982  145.2494  157.8616 H   0  0  0  0  0  0  0  0  0  0  0  0
  151.2719  141.1327  159.2978 H   0  0  0  0  0  0  0  0  0  0  0  0
  152.5911  138.9493  157.7376 H   0  0  0  0  0  0  0  0  0  0  0  0
  150.9075  139.0510  158.1788 H   0  0  0  0  0  0  0  0  0  0  0  0
  152.2022  141.1300  156.3562 H   0  0  0  0  0  0  0  0  0  0  0  0
  149.3239  140.3836  156.9542 H   0  0  0  0  0  0  0  0  0  0  0  0
  150.0648  141.9809  157.1094 H   0  0  0  0  0  0  0  0  0  0  0  0
  148.7839  141.2779  154.7991 H   0  0  0  0  0  0  0  0  0  0  0  0
  150.2885  142.1971  154.7209 H   0  0  0  0  0  0  0  0  0  0  0  0
  152.2871  139.2086  154.8982 H   0  0  0  0  0  0  0  0  0  0  0  0
  150.8022  138.5410  155.5800 H   0  0  0  0  0  0  0  0  0  0  0  0
  1  2  2  0  0  0  0
  2  3  1  0  0  0  0
  2  9  1  0  0  0  0
  3  4  1  0  0  0  0
  3 16  1  0  0  0  0
  3 17  1  0  0  0  0
  4  8  1  0  0  0  0
  4  5  1  0  0  0  0
  5  6  2  0  0  0  0
  5 18  1  0  0  0  0
  6  7  1  0  0  0  0
  6 19  1  0  0  0  0
  7  8  2  0  0  0  0
  7 20  1  0  0  0  0
  9 10  1  0  0  0  0
  9 21  1  0  0  0  0
 10 11  1  0  0  0  0
 10 22  1  0  0  0  0
 10 23  1  0  0  0  0
 11 15  1  0  0  0  0
 11 12  1  0  0  0  0
 11 24  1  0  0  0  0
 12 13  1  0  0  0  0
 12 25  1  0  0  0  0
 12 26  1  0  0  0  0
 13 14  1  0  0  0  0
 13 27  1  0  0  0  0
 13 28  1  0  0  0  0
 14 15  1  0  0  0  0
 15 29  1  0  0  0  0
 15 30  1  0  0  0  0
M  END
> <s_m_source_file>
AV-unprocessed.smi

> <i_m_source_file_index>
841

> <i_lp_mmshare_version>
43012

> <i_f3d_flags>
0

> <s_epik_input>
bjFbY0hdW2NIXVtjSF1uMVtDSDJdQyg9TylbTkhdW0NIMl1bQ0BASF0yW0NIMl1bQ0gyXU9bQ0gyXTI=

> <s_epik_cmdline>
J2VwaWtfcHl0aG9uJywgJy1waCcsICc3LjAnLCAnLXRuJywgJzgnLCAnLW1hJywgJzIwMCcsICctbWV0YWxfYmluZGluZycsICctaW1hZScsICc8aW5maWxlLm1hZT4nLCAnLW9tYWUnLCAnPG91dGZpbGUubWFlPic=

> <r_lp_tautomer_probability>
1

> <r_epik_Ionization_Penalty>
1.49823e-05

> <r_epik_Ionization_Penalty_Charging>
0

> <r_epik_Ionization_Penalty_Neutral>
1.49823e-05

> <r_epik_State_Penalty>
-0

> <r_epik_Charging_Adjusted_Penalty>
0

> <i_epik_Tot_Q>
0

> <i_epik_Tot_abs_Q>
0

> <r_epik_Metal_State_Penalty>
-0

> <b_epik_Metal_Only>
0

> <s_lp_Force_Field>
OPLS_2005

> <r_lp_Energy>
19.4913

> <b_lp_Chiralities_Consistent>
1

> <s_lp_Variant>
AV-unprocessed.smi:841-1

> <Gold.Version>
5.8.1

> <Gold.Id.Protein>
6NUR|6NUR_protein|mol2

> <Gold.PLP.Fitness>
43.6475

> <Gold.PLP.PLP>
-38.7791

> <Gold.PLP.part.hbond>
-2.0000

> <Gold.PLP.part.metal>
0.0000

> <Gold.PLP.part.buried>
-4.1263

> <Gold.PLP.part.nonpolar>
-32.0576

> <Gold.PLP.part.repulsive>
0.2389

> <Gold.PLP.ligand.clash>
0.0000

> <Gold.PLP.ligand.torsion>
0.4628

> <Gold.PLP.Chemscore.Hbond>
1.9280

> <Gold.PLP.Chemscore.CHOScore>
0.0000

> <Gold.PLP.Chemscore.Metal>
0.0000

> <Gold.Chemscore.Hbonds>
donor molecule, donor type, donor heavy atom, donor atom, acceptor molecule, acceptor atom, score
      P1  H  7989  7998       L1    14  1.00
      P1  H  7997  8009       L1     1  0.93

> <Gold.PLP.Chemscore.Internal.Correction>
0.0101

> <Gold.Rescore>
     Score         DG    S(hbond)    S(metal)    S(lipo)     H(rot)  DE(clash)    DE(int)     intcor
     13.56     -13.70       0.98        0.00      79.05       1.68       0.01       0.14       ----

> <Gold.Chemscore.Fitness>
13.5551

> <Gold.Chemscore.DG>
-13.7041

> <Gold.Chemscore.ZeroCoef>
-5.4800

> <Gold.Chemscore.Hbond>
0.9786

> <Gold.Chemscore.Metal>
0.0000

> <Gold.Chemscore.Lipo>
79.0505

> <Gold.Chemscore.Internal_Hbond>
0.0000

> <Gold.Chemscore.DEClash>
0.0093

> <Gold.Chemscore.DEInternal>
0.1397

> <Gold.Chemscore.Rot>
1.6771

> <Gold.Chemscore.Internal.Correction>
   9.000000E+99

> <Gold.Chemscore.Hbonds>
donor molecule, donor type, donor heavy atom, donor atom, acceptor molecule, acceptor atom, score
      P1  H  7989  7998       L1    14  0.17
      P1  H  7997  8009       L1     1  0.85

> <Gold.Chemscore.Hbond.Weighted>
-3.2685

> <Gold.Chemscore.Metal.Weighted>
-0.0000

> <Gold.Chemscore.Lipo.Weighted>
-9.2489

> <Gold.Chemscore.Internal_Hbond.Weighted>
0.0000

> <Gold.Chemscore.DEClash.Weighted>
0.0093

> <Gold.Chemscore.DEInternal.Weighted>
0.1397

> <Gold.Chemscore.Rot.Weighted>
4.2934

> <Gold.Chemscore.Internal.Correction.Weighted>
   9.000000E+99

> <Gold.Protein.RotatedTorsions>
[ 6907 6896 6895 6894 ] final  102.69 input  -60.11 | X-H torsion
[ 7974 7965 7964 7962 ] final  -32.98 input  175.53 | X-H torsion
[ 8008 7997 7996 7995 ] final  131.98 input   59.86 | X-H torsion
[ 10167 10162 10161 10158 ] final   20.59 input  -65.29 | X-H torsion
[ 10718 10713 10712 10709 ] final -112.21 input   66.30 | X-H torsion
[ 10763 10752 10751 10750 ] final -156.30 input  -60.55 | X-H torsion
[ 11005 11000 10999 10996 ] final -168.53 input  -57.11 | X-H torsion

> <Gold.Protein.ActiveResidues>
 VAL166  LYS551  ARG553  GLY616  TRP617  ASP618  TYR619  PRO620  LYS621  CYS622 
 ASP623  PHE694  ASN695  SER759  ASP760  ASP761  ALA762  ILE779  LEU786  VAL792 
 PHE793  MET794  SER795  GLU796  ALA797  LYS798  CYS799  TRP800  GLU811  SER814 

> <Gold.Protein.RotatedAtoms>
  152.5317  133.9938  159.7862 H   0  0  0  0  0  0  0  0  0  0  0  0  # atno 6907 bound_to 6896
  151.0169  133.5905  159.2683 H   0  0  0  0  0  0  0  0  0  0  0  0  # atno 6908 bound_to 6896
  151.2959  135.0762  159.9274 H   0  0  0  0  0  0  0  0  0  0  0  0  # atno 6909 bound_to 6896
  146.0947  140.5859  142.8848 H   0  0  0  0  0  0  0  0  0  0  0  0  # atno 7974 bound_to 7965
  156.2977  140.2558  156.3014 H   0  0  0  0  0  0  0  0  0  0  0  0  # atno 8008 bound_to 7997
  154.9414  140.0396  157.2117 H   0  0  0  0  0  0  0  0  0  0  0  0  # atno 8009 bound_to 7997
  154.8123  140.2846  155.5849 H   0  0  0  0  0  0  0  0  0  0  0  0  # atno 8010 bound_to 7997
  140.5492  143.9540  150.6567 H   0  0  0  0  0  0  0  0  0  0  0  0  # atno 10167 bound_to 10162
  156.0692  130.5908  150.8478 H   0  0  0  0  0  0  0  0  0  0  0  0  # atno 10718 bound_to 10713
  154.7723  135.3149  154.8164 H   0  0  0  0  0  0  0  0  0  0  0  0  # atno 10763 bound_to 10752
  153.8896  135.6827  153.4765 H   0  0  0  0  0  0  0  0  0  0  0  0  # atno 10764 bound_to 10752
  153.1339  135.4768  154.9327 H   0  0  0  0  0  0  0  0  0  0  0  0  # atno 10765 bound_to 10752
  140.5410  134.5522  157.5099 H   0  0  0  0  0  0  0  0  0  0  0  0  # atno 11005 bound_to 11000
  144.7386  140.4880  143.6885 LP  0  0  0  0  0  0  0  0  0  0  0  0  # atno 17320 bound_to 7965
  145.5971  139.1500  143.3150 LP  0  0  0  0  0  0  0  0  0  0  0  0  # atno 17321 bound_to 7965
  140.2961  143.3291  152.1016 LP  0  0  0  0  0  0  0  0  0  0  0  0  # atno 17342 bound_to 10162
  139.5020  144.6725  151.6207 LP  0  0  0  0  0  0  0  0  0  0  0  0  # atno 17343 bound_to 10162
  157.5753  131.0946  150.9355 LP  0  0  0  0  0  0  0  0  0  0  0  0  # atno 17370 bound_to 10713
  156.9562  130.5438  149.5284 LP  0  0  0  0  0  0  0  0  0  0  0  0  # atno 17371 bound_to 10713
  139.9504  134.7627  156.0462 LP  0  0  0  0  0  0  0  0  0  0  0  0  # atno 17394 bound_to 11000
  141.1227  133.6608  156.3256 LP  0  0  0  0  0  0  0  0  0  0  0  0  # atno 17395 bound_to 11000

$$$$
