AV-unprocessed.smi:2181|AV-procd|sdf|8861|dock4
  -GOLD-   2272012 53D 1   1.00000     0.00000
 Structure written by MMmdl.
 38 39  0  0  0  0  0  0  0  0  1 V2000
  148.4910  137.0005  156.8999 C   0  0  0  0  0  0  0  0  0  0  0  0
  149.6828  137.0870  157.8101 C   0  0  0  0  0  0  0  0  0  0  0  0
  149.5748  136.6693  159.0601 N   0  0  0  0  0  0  0  0  0  0  0  0
  150.8324  136.8634  159.6397 O   0  0  0  0  0  0  0  0  0  0  0  0
  151.6587  137.3957  158.7037 C   0  0  0  0  0  0  0  0  0  0  0  0
  153.0625  137.6711  159.1253 C   0  0  0  0  0  0  0  0  0  0  0  0
  150.9941  137.5649  157.5203 C   0  0  0  0  0  0  0  0  0  0  0  0
  151.5225  138.1155  156.2208 C   0  0  0  0  0  0  0  0  0  0  0  0
  151.5961  139.6396  156.3037 C   0  0  0  0  0  0  0  0  0  0  0  0
  151.3041  140.3248  155.3239 O   0  0  0  0  0  0  0  0  0  0  0  0
  151.9821  140.1532  157.4819 N   0  0  0  0  0  0  0  0  0  0  0  0
  152.0809  141.5750  157.8075 C   0  0  2  0  0  0  0  0  0  0  0  0
  152.5798  141.7706  159.2626 C   0  0  0  0  0  0  0  0  0  0  0  0
  152.1842  143.0978  159.9432 C   0  0  0  0  0  0  0  0  0  0  0  0
  152.5506  144.3786  159.1659 C   0  0  0  0  0  0  0  0  0  0  0  0
  152.0276  144.4845  157.7131 C   0  0  0  0  0  0  0  0  0  0  0  0
  150.8375  143.6796  157.4395 N   0  0  0  0  0  0  0  0  0  0  0  0
  150.7913  142.3362  157.4419 C   0  0  0  0  0  0  0  0  0  0  0  0
  149.7524  141.7290  157.1839 O   0  0  0  0  0  0  0  0  0  0  0  0
  148.4465  136.0269  156.4115 H   0  0  0  0  0  0  0  0  0  0  0  0
  148.5316  137.7603  156.1197 H   0  0  0  0  0  0  0  0  0  0  0  0
  147.5586  137.1415  157.4475 H   0  0  0  0  0  0  0  0  0  0  0  0
  153.7482  136.9607  158.6629 H   0  0  0  0  0  0  0  0  0  0  0  0
  153.1717  137.5926  160.2073 H   0  0  0  0  0  0  0  0  0  0  0  0
  153.3652  138.6753  158.8283 H   0  0  0  0  0  0  0  0  0  0  0  0
  152.5089  137.7128  155.9878 H   0  0  0  0  0  0  0  0  0  0  0  0
  150.8815  137.8412  155.3823 H   0  0  0  0  0  0  0  0  0  0  0  0
  152.1961  139.5088  158.2293 H   0  0  0  0  0  0  0  0  0  0  0  0
  152.8458  141.9799  157.1431 H   0  0  0  0  0  0  0  0  0  0  0  0
  152.2010  140.9596  159.8861 H   0  0  0  0  0  0  0  0  0  0  0  0
  153.6657  141.6691  159.2789 H   0  0  0  0  0  0  0  0  0  0  0  0
  151.1125  143.0947  160.1470 H   0  0  0  0  0  0  0  0  0  0  0  0
  152.6560  143.1394  160.9255 H   0  0  0  0  0  0  0  0  0  0  0  0
  152.1633  145.2265  159.7321 H   0  0  0  0  0  0  0  0  0  0  0  0
  153.6339  144.5045  159.1601 H   0  0  0  0  0  0  0  0  0  0  0  0
  151.7973  145.5254  157.4851 H   0  0  0  0  0  0  0  0  0  0  0  0
  152.8147  144.2061  157.0116 H   0  0  0  0  0  0  0  0  0  0  0  0
  149.9894  144.1799  157.2153 H   0  0  0  0  0  0  0  0  0  0  0  0
  1  2  1  0  0  0  0
  1 20  1  0  0  0  0
  1 21  1  0  0  0  0
  1 22  1  0  0  0  0
  2  7  1  0  0  0  0
  2  3  2  0  0  0  0
  3  4  1  0  0  0  0
  4  5  1  0  0  0  0
  5  6  1  0  0  0  0
  5  7  2  0  0  0  0
  6 23  1  0  0  0  0
  6 24  1  0  0  0  0
  6 25  1  0  0  0  0
  7  8  1  0  0  0  0
  8  9  1  0  0  0  0
  8 26  1  0  0  0  0
  8 27  1  0  0  0  0
  9 10  2  0  0  0  0
  9 11  1  0  0  0  0
 11 12  1  0  0  0  0
 11 28  1  0  0  0  0
 12 18  1  0  0  0  0
 12 13  1  0  0  0  0
 12 29  1  0  0  0  0
 13 14  1  0  0  0  0
 13 30  1  0  0  0  0
 13 31  1  0  0  0  0
 14 15  1  0  0  0  0
 14 32  1  0  0  0  0
 14 33  1  0  0  0  0
 15 16  1  0  0  0  0
 15 34  1  0  0  0  0
 15 35  1  0  0  0  0
 16 17  1  0  0  0  0
 16 36  1  0  0  0  0
 16 37  1  0  0  0  0
 17 18  1  0  0  0  0
 17 38  1  0  0  0  0
 18 19  2  0  0  0  0
M  END
> <s_m_source_file>
AV-unprocessed.smi

> <i_m_source_file_index>
2181

> <i_lp_mmshare_version>
43012

> <i_f3d_flags>
0

> <s_epik_input>
W0NIM11jMW5vYyhbQ0gzXSljMVtDSDJdQyg9TylbTkhdW0NAQEhdMltDSDJdW0NIMl1bQ0gyXVtDSDJdW05IXUMyPU8=

> <s_epik_cmdline>
J2VwaWtfcHl0aG9uJywgJy1waCcsICc3LjAnLCAnLXRuJywgJzgnLCAnLW1hJywgJzIwMCcsICctbWV0YWxfYmluZGluZycsICctaW1hZScsICc8aW5maWxlLm1hZT4nLCAnLW9tYWUnLCAnPG91dGZpbGUubWFlPic=

> <r_lp_tautomer_probability>
1

> <r_epik_Ionization_Penalty>
5.91376e-08

> <r_epik_Ionization_Penalty_Charging>
0

> <r_epik_Ionization_Penalty_Neutral>
5.91376e-08

> <r_epik_State_Penalty>
-0

> <r_epik_Charging_Adjusted_Penalty>
0

> <i_epik_Tot_Q>
0

> <i_epik_Tot_abs_Q>
0

> <r_epik_Metal_State_Penalty>
-0

> <b_epik_Metal_Only>
0

> <s_lp_Force_Field>
OPLS_2005

> <r_lp_Energy>
8.47239

> <b_lp_Chiralities_Consistent>
1

> <s_lp_Variant>
AV-unprocessed.smi:2181-1

> <Gold.Version>
5.8.1

> <Gold.Id.Protein>
6NUR|6NUR_protein|mol2

> <Gold.PLP.Fitness>
38.3699

> <Gold.PLP.PLP>
-30.5724

> <Gold.PLP.part.hbond>
-3.0000

> <Gold.PLP.part.metal>
0.0000

> <Gold.PLP.part.buried>
-6.5237

> <Gold.PLP.part.nonpolar>
-21.6170

> <Gold.PLP.part.repulsive>
0.2105

> <Gold.PLP.ligand.clash>
0.0000

> <Gold.PLP.ligand.torsion>
0.5903

> <Gold.PLP.Chemscore.Hbond>
2.9753

> <Gold.PLP.Chemscore.CHOScore>
0.0000

> <Gold.PLP.Chemscore.Metal>
0.0000

> <Gold.Chemscore.Hbonds>
donor molecule, donor type, donor heavy atom, donor atom, acceptor molecule, acceptor atom, score
      L1  H    17    38       P1  8028  0.83
      P1  H  6896  6909       L1     4  0.45
      P1  H  7989  7998       L1    10  0.99

> <Gold.PLP.Chemscore.Internal.Correction>
0.0523

> <Gold.Rescore>
     Score         DG    S(hbond)    S(metal)    S(lipo)     H(rot)  DE(clash)    DE(int)     intcor
     16.78     -17.94       2.24        0.00      75.18       1.49       0.34       0.83       ----

> <Gold.Chemscore.Fitness>
16.7767

> <Gold.Chemscore.DG>
-17.9398

> <Gold.Chemscore.ZeroCoef>
-5.4800

> <Gold.Chemscore.Hbond>
2.2426

> <Gold.Chemscore.Metal>
0.0000

> <Gold.Chemscore.Lipo>
75.1836

> <Gold.Chemscore.Internal_Hbond>
0.0000

> <Gold.Chemscore.DEClash>
0.3354

> <Gold.Chemscore.DEInternal>
0.8278

> <Gold.Chemscore.Rot>
1.4949

> <Gold.Chemscore.Internal.Correction>
   9.000000E+99

> <Gold.Chemscore.Hbonds>
donor molecule, donor type, donor heavy atom, donor atom, acceptor molecule, acceptor atom, score
      L1  H    17    38       P1  8028  0.57
      P1  H  6896  6909       L1     4  0.01
      P1  H  7989  7998       L1    10  0.93

> <Gold.Chemscore.Hbond.Weighted>
-7.4903

> <Gold.Chemscore.Metal.Weighted>
-0.0000

> <Gold.Chemscore.Lipo.Weighted>
-8.7965

> <Gold.Chemscore.Internal_Hbond.Weighted>
0.0000

> <Gold.Chemscore.DEClash.Weighted>
0.3354

> <Gold.Chemscore.DEInternal.Weighted>
0.8278

> <Gold.Chemscore.Rot.Weighted>
3.8269

> <Gold.Chemscore.Internal.Correction.Weighted>
   9.000000E+99

> <Gold.Protein.RotatedTorsions>
[ 6907 6896 6895 6894 ] final   81.62 input  -60.11 | X-H torsion
[ 7974 7965 7964 7962 ] final -162.18 input  175.53 | X-H torsion
[ 8008 7997 7996 7995 ] final   64.83 input   59.86 | X-H torsion
[ 10167 10162 10161 10158 ] final   54.96 input  -65.29 | X-H torsion
[ 10718 10713 10712 10709 ] final  -56.47 input   66.30 | X-H torsion
[ 10763 10752 10751 10750 ] final   14.10 input  -60.55 | X-H torsion
[ 11005 11000 10999 10996 ] final  -83.94 input  -57.11 | X-H torsion

> <Gold.Protein.ActiveResidues>
 VAL166  LYS551  ARG553  GLY616  TRP617  ASP618  TYR619  PRO620  LYS621  CYS622 
 ASP623  PHE694  ASN695  SER759  ASP760  ASP761  ALA762  ILE779  LEU786  VAL792 
 PHE793  MET794  SER795  GLU796  ALA797  LYS798  CYS799  TRP800  GLU811  SER814 

> <Gold.Protein.RotatedAtoms>
  152.5274  134.3176  159.9136 H   0  0  0  0  0  0  0  0  0  0  0  0  # atno 6907 bound_to 6896
  151.3125  133.4068  159.2655 H   0  0  0  0  0  0  0  0  0  0  0  0  # atno 6908 bound_to 6896
  151.0026  134.9351  159.8020 H   0  0  0  0  0  0  0  0  0  0  0  0  # atno 6909 bound_to 6896
  144.7366  140.3289  143.6157 H   0  0  0  0  0  0  0  0  0  0  0  0  # atno 7974 bound_to 7965
  155.6522  140.3497  155.4752 H   0  0  0  0  0  0  0  0  0  0  0  0  # atno 8008 bound_to 7997
  155.9839  140.1180  157.0725 H   0  0  0  0  0  0  0  0  0  0  0  0  # atno 8009 bound_to 7997
  154.4199  140.1133  156.5458 H   0  0  0  0  0  0  0  0  0  0  0  0  # atno 8010 bound_to 7997
  140.2245  144.3753  150.6437 H   0  0  0  0  0  0  0  0  0  0  0  0  # atno 10167 bound_to 10162
  156.1286  130.4161  150.0310 H   0  0  0  0  0  0  0  0  0  0  0  0  # atno 10718 bound_to 10713
  153.1655  135.6803  153.8682 H   0  0  0  0  0  0  0  0  0  0  0  0  # atno 10763 bound_to 10752
  153.8063  135.3149  155.3397 H   0  0  0  0  0  0  0  0  0  0  0  0  # atno 10764 bound_to 10752
  154.7962  135.4805  154.0257 H   0  0  0  0  0  0  0  0  0  0  0  0  # atno 10765 bound_to 10752
  141.1654  133.7320  156.8795 H   0  0  0  0  0  0  0  0  0  0  0  0  # atno 11005 bound_to 11000
  145.7492  139.1788  143.2331 LP  0  0  0  0  0  0  0  0  0  0  0  0  # atno 17320 bound_to 7965
  146.1074  140.7470  142.9519 LP  0  0  0  0  0  0  0  0  0  0  0  0  # atno 17321 bound_to 7965
  140.6230  143.2178  151.6654 LP  0  0  0  0  0  0  0  0  0  0  0  0  # atno 17342 bound_to 10162
  139.5132  144.3451  152.0704 LP  0  0  0  0  0  0  0  0  0  0  0  0  # atno 17343 bound_to 10162
  156.8228  130.9365  151.3640 LP  0  0  0  0  0  0  0  0  0  0  0  0  # atno 17370 bound_to 10713
  157.6466  130.8849  149.9550 LP  0  0  0  0  0  0  0  0  0  0  0  0  # atno 17371 bound_to 10713
  140.1725  134.9090  157.2851 LP  0  0  0  0  0  0  0  0  0  0  0  0  # atno 17394 bound_to 11000
  140.2486  134.3710  155.7451 LP  0  0  0  0  0  0  0  0  0  0  0  0  # atno 17395 bound_to 11000

$$$$
