AV-unprocessed.smi:1701|AV-procd|sdf|6822|dock3
  -GOLD-   22720 8 03D 1   1.00000     0.00000
 Structure written by MMmdl.
 55 57  0  0  0  0  0  0  0  0  3 V2000
  150.5653  143.0543  158.2348 C   0  0  0  0  0  0  0  0  0  0  0  0
  151.3301  142.2641  157.1625 C   0  0  0  0  0  0  0  0  0  0  0  0
  151.3712  140.8252  157.4237 N   0  0  0  0  0  0  0  0  0  0  0  0
  152.0307  140.3331  158.6358 C   0  0  0  0  0  0  0  0  0  0  0  0
  152.8259  141.4190  159.3764 C   0  0  0  0  0  0  0  0  0  0  0  0
  150.6241  139.9331  156.6161 C   0  0  0  0  0  0  0  0  0  0  0  0
  150.5912  139.9956  155.2001 C   0  0  0  0  0  0  0  0  0  0  0  0
  149.8200  139.0680  154.4705 C   0  0  0  0  0  0  0  0  0  0  0  0
  149.0898  138.0718  155.1503 C   0  0  0  0  0  0  0  0  0  0  0  0
  148.3135  137.1703  154.3725 N   0  0  0  0  0  0  0  0  0  0  0  0
  147.1104  136.6334  154.6567 C   0  0  0  0  0  0  0  0  0  0  0  0
  146.5021  136.7988  155.7111 O   0  0  0  0  0  0  0  0  0  0  0  0
  146.6079  135.8553  153.6810 N   0  0  0  0  0  0  0  0  0  0  0  0
  145.3365  135.1275  153.6644 C   0  0  1  0  0  0  0  0  0  0  0  0
  144.2466  135.8530  152.8848 C   0  0  0  0  0  0  0  0  0  0  0  0
  143.2284  134.7456  152.5963 C   0  0  0  0  0  0  0  0  0  0  0  0
  143.9799  133.4668  152.5761 N   0  3  1  0  0  0  0  0  0  0  0  0
  143.8191  132.6910  151.3171 C   0  0  0  0  0  0  0  0  0  0  0  0
  144.8984  131.6047  151.2008 C   0  0  0  0  0  0  0  0  0  0  0  0
  146.3111  132.2167  151.1502 C   0  0  0  0  0  0  0  0  0  0  0  0
  146.3716  133.6157  151.7931 C   0  0  0  0  0  0  0  0  0  0  0  0
  145.3876  133.7455  152.9816 C   0  0  1  0  0  0  0  0  0  0  0  0
  149.1457  138.0527  156.5633 C   0  0  0  0  0  0  0  0  0  0  0  0
  149.8959  138.9625  157.2211 N   0  3  0  0  0  0  0  0  0  0  0  0
  150.5220  144.1112  157.9717 H   0  0  0  0  0  0  0  0  0  0  0  0
  151.0499  142.9834  159.2075 H   0  0  0  0  0  0  0  0  0  0  0  0
  149.5403  142.7003  158.3441 H   0  0  0  0  0  0  0  0  0  0  0  0
  150.9103  142.4543  156.1749 H   0  0  0  0  0  0  0  0  0  0  0  0
  152.3525  142.6394  157.1119 H   0  0  0  0  0  0  0  0  0  0  0  0
  151.2967  139.8830  159.3049 H   0  0  0  0  0  0  0  0  0  0  0  0
  152.7078  139.5223  158.3652 H   0  0  0  0  0  0  0  0  0  0  0  0
  153.2776  141.0113  160.2810 H   0  0  0  0  0  0  0  0  0  0  0  0
  152.1892  142.2519  159.6749 H   0  0  0  0  0  0  0  0  0  0  0  0
  153.6325  141.8179  158.7630 H   0  0  0  0  0  0  0  0  0  0  0  0
  151.1399  140.7457  154.6517 H   0  0  0  0  0  0  0  0  0  0  0  0
  149.7956  139.1238  153.3918 H   0  0  0  0  0  0  0  0  0  0  0  0
  148.7360  136.8725  153.5058 H   0  0  0  0  0  0  0  0  0  0  0  0
  147.1883  135.7392  152.8623 H   0  0  0  0  0  0  0  0  0  0  0  0
  144.9769  135.0055  154.6881 H   0  0  0  0  0  0  0  0  0  0  0  0
  143.8139  136.6893  153.4346 H   0  0  0  0  0  0  0  0  0  0  0  0
  144.6458  136.2396  151.9456 H   0  0  0  0  0  0  0  0  0  0  0  0
  142.4975  134.6908  153.4039 H   0  0  0  0  0  0  0  0  0  0  0  0
  142.6781  134.9366  151.6740 H   0  0  0  0  0  0  0  0  0  0  0  0
  142.8233  132.2469  151.2983 H   0  0  0  0  0  0  0  0  0  0  0  0
  143.8851  133.3550  150.4534 H   0  0  0  0  0  0  0  0  0  0  0  0
  144.8211  130.9356  152.0589 H   0  0  0  0  0  0  0  0  0  0  0  0
  144.7277  130.9878  150.3180 H   0  0  0  0  0  0  0  0  0  0  0  0
  147.0070  131.5438  151.6521 H   0  0  0  0  0  0  0  0  0  0  0  0
  146.6521  132.2878  150.1166 H   0  0  0  0  0  0  0  0  0  0  0  0
  147.3968  133.8168  152.1043 H   0  0  0  0  0  0  0  0  0  0  0  0
  146.1305  134.3691  151.0417 H   0  0  0  0  0  0  0  0  0  0  0  0
  145.6735  132.9986  153.7234 H   0  0  0  0  0  0  0  0  0  0  0  0
  148.6167  137.3601  157.2001 H   0  0  0  0  0  0  0  0  0  0  0  0
  143.5881  132.8984  153.3137 H   0  0  0  0  0  0  0  0  0  0  0  0
  149.9123  138.9173  158.2401 H   0  0  0  0  0  0  0  0  0  0  0  0
  1  2  1  0  0  0  0
  1 25  1  0  0  0  0
  1 26  1  0  0  0  0
  1 27  1  0  0  0  0
  2  3  1  0  0  0  0
  2 28  1  0  0  0  0
  2 29  1  0  0  0  0
  3  4  1  0  0  0  0
  3  6  1  0  0  0  0
  4  5  1  0  0  0  0
  4 30  1  0  0  0  0
  4 31  1  0  0  0  0
  5 32  1  0  0  0  0
  5 33  1  0  0  0  0
  5 34  1  0  0  0  0
  6 24  1  0  0  0  0
  6  7  2  0  0  0  0
  7  8  1  0  0  0  0
  7 35  1  0  0  0  0
  8  9  2  0  0  0  0
  8 36  1  0  0  0  0
  9 10  1  0  0  0  0
  9 23  1  0  0  0  0
 10 11  1  0  0  0  0
 10 37  1  0  0  0  0
 11 12  2  0  0  0  0
 11 13  1  0  0  0  0
 13 14  1  0  0  0  0
 13 38  1  0  0  0  0
 14 22  1  0  0  0  0
 14 15  1  0  0  0  0
 14 39  1  0  0  0  0
 15 16  1  0  0  0  0
 15 40  1  0  0  0  0
 15 41  1  0  0  0  0
 16 17  1  0  0  0  0
 16 42  1  0  0  0  0
 16 43  1  0  0  0  0
 17 22  1  0  0  0  0
 17 18  1  0  0  0  0
 17 54  1  0  0  0  0
 18 19  1  0  0  0  0
 18 44  1  0  0  0  0
 18 45  1  0  0  0  0
 19 20  1  0  0  0  0
 19 46  1  0  0  0  0
 19 47  1  0  0  0  0
 20 21  1  0  0  0  0
 20 48  1  0  0  0  0
 20 49  1  0  0  0  0
 21 22  1  0  0  0  0
 21 50  1  0  0  0  0
 21 51  1  0  0  0  0
 22 52  1  0  0  0  0
 23 24  2  0  0  0  0
 23 53  1  0  0  0  0
 24 55  1  0  0  0  0
M  CHG  1  17   1
M  CHG  1  24   1
M  END
> <s_m_source_file>
AV-unprocessed.smi

> <i_m_source_file_index>
1701

> <i_lp_mmshare_version>
43012

> <i_f3d_flags>
0

> <s_epik_input>
W0NIM11bQ0gyXU4oW0NIMl1bQ0gzXSljMVtjSF1bY0hdYyhbY0hdbjEpW05IXUMoPU8pW05IXVtDQEhdKFtDSDJdW0NIMl0yKVtDQEBIXShOMjMpW0NIMl1bQ0gyXVtDSDJdW0NIMl0z

> <s_epik_cmdline>
J2VwaWtfcHl0aG9uJywgJy1waCcsICc3LjAnLCAnLXRuJywgJzgnLCAnLW1hJywgJzIwMCcsICctbWV0YWxfYmluZGluZycsICctaW1hZScsICc8aW5maWxlLm1hZT4nLCAnLW9tYWUnLCAnPG91dGZpbGUubWFlPic=

> <r_lp_tautomer_probability>
0.999994

> <r_epik_Ionization_Penalty>
0.302862

> <r_epik_Ionization_Penalty_Charging>
0.302842

> <r_epik_Ionization_Penalty_Neutral>
1.95166e-05

> <r_epik_State_Penalty>
0.019791

> <r_epik_Charging_Adjusted_Penalty>
0.322633

> <i_epik_Tot_Q>
2

> <i_epik_Tot_abs_Q>
2

> <r_epik_Metal_State_Penalty>
0.0536763

> <b_epik_Metal_Only>
0

> <s_lp_Force_Field>
OPLS_2005

> <r_lp_Energy>
68.1576

> <b_lp_Chiralities_Consistent>
1

> <s_lp_Variant>
AV-unprocessed.smi:1701-2

> <Gold.Version>
5.8.1

> <Gold.Id.Protein>
6NUR|6NUR_protein|mol2

> <Gold.PLP.Fitness>
43.5564

> <Gold.PLP.PLP>
-34.7093

> <Gold.PLP.part.hbond>
-2.9574

> <Gold.PLP.part.metal>
0.0000

> <Gold.PLP.part.buried>
-5.1058

> <Gold.PLP.part.nonpolar>
-27.3259

> <Gold.PLP.part.repulsive>
0.0455

> <Gold.PLP.ligand.clash>
0.0000

> <Gold.PLP.ligand.torsion>
1.3305

> <Gold.PLP.Chemscore.Hbond>
3.7914

> <Gold.PLP.Chemscore.CHOScore>
0.0000

> <Gold.PLP.Chemscore.Metal>
0.0000

> <Gold.Chemscore.Hbonds>
donor molecule, donor type, donor heavy atom, donor atom, acceptor molecule, acceptor atom, score
      L1  H    10    37       P1  7948  1.00
      L1  H    13    38       P1  7948  0.86
      L1  H    17    54       P1 10957  1.82

> <Gold.PLP.Chemscore.Internal.Correction>
0.1340

> <Gold.Rescore>
     Score         DG    S(hbond)    S(metal)    S(lipo)     H(rot)  DE(clash)    DE(int)     intcor
     19.34     -21.60       2.71        0.00      88.84       1.30       0.25       2.00       ----

> <Gold.Chemscore.Fitness>
19.3397

> <Gold.Chemscore.DG>
-21.5962

> <Gold.Chemscore.ZeroCoef>
-5.4800

> <Gold.Chemscore.Hbond>
2.7110

> <Gold.Chemscore.Metal>
0.0000

> <Gold.Chemscore.Lipo>
88.8429

> <Gold.Chemscore.Internal_Hbond>
0.0000

> <Gold.Chemscore.DEClash>
0.2523

> <Gold.Chemscore.DEInternal>
2.0042

> <Gold.Chemscore.Rot>
1.3020

> <Gold.Chemscore.Internal.Correction>
   9.000000E+99

> <Gold.Chemscore.Hbonds>
donor molecule, donor type, donor heavy atom, donor atom, acceptor molecule, acceptor atom, score
      L1  H    10    37       P1  7948  1.00
      L1  H    13    38       P1  7948  0.80
      L1  H    17    54       P1 10957  0.58

> <Gold.Chemscore.Hbond.Weighted>
-9.0547

> <Gold.Chemscore.Metal.Weighted>
-0.0000

> <Gold.Chemscore.Lipo.Weighted>
-10.3946

> <Gold.Chemscore.Internal_Hbond.Weighted>
0.0000

> <Gold.Chemscore.DEClash.Weighted>
0.2523

> <Gold.Chemscore.DEInternal.Weighted>
2.0042

> <Gold.Chemscore.Rot.Weighted>
3.3330

> <Gold.Chemscore.Internal.Correction.Weighted>
   9.000000E+99

> <Gold.Protein.RotatedTorsions>
[ 6907 6896 6895 6894 ] final -142.07 input  -60.11 | X-H torsion
[ 7974 7965 7964 7962 ] final   86.51 input  175.53 | X-H torsion
[ 8008 7997 7996 7995 ] final  -81.94 input   59.86 | X-H torsion
[ 10167 10162 10161 10158 ] final  -54.66 input  -65.29 | X-H torsion
[ 10718 10713 10712 10709 ] final  156.80 input   66.30 | X-H torsion
[ 10763 10752 10751 10750 ] final   43.25 input  -60.55 | X-H torsion
[ 11005 11000 10999 10996 ] final   99.62 input  -57.11 | X-H torsion

> <Gold.Protein.ActiveResidues>
 VAL166  LYS551  ARG553  GLY616  TRP617  ASP618  TYR619  PRO620  LYS621  CYS622 
 ASP623  PHE694  ASN695  SER759  ASP760  ASP761  ALA762  ILE779  LEU786  VAL792 
 PHE793  MET794  SER795  GLU796  ALA797  LYS798  CYS799  TRP800  GLU811  SER814 

> <Gold.Protein.RotatedAtoms>
  151.0821  133.5381  159.2619 H   0  0  0  0  0  0  0  0  0  0  0  0  # atno 6907 bound_to 6896
  151.2281  135.0543  159.8986 H   0  0  0  0  0  0  0  0  0  0  0  0  # atno 6908 bound_to 6896
  152.5425  134.0614  159.8207 H   0  0  0  0  0  0  0  0  0  0  0  0  # atno 6909 bound_to 6896
  145.5713  139.2314  143.2404 H   0  0  0  0  0  0  0  0  0  0  0  0  # atno 7974 bound_to 7965
  154.6035  140.0640  156.9400 H   0  0  0  0  0  0  0  0  0  0  0  0  # atno 8008 bound_to 7997
  155.2092  140.3321  155.4313 H   0  0  0  0  0  0  0  0  0  0  0  0  # atno 8009 bound_to 7997
  156.2333  140.1851  156.7170 H   0  0  0  0  0  0  0  0  0  0  0  0  # atno 8010 bound_to 7997
  140.6418  143.2512  151.4969 H   0  0  0  0  0  0  0  0  0  0  0  0  # atno 10167 bound_to 10162
  157.2001  131.0674  151.2030 H   0  0  0  0  0  0  0  0  0  0  0  0  # atno 10718 bound_to 10713
  152.9865  135.6107  154.3081 H   0  0  0  0  0  0  0  0  0  0  0  0  # atno 10763 bound_to 10752
  154.2798  135.2777  155.2704 H   0  0  0  0  0  0  0  0  0  0  0  0  # atno 10764 bound_to 10752
  154.5048  135.5857  153.6615 H   0  0  0  0  0  0  0  0  0  0  0  0  # atno 10765 bound_to 10752
  139.8770  134.9104  156.4633 H   0  0  0  0  0  0  0  0  0  0  0  0  # atno 11005 bound_to 11000
  146.1782  140.6539  142.9201 LP  0  0  0  0  0  0  0  0  0  0  0  0  # atno 17320 bound_to 7965
  144.7436  140.5009  143.6851 LP  0  0  0  0  0  0  0  0  0  0  0  0  # atno 17321 bound_to 7965
  139.5627  144.2117  152.1717 LP  0  0  0  0  0  0  0  0  0  0  0  0  # atno 17342 bound_to 10162
  140.1389  144.5220  150.6756 LP  0  0  0  0  0  0  0  0  0  0  0  0  # atno 17343 bound_to 10162
  157.3776  130.7214  149.6607 LP  0  0  0  0  0  0  0  0  0  0  0  0  # atno 17370 bound_to 10713
  155.9701  130.4181  150.4313 LP  0  0  0  0  0  0  0  0  0  0  0  0  # atno 17371 bound_to 10713
  140.8848  133.7891  155.9506 LP  0  0  0  0  0  0  0  0  0  0  0  0  # atno 17394 bound_to 11000
  140.8816  134.2604  157.5141 LP  0  0  0  0  0  0  0  0  0  0  0  0  # atno 17395 bound_to 11000

$$$$
