AV-unprocessed.smi:2760|AV-procd|sdf|10629|dock4
  -GOLD-   2272015 73D 1   1.00000     0.00000
 Structure written by MMmdl.
 32 33  0  0  0  0  0  0  0  0  1 V2000
  152.8162  139.8652  158.0127 O   0  0  0  0  0  0  0  0  0  0  0  0
  152.0910  140.7498  157.5627 C   0  0  0  0  0  0  0  0  0  0  0  0
  152.1357  142.1126  158.1074 C   0  0  0  0  0  0  0  0  0  0  0  0
  151.3311  143.0649  157.5946 C   0  0  0  0  0  0  0  0  0  0  0  0
  151.3066  144.4753  158.0822 C   0  0  0  0  0  0  0  0  0  0  0  0
  152.3590  145.0222  159.0226 C   0  0  0  0  0  0  0  0  0  0  0  0
  150.9416  144.8287  159.5079 C   0  0  0  0  0  0  0  0  0  0  0  0
  150.4658  142.7570  156.5585 N   0  0  0  0  0  0  0  0  0  0  0  0
  150.4371  141.4596  156.0577 C   0  0  0  0  0  0  0  0  0  0  0  0
  149.2296  141.2592  154.7004 S   0  0  0  0  0  0  0  0  0  0  0  0
  149.2023  139.4672  154.3857 C   0  0  0  0  0  0  0  0  0  0  0  0
  150.6196  138.9000  154.2716 C   0  0  0  0  0  0  0  0  0  0  0  0
  150.8677  138.0664  155.3908 O   0  0  0  0  0  0  0  0  0  0  0  0
  150.3214  136.7658  155.2390 C   0  0  0  0  0  0  0  0  0  0  0  0
  150.5919  135.9445  156.5057 C   0  0  0  0  0  0  0  0  0  0  0  0
  149.8958  136.4578  157.5192 F   0  0  0  0  0  0  0  0  0  0  0  0
  150.2140  134.6793  156.3245 F   0  0  0  0  0  0  0  0  0  0  0  0
  151.8882  135.9857  156.8126 F   0  0  0  0  0  0  0  0  0  0  0  0
  151.1911  140.5010  156.5133 N   0  0  0  0  0  0  0  0  0  0  0  0
  149.8794  143.4966  156.2005 H   0  0  0  0  0  0  0  0  0  0  0  0
  152.8135  142.3448  158.9160 H   0  0  0  0  0  0  0  0  0  0  0  0
  150.9522  145.1642  157.3174 H   0  0  0  0  0  0  0  0  0  0  0  0
  153.1166  144.3405  159.4043 H   0  0  0  0  0  0  0  0  0  0  0  0
  152.6967  146.0430  158.8562 H   0  0  0  0  0  0  0  0  0  0  0  0
  150.3378  145.7205  159.6626 H   0  0  0  0  0  0  0  0  0  0  0  0
  150.7602  144.0192  160.2123 H   0  0  0  0  0  0  0  0  0  0  0  0
  148.6550  139.2716  153.4627 H   0  0  0  0  0  0  0  0  0  0  0  0
  148.6729  138.9661  155.1969 H   0  0  0  0  0  0  0  0  0  0  0  0
  150.7213  138.3277  153.3482 H   0  0  0  0  0  0  0  0  0  0  0  0
  151.3474  139.7124  154.2408 H   0  0  0  0  0  0  0  0  0  0  0  0
  149.2466  136.8305  155.0616 H   0  0  0  0  0  0  0  0  0  0  0  0
  150.7668  136.2719  154.3739 H   0  0  0  0  0  0  0  0  0  0  0  0
  1  2  2  0  0  0  0
  2 19  1  0  0  0  0
  2  3  1  0  0  0  0
  3 21  1  0  0  0  0
  3  4  2  0  0  0  0
  4  5  1  0  0  0  0
  4  8  1  0  0  0  0
  5  7  1  0  0  0  0
  5  6  1  0  0  0  0
  5 22  1  0  0  0  0
  6  7  1  0  0  0  0
  6 23  1  0  0  0  0
  6 24  1  0  0  0  0
  7 25  1  0  0  0  0
  7 26  1  0  0  0  0
  8  9  1  0  0  0  0
  8 20  1  0  0  0  0
  9 10  1  0  0  0  0
  9 19  2  0  0  0  0
 10 11  1  0  0  0  0
 11 12  1  0  0  0  0
 11 27  1  0  0  0  0
 11 28  1  0  0  0  0
 12 13  1  0  0  0  0
 12 29  1  0  0  0  0
 12 30  1  0  0  0  0
 13 14  1  0  0  0  0
 14 15  1  0  0  0  0
 14 31  1  0  0  0  0
 14 32  1  0  0  0  0
 15 16  1  0  0  0  0
 15 17  1  0  0  0  0
 15 18  1  0  0  0  0
M  END
> <s_m_source_file>
AV-unprocessed.smi

> <i_m_source_file_index>
2760

> <i_lp_mmshare_version>
43012

> <i_f3d_flags>
0

> <s_epik_input>
W09IXWMxW2NIXWMoW0NIXTJbQ0gyXVtDSDJdMiluYyhuMSlTW0NIMl1bQ0gyXU9bQ0gyXUMoRikoRilG

> <s_epik_cmdline>
J2VwaWtfcHl0aG9uJywgJy1waCcsICc3LjAnLCAnLXRuJywgJzgnLCAnLW1hJywgJzIwMCcsICctbWV0YWxfYmluZGluZycsICctaW1hZScsICc8aW5maWxlLm1hZT4nLCAnLW9tYWUnLCAnPG91dGZpbGUubWFlPic=

> <r_lp_tautomer_probability>
0.273662

> <r_epik_Ionization_Penalty>
0.0792867

> <r_epik_Ionization_Penalty_Charging>
0.0792819

> <r_epik_Ionization_Penalty_Neutral>
4.79647e-06

> <r_epik_State_Penalty>
1.03359

> <r_epik_Charging_Adjusted_Penalty>
1.11287

> <i_epik_Tot_Q>
0

> <i_epik_Tot_abs_Q>
0

> <r_epik_Metal_State_Penalty>
1.68441

> <b_epik_Metal_Only>
0

> <s_lp_Force_Field>
OPLS_2005

> <r_lp_Energy>
16.1148

> <b_lp_Chiralities_Consistent>
1

> <s_lp_Variant>
AV-unprocessed.smi:2760-2

> <Gold.Version>
5.8.1

> <Gold.Id.Protein>
6NUR|6NUR_protein|mol2

> <Gold.PLP.Fitness>
41.1221

> <Gold.PLP.PLP>
-36.3494

> <Gold.PLP.part.hbond>
-2.0000

> <Gold.PLP.part.metal>
0.0000

> <Gold.PLP.part.buried>
-5.5989

> <Gold.PLP.part.nonpolar>
-28.4579

> <Gold.PLP.part.repulsive>
0.1335

> <Gold.PLP.ligand.clash>
0.0000

> <Gold.PLP.ligand.torsion>
0.7156

> <Gold.PLP.Chemscore.Hbond>
2.0000

> <Gold.PLP.Chemscore.CHOScore>
0.0000

> <Gold.PLP.Chemscore.Metal>
0.0000

> <Gold.Chemscore.Hbonds>
donor molecule, donor type, donor heavy atom, donor atom, acceptor molecule, acceptor atom, score
      L1  H     8    20       P1  8028  1.00
      P1  H  7997  8010       L1     1  0.99

> <Gold.PLP.Chemscore.Internal.Correction>
0.2040

> <Gold.Rescore>
     Score         DG    S(hbond)    S(metal)    S(lipo)     H(rot)  DE(clash)    DE(int)     intcor
     11.70     -15.20       1.87        0.00      85.86       2.57       0.15       3.34       ----

> <Gold.Chemscore.Fitness>
11.7033

> <Gold.Chemscore.DG>
-15.1961

> <Gold.Chemscore.ZeroCoef>
-5.4800

> <Gold.Chemscore.Hbond>
1.8698

> <Gold.Chemscore.Metal>
0.0000

> <Gold.Chemscore.Lipo>
85.8559

> <Gold.Chemscore.Internal_Hbond>
0.0000

> <Gold.Chemscore.DEClash>
0.1529

> <Gold.Chemscore.DEInternal>
3.3399

> <Gold.Chemscore.Rot>
2.5680

> <Gold.Chemscore.Internal.Correction>
   9.000000E+99

> <Gold.Chemscore.Hbonds>
donor molecule, donor type, donor heavy atom, donor atom, acceptor molecule, acceptor atom, score
      L1  H     8    20       P1  8028  1.00
      P1  H  7997  8010       L1     1  0.46

> <Gold.Chemscore.Hbond.Weighted>
-6.2451

> <Gold.Chemscore.Metal.Weighted>
-0.0000

> <Gold.Chemscore.Lipo.Weighted>
-10.0451

> <Gold.Chemscore.Internal_Hbond.Weighted>
0.0000

> <Gold.Chemscore.DEClash.Weighted>
0.1529

> <Gold.Chemscore.DEInternal.Weighted>
3.3399

> <Gold.Chemscore.Rot.Weighted>
6.5741

> <Gold.Chemscore.Internal.Correction.Weighted>
   9.000000E+99

> <Gold.Protein.RotatedTorsions>
[ 6907 6896 6895 6894 ] final -135.83 input  -60.11 | X-H torsion
[ 7974 7965 7964 7962 ] final   86.88 input  175.53 | X-H torsion
[ 8008 7997 7996 7995 ] final   35.34 input   59.86 | X-H torsion
[ 10167 10162 10161 10158 ] final  161.96 input  -65.29 | X-H torsion
[ 10718 10713 10712 10709 ] final  109.71 input   66.30 | X-H torsion
[ 10763 10752 10751 10750 ] final   44.32 input  -60.55 | X-H torsion
[ 11005 11000 10999 10996 ] final  172.31 input  -57.11 | X-H torsion

> <Gold.Protein.ActiveResidues>
 VAL166  LYS551  ARG553  GLY616  TRP617  ASP618  TYR619  PRO620  LYS621  CYS622 
 ASP623  PHE694  ASN695  SER759  ASP760  ASP761  ALA762  ILE779  LEU786  VAL792 
 PHE793  MET794  SER795  GLU796  ALA797  LYS798  CYS799  TRP800  GLU811  SER814 

> <Gold.Protein.RotatedAtoms>
  151.0026  133.6042  159.2692 H   0  0  0  0  0  0  0  0  0  0  0  0  # atno 6907 bound_to 6896
  151.3222  135.0820  159.9319 H   0  0  0  0  0  0  0  0  0  0  0  0  # atno 6908 bound_to 6896
  152.5278  133.9671  159.7799 H   0  0  0  0  0  0  0  0  0  0  0  0  # atno 6909 bound_to 6896
  145.5664  139.2309  143.2430 H   0  0  0  0  0  0  0  0  0  0  0  0  # atno 7974 bound_to 7965
  155.1695  140.3290  155.4395 H   0  0  0  0  0  0  0  0  0  0  0  0  # atno 8008 bound_to 7997
  156.2515  140.1946  156.6749 H   0  0  0  0  0  0  0  0  0  0  0  0  # atno 8009 bound_to 7997
  154.6347  140.0578  156.9761 H   0  0  0  0  0  0  0  0  0  0  0  0  # atno 8010 bound_to 7997
  139.4855  144.4484  151.8861 H   0  0  0  0  0  0  0  0  0  0  0  0  # atno 10167 bound_to 10162
  157.6528  131.0919  150.6495 H   0  0  0  0  0  0  0  0  0  0  0  0  # atno 10718 bound_to 10713
  152.9843  135.6074  154.3255 H   0  0  0  0  0  0  0  0  0  0  0  0  # atno 10763 bound_to 10752
  154.2962  135.2774  155.2634 H   0  0  0  0  0  0  0  0  0  0  0  0  # atno 10764 bound_to 10752
  154.4907  135.5893  153.6513 H   0  0  0  0  0  0  0  0  0  0  0  0  # atno 10765 bound_to 10752
  140.3283  134.7379  157.4115 H   0  0  0  0  0  0  0  0  0  0  0  0  # atno 11005 bound_to 11000
  146.1815  140.6490  142.9187 LP  0  0  0  0  0  0  0  0  0  0  0  0  # atno 17320 bound_to 7965
  144.7458  140.5064  143.6836 LP  0  0  0  0  0  0  0  0  0  0  0  0  # atno 17321 bound_to 7965
  140.3940  144.2579  150.5897 LP  0  0  0  0  0  0  0  0  0  0  0  0  # atno 17342 bound_to 10162
  140.5120  143.2288  151.8521 LP  0  0  0  0  0  0  0  0  0  0  0  0  # atno 17343 bound_to 10162
  156.6804  130.4565  149.5629 LP  0  0  0  0  0  0  0  0  0  0  0  0  # atno 17370 bound_to 10713
  156.1933  130.6574  151.1086 LP  0  0  0  0  0  0  0  0  0  0  0  0  # atno 17371 bound_to 10713
  140.0882  134.5637  155.8470 LP  0  0  0  0  0  0  0  0  0  0  0  0  # atno 17394 bound_to 11000
  141.2070  133.6660  156.6275 LP  0  0  0  0  0  0  0  0  0  0  0  0  # atno 17395 bound_to 11000

$$$$
