AV-unprocessed.smi:1900|AV-procd|sdf|7712|dock3
  -GOLD-   22720 9453D 1   1.00000     0.00000
 Structure written by MMmdl.
 44 45  0  0  0  0  0  0  0  0  2 V2000
  144.3306  132.1921  149.4179 C   0  0  0  0  0  0  0  0  0  0  0  0
  145.4050  131.5750  150.3203 C   0  0  1  0  0  0  0  0  0  0  0  0
  146.1446  132.6406  151.1494 C   0  0  0  0  0  0  0  0  0  0  0  0
  147.1108  132.0021  152.0730 N   0  3  1  0  0  0  0  0  0  0  0  0
  147.9206  132.9960  152.8216 C   0  0  0  0  0  0  0  0  0  0  0  0
  149.2290  132.3991  153.3681 C   0  0  0  0  0  0  0  0  0  0  0  0
  149.8670  133.2876  154.4493 C   0  0  0  0  0  0  0  0  0  0  0  0
  149.7867  134.7034  154.1067 N   0  0  0  0  0  0  0  0  0  0  0  0
  150.6169  135.6520  154.5643 C   0  0  0  0  0  0  0  0  0  0  0  0
  151.5675  135.4191  155.3112 O   0  0  0  0  0  0  0  0  0  0  0  0
  150.2732  136.8672  154.1068 N   0  0  0  0  0  0  0  0  0  0  0  0
  150.9049  138.1043  154.3922 C   0  0  0  0  0  0  0  0  0  0  0  0
  150.4479  139.3708  153.9365 C   0  0  0  0  0  0  0  0  0  0  0  0
  151.2357  140.3497  154.3584 N   0  0  0  0  0  0  0  0  0  0  0  0
  152.1929  139.7200  155.0761 N   0  0  0  0  0  0  0  0  0  0  0  0
  152.0325  138.3528  155.1234 C   0  0  0  0  0  0  0  0  0  0  0  0
  146.4157  131.0248  152.9469 C   0  0  0  0  0  0  0  0  0  0  0  0
  145.6332  129.9908  152.1139 C   0  0  2  0  0  0  0  0  0  0  0  0
  146.5331  128.9530  151.4196 C   0  0  0  0  0  0  0  0  0  0  0  0
  144.7625  130.6529  151.1967 O   0  0  0  0  0  0  0  0  0  0  0  0
  152.9401  140.2314  155.5242 H   0  0  0  0  0  0  0  0  0  0  0  0
  144.7671  132.9034  148.7162 H   0  0  0  0  0  0  0  0  0  0  0  0
  143.5765  132.7187  150.0037 H   0  0  0  0  0  0  0  0  0  0  0  0
  143.8222  131.4226  148.8364 H   0  0  0  0  0  0  0  0  0  0  0  0
  146.1154  131.0459  149.6850 H   0  0  0  0  0  0  0  0  0  0  0  0
  146.6697  133.3223  150.4788 H   0  0  0  0  0  0  0  0  0  0  0  0
  145.4341  133.2389  151.7223 H   0  0  0  0  0  0  0  0  0  0  0  0
  148.1791  133.8189  152.1535 H   0  0  0  0  0  0  0  0  0  0  0  0
  147.3254  133.4286  153.6274 H   0  0  0  0  0  0  0  0  0  0  0  0
  149.0426  131.4102  153.7857 H   0  0  0  0  0  0  0  0  0  0  0  0
  149.9363  132.2605  152.5493 H   0  0  0  0  0  0  0  0  0  0  0  0
  149.3553  133.1411  155.4010 H   0  0  0  0  0  0  0  0  0  0  0  0
  150.9087  133.0048  154.6110 H   0  0  0  0  0  0  0  0  0  0  0  0
  149.0329  134.9843  153.4966 H   0  0  0  0  0  0  0  0  0  0  0  0
  149.4640  136.9163  153.5053 H   0  0  0  0  0  0  0  0  0  0  0  0
  149.5870  139.6077  153.3288 H   0  0  0  0  0  0  0  0  0  0  0  0
  152.7157  137.7088  155.6570 H   0  0  0  0  0  0  0  0  0  0  0  0
  147.1228  130.5076  153.5945 H   0  0  0  0  0  0  0  0  0  0  0  0
  145.7268  131.5614  153.6015 H   0  0  0  0  0  0  0  0  0  0  0  0
  144.9865  129.4381  152.7959 H   0  0  0  0  0  0  0  0  0  0  0  0
  147.0884  128.3703  152.1550 H   0  0  0  0  0  0  0  0  0  0  0  0
  147.2635  129.4144  150.7557 H   0  0  0  0  0  0  0  0  0  0  0  0
  145.9377  128.2555  150.8301 H   0  0  0  0  0  0  0  0  0  0  0  0
  147.7540  131.4806  151.4945 H   0  0  0  0  0  0  0  0  0  0  0  0
  1  2  1  0  0  0  0
  1 22  1  0  0  0  0
  1 23  1  0  0  0  0
  1 24  1  0  0  0  0
  2 20  1  0  0  0  0
  2  3  1  0  0  0  0
  2 25  1  0  0  0  0
  3  4  1  0  0  0  0
  3 26  1  0  0  0  0
  3 27  1  0  0  0  0
  4  5  1  0  0  0  0
  4 17  1  0  0  0  0
  4 44  1  0  0  0  0
  5  6  1  0  0  0  0
  5 28  1  0  0  0  0
  5 29  1  0  0  0  0
  6  7  1  0  0  0  0
  6 30  1  0  0  0  0
  6 31  1  0  0  0  0
  7  8  1  0  0  0  0
  7 32  1  0  0  0  0
  7 33  1  0  0  0  0
  8  9  1  0  0  0  0
  8 34  1  0  0  0  0
  9 10  2  0  0  0  0
  9 11  1  0  0  0  0
 11 12  1  0  0  0  0
 11 35  1  0  0  0  0
 12 16  2  0  0  0  0
 12 13  1  0  0  0  0
 13 14  2  0  0  0  0
 13 36  1  0  0  0  0
 14 15  1  0  0  0  0
 15 21  1  0  0  0  0
 15 16  1  0  0  0  0
 16 37  1  0  0  0  0
 17 18  1  0  0  0  0
 17 38  1  0  0  0  0
 17 39  1  0  0  0  0
 18 19  1  0  0  0  0
 18 20  1  0  0  0  0
 18 40  1  0  0  0  0
 19 41  1  0  0  0  0
 19 42  1  0  0  0  0
 19 43  1  0  0  0  0
M  CHG  1   4   1
M  END
> <s_m_source_file>
AV-unprocessed.smi

> <i_m_source_file_index>
1900

> <i_lp_mmshare_version>
43012

> <i_f3d_flags>
0

> <s_epik_input>
W0NIM11bQ0BASF0xW0NIMl1OKFtDSDJdW0NASF0oTzEpW0NIM10pW0NIMl1bQ0gyXVtDSDJdW05IXUMoPU8pW05IXWMyW2NIXW5bbkhdW2NIXTI=

> <s_epik_cmdline>
J2VwaWtfcHl0aG9uJywgJy1waCcsICc3LjAnLCAnLXRuJywgJzgnLCAnLW1hJywgJzIwMCcsICctbWV0YWxfYmluZGluZycsICctaW1hZScsICc8aW5maWxlLm1hZT4nLCAnLW9tYWUnLCAnPG91dGZpbGUubWFlPic=

> <r_lp_tautomer_probability>
0.5

> <r_epik_Ionization_Penalty>
0.270543

> <r_epik_Ionization_Penalty_Charging>
0.270496

> <r_epik_Ionization_Penalty_Neutral>
4.67091e-05

> <r_epik_State_Penalty>
0.262618

> <r_epik_Charging_Adjusted_Penalty>
0.533114

> <i_epik_Tot_Q>
1

> <i_epik_Tot_abs_Q>
1

> <r_epik_Metal_State_Penalty>
0.262618

> <b_epik_Metal_Only>
0

> <s_lp_Force_Field>
OPLS_2005

> <r_lp_Energy>
21.5788

> <b_lp_Chiralities_Consistent>
1

> <s_lp_Variant>
AV-unprocessed.smi:1900-4

> <Gold.Version>
5.8.1

> <Gold.Id.Protein>
6NUR|6NUR_protein|mol2

> <Gold.PLP.Fitness>
53.6302

> <Gold.PLP.PLP>
-39.4392

> <Gold.PLP.part.hbond>
-5.4618

> <Gold.PLP.part.metal>
0.0000

> <Gold.PLP.part.buried>
-3.8406

> <Gold.PLP.part.nonpolar>
-30.1983

> <Gold.PLP.part.repulsive>
0.5304

> <Gold.PLP.ligand.clash>
0.0000

> <Gold.PLP.ligand.torsion>
0.4785

> <Gold.PLP.Chemscore.Hbond>
4.0590

> <Gold.PLP.Chemscore.CHOScore>
0.9773

> <Gold.PLP.Chemscore.Metal>
0.0000

> <Gold.Chemscore.Hbonds>
donor molecule, donor type, donor heavy atom, donor atom, acceptor molecule, acceptor atom, score
      L1  H     4    44       P1 10747  1.00
      L1  H     8    34       P1  7948  0.64
      L1  H    11    35       P1  7948  0.70
      P1  H 10752 10763       L1    10  0.94
      L1  C    13    36       P1  7957  0.91

> <Gold.PLP.Chemscore.Internal.Correction>
0.0392

> <Gold.Rescore>
     Score         DG    S(hbond)    S(metal)    S(lipo)     H(rot)  DE(clash)    DE(int)     intcor
     19.15     -21.07       2.73        0.00      97.70       1.93       0.22       1.70       ----

> <Gold.Chemscore.Fitness>
19.1537

> <Gold.Chemscore.DG>
-21.0723

> <Gold.Chemscore.ZeroCoef>
-5.4800

> <Gold.Chemscore.Hbond>
2.7287

> <Gold.Chemscore.Metal>
0.0000

> <Gold.Chemscore.Lipo>
97.7040

> <Gold.Chemscore.Internal_Hbond>
0.0000

> <Gold.Chemscore.DEClash>
0.2207

> <Gold.Chemscore.DEInternal>
1.6980

> <Gold.Chemscore.Rot>
1.9347

> <Gold.Chemscore.Internal.Correction>
   9.000000E+99

> <Gold.Chemscore.Hbonds>
donor molecule, donor type, donor heavy atom, donor atom, acceptor molecule, acceptor atom, score
      L1  H     4    44       P1 10747  1.00
      L1  H     8    34       P1  7948  0.18
      L1  H    11    35       P1  7948  0.63
      P1  H  7989  7998       L1    14  0.01
      P1  H 10752 10763       L1    10  0.87

> <Gold.Chemscore.Hbond.Weighted>
-9.1138

> <Gold.Chemscore.Metal.Weighted>
-0.0000

> <Gold.Chemscore.Lipo.Weighted>
-11.4314

> <Gold.Chemscore.Internal_Hbond.Weighted>
0.0000

> <Gold.Chemscore.DEClash.Weighted>
0.2207

> <Gold.Chemscore.DEInternal.Weighted>
1.6980

> <Gold.Chemscore.Rot.Weighted>
4.9528

> <Gold.Chemscore.Internal.Correction.Weighted>
   9.000000E+99

> <Gold.Protein.RotatedTorsions>
[ 6907 6896 6895 6894 ] final    1.01 input  -60.11 | X-H torsion
[ 7974 7965 7964 7962 ] final  -81.80 input  175.53 | X-H torsion
[ 8008 7997 7996 7995 ] final   -1.84 input   59.86 | X-H torsion
[ 10167 10162 10161 10158 ] final -131.77 input  -65.29 | X-H torsion
[ 10718 10713 10712 10709 ] final   17.92 input   66.30 | X-H torsion
[ 10763 10752 10751 10750 ] final   72.89 input  -60.55 | X-H torsion
[ 11005 11000 10999 10996 ] final  -98.29 input  -57.11 | X-H torsion

> <Gold.Protein.ActiveResidues>
 VAL166  LYS551  ARG553  GLY616  TRP617  ASP618  TYR619  PRO620  LYS621  CYS622 
 ASP623  PHE694  ASN695  SER759  ASP760  ASP761  ALA762  ILE779  LEU786  VAL792 
 PHE793  MET794  SER795  GLU796  ALA797  LYS798  CYS799  TRP800  GLU811  SER814 

> <Gold.Protein.RotatedAtoms>
  151.5856  135.1056  160.0027 H   0  0  0  0  0  0  0  0  0  0  0  0  # atno 6907 bound_to 6896
  152.4332  133.7310  159.6598 H   0  0  0  0  0  0  0  0  0  0  0  0  # atno 6908 bound_to 6896
  150.8226  133.8155  159.3155 H   0  0  0  0  0  0  0  0  0  0  0  0  # atno 6909 bound_to 6896
  145.5418  140.9508  143.1547 H   0  0  0  0  0  0  0  0  0  0  0  0  # atno 7974 bound_to 7965
  154.6423  140.2549  155.7308 H   0  0  0  0  0  0  0  0  0  0  0  0  # atno 8008 bound_to 7997
  156.2535  140.2885  156.0742 H   0  0  0  0  0  0  0  0  0  0  0  0  # atno 8009 bound_to 7997
  155.1578  140.0383  157.2826 H   0  0  0  0  0  0  0  0  0  0  0  0  # atno 8010 bound_to 7997
  139.9154  143.6445  152.2566 H   0  0  0  0  0  0  0  0  0  0  0  0  # atno 10167 bound_to 10162
  157.0890  130.6420  149.5844 H   0  0  0  0  0  0  0  0  0  0  0  0  # atno 10718 bound_to 10713
  153.0487  135.5083  154.7812 H   0  0  0  0  0  0  0  0  0  0  0  0  # atno 10763 bound_to 10752
  154.6692  135.2950  154.9767 H   0  0  0  0  0  0  0  0  0  0  0  0  # atno 10764 bound_to 10752
  154.0591  135.6693  153.4862 H   0  0  0  0  0  0  0  0  0  0  0  0  # atno 10765 bound_to 10752
  141.1350  133.8234  157.0820 H   0  0  0  0  0  0  0  0  0  0  0  0  # atno 11005 bound_to 11000
  144.7573  139.7043  143.7249 LP  0  0  0  0  0  0  0  0  0  0  0  0  # atno 17320 bound_to 7965
  146.1976  139.5251  142.9764 LP  0  0  0  0  0  0  0  0  0  0  0  0  # atno 17321 bound_to 7965
  139.6907  144.7647  151.1444 LP  0  0  0  0  0  0  0  0  0  0  0  0  # atno 17342 bound_to 10162
  140.7675  143.5594  150.9116 LP  0  0  0  0  0  0  0  0  0  0  0  0  # atno 17343 bound_to 10162
  155.9903  130.4953  150.7251 LP  0  0  0  0  0  0  0  0  0  0  0  0  # atno 17370 bound_to 10713
  157.4737  131.0895  151.0614 LP  0  0  0  0  0  0  0  0  0  0  0  0  # atno 17371 bound_to 10713
  140.0445  134.9837  157.1024 LP  0  0  0  0  0  0  0  0  0  0  0  0  # atno 17394 bound_to 11000
  140.4083  134.2008  155.7163 LP  0  0  0  0  0  0  0  0  0  0  0  0  # atno 17395 bound_to 11000

$$$$
