AV-unprocessed.smi:3041|AV-procd|sdf|11598|dock1
  -GOLD-   2272016573D 1   1.00000     0.00000
 Structure written by MMmdl.
 38 39  0  0  0  0  0  0  0  0  1 V2000
  143.3576  145.3045  155.2724 C   0  0  0  0  0  0  0  0  0  0  0  0
  144.4067  144.3188  155.1258 N   0  0  0  0  0  0  0  0  0  0  0  0
  144.9335  143.7893  153.9678 C   0  0  0  0  0  0  0  0  0  0  0  0
  145.9042  142.8978  154.3292 C   0  0  0  0  0  0  0  0  0  0  0  0
  146.7932  142.0625  153.4466 C   0  0  0  0  0  0  0  0  0  0  0  0
  147.8054  141.2164  154.2410 C   0  0  0  0  0  0  0  0  0  0  0  0
  148.6702  142.0368  155.0859 N   0  0  0  0  0  0  0  0  0  0  0  0
  149.6410  141.5743  155.8871 C   0  0  0  0  0  0  0  0  0  0  0  0
  149.9344  140.3840  155.9992 O   0  0  0  0  0  0  0  0  0  0  0  0
  150.2453  142.5667  156.5544 N   0  0  0  0  0  0  0  0  0  0  0  0
  151.3452  142.4045  157.4994 C   0  0  0  0  0  0  0  0  0  0  0  0
  151.6002  143.7079  158.2743 C   0  0  1  0  0  0  0  0  0  0  0  0
  150.3581  144.3636  158.8461 C   0  0  0  0  0  0  0  0  0  0  0  0
  150.9494  145.2825  159.9109 C   0  0  0  0  0  0  0  0  0  0  0  0
  152.1322  144.6358  160.3724 O   0  0  0  0  0  0  0  0  0  0  0  0
  152.4416  143.5247  159.5365 C   0  0  0  0  0  0  0  0  0  0  0  0
  145.8893  142.9524  155.7523 C   0  0  0  0  0  0  0  0  0  0  0  0
  144.9920  143.8017  156.2252 N   0  0  0  0  0  0  0  0  0  0  0  0
  143.1390  145.7638  154.3079 H   0  0  0  0  0  0  0  0  0  0  0  0
  143.6715  146.0817  155.9701 H   0  0  0  0  0  0  0  0  0  0  0  0
  142.4542  144.8259  155.6513 H   0  0  0  0  0  0  0  0  0  0  0  0
  144.5835  144.0921  152.9920 H   0  0  0  0  0  0  0  0  0  0  0  0
  146.1908  141.3961  152.8286 H   0  0  0  0  0  0  0  0  0  0  0  0
  147.3363  142.6964  152.7447 H   0  0  0  0  0  0  0  0  0  0  0  0
  147.2823  140.4646  154.8347 H   0  0  0  0  0  0  0  0  0  0  0  0
  148.4403  140.6647  153.5476 H   0  0  0  0  0  0  0  0  0  0  0  0
  148.5089  143.0330  155.0648 H   0  0  0  0  0  0  0  0  0  0  0  0
  149.9242  143.5099  156.3920 H   0  0  0  0  0  0  0  0  0  0  0  0
  151.0912  141.5968  158.1867 H   0  0  0  0  0  0  0  0  0  0  0  0
  152.2634  142.1032  156.9924 H   0  0  0  0  0  0  0  0  0  0  0  0
  152.1064  144.4233  157.6236 H   0  0  0  0  0  0  0  0  0  0  0  0
  149.7722  144.9023  158.1007 H   0  0  0  0  0  0  0  0  0  0  0  0
  149.7140  143.6172  159.3138 H   0  0  0  0  0  0  0  0  0  0  0  0
  151.2276  146.2422  159.4737 H   0  0  0  0  0  0  0  0  0  0  0  0
  150.2538  145.4720  160.7285 H   0  0  0  0  0  0  0  0  0  0  0  0
  152.1585  142.6114  160.0617 H   0  0  0  0  0  0  0  0  0  0  0  0
  153.5092  143.4731  159.3220 H   0  0  0  0  0  0  0  0  0  0  0  0
  146.5049  142.4058  156.4511 H   0  0  0  0  0  0  0  0  0  0  0  0
  1  2  1  0  0  0  0
  1 19  1  0  0  0  0
  1 20  1  0  0  0  0
  1 21  1  0  0  0  0
  2 18  1  0  0  0  0
  2  3  1  0  0  0  0
  3  4  2  0  0  0  0
  3 22  1  0  0  0  0
  4  5  1  0  0  0  0
  4 17  1  0  0  0  0
  5  6  1  0  0  0  0
  5 23  1  0  0  0  0
  5 24  1  0  0  0  0
  6  7  1  0  0  0  0
  6 25  1  0  0  0  0
  6 26  1  0  0  0  0
  7  8  1  0  0  0  0
  7 27  1  0  0  0  0
  8  9  2  0  0  0  0
  8 10  1  0  0  0  0
 10 11  1  0  0  0  0
 10 28  1  0  0  0  0
 11 12  1  0  0  0  0
 11 29  1  0  0  0  0
 11 30  1  0  0  0  0
 12 16  1  0  0  0  0
 12 13  1  0  0  0  0
 12 31  1  0  0  0  0
 13 14  1  0  0  0  0
 13 32  1  0  0  0  0
 13 33  1  0  0  0  0
 14 15  1  0  0  0  0
 14 34  1  0  0  0  0
 14 35  1  0  0  0  0
 15 16  1  0  0  0  0
 16 36  1  0  0  0  0
 16 37  1  0  0  0  0
 17 18  2  0  0  0  0
 17 38  1  0  0  0  0
M  END
> <s_m_source_file>
AV-unprocessed.smi

> <i_m_source_file_index>
3041

> <i_lp_mmshare_version>
43012

> <i_f3d_flags>
0

> <s_epik_input>
W0NIM11uMVtjSF1jKFtjSF1uMSlbQ0gyXVtDSDJdW05IXUMoPU8pW05IXVtDSDJdW0NAQEhdMltDSDJdW0NIMl1PW0NIMl0y

> <s_epik_cmdline>
J2VwaWtfcHl0aG9uJywgJy1waCcsICc3LjAnLCAnLXRuJywgJzgnLCAnLW1hJywgJzIwMCcsICctbWV0YWxfYmluZGluZycsICctaW1hZScsICc8aW5maWxlLm1hZT4nLCAnLW9tYWUnLCAnPG91dGZpbGUubWFlPic=

> <r_lp_tautomer_probability>
1

> <r_epik_Ionization_Penalty>
0.000557811

> <r_epik_Ionization_Penalty_Charging>
0

> <r_epik_Ionization_Penalty_Neutral>
0.000557811

> <r_epik_State_Penalty>
-0

> <r_epik_Charging_Adjusted_Penalty>
0

> <i_epik_Tot_Q>
0

> <i_epik_Tot_abs_Q>
0

> <r_epik_Metal_State_Penalty>
-0

> <b_epik_Metal_Only>
0

> <s_lp_Force_Field>
OPLS_2005

> <r_lp_Energy>
14.3495

> <b_lp_Chiralities_Consistent>
1

> <s_lp_Variant>
AV-unprocessed.smi:3041-2

> <Gold.Version>
5.8.1

> <Gold.Id.Protein>
6NUR|6NUR_protein|mol2

> <Gold.PLP.Fitness>
43.4159

> <Gold.PLP.PLP>
-36.1144

> <Gold.PLP.part.hbond>
-2.0000

> <Gold.PLP.part.metal>
0.0000

> <Gold.PLP.part.buried>
-6.7290

> <Gold.PLP.part.nonpolar>
-28.9360

> <Gold.PLP.part.repulsive>
0.4863

> <Gold.PLP.ligand.clash>
0.0000

> <Gold.PLP.ligand.torsion>
0.1658

> <Gold.PLP.Chemscore.Hbond>
2.0000

> <Gold.PLP.Chemscore.CHOScore>
0.5405

> <Gold.PLP.Chemscore.Metal>
0.0000

> <Gold.Chemscore.Hbonds>
donor molecule, donor type, donor heavy atom, donor atom, acceptor molecule, acceptor atom, score
      L1  H     7    27       P1  8028  1.00
      L1  H    10    28       P1  8028  1.00
      L1  C     3    22       P1 10174  0.49

> <Gold.PLP.Chemscore.Internal.Correction>
0.0116

> <Gold.Rescore>
     Score         DG    S(hbond)    S(metal)    S(lipo)     H(rot)  DE(clash)    DE(int)     intcor
     17.18     -17.48       1.95        0.00      87.44       1.85       0.13       0.17       ----

> <Gold.Chemscore.Fitness>
17.1794

> <Gold.Chemscore.DG>
-17.4826

> <Gold.Chemscore.ZeroCoef>
-5.4800

> <Gold.Chemscore.Hbond>
1.9506

> <Gold.Chemscore.Metal>
0.0000

> <Gold.Chemscore.Lipo>
87.4419

> <Gold.Chemscore.Internal_Hbond>
0.0000

> <Gold.Chemscore.DEClash>
0.1309

> <Gold.Chemscore.DEInternal>
0.1722

> <Gold.Chemscore.Rot>
1.8528

> <Gold.Chemscore.Internal.Correction>
   9.000000E+99

> <Gold.Chemscore.Hbonds>
donor molecule, donor type, donor heavy atom, donor atom, acceptor molecule, acceptor atom, score
      L1  H     7    27       P1  8028  0.96
      L1  H    10    28       P1  8028  0.98

> <Gold.Chemscore.Hbond.Weighted>
-6.5152

> <Gold.Chemscore.Metal.Weighted>
-0.0000

> <Gold.Chemscore.Lipo.Weighted>
-10.2307

> <Gold.Chemscore.Internal_Hbond.Weighted>
0.0000

> <Gold.Chemscore.DEClash.Weighted>
0.1309

> <Gold.Chemscore.DEInternal.Weighted>
0.1722

> <Gold.Chemscore.Rot.Weighted>
4.7433

> <Gold.Chemscore.Internal.Correction.Weighted>
   9.000000E+99

> <Gold.Protein.RotatedTorsions>
[ 6907 6896 6895 6894 ] final -100.07 input  -60.11 | X-H torsion
[ 7974 7965 7964 7962 ] final   -8.86 input  175.53 | X-H torsion
[ 8008 7997 7996 7995 ] final -119.68 input   59.86 | X-H torsion
[ 10167 10162 10161 10158 ] final   19.83 input  -65.29 | X-H torsion
[ 10718 10713 10712 10709 ] final   59.42 input   66.30 | X-H torsion
[ 10763 10752 10751 10750 ] final   97.34 input  -60.55 | X-H torsion
[ 11005 11000 10999 10996 ] final  146.49 input  -57.11 | X-H torsion

> <Gold.Protein.ActiveResidues>
 VAL166  LYS551  ARG553  GLY616  TRP617  ASP618  TYR619  PRO620  LYS621  CYS622 
 ASP623  PHE694  ASN695  SER759  ASP760  ASP761  ALA762  ILE779  LEU786  VAL792 
 PHE793  MET794  SER795  GLU796  ALA797  LYS798  CYS799  TRP800  GLU811  SER814 

> <Gold.Protein.RotatedAtoms>
  150.7102  134.0943  159.3942 H   0  0  0  0  0  0  0  0  0  0  0  0  # atno 6907 bound_to 6896
  151.8929  135.0407  160.0509 H   0  0  0  0  0  0  0  0  0  0  0  0  # atno 6908 bound_to 6896
  152.2477  133.5153  159.5343 H   0  0  0  0  0  0  0  0  0  0  0  0  # atno 6909 bound_to 6896
  146.2268  140.2530  142.8348 H   0  0  0  0  0  0  0  0  0  0  0  0  # atno 7974 bound_to 7965
  155.1196  140.0398  157.2746 H   0  0  0  0  0  0  0  0  0  0  0  0  # atno 8008 bound_to 7997
  154.6624  140.2594  155.7069 H   0  0  0  0  0  0  0  0  0  0  0  0  # atno 8009 bound_to 7997
  156.2624  140.2814  156.1101 H   0  0  0  0  0  0  0  0  0  0  0  0  # atno 8010 bound_to 7997
  140.5549  143.9442  150.6603 H   0  0  0  0  0  0  0  0  0  0  0  0  # atno 10167 bound_to 10162
  157.5674  130.8881  149.9210 H   0  0  0  0  0  0  0  0  0  0  0  0  # atno 10718 bound_to 10713
  153.2757  135.4187  155.1031 H   0  0  0  0  0  0  0  0  0  0  0  0  # atno 10763 bound_to 10752
  154.8472  135.3483  154.6182 H   0  0  0  0  0  0  0  0  0  0  0  0  # atno 10764 bound_to 10752
  153.6602  135.7048  153.5237 H   0  0  0  0  0  0  0  0  0  0  0  0  # atno 10765 bound_to 10752
  140.0798  134.9104  157.1482 H   0  0  0  0  0  0  0  0  0  0  0  0  # atno 11005 bound_to 11000
  144.9397  140.8065  143.5638 LP  0  0  0  0  0  0  0  0  0  0  0  0  # atno 17320 bound_to 7965
  145.2481  139.2043  143.4957 LP  0  0  0  0  0  0  0  0  0  0  0  0  # atno 17321 bound_to 7965
  140.2878  143.3345  152.1091 LP  0  0  0  0  0  0  0  0  0  0  0  0  # atno 17342 bound_to 10162
  139.5043  144.6774  151.6095 LP  0  0  0  0  0  0  0  0  0  0  0  0  # atno 17343 bound_to 10162
  156.0721  130.3683  150.0753 LP  0  0  0  0  0  0  0  0  0  0  0  0  # atno 17370 bound_to 10713
  156.8910  130.9588  151.3588 LP  0  0  0  0  0  0  0  0  0  0  0  0  # atno 17371 bound_to 10713
  140.3504  134.2604  155.7199 LP  0  0  0  0  0  0  0  0  0  0  0  0  # atno 17394 bound_to 11000
  141.2042  133.7891  157.0297 LP  0  0  0  0  0  0  0  0  0  0  0  0  # atno 17395 bound_to 11000

$$$$
