AV-unprocessed.smi:1521|AV-procd|sdf|6131|dock4
  -GOLD-   22720 6273D 1   1.00000     0.00000
 Structure written by MMmdl.
 36 37  0  0  0  0  0  0  0  0  1 V2000
  149.7462  142.7480  158.4635 O   0  0  0  0  0  0  0  0  0  0  0  0
  150.7165  142.1994  157.9418 C   0  0  0  0  0  0  0  0  0  0  0  0
  151.9044  142.0709  158.5496 N   0  0  0  0  0  0  0  0  0  0  0  0
  152.2111  142.5230  159.9029 C   0  0  0  0  0  0  0  0  0  0  0  0
  153.4087  141.7599  160.4942 C   0  0  1  0  0  0  0  0  0  0  0  0
  153.4831  141.9026  162.0277 C   0  0  0  0  0  0  0  0  0  0  0  0
  154.5887  141.1536  162.5158 O   0  0  0  0  0  0  0  0  0  0  0  0
  154.4599  139.7748  162.1966 C   0  0  0  0  0  0  0  0  0  0  0  0
  154.3770  139.6193  160.6695 C   0  0  0  0  0  0  0  0  0  0  0  0
  153.2741  140.3755  160.1889 O   0  0  0  0  0  0  0  0  0  0  0  0
  150.7401  141.6335  156.7211 N   0  0  0  0  0  0  0  0  0  0  0  0
  149.7198  141.5494  155.7583 C   0  0  0  0  0  0  0  0  0  0  0  0
  148.5732  142.2786  155.7734 C   0  0  0  0  0  0  0  0  0  0  0  0
  147.5625  142.1491  154.7372 C   0  0  0  0  0  0  0  0  0  0  0  0
  146.2500  142.9136  154.8097 C   0  0  0  0  0  0  0  0  0  0  0  0
  145.2311  142.0582  154.8809 F   0  0  0  0  0  0  0  0  0  0  0  0
  146.2053  143.7036  155.8834 F   0  0  0  0  0  0  0  0  0  0  0  0
  146.0797  143.6706  153.7260 F   0  0  0  0  0  0  0  0  0  0  0  0
  147.8156  141.2594  153.7596 C   0  0  0  0  0  0  0  0  0  0  0  0
  149.0007  140.5213  153.7253 N   0  0  0  0  0  0  0  0  0  0  0  0
  149.9759  140.6054  154.6578 C   0  0  0  0  0  0  0  0  0  0  0  0
  150.9929  139.9201  154.5559 O   0  0  0  0  0  0  0  0  0  0  0  0
  149.1227  139.8848  152.9509 H   0  0  0  0  0  0  0  0  0  0  0  0
  152.6457  141.6034  158.0488 H   0  0  0  0  0  0  0  0  0  0  0  0
  152.4471  143.5858  159.8456 H   0  0  0  0  0  0  0  0  0  0  0  0
  151.3389  142.4373  160.5534 H   0  0  0  0  0  0  0  0  0  0  0  0
  154.3295  142.1436  160.0501 H   0  0  0  0  0  0  0  0  0  0  0  0
  153.6174  142.9479  162.3066 H   0  0  0  0  0  0  0  0  0  0  0  0
  152.5602  141.5608  162.4995 H   0  0  0  0  0  0  0  0  0  0  0  0
  155.3232  139.2354  162.5867 H   0  0  0  0  0  0  0  0  0  0  0  0
  153.5744  139.3573  162.6785 H   0  0  0  0  0  0  0  0  0  0  0  0
  155.2999  139.9524  160.1922 H   0  0  0  0  0  0  0  0  0  0  0  0
  154.2353  138.5722  160.4015 H   0  0  0  0  0  0  0  0  0  0  0  0
  151.5957  141.1633  156.4641 H   0  0  0  0  0  0  0  0  0  0  0  0
  148.3822  143.0000  156.5508 H   0  0  0  0  0  0  0  0  0  0  0  0
  147.1415  141.0422  152.9443 H   0  0  0  0  0  0  0  0  0  0  0  0
  1  2  2  0  0  0  0
  2  3  1  0  0  0  0
  2 11  1  0  0  0  0
  3  4  1  0  0  0  0
  3 24  1  0  0  0  0
  4  5  1  0  0  0  0
  4 25  1  0  0  0  0
  4 26  1  0  0  0  0
  5 10  1  0  0  0  0
  5  6  1  0  0  0  0
  5 27  1  0  0  0  0
  6  7  1  0  0  0  0
  6 28  1  0  0  0  0
  6 29  1  0  0  0  0
  7  8  1  0  0  0  0
  8  9  1  0  0  0  0
  8 30  1  0  0  0  0
  8 31  1  0  0  0  0
  9 10  1  0  0  0  0
  9 32  1  0  0  0  0
  9 33  1  0  0  0  0
 11 12  1  0  0  0  0
 11 34  1  0  0  0  0
 12 21  1  0  0  0  0
 12 13  2  0  0  0  0
 13 14  1  0  0  0  0
 13 35  1  0  0  0  0
 14 15  1  0  0  0  0
 14 19  2  0  0  0  0
 15 16  1  0  0  0  0
 15 17  1  0  0  0  0
 15 18  1  0  0  0  0
 19 20  1  0  0  0  0
 19 36  1  0  0  0  0
 20 23  1  0  0  0  0
 20 21  1  0  0  0  0
 21 22  2  0  0  0  0
M  END
> <s_m_source_file>
AV-unprocessed.smi

> <i_m_source_file_index>
1521

> <i_lp_mmshare_version>
43012

> <i_f3d_flags>
0

> <s_epik_input>
Tz1jMVtuSF1bY0hdYyhDKEYpKEYpRilbY0hdYzFbTkhdQyg9TylbTkhdW0NIMl1bQ0BASF0yW0NIMl1PW0NIMl1bQ0gyXU8y

> <s_epik_cmdline>
J2VwaWtfcHl0aG9uJywgJy1waCcsICc3LjAnLCAnLXRuJywgJzgnLCAnLW1hJywgJzIwMCcsICctbWV0YWxfYmluZGluZycsICctaW1hZScsICc8aW5maWxlLm1hZT4nLCAnLW9tYWUnLCAnPG91dGZpbGUubWFlPic=

> <r_lp_tautomer_probability>
1

> <r_epik_Ionization_Penalty>
0.00396636

> <r_epik_Ionization_Penalty_Charging>
0.00394789

> <r_epik_Ionization_Penalty_Neutral>
1.84676e-05

> <r_epik_State_Penalty>
-0

> <r_epik_Charging_Adjusted_Penalty>
0.00394789

> <i_epik_Tot_Q>
0

> <i_epik_Tot_abs_Q>
0

> <r_epik_Metal_State_Penalty>
0.372669

> <b_epik_Metal_Only>
0

> <s_lp_Force_Field>
OPLS_2005

> <r_lp_Energy>
19.2224

> <b_lp_Chiralities_Consistent>
1

> <s_lp_Variant>
AV-unprocessed.smi:1521-2

> <Gold.Version>
5.8.1

> <Gold.Id.Protein>
6NUR|6NUR_protein|mol2

> <Gold.PLP.Fitness>
43.0643

> <Gold.PLP.PLP>
-38.6357

> <Gold.PLP.part.hbond>
-3.0616

> <Gold.PLP.part.metal>
0.0000

> <Gold.PLP.part.buried>
-2.6303

> <Gold.PLP.part.nonpolar>
-32.9514

> <Gold.PLP.part.repulsive>
0.4845

> <Gold.PLP.ligand.clash>
0.0000

> <Gold.PLP.ligand.torsion>
0.3570

> <Gold.PLP.Chemscore.Hbond>
1.7040

> <Gold.PLP.Chemscore.CHOScore>
0.0000

> <Gold.PLP.Chemscore.Metal>
0.0000

> <Gold.Chemscore.Hbonds>
donor molecule, donor type, donor heavy atom, donor atom, acceptor molecule, acceptor atom, score
      L1  H    20    23       P1  7957  0.72
      P1  H  7989  7998       L1    22  0.65

> <Gold.PLP.Chemscore.Internal.Correction>
0.0305

> <Gold.Rescore>
     Score         DG    S(hbond)    S(metal)    S(lipo)     H(rot)  DE(clash)    DE(int)     intcor
     12.77     -15.61       1.70        0.00      68.21       1.37       1.34       1.50       ----

> <Gold.Chemscore.Fitness>
12.7695

> <Gold.Chemscore.DG>
-15.6109

> <Gold.Chemscore.ZeroCoef>
-5.4800

> <Gold.Chemscore.Hbond>
1.6967

> <Gold.Chemscore.Metal>
0.0000

> <Gold.Chemscore.Lipo>
68.2050

> <Gold.Chemscore.Internal_Hbond>
0.0000

> <Gold.Chemscore.DEClash>
1.3366

> <Gold.Chemscore.DEInternal>
1.5047

> <Gold.Chemscore.Rot>
1.3735

> <Gold.Chemscore.Internal.Correction>
   9.000000E+99

> <Gold.Chemscore.Hbonds>
donor molecule, donor type, donor heavy atom, donor atom, acceptor molecule, acceptor atom, score
      L1  H    20    23       P1  7957  0.72
      P1  H  7989  7998       L1    22  0.05

> <Gold.Chemscore.Hbond.Weighted>
-5.6671

> <Gold.Chemscore.Metal.Weighted>
-0.0000

> <Gold.Chemscore.Lipo.Weighted>
-7.9800

> <Gold.Chemscore.Internal_Hbond.Weighted>
0.0000

> <Gold.Chemscore.DEClash.Weighted>
1.3366

> <Gold.Chemscore.DEInternal.Weighted>
1.5047

> <Gold.Chemscore.Rot.Weighted>
3.5162

> <Gold.Chemscore.Internal.Correction.Weighted>
   9.000000E+99

> <Gold.Protein.RotatedTorsions>
[ 6907 6896 6895 6894 ] final -166.99 input  -60.11 | X-H torsion
[ 7974 7965 7964 7962 ] final   18.49 input  175.53 | X-H torsion
[ 8008 7997 7996 7995 ] final  -20.85 input   59.86 | X-H torsion
[ 10167 10162 10161 10158 ] final  146.19 input  -65.29 | X-H torsion
[ 10718 10713 10712 10709 ] final -100.29 input   66.30 | X-H torsion
[ 10763 10752 10751 10750 ] final   90.06 input  -60.55 | X-H torsion
[ 11005 11000 10999 10996 ] final  -74.95 input  -57.11 | X-H torsion

> <Gold.Protein.ActiveResidues>
 VAL166  LYS551  ARG553  GLY616  TRP617  ASP618  TYR619  PRO620  LYS621  CYS622 
 ASP623  PHE694  ASN695  SER759  ASP760  ASP761  ALA762  ILE779  LEU786  VAL792 
 PHE793  MET794  SER795  GLU796  ALA797  LYS798  CYS799  TRP800  GLU811  SER814 

> <Gold.Protein.RotatedAtoms>
  151.4525  133.3614  159.2797 H   0  0  0  0  0  0  0  0  0  0  0  0  # atno 6907 bound_to 6896
  150.9081  134.8499  159.7417 H   0  0  0  0  0  0  0  0  0  0  0  0  # atno 6908 bound_to 6896
  152.4917  134.4452  159.9608 H   0  0  0  0  0  0  0  0  0  0  0  0  # atno 6909 bound_to 6896
  146.2183  139.8450  142.8633 H   0  0  0  0  0  0  0  0  0  0  0  0  # atno 7974 bound_to 7965
  154.4743  140.2051  155.9917 H   0  0  0  0  0  0  0  0  0  0  0  0  # atno 8008 bound_to 7997
  156.1063  140.3236  155.7981 H   0  0  0  0  0  0  0  0  0  0  0  0  # atno 8009 bound_to 7997
  155.4711  140.0531  157.2970 H   0  0  0  0  0  0  0  0  0  0  0  0  # atno 8010 bound_to 7997
  139.4912  144.5847  151.6801 H   0  0  0  0  0  0  0  0  0  0  0  0  # atno 10167 bound_to 10162
  156.0158  130.5321  150.6795 H   0  0  0  0  0  0  0  0  0  0  0  0  # atno 10718 bound_to 10713
  153.1935  135.4448  155.0179 H   0  0  0  0  0  0  0  0  0  0  0  0  # atno 10763 bound_to 10752
  154.8105  135.3292  154.7321 H   0  0  0  0  0  0  0  0  0  0  0  0  # atno 10764 bound_to 10752
  153.7772  135.6980  153.4950 H   0  0  0  0  0  0  0  0  0  0  0  0  # atno 10765 bound_to 10752
  141.1640  133.6929  156.7443 H   0  0  0  0  0  0  0  0  0  0  0  0  # atno 11005 bound_to 11000
  145.2859  141.0153  143.3690 LP  0  0  0  0  0  0  0  0  0  0  0  0  # atno 17320 bound_to 7965
  144.9114  139.4524  143.6585 LP  0  0  0  0  0  0  0  0  0  0  0  0  # atno 17321 bound_to 7965
  140.5461  144.0501  150.6108 LP  0  0  0  0  0  0  0  0  0  0  0  0  # atno 17342 bound_to 10162
  140.3539  143.2947  152.0457 LP  0  0  0  0  0  0  0  0  0  0  0  0  # atno 17343 bound_to 10162
  157.4500  131.0871  151.0855 LP  0  0  0  0  0  0  0  0  0  0  0  0  # atno 17370 bound_to 10713
  157.1374  130.6128  149.5546 LP  0  0  0  0  0  0  0  0  0  0  0  0  # atno 17371 bound_to 10713
  140.2651  134.8436  157.3795 LP  0  0  0  0  0  0  0  0  0  0  0  0  # atno 17394 bound_to 11000
  140.1574  134.4772  155.7918 LP  0  0  0  0  0  0  0  0  0  0  0  0  # atno 17395 bound_to 11000

$$$$
