AV-unprocessed.smi:2583|AV-procd|sdf|10141|dock2
  -GOLD-   2272014153D 1   1.00000     0.00000
 Structure written by MMmdl.
 54 56  0  0  0  0  0  0  0  0  2 V2000
  153.3670  141.3734  159.9459 C   0  0  0  0  0  0  0  0  0  0  0  0
  152.6624  142.2854  158.9633 C   0  0  0  0  0  0  0  0  0  0  0  0
  152.9908  143.6540  158.8798 C   0  0  0  0  0  0  0  0  0  0  0  0
  152.3832  144.5106  158.0323 N   0  0  0  0  0  0  0  0  0  0  0  0
  151.4183  144.0222  157.2242 C   0  0  0  0  0  0  0  0  0  0  0  0
  151.0193  142.6688  157.2105 C   0  0  0  0  0  0  0  0  0  0  0  0
  149.9792  142.2872  156.3205 N   0  0  0  0  0  0  0  0  0  0  0  0
  149.7009  141.0627  155.8415 C   0  0  0  0  0  0  0  0  0  0  0  0
  150.3391  140.0395  156.0881 O   0  0  0  0  0  0  0  0  0  0  0  0
  148.6380  141.0896  155.0243 N   0  0  0  0  0  0  0  0  0  0  0  0
  148.0930  139.9321  154.3201 C   0  0  2  0  0  0  0  0  0  0  0  0
  147.5191  140.3412  152.9550 C   0  0  0  0  0  0  0  0  0  0  0  0
  146.8682  139.1420  152.2485 C   0  0  0  0  0  0  0  0  0  0  0  0
  145.7894  138.5264  153.0746 N   0  3  1  0  0  0  0  0  0  0  0  0
  145.0407  137.4628  152.3274 C   0  0  0  0  0  0  0  0  0  0  0  0
  144.0873  136.6907  153.2691 C   0  0  0  0  0  0  0  0  0  0  0  0
  143.3473  135.5578  152.5377 C   0  0  0  0  0  0  0  0  0  0  0  0
  144.3084  134.6163  151.9692 N   0  0  0  0  0  0  0  0  0  0  0  0
  143.5912  133.5181  151.3364 C   0  0  0  0  0  0  0  0  0  0  0  0
  145.1293  135.2962  150.9704 C   0  0  0  0  0  0  0  0  0  0  0  0
  145.9480  136.4183  151.6321 C   0  0  0  0  0  0  0  0  0  0  0  0
  146.3229  138.1107  154.4055 C   0  0  0  0  0  0  0  0  0  0  0  0
  146.9802  139.2843  155.1536 C   0  0  0  0  0  0  0  0  0  0  0  0
  151.6542  141.7844  158.1154 C   0  0  0  0  0  0  0  0  0  0  0  0
  154.2788  141.8339  160.3274 H   0  0  0  0  0  0  0  0  0  0  0  0
  153.6373  140.4321  159.4663 H   0  0  0  0  0  0  0  0  0  0  0  0
  152.7136  141.1543  160.7907 H   0  0  0  0  0  0  0  0  0  0  0  0
  153.7564  144.0767  159.5137 H   0  0  0  0  0  0  0  0  0  0  0  0
  150.9526  144.7372  156.5616 H   0  0  0  0  0  0  0  0  0  0  0  0
  149.4207  143.0461  155.9580 H   0  0  0  0  0  0  0  0  0  0  0  0
  148.1755  141.9749  154.8760 H   0  0  0  0  0  0  0  0  0  0  0  0
  148.8860  139.1962  154.1719 H   0  0  0  0  0  0  0  0  0  0  0  0
  146.7811  141.1349  153.0811 H   0  0  0  0  0  0  0  0  0  0  0  0
  148.3081  140.7506  152.3228 H   0  0  0  0  0  0  0  0  0  0  0  0
  146.4812  139.4890  151.2926 H   0  0  0  0  0  0  0  0  0  0  0  0
  147.6255  138.3897  152.0224 H   0  0  0  0  0  0  0  0  0  0  0  0
  144.4509  137.9499  151.5490 H   0  0  0  0  0  0  0  0  0  0  0  0
  144.6505  136.2741  154.1058 H   0  0  0  0  0  0  0  0  0  0  0  0
  143.3372  137.3488  153.7038 H   0  0  0  0  0  0  0  0  0  0  0  0
  142.7001  135.0344  153.2428 H   0  0  0  0  0  0  0  0  0  0  0  0
  142.7053  135.9653  151.7549 H   0  0  0  0  0  0  0  0  0  0  0  0
  144.2919  132.7982  150.9120 H   0  0  0  0  0  0  0  0  0  0  0  0
  142.9405  133.8742  150.5360 H   0  0  0  0  0  0  0  0  0  0  0  0
  142.9768  132.9902  152.0666 H   0  0  0  0  0  0  0  0  0  0  0  0
  145.8073  134.5780  150.5074 H   0  0  0  0  0  0  0  0  0  0  0  0
  144.5014  135.7019  150.1753 H   0  0  0  0  0  0  0  0  0  0  0  0
  146.5487  136.8866  150.8522 H   0  0  0  0  0  0  0  0  0  0  0  0
  146.6428  135.9830  152.3522 H   0  0  0  0  0  0  0  0  0  0  0  0
  145.5244  137.7415  155.0471 H   0  0  0  0  0  0  0  0  0  0  0  0
  147.0371  137.2961  154.2752 H   0  0  0  0  0  0  0  0  0  0  0  0
  147.3832  138.9327  156.1043 H   0  0  0  0  0  0  0  0  0  0  0  0
  146.2189  140.0271  155.3977 H   0  0  0  0  0  0  0  0  0  0  0  0
  151.3779  140.7436  158.1845 H   0  0  0  0  0  0  0  0  0  0  0  0
  145.1164  139.2550  153.2665 H   0  0  0  0  0  0  0  0  0  0  0  0
  1  2  1  0  0  0  0
  1 25  1  0  0  0  0
  1 26  1  0  0  0  0
  1 27  1  0  0  0  0
  2 24  1  0  0  0  0
  2  3  2  0  0  0  0
  3  4  1  0  0  0  0
  3 28  1  0  0  0  0
  4  5  2  0  0  0  0
  5  6  1  0  0  0  0
  5 29  1  0  0  0  0
  6  7  1  0  0  0  0
  6 24  2  0  0  0  0
  7  8  1  0  0  0  0
  7 30  1  0  0  0  0
  8  9  2  0  0  0  0
  8 10  1  0  0  0  0
 10 11  1  0  0  0  0
 10 31  1  0  0  0  0
 11 23  1  0  0  0  0
 11 12  1  0  0  0  0
 11 32  1  0  0  0  0
 12 13  1  0  0  0  0
 12 33  1  0  0  0  0
 12 34  1  0  0  0  0
 13 14  1  0  0  0  0
 13 35  1  0  0  0  0
 13 36  1  0  0  0  0
 14 15  1  0  0  0  0
 14 22  1  0  0  0  0
 14 54  1  0  0  0  0
 15 21  1  0  0  0  0
 15 16  1  0  0  0  0
 15 37  1  0  0  0  0
 16 17  1  0  0  0  0
 16 38  1  0  0  0  0
 16 39  1  0  0  0  0
 17 18  1  0  0  0  0
 17 40  1  0  0  0  0
 17 41  1  0  0  0  0
 18 19  1  0  0  0  0
 18 20  1  0  0  0  0
 19 42  1  0  0  0  0
 19 43  1  0  0  0  0
 19 44  1  0  0  0  0
 20 21  1  0  0  0  0
 20 45  1  0  0  0  0
 20 46  1  0  0  0  0
 21 47  1  0  0  0  0
 21 48  1  0  0  0  0
 22 23  1  0  0  0  0
 22 49  1  0  0  0  0
 22 50  1  0  0  0  0
 23 51  1  0  0  0  0
 23 52  1  0  0  0  0
 24 53  1  0  0  0  0
M  CHG  1  14   1
M  END
> <s_m_source_file>
AV-unprocessed.smi

> <i_m_source_file_index>
2583

> <i_lp_mmshare_version>
43012

> <i_f3d_flags>
0

> <s_epik_input>
W0NIM11jMVtjSF1uW2NIXWMoW2NIXTEpW05IXUMoPU8pW05IXVtDSF0yW0NIMl1bQ0gyXU4oW0NIMl1bQ0gyXTIpW0NIXTNbQ0gyXVtDSDJdTihbQ0gzXSlbQ0gyXVtDSDJdMw==

> <s_epik_cmdline>
J2VwaWtfcHl0aG9uJywgJy1waCcsICc3LjAnLCAnLXRuJywgJzgnLCAnLW1hJywgJzIwMCcsICctbWV0YWxfYmluZGluZycsICctaW1hZScsICc8aW5maWxlLm1hZT4nLCAnLW9tYWUnLCAnPG91dGZpbGUubWFlPic=

> <r_epik_Ionization_Penalty>
1.38006

> <r_epik_Ionization_Penalty_Charging>
0.00081195

> <r_epik_Ionization_Penalty_Neutral>
1.37925

> <r_epik_State_Penalty>
1.55585

> <r_epik_Charging_Adjusted_Penalty>
1.55666

> <i_epik_Tot_Q>
1

> <i_epik_Tot_abs_Q>
1

> <r_epik_Metal_State_Penalty>
1.55173

> <b_epik_Metal_Only>
0

> <s_lp_Force_Field>
OPLS_2005

> <r_lp_Energy>
35.6185

> <b_lp_Chiralities_Consistent>
1

> <s_lp_Variant>
AV-unprocessed.smi:2583-7

> <Gold.Version>
5.8.1

> <Gold.Id.Protein>
6NUR|6NUR_protein|mol2

> <Gold.PLP.Fitness>
49.8691

> <Gold.PLP.PLP>
-39.7035

> <Gold.PLP.part.hbond>
-2.0000

> <Gold.PLP.part.metal>
0.0000

> <Gold.PLP.part.buried>
1.0298

> <Gold.PLP.part.nonpolar>
-39.4097

> <Gold.PLP.part.repulsive>
0.3405

> <Gold.PLP.ligand.clash>
0.0000

> <Gold.PLP.ligand.torsion>
0.6687

> <Gold.PLP.Chemscore.Hbond>
2.8240

> <Gold.PLP.Chemscore.CHOScore>
1.0000

> <Gold.PLP.Chemscore.Metal>
0.0000

> <Gold.Chemscore.Hbonds>
donor molecule, donor type, donor heavy atom, donor atom, acceptor molecule, acceptor atom, score
      L1  H     7    30       P1  8028  1.00
      L1  H    14    54       P1 10175  1.78
      L1  C     5    29       P1  8028  1.00

> <Gold.PLP.Chemscore.Internal.Correction>
0.0310

> <Gold.Rescore>
     Score         DG    S(hbond)    S(metal)    S(lipo)     H(rot)  DE(clash)    DE(int)     intcor
     19.30     -21.94       1.69        0.00     118.48       1.19       0.75       1.89       ----

> <Gold.Chemscore.Fitness>
19.2963

> <Gold.Chemscore.DG>
-21.9361

> <Gold.Chemscore.ZeroCoef>
-5.4800

> <Gold.Chemscore.Hbond>
1.6894

> <Gold.Chemscore.Metal>
0.0000

> <Gold.Chemscore.Lipo>
118.4824

> <Gold.Chemscore.Internal_Hbond>
0.0000

> <Gold.Chemscore.DEClash>
0.7470

> <Gold.Chemscore.DEInternal>
1.8928

> <Gold.Chemscore.Rot>
1.1910

> <Gold.Chemscore.Internal.Correction>
   9.000000E+99

> <Gold.Chemscore.Hbonds>
donor molecule, donor type, donor heavy atom, donor atom, acceptor molecule, acceptor atom, score
      L1  H     7    30       P1  8028  0.99
      L1  H    14    54       P1 10175  0.80

> <Gold.Chemscore.Hbond.Weighted>
-5.6426

> <Gold.Chemscore.Metal.Weighted>
-0.0000

> <Gold.Chemscore.Lipo.Weighted>
-13.8624

> <Gold.Chemscore.Internal_Hbond.Weighted>
0.0000

> <Gold.Chemscore.DEClash.Weighted>
0.7470

> <Gold.Chemscore.DEInternal.Weighted>
1.8928

> <Gold.Chemscore.Rot.Weighted>
3.0489

> <Gold.Chemscore.Internal.Correction.Weighted>
   9.000000E+99

> <Gold.Protein.RotatedTorsions>
[ 6907 6896 6895 6894 ] final  124.01 input  -60.11 | X-H torsion
[ 7974 7965 7964 7962 ] final  -81.31 input  175.53 | X-H torsion
[ 8008 7997 7996 7995 ] final   45.36 input   59.86 | X-H torsion
[ 10167 10162 10161 10158 ] final  -46.56 input  -65.29 | X-H torsion
[ 10718 10713 10712 10709 ] final  -63.71 input   66.30 | X-H torsion
[ 10763 10752 10751 10750 ] final  105.68 input  -60.55 | X-H torsion
[ 11005 11000 10999 10996 ] final  -70.52 input  -57.11 | X-H torsion

> <Gold.Protein.ActiveResidues>
 VAL166  LYS551  ARG553  GLY616  TRP617  ASP618  TYR619  PRO620  LYS621  CYS622 
 ASP623  PHE694  ASN695  SER759  ASP760  ASP761  ALA762  ILE779  LEU786  VAL792 
 PHE793  MET794  SER795  GLU796  ALA797  LYS798  CYS799  TRP800  GLU811  SER814 

> <Gold.Protein.RotatedAtoms>
  152.4114  133.6969  159.6400 H   0  0  0  0  0  0  0  0  0  0  0  0  # atno 6907 bound_to 6896
  150.7994  133.8617  159.3242 H   0  0  0  0  0  0  0  0  0  0  0  0  # atno 6908 bound_to 6896
  151.6359  135.1020  160.0183 H   0  0  0  0  0  0  0  0  0  0  0  0  # atno 6909 bound_to 6896
  145.5483  140.9500  143.1513 H   0  0  0  0  0  0  0  0  0  0  0  0  # atno 7974 bound_to 7965
  155.3346  140.3404  155.4239 H   0  0  0  0  0  0  0  0  0  0  0  0  # atno 8008 bound_to 7997
  156.1844  140.1675  156.8250 H   0  0  0  0  0  0  0  0  0  0  0  0  # atno 8009 bound_to 7997
  154.5369  140.0733  156.8427 H   0  0  0  0  0  0  0  0  0  0  0  0  # atno 8010 bound_to 7997
  140.6812  143.2825  151.3800 H   0  0  0  0  0  0  0  0  0  0  0  0  # atno 10167 bound_to 10162
  156.0774  130.4224  150.1316 H   0  0  0  0  0  0  0  0  0  0  0  0  # atno 10718 bound_to 10713
  153.3826  135.3902  155.1867 H   0  0  0  0  0  0  0  0  0  0  0  0  # atno 10763 bound_to 10752
  154.8709  135.3729  154.4838 H   0  0  0  0  0  0  0  0  0  0  0  0  # atno 10764 bound_to 10752
  153.5316  135.7085  153.5741 H   0  0  0  0  0  0  0  0  0  0  0  0  # atno 10765 bound_to 10752
  141.1575  133.6792  156.6765 H   0  0  0  0  0  0  0  0  0  0  0  0  # atno 11005 bound_to 11000
  144.7542  139.7116  143.7261 LP  0  0  0  0  0  0  0  0  0  0  0  0  # atno 17320 bound_to 7965
  146.1934  139.5187  142.9790 LP  0  0  0  0  0  0  0  0  0  0  0  0  # atno 17321 bound_to 7965
  139.6137  144.1047  152.2324 LP  0  0  0  0  0  0  0  0  0  0  0  0  # atno 17342 bound_to 10162
  140.0469  144.5963  150.7367 LP  0  0  0  0  0  0  0  0  0  0  0  0  # atno 17343 bound_to 10162
  156.9354  130.9727  151.3525 LP  0  0  0  0  0  0  0  0  0  0  0  0  # atno 17370 bound_to 10713
  157.5876  130.8420  149.8612 LP  0  0  0  0  0  0  0  0  0  0  0  0  # atno 17371 bound_to 10713
  140.3135  134.8067  157.4195 LP  0  0  0  0  0  0  0  0  0  0  0  0  # atno 17394 bound_to 11000
  140.1158  134.5285  155.8226 LP  0  0  0  0  0  0  0  0  0  0  0  0  # atno 17395 bound_to 11000

$$$$
