AV-unprocessed.smi:72|AV-procd|sdf|711|dock3
  -GOLD-   2262017 33D 1   1.00000     0.00000
 Structure written by MMmdl.
 28 29  0  0  0  0  0  0  0  0  2 V2000
  153.7390  138.0890  155.0002 N   0  0  0  0  0  0  0  0  0  0  0  0
  152.6445  138.7117  155.0587 C   0  0  0  0  0  0  0  0  0  0  0  0
  151.5552  138.3505  154.1778 N   0  0  0  0  0  0  0  0  0  0  0  0
  150.4420  139.0072  154.2928 C   0  0  0  0  0  0  0  0  0  0  0  0
  150.2722  140.0649  155.2798 N   0  0  0  0  0  0  0  0  0  0  0  0
  148.9728  140.8326  155.3987 C   0  0  2  0  0  0  0  0  0  0  0  0
  147.9562  139.9672  155.8213 O   0  0  0  0  0  0  0  0  0  0  0  0
  146.8391  140.0817  154.9489 C   0  0  2  0  0  0  0  0  0  0  0  0
  145.9853  138.8004  154.9752 C   0  0  0  0  0  0  0  0  0  0  0  0
  144.6459  139.0400  154.5947 O   0  0  0  0  0  0  0  0  0  0  0  0
  147.4379  140.4966  153.6038 C   0  0  1  0  0  0  0  0  0  0  0  0
  146.5010  141.1197  152.7453 O   0  0  0  0  0  0  0  0  0  0  0  0
  148.5737  141.4207  154.0319 C   0  0  1  0  0  0  0  0  0  0  0  0
  148.1695  142.7711  154.1649 O   0  0  0  0  0  0  0  0  0  0  0  0
  151.3705  140.4238  156.1051 C   0  0  0  0  0  0  0  0  0  0  0  0
  151.2236  141.3565  156.8957 O   0  0  0  0  0  0  0  0  0  0  0  0
  152.5372  139.7314  155.9787 N   0  5  0  0  0  0  0  0  0  0  0  0
  149.1340  141.5813  156.1762 H   0  0  0  0  0  0  0  0  0  0  0  0
  146.2375  140.9055  155.3376 H   0  0  0  0  0  0  0  0  0  0  0  0
  147.8687  139.6349  153.0932 H   0  0  0  0  0  0  0  0  0  0  0  0
  149.4068  141.3851  153.3281 H   0  0  0  0  0  0  0  0  0  0  0  0
  154.4143  138.4390  155.6642 H   0  0  0  0  0  0  0  0  0  0  0  0
  149.5754  138.8129  153.6606 H   0  0  0  0  0  0  0  0  0  0  0  0
  146.4187  138.0388  154.3268 H   0  0  0  0  0  0  0  0  0  0  0  0
  145.9740  138.3899  155.9851 H   0  0  0  0  0  0  0  0  0  0  0  0
  144.6452  139.5808  153.8198 H   0  0  0  0  0  0  0  0  0  0  0  0
  145.6923  140.6325  152.7847 H   0  0  0  0  0  0  0  0  0  0  0  0
  148.3174  143.0371  155.0599 H   0  0  0  0  0  0  0  0  0  0  0  0
  1  2  2  0  0  0  0
  1 22  1  0  0  0  0
  2 17  1  0  0  0  0
  2  3  1  0  0  0  0
  3  4  2  0  0  0  0
  4  5  1  0  0  0  0
  4 23  1  0  0  0  0
  5  6  1  0  0  0  0
  5 15  1  0  0  0  0
  6 18  1  0  0  0  0
  6 13  1  0  0  0  0
  6  7  1  0  0  0  0
  7  8  1  0  0  0  0
  8 19  1  0  0  0  0
  8  9  1  0  0  0  0
  8 11  1  0  0  0  0
  9 10  1  0  0  0  0
  9 24  1  0  0  0  0
  9 25  1  0  0  0  0
 10 26  1  0  0  0  0
 11 20  1  0  0  0  0
 11 12  1  0  0  0  0
 11 13  1  0  0  0  0
 12 27  1  0  0  0  0
 13 21  1  0  0  0  0
 13 14  1  0  0  0  0
 14 28  1  0  0  0  0
 15 16  2  0  0  0  0
 15 17  1  0  0  0  0
M  CHG  1  17  -1
M  END
> <s_m_source_file>
AV-unprocessed.smi

> <i_m_source_file_index>
72

> <i_lp_mmshare_version>
43012

> <i_f3d_flags>
0

> <s_epik_input>
W05IMl1jMW5bY0hdbihjKD1PKW4xKVtDQEBIXTJPW0NASF0oW0NIMl1bT0hdKVtDQEBIXShbT0hdKVtDQEhdMltPSF0=

> <s_epik_cmdline>
J2VwaWtfcHl0aG9uJywgJy1waCcsICc3LjAnLCAnLXRuJywgJzgnLCAnLW1hJywgJzIwMCcsICctbWV0YWxfYmluZGluZycsICctaW1hZScsICc8aW5maWxlLm1hZT4nLCAnLW9tYWUnLCAnPG91dGZpbGUubWFlPic=

> <r_lp_tautomer_probability>
7.17554e-07

> <r_epik_Ionization_Penalty>
12.8705

> <r_epik_Ionization_Penalty_Charging>
5.64144

> <r_epik_Ionization_Penalty_Neutral>
7.22905

> <r_epik_State_Penalty>
3.30104

> <r_epik_Charging_Adjusted_Penalty>
8.94249

> <i_epik_Tot_Q>
-1

> <i_epik_Tot_abs_Q>
1

> <r_epik_Metal_State_Penalty>
0.529074

> <b_epik_Metal_Only>
1

> <s_epik_Chemistry_Notes>
This compound contains an acetal/aminal-like group ( X-CH(R)-Y where X, Y are N, S, or O) that may be acid/base labile, releasing an aldehyde.

> <s_lp_Force_Field>
OPLS_2005

> <r_lp_Energy>
37.3105

> <b_lp_Chiralities_Consistent>
1

> <s_lp_Variant>
AV-unprocessed.smi:72-49

> <Gold.Version>
5.8.1

> <Gold.Id.Protein>
6NUR|6NUR_protein|mol2

> <Gold.PLP.Fitness>
40.8117

> <Gold.PLP.PLP>
-26.1061

> <Gold.PLP.part.hbond>
-7.4690

> <Gold.PLP.part.metal>
0.0000

> <Gold.PLP.part.buried>
-0.5307

> <Gold.PLP.part.nonpolar>
-18.4247

> <Gold.PLP.part.repulsive>
0.2219

> <Gold.PLP.ligand.clash>
0.0000

> <Gold.PLP.ligand.torsion>
0.3074

> <Gold.PLP.Chemscore.Hbond>
4.8328

> <Gold.PLP.Chemscore.CHOScore>
0.2706

> <Gold.PLP.Chemscore.Metal>
0.0000

> <Gold.Chemscore.Hbonds>
donor molecule, donor type, donor heavy atom, donor atom, acceptor molecule, acceptor atom, score
      L1  H    10    26       P1 10175  0.98
      L1  H    12    27       P1 10175  1.00
      L1  H    14    28       P1  8028  0.53
      P1  H  7997  8009       L1    17  2.00
      P1  H  8022  8030       L1    14  0.33
      L1  C     4    23       P1  7957  0.27

> <Gold.PLP.Chemscore.Internal.Correction>
0.0099

> <Gold.Rescore>
     Score         DG    S(hbond)    S(metal)    S(lipo)     H(rot)  DE(clash)    DE(int)     intcor
      7.77      -8.37       3.31        0.00      18.61       4.04       0.28       0.32       ----

> <Gold.Chemscore.Fitness>
7.7693

> <Gold.Chemscore.DG>
-8.3683

> <Gold.Chemscore.ZeroCoef>
-5.4800

> <Gold.Chemscore.Hbond>
3.3097

> <Gold.Chemscore.Metal>
0.0000

> <Gold.Chemscore.Lipo>
18.6062

> <Gold.Chemscore.Internal_Hbond>
0.0000

> <Gold.Chemscore.DEClash>
0.2797

> <Gold.Chemscore.DEInternal>
0.3193

> <Gold.Chemscore.Rot>
4.0403

> <Gold.Chemscore.Internal.Correction>
   9.000000E+99

> <Gold.Chemscore.Hbonds>
donor molecule, donor type, donor heavy atom, donor atom, acceptor molecule, acceptor atom, score
      L1  H    10    26       P1 10175  0.92
      L1  H    12    27       P1 10175  0.49
      L1  H    14    28       P1  8028  0.52
      P1  H  7997  8009       L1    17  0.26
      P1  H  8022  8030       L1    14  0.01

> <Gold.Chemscore.Hbond.Weighted>
-11.0545

> <Gold.Chemscore.Metal.Weighted>
-0.0000

> <Gold.Chemscore.Lipo.Weighted>
-2.1769

> <Gold.Chemscore.Internal_Hbond.Weighted>
0.0000

> <Gold.Chemscore.DEClash.Weighted>
0.2797

> <Gold.Chemscore.DEInternal.Weighted>
0.3193

> <Gold.Chemscore.Rot.Weighted>
10.3431

> <Gold.Chemscore.Internal.Correction.Weighted>
   9.000000E+99

> <Gold.Protein.RotatedTorsions>
[ 6907 6896 6895 6894 ] final  -40.91 input  -60.11 | X-H torsion
[ 7974 7965 7964 7962 ] final -149.26 input  175.53 | X-H torsion
[ 8008 7997 7996 7995 ] final -155.72 input   59.86 | X-H torsion
[ 10167 10162 10161 10158 ] final   21.56 input  -65.29 | X-H torsion
[ 10718 10713 10712 10709 ] final  168.08 input   66.30 | X-H torsion
[ 10763 10752 10751 10750 ] final -160.59 input  -60.55 | X-H torsion
[ 11005 11000 10999 10996 ] final -154.74 input  -57.11 | X-H torsion

> <Gold.Protein.ActiveResidues>
 VAL166  LYS551  ARG553  GLY616  TRP617  ASP618  TYR619  PRO620  LYS621  CYS622 
 ASP623  PHE694  ASN695  SER759  ASP760  ASP761  ALA762  ILE779  LEU786  VAL792 
 PHE793  MET794  SER795  GLU796  ALA797  LYS798  CYS799  TRP800  GLU811  SER814 

> <Gold.Protein.RotatedAtoms>
  150.9729  134.9099  159.7798 H   0  0  0  0  0  0  0  0  0  0  0  0  # atno 6907 bound_to 6896
  152.5196  134.3515  159.9263 H   0  0  0  0  0  0  0  0  0  0  0  0  # atno 6908 bound_to 6896
  151.3524  133.3879  159.2716 H   0  0  0  0  0  0  0  0  0  0  0  0  # atno 6909 bound_to 6896
  144.7979  140.5089  143.5728 H   0  0  0  0  0  0  0  0  0  0  0  0  # atno 7974 bound_to 7965
  155.7062  140.0773  157.2390 H   0  0  0  0  0  0  0  0  0  0  0  0  # atno 8008 bound_to 7997
  154.4065  140.1638  156.2299 H   0  0  0  0  0  0  0  0  0  0  0  0  # atno 8009 bound_to 7997
  155.9323  140.3390  155.6262 H   0  0  0  0  0  0  0  0  0  0  0  0  # atno 8010 bound_to 7997
  140.5417  143.9665  150.6523 H   0  0  0  0  0  0  0  0  0  0  0  0  # atno 10167 bound_to 10162
  157.0422  131.0290  151.2709 H   0  0  0  0  0  0  0  0  0  0  0  0  # atno 10718 bound_to 10713
  154.7377  135.3061  154.8782 H   0  0  0  0  0  0  0  0  0  0  0  0  # atno 10763 bound_to 10752
  153.9606  135.6753  153.4749 H   0  0  0  0  0  0  0  0  0  0  0  0  # atno 10764 bound_to 10752
  153.0979  135.4927  154.8735 H   0  0  0  0  0  0  0  0  0  0  0  0  # atno 10765 bound_to 10752
  140.6941  134.4009  157.5216 H   0  0  0  0  0  0  0  0  0  0  0  0  # atno 11005 bound_to 11000
  145.5628  139.1480  143.3332 LP  0  0  0  0  0  0  0  0  0  0  0  0  # atno 17320 bound_to 7965
  146.2252  140.5763  142.8999 LP  0  0  0  0  0  0  0  0  0  0  0  0  # atno 17321 bound_to 7965
  140.3067  143.3224  152.0918 LP  0  0  0  0  0  0  0  0  0  0  0  0  # atno 17342 bound_to 10162
  139.4991  144.6662  151.6350 LP  0  0  0  0  0  0  0  0  0  0  0  0  # atno 17343 bound_to 10162
  157.5095  130.7930  149.7690 LP  0  0  0  0  0  0  0  0  0  0  0  0  # atno 17370 bound_to 10713
  156.0034  130.3868  150.2520 LP  0  0  0  0  0  0  0  0  0  0  0  0  # atno 17371 bound_to 10713
  139.8915  134.8778  156.2316 LP  0  0  0  0  0  0  0  0  0  0  0  0  # atno 17394 bound_to 11000
  141.0218  133.7037  156.1280 LP  0  0  0  0  0  0  0  0  0  0  0  0  # atno 17395 bound_to 11000

$$$$
