AV-unprocessed.smi:1252|AV-procd|sdf|5266|dock5
  -GOLD-   22720 4383D 1   1.00000     0.00000
 Structure written by MMmdl.
 44 45  0  0  0  0  0  0  0  0  2 V2000
  149.2432  140.9996  154.4695 C   0  0  0  0  0  0  0  0  0  0  0  0
  149.3361  139.5248  154.0355 C   0  0  2  0  0  0  0  0  0  0  0  0
  148.1952  138.6578  154.5886 C   0  0  0  0  0  0  0  0  0  0  0  0
  147.4724  139.0611  155.4999 O   0  0  0  0  0  0  0  0  0  0  0  0
  148.0807  137.4369  154.0444 N   0  0  0  0  0  0  0  0  0  0  0  0
  147.2154  136.3598  154.5193 C   0  0  0  0  0  0  0  0  0  0  0  0
  145.9008  136.2257  153.6913 C   0  0  0  0  0  0  0  0  0  0  0  0
  144.8267  135.5922  154.6107 C   0  0  0  0  0  0  0  0  0  0  0  0
  145.4164  137.6437  153.3114 C   0  0  0  0  0  0  0  0  0  0  0  0
  146.1218  135.3643  152.4724 N   0  3  0  0  0  0  0  0  0  0  0  0
  146.4982  133.9460  152.7314 C   0  0  0  0  0  0  0  0  0  0  0  0
  146.8522  133.2286  151.4172 C   0  0  0  0  0  0  0  0  0  0  0  0
  145.7648  133.3153  150.5073 O   0  0  0  0  0  0  0  0  0  0  0  0
  145.4595  134.6630  150.1798 C   0  0  0  0  0  0  0  0  0  0  0  0
  145.0375  135.4147  151.4520 C   0  0  0  0  0  0  0  0  0  0  0  0
  150.6168  138.9429  154.4181 N   0  0  0  0  0  0  0  0  0  0  0  0
  151.0842  137.6977  154.2924 C   0  0  0  0  0  0  0  0  0  0  0  0
  152.3324  137.5483  154.7121 N   0  0  0  0  0  0  0  0  0  0  0  0
  152.5900  138.8253  155.1224 C   0  0  0  0  0  0  0  0  0  0  0  0
  151.6029  139.7041  154.9505 N   0  0  0  0  0  0  0  0  0  0  0  0
  148.3062  141.4490  154.1382 H   0  0  0  0  0  0  0  0  0  0  0  0
  150.0554  141.5837  154.0358 H   0  0  0  0  0  0  0  0  0  0  0  0
  149.3008  141.1094  155.5532 H   0  0  0  0  0  0  0  0  0  0  0  0
  149.2631  139.4966  152.9468 H   0  0  0  0  0  0  0  0  0  0  0  0
  148.7024  137.2114  153.2810 H   0  0  0  0  0  0  0  0  0  0  0  0
  147.7584  135.4133  154.5453 H   0  0  0  0  0  0  0  0  0  0  0  0
  146.9862  136.5744  155.5631 H   0  0  0  0  0  0  0  0  0  0  0  0
  144.7932  136.0869  155.5820 H   0  0  0  0  0  0  0  0  0  0  0  0
  145.0191  134.5342  154.7906 H   0  0  0  0  0  0  0  0  0  0  0  0
  143.8233  135.6786  154.1937 H   0  0  0  0  0  0  0  0  0  0  0  0
  145.2283  138.2404  154.2049 H   0  0  0  0  0  0  0  0  0  0  0  0
  144.4865  137.6220  152.7437 H   0  0  0  0  0  0  0  0  0  0  0  0
  146.1529  138.1882  152.7211 H   0  0  0  0  0  0  0  0  0  0  0  0
  147.3661  133.8746  153.3841 H   0  0  0  0  0  0  0  0  0  0  0  0
  145.6778  133.4238  153.2242 H   0  0  0  0  0  0  0  0  0  0  0  0
  147.7500  133.6561  150.9699 H   0  0  0  0  0  0  0  0  0  0  0  0
  147.0657  132.1772  151.6103 H   0  0  0  0  0  0  0  0  0  0  0  0
  146.3175  135.1437  149.7072 H   0  0  0  0  0  0  0  0  0  0  0  0
  144.6483  134.6726  149.4518 H   0  0  0  0  0  0  0  0  0  0  0  0
  144.1263  134.9656  151.8481 H   0  0  0  0  0  0  0  0  0  0  0  0
  144.7960  136.4396  151.1769 H   0  0  0  0  0  0  0  0  0  0  0  0
  150.5047  136.8886  153.8719 H   0  0  0  0  0  0  0  0  0  0  0  0
  153.5402  139.1207  155.5421 H   0  0  0  0  0  0  0  0  0  0  0  0
  146.9303  135.7684  152.0215 H   0  0  0  0  0  0  0  0  0  0  0  0
  1  2  1  0  0  0  0
  1 21  1  0  0  0  0
  1 22  1  0  0  0  0
  1 23  1  0  0  0  0
  2  3  1  0  0  0  0
  2 16  1  0  0  0  0
  2 24  1  0  0  0  0
  3  4  2  0  0  0  0
  3  5  1  0  0  0  0
  5  6  1  0  0  0  0
  5 25  1  0  0  0  0
  6  7  1  0  0  0  0
  6 26  1  0  0  0  0
  6 27  1  0  0  0  0
  7  8  1  0  0  0  0
  7  9  1  0  0  0  0
  7 10  1  0  0  0  0
  8 28  1  0  0  0  0
  8 29  1  0  0  0  0
  8 30  1  0  0  0  0
  9 31  1  0  0  0  0
  9 32  1  0  0  0  0
  9 33  1  0  0  0  0
 10 15  1  0  0  0  0
 10 11  1  0  0  0  0
 10 44  1  0  0  0  0
 11 12  1  0  0  0  0
 11 34  1  0  0  0  0
 11 35  1  0  0  0  0
 12 13  1  0  0  0  0
 12 36  1  0  0  0  0
 12 37  1  0  0  0  0
 13 14  1  0  0  0  0
 14 15  1  0  0  0  0
 14 38  1  0  0  0  0
 14 39  1  0  0  0  0
 15 40  1  0  0  0  0
 15 41  1  0  0  0  0
 16 20  1  0  0  0  0
 16 17  1  0  0  0  0
 17 18  2  0  0  0  0
 17 42  1  0  0  0  0
 18 19  1  0  0  0  0
 19 20  2  0  0  0  0
 19 43  1  0  0  0  0
M  CHG  1  10   1
M  END
> <s_m_source_file>
AV-unprocessed.smi

> <i_m_source_file_index>
1252

> <i_lp_mmshare_version>
43012

> <i_f3d_flags>
0

> <s_epik_input>
bjFbY0hdbltjSF1uMVtDQEhdKFtDSDNdKUMoPU8pW05IXVtDSDJdQyhbQ0gzXSkoW0NIM10pTjJbQ0gyXVtDSDJdT1tDSDJdW0NIMl0y

> <s_epik_cmdline>
J2VwaWtfcHl0aG9uJywgJy1waCcsICc3LjAnLCAnLXRuJywgJzgnLCAnLW1hJywgJzIwMCcsICctbWV0YWxfYmluZGluZycsICctaW1hZScsICc8aW5maWxlLm1hZT4nLCAnLW9tYWUnLCAnPG91dGZpbGUubWFlPic=

> <r_lp_tautomer_probability>
1

> <r_epik_Ionization_Penalty>
0.71326

> <r_epik_Ionization_Penalty_Charging>
0.713252

> <r_epik_Ionization_Penalty_Neutral>
8.22342e-06

> <r_epik_State_Penalty>
0.737017

> <r_epik_Charging_Adjusted_Penalty>
1.45027

> <i_epik_Tot_Q>
1

> <i_epik_Tot_abs_Q>
1

> <r_epik_Metal_State_Penalty>
0.73702

> <b_epik_Metal_Only>
0

> <s_lp_Force_Field>
OPLS_2005

> <r_lp_Energy>
34.1677

> <b_lp_Chiralities_Consistent>
1

> <s_lp_Variant>
AV-unprocessed.smi:1252-3

> <Gold.Version>
5.8.1

> <Gold.Id.Protein>
6NUR|6NUR_protein|mol2

> <Gold.PLP.Fitness>
41.9826

> <Gold.PLP.PLP>
-28.0700

> <Gold.PLP.part.hbond>
-4.0000

> <Gold.PLP.part.metal>
0.0000

> <Gold.PLP.part.buried>
1.8722

> <Gold.PLP.part.nonpolar>
-25.6642

> <Gold.PLP.part.repulsive>
0.3203

> <Gold.PLP.ligand.clash>
0.0000

> <Gold.PLP.ligand.torsion>
1.0591

> <Gold.PLP.Chemscore.Hbond>
4.2624

> <Gold.PLP.Chemscore.CHOScore>
1.0201

> <Gold.PLP.Chemscore.Metal>
0.0000

> <Gold.Chemscore.Hbonds>
donor molecule, donor type, donor heavy atom, donor atom, acceptor molecule, acceptor atom, score
      L1  H     5    25       P1  7948  0.94
      L1  H    10    44       P1  7948  1.89
      P1  H  7989  7998       L1    20  0.70
      P1  H 10752 10764       L1    18  0.67
      L1  C    17    42       P1  7948  0.59
      L1  C    17    42       P1  7949  0.31

> <Gold.PLP.Chemscore.Internal.Correction>
0.1832

> <Gold.Rescore>
     Score         DG    S(hbond)    S(metal)    S(lipo)     H(rot)  DE(clash)    DE(int)     intcor
      8.88     -12.83       2.57        0.00      46.07       2.59       1.93       2.02       ----

> <Gold.Chemscore.Fitness>
8.8761

> <Gold.Chemscore.DG>
-12.8327

> <Gold.Chemscore.ZeroCoef>
-5.4800

> <Gold.Chemscore.Hbond>
2.5700

> <Gold.Chemscore.Metal>
0.0000

> <Gold.Chemscore.Lipo>
46.0702

> <Gold.Chemscore.Internal_Hbond>
0.0000

> <Gold.Chemscore.DEClash>
1.9350

> <Gold.Chemscore.DEInternal>
2.0217

> <Gold.Chemscore.Rot>
2.5864

> <Gold.Chemscore.Internal.Correction>
   9.000000E+99

> <Gold.Chemscore.Hbonds>
donor molecule, donor type, donor heavy atom, donor atom, acceptor molecule, acceptor atom, score
      L1  H     5    25       P1  7948  0.91
      L1  H    10    44       P1  7948  0.88
      P1  H  7989  7998       L1    20  0.07
      P1  H 10752 10764       L1    18  0.48

> <Gold.Chemscore.Hbond.Weighted>
-8.5837

> <Gold.Chemscore.Metal.Weighted>
-0.0000

> <Gold.Chemscore.Lipo.Weighted>
-5.3902

> <Gold.Chemscore.Internal_Hbond.Weighted>
0.0000

> <Gold.Chemscore.DEClash.Weighted>
1.9350

> <Gold.Chemscore.DEInternal.Weighted>
2.0217

> <Gold.Chemscore.Rot.Weighted>
6.6211

> <Gold.Chemscore.Internal.Correction.Weighted>
   9.000000E+99

> <Gold.Protein.RotatedTorsions>
[ 6907 6896 6895 6894 ] final   84.43 input  -60.11 | X-H torsion
[ 7974 7965 7964 7962 ] final    8.97 input  175.53 | X-H torsion
[ 8008 7997 7996 7995 ] final  -58.28 input   59.86 | X-H torsion
[ 10167 10162 10161 10158 ] final -146.15 input  -65.29 | X-H torsion
[ 10718 10713 10712 10709 ] final  -88.82 input   66.30 | X-H torsion
[ 10763 10752 10751 10750 ] final  -73.53 input  -60.55 | X-H torsion
[ 11005 11000 10999 10996 ] final -143.68 input  -57.11 | X-H torsion

> <Gold.Protein.ActiveResidues>
 VAL166  LYS551  ARG553  GLY616  TRP617  ASP618  TYR619  PRO620  LYS621  CYS622 
 ASP623  PHE694  ASN695  SER759  ASP760  ASP761  ALA762  ILE779  LEU786  VAL792 
 PHE793  MET794  SER795  GLU796  ALA797  LYS798  CYS799  TRP800  GLU811  SER814 

> <Gold.Protein.RotatedAtoms>
  152.5352  134.2742  159.8982 H   0  0  0  0  0  0  0  0  0  0  0  0  # atno 6907 bound_to 6896
  151.2697  133.4254  159.2628 H   0  0  0  0  0  0  0  0  0  0  0  0  # atno 6908 bound_to 6896
  151.0378  134.9600  159.8202 H   0  0  0  0  0  0  0  0  0  0  0  0  # atno 6909 bound_to 6896
  146.2409  139.9853  142.8431 H   0  0  0  0  0  0  0  0  0  0  0  0  # atno 7974 bound_to 7965
  154.4302  140.1088  156.5931 H   0  0  0  0  0  0  0  0  0  0  0  0  # atno 8008 bound_to 7997
  155.5990  140.3493  155.4569 H   0  0  0  0  0  0  0  0  0  0  0  0  # atno 8009 bound_to 7997
  156.0188  140.1235  157.0369 H   0  0  0  0  0  0  0  0  0  0  0  0  # atno 8010 bound_to 7997
  139.7740  143.8197  152.2629 H   0  0  0  0  0  0  0  0  0  0  0  0  # atno 10167 bound_to 10162
  155.9983  130.4850  150.5078 H   0  0  0  0  0  0  0  0  0  0  0  0  # atno 10718 bound_to 10713
  154.4607  135.5894  153.6253 H   0  0  0  0  0  0  0  0  0  0  0  0  # atno 10763 bound_to 10752
  152.9823  135.6043  154.3490 H   0  0  0  0  0  0  0  0  0  0  0  0  # atno 10764 bound_to 10752
  154.3362  135.2842  155.2425 H   0  0  0  0  0  0  0  0  0  0  0  0  # atno 10765 bound_to 10752
  140.8100  134.2755  157.4944 H   0  0  0  0  0  0  0  0  0  0  0  0  # atno 11005 bound_to 11000
  145.1554  140.9645  143.4408 LP  0  0  0  0  0  0  0  0  0  0  0  0  # atno 17320 bound_to 7965
  145.0166  139.3461  143.6093 LP  0  0  0  0  0  0  0  0  0  0  0  0  # atno 17321 bound_to 7965
  139.8239  144.7283  150.9536 LP  0  0  0  0  0  0  0  0  0  0  0  0  # atno 17342 bound_to 10162
  140.7815  143.4132  151.0958 LP  0  0  0  0  0  0  0  0  0  0  0  0  # atno 17343 bound_to 10162
  157.3054  131.0653  151.2038 LP  0  0  0  0  0  0  0  0  0  0  0  0  # atno 17370 bound_to 10713
  157.3003  130.6839  149.6160 LP  0  0  0  0  0  0  0  0  0  0  0  0  # atno 17371 bound_to 10713
  139.8715  134.9478  156.3977 LP  0  0  0  0  0  0  0  0  0  0  0  0  # atno 17394 bound_to 11000
  140.9207  133.7647  155.9903 LP  0  0  0  0  0  0  0  0  0  0  0  0  # atno 17395 bound_to 11000

$$$$
