AV-unprocessed.smi:248|AV-procd|sdf|1897|dock3
  -GOLD-   2262020563D 1   1.00000     0.00000
 Structure written by MMmdl.
 62 65  0  0  0  0  0  0  0  0  1 V2000
  151.6337  143.8945  157.6776 C   0  0  0  0  0  0  0  0  0  0  0  0
  150.9763  142.5135  157.5343 C   0  0  0  0  0  0  0  0  0  0  0  0
  151.2331  141.6661  158.7927 C   0  0  0  0  0  0  0  0  0  0  0  0
  151.4341  141.8318  156.2232 C   0  0  0  0  0  0  0  0  0  0  0  0
  150.8178  140.5125  156.0073 N   0  0  0  0  0  0  0  0  0  0  0  0
  149.4708  140.5537  155.4208 C   0  0  0  0  0  0  0  0  0  0  0  0
  149.0845  139.2467  154.7221 C   0  0  0  0  0  0  0  0  0  0  0  0
  149.3673  138.1244  155.6050 N   0  0  0  0  0  0  0  0  0  0  0  0
  148.7965  136.9692  155.1912 C   0  0  0  0  0  0  0  0  0  0  0  0
  149.4978  135.8063  155.2485 N   0  0  0  0  0  0  0  0  0  0  0  0
  148.9285  134.6649  154.8499 C   0  0  0  0  0  0  0  0  0  0  0  0
  147.6953  134.4668  154.3782 N   0  0  0  0  0  0  0  0  0  0  0  0
  146.9896  135.6336  154.3269 C   0  0  0  0  0  0  0  0  0  0  0  0
  147.4650  136.9202  154.7024 C   0  0  0  0  0  0  0  0  0  0  0  0
  146.4762  137.8737  154.5008 N   0  0  0  0  0  0  0  0  0  0  0  0
  145.4684  137.1871  154.0356 C   0  0  0  0  0  0  0  0  0  0  0  0
  145.6801  135.8302  153.9218 N   0  0  0  0  0  0  0  0  0  0  0  0
  144.7363  134.8333  153.4329 C   0  0  0  0  0  0  0  0  0  0  0  0
  144.9249  134.3601  151.9555 C   0  0  0  0  0  0  0  0  0  0  0  0
  145.0596  135.6857  151.1470 C   0  0  0  0  0  0  0  0  0  0  0  0
  144.7556  135.6050  149.7721 O   0  0  0  0  0  0  0  0  0  0  0  0
  146.1896  133.4664  151.8265 C   0  0  0  0  0  0  0  0  0  0  0  0
  146.2737  132.6861  150.5014 C   0  0  0  0  0  0  0  0  0  0  0  0
  145.0891  131.9237  150.3110 O   0  0  0  0  0  0  0  0  0  0  0  0
  143.9253  132.7319  150.1975 C   0  0  0  0  0  0  0  0  0  0  0  0
  143.6987  133.5205  151.5016 C   0  0  0  0  0  0  0  0  0  0  0  0
  150.7626  137.9982  156.0492 C   0  0  2  0  0  0  0  0  0  0  0  0
  150.8619  137.0771  157.2869 C   0  0  0  0  0  0  0  0  0  0  0  0
  151.4588  139.3556  156.3147 C   0  0  0  0  0  0  0  0  0  0  0  0
  152.5977  139.3425  156.7846 O   0  0  0  0  0  0  0  0  0  0  0  0
  152.7176  143.8096  157.7633 H   0  0  0  0  0  0  0  0  0  0  0  0
  151.2694  144.4144  158.5640 H   0  0  0  0  0  0  0  0  0  0  0  0
  151.4166  144.5261  156.8156 H   0  0  0  0  0  0  0  0  0  0  0  0
  149.9001  142.6775  157.4667 H   0  0  0  0  0  0  0  0  0  0  0  0
  152.2892  141.4121  158.8893 H   0  0  0  0  0  0  0  0  0  0  0  0
  150.6640  140.7368  158.7752 H   0  0  0  0  0  0  0  0  0  0  0  0
  150.9371  142.2033  159.6942 H   0  0  0  0  0  0  0  0  0  0  0  0
  151.1957  142.4796  155.3787 H   0  0  0  0  0  0  0  0  0  0  0  0
  152.5229  141.7597  156.2100 H   0  0  0  0  0  0  0  0  0  0  0  0
  148.7633  140.7545  156.2263 H   0  0  0  0  0  0  0  0  0  0  0  0
  149.3759  141.3768  154.7118 H   0  0  0  0  0  0  0  0  0  0  0  0
  148.0277  139.2700  154.4505 H   0  0  0  0  0  0  0  0  0  0  0  0
  149.6529  139.1415  153.7959 H   0  0  0  0  0  0  0  0  0  0  0  0
  149.5491  133.7838  154.9220 H   0  0  0  0  0  0  0  0  0  0  0  0
  144.5316  137.6550  153.7694 H   0  0  0  0  0  0  0  0  0  0  0  0
  144.7911  133.9762  154.1056 H   0  0  0  0  0  0  0  0  0  0  0  0
  143.7344  135.2446  153.5644 H   0  0  0  0  0  0  0  0  0  0  0  0
  144.4102  136.4507  151.5738 H   0  0  0  0  0  0  0  0  0  0  0  0
  146.0772  136.0700  151.2276 H   0  0  0  0  0  0  0  0  0  0  0  0
  145.4972  135.2307  149.3213 H   0  0  0  0  0  0  0  0  0  0  0  0
  147.0928  134.0591  151.9739 H   0  0  0  0  0  0  0  0  0  0  0  0
  146.1932  132.7119  152.6109 H   0  0  0  0  0  0  0  0  0  0  0  0
  146.4510  133.3372  149.6467 H   0  0  0  0  0  0  0  0  0  0  0  0
  147.1195  131.9990  150.5374 H   0  0  0  0  0  0  0  0  0  0  0  0
  143.9962  133.3817  149.3267 H   0  0  0  0  0  0  0  0  0  0  0  0
  143.0725  132.0779  150.0158 H   0  0  0  0  0  0  0  0  0  0  0  0
  143.4577  132.7775  152.2593 H   0  0  0  0  0  0  0  0  0  0  0  0
  142.8157  134.1536  151.4099 H   0  0  0  0  0  0  0  0  0  0  0  0
  151.3298  137.5341  155.2406 H   0  0  0  0  0  0  0  0  0  0  0  0
  151.8890  136.9824  157.6405 H   0  0  0  0  0  0  0  0  0  0  0  0
  150.5195  136.0654  157.0688 H   0  0  0  0  0  0  0  0  0  0  0  0
  150.2616  137.4608  158.1129 H   0  0  0  0  0  0  0  0  0  0  0  0
  1  2  1  0  0  0  0
  1 31  1  0  0  0  0
  1 32  1  0  0  0  0
  1 33  1  0  0  0  0
  2  3  1  0  0  0  0
  2  4  1  0  0  0  0
  2 34  1  0  0  0  0
  3 35  1  0  0  0  0
  3 36  1  0  0  0  0
  3 37  1  0  0  0  0
  4  5  1  0  0  0  0
  4 38  1  0  0  0  0
  4 39  1  0  0  0  0
  5 29  1  0  0  0  0
  5  6  1  0  0  0  0
  6  7  1  0  0  0  0
  6 40  1  0  0  0  0
  6 41  1  0  0  0  0
  7  8  1  0  0  0  0
  7 42  1  0  0  0  0
  7 43  1  0  0  0  0
  8  9  1  0  0  0  0
  8 27  1  0  0  0  0
  9 14  1  0  0  0  0
  9 10  2  0  0  0  0
 10 11  1  0  0  0  0
 11 12  2  0  0  0  0
 11 44  1  0  0  0  0
 12 13  1  0  0  0  0
 13 17  1  0  0  0  0
 13 14  2  0  0  0  0
 14 15  1  0  0  0  0
 15 16  2  0  0  0  0
 16 17  1  0  0  0  0
 16 45  1  0  0  0  0
 17 18  1  0  0  0  0
 18 19  1  0  0  0  0
 18 46  1  0  0  0  0
 18 47  1  0  0  0  0
 19 26  1  0  0  0  0
 19 20  1  0  0  0  0
 19 22  1  0  0  0  0
 20 21  1  0  0  0  0
 20 48  1  0  0  0  0
 20 49  1  0  0  0  0
 21 50  1  0  0  0  0
 22 23  1  0  0  0  0
 22 51  1  0  0  0  0
 22 52  1  0  0  0  0
 23 24  1  0  0  0  0
 23 53  1  0  0  0  0
 23 54  1  0  0  0  0
 24 25  1  0  0  0  0
 25 26  1  0  0  0  0
 25 55  1  0  0  0  0
 25 56  1  0  0  0  0
 26 57  1  0  0  0  0
 26 58  1  0  0  0  0
 27 28  1  0  0  0  0
 27 29  1  0  0  0  0
 27 59  1  0  0  0  0
 28 60  1  0  0  0  0
 28 61  1  0  0  0  0
 28 62  1  0  0  0  0
 29 30  2  0  0  0  0
M  END
> <s_m_source_file>
AV-unprocessed.smi

> <i_m_source_file_index>
248

> <i_lp_mmshare_version>
43012

> <i_f3d_flags>
0

> <s_epik_input>
W0NIM11bQ0hdKFtDSDNdKVtDSDJdTjFbQ0gyXVtDSDJdTihbQ0BASF0oW0NIM10pQzE9TyljKG5bY0hdbjIpYyhjMjMpbltjSF1uM1tDSDJdQzQoW0NIMl1bT0hdKVtDSDJdW0NIMl1PW0NIMl1bQ0gyXTQ=

> <s_epik_cmdline>
J2VwaWtfcHl0aG9uJywgJy1waCcsICc3LjAnLCAnLXRuJywgJzgnLCAnLW1hJywgJzIwMCcsICctbWV0YWxfYmluZGluZycsICctaW1hZScsICc8aW5maWxlLm1hZT4nLCAnLW9tYWUnLCAnPG91dGZpbGUubWFlPic=

> <r_lp_tautomer_probability>
1

> <r_epik_Ionization_Penalty>
0.000593973

> <r_epik_Ionization_Penalty_Charging>
0

> <r_epik_Ionization_Penalty_Neutral>
0.000593973

> <r_epik_State_Penalty>
0.000283267

> <r_epik_Charging_Adjusted_Penalty>
0.000283267

> <i_epik_Tot_Q>
0

> <i_epik_Tot_abs_Q>
0

> <r_epik_Metal_State_Penalty>
-0

> <b_epik_Metal_Only>
0

> <s_lp_Force_Field>
OPLS_2005

> <r_lp_Energy>
47.3368

> <b_lp_Chiralities_Consistent>
1

> <s_lp_Variant>
AV-unprocessed.smi:248-2

> <Gold.Version>
5.8.1

> <Gold.Id.Protein>
6NUR|6NUR_protein|mol2

> <Gold.PLP.Fitness>
43.5235

> <Gold.PLP.PLP>
-39.6318

> <Gold.PLP.part.hbond>
-3.0000

> <Gold.PLP.part.metal>
0.0000

> <Gold.PLP.part.buried>
-7.1012

> <Gold.PLP.part.nonpolar>
-30.1533

> <Gold.PLP.part.repulsive>
0.5224

> <Gold.PLP.ligand.clash>
0.0000

> <Gold.PLP.ligand.torsion>
1.2453

> <Gold.PLP.Chemscore.Hbond>
2.0000

> <Gold.PLP.Chemscore.CHOScore>
0.0000

> <Gold.PLP.Chemscore.Metal>
0.0000

> <Gold.Chemscore.Hbonds>
donor molecule, donor type, donor heavy atom, donor atom, acceptor molecule, acceptor atom, score
      L1  H    21    50       P1  7921  0.85
      P1  H  7997  8009       L1    30  1.00

> <Gold.PLP.Chemscore.Internal.Correction>
0.3823

> <Gold.Rescore>
     Score         DG    S(hbond)    S(metal)    S(lipo)     H(rot)  DE(clash)    DE(int)     intcor
     10.90     -16.33       1.96        0.00      97.10       2.75       0.43       5.00       ----

> <Gold.Chemscore.Fitness>
10.8979

> <Gold.Chemscore.DG>
-16.3283

> <Gold.Chemscore.ZeroCoef>
-5.4800

> <Gold.Chemscore.Hbond>
1.9562

> <Gold.Chemscore.Metal>
0.0000

> <Gold.Chemscore.Lipo>
97.0972

> <Gold.Chemscore.Internal_Hbond>
0.0000

> <Gold.Chemscore.DEClash>
0.4319

> <Gold.Chemscore.DEInternal>
4.9985

> <Gold.Chemscore.Rot>
2.7523

> <Gold.Chemscore.Internal.Correction>
   9.000000E+99

> <Gold.Chemscore.Hbonds>
donor molecule, donor type, donor heavy atom, donor atom, acceptor molecule, acceptor atom, score
      L1  H    21    50       P1  7921  0.85
      P1  H  7997  8009       L1    30  0.99

> <Gold.Chemscore.Hbond.Weighted>
-6.5338

> <Gold.Chemscore.Metal.Weighted>
-0.0000

> <Gold.Chemscore.Lipo.Weighted>
-11.3604

> <Gold.Chemscore.Internal_Hbond.Weighted>
0.0000

> <Gold.Chemscore.DEClash.Weighted>
0.4319

> <Gold.Chemscore.DEInternal.Weighted>
4.9985

> <Gold.Chemscore.Rot.Weighted>
7.0459

> <Gold.Chemscore.Internal.Correction.Weighted>
   9.000000E+99

> <Gold.Protein.RotatedTorsions>
[ 6907 6896 6895 6894 ] final  176.67 input  -60.11 | X-H torsion
[ 7974 7965 7964 7962 ] final   20.36 input  175.53 | X-H torsion
[ 8008 7997 7996 7995 ] final  178.23 input   59.86 | X-H torsion
[ 10167 10162 10161 10158 ] final  175.80 input  -65.29 | X-H torsion
[ 10718 10713 10712 10709 ] final  -86.12 input   66.30 | X-H torsion
[ 10763 10752 10751 10750 ] final   44.44 input  -60.55 | X-H torsion
[ 11005 11000 10999 10996 ] final -141.94 input  -57.11 | X-H torsion

> <Gold.Protein.ActiveResidues>
 VAL166  LYS551  ARG553  GLY616  TRP617  ASP618  TYR619  PRO620  LYS621  CYS622 
 ASP623  PHE694  ASN695  SER759  ASP760  ASP761  ALA762  ILE779  LEU786  VAL792 
 PHE793  MET794  SER795  GLU796  ALA797  LYS798  CYS799  TRP800  GLU811  SER814 

> <Gold.Protein.RotatedAtoms>
  151.7164  133.3313  159.3303 H   0  0  0  0  0  0  0  0  0  0  0  0  # atno 6907 bound_to 6896
  150.7672  134.6487  159.6286 H   0  0  0  0  0  0  0  0  0  0  0  0  # atno 6908 bound_to 6896
  152.3680  134.6779  160.0237 H   0  0  0  0  0  0  0  0  0  0  0  0  # atno 6909 bound_to 6896
  146.2114  139.8180  142.8686 H   0  0  0  0  0  0  0  0  0  0  0  0  # atno 7974 bound_to 7965
  156.0570  140.1339  156.9985 H   0  0  0  0  0  0  0  0  0  0  0  0  # atno 8008 bound_to 7997
  154.4462  140.0999  156.6531 H   0  0  0  0  0  0  0  0  0  0  0  0  # atno 8009 bound_to 7997
  155.5436  140.3461  155.4454 H   0  0  0  0  0  0  0  0  0  0  0  0  # atno 8010 bound_to 7997
  139.5191  144.2989  152.0397 H   0  0  0  0  0  0  0  0  0  0  0  0  # atno 10167 bound_to 10162
  155.9992  130.4754  150.4666 H   0  0  0  0  0  0  0  0  0  0  0  0  # atno 10718 bound_to 10713
  152.9841  135.6070  154.3275 H   0  0  0  0  0  0  0  0  0  0  0  0  # atno 10763 bound_to 10752
  154.2981  135.2773  155.2626 H   0  0  0  0  0  0  0  0  0  0  0  0  # atno 10764 bound_to 10752
  154.4891  135.5897  153.6502 H   0  0  0  0  0  0  0  0  0  0  0  0  # atno 10765 bound_to 10752
  140.8275  134.2557  157.4872 H   0  0  0  0  0  0  0  0  0  0  0  0  # atno 11005 bound_to 11000
  145.3126  141.0223  143.3546 LP  0  0  0  0  0  0  0  0  0  0  0  0  # atno 17320 bound_to 7965
  144.8925  139.4756  143.6671 LP  0  0  0  0  0  0  0  0  0  0  0  0  # atno 17321 bound_to 7965
  140.2437  144.4242  150.6249 LP  0  0  0  0  0  0  0  0  0  0  0  0  # atno 17342 bound_to 10162
  140.6273  143.2183  151.6570 LP  0  0  0  0  0  0  0  0  0  0  0  0  # atno 17343 bound_to 10162
  157.2685  131.0582  151.2275 LP  0  0  0  0  0  0  0  0  0  0  0  0  # atno 17370 bound_to 10713
  157.3364  130.7011  149.6355 LP  0  0  0  0  0  0  0  0  0  0  0  0  # atno 17371 bound_to 10713
  139.8706  134.9568  156.4249 LP  0  0  0  0  0  0  0  0  0  0  0  0  # atno 17394 bound_to 11000
  140.9034  133.7763  155.9706 LP  0  0  0  0  0  0  0  0  0  0  0  0  # atno 17395 bound_to 11000

$$$$
