AV-unprocessed.smi:2079|AV-procd|sdf|8483|dock5
  -GOLD-   2272011183D 1   1.00000     0.00000
 Structure written by MMmdl.
 41 42  0  0  0  0  0  0  0  0  3 V2000
  146.2055  142.1834  154.4580 C   0  0  0  0  0  0  0  0  0  0  0  0
  147.6369  141.8470  154.7032 C   0  0  0  0  0  0  0  0  0  0  0  0
  148.3395  141.5580  155.8388 C   0  0  0  0  0  0  0  0  0  0  0  0
  149.6551  141.3313  155.3538 C   0  0  0  0  0  0  0  0  0  0  0  0
  150.7085  141.0002  156.2461 N   0  0  0  0  0  0  0  0  0  0  0  0
  151.8690  140.3734  155.9821 C   0  0  0  0  0  0  0  0  0  0  0  0
  152.1158  139.9669  154.8404 O   0  0  0  0  0  0  0  0  0  0  0  0
  152.6688  140.2826  157.0805 N   0  5  0  0  0  0  0  0  0  0  0  0
  152.2026  140.0185  158.4442 C   0  0  0  0  0  0  0  0  0  0  0  0
  152.8764  140.9743  159.4544 C   0  0  0  0  0  0  0  0  0  0  0  0
  152.0439  142.1819  159.7382 N   0  3  2  0  0  0  0  0  0  0  0  0
  151.6773  142.8930  158.4785 C   0  0  0  0  0  0  0  0  0  0  0  0
  150.6974  144.0450  158.7271 C   0  0  0  0  0  0  0  0  0  0  0  0
  151.3017  145.0413  159.7152 C   0  0  0  0  0  0  0  0  0  0  0  0
  151.6546  144.3096  161.0120 C   0  0  0  0  0  0  0  0  0  0  0  0
  152.5990  143.1070  160.7809 C   0  0  1  0  0  0  0  0  0  0  0  0
  152.8219  142.4182  162.1458 C   0  0  0  0  0  0  0  0  0  0  0  0
  149.7478  141.4750  154.0400 N   0  0  0  0  0  0  0  0  0  0  0  0
  148.4548  141.8038  153.6163 O   0  0  0  0  0  0  0  0  0  0  0  0
  145.8960  143.0256  155.0767 H   0  0  0  0  0  0  0  0  0  0  0  0
  145.5644  141.3347  154.6964 H   0  0  0  0  0  0  0  0  0  0  0  0
  146.0366  142.4514  153.4148 H   0  0  0  0  0  0  0  0  0  0  0  0
  147.9697  141.5133  156.8522 H   0  0  0  0  0  0  0  0  0  0  0  0
  150.5704  141.2804  157.2058 H   0  0  0  0  0  0  0  0  0  0  0  0
  151.1236  140.1550  158.5127 H   0  0  0  0  0  0  0  0  0  0  0  0
  152.3795  138.9875  158.7530 H   0  0  0  0  0  0  0  0  0  0  0  0
  153.1258  140.4203  160.3565 H   0  0  0  0  0  0  0  0  0  0  0  0
  153.8452  141.2829  159.0589 H   0  0  0  0  0  0  0  0  0  0  0  0
  152.5815  143.2752  158.0017 H   0  0  0  0  0  0  0  0  0  0  0  0
  151.2248  142.1922  157.7759 H   0  0  0  0  0  0  0  0  0  0  0  0
  150.4637  144.5459  157.7872 H   0  0  0  0  0  0  0  0  0  0  0  0
  149.7559  143.6544  159.1163 H   0  0  0  0  0  0  0  0  0  0  0  0
  152.1948  145.4996  159.2886 H   0  0  0  0  0  0  0  0  0  0  0  0
  150.5970  145.8487  159.9166 H   0  0  0  0  0  0  0  0  0  0  0  0
  152.1104  145.0137  161.7093 H   0  0  0  0  0  0  0  0  0  0  0  0
  150.7339  143.9646  161.4854 H   0  0  0  0  0  0  0  0  0  0  0  0
  153.5575  143.4817  160.4180 H   0  0  0  0  0  0  0  0  0  0  0  0
  153.1508  143.1416  162.8923 H   0  0  0  0  0  0  0  0  0  0  0  0
  153.5835  141.6413  162.1221 H   0  0  0  0  0  0  0  0  0  0  0  0
  151.9004  141.9696  162.5176 H   0  0  0  0  0  0  0  0  0  0  0  0
  151.1826  141.8216  160.1265 H   0  0  0  0  0  0  0  0  0  0  0  0
  1  2  1  0  0  0  0
  1 20  1  0  0  0  0
  1 21  1  0  0  0  0
  1 22  1  0  0  0  0
  2 19  1  0  0  0  0
  2  3  2  0  0  0  0
  3  4  1  0  0  0  0
  3 23  1  0  0  0  0
  4  5  1  0  0  0  0
  4 18  2  0  0  0  0
  5  6  1  0  0  0  0
  5 24  1  0  0  0  0
  6  7  2  0  0  0  0
  6  8  1  0  0  0  0
  8  9  1  0  0  0  0
  9 10  1  0  0  0  0
  9 25  1  0  0  0  0
  9 26  1  0  0  0  0
 10 11  1  0  0  0  0
 10 27  1  0  0  0  0
 10 28  1  0  0  0  0
 11 16  1  0  0  0  0
 11 12  1  0  0  0  0
 11 41  1  0  0  0  0
 12 13  1  0  0  0  0
 12 29  1  0  0  0  0
 12 30  1  0  0  0  0
 13 14  1  0  0  0  0
 13 31  1  0  0  0  0
 13 32  1  0  0  0  0
 14 15  1  0  0  0  0
 14 33  1  0  0  0  0
 14 34  1  0  0  0  0
 15 16  1  0  0  0  0
 15 35  1  0  0  0  0
 15 36  1  0  0  0  0
 16 17  1  0  0  0  0
 16 37  1  0  0  0  0
 17 38  1  0  0  0  0
 17 39  1  0  0  0  0
 17 40  1  0  0  0  0
 18 19  1  0  0  0  0
M  CHG  1   8  -1
M  CHG  1  11   1
M  END
> <s_m_source_file>
AV-unprocessed.smi

> <i_m_source_file_index>
2079

> <i_lp_mmshare_version>
43012

> <i_f3d_flags>
0

> <s_epik_input>
W0NIM11jMVtjSF1jKG5vMSlbTkhdQyg9TylbTkhdW0NIMl1bQ0gyXU4yW0NIMl1bQ0gyXVtDSDJdW0NIMl1bQ0BIXTJbQ0gzXQ==

> <s_epik_cmdline>
J2VwaWtfcHl0aG9uJywgJy1waCcsICc3LjAnLCAnLXRuJywgJzgnLCAnLW1hJywgJzIwMCcsICctbWV0YWxfYmluZGluZycsICctaW1hZScsICc8aW5maWxlLm1hZT4nLCAnLW9tYWUnLCAnPG91dGZpbGUubWFlPic=

> <r_epik_Ionization_Penalty>
6.7666

> <r_epik_Ionization_Penalty_Charging>
6.7666

> <r_epik_Ionization_Penalty_Neutral>
5.77131e-06

> <r_epik_State_Penalty>
6.79217

> <r_epik_Charging_Adjusted_Penalty>
13.5588

> <i_epik_Tot_Q>
0

> <i_epik_Tot_abs_Q>
2

> <r_epik_Metal_State_Penalty>
2.72569

> <b_epik_Metal_Only>
1

> <s_lp_Force_Field>
OPLS_2005

> <r_lp_Energy>
12.5834

> <b_lp_Chiralities_Consistent>
1

> <s_lp_Variant>
AV-unprocessed.smi:2079-9

> <Gold.Version>
5.8.1

> <Gold.Id.Protein>
6NUR|6NUR_protein|mol2

> <Gold.PLP.Fitness>
50.8944

> <Gold.PLP.PLP>
-43.2952

> <Gold.PLP.part.hbond>
-5.0000

> <Gold.PLP.part.metal>
0.0000

> <Gold.PLP.part.buried>
-5.1493

> <Gold.PLP.part.nonpolar>
-34.2399

> <Gold.PLP.part.repulsive>
0.5720

> <Gold.PLP.ligand.clash>
0.0000

> <Gold.PLP.ligand.torsion>
0.7299

> <Gold.PLP.Chemscore.Hbond>
2.9760

> <Gold.PLP.Chemscore.CHOScore>
0.0000

> <Gold.PLP.Chemscore.Metal>
0.0000

> <Gold.Chemscore.Hbonds>
donor molecule, donor type, donor heavy atom, donor atom, acceptor molecule, acceptor atom, score
      P1  H  7989  7998       L1     7  0.78
      P1  H  7997  8008       L1     8  1.76

> <Gold.PLP.Chemscore.Internal.Correction>
0.1310

> <Gold.Rescore>
     Score         DG    S(hbond)    S(metal)    S(lipo)     H(rot)  DE(clash)    DE(int)     intcor
     15.72     -17.89       1.60        0.00      94.08       1.54       0.08       2.10       ----

> <Gold.Chemscore.Fitness>
15.7155

> <Gold.Chemscore.DG>
-17.8917

> <Gold.Chemscore.ZeroCoef>
-5.4800

> <Gold.Chemscore.Hbond>
1.6016

> <Gold.Chemscore.Metal>
0.0000

> <Gold.Chemscore.Lipo>
94.0777

> <Gold.Chemscore.Internal_Hbond>
0.0000

> <Gold.Chemscore.DEClash>
0.0768

> <Gold.Chemscore.DEInternal>
2.0993

> <Gold.Chemscore.Rot>
1.5409

> <Gold.Chemscore.Internal.Correction>
   9.000000E+99

> <Gold.Chemscore.Hbonds>
donor molecule, donor type, donor heavy atom, donor atom, acceptor molecule, acceptor atom, score
      P1  H  7989  7998       L1     7  0.76
      P1  H  7997  8008       L1     8  0.77

> <Gold.Chemscore.Hbond.Weighted>
-5.3492

> <Gold.Chemscore.Metal.Weighted>
-0.0000

> <Gold.Chemscore.Lipo.Weighted>
-11.0071

> <Gold.Chemscore.Internal_Hbond.Weighted>
0.0000

> <Gold.Chemscore.DEClash.Weighted>
0.0768

> <Gold.Chemscore.DEInternal.Weighted>
2.0993

> <Gold.Chemscore.Rot.Weighted>
3.9446

> <Gold.Chemscore.Internal.Correction.Weighted>
   9.000000E+99

> <Gold.Protein.RotatedTorsions>
[ 6907 6896 6895 6894 ] final  148.61 input  -60.11 | X-H torsion
[ 7974 7965 7964 7962 ] final   85.66 input  175.53 | X-H torsion
[ 8008 7997 7996 7995 ] final  -71.90 input   59.86 | X-H torsion
[ 10167 10162 10161 10158 ] final -136.68 input  -65.29 | X-H torsion
[ 10718 10713 10712 10709 ] final -105.36 input   66.30 | X-H torsion
[ 10763 10752 10751 10750 ] final   56.04 input  -60.55 | X-H torsion
[ 11005 11000 10999 10996 ] final  158.24 input  -57.11 | X-H torsion

> <Gold.Protein.ActiveResidues>
 VAL166  LYS551  ARG553  GLY616  TRP617  ASP618  TYR619  PRO620  LYS621  CYS622 
 ASP623  PHE694  ASN695  SER759  ASP760  ASP761  ALA762  ILE779  LEU786  VAL792 
 PHE793  MET794  SER795  GLU796  ALA797  LYS798  CYS799  TRP800  GLU811  SER814 

> <Gold.Protein.RotatedAtoms>
  152.1392  133.4453  159.4758 H   0  0  0  0  0  0  0  0  0  0  0  0  # atno 6907 bound_to 6896
  150.6884  134.2326  159.4450 H   0  0  0  0  0  0  0  0  0  0  0  0  # atno 6908 bound_to 6896
  152.0216  134.9819  160.0621 H   0  0  0  0  0  0  0  0  0  0  0  0  # atno 6909 bound_to 6896
  145.5825  139.2327  143.2345 H   0  0  0  0  0  0  0  0  0  0  0  0  # atno 7974 bound_to 7965
  154.5124  140.0807  156.8016 H   0  0  0  0  0  0  0  0  0  0  0  0  # atno 8008 bound_to 7997
  155.3755  140.3425  155.4226 H   0  0  0  0  0  0  0  0  0  0  0  0  # atno 8009 bound_to 7997
  156.1589  140.1582  156.8634 H   0  0  0  0  0  0  0  0  0  0  0  0  # atno 8010 bound_to 7997
  139.8653  143.7025  152.2646 H   0  0  0  0  0  0  0  0  0  0  0  0  # atno 10167 bound_to 10162
  156.0343  130.5560  150.7528 H   0  0  0  0  0  0  0  0  0  0  0  0  # atno 10718 bound_to 10713
  152.9825  135.5690  154.5164 H   0  0  0  0  0  0  0  0  0  0  0  0  # atno 10763 bound_to 10752
  154.4659  135.2783  155.1680 H   0  0  0  0  0  0  0  0  0  0  0  0  # atno 10764 bound_to 10752
  154.3249  135.6261  153.5578 H   0  0  0  0  0  0  0  0  0  0  0  0  # atno 10765 bound_to 10752
  140.1846  134.8451  157.2843 H   0  0  0  0  0  0  0  0  0  0  0  0  # atno 11005 bound_to 11000
  146.1706  140.6652  142.9235 LP  0  0  0  0  0  0  0  0  0  0  0  0  # atno 17320 bound_to 7965
  144.7387  140.4882  143.6885 LP  0  0  0  0  0  0  0  0  0  0  0  0  # atno 17321 bound_to 7965
  139.7335  144.7577  151.0765 LP  0  0  0  0  0  0  0  0  0  0  0  0  # atno 17342 bound_to 10162
  140.7769  143.5059  150.9713 LP  0  0  0  0  0  0  0  0  0  0  0  0  # atno 17343 bound_to 10162
  157.5068  131.0922  151.0247 LP  0  0  0  0  0  0  0  0  0  0  0  0  # atno 17370 bound_to 10713
  157.0614  130.5827  149.5386 LP  0  0  0  0  0  0  0  0  0  0  0  0  # atno 17371 bound_to 10713
  140.2228  134.4003  155.7558 LP  0  0  0  0  0  0  0  0  0  0  0  0  # atno 17394 bound_to 11000
  141.2224  133.7174  156.8517 LP  0  0  0  0  0  0  0  0  0  0  0  0  # atno 17395 bound_to 11000

$$$$
