AV-unprocessed.smi:34|AV-procd|sdf|238|dock8
  -GOLD-   2262015583D 1   1.00000     0.00000
 Structure written by MMmdl.
 54 58  0  0  0  0  0  0  0  0  2 V2000
  151.6509  139.5217  158.8272 O   0  0  0  0  0  0  0  0  0  0  0  0
  151.9918  140.4075  158.0402 C   0  0  0  0  0  0  0  0  0  0  0  0
  152.3561  140.2719  156.7401 N   0  5  0  0  0  0  0  0  0  0  0  0
  151.6815  139.4346  155.9378 C   0  0  0  0  0  0  0  0  0  0  0  0
  150.9479  139.9185  154.9036 N   0  0  0  0  0  0  0  0  0  0  0  0
  150.2657  139.0843  154.1111 C   0  0  0  0  0  0  0  0  0  0  0  0
  150.1736  137.7528  154.1749 N   0  0  0  0  0  0  0  0  0  0  0  0
  150.9013  137.2513  155.2150 C   0  0  0  0  0  0  0  0  0  0  0  0
  151.6721  138.0258  156.1313 C   0  0  0  0  0  0  0  0  0  0  0  0
  152.2887  137.2113  157.0690 N   0  0  0  0  0  0  0  0  0  0  0  0
  151.8769  136.0050  156.6878 C   0  0  0  0  0  0  0  0  0  0  0  0
  151.0656  135.9323  155.6137 N   0  0  0  0  0  0  0  0  0  0  0  0
  150.4840  134.6856  155.0168 C   0  0  1  0  0  0  0  0  0  0  0  0
  150.8435  133.5818  155.7963 O   0  0  0  0  0  0  0  0  0  0  0  0
  149.6784  132.9647  156.3357 C   0  0  2  0  0  0  0  0  0  0  0  0
  149.9141  131.4668  156.5648 C   0  0  0  0  0  0  0  0  0  0  0  0
  151.2920  131.1740  156.3966 O   0  0  0  0  0  0  0  0  0  0  0  0
  151.6926  130.3689  155.3931 C   0  0  0  0  0  0  0  0  0  0  0  0
  150.9154  129.7750  154.6429 O   0  0  0  0  0  0  0  0  0  0  0  0
  153.1767  130.2655  155.2893 C   0  0  0  0  0  0  0  0  0  0  0  0
  153.9863  130.9690  156.2116 C   0  0  0  0  0  0  0  0  0  0  0  0
  155.3908  130.8932  156.1374 C   0  0  0  0  0  0  0  0  0  0  0  0
  156.0032  130.1108  155.1410 C   0  0  0  0  0  0  0  0  0  0  0  0
  155.2092  129.4049  154.2184 C   0  0  0  0  0  0  0  0  0  0  0  0
  153.8043  129.4809  154.2900 C   0  0  0  0  0  0  0  0  0  0  0  0
  148.5740  133.3055  155.3341 C   0  0  2  0  0  0  0  0  0  0  0  0
  148.6304  132.4971  154.2734 F   0  0  0  0  0  0  0  0  0  0  0  0
  148.9443  134.7153  154.9106 C   0  0  1  0  0  0  0  0  0  0  0  0
  148.3114  135.6759  155.7371 O   0  0  0  0  0  0  0  0  0  0  0  0
  152.0944  141.8236  158.5411 C   0  0  0  0  0  0  0  0  0  0  0  0
  152.6494  142.0776  159.8163 C   0  0  0  0  0  0  0  0  0  0  0  0
  152.7307  143.3931  160.3132 C   0  0  0  0  0  0  0  0  0  0  0  0
  152.2493  144.4689  159.5437 C   0  0  0  0  0  0  0  0  0  0  0  0
  151.6819  144.2274  158.2787 C   0  0  0  0  0  0  0  0  0  0  0  0
  151.6003  142.9121  157.7811 C   0  0  0  0  0  0  0  0  0  0  0  0
  149.7126  139.5517  153.3100 H   0  0  0  0  0  0  0  0  0  0  0  0
  152.1852  135.1188  157.2228 H   0  0  0  0  0  0  0  0  0  0  0  0
  150.9694  134.5949  154.0443 H   0  0  0  0  0  0  0  0  0  0  0  0
  149.4504  133.4414  157.2890 H   0  0  0  0  0  0  0  0  0  0  0  0
  149.5764  131.1778  157.5610 H   0  0  0  0  0  0  0  0  0  0  0  0
  149.3375  130.8854  155.8443 H   0  0  0  0  0  0  0  0  0  0  0  0
  153.5386  131.5775  156.9844 H   0  0  0  0  0  0  0  0  0  0  0  0
  155.9981  131.4365  156.8464 H   0  0  0  0  0  0  0  0  0  0  0  0
  157.0803  130.0521  155.0845 H   0  0  0  0  0  0  0  0  0  0  0  0
  155.6780  128.8032  153.4536 H   0  0  0  0  0  0  0  0  0  0  0  0
  153.2245  128.9255  153.5673 H   0  0  0  0  0  0  0  0  0  0  0  0
  147.5702  133.2198  155.7522 H   0  0  0  0  0  0  0  0  0  0  0  0
  148.6552  134.9179  153.8787 H   0  0  0  0  0  0  0  0  0  0  0  0
  147.5813  135.2634  156.1734 H   0  0  0  0  0  0  0  0  0  0  0  0
  153.0222  141.2627  160.4204 H   0  0  0  0  0  0  0  0  0  0  0  0
  153.1616  143.5762  161.2865 H   0  0  0  0  0  0  0  0  0  0  0  0
  152.3113  145.4773  159.9249 H   0  0  0  0  0  0  0  0  0  0  0  0
  151.3061  145.0507  157.6896 H   0  0  0  0  0  0  0  0  0  0  0  0
  151.1510  142.7478  156.8122 H   0  0  0  0  0  0  0  0  0  0  0  0
  1  2  2  0  0  0  0
  2  3  1  0  0  0  0
  2 30  1  0  0  0  0
  3  4  1  0  0  0  0
  4  9  1  0  0  0  0
  4  5  2  0  0  0  0
  5  6  1  0  0  0  0
  6  7  2  0  0  0  0
  6 36  1  0  0  0  0
  7  8  1  0  0  0  0
  8 12  1  0  0  0  0
  8  9  2  0  0  0  0
  9 10  1  0  0  0  0
 10 11  2  0  0  0  0
 11 12  1  0  0  0  0
 11 37  1  0  0  0  0
 12 13  1  0  0  0  0
 13 28  1  0  0  0  0
 13 14  1  0  0  0  0
 13 38  1  0  0  0  0
 14 15  1  0  0  0  0
 15 16  1  0  0  0  0
 15 26  1  0  0  0  0
 15 39  1  0  0  0  0
 16 17  1  0  0  0  0
 16 40  1  0  0  0  0
 16 41  1  0  0  0  0
 17 18  1  0  0  0  0
 18 19  2  0  0  0  0
 18 20  1  0  0  0  0
 20 25  1  0  0  0  0
 20 21  2  0  0  0  0
 21 22  1  0  0  0  0
 21 42  1  0  0  0  0
 22 23  2  0  0  0  0
 22 43  1  0  0  0  0
 23 24  1  0  0  0  0
 23 44  1  0  0  0  0
 24 25  2  0  0  0  0
 24 45  1  0  0  0  0
 25 46  1  0  0  0  0
 26 27  1  0  0  0  0
 26 28  1  0  0  0  0
 26 47  1  0  0  0  0
 28 29  1  0  0  0  0
 28 48  1  0  0  0  0
 29 49  1  0  0  0  0
 30 35  1  0  0  0  0
 30 31  2  0  0  0  0
 31 32  1  0  0  0  0
 31 50  1  0  0  0  0
 32 33  2  0  0  0  0
 32 51  1  0  0  0  0
 33 34  1  0  0  0  0
 33 52  1  0  0  0  0
 34 35  2  0  0  0  0
 34 53  1  0  0  0  0
 35 54  1  0  0  0  0
M  CHG  1   3  -1
M  END
> <s_m_source_file>
AV-unprocessed.smi

> <i_m_source_file_index>
34

> <i_lp_mmshare_version>
43012

> <i_f3d_flags>
0

> <s_epik_input>
W2NIXTFbY0hdW2NIXVtjSF1bY0hdYzFDKD1PKVtOSF1jKG5bY0hdbjIpYyhjMjMpbltjSF1uM1tDQEBIXTRPW0NASF0oW0NAQEhdKEYpW0NASF00W09IXSlbQ0gyXU9DKD1PKWM1W2NIXVtjSF1bY0hdW2NIXVtjSF01

> <s_epik_cmdline>
J2VwaWtfcHl0aG9uJywgJy1waCcsICc3LjAnLCAnLXRuJywgJzgnLCAnLW1hJywgJzIwMCcsICctbWV0YWxfYmluZGluZycsICctaW1hZScsICc8aW5maWxlLm1hZT4nLCAnLW9tYWUnLCAnPG91dGZpbGUubWFlPic=

> <r_lp_tautomer_probability>
1

> <r_epik_Ionization_Penalty>
4.33227

> <r_epik_Ionization_Penalty_Charging>
3.41027

> <r_epik_Ionization_Penalty_Neutral>
0.922001

> <r_epik_State_Penalty>
3.41358

> <r_epik_Charging_Adjusted_Penalty>
6.82385

> <i_epik_Tot_Q>
-1

> <i_epik_Tot_abs_Q>
1

> <r_epik_Metal_State_Penalty>
0.496292

> <b_epik_Metal_Only>
1

> <s_epik_Chemistry_Notes>
This compound has an ester and may undergo hydrolysis at high or low pH. This compound contains an acetal/aminal-like group ( X-CH(R)-Y where X, Y are N, S, or O) that may be acid/base labile, releasing an aldehyde.

> <s_lp_Force_Field>
OPLS_2005

> <r_lp_Energy>
49.908

> <b_lp_Chiralities_Consistent>
1

> <s_lp_Variant>
AV-unprocessed.smi:34-24

> <Gold.Version>
5.8.1

> <Gold.Id.Protein>
6NUR|6NUR_protein|mol2

> <Gold.PLP.Fitness>
60.0957

> <Gold.PLP.PLP>
-54.0688

> <Gold.PLP.part.hbond>
-2.0000

> <Gold.PLP.part.metal>
0.0000

> <Gold.PLP.part.buried>
-5.3373

> <Gold.PLP.part.nonpolar>
-48.4526

> <Gold.PLP.part.repulsive>
1.2945

> <Gold.PLP.ligand.clash>
0.0000

> <Gold.PLP.ligand.torsion>
2.7767

> <Gold.PLP.Chemscore.Hbond>
2.7000

> <Gold.PLP.Chemscore.CHOScore>
1.0000

> <Gold.PLP.Chemscore.Metal>
0.0000

> <Gold.Chemscore.Hbonds>
donor molecule, donor type, donor heavy atom, donor atom, acceptor molecule, acceptor atom, score
      P1  H  7989  7998       L1     5  0.70
      P1  H  7997  8008       L1     3  2.00
      L1  C     6    36       P1  7957  1.00

> <Gold.PLP.Chemscore.Internal.Correction>
0.4803

> <Gold.Rescore>
     Score         DG    S(hbond)    S(metal)    S(lipo)     H(rot)  DE(clash)    DE(int)     intcor
     12.21     -16.03       0.84        0.00     125.08       2.69       0.32       3.50       ----

> <Gold.Chemscore.Fitness>
12.2089

> <Gold.Chemscore.DG>
-16.0288

> <Gold.Chemscore.ZeroCoef>
-5.4800

> <Gold.Chemscore.Hbond>
0.8421

> <Gold.Chemscore.Metal>
0.0000

> <Gold.Chemscore.Lipo>
125.0756

> <Gold.Chemscore.Internal_Hbond>
0.0000

> <Gold.Chemscore.DEClash>
0.3221

> <Gold.Chemscore.DEInternal>
3.4978

> <Gold.Chemscore.Rot>
2.6944

> <Gold.Chemscore.Internal.Correction>
   9.000000E+99

> <Gold.Chemscore.Hbonds>
donor molecule, donor type, donor heavy atom, donor atom, acceptor molecule, acceptor atom, score
      P1  H  7989  7998       L1     5  0.07
      P1  H  7997  8008       L1     3  0.64

> <Gold.Chemscore.Hbond.Weighted>
-2.8125

> <Gold.Chemscore.Metal.Weighted>
-0.0000

> <Gold.Chemscore.Lipo.Weighted>
-14.6338

> <Gold.Chemscore.Internal_Hbond.Weighted>
0.0000

> <Gold.Chemscore.DEClash.Weighted>
0.3221

> <Gold.Chemscore.DEInternal.Weighted>
3.4978

> <Gold.Chemscore.Rot.Weighted>
6.8975

> <Gold.Chemscore.Internal.Correction.Weighted>
   9.000000E+99

> <Gold.Protein.RotatedTorsions>
[ 6907 6896 6895 6894 ] final  111.41 input  -60.11 | X-H torsion
[ 7974 7965 7964 7962 ] final  -40.50 input  175.53 | X-H torsion
[ 8008 7997 7996 7995 ] final  -48.30 input   59.86 | X-H torsion
[ 10167 10162 10161 10158 ] final  -10.27 input  -65.29 | X-H torsion
[ 10718 10713 10712 10709 ] final    7.11 input   66.30 | X-H torsion
[ 10763 10752 10751 10750 ] final   86.35 input  -60.55 | X-H torsion
[ 11005 11000 10999 10996 ] final -154.08 input  -57.11 | X-H torsion

> <Gold.Protein.ActiveResidues>
 VAL166  LYS551  ARG553  GLY616  TRP617  ASP618  TYR619  PRO620  LYS621  CYS622 
 ASP623  PHE694  ASN695  SER759  ASP760  ASP761  ALA762  ILE779  LEU786  VAL792 
 PHE793  MET794  SER795  GLU796  ALA797  LYS798  CYS799  TRP800  GLU811  SER814 

> <Gold.Protein.RotatedAtoms>
  152.4970  133.8661  159.7274 H   0  0  0  0  0  0  0  0  0  0  0  0  # atno 6907 bound_to 6896
  150.9160  133.6930  159.2850 H   0  0  0  0  0  0  0  0  0  0  0  0  # atno 6908 bound_to 6896
  151.4323  135.1015  159.9698 H   0  0  0  0  0  0  0  0  0  0  0  0  # atno 6909 bound_to 6896
  146.0299  140.6745  142.9138 H   0  0  0  0  0  0  0  0  0  0  0  0  # atno 7974 bound_to 7965
  154.4027  140.1325  156.4316 H   0  0  0  0  0  0  0  0  0  0  0  0  # atno 8008 bound_to 7997
  155.7545  140.3487  155.5147 H   0  0  0  0  0  0  0  0  0  0  0  0  # atno 8009 bound_to 7997
  155.8918  140.1004  157.1403 H   0  0  0  0  0  0  0  0  0  0  0  0  # atno 8010 bound_to 7997
  140.7109  143.5766  150.9036 H   0  0  0  0  0  0  0  0  0  0  0  0  # atno 10167 bound_to 10162
  156.9321  130.5830  149.5650 H   0  0  0  0  0  0  0  0  0  0  0  0  # atno 10718 bound_to 10713
  153.1562  135.4583  154.9708 H   0  0  0  0  0  0  0  0  0  0  0  0  # atno 10763 bound_to 10752
  154.7863  135.3205  154.7881 H   0  0  0  0  0  0  0  0  0  0  0  0  # atno 10764 bound_to 10752
  153.8378  135.6933  153.4861 H   0  0  0  0  0  0  0  0  0  0  0  0  # atno 10765 bound_to 10752
  140.7012  134.3935  157.5209 H   0  0  0  0  0  0  0  0  0  0  0  0  # atno 11005 bound_to 11000
  144.7025  140.3716  143.7144 LP  0  0  0  0  0  0  0  0  0  0  0  0  # atno 17320 bound_to 7965
  145.7058  139.1672  143.2567 LP  0  0  0  0  0  0  0  0  0  0  0  0  # atno 17321 bound_to 7965
  139.9492  143.6292  152.3033 LP  0  0  0  0  0  0  0  0  0  0  0  0  # atno 17342 bound_to 10162
  139.6804  144.7656  151.1618 LP  0  0  0  0  0  0  0  0  0  0  0  0  # atno 17343 bound_to 10162
  156.0442  130.5521  150.8842 LP  0  0  0  0  0  0  0  0  0  0  0  0  # atno 17370 bound_to 10713
  157.5840  131.0946  150.9226 LP  0  0  0  0  0  0  0  0  0  0  0  0  # atno 17371 bound_to 10713
  139.8896  134.8826  156.2412 LP  0  0  0  0  0  0  0  0  0  0  0  0  # atno 17394 bound_to 11000
  141.0162  133.7067  156.1192 LP  0  0  0  0  0  0  0  0  0  0  0  0  # atno 17395 bound_to 11000

$$$$
