AV-unprocessed.smi:1292|AV-procd|sdf|5395|dock3
  -GOLD-   22720 4553D 1   1.00000     0.00000
 Structure written by MMmdl.
 40 41  0  0  0  0  0  0  0  0  1 V2000
  152.9959  142.2632  160.6867 C   0  0  0  0  0  0  0  0  0  0  0  0
  152.6982  142.6103  159.2213 C   0  0  2  0  0  0  0  0  0  0  0  0
  152.3701  144.1007  159.0524 C   0  0  0  0  0  0  0  0  0  0  0  0
  152.0858  144.4029  157.5780 C   0  0  0  0  0  0  0  0  0  0  0  0
  150.9595  143.5108  157.0324 C   0  0  0  0  0  0  0  0  0  0  0  0
  151.2562  142.0828  157.2530 N   0  0  0  0  0  0  0  0  0  0  0  0
  150.3610  140.9287  156.3179 S   0  0  0  0  0  0  0  0  0  0  0  0
  151.2024  140.4982  155.1912 O   0  0  0  0  0  0  0  0  0  0  0  0
  149.7472  139.9523  157.2314 O   0  0  0  0  0  0  0  0  0  0  0  0
  149.1135  141.9556  155.7116 N   0  0  0  0  0  0  0  0  0  0  0  0
  147.7963  141.3924  155.4146 C   0  0  0  0  0  0  0  0  0  0  0  0
  147.2469  141.9765  154.1069 C   0  0  0  0  0  0  0  0  0  0  0  0
  146.1539  142.9991  154.3542 C   0  0  0  0  0  0  0  0  0  0  0  0
  145.6558  143.7894  153.2962 C   0  0  0  0  0  0  0  0  0  0  0  0
  144.6513  144.7348  153.5804 C   0  0  0  0  0  0  0  0  0  0  0  0
  144.1870  144.8541  154.9045 C   0  0  0  0  0  0  0  0  0  0  0  0
  144.7511  144.0196  155.8900 C   0  0  0  0  0  0  0  0  0  0  0  0
  145.7150  143.1102  155.6284 N   0  0  0  0  0  0  0  0  0  0  0  0
  151.5551  141.7426  158.6598 C   0  0  0  0  0  0  0  0  0  0  0  0
  152.1322  142.4571  161.3234 H   0  0  0  0  0  0  0  0  0  0  0  0
  153.8300  142.8526  161.0680 H   0  0  0  0  0  0  0  0  0  0  0  0
  153.2597  141.2108  160.7951 H   0  0  0  0  0  0  0  0  0  0  0  0
  153.5984  142.3933  158.6440 H   0  0  0  0  0  0  0  0  0  0  0  0
  151.5029  144.3663  159.6588 H   0  0  0  0  0  0  0  0  0  0  0  0
  153.2000  144.7146  159.4036 H   0  0  0  0  0  0  0  0  0  0  0  0
  151.8181  145.4530  157.4586 H   0  0  0  0  0  0  0  0  0  0  0  0
  152.9918  144.2470  156.9907 H   0  0  0  0  0  0  0  0  0  0  0  0
  150.0110  143.7548  157.5123 H   0  0  0  0  0  0  0  0  0  0  0  0
  150.8338  143.7018  155.9667 H   0  0  0  0  0  0  0  0  0  0  0  0
  149.0834  142.8608  156.1798 H   0  0  0  0  0  0  0  0  0  0  0  0
  147.8793  140.3072  155.3476 H   0  0  0  0  0  0  0  0  0  0  0  0
  147.1140  141.6158  156.2353 H   0  0  0  0  0  0  0  0  0  0  0  0
  148.0524  142.4456  153.5400 H   0  0  0  0  0  0  0  0  0  0  0  0
  146.8515  141.1787  153.4760 H   0  0  0  0  0  0  0  0  0  0  0  0
  146.0359  143.6778  152.2914 H   0  0  0  0  0  0  0  0  0  0  0  0
  144.2458  145.3581  152.7972 H   0  0  0  0  0  0  0  0  0  0  0  0
  143.4183  145.5686  155.1591 H   0  0  0  0  0  0  0  0  0  0  0  0
  144.4195  144.0845  156.9157 H   0  0  0  0  0  0  0  0  0  0  0  0
  151.8286  140.6906  158.7353 H   0  0  0  0  0  0  0  0  0  0  0  0
  150.6487  141.8724  159.2531 H   0  0  0  0  0  0  0  0  0  0  0  0
  1  2  1  0  0  0  0
  1 20  1  0  0  0  0
  1 21  1  0  0  0  0
  1 22  1  0  0  0  0
  2 19  1  0  0  0  0
  2  3  1  0  0  0  0
  2 23  1  0  0  0  0
  3  4  1  0  0  0  0
  3 24  1  0  0  0  0
  3 25  1  0  0  0  0
  4  5  1  0  0  0  0
  4 26  1  0  0  0  0
  4 27  1  0  0  0  0
  5  6  1  0  0  0  0
  5 28  1  0  0  0  0
  5 29  1  0  0  0  0
  6  7  1  0  0  0  0
  6 19  1  0  0  0  0
  7  8  2  0  0  0  0
  7  9  2  0  0  0  0
  7 10  1  0  0  0  0
 10 11  1  0  0  0  0
 10 30  1  0  0  0  0
 11 12  1  0  0  0  0
 11 31  1  0  0  0  0
 11 32  1  0  0  0  0
 12 13  1  0  0  0  0
 12 33  1  0  0  0  0
 12 34  1  0  0  0  0
 13 18  1  0  0  0  0
 13 14  2  0  0  0  0
 14 15  1  0  0  0  0
 14 35  1  0  0  0  0
 15 16  2  0  0  0  0
 15 36  1  0  0  0  0
 16 17  1  0  0  0  0
 16 37  1  0  0  0  0
 17 18  2  0  0  0  0
 17 38  1  0  0  0  0
 19 39  1  0  0  0  0
 19 40  1  0  0  0  0
M  END
> <s_m_source_file>
AV-unprocessed.smi

> <i_m_source_file_index>
1292

> <i_lp_mmshare_version>
43012

> <i_f3d_flags>
0

> <s_epik_input>
W0NIM11bQ0BASF0xW0NIMl1bQ0gyXVtDSDJdTihbQ0gyXTEpUyg9TykoPU8pW05IXVtDSDJdW0NIMl1jMltjSF1bY0hdW2NIXVtjSF1uMg==

> <s_epik_cmdline>
J2VwaWtfcHl0aG9uJywgJy1waCcsICc3LjAnLCAnLXRuJywgJzgnLCAnLW1hJywgJzIwMCcsICctbWV0YWxfYmluZGluZycsICctaW1hZScsICc8aW5maWxlLm1hZT4nLCAnLW9tYWUnLCAnPG91dGZpbGUubWFlPic=

> <r_epik_Ionization_Penalty>
0.0252758

> <r_epik_Ionization_Penalty_Charging>
0

> <r_epik_Ionization_Penalty_Neutral>
0.0252758

> <r_epik_State_Penalty>
0.0138562

> <r_epik_Charging_Adjusted_Penalty>
0.0138562

> <i_epik_Tot_Q>
0

> <i_epik_Tot_abs_Q>
0

> <r_epik_Metal_State_Penalty>
0.204365

> <b_epik_Metal_Only>
0

> <s_lp_Force_Field>
OPLS_2005

> <r_lp_Energy>
7.0541

> <b_lp_Chiralities_Consistent>
1

> <s_lp_Variant>
AV-unprocessed.smi:1292-1

> <Gold.Version>
5.8.1

> <Gold.Id.Protein>
6NUR|6NUR_protein|mol2

> <Gold.PLP.Fitness>
45.3567

> <Gold.PLP.PLP>
-42.4782

> <Gold.PLP.part.hbond>
-2.0000

> <Gold.PLP.part.metal>
0.0000

> <Gold.PLP.part.buried>
-3.3298

> <Gold.PLP.part.nonpolar>
-37.4553

> <Gold.PLP.part.repulsive>
0.2728

> <Gold.PLP.ligand.clash>
0.0000

> <Gold.PLP.ligand.torsion>
1.5808

> <Gold.PLP.Chemscore.Hbond>
1.7120

> <Gold.PLP.Chemscore.CHOScore>
0.0000

> <Gold.PLP.Chemscore.Metal>
0.0000

> <Gold.Chemscore.Hbonds>
donor molecule, donor type, donor heavy atom, donor atom, acceptor molecule, acceptor atom, score
      L1  H    10    30       P1  8028  0.74
      P1  H  7989  7998       L1     8  0.94

> <Gold.PLP.Chemscore.Internal.Correction>
0.9040

> <Gold.Rescore>
     Score         DG    S(hbond)    S(metal)    S(lipo)     H(rot)  DE(clash)    DE(int)     intcor
     17.57     -20.58       1.90        0.00     110.65       1.64       1.54       1.47       ----

> <Gold.Chemscore.Fitness>
17.5681

> <Gold.Chemscore.DG>
-20.5842

> <Gold.Chemscore.ZeroCoef>
-5.4800

> <Gold.Chemscore.Hbond>
1.9029

> <Gold.Chemscore.Metal>
0.0000

> <Gold.Chemscore.Lipo>
110.6454

> <Gold.Chemscore.Internal_Hbond>
0.0000

> <Gold.Chemscore.DEClash>
1.5433

> <Gold.Chemscore.DEInternal>
1.4728

> <Gold.Chemscore.Rot>
1.6394

> <Gold.Chemscore.Internal.Correction>
   9.000000E+99

> <Gold.Chemscore.Hbonds>
donor molecule, donor type, donor heavy atom, donor atom, acceptor molecule, acceptor atom, score
      L1  H    10    30       P1  8028  0.73
      P1  H  7989  7998       L1     8  0.91

> <Gold.Chemscore.Hbond.Weighted>
-6.3555

> <Gold.Chemscore.Metal.Weighted>
-0.0000

> <Gold.Chemscore.Lipo.Weighted>
-12.9455

> <Gold.Chemscore.Internal_Hbond.Weighted>
0.0000

> <Gold.Chemscore.DEClash.Weighted>
1.5433

> <Gold.Chemscore.DEInternal.Weighted>
1.4728

> <Gold.Chemscore.Rot.Weighted>
4.1968

> <Gold.Chemscore.Internal.Correction.Weighted>
   9.000000E+99

> <Gold.Protein.RotatedTorsions>
[ 6907 6896 6895 6894 ] final   15.17 input  -60.11 | X-H torsion
[ 7974 7965 7964 7962 ] final  113.77 input  175.53 | X-H torsion
[ 8008 7997 7996 7995 ] final  -30.06 input   59.86 | X-H torsion
[ 10167 10162 10161 10158 ] final   76.64 input  -65.29 | X-H torsion
[ 10718 10713 10712 10709 ] final   71.25 input   66.30 | X-H torsion
[ 10763 10752 10751 10750 ] final   97.63 input  -60.55 | X-H torsion
[ 11005 11000 10999 10996 ] final   -4.85 input  -57.11 | X-H torsion

> <Gold.Protein.ActiveResidues>
 VAL166  LYS551  ARG553  GLY616  TRP617  ASP618  TYR619  PRO620  LYS621  CYS622 
 ASP623  PHE694  ASN695  SER759  ASP760  ASP761  ALA762  ILE779  LEU786  VAL792 
 PHE793  MET794  SER795  GLU796  ALA797  LYS798  CYS799  TRP800  GLU811  SER814 

> <Gold.Protein.RotatedAtoms>
  151.8138  135.0672  160.0416 H   0  0  0  0  0  0  0  0  0  0  0  0  # atno 6907 bound_to 6896
  152.3001  133.5642  159.5621 H   0  0  0  0  0  0  0  0  0  0  0  0  # atno 6908 bound_to 6896
  150.7269  134.0220  159.3746 H   0  0  0  0  0  0  0  0  0  0  0  0  # atno 6909 bound_to 6896
  145.2128  139.2898  143.4259 H   0  0  0  0  0  0  0  0  0  0  0  0  # atno 7974 bound_to 7965
  154.4265  140.1801  156.1346 H   0  0  0  0  0  0  0  0  0  0  0  0  # atno 8008 bound_to 7997
  156.0040  140.3357  155.6849 H   0  0  0  0  0  0  0  0  0  0  0  0  # atno 8009 bound_to 7997
  155.6203  140.0659  157.2671 H   0  0  0  0  0  0  0  0  0  0  0  0  # atno 8010 bound_to 7997
  139.9901  144.5763  150.7825 H   0  0  0  0  0  0  0  0  0  0  0  0  # atno 10167 bound_to 10162
  157.6442  130.9519  150.0763 H   0  0  0  0  0  0  0  0  0  0  0  0  # atno 10718 bound_to 10713
  153.2793  135.4176  155.1063 H   0  0  0  0  0  0  0  0  0  0  0  0  # atno 10763 bound_to 10752
  154.8483  135.3491  154.6135 H   0  0  0  0  0  0  0  0  0  0  0  0  # atno 10764 bound_to 10752
  153.6555  135.7051  153.5252 H   0  0  0  0  0  0  0  0  0  0  0  0  # atno 10765 bound_to 10752
  140.6848  133.9122  155.8578 H   0  0  0  0  0  0  0  0  0  0  0  0  # atno 11005 bound_to 11000
  146.3394  140.2409  142.8595 LP  0  0  0  0  0  0  0  0  0  0  0  0  # atno 17320 bound_to 7965
  144.9840  140.8485  143.5380 LP  0  0  0  0  0  0  0  0  0  0  0  0  # atno 17321 bound_to 7965
  140.7458  143.2881  151.3407 LP  0  0  0  0  0  0  0  0  0  0  0  0  # atno 17342 bound_to 10162
  139.6346  144.0654  152.2505 LP  0  0  0  0  0  0  0  0  0  0  0  0  # atno 17343 bound_to 10162
  156.1752  130.3648  149.9109 LP  0  0  0  0  0  0  0  0  0  0  0  0  # atno 17370 bound_to 10713
  156.7075  130.8957  151.3606 LP  0  0  0  0  0  0  0  0  0  0  0  0  # atno 17371 bound_to 10713
  141.0289  134.0784  157.4037 LP  0  0  0  0  0  0  0  0  0  0  0  0  # atno 17394 bound_to 11000
  139.8941  135.0134  156.6933 LP  0  0  0  0  0  0  0  0  0  0  0  0  # atno 17395 bound_to 11000

$$$$
