AV-unprocessed.smi:49|AV-procd|sdf|474|dock3
  -GOLD-   2262016343D 1   1.00000     0.00000
 Structure written by MMmdl.
 27 28  0  0  0  0  0  0  0  0  1 V2000
  153.0875  142.6099  160.4821 C   0  0  0  0  0  0  0  0  0  0  0  0
  152.9258  141.1201  160.1617 C   0  0  0  0  0  0  0  0  0  0  0  0
  152.2891  140.8830  158.8315 C   0  0  0  0  0  0  0  0  0  0  0  0
  152.8471  140.2218  157.8231 N   0  0  0  0  0  0  0  0  0  0  0  0
  151.8516  140.3134  156.8901 C   0  0  0  0  0  0  0  0  0  0  0  0
  151.9661  139.6760  155.5384 C   0  0  1  0  0  0  0  0  0  0  0  0
  152.1724  138.1511  155.6289 C   0  0  0  0  0  0  0  0  0  0  0  0
  150.9261  137.5615  154.9726 C   0  0  2  0  0  0  0  0  0  0  0  0
  151.1705  136.3242  154.3381 O   0  0  0  0  0  0  0  0  0  0  0  0
  150.5224  138.6497  153.9866 C   0  0  0  0  0  0  0  0  0  0  0  0
  150.7850  139.8930  154.6953 N   0  0  0  0  0  0  0  0  0  0  0  0
  150.7456  140.9494  157.2804 N   0  0  0  0  0  0  0  0  0  0  0  0
  151.0599  141.3138  158.5411 N   0  0  0  0  0  0  0  0  0  0  0  0
  152.8366  140.1038  155.0393 H   0  0  0  0  0  0  0  0  0  0  0  0
  150.1411  137.4357  155.7200 H   0  0  0  0  0  0  0  0  0  0  0  0
  150.4302  141.8288  159.1400 H   0  0  0  0  0  0  0  0  0  0  0  0
  153.5522  142.7487  161.4584 H   0  0  0  0  0  0  0  0  0  0  0  0
  152.1215  143.1155  160.4985 H   0  0  0  0  0  0  0  0  0  0  0  0
  153.7135  143.1064  159.7402 H   0  0  0  0  0  0  0  0  0  0  0  0
  153.8992  140.6284  160.1832 H   0  0  0  0  0  0  0  0  0  0  0  0
  152.3182  140.6398  160.9292 H   0  0  0  0  0  0  0  0  0  0  0  0
  153.0637  137.8787  155.0615 H   0  0  0  0  0  0  0  0  0  0  0  0
  152.3119  137.7876  156.6481 H   0  0  0  0  0  0  0  0  0  0  0  0
  151.0071  136.4246  153.4126 H   0  0  0  0  0  0  0  0  0  0  0  0
  151.1484  138.5969  153.0946 H   0  0  0  0  0  0  0  0  0  0  0  0
  149.4815  138.5706  153.6722 H   0  0  0  0  0  0  0  0  0  0  0  0
  150.9783  140.6209  154.0151 H   0  0  0  0  0  0  0  0  0  0  0  0
  1  2  1  0  0  0  0
  1 17  1  0  0  0  0
  1 18  1  0  0  0  0
  1 19  1  0  0  0  0
  2  3  1  0  0  0  0
  2 20  1  0  0  0  0
  2 21  1  0  0  0  0
  3 13  1  0  0  0  0
  3  4  2  0  0  0  0
  4  5  1  0  0  0  0
  5  6  1  0  0  0  0
  5 12  2  0  0  0  0
  6 14  1  0  0  0  0
  6 11  1  0  0  0  0
  6  7  1  0  0  0  0
  7  8  1  0  0  0  0
  7 22  1  0  0  0  0
  7 23  1  0  0  0  0
  8 15  1  0  0  0  0
  8  9  1  0  0  0  0
  8 10  1  0  0  0  0
  9 24  1  0  0  0  0
 10 11  1  0  0  0  0
 10 25  1  0  0  0  0
 10 26  1  0  0  0  0
 11 27  1  0  0  0  0
 12 13  1  0  0  0  0
 13 16  1  0  0  0  0
M  END
> <s_m_source_file>
AV-unprocessed.smi

> <i_m_source_file_index>
49

> <i_lp_mmshare_version>
43012

> <i_f3d_flags>
0

> <s_epik_input>
W0NIM11bQ0gyXWMxbmMobltuSF0xKVtDQEBIXTJbQ0gyXVtDQEBIXShbT0hdKVtDSDJdW05IXTI=

> <s_epik_cmdline>
J2VwaWtfcHl0aG9uJywgJy1waCcsICc3LjAnLCAnLXRuJywgJzgnLCAnLW1hJywgJzIwMCcsICctbWV0YWxfYmluZGluZycsICctaW1hZScsICc8aW5maWxlLm1hZT4nLCAnLW9tYWUnLCAnPG91dGZpbGUubWFlPic=

> <r_lp_tautomer_probability>
0.948284

> <r_epik_Ionization_Penalty>
1.6657

> <r_epik_Ionization_Penalty_Charging>
0

> <r_epik_Ionization_Penalty_Neutral>
1.6657

> <r_epik_State_Penalty>
2.01417

> <r_epik_Charging_Adjusted_Penalty>
2.01417

> <i_epik_Tot_Q>
0

> <i_epik_Tot_abs_Q>
0

> <r_epik_Metal_State_Penalty>
2.28256

> <b_epik_Metal_Only>
0

> <s_lp_Force_Field>
OPLS_2005

> <r_lp_Energy>
18.9317

> <b_lp_Chiralities_Consistent>
1

> <s_lp_Variant>
AV-unprocessed.smi:49-12

> <Gold.Version>
5.8.1

> <Gold.Id.Protein>
6NUR|6NUR_protein|mol2

> <Gold.PLP.Fitness>
34.8362

> <Gold.PLP.PLP>
-25.8658

> <Gold.PLP.part.hbond>
-4.2310

> <Gold.PLP.part.metal>
0.0000

> <Gold.PLP.part.buried>
-3.0295

> <Gold.PLP.part.nonpolar>
-18.7584

> <Gold.PLP.part.repulsive>
0.1603

> <Gold.PLP.ligand.clash>
0.0000

> <Gold.PLP.ligand.torsion>
0.0092

> <Gold.PLP.Chemscore.Hbond>
2.9920

> <Gold.PLP.Chemscore.CHOScore>
0.0000

> <Gold.PLP.Chemscore.Metal>
0.0000

> <Gold.Chemscore.Hbonds>
donor molecule, donor type, donor heavy atom, donor atom, acceptor molecule, acceptor atom, score
      L1  H     9    24       P1  7949  1.00
      P1  H  7997  8010       L1     4  0.98
      P1  H 10752 10765       L1     9  1.00

> <Gold.PLP.Chemscore.Internal.Correction>
0.0128

> <Gold.Rescore>
     Score         DG    S(hbond)    S(metal)    S(lipo)     H(rot)  DE(clash)    DE(int)     intcor
     15.08     -15.13       2.53        0.00      50.78       1.86       0.02       0.04       ----

> <Gold.Chemscore.Fitness>
15.0758

> <Gold.Chemscore.DG>
-15.1337

> <Gold.Chemscore.ZeroCoef>
-5.4800

> <Gold.Chemscore.Hbond>
2.5338

> <Gold.Chemscore.Metal>
0.0000

> <Gold.Chemscore.Lipo>
50.7832

> <Gold.Chemscore.Internal_Hbond>
0.0000

> <Gold.Chemscore.DEClash>
0.0212

> <Gold.Chemscore.DEInternal>
0.0367

> <Gold.Chemscore.Rot>
1.8558

> <Gold.Chemscore.Internal.Correction>
   9.000000E+99

> <Gold.Chemscore.Hbonds>
donor molecule, donor type, donor heavy atom, donor atom, acceptor molecule, acceptor atom, score
      L1  H     9    24       P1  7949  0.25
      P1  H  7997  8010       L1     4  0.56
      P1  H 10752 10765       L1     9  0.25

> <Gold.Chemscore.Hbond.Weighted>
-8.4628

> <Gold.Chemscore.Metal.Weighted>
-0.0000

> <Gold.Chemscore.Lipo.Weighted>
-5.9416

> <Gold.Chemscore.Internal_Hbond.Weighted>
0.0000

> <Gold.Chemscore.DEClash.Weighted>
0.0212

> <Gold.Chemscore.DEInternal.Weighted>
0.0367

> <Gold.Chemscore.Rot.Weighted>
4.7507

> <Gold.Chemscore.Internal.Correction.Weighted>
   9.000000E+99

> <Gold.Protein.RotatedTorsions>
[ 6907 6896 6895 6894 ] final  -68.96 input  -60.11 | X-H torsion
[ 7974 7965 7964 7962 ] final  114.49 input  175.53 | X-H torsion
[ 8008 7997 7996 7995 ] final   45.90 input   59.86 | X-H torsion
[ 10167 10162 10161 10158 ] final   -2.37 input  -65.29 | X-H torsion
[ 10718 10713 10712 10709 ] final    7.89 input   66.30 | X-H torsion
[ 10763 10752 10751 10750 ] final  161.72 input  -60.55 | X-H torsion
[ 11005 11000 10999 10996 ] final -102.69 input  -57.11 | X-H torsion

> <Gold.Protein.ActiveResidues>
 VAL166  LYS551  ARG553  GLY616  TRP617  ASP618  TYR619  PRO620  LYS621  CYS622 
 ASP623  PHE694  ASN695  SER759  ASP760  ASP761  ALA762  ILE779  LEU786  VAL792 
 PHE793  MET794  SER795  GLU796  ALA797  LYS798  CYS799  TRP800  GLU811  SER814 

> <Gold.Protein.RotatedAtoms>
  150.7329  134.5665  159.5868 H   0  0  0  0  0  0  0  0  0  0  0  0  # atno 6907 bound_to 6896
  152.3115  134.7488  160.0344 H   0  0  0  0  0  0  0  0  0  0  0  0  # atno 6908 bound_to 6896
  151.8035  133.3337  159.3570 H   0  0  0  0  0  0  0  0  0  0  0  0  # atno 6909 bound_to 6896
  145.2038  139.2939  143.4304 H   0  0  0  0  0  0  0  0  0  0  0  0  # atno 7974 bound_to 7965
  155.3436  140.3409  155.4239 H   0  0  0  0  0  0  0  0  0  0  0  0  # atno 8008 bound_to 7997
  156.1800  140.1661  156.8327 H   0  0  0  0  0  0  0  0  0  0  0  0  # atno 8009 bound_to 7997
  154.5324  140.0742  156.8351 H   0  0  0  0  0  0  0  0  0  0  0  0  # atno 8010 bound_to 7997
  140.6848  143.6665  150.8222 H   0  0  0  0  0  0  0  0  0  0  0  0  # atno 10167 bound_to 10162
  156.9435  130.5870  149.5653 H   0  0  0  0  0  0  0  0  0  0  0  0  # atno 10718 bound_to 10713
  154.2673  135.2766  155.2753 H   0  0  0  0  0  0  0  0  0  0  0  0  # atno 10763 bound_to 10752
  154.5332  135.5724  153.6780 H   0  0  0  0  0  0  0  0  0  0  0  0  # atno 10764 bound_to 10752
  152.9951  135.6233  154.2826 H   0  0  0  0  0  0  0  0  0  0  0  0  # atno 10765 bound_to 10752
  141.1178  133.8579  157.1392 H   0  0  0  0  0  0  0  0  0  0  0  0  # atno 11005 bound_to 11000
  146.3412  140.2291  142.8593 LP  0  0  0  0  0  0  0  0  0  0  0  0  # atno 17320 bound_to 7965
  144.9922  140.8557  143.5332 LP  0  0  0  0  0  0  0  0  0  0  0  0  # atno 17321 bound_to 7965
  140.0370  143.5385  152.2735 LP  0  0  0  0  0  0  0  0  0  0  0  0  # atno 17342 bound_to 10162
  139.6198  144.7627  151.2765 LP  0  0  0  0  0  0  0  0  0  0  0  0  # atno 17343 bound_to 10162
  156.0394  130.5478  150.8733 LP  0  0  0  0  0  0  0  0  0  0  0  0  # atno 17370 bound_to 10713
  157.5769  131.0946  150.9332 LP  0  0  0  0  0  0  0  0  0  0  0  0  # atno 17371 bound_to 10713
  140.0113  134.9987  157.0400 LP  0  0  0  0  0  0  0  0  0  0  0  0  # atno 17394 bound_to 11000
  140.4595  134.1498  155.7190 LP  0  0  0  0  0  0  0  0  0  0  0  0  # atno 17395 bound_to 11000

$$$$
