AV-unprocessed.smi:1645|AV-procd|sdf|6621|dock4
  -GOLD-   22720 7323D 1   1.00000     0.00000
 Structure written by MMmdl.
 55 58  0  0  0  0  0  0  0  0  4 V2000
  145.3102  138.0671  154.3015 O   0  0  0  0  0  0  0  0  0  0  0  0
  146.0438  137.5421  153.4561 C   0  0  0  0  0  0  0  0  0  0  0  0
  147.3575  137.8282  153.4249 N   0  0  0  0  0  0  0  0  0  0  0  0
  148.1179  138.6402  154.3088 C   0  0  0  0  0  0  0  0  0  0  0  0
  149.5051  138.7426  154.0821 C   0  0  0  0  0  0  0  0  0  0  0  0
  150.3019  139.5190  154.9483 C   0  0  0  0  0  0  0  0  0  0  0  0
  149.7069  140.1820  156.0515 C   0  0  0  0  0  0  0  0  0  0  0  0
  150.4222  140.9846  156.9691 N   0  0  0  0  0  0  0  0  0  0  0  0
  150.9575  142.2601  156.4890 C   0  0  0  0  0  0  0  0  0  0  0  0
  151.3370  143.1881  157.6561 C   0  0  0  0  0  0  0  0  0  0  0  0
  152.2742  142.4826  158.6452 C   0  0  0  0  0  0  0  0  0  0  0  0
  151.6297  141.1770  159.1310 C   0  0  0  0  0  0  0  0  0  0  0  0
  151.2502  140.2714  157.9470 C   0  0  0  0  0  0  0  0  0  0  0  0
  148.3717  140.0394  156.2347 N   0  3  0  0  0  0  0  0  0  0  0  0
  147.5717  139.3083  155.4292 C   0  0  0  0  0  0  0  0  0  0  0  0
  145.6850  136.6761  152.4707 N   0  5  0  0  0  0  0  0  0  0  0  0
  144.8512  135.4879  152.6664 C   0  0  1  0  0  0  0  0  0  0  0  0
  143.4175  135.8603  153.0511 C   0  0  0  0  0  0  0  0  0  0  0  0
  142.6085  134.6489  152.5890 C   0  0  0  0  0  0  0  0  0  0  0  0
  143.2702  134.1996  151.3458 N   0  3  2  0  0  0  0  0  0  0  0  0
  143.0858  132.7616  151.0259 C   0  0  0  0  0  0  0  0  0  0  0  0
  143.8881  132.3848  149.7685 C   0  0  0  0  0  0  0  0  0  0  0  0
  145.3912  132.7077  149.9018 C   0  0  0  0  0  0  0  0  0  0  0  0
  145.7111  133.5457  151.1532 C   0  0  0  0  0  0  0  0  0  0  0  0
  144.6802  134.6868  151.3549 C   0  0  2  0  0  0  0  0  0  0  0  0
  147.8640  137.4455  152.6400 H   0  0  0  0  0  0  0  0  0  0  0  0
  149.9599  138.2321  153.2455 H   0  0  0  0  0  0  0  0  0  0  0  0
  151.3617  139.5792  154.7527 H   0  0  0  0  0  0  0  0  0  0  0  0
  151.8300  142.0675  155.8632 H   0  0  0  0  0  0  0  0  0  0  0  0
  150.2187  142.7718  155.8717 H   0  0  0  0  0  0  0  0  0  0  0  0
  151.8092  144.0935  157.2742 H   0  0  0  0  0  0  0  0  0  0  0  0
  150.4329  143.5070  158.1766 H   0  0  0  0  0  0  0  0  0  0  0  0
  153.2284  142.2682  158.1623 H   0  0  0  0  0  0  0  0  0  0  0  0
  152.4900  143.1354  159.4916 H   0  0  0  0  0  0  0  0  0  0  0  0
  152.3110  140.6495  159.7990 H   0  0  0  0  0  0  0  0  0  0  0  0
  150.7379  141.4058  159.7163 H   0  0  0  0  0  0  0  0  0  0  0  0
  150.7441  139.3889  158.3379 H   0  0  0  0  0  0  0  0  0  0  0  0
  152.1526  139.9191  157.4455 H   0  0  0  0  0  0  0  0  0  0  0  0
  146.5331  139.2787  155.7230 H   0  0  0  0  0  0  0  0  0  0  0  0
  145.2421  134.8166  153.4331 H   0  0  0  0  0  0  0  0  0  0  0  0
  143.3045  136.0603  154.1171 H   0  0  0  0  0  0  0  0  0  0  0  0
  143.0885  136.7471  152.5064 H   0  0  0  0  0  0  0  0  0  0  0  0
  142.6339  133.8585  153.3439 H   0  0  0  0  0  0  0  0  0  0  0  0
  141.5615  134.8953  152.4096 H   0  0  0  0  0  0  0  0  0  0  0  0
  143.4024  132.1468  151.8699 H   0  0  0  0  0  0  0  0  0  0  0  0
  142.0253  132.5621  150.8708 H   0  0  0  0  0  0  0  0  0  0  0  0
  143.7531  131.3266  149.5420 H   0  0  0  0  0  0  0  0  0  0  0  0
  143.4808  132.9290  148.9154 H   0  0  0  0  0  0  0  0  0  0  0  0
  145.9715  131.7850  149.9305 H   0  0  0  0  0  0  0  0  0  0  0  0
  145.7209  133.2419  149.0102 H   0  0  0  0  0  0  0  0  0  0  0  0
  145.7220  132.8785  152.0181 H   0  0  0  0  0  0  0  0  0  0  0  0
  146.7232  133.9460  151.0702 H   0  0  0  0  0  0  0  0  0  0  0  0
  144.7518  135.3646  150.5020 H   0  0  0  0  0  0  0  0  0  0  0  0
  142.8293  134.7157  150.5982 H   0  0  0  0  0  0  0  0  0  0  0  0
  147.9423  140.5124  157.0297 H   0  0  0  0  0  0  0  0  0  0  0  0
  1  2  2  0  0  0  0
  2  3  1  0  0  0  0
  2 16  1  0  0  0  0
  3  4  1  0  0  0  0
  3 26  1  0  0  0  0
  4 15  1  0  0  0  0
  4  5  2  0  0  0  0
  5  6  1  0  0  0  0
  5 27  1  0  0  0  0
  6  7  2  0  0  0  0
  6 28  1  0  0  0  0
  7  8  1  0  0  0  0
  7 14  1  0  0  0  0
  8 13  1  0  0  0  0
  8  9  1  0  0  0  0
  9 10  1  0  0  0  0
  9 29  1  0  0  0  0
  9 30  1  0  0  0  0
 10 11  1  0  0  0  0
 10 31  1  0  0  0  0
 10 32  1  0  0  0  0
 11 12  1  0  0  0  0
 11 33  1  0  0  0  0
 11 34  1  0  0  0  0
 12 13  1  0  0  0  0
 12 35  1  0  0  0  0
 12 36  1  0  0  0  0
 13 37  1  0  0  0  0
 13 38  1  0  0  0  0
 14 15  2  0  0  0  0
 14 55  1  0  0  0  0
 15 39  1  0  0  0  0
 16 17  1  0  0  0  0
 17 25  1  0  0  0  0
 17 18  1  0  0  0  0
 17 40  1  0  0  0  0
 18 19  1  0  0  0  0
 18 41  1  0  0  0  0
 18 42  1  0  0  0  0
 19 20  1  0  0  0  0
 19 43  1  0  0  0  0
 19 44  1  0  0  0  0
 20 25  1  0  0  0  0
 20 21  1  0  0  0  0
 20 54  1  0  0  0  0
 21 22  1  0  0  0  0
 21 45  1  0  0  0  0
 21 46  1  0  0  0  0
 22 23  1  0  0  0  0
 22 47  1  0  0  0  0
 22 48  1  0  0  0  0
 23 24  1  0  0  0  0
 23 49  1  0  0  0  0
 23 50  1  0  0  0  0
 24 25  1  0  0  0  0
 24 51  1  0  0  0  0
 24 52  1  0  0  0  0
 25 53  1  0  0  0  0
M  CHG  1  14   1
M  CHG  1  16  -1
M  CHG  1  20   1
M  END
> <s_m_source_file>
AV-unprocessed.smi

> <i_m_source_file_index>
1645

> <i_lp_mmshare_version>
43012

> <i_f3d_flags>
0

> <s_epik_input>
W0NIMl0xW0NIMl1bQ0gyXVtDSDJdW0NASF0oTjEyKVtDQEBIXShbQ0gyXVtDSDJdMilbTkhdQyg9TylbTkhdYzNbY0hdW2NIXWMobltjSF0zKU40W0NIMl1bQ0gyXVtDSDJdW0NIMl1bQ0gyXTQ=

> <s_epik_cmdline>
J2VwaWtfcHl0aG9uJywgJy1waCcsICc3LjAnLCAnLXRuJywgJzgnLCAnLW1hJywgJzIwMCcsICctbWV0YWxfYmluZGluZycsICctaW1hZScsICc8aW5maWxlLm1hZT4nLCAnLW9tYWUnLCAnPG91dGZpbGUubWFlPic=

> <r_lp_tautomer_probability>
0.999994

> <r_epik_Ionization_Penalty>
8.55589

> <r_epik_Ionization_Penalty_Charging>
8.55589

> <r_epik_Ionization_Penalty_Neutral>
3.8092e-06

> <r_epik_State_Penalty>
8.15703

> <r_epik_Charging_Adjusted_Penalty>
16.7129

> <i_epik_Tot_Q>
1

> <i_epik_Tot_abs_Q>
3

> <r_epik_Metal_State_Penalty>
4.13781

> <b_epik_Metal_Only>
1

> <s_lp_Force_Field>
OPLS_2005

> <r_lp_Energy>
56.4964

> <b_lp_Chiralities_Consistent>
1

> <s_lp_Variant>
AV-unprocessed.smi:1645-22

> <Gold.Version>
5.8.1

> <Gold.Id.Protein>
6NUR|6NUR_protein|mol2

> <Gold.PLP.Fitness>
44.5070

> <Gold.PLP.PLP>
-39.5428

> <Gold.PLP.part.hbond>
-2.0000

> <Gold.PLP.part.metal>
0.0000

> <Gold.PLP.part.buried>
-5.8965

> <Gold.PLP.part.nonpolar>
-32.4305

> <Gold.PLP.part.repulsive>
0.3529

> <Gold.PLP.ligand.clash>
0.0000

> <Gold.PLP.ligand.torsion>
0.7049

> <Gold.PLP.Chemscore.Hbond>
1.9391

> <Gold.PLP.Chemscore.CHOScore>
0.0000

> <Gold.PLP.Chemscore.Metal>
0.0000

> <Gold.Chemscore.Hbonds>
donor molecule, donor type, donor heavy atom, donor atom, acceptor molecule, acceptor atom, score
      L1  H     3    26       P1  7948  1.00
      L1  H    20    54       P1 10186  0.99

> <Gold.PLP.Chemscore.Internal.Correction>
0.5566

> <Gold.Rescore>
     Score         DG    S(hbond)    S(metal)    S(lipo)     H(rot)  DE(clash)    DE(int)     intcor
     18.10     -20.18       1.25        0.00     115.48       1.17       0.04       2.04       ----

> <Gold.Chemscore.Fitness>
18.0976

> <Gold.Chemscore.DG>
-20.1792

> <Gold.Chemscore.ZeroCoef>
-5.4800

> <Gold.Chemscore.Hbond>
1.2547

> <Gold.Chemscore.Metal>
0.0000

> <Gold.Chemscore.Lipo>
115.4833

> <Gold.Chemscore.Internal_Hbond>
0.0000

> <Gold.Chemscore.DEClash>
0.0400

> <Gold.Chemscore.DEInternal>
2.0415

> <Gold.Chemscore.Rot>
1.1731

> <Gold.Chemscore.Internal.Correction>
   9.000000E+99

> <Gold.Chemscore.Hbonds>
donor molecule, donor type, donor heavy atom, donor atom, acceptor molecule, acceptor atom, score
      L1  H     3    26       P1  7948  0.98
      L1  H    20    54       P1 10186  0.11

> <Gold.Chemscore.Hbond.Weighted>
-4.1909

> <Gold.Chemscore.Metal.Weighted>
-0.0000

> <Gold.Chemscore.Lipo.Weighted>
-13.5115

> <Gold.Chemscore.Internal_Hbond.Weighted>
0.0000

> <Gold.Chemscore.DEClash.Weighted>
0.0400

> <Gold.Chemscore.DEInternal.Weighted>
2.0415

> <Gold.Chemscore.Rot.Weighted>
3.0032

> <Gold.Chemscore.Internal.Correction.Weighted>
   9.000000E+99

> <Gold.Protein.RotatedTorsions>
[ 6907 6896 6895 6894 ] final  -31.51 input  -60.11 | X-H torsion
[ 7974 7965 7964 7962 ] final  174.51 input  175.53 | X-H torsion
[ 8008 7997 7996 7995 ] final  161.55 input   59.86 | X-H torsion
[ 10167 10162 10161 10158 ] final   42.65 input  -65.29 | X-H torsion
[ 10718 10713 10712 10709 ] final  -36.39 input   66.30 | X-H torsion
[ 10763 10752 10751 10750 ] final   39.67 input  -60.55 | X-H torsion
[ 11005 11000 10999 10996 ] final  159.49 input  -57.11 | X-H torsion

> <Gold.Protein.ActiveResidues>
 VAL166  LYS551  ARG553  GLY616  TRP617  ASP618  TYR619  PRO620  LYS621  CYS622 
 ASP623  PHE694  ASN695  SER759  ASP760  ASP761  ALA762  ILE779  LEU786  VAL792 
 PHE793  MET794  SER795  GLU796  ALA797  LYS798  CYS799  TRP800  GLU811  SER814 

> <Gold.Protein.RotatedAtoms>
  151.0912  134.9917  159.8403 H   0  0  0  0  0  0  0  0  0  0  0  0  # atno 6907 bound_to 6896
  152.5429  134.2063  159.8742 H   0  0  0  0  0  0  0  0  0  0  0  0  # atno 6908 bound_to 6896
  151.2100  133.4517  159.2631 H   0  0  0  0  0  0  0  0  0  0  0  0  # atno 6909 bound_to 6896
  144.7220  139.9808  143.6438 H   0  0  0  0  0  0  0  0  0  0  0  0  # atno 7974 bound_to 7965
  156.2095  140.1774  156.7726 H   0  0  0  0  0  0  0  0  0  0  0  0  # atno 8008 bound_to 7997
  154.5702  140.0684  156.8982 H   0  0  0  0  0  0  0  0  0  0  0  0  # atno 8009 bound_to 7997
  155.2687  140.3341  155.4269 H   0  0  0  0  0  0  0  0  0  0  0  0  # atno 8010 bound_to 7997
  140.3523  144.2334  150.6144 H   0  0  0  0  0  0  0  0  0  0  0  0  # atno 10167 bound_to 10162
  156.3274  130.4274  149.7904 H   0  0  0  0  0  0  0  0  0  0  0  0  # atno 10718 bound_to 10713
  152.9960  135.6213  154.2503 H   0  0  0  0  0  0  0  0  0  0  0  0  # atno 10763 bound_to 10752
  154.2242  135.2794  155.2915 H   0  0  0  0  0  0  0  0  0  0  0  0  # atno 10764 bound_to 10752
  154.5503  135.5735  153.6975 H   0  0  0  0  0  0  0  0  0  0  0  0  # atno 10765 bound_to 10752
  140.1967  134.8368  157.2973 H   0  0  0  0  0  0  0  0  0  0  0  0  # atno 11005 bound_to 11000
  146.0489  139.3492  143.0651 LP  0  0  0  0  0  0  0  0  0  0  0  0  # atno 17320 bound_to 7965
  145.8240  140.9664  143.0884 LP  0  0  0  0  0  0  0  0  0  0  0  0  # atno 17321 bound_to 7965
  140.5207  143.2266  151.8393 LP  0  0  0  0  0  0  0  0  0  0  0  0  # atno 17342 bound_to 10162
  139.4825  144.4840  151.9270 LP  0  0  0  0  0  0  0  0  0  0  0  0  # atno 17343 bound_to 10162
  156.5189  130.8206  151.3196 LP  0  0  0  0  0  0  0  0  0  0  0  0  # atno 17370 bound_to 10713
  157.7424  130.9889  150.2512 LP  0  0  0  0  0  0  0  0  0  0  0  0  # atno 17371 bound_to 10713
  140.2099  134.4151  155.7618 LP  0  0  0  0  0  0  0  0  0  0  0  0  # atno 17394 bound_to 11000
  141.2227  133.7113  156.8321 LP  0  0  0  0  0  0  0  0  0  0  0  0  # atno 17395 bound_to 11000

$$$$
