AV-unprocessed.smi:2092|AV-procd|sdf|8543|dock4
  -GOLD-   2272011263D 1   1.00000     0.00000
 Structure written by MMmdl.
 44 45  0  0  0  0  0  0  0  0  1 V2000
  152.7268  140.1539  159.8955 C   0  0  0  0  0  0  0  0  0  0  0  0
  151.7681  140.9086  158.9624 C   0  0  1  0  0  0  0  0  0  0  0  0
  152.1025  142.2927  159.0315 O   0  0  0  0  0  0  0  0  0  0  0  0
  151.0262  143.1996  158.8115 C   0  0  0  0  0  0  0  0  0  0  0  0
  151.4610  144.6126  159.2180 C   0  0  0  0  0  0  0  0  0  0  0  0
  152.0115  144.5710  160.4308 F   0  0  0  0  0  0  0  0  0  0  0  0
  152.3617  145.0826  158.3558 F   0  0  0  0  0  0  0  0  0  0  0  0
  150.4073  145.4276  159.2542 F   0  0  0  0  0  0  0  0  0  0  0  0
  151.8753  140.3990  157.5157 C   0  0  0  0  0  0  0  0  0  0  0  0
  152.7777  139.6251  157.1956 O   0  0  0  0  0  0  0  0  0  0  0  0
  150.9522  140.8561  156.6562 N   0  0  0  0  0  0  0  0  0  0  0  0
  150.8448  140.4927  155.2462 C   0  0  0  0  0  0  0  0  0  0  0  0
  149.4103  140.3513  154.7607 C   0  0  0  0  0  0  0  0  0  0  0  0
  148.9384  139.1683  154.1522 C   0  0  0  0  0  0  0  0  0  0  0  0
  147.5951  139.1198  153.7356 C   0  0  0  0  0  0  0  0  0  0  0  0
  146.7361  140.1498  153.8828 N   0  0  0  0  0  0  0  0  0  0  0  0
  147.1821  141.2975  154.4504 C   0  0  0  0  0  0  0  0  0  0  0  0
  146.2787  142.3725  154.5885 N   0  0  0  0  0  0  0  0  0  0  0  0
  145.8972  143.0339  153.3436 C   0  0  0  0  0  0  0  0  0  0  0  0
  145.1718  144.3573  153.6420 C   0  0  0  0  0  0  0  0  0  0  0  0
  144.0625  144.1162  154.5017 O   0  0  0  0  0  0  0  0  0  0  0  0
  144.4703  143.5717  155.7526 C   0  0  0  0  0  0  0  0  0  0  0  0
  145.1683  142.2199  155.5263 C   0  0  0  0  0  0  0  0  0  0  0  0
  148.5161  141.4321  154.9032 C   0  0  0  0  0  0  0  0  0  0  0  0
  152.5415  139.0794  159.8710 H   0  0  0  0  0  0  0  0  0  0  0  0
  152.6029  140.4857  160.9266 H   0  0  0  0  0  0  0  0  0  0  0  0
  153.7690  140.3212  159.6209 H   0  0  0  0  0  0  0  0  0  0  0  0
  150.7503  140.7634  159.3299 H   0  0  0  0  0  0  0  0  0  0  0  0
  150.7262  143.1997  157.7629 H   0  0  0  0  0  0  0  0  0  0  0  0
  150.1583  142.8992  159.4003 H   0  0  0  0  0  0  0  0  0  0  0  0
  150.2531  141.4922  157.0113 H   0  0  0  0  0  0  0  0  0  0  0  0
  151.3459  141.2658  154.6627 H   0  0  0  0  0  0  0  0  0  0  0  0
  151.3633  139.5572  155.0310 H   0  0  0  0  0  0  0  0  0  0  0  0
  149.5812  138.3135  154.0013 H   0  0  0  0  0  0  0  0  0  0  0  0
  147.1993  138.2296  153.2696 H   0  0  0  0  0  0  0  0  0  0  0  0
  146.7619  143.2364  152.7130 H   0  0  0  0  0  0  0  0  0  0  0  0
  145.2421  142.3684  152.7796 H   0  0  0  0  0  0  0  0  0  0  0  0
  145.8516  145.0776  154.1001 H   0  0  0  0  0  0  0  0  0  0  0  0
  144.8120  144.8046  152.7155 H   0  0  0  0  0  0  0  0  0  0  0  0
  145.1321  144.2703  156.2672 H   0  0  0  0  0  0  0  0  0  0  0  0
  143.5927  143.4396  156.3855 H   0  0  0  0  0  0  0  0  0  0  0  0
  144.4562  141.4948  155.1301 H   0  0  0  0  0  0  0  0  0  0  0  0
  145.5313  141.8350  156.4802 H   0  0  0  0  0  0  0  0  0  0  0  0
  148.8534  142.3457  155.3702 H   0  0  0  0  0  0  0  0  0  0  0  0
  1  2  1  0  0  0  0
  1 25  1  0  0  0  0
  1 26  1  0  0  0  0
  1 27  1  0  0  0  0
  2  3  1  0  0  0  0
  2  9  1  0  0  0  0
  2 28  1  0  0  0  0
  3  4  1  0  0  0  0
  4  5  1  0  0  0  0
  4 29  1  0  0  0  0
  4 30  1  0  0  0  0
  5  6  1  0  0  0  0
  5  7  1  0  0  0  0
  5  8  1  0  0  0  0
  9 10  2  0  0  0  0
  9 11  1  0  0  0  0
 11 12  1  0  0  0  0
 11 31  1  0  0  0  0
 12 13  1  0  0  0  0
 12 32  1  0  0  0  0
 12 33  1  0  0  0  0
 13 24  1  0  0  0  0
 13 14  2  0  0  0  0
 14 15  1  0  0  0  0
 14 34  1  0  0  0  0
 15 16  2  0  0  0  0
 15 35  1  0  0  0  0
 16 17  1  0  0  0  0
 17 18  1  0  0  0  0
 17 24  2  0  0  0  0
 18 23  1  0  0  0  0
 18 19  1  0  0  0  0
 19 20  1  0  0  0  0
 19 36  1  0  0  0  0
 19 37  1  0  0  0  0
 20 21  1  0  0  0  0
 20 38  1  0  0  0  0
 20 39  1  0  0  0  0
 21 22  1  0  0  0  0
 22 23  1  0  0  0  0
 22 40  1  0  0  0  0
 22 41  1  0  0  0  0
 23 42  1  0  0  0  0
 23 43  1  0  0  0  0
 24 44  1  0  0  0  0
M  END
> <s_m_source_file>
AV-unprocessed.smi

> <i_m_source_file_index>
2092

> <i_lp_mmshare_version>
43012

> <i_f3d_flags>
0

> <s_epik_input>
RkMoRikoRilbQ0gyXU9bQ0BASF0oW0NIM10pQyg9TylbTkhdW0NIMl1jMVtjSF1bY0hdbmMoW2NIXTEpTjJbQ0gyXVtDSDJdT1tDSDJdW0NIMl0y

> <s_epik_cmdline>
J2VwaWtfcHl0aG9uJywgJy1waCcsICc3LjAnLCAnLXRuJywgJzgnLCAnLW1hJywgJzIwMCcsICctbWV0YWxfYmluZGluZycsICctaW1hZScsICc8aW5maWxlLm1hZT4nLCAnLW9tYWUnLCAnPG91dGZpbGUubWFlPic=

> <r_lp_tautomer_probability>
1

> <r_epik_Ionization_Penalty>
0.00451782

> <r_epik_Ionization_Penalty_Charging>
0

> <r_epik_Ionization_Penalty_Neutral>
0.00451782

> <r_epik_State_Penalty>
0.00326147

> <r_epik_Charging_Adjusted_Penalty>
0.00326147

> <i_epik_Tot_Q>
0

> <i_epik_Tot_abs_Q>
0

> <r_epik_Metal_State_Penalty>
-0

> <b_epik_Metal_Only>
0

> <s_lp_Force_Field>
OPLS_2005

> <r_lp_Energy>
17.1262

> <b_lp_Chiralities_Consistent>
1

> <s_lp_Variant>
AV-unprocessed.smi:2092-2

> <Gold.Version>
5.8.1

> <Gold.Id.Protein>
6NUR|6NUR_protein|mol2

> <Gold.PLP.Fitness>
46.9762

> <Gold.PLP.PLP>
-45.4153

> <Gold.PLP.part.hbond>
-1.0000

> <Gold.PLP.part.metal>
0.0000

> <Gold.PLP.part.buried>
-6.4856

> <Gold.PLP.part.nonpolar>
-38.2488

> <Gold.PLP.part.repulsive>
0.5436

> <Gold.PLP.ligand.clash>
0.0000

> <Gold.PLP.ligand.torsion>
0.9851

> <Gold.PLP.Chemscore.Hbond>
1.0000

> <Gold.PLP.Chemscore.CHOScore>
0.0000

> <Gold.PLP.Chemscore.Metal>
0.0000

> <Gold.Chemscore.Hbonds>
donor molecule, donor type, donor heavy atom, donor atom, acceptor molecule, acceptor atom, score
      P1  H  7997  8009       L1    10  1.00

> <Gold.PLP.Chemscore.Internal.Correction>
0.5309

> <Gold.Rescore>
     Score         DG    S(hbond)    S(metal)    S(lipo)     H(rot)  DE(clash)    DE(int)     intcor
     10.53     -11.59       0.98        0.00      78.67       2.49       0.12       0.95       ----

> <Gold.Chemscore.Fitness>
10.5283

> <Gold.Chemscore.DG>
-11.5907

> <Gold.Chemscore.ZeroCoef>
-5.4800

> <Gold.Chemscore.Hbond>
0.9823

> <Gold.Chemscore.Metal>
0.0000

> <Gold.Chemscore.Lipo>
78.6652

> <Gold.Chemscore.Internal_Hbond>
0.0000

> <Gold.Chemscore.DEClash>
0.1156

> <Gold.Chemscore.DEInternal>
0.9468

> <Gold.Chemscore.Rot>
2.4899

> <Gold.Chemscore.Internal.Correction>
   9.000000E+99

> <Gold.Chemscore.Hbonds>
donor molecule, donor type, donor heavy atom, donor atom, acceptor molecule, acceptor atom, score
      P1  H  7997  8009       L1    10  1.00

> <Gold.Chemscore.Hbond.Weighted>
-3.2810

> <Gold.Chemscore.Metal.Weighted>
-0.0000

> <Gold.Chemscore.Lipo.Weighted>
-9.2038

> <Gold.Chemscore.Internal_Hbond.Weighted>
0.0000

> <Gold.Chemscore.DEClash.Weighted>
0.1156

> <Gold.Chemscore.DEInternal.Weighted>
0.9468

> <Gold.Chemscore.Rot.Weighted>
6.3741

> <Gold.Chemscore.Internal.Correction.Weighted>
   9.000000E+99

> <Gold.Protein.RotatedTorsions>
[ 6907 6896 6895 6894 ] final  -59.73 input  -60.11 | X-H torsion
[ 7974 7965 7964 7962 ] final   26.55 input  175.53 | X-H torsion
[ 8008 7997 7996 7995 ] final  173.41 input   59.86 | X-H torsion
[ 10167 10162 10161 10158 ] final  -39.19 input  -65.29 | X-H torsion
[ 10718 10713 10712 10709 ] final   37.22 input   66.30 | X-H torsion
[ 10763 10752 10751 10750 ] final  155.59 input  -60.55 | X-H torsion
[ 11005 11000 10999 10996 ] final -120.82 input  -57.11 | X-H torsion

> <Gold.Protein.ActiveResidues>
 VAL166  LYS551  ARG553  GLY616  TRP617  ASP618  TYR619  PRO620  LYS621  CYS622 
 ASP623  PHE694  ASN695  SER759  ASP760  ASP761  ALA762  ILE779  LEU786  VAL792 
 PHE793  MET794  SER795  GLU796  ALA797  LYS798  CYS799  TRP800  GLU811  SER814 

> <Gold.Protein.RotatedAtoms>
  150.7908  134.6930  159.6506 H   0  0  0  0  0  0  0  0  0  0  0  0  # atno 6907 bound_to 6896
  152.4013  134.6278  160.0077 H   0  0  0  0  0  0  0  0  0  0  0  0  # atno 6908 bound_to 6896
  151.6549  133.3282  159.3196 H   0  0  0  0  0  0  0  0  0  0  0  0  # atno 6909 bound_to 6896
  146.1832  139.7313  142.8886 H   0  0  0  0  0  0  0  0  0  0  0  0  # atno 7974 bound_to 7965
  156.1078  140.1461  156.9381 H   0  0  0  0  0  0  0  0  0  0  0  0  # atno 8008 bound_to 7997
  154.4746  140.0899  156.7273 H   0  0  0  0  0  0  0  0  0  0  0  0  # atno 8009 bound_to 7997
  155.4650  140.3439  155.4320 H   0  0  0  0  0  0  0  0  0  0  0  0  # atno 8010 bound_to 7997
  140.7071  143.3230  151.2747 H   0  0  0  0  0  0  0  0  0  0  0  0  # atno 10167 bound_to 10162
  157.3443  130.7564  149.6934 H   0  0  0  0  0  0  0  0  0  0  0  0  # atno 10718 bound_to 10713
  154.1708  135.2804  155.3081 H   0  0  0  0  0  0  0  0  0  0  0  0  # atno 10763 bound_to 10752
  154.6076  135.5509  153.7443 H   0  0  0  0  0  0  0  0  0  0  0  0  # atno 10764 bound_to 10752
  153.0165  135.6407  154.1849 H   0  0  0  0  0  0  0  0  0  0  0  0  # atno 10765 bound_to 10752
  141.0116  134.0256  157.3406 H   0  0  0  0  0  0  0  0  0  0  0  0  # atno 11005 bound_to 11000
  145.4017  141.0386  143.3067 LP  0  0  0  0  0  0  0  0  0  0  0  0  # atno 17320 bound_to 7965
  144.8350  139.5565  143.6926 LP  0  0  0  0  0  0  0  0  0  0  0  0  # atno 17321 bound_to 7965
  139.6689  144.0055  152.2741 LP  0  0  0  0  0  0  0  0  0  0  0  0  # atno 17342 bound_to 10162
  139.9647  144.6534  150.8046 LP  0  0  0  0  0  0  0  0  0  0  0  0  # atno 17343 bound_to 10162
  155.9712  130.4158  150.4202 LP  0  0  0  0  0  0  0  0  0  0  0  0  # atno 17370 bound_to 10713
  157.2255  131.0492  151.2522 LP  0  0  0  0  0  0  0  0  0  0  0  0  # atno 17371 bound_to 10713
  139.9093  135.0187  156.7622 LP  0  0  0  0  0  0  0  0  0  0  0  0  # atno 17394 bound_to 11000
  140.6724  133.9547  155.7864 LP  0  0  0  0  0  0  0  0  0  0  0  0  # atno 17395 bound_to 11000

$$$$
