AV-unprocessed.smi:2557|AV-procd|sdf|10030|dock5
  -GOLD-   2272014 73D 1   1.00000     0.00000
 Structure written by MMmdl.
 38 40  0  0  0  0  0  0  0  0  2 V2000
  151.8329  136.8530  154.5459 O   0  5  0  0  0  0  0  0  0  0  0  0
  151.0287  137.3303  155.3811 C   0  0  0  0  0  0  0  0  0  0  0  0
  151.0922  138.4442  156.2232 C   0  0  0  0  0  0  0  0  0  0  0  0
  152.2712  139.3493  156.2211 C   0  0  0  0  0  0  0  0  0  0  0  0
  153.2519  139.1513  155.5048 O   0  0  0  0  0  0  0  0  0  0  0  0
  152.2547  140.4671  157.0696 N   0  0  0  0  0  0  0  0  0  0  0  0
  151.2290  140.6848  157.8361 C   0  0  0  0  0  0  0  0  0  0  0  0
  151.1735  141.8873  158.7822 C   0  0  0  0  0  0  0  0  0  0  0  0
  151.1098  143.2507  158.0518 C   0  0  0  0  0  0  0  0  0  0  0  0
  151.0123  144.4198  159.0451 C   0  0  0  0  0  0  0  0  0  0  0  0
  152.1807  144.3993  160.0419 C   0  0  0  0  0  0  0  0  0  0  0  0
  152.2543  143.0532  160.7784 C   0  0  0  0  0  0  0  0  0  0  0  0
  152.3443  141.8772  159.7913 C   0  0  0  0  0  0  0  0  0  0  0  0
  150.1063  139.8804  157.9079 N   0  0  0  0  0  0  0  0  0  0  0  0
  150.0448  138.7605  157.0873 N   0  0  0  0  0  0  0  0  0  0  0  0
  149.8456  136.4512  155.4564 C   0  0  0  0  0  0  0  0  0  0  0  0
  149.9782  135.0770  155.7545 C   0  0  0  0  0  0  0  0  0  0  0  0
  148.8183  134.2797  155.8076 C   0  0  0  0  0  0  0  0  0  0  0  0
  147.5762  134.7598  155.5849 N   0  0  0  0  0  0  0  0  0  0  0  0
  147.4531  136.0722  155.2922 C   0  0  0  0  0  0  0  0  0  0  0  0
  148.5483  136.9546  155.2150 C   0  0  0  0  0  0  0  0  0  0  0  0
  150.2481  141.7930  159.3531 H   0  0  0  0  0  0  0  0  0  0  0  0
  151.9963  143.3875  157.4303 H   0  0  0  0  0  0  0  0  0  0  0  0
  150.2516  143.2782  157.3788 H   0  0  0  0  0  0  0  0  0  0  0  0
  151.0018  145.3665  158.5045 H   0  0  0  0  0  0  0  0  0  0  0  0
  150.0674  144.3621  159.5871 H   0  0  0  0  0  0  0  0  0  0  0  0
  153.1171  144.5786  159.5122 H   0  0  0  0  0  0  0  0  0  0  0  0
  152.0711  145.2118  160.7606 H   0  0  0  0  0  0  0  0  0  0  0  0
  153.1153  143.0428  161.4474 H   0  0  0  0  0  0  0  0  0  0  0  0
  151.3724  142.9338  161.4090 H   0  0  0  0  0  0  0  0  0  0  0  0
  152.3595  140.9431  160.3542 H   0  0  0  0  0  0  0  0  0  0  0  0
  153.2929  141.9274  159.2543 H   0  0  0  0  0  0  0  0  0  0  0  0
  149.3165  140.0568  158.5117 H   0  0  0  0  0  0  0  0  0  0  0  0
  149.2159  138.1844  157.1241 H   0  0  0  0  0  0  0  0  0  0  0  0
  150.9514  134.6455  155.9377 H   0  0  0  0  0  0  0  0  0  0  0  0
  148.8903  133.2266  156.0356 H   0  0  0  0  0  0  0  0  0  0  0  0
  146.4503  136.4314  155.1149 H   0  0  0  0  0  0  0  0  0  0  0  0
  148.3983  137.9973  154.9771 H   0  0  0  0  0  0  0  0  0  0  0  0
  1  2  1  0  0  0  0
  2  3  2  0  0  0  0
  2 16  1  0  0  0  0
  3 15  1  0  0  0  0
  3  4  1  0  0  0  0
  4  5  2  0  0  0  0
  4  6  1  0  0  0  0
  6  7  2  0  0  0  0
  7  8  1  0  0  0  0
  7 14  1  0  0  0  0
  8 13  1  0  0  0  0
  8  9  1  0  0  0  0
  8 22  1  0  0  0  0
  9 10  1  0  0  0  0
  9 23  1  0  0  0  0
  9 24  1  0  0  0  0
 10 11  1  0  0  0  0
 10 25  1  0  0  0  0
 10 26  1  0  0  0  0
 11 12  1  0  0  0  0
 11 27  1  0  0  0  0
 11 28  1  0  0  0  0
 12 13  1  0  0  0  0
 12 29  1  0  0  0  0
 12 30  1  0  0  0  0
 13 31  1  0  0  0  0
 13 32  1  0  0  0  0
 14 15  1  0  0  0  0
 14 33  1  0  0  0  0
 15 34  1  0  0  0  0
 16 21  1  0  0  0  0
 16 17  2  0  0  0  0
 17 18  1  0  0  0  0
 17 35  1  0  0  0  0
 18 19  2  0  0  0  0
 18 36  1  0  0  0  0
 19 20  1  0  0  0  0
 20 21  2  0  0  0  0
 20 37  1  0  0  0  0
 21 38  1  0  0  0  0
M  CHG  1   1  -1
M  END
> <s_m_source_file>
AV-unprocessed.smi

> <i_m_source_file_index>
2557

> <i_lp_mmshare_version>
43012

> <i_f3d_flags>
0

> <s_epik_input>
W2NIXTFbY0hdbltjSF1bY0hdYzFDKD1PKUMyPUMoW09IXSlOPUMoW05IXVtOSF0yKVtDSF0zW0NIMl1bQ0gyXVtDSDJdW0NIMl1bQ0gyXTM=

> <s_epik_cmdline>
J2VwaWtfcHl0aG9uJywgJy1waCcsICc3LjAnLCAnLXRuJywgJzgnLCAnLW1hJywgJzIwMCcsICctbWV0YWxfYmluZGluZycsICctaW1hZScsICc8aW5maWxlLm1hZT4nLCAnLW9tYWUnLCAnPG91dGZpbGUubWFlPic=

> <r_epik_Ionization_Penalty>
0.904364

> <r_epik_Ionization_Penalty_Charging>
0.00179702

> <r_epik_Ionization_Penalty_Neutral>
0.902567

> <r_epik_State_Penalty>
2.26092

> <r_epik_Charging_Adjusted_Penalty>
2.26271

> <i_epik_Tot_Q>
-1

> <i_epik_Tot_abs_Q>
1

> <r_epik_Metal_State_Penalty>
1.86017

> <b_epik_Metal_Only>
0

> <s_epik_Chemistry_Notes>
This compound has an imine and may undergo hydrolysis.

> <s_lp_Force_Field>
OPLS_2005

> <r_lp_Energy>
33.3792

> <b_lp_Chiralities_Consistent>
1

> <s_lp_Variant>
AV-unprocessed.smi:2557-4

> <Gold.Version>
5.8.1

> <Gold.Id.Protein>
6NUR|6NUR_protein|mol2

> <Gold.PLP.Fitness>
40.3831

> <Gold.PLP.PLP>
-31.4268

> <Gold.PLP.part.hbond>
-2.9188

> <Gold.PLP.part.metal>
0.0000

> <Gold.PLP.part.buried>
-3.9991

> <Gold.PLP.part.nonpolar>
-26.2973

> <Gold.PLP.part.repulsive>
0.6331

> <Gold.PLP.ligand.clash>
0.0000

> <Gold.PLP.ligand.torsion>
1.1014

> <Gold.PLP.Chemscore.Hbond>
3.0000

> <Gold.PLP.Chemscore.CHOScore>
0.0000

> <Gold.PLP.Chemscore.Metal>
0.0000

> <Gold.Chemscore.Hbonds>
donor molecule, donor type, donor heavy atom, donor atom, acceptor molecule, acceptor atom, score
      P1  H  7997  8009       L1     5  1.00
      P1  H 10752 10763       L1     1  2.00

> <Gold.PLP.Chemscore.Internal.Correction>
2.1590

> <Gold.Rescore>
     Score         DG    S(hbond)    S(metal)    S(lipo)     H(rot)  DE(clash)    DE(int)     intcor
     17.17     -18.41       1.84        0.00      79.77       1.00       0.01       1.23       ----

> <Gold.Chemscore.Fitness>
17.1710

> <Gold.Chemscore.DG>
-18.4105

> <Gold.Chemscore.ZeroCoef>
-5.4800

> <Gold.Chemscore.Hbond>
1.8437

> <Gold.Chemscore.Metal>
0.0000

> <Gold.Chemscore.Lipo>
79.7657

> <Gold.Chemscore.Internal_Hbond>
0.0000

> <Gold.Chemscore.DEClash>
0.0093

> <Gold.Chemscore.DEInternal>
1.2302

> <Gold.Chemscore.Rot>
1.0000

> <Gold.Chemscore.Internal.Correction>
   9.000000E+99

> <Gold.Chemscore.Hbonds>
donor molecule, donor type, donor heavy atom, donor atom, acceptor molecule, acceptor atom, score
      P1  H  7997  8009       L1     5  0.39
      P1  H 10752 10763       L1     1  0.99

> <Gold.Chemscore.Hbond.Weighted>
-6.1579

> <Gold.Chemscore.Metal.Weighted>
-0.0000

> <Gold.Chemscore.Lipo.Weighted>
-9.3326

> <Gold.Chemscore.Internal_Hbond.Weighted>
0.0000

> <Gold.Chemscore.DEClash.Weighted>
0.0093

> <Gold.Chemscore.DEInternal.Weighted>
1.2302

> <Gold.Chemscore.Rot.Weighted>
2.5600

> <Gold.Chemscore.Internal.Correction.Weighted>
   9.000000E+99

> <Gold.Protein.RotatedTorsions>
[ 6907 6896 6895 6894 ] final  143.16 input  -60.11 | X-H torsion
[ 7974 7965 7964 7962 ] final  -76.00 input  175.53 | X-H torsion
[ 8008 7997 7996 7995 ] final -152.59 input   59.86 | X-H torsion
[ 10167 10162 10161 10158 ] final  -66.08 input  -65.29 | X-H torsion
[ 10718 10713 10712 10709 ] final  -96.77 input   66.30 | X-H torsion
[ 10763 10752 10751 10750 ] final   50.04 input  -60.55 | X-H torsion
[ 11005 11000 10999 10996 ] final   22.53 input  -57.11 | X-H torsion

> <Gold.Protein.ActiveResidues>
 VAL166  LYS551  ARG553  GLY616  TRP617  ASP618  TYR619  PRO620  LYS621  CYS622 
 ASP623  PHE694  ASN695  SER759  ASP760  ASP761  ALA762  ILE779  LEU786  VAL792 
 PHE793  MET794  SER795  GLU796  ALA797  LYS798  CYS799  TRP800  GLU811  SER814 

> <Gold.Protein.RotatedAtoms>
  152.2098  133.4902  159.5103 H   0  0  0  0  0  0  0  0  0  0  0  0  # atno 6907 bound_to 6896
  150.6987  134.1482  159.4139 H   0  0  0  0  0  0  0  0  0  0  0  0  # atno 6908 bound_to 6896
  151.9401  135.0217  160.0586 H   0  0  0  0  0  0  0  0  0  0  0  0  # atno 6909 bound_to 6896
  145.6186  140.9369  143.1150 H   0  0  0  0  0  0  0  0  0  0  0  0  # atno 7974 bound_to 7965
  155.6575  140.0719  157.2565 H   0  0  0  0  0  0  0  0  0  0  0  0  # atno 8008 bound_to 7997
  154.4149  140.1722  156.1792 H   0  0  0  0  0  0  0  0  0  0  0  0  # atno 8009 bound_to 7997
  155.9725  140.3361  155.6591 H   0  0  0  0  0  0  0  0  0  0  0  0  # atno 8010 bound_to 7997
  140.5683  143.2316  151.6590 H   0  0  0  0  0  0  0  0  0  0  0  0  # atno 10167 bound_to 10162
  156.0069  130.5165  150.6275 H   0  0  0  0  0  0  0  0  0  0  0  0  # atno 10718 bound_to 10713
  152.9785  135.5892  154.4187 H   0  0  0  0  0  0  0  0  0  0  0  0  # atno 10763 bound_to 10752
  154.3814  135.2767  155.2211 H   0  0  0  0  0  0  0  0  0  0  0  0  # atno 10764 bound_to 10752
  154.4123  135.6078  153.6014 H   0  0  0  0  0  0  0  0  0  0  0  0  # atno 10765 bound_to 10752
  140.3796  134.1935  155.7664 H   0  0  0  0  0  0  0  0  0  0  0  0  # atno 11005 bound_to 11000
  144.7240  139.7935  143.7371 LP  0  0  0  0  0  0  0  0  0  0  0  0  # atno 17320 bound_to 7965
  146.1449  139.4515  143.0085 LP  0  0  0  0  0  0  0  0  0  0  0  0  # atno 17321 bound_to 7965
  139.5104  144.3544  152.0622 LP  0  0  0  0  0  0  0  0  0  0  0  0  # atno 17342 bound_to 10162
  140.2678  144.3997  150.6162 LP  0  0  0  0  0  0  0  0  0  0  0  0  # atno 17343 bound_to 10162
  157.4079  131.0819  151.1248 LP  0  0  0  0  0  0  0  0  0  0  0  0  # atno 17370 bound_to 10713
  157.1889  130.6343  149.5697 LP  0  0  0  0  0  0  0  0  0  0  0  0  # atno 17371 bound_to 10713
  141.1928  133.8165  157.0825 LP  0  0  0  0  0  0  0  0  0  0  0  0  # atno 17394 bound_to 11000
  140.0489  134.9816  157.1100 LP  0  0  0  0  0  0  0  0  0  0  0  0  # atno 17395 bound_to 11000

$$$$
