AV-unprocessed.smi:658|AV-procd|sdf|3232|dock2
  -GOLD-   22720 0173D 1   1.00000     0.00000
 Structure written by MMmdl.
 38 38  0  0  0  0  0  0  0  0  2 V2000
  150.7304  142.0458  156.1940 C   0  0  0  0  0  0  0  0  0  0  0  0
  150.0233  141.7937  157.5426 C   0  0  2  0  0  0  0  0  0  0  0  0
  148.9105  142.7547  157.7241 N   0  3  0  0  0  0  0  0  0  0  0  0
  147.5854  142.1515  157.9792 C   0  0  0  0  0  0  0  0  0  0  0  0
  146.5053  143.2343  158.0915 C   0  0  0  0  0  0  0  0  0  0  0  0
  145.9062  143.3227  159.5019 C   0  0  0  0  0  0  0  0  0  0  0  0
  146.8945  144.4364  160.5906 S   0  0  0  0  0  0  0  0  0  0  0  0
  146.7988  145.9362  159.7552 N   0  0  0  0  0  0  0  0  0  0  0  0
  146.1966  144.6031  161.8745 O   0  0  0  0  0  0  0  0  0  0  0  0
  148.2994  144.0053  160.5462 O   0  0  0  0  0  0  0  0  0  0  0  0
  150.9904  141.8773  158.7544 C   0  0  1  0  0  0  0  0  0  0  0  0
  152.2478  141.0056  158.5688 C   0  0  0  0  0  0  0  0  0  0  0  0
  151.3785  143.2491  159.0598 N   0  0  0  0  0  0  0  0  0  0  0  0
  152.0816  144.1347  158.2686 C   0  0  0  0  0  0  0  0  0  0  0  0
  152.2054  145.2997  158.9697 C   0  0  0  0  0  0  0  0  0  0  0  0
  151.5335  145.0309  160.1946 C   0  0  0  0  0  0  0  0  0  0  0  0
  151.0386  143.8047  160.2453 N   0  0  0  0  0  0  0  0  0  0  0  0
  151.5157  141.3142  156.0044 H   0  0  0  0  0  0  0  0  0  0  0  0
  151.1876  143.0354  156.1673 H   0  0  0  0  0  0  0  0  0  0  0  0
  150.0396  141.9779  155.3545 H   0  0  0  0  0  0  0  0  0  0  0  0
  149.6008  140.7877  157.5221 H   0  0  0  0  0  0  0  0  0  0  0  0
  149.1337  143.3268  158.5262 H   0  0  0  0  0  0  0  0  0  0  0  0
  147.3287  141.4610  157.1759 H   0  0  0  0  0  0  0  0  0  0  0  0
  147.6258  141.5728  158.9029 H   0  0  0  0  0  0  0  0  0  0  0  0
  146.9298  144.2016  157.8190 H   0  0  0  0  0  0  0  0  0  0  0  0
  145.7119  143.0294  157.3717 H   0  0  0  0  0  0  0  0  0  0  0  0
  144.8951  143.7278  159.4494 H   0  0  0  0  0  0  0  0  0  0  0  0
  145.8417  142.3443  159.9789 H   0  0  0  0  0  0  0  0  0  0  0  0
  146.9637  145.8479  158.7525 H   0  0  0  0  0  0  0  0  0  0  0  0
  147.3169  146.6856  160.2137 H   0  0  0  0  0  0  0  0  0  0  0  0
  150.4590  141.5041  159.6315 H   0  0  0  0  0  0  0  0  0  0  0  0
  151.9954  139.9497  158.4703 H   0  0  0  0  0  0  0  0  0  0  0  0
  152.9163  141.0977  159.4255 H   0  0  0  0  0  0  0  0  0  0  0  0
  152.8089  141.2958  157.6797 H   0  0  0  0  0  0  0  0  0  0  0  0
  152.4336  143.8659  157.2835 H   0  0  0  0  0  0  0  0  0  0  0  0
  152.6992  146.2072  158.6553 H   0  0  0  0  0  0  0  0  0  0  0  0
  151.3912  145.6856  161.0417 H   0  0  0  0  0  0  0  0  0  0  0  0
  148.8570  143.3518  156.9113 H   0  0  0  0  0  0  0  0  0  0  0  0
  1  2  1  0  0  0  0
  1 18  1  0  0  0  0
  1 19  1  0  0  0  0
  1 20  1  0  0  0  0
  2  3  1  0  0  0  0
  2 11  1  0  0  0  0
  2 21  1  0  0  0  0
  3  4  1  0  0  0  0
  3 22  1  0  0  0  0
  3 38  1  0  0  0  0
  4  5  1  0  0  0  0
  4 23  1  0  0  0  0
  4 24  1  0  0  0  0
  5  6  1  0  0  0  0
  5 25  1  0  0  0  0
  5 26  1  0  0  0  0
  6  7  1  0  0  0  0
  6 27  1  0  0  0  0
  6 28  1  0  0  0  0
  7  8  1  0  0  0  0
  7  9  2  0  0  0  0
  7 10  2  0  0  0  0
  8 29  1  0  0  0  0
  8 30  1  0  0  0  0
 11 12  1  0  0  0  0
 11 13  1  0  0  0  0
 11 31  1  0  0  0  0
 12 32  1  0  0  0  0
 12 33  1  0  0  0  0
 12 34  1  0  0  0  0
 13 17  1  0  0  0  0
 13 14  1  0  0  0  0
 14 15  2  0  0  0  0
 14 35  1  0  0  0  0
 15 16  1  0  0  0  0
 15 36  1  0  0  0  0
 16 17  2  0  0  0  0
 16 37  1  0  0  0  0
M  CHG  1   3   1
M  END
> <s_m_source_file>
AV-unprocessed.smi

> <i_m_source_file_index>
658

> <i_lp_mmshare_version>
43012

> <i_f3d_flags>
0

> <s_epik_input>
bjFbY0hdW2NIXVtjSF1uMVtDQEBIXShbQ0gzXSlbQ0BIXShbQ0gzXSlbTkhdW0NIMl1bQ0gyXVtDSDJdUyg9TykoPU8pW05IMl0=

> <s_epik_cmdline>
J2VwaWtfcHl0aG9uJywgJy1waCcsICc3LjAnLCAnLXRuJywgJzgnLCAnLW1hJywgJzIwMCcsICctbWV0YWxfYmluZGluZycsICctaW1hZScsICc8aW5maWxlLm1hZT4nLCAnLW9tYWUnLCAnPG91dGZpbGUubWFlPic=

> <r_lp_tautomer_probability>
1

> <r_epik_Ionization_Penalty>
0.00535781

> <r_epik_Ionization_Penalty_Charging>
0.00511015

> <r_epik_Ionization_Penalty_Neutral>
0.000247661

> <r_epik_State_Penalty>
-0

> <r_epik_Charging_Adjusted_Penalty>
0.00511015

> <i_epik_Tot_Q>
1

> <i_epik_Tot_abs_Q>
1

> <r_epik_Metal_State_Penalty>
0.149106

> <b_epik_Metal_Only>
0

> <s_lp_Force_Field>
OPLS_2005

> <r_lp_Energy>
7.04511

> <b_lp_Chiralities_Consistent>
1

> <s_lp_Variant>
AV-unprocessed.smi:658-3

> <Gold.Version>
5.8.1

> <Gold.Id.Protein>
6NUR|6NUR_protein|mol2

> <Gold.PLP.Fitness>
45.5916

> <Gold.PLP.PLP>
-36.0084

> <Gold.PLP.part.hbond>
-4.0369

> <Gold.PLP.part.metal>
0.0000

> <Gold.PLP.part.buried>
-6.2541

> <Gold.PLP.part.nonpolar>
-25.5523

> <Gold.PLP.part.repulsive>
0.3999

> <Gold.PLP.ligand.clash>
0.0000

> <Gold.PLP.ligand.torsion>
1.4125

> <Gold.PLP.Chemscore.Hbond>
4.0000

> <Gold.PLP.Chemscore.CHOScore>
0.0000

> <Gold.PLP.Chemscore.Metal>
0.0000

> <Gold.Chemscore.Hbonds>
donor molecule, donor type, donor heavy atom, donor atom, acceptor molecule, acceptor atom, score
      L1  H     3    38       P1  8028  2.00
      L1  H     8    29       P1  8029  1.00
      P1  H  6933  6944       L1    10  1.00

> <Gold.PLP.Chemscore.Internal.Correction>
0.4083

> <Gold.Rescore>
     Score         DG    S(hbond)    S(metal)    S(lipo)     H(rot)  DE(clash)    DE(int)     intcor
     14.42     -15.86       2.95        0.00      73.04       3.13       0.02       1.42       ----

> <Gold.Chemscore.Fitness>
14.4226

> <Gold.Chemscore.DG>
-15.8641

> <Gold.Chemscore.ZeroCoef>
-5.4800

> <Gold.Chemscore.Hbond>
2.9505

> <Gold.Chemscore.Metal>
0.0000

> <Gold.Chemscore.Lipo>
73.0369

> <Gold.Chemscore.Internal_Hbond>
0.0000

> <Gold.Chemscore.DEClash>
0.0243

> <Gold.Chemscore.DEInternal>
1.4172

> <Gold.Chemscore.Rot>
3.1312

> <Gold.Chemscore.Internal.Correction>
   9.000000E+99

> <Gold.Chemscore.Hbonds>
donor molecule, donor type, donor heavy atom, donor atom, acceptor molecule, acceptor atom, score
      L1  H     3    38       P1  8028  0.65
      L1  H     8    29       P1  8029  0.99
      P1  H  6933  6944       L1    10  0.75

> <Gold.Chemscore.Hbond.Weighted>
-9.8548

> <Gold.Chemscore.Metal.Weighted>
-0.0000

> <Gold.Chemscore.Lipo.Weighted>
-8.5453

> <Gold.Chemscore.Internal_Hbond.Weighted>
0.0000

> <Gold.Chemscore.DEClash.Weighted>
0.0243

> <Gold.Chemscore.DEInternal.Weighted>
1.4172

> <Gold.Chemscore.Rot.Weighted>
8.0160

> <Gold.Chemscore.Internal.Correction.Weighted>
   9.000000E+99

> <Gold.Protein.RotatedTorsions>
[ 6907 6896 6895 6894 ] final   27.32 input  -60.11 | X-H torsion
[ 7974 7965 7964 7962 ] final -103.42 input  175.53 | X-H torsion
[ 8008 7997 7996 7995 ] final   97.94 input   59.86 | X-H torsion
[ 10167 10162 10161 10158 ] final -178.00 input  -65.29 | X-H torsion
[ 10718 10713 10712 10709 ] final -118.48 input   66.30 | X-H torsion
[ 10763 10752 10751 10750 ] final   87.98 input  -60.55 | X-H torsion
[ 11005 11000 10999 10996 ] final  -51.64 input  -57.11 | X-H torsion

> <Gold.Protein.ActiveResidues>
 VAL166  LYS551  ARG553  GLY616  TRP617  ASP618  TYR619  PRO620  LYS621  CYS622 
 ASP623  PHE694  ASN695  SER759  ASP760  ASP761  ALA762  ILE779  LEU786  VAL792 
 PHE793  MET794  SER795  GLU796  ALA797  LYS798  CYS799  TRP800  GLU811  SER814 

> <Gold.Protein.RotatedAtoms>
  152.0006  134.9930  160.0564 H   0  0  0  0  0  0  0  0  0  0  0  0  # atno 6907 bound_to 6896
  152.1523  133.4525  159.4828 H   0  0  0  0  0  0  0  0  0  0  0  0  # atno 6908 bound_to 6896
  150.6877  134.2092  159.4395 H   0  0  0  0  0  0  0  0  0  0  0  0  # atno 6909 bound_to 6896
  145.2561  140.9254  143.3067 H   0  0  0  0  0  0  0  0  0  0  0  0  # atno 7974 bound_to 7965
  156.0953  140.3251  155.7870 H   0  0  0  0  0  0  0  0  0  0  0  0  # atno 8008 bound_to 7997
  155.4928  140.0563  157.2968 H   0  0  0  0  0  0  0  0  0  0  0  0  # atno 8009 bound_to 7997
  154.4663  140.1990  156.0126 H   0  0  0  0  0  0  0  0  0  0  0  0  # atno 8010 bound_to 7997
  139.5453  144.2252  152.0976 H   0  0  0  0  0  0  0  0  0  0  0  0  # atno 10167 bound_to 10162
  156.1109  130.6248  150.9296 H   0  0  0  0  0  0  0  0  0  0  0  0  # atno 10718 bound_to 10713
  153.1723  135.4523  154.9918 H   0  0  0  0  0  0  0  0  0  0  0  0  # atno 10763 bound_to 10752
  154.7974  135.3242  154.7636 H   0  0  0  0  0  0  0  0  0  0  0  0  # atno 10764 bound_to 10752
  153.8111  135.6954  153.4895 H   0  0  0  0  0  0  0  0  0  0  0  0  # atno 10765 bound_to 10752
  141.0882  133.6638  156.3906 H   0  0  0  0  0  0  0  0  0  0  0  0  # atno 11005 bound_to 11000
  144.9459  139.4136  143.6426 LP  0  0  0  0  0  0  0  0  0  0  0  0  # atno 17320 bound_to 7965
  146.3288  139.8443  142.8885 LP  0  0  0  0  0  0  0  0  0  0  0  0  # atno 17321 bound_to 7965
  140.1738  144.4910  150.6565 LP  0  0  0  0  0  0  0  0  0  0  0  0  # atno 17342 bound_to 10162
  140.6699  143.2282  151.5651 LP  0  0  0  0  0  0  0  0  0  0  0  0  # atno 17343 bound_to 10162
  157.6290  131.0923  150.8477 LP  0  0  0  0  0  0  0  0  0  0  0  0  # atno 17370 bound_to 10713
  156.8588  130.5106  149.5305 LP  0  0  0  0  0  0  0  0  0  0  0  0  # atno 17371 bound_to 10713
  140.5315  134.6208  157.5351 LP  0  0  0  0  0  0  0  0  0  0  0  0  # atno 17394 bound_to 11000
  139.9703  134.7304  156.0055 LP  0  0  0  0  0  0  0  0  0  0  0  0  # atno 17395 bound_to 11000

$$$$
