AV-unprocessed.smi:672|AV-procd|sdf|3289|dock2
  -GOLD-   22720 0253D 1   1.00000     0.00000
 Structure written by MMmdl.
 36 37  0  0  0  0  0  0  0  0  1 V2000
  145.9817  131.5578  152.0669 C   0  0  0  0  0  0  0  0  0  0  0  0
  145.0858  132.1381  150.9675 C   0  0  0  0  0  0  0  0  0  0  0  0
  144.9880  133.6256  151.0333 C   0  0  0  0  0  0  0  0  0  0  0  0
  144.2384  134.3401  150.1847 N   0  0  0  0  0  0  0  0  0  0  0  0
  144.2831  135.6998  150.4598 N   0  0  0  0  0  0  0  0  0  0  0  0
  145.0552  135.9695  151.5213 C   0  0  0  0  0  0  0  0  0  0  0  0
  145.2759  137.2785  152.0251 N   0  0  0  0  0  0  0  0  0  0  0  0
  146.0505  137.6552  153.0574 C   0  0  0  0  0  0  0  0  0  0  0  0
  146.7260  136.8988  153.7555 O   0  0  0  0  0  0  0  0  0  0  0  0
  145.9985  138.9821  153.2423 N   0  0  0  0  0  0  0  0  0  0  0  0
  146.7304  139.7158  154.2717 C   0  0  2  0  0  0  0  0  0  0  0  0
  146.3134  141.1990  154.3229 C   0  0  0  0  0  0  0  0  0  0  0  0
  147.5261  141.9983  153.8416 C   0  0  0  0  0  0  0  0  0  0  0  0
  148.7377  141.1398  154.2049 C   0  0  1  0  0  0  0  0  0  0  0  0
  149.2476  141.4195  155.9290 S   0  0  0  0  0  0  0  0  0  0  0  0
  150.8910  140.6542  155.9128 C   0  0  0  0  0  0  0  0  0  0  0  0
  148.2429  139.7059  153.9807 C   0  0  0  0  0  0  0  0  0  0  0  0
  145.7982  134.5707  152.2772 S   0  0  0  0  0  0  0  0  0  0  0  0
  146.0356  130.4716  151.9914 H   0  0  0  0  0  0  0  0  0  0  0  0
  145.5981  131.8048  153.0573 H   0  0  0  0  0  0  0  0  0  0  0  0
  146.9972  131.9481  151.9933 H   0  0  0  0  0  0  0  0  0  0  0  0
  145.4713  131.8561  149.9874 H   0  0  0  0  0  0  0  0  0  0  0  0
  144.0836  131.7142  151.0420 H   0  0  0  0  0  0  0  0  0  0  0  0
  144.7821  138.0154  151.5437 H   0  0  0  0  0  0  0  0  0  0  0  0
  145.4157  139.5269  152.6239 H   0  0  0  0  0  0  0  0  0  0  0  0
  146.5508  139.2575  155.2462 H   0  0  0  0  0  0  0  0  0  0  0  0
  145.4237  141.4219  153.7321 H   0  0  0  0  0  0  0  0  0  0  0  0
  146.0857  141.4723  155.3540 H   0  0  0  0  0  0  0  0  0  0  0  0
  147.4755  142.1096  152.7577 H   0  0  0  0  0  0  0  0  0  0  0  0
  147.5666  143.0001  154.2705 H   0  0  0  0  0  0  0  0  0  0  0  0
  149.5838  141.3767  153.5590 H   0  0  0  0  0  0  0  0  0  0  0  0
  151.3574  140.7492  156.8932 H   0  0  0  0  0  0  0  0  0  0  0  0
  151.5311  141.1425  155.1781 H   0  0  0  0  0  0  0  0  0  0  0  0
  150.8238  139.5949  155.6665 H   0  0  0  0  0  0  0  0  0  0  0  0
  148.7711  138.9711  154.5881 H   0  0  0  0  0  0  0  0  0  0  0  0
  148.4247  139.4386  152.9384 H   0  0  0  0  0  0  0  0  0  0  0  0
  1  2  1  0  0  0  0
  1 19  1  0  0  0  0
  1 20  1  0  0  0  0
  1 21  1  0  0  0  0
  2  3  1  0  0  0  0
  2 22  1  0  0  0  0
  2 23  1  0  0  0  0
  3 18  1  0  0  0  0
  3  4  2  0  0  0  0
  4  5  1  0  0  0  0
  5  6  2  0  0  0  0
  6  7  1  0  0  0  0
  6 18  1  0  0  0  0
  7  8  1  0  0  0  0
  7 24  1  0  0  0  0
  8  9  2  0  0  0  0
  8 10  1  0  0  0  0
 10 11  1  0  0  0  0
 10 25  1  0  0  0  0
 11 17  1  0  0  0  0
 11 12  1  0  0  0  0
 11 26  1  0  0  0  0
 12 13  1  0  0  0  0
 12 27  1  0  0  0  0
 12 28  1  0  0  0  0
 13 14  1  0  0  0  0
 13 29  1  0  0  0  0
 13 30  1  0  0  0  0
 14 15  1  0  0  0  0
 14 17  1  0  0  0  0
 14 31  1  0  0  0  0
 15 16  1  0  0  0  0
 16 32  1  0  0  0  0
 16 33  1  0  0  0  0
 16 34  1  0  0  0  0
 17 35  1  0  0  0  0
 17 36  1  0  0  0  0
M  END
> <s_m_source_file>
AV-unprocessed.smi

> <i_m_source_file_index>
672

> <i_lp_mmshare_version>
43012

> <i_f3d_flags>
0

> <s_epik_input>
W0NIM11bQ0gyXWMxbm5jKHMxKVtOSF1DKD1PKVtOSF1bQ0BASF0yW0NIMl1bQ0gyXVtDQEhdKFtDSDJdMilTW0NIM10=

> <s_epik_cmdline>
J2VwaWtfcHl0aG9uJywgJy1waCcsICc3LjAnLCAnLXRuJywgJzgnLCAnLW1hJywgJzIwMCcsICctbWV0YWxfYmluZGluZycsICctaW1hZScsICc8aW5maWxlLm1hZT4nLCAnLW9tYWUnLCAnPG91dGZpbGUubWFlPic=

> <r_lp_tautomer_probability>
1

> <r_epik_Ionization_Penalty>
0.000422169

> <r_epik_Ionization_Penalty_Charging>
0

> <r_epik_Ionization_Penalty_Neutral>
0.000422169

> <r_epik_State_Penalty>
-0

> <r_epik_Charging_Adjusted_Penalty>
0

> <i_epik_Tot_Q>
0

> <i_epik_Tot_abs_Q>
0

> <r_epik_Metal_State_Penalty>
0.200061

> <b_epik_Metal_Only>
0

> <s_lp_Force_Field>
OPLS_2005

> <r_lp_Energy>
12.7649

> <b_lp_Chiralities_Consistent>
1

> <s_lp_Variant>
AV-unprocessed.smi:672-1

> <Gold.Version>
5.8.1

> <Gold.Id.Protein>
6NUR|6NUR_protein|mol2

> <Gold.PLP.Fitness>
33.4814

> <Gold.PLP.PLP>
-28.3618

> <Gold.PLP.part.hbond>
-2.0000

> <Gold.PLP.part.metal>
0.0000

> <Gold.PLP.part.buried>
-6.0941

> <Gold.PLP.part.nonpolar>
-23.7284

> <Gold.PLP.part.repulsive>
3.2531

> <Gold.PLP.ligand.clash>
0.0000

> <Gold.PLP.ligand.torsion>
0.2019

> <Gold.PLP.Chemscore.Hbond>
1.8317

> <Gold.PLP.Chemscore.CHOScore>
0.0000

> <Gold.PLP.Chemscore.Metal>
0.0000

> <Gold.Chemscore.Hbonds>
donor molecule, donor type, donor heavy atom, donor atom, acceptor molecule, acceptor atom, score
      L1  H     7    24       P1 10171  0.90
      L1  H    10    25       P1 10175  0.90

> <Gold.PLP.Chemscore.Internal.Correction>
0.0282

> <Gold.Rescore>
     Score         DG    S(hbond)    S(metal)    S(lipo)     H(rot)  DE(clash)    DE(int)     intcor
     13.66     -15.82       1.81        0.00      66.48       1.37       0.68       1.48       ----

> <Gold.Chemscore.Fitness>
13.6583

> <Gold.Chemscore.DG>
-15.8178

> <Gold.Chemscore.ZeroCoef>
-5.4800

> <Gold.Chemscore.Hbond>
1.8142

> <Gold.Chemscore.Metal>
0.0000

> <Gold.Chemscore.Lipo>
66.4764

> <Gold.Chemscore.Internal_Hbond>
0.0000

> <Gold.Chemscore.DEClash>
0.6796

> <Gold.Chemscore.DEInternal>
1.4799

> <Gold.Chemscore.Rot>
1.3669

> <Gold.Chemscore.Internal.Correction>
   9.000000E+99

> <Gold.Chemscore.Hbonds>
donor molecule, donor type, donor heavy atom, donor atom, acceptor molecule, acceptor atom, score
      L1  H     7    24       P1 10171  0.83
      L1  H    10    25       P1 10175  0.86

> <Gold.Chemscore.Hbond.Weighted>
-6.0593

> <Gold.Chemscore.Metal.Weighted>
-0.0000

> <Gold.Chemscore.Lipo.Weighted>
-7.7777

> <Gold.Chemscore.Internal_Hbond.Weighted>
0.0000

> <Gold.Chemscore.DEClash.Weighted>
0.6796

> <Gold.Chemscore.DEInternal.Weighted>
1.4799

> <Gold.Chemscore.Rot.Weighted>
3.4992

> <Gold.Chemscore.Internal.Correction.Weighted>
   9.000000E+99

> <Gold.Protein.RotatedTorsions>
[ 6907 6896 6895 6894 ] final   94.13 input  -60.11 | X-H torsion
[ 7974 7965 7964 7962 ] final    8.75 input  175.53 | X-H torsion
[ 8008 7997 7996 7995 ] final  108.51 input   59.86 | X-H torsion
[ 10167 10162 10161 10158 ] final  -48.81 input  -65.29 | X-H torsion
[ 10718 10713 10712 10709 ] final    2.71 input   66.30 | X-H torsion
[ 10763 10752 10751 10750 ] final  100.42 input  -60.55 | X-H torsion
[ 11005 11000 10999 10996 ] final   13.71 input  -57.11 | X-H torsion

> <Gold.Protein.ActiveResidues>
 VAL166  LYS551  ARG553  GLY616  TRP617  ASP618  TYR619  PRO620  LYS621  CYS622 
 ASP623  PHE694  ASN695  SER759  ASP760  ASP761  ALA762  ILE779  LEU786  VAL792 
 PHE793  MET794  SER795  GLU796  ALA797  LYS798  CYS799  TRP800  GLU811  SER814 

> <Gold.Protein.RotatedAtoms>
  152.5450  134.1242  159.8411 H   0  0  0  0  0  0  0  0  0  0  0  0  # atno 6907 bound_to 6896
  151.1294  133.5040  159.2607 H   0  0  0  0  0  0  0  0  0  0  0  0  # atno 6908 bound_to 6896
  151.1692  135.0319  159.8798 H   0  0  0  0  0  0  0  0  0  0  0  0  # atno 6909 bound_to 6896
  146.2412  139.9887  142.8428 H   0  0  0  0  0  0  0  0  0  0  0  0  # atno 7974 bound_to 7965
  156.1909  140.3075  155.9330 H   0  0  0  0  0  0  0  0  0  0  0  0  # atno 8008 bound_to 7997
  155.3176  140.0454  157.3055 H   0  0  0  0  0  0  0  0  0  0  0  0  # atno 8009 bound_to 7997
  154.5451  140.2274  155.8586 H   0  0  0  0  0  0  0  0  0  0  0  0  # atno 8010 bound_to 7997
  140.6714  143.2724  151.4125 H   0  0  0  0  0  0  0  0  0  0  0  0  # atno 10167 bound_to 10162
  156.8671  130.5607  149.5659 H   0  0  0  0  0  0  0  0  0  0  0  0  # atno 10718 bound_to 10713
  153.3137  135.4079  155.1358 H   0  0  0  0  0  0  0  0  0  0  0  0  # atno 10763 bound_to 10752
  154.8582  135.3570  154.5689 H   0  0  0  0  0  0  0  0  0  0  0  0  # atno 10764 bound_to 10752
  153.6119  135.7067  153.5402 H   0  0  0  0  0  0  0  0  0  0  0  0  # atno 10765 bound_to 10752
  140.4776  134.0967  155.7744 H   0  0  0  0  0  0  0  0  0  0  0  0  # atno 11005 bound_to 11000
  145.1524  140.9630  143.4425 LP  0  0  0  0  0  0  0  0  0  0  0  0  # atno 17320 bound_to 7965
  145.0193  139.3439  143.6080 LP  0  0  0  0  0  0  0  0  0  0  0  0  # atno 17321 bound_to 7965
  139.5984  144.1348  152.2170 LP  0  0  0  0  0  0  0  0  0  0  0  0  # atno 17342 bound_to 10162
  140.0725  144.5768  150.7181 LP  0  0  0  0  0  0  0  0  0  0  0  0  # atno 17343 bound_to 10162
  156.0746  130.5771  150.9449 LP  0  0  0  0  0  0  0  0  0  0  0  0  # atno 17370 bound_to 10713
  157.6217  131.0929  150.8610 LP  0  0  0  0  0  0  0  0  0  0  0  0  # atno 17371 bound_to 10713
  141.1547  133.8905  157.2009 LP  0  0  0  0  0  0  0  0  0  0  0  0  # atno 17394 bound_to 11000
  139.9846  135.0086  156.9831 LP  0  0  0  0  0  0  0  0  0  0  0  0  # atno 17395 bound_to 11000

$$$$
