AV-unprocessed.smi:2216|AV-procd|sdf|8966|dock2
  -GOLD-   2272012183D 1   1.00000     0.00000
 Structure written by MMmdl.
 40 41  0  0  0  0  0  0  0  0  2 V2000
  145.9545  130.8066  151.5240 C   0  0  0  0  0  0  0  0  0  0  0  0
  145.5534  132.2535  151.2914 C   0  0  0  0  0  0  0  0  0  0  0  0
  146.2369  133.2817  151.8539 C   0  0  0  0  0  0  0  0  0  0  0  0
  145.8563  134.6773  151.6357 C   0  0  0  0  0  0  0  0  0  0  0  0
  146.4792  135.8172  152.1608 N   0  0  0  0  0  0  0  0  0  0  0  0
  145.9434  136.8028  152.9025 C   0  0  0  0  0  0  0  0  0  0  0  0
  144.7704  136.8775  153.2673 O   0  0  0  0  0  0  0  0  0  0  0  0
  146.8665  137.7262  153.2068 N   0  0  0  0  0  0  0  0  0  0  0  0
  146.6233  138.9284  153.9957 C   0  0  0  0  0  0  0  0  0  0  0  0
  147.8018  139.9135  153.9053 C   0  0  0  0  0  0  0  0  0  0  0  0
  149.0250  139.4574  154.7162 C   0  0  2  0  0  0  0  0  0  0  0  0
  149.8833  140.6496  155.1831 C   0  0  0  0  0  0  0  0  0  0  0  0
  151.1344  140.1585  155.9205 C   0  0  0  0  0  0  0  0  0  0  0  0
  151.8849  139.1473  155.0473 C   0  0  0  0  0  0  0  0  0  0  0  0
  150.9329  138.0348  154.5799 C   0  0  0  0  0  0  0  0  0  0  0  0
  149.8209  138.6039  153.8955 O   0  0  0  0  0  0  0  0  0  0  0  0
  144.7540  134.8032  150.8147 C   0  0  0  0  0  0  0  0  0  0  0  0
  144.0250  133.8344  150.2198 N   0  5  0  0  0  0  0  0  0  0  0  0
  144.3873  132.5364  150.4302 C   0  0  0  0  0  0  0  0  0  0  0  0
  143.7691  131.6012  149.9231 O   0  0  0  0  0  0  0  0  0  0  0  0
  146.8241  130.7346  152.1778 H   0  0  0  0  0  0  0  0  0  0  0  0
  146.2030  130.3234  150.5786 H   0  0  0  0  0  0  0  0  0  0  0  0
  145.1372  130.2547  151.9890 H   0  0  0  0  0  0  0  0  0  0  0  0
  147.0805  133.0363  152.4777 H   0  0  0  0  0  0  0  0  0  0  0  0
  147.4621  135.8986  151.9454 H   0  0  0  0  0  0  0  0  0  0  0  0
  147.8064  137.5873  152.8659 H   0  0  0  0  0  0  0  0  0  0  0  0
  145.6973  139.4075  153.6731 H   0  0  0  0  0  0  0  0  0  0  0  0
  146.4692  138.6235  155.0309 H   0  0  0  0  0  0  0  0  0  0  0  0
  148.0859  140.0554  152.8617 H   0  0  0  0  0  0  0  0  0  0  0  0
  147.4795  140.8896  154.2706 H   0  0  0  0  0  0  0  0  0  0  0  0
  148.6798  138.8984  155.5880 H   0  0  0  0  0  0  0  0  0  0  0  0
  150.1805  141.2493  154.3217 H   0  0  0  0  0  0  0  0  0  0  0  0
  149.3022  141.3038  155.8340 H   0  0  0  0  0  0  0  0  0  0  0  0
  151.7818  140.9984  156.1734 H   0  0  0  0  0  0  0  0  0  0  0  0
  150.8458  139.6895  156.8620 H   0  0  0  0  0  0  0  0  0  0  0  0
  152.3056  139.6547  154.1783 H   0  0  0  0  0  0  0  0  0  0  0  0
  152.7236  138.7212  155.5983 H   0  0  0  0  0  0  0  0  0  0  0  0
  151.4529  137.3563  153.9033 H   0  0  0  0  0  0  0  0  0  0  0  0
  150.5865  137.4374  155.4245 H   0  0  0  0  0  0  0  0  0  0  0  0
  144.4050  135.8376  150.6053 H   0  0  0  0  0  0  0  0  0  0  0  0
  1  2  1  0  0  0  0
  1 21  1  0  0  0  0
  1 22  1  0  0  0  0
  1 23  1  0  0  0  0
  2 19  1  0  0  0  0
  2  3  2  0  0  0  0
  3  4  1  0  0  0  0
  3 24  1  0  0  0  0
  4  5  1  0  0  0  0
  4 17  2  0  0  0  0
  5  6  1  0  0  0  0
  5 25  1  0  0  0  0
  6  7  2  0  0  0  0
  6  8  1  0  0  0  0
  8  9  1  0  0  0  0
  8 26  1  0  0  0  0
  9 10  1  0  0  0  0
  9 27  1  0  0  0  0
  9 28  1  0  0  0  0
 10 11  1  0  0  0  0
 10 29  1  0  0  0  0
 10 30  1  0  0  0  0
 11 16  1  0  0  0  0
 11 12  1  0  0  0  0
 11 31  1  0  0  0  0
 12 13  1  0  0  0  0
 12 32  1  0  0  0  0
 12 33  1  0  0  0  0
 13 14  1  0  0  0  0
 13 34  1  0  0  0  0
 13 35  1  0  0  0  0
 14 15  1  0  0  0  0
 14 36  1  0  0  0  0
 14 37  1  0  0  0  0
 15 16  1  0  0  0  0
 15 38  1  0  0  0  0
 15 39  1  0  0  0  0
 17 18  1  0  0  0  0
 17 40  1  0  0  0  0
 18 19  1  0  0  0  0
 19 20  2  0  0  0  0
M  CHG  1  18  -1
M  END
> <s_m_source_file>
AV-unprocessed.smi

> <i_m_source_file_index>
2216

> <i_lp_mmshare_version>
43012

> <i_f3d_flags>
0

> <s_epik_input>
Tz1jMVtuSF1bY0hdYyhbY0hdYzFbQ0gzXSlbTkhdQyg9TylbTkhdW0NIMl1bQ0gyXVtDQEBIXTJbQ0gyXVtDSDJdW0NIMl1bQ0gyXU8y

> <s_epik_cmdline>
J2VwaWtfcHl0aG9uJywgJy1waCcsICc3LjAnLCAnLXRuJywgJzgnLCAnLW1hJywgJzIwMCcsICctbWV0YWxfYmluZGluZycsICctaW1hZScsICc8aW5maWxlLm1hZT4nLCAnLW9tYWUnLCAnPG91dGZpbGUubWFlPic=

> <r_lp_tautomer_probability>
1

> <r_epik_Ionization_Penalty>
7.55627

> <r_epik_Ionization_Penalty_Charging>
1.50531

> <r_epik_Ionization_Penalty_Neutral>
6.05097

> <r_epik_State_Penalty>
6.05091

> <r_epik_Charging_Adjusted_Penalty>
7.55622

> <i_epik_Tot_Q>
-1

> <i_epik_Tot_abs_Q>
1

> <r_epik_Metal_State_Penalty>
2.00009

> <b_epik_Metal_Only>
1

> <s_lp_Force_Field>
OPLS_2005

> <r_lp_Energy>
21.198

> <b_lp_Chiralities_Consistent>
1

> <s_lp_Variant>
AV-unprocessed.smi:2216-3

> <Gold.Version>
5.8.1

> <Gold.Id.Protein>
6NUR|6NUR_protein|mol2

> <Gold.PLP.Fitness>
41.1077

> <Gold.PLP.PLP>
-35.0875

> <Gold.PLP.part.hbond>
-2.9348

> <Gold.PLP.part.metal>
0.0000

> <Gold.PLP.part.buried>
-4.3922

> <Gold.PLP.part.nonpolar>
-30.0791

> <Gold.PLP.part.repulsive>
1.9531

> <Gold.PLP.ligand.clash>
0.0000

> <Gold.PLP.ligand.torsion>
0.9569

> <Gold.PLP.Chemscore.Hbond>
2.6388

> <Gold.PLP.Chemscore.CHOScore>
0.0000

> <Gold.PLP.Chemscore.Metal>
0.0000

> <Gold.Chemscore.Hbonds>
donor molecule, donor type, donor heavy atom, donor atom, acceptor molecule, acceptor atom, score
      L1  H     5    25       P1  7948  0.93
      L1  H     8    26       P1  7948  0.82
      P1  H 10785 10796       L1    20  0.83

> <Gold.PLP.Chemscore.Internal.Correction>
0.0176

> <Gold.Rescore>
     Score         DG    S(hbond)    S(metal)    S(lipo)     H(rot)  DE(clash)    DE(int)     intcor
     18.48     -19.97       2.77        0.00      76.88       1.47       0.63       0.86       ----

> <Gold.Chemscore.Fitness>
18.4844

> <Gold.Chemscore.DG>
-19.9683

> <Gold.Chemscore.ZeroCoef>
-5.4800

> <Gold.Chemscore.Hbond>
2.7720

> <Gold.Chemscore.Metal>
0.0000

> <Gold.Chemscore.Lipo>
76.8831

> <Gold.Chemscore.Internal_Hbond>
0.0000

> <Gold.Chemscore.DEClash>
0.6256

> <Gold.Chemscore.DEInternal>
0.8584

> <Gold.Chemscore.Rot>
1.4709

> <Gold.Chemscore.Internal.Correction>
   9.000000E+99

> <Gold.Chemscore.Hbonds>
donor molecule, donor type, donor heavy atom, donor atom, acceptor molecule, acceptor atom, score
      L1  H     5    25       P1  7948  0.89
      L1  H     8    26       P1  7948  0.78
      P1  H 10785 10796       L1    20  0.82

> <Gold.Chemscore.Hbond.Weighted>
-9.2584

> <Gold.Chemscore.Metal.Weighted>
-0.0000

> <Gold.Chemscore.Lipo.Weighted>
-8.9953

> <Gold.Chemscore.Internal_Hbond.Weighted>
0.0000

> <Gold.Chemscore.DEClash.Weighted>
0.6256

> <Gold.Chemscore.DEInternal.Weighted>
0.8584

> <Gold.Chemscore.Rot.Weighted>
3.7654

> <Gold.Chemscore.Internal.Correction.Weighted>
   9.000000E+99

> <Gold.Protein.RotatedTorsions>
[ 6907 6896 6895 6894 ] final   74.72 input  -60.11 | X-H torsion
[ 7974 7965 7964 7962 ] final   36.22 input  175.53 | X-H torsion
[ 8008 7997 7996 7995 ] final  118.65 input   59.86 | X-H torsion
[ 10167 10162 10161 10158 ] final -146.63 input  -65.29 | X-H torsion
[ 10718 10713 10712 10709 ] final  116.65 input   66.30 | X-H torsion
[ 10763 10752 10751 10750 ] final   56.95 input  -60.55 | X-H torsion
[ 11005 11000 10999 10996 ] final  -78.70 input  -57.11 | X-H torsion

> <Gold.Protein.ActiveResidues>
 VAL166  LYS551  ARG553  GLY616  TRP617  ASP618  TYR619  PRO620  LYS621  CYS622 
 ASP623  PHE694  ASN695  SER759  ASP760  ASP761  ALA762  ILE779  LEU786  VAL792 
 PHE793  MET794  SER795  GLU796  ALA797  LYS798  CYS799  TRP800  GLU811  SER814 

> <Gold.Protein.RotatedAtoms>
  152.4990  134.4229  159.9486 H   0  0  0  0  0  0  0  0  0  0  0  0  # atno 6907 bound_to 6896
  151.4203  133.3694  159.2763 H   0  0  0  0  0  0  0  0  0  0  0  0  # atno 6908 bound_to 6896
  150.9227  134.8667  159.7559 H   0  0  0  0  0  0  0  0  0  0  0  0  # atno 6909 bound_to 6896
  146.1227  139.6045  142.9279 H   0  0  0  0  0  0  0  0  0  0  0  0  # atno 7974 bound_to 7965
  156.2557  140.2870  156.0868 H   0  0  0  0  0  0  0  0  0  0  0  0  # atno 8008 bound_to 7997
  155.1507  140.0397  157.2837 H   0  0  0  0  0  0  0  0  0  0  0  0  # atno 8009 bound_to 7997
  154.6463  140.2534  155.7271 H   0  0  0  0  0  0  0  0  0  0  0  0  # atno 8010 bound_to 7997
  139.7696  143.8258  152.2622 H   0  0  0  0  0  0  0  0  0  0  0  0  # atno 10167 bound_to 10162
  157.6147  131.1028  150.7504 H   0  0  0  0  0  0  0  0  0  0  0  0  # atno 10718 bound_to 10713
  152.9841  135.5658  154.5313 H   0  0  0  0  0  0  0  0  0  0  0  0  # atno 10763 bound_to 10752
  154.4784  135.2787  155.1592 H   0  0  0  0  0  0  0  0  0  0  0  0  # atno 10764 bound_to 10752
  154.3111  135.6288  153.5519 H   0  0  0  0  0  0  0  0  0  0  0  0  # atno 10765 bound_to 10752
  141.1665  133.7074  156.8011 H   0  0  0  0  0  0  0  0  0  0  0  0  # atno 11005 bound_to 11000
  145.5431  141.0419  143.2319 LP  0  0  0  0  0  0  0  0  0  0  0  0  # atno 17320 bound_to 7965
  144.7613  139.6951  143.7233 LP  0  0  0  0  0  0  0  0  0  0  0  0  # atno 17321 bound_to 7965
  139.8288  144.7263  150.9477 LP  0  0  0  0  0  0  0  0  0  0  0  0  # atno 17342 bound_to 10162
  140.7813  143.4089  151.1025 LP  0  0  0  0  0  0  0  0  0  0  0  0  # atno 17343 bound_to 10162
  156.7873  130.4879  149.5390 LP  0  0  0  0  0  0  0  0  0  0  0  0  # atno 17370 bound_to 10713
  156.1263  130.6146  151.0269 LP  0  0  0  0  0  0  0  0  0  0  0  0  # atno 17371 bound_to 10713
  140.2256  134.8725  157.3423 LP  0  0  0  0  0  0  0  0  0  0  0  0  # atno 17394 bound_to 11000
  140.1943  134.4332  155.7698 LP  0  0  0  0  0  0  0  0  0  0  0  0  # atno 17395 bound_to 11000

$$$$
