AV-unprocessed.smi:281|AV-procd|sdf|2111|dock2
  -GOLD-   2262021403D 1   1.00000     0.00000
 Structure written by MMmdl.
 55 59  0  0  0  0  0  0  0  0  1 V2000
  147.6617  141.4550  154.0566 C   0  0  0  0  0  0  0  0  0  0  0  0
  148.5022  140.3195  154.6485 C   0  0  2  0  0  0  0  0  0  0  0  0
  147.6753  139.4250  155.5885 C   0  0  0  0  0  0  0  0  0  0  0  0
  148.5357  138.4365  156.2267 N   0  0  0  0  0  0  0  0  0  0  0  0
  147.8807  137.4086  156.8230 C   0  0  0  0  0  0  0  0  0  0  0  0
  146.9313  136.7163  156.1378 N   0  0  0  0  0  0  0  0  0  0  0  0
  146.2905  135.6965  156.7161 C   0  0  0  0  0  0  0  0  0  0  0  0
  146.4395  135.2090  157.9491 N   0  0  0  0  0  0  0  0  0  0  0  0
  147.3861  135.9019  158.6442 C   0  0  0  0  0  0  0  0  0  0  0  0
  148.1431  137.0074  158.1632 C   0  0  0  0  0  0  0  0  0  0  0  0
  148.9919  137.4691  159.1622 N   0  0  0  0  0  0  0  0  0  0  0  0
  148.7581  136.6754  160.1709 C   0  0  0  0  0  0  0  0  0  0  0  0
  147.8214  135.6927  159.9418 N   0  0  0  0  0  0  0  0  0  0  0  0
  147.3817  134.6720  160.8813 C   0  0  0  0  0  0  0  0  0  0  0  0
  146.5713  135.2130  162.0894 C   0  0  2  0  0  0  0  0  0  0  0  0
  146.4448  134.1571  163.0216 O   0  0  0  0  0  0  0  0  0  0  0  0
  145.1843  135.7447  161.7282 C   0  0  0  0  0  0  0  0  0  0  0  0
  145.3513  137.2677  161.6640 C   0  0  0  0  0  0  0  0  0  0  0  0
  146.6994  137.5371  162.0274 O   0  0  0  0  0  0  0  0  0  0  0  0
  147.1982  136.4349  162.7683 C   0  0  0  0  0  0  0  0  0  0  0  0
  149.6641  139.0366  156.9324 C   0  0  0  0  0  0  0  0  0  0  0  0
  150.4711  139.9598  155.9849 C   0  0  2  0  0  0  0  0  0  0  0  0
  151.2706  139.1843  154.9414 C   0  0  0  0  0  0  0  0  0  0  0  0
  152.5529  138.8276  155.6835 C   0  0  0  0  0  0  0  0  0  0  0  0
  152.7729  139.8934  156.5988 O   0  0  0  0  0  0  0  0  0  0  0  0
  151.6186  140.7261  156.6735 C   0  0  2  0  0  0  0  0  0  0  0  0
  151.3749  141.1933  158.1158 C   0  0  0  0  0  0  0  0  0  0  0  0
  149.5873  140.9026  155.3706 O   0  0  0  0  0  0  0  0  0  0  0  0
  146.8247  141.0630  153.4786 H   0  0  0  0  0  0  0  0  0  0  0  0
  148.2613  142.0792  153.3937 H   0  0  0  0  0  0  0  0  0  0  0  0
  147.2563  142.0952  154.8406 H   0  0  0  0  0  0  0  0  0  0  0  0
  148.8918  139.7198  153.8249 H   0  0  0  0  0  0  0  0  0  0  0  0
  147.2025  140.0303  156.3632 H   0  0  0  0  0  0  0  0  0  0  0  0
  146.8718  138.9510  155.0257 H   0  0  0  0  0  0  0  0  0  0  0  0
  145.5543  135.1989  156.1023 H   0  0  0  0  0  0  0  0  0  0  0  0
  149.2728  136.7824  161.1145 H   0  0  0  0  0  0  0  0  0  0  0  0
  146.7851  133.9441  160.3294 H   0  0  0  0  0  0  0  0  0  0  0  0
  148.2626  134.1335  161.2338 H   0  0  0  0  0  0  0  0  0  0  0  0
  146.5602  134.5092  163.8909 H   0  0  0  0  0  0  0  0  0  0  0  0
  144.7980  135.3244  160.7998 H   0  0  0  0  0  0  0  0  0  0  0  0
  144.4590  135.5062  162.5081 H   0  0  0  0  0  0  0  0  0  0  0  0
  145.1508  137.6601  160.6668 H   0  0  0  0  0  0  0  0  0  0  0  0
  144.6758  137.7606  162.3638 H   0  0  0  0  0  0  0  0  0  0  0  0
  146.8494  136.5328  163.7981 H   0  0  0  0  0  0  0  0  0  0  0  0
  148.2875  136.4101  162.7877 H   0  0  0  0  0  0  0  0  0  0  0  0
  149.2671  139.6100  157.7707 H   0  0  0  0  0  0  0  0  0  0  0  0
  150.3084  138.2611  157.3487 H   0  0  0  0  0  0  0  0  0  0  0  0
  150.7552  138.3076  154.5474 H   0  0  0  0  0  0  0  0  0  0  0  0
  151.5111  139.8348  154.0991 H   0  0  0  0  0  0  0  0  0  0  0  0
  152.4257  137.9026  156.2472 H   0  0  0  0  0  0  0  0  0  0  0  0
  153.4009  138.6988  155.0104 H   0  0  0  0  0  0  0  0  0  0  0  0
  151.8484  141.6035  156.0661 H   0  0  0  0  0  0  0  0  0  0  0  0
  150.4789  141.8112  158.1815 H   0  0  0  0  0  0  0  0  0  0  0  0
  152.2150  141.7882  158.4742 H   0  0  0  0  0  0  0  0  0  0  0  0
  151.2585  140.3510  158.7979 H   0  0  0  0  0  0  0  0  0  0  0  0
  1  2  1  0  0  0  0
  1 29  1  0  0  0  0
  1 30  1  0  0  0  0
  1 31  1  0  0  0  0
  2 28  1  0  0  0  0
  2  3  1  0  0  0  0
  2 32  1  0  0  0  0
  3  4  1  0  0  0  0
  3 33  1  0  0  0  0
  3 34  1  0  0  0  0
  4  5  1  0  0  0  0
  4 21  1  0  0  0  0
  5 10  1  0  0  0  0
  5  6  2  0  0  0  0
  6  7  1  0  0  0  0
  7  8  2  0  0  0  0
  7 35  1  0  0  0  0
  8  9  1  0  0  0  0
  9 13  1  0  0  0  0
  9 10  2  0  0  0  0
 10 11  1  0  0  0  0
 11 12  2  0  0  0  0
 12 13  1  0  0  0  0
 12 36  1  0  0  0  0
 13 14  1  0  0  0  0
 14 15  1  0  0  0  0
 14 37  1  0  0  0  0
 14 38  1  0  0  0  0
 15 20  1  0  0  0  0
 15 16  1  0  0  0  0
 15 17  1  0  0  0  0
 16 39  1  0  0  0  0
 17 18  1  0  0  0  0
 17 40  1  0  0  0  0
 17 41  1  0  0  0  0
 18 19  1  0  0  0  0
 18 42  1  0  0  0  0
 18 43  1  0  0  0  0
 19 20  1  0  0  0  0
 20 44  1  0  0  0  0
 20 45  1  0  0  0  0
 21 22  1  0  0  0  0
 21 46  1  0  0  0  0
 21 47  1  0  0  0  0
 22 26  1  0  0  0  0
 22 23  1  0  0  0  0
 22 28  1  0  0  0  0
 23 24  1  0  0  0  0
 23 48  1  0  0  0  0
 23 49  1  0  0  0  0
 24 25  1  0  0  0  0
 24 50  1  0  0  0  0
 24 51  1  0  0  0  0
 25 26  1  0  0  0  0
 26 27  1  0  0  0  0
 26 52  1  0  0  0  0
 27 53  1  0  0  0  0
 27 54  1  0  0  0  0
 27 55  1  0  0  0  0
M  END
> <s_m_source_file>
AV-unprocessed.smi

> <i_m_source_file_index>
281

> <i_lp_mmshare_version>
43012

> <i_f3d_flags>
0

> <s_epik_input>
W0NIM11bQ0BASF0xT1tDSDJdW0NIMl1bQ0BAXTEyW0NIMl1OKFtDSDJdW0NASF0oTzIpW0NIM10pYyhuW2NIXW4zKWMoYzM0KW5bY0hdbjRbQ0gyXVtDQEBdNShbT0hdKVtDSDJdW0NIMl1PW0NIMl01

> <s_epik_cmdline>
J2VwaWtfcHl0aG9uJywgJy1waCcsICc3LjAnLCAnLXRuJywgJzgnLCAnLW1hJywgJzIwMCcsICctbWV0YWxfYmluZGluZycsICctaW1hZScsICc8aW5maWxlLm1hZT4nLCAnLW9tYWUnLCAnPG91dGZpbGUubWFlPic=

> <r_lp_tautomer_probability>
1

> <r_epik_Ionization_Penalty>
0.00571331

> <r_epik_Ionization_Penalty_Charging>
0

> <r_epik_Ionization_Penalty_Neutral>
0.00571331

> <r_epik_State_Penalty>
0.00399586

> <r_epik_Charging_Adjusted_Penalty>
0.00399586

> <i_epik_Tot_Q>
0

> <i_epik_Tot_abs_Q>
0

> <r_epik_Metal_State_Penalty>
-0

> <b_epik_Metal_Only>
0

> <s_lp_Force_Field>
OPLS_2005

> <r_lp_Energy>
56.9308

> <b_lp_Chiralities_Consistent>
1

> <s_lp_Variant>
AV-unprocessed.smi:281-11

> <Gold.Version>
5.8.1

> <Gold.Id.Protein>
6NUR|6NUR_protein|mol2

> <Gold.PLP.Fitness>
46.1241

> <Gold.PLP.PLP>
-41.1029

> <Gold.PLP.part.hbond>
-4.0000

> <Gold.PLP.part.metal>
0.0000

> <Gold.PLP.part.buried>
-6.3581

> <Gold.PLP.part.nonpolar>
-30.8741

> <Gold.PLP.part.repulsive>
0.0890

> <Gold.PLP.ligand.clash>
0.0000

> <Gold.PLP.ligand.torsion>
0.3092

> <Gold.PLP.Chemscore.Hbond>
1.7808

> <Gold.PLP.Chemscore.CHOScore>
0.0000

> <Gold.PLP.Chemscore.Metal>
0.0000

> <Gold.Chemscore.Hbonds>
donor molecule, donor type, donor heavy atom, donor atom, acceptor molecule, acceptor atom, score
      P1  H  6934  6947       L1    19  0.77
      P1  H  7997  8009       L1    25  1.00

> <Gold.PLP.Chemscore.Internal.Correction>
0.2971

> <Gold.Rescore>
     Score         DG    S(hbond)    S(metal)    S(lipo)     H(rot)  DE(clash)    DE(int)     intcor
     12.06     -16.12       1.75        0.00      86.65       2.09       0.18       3.87       ----

> <Gold.Chemscore.Fitness>
12.0579

> <Gold.Chemscore.DG>
-16.1163

> <Gold.Chemscore.ZeroCoef>
-5.4800

> <Gold.Chemscore.Hbond>
1.7530

> <Gold.Chemscore.Metal>
0.0000

> <Gold.Chemscore.Lipo>
86.6548

> <Gold.Chemscore.Internal_Hbond>
0.0000

> <Gold.Chemscore.DEClash>
0.1849

> <Gold.Chemscore.DEInternal>
3.8735

> <Gold.Chemscore.Rot>
2.0927

> <Gold.Chemscore.Internal.Correction>
   9.000000E+99

> <Gold.Chemscore.Hbonds>
donor molecule, donor type, donor heavy atom, donor atom, acceptor molecule, acceptor atom, score
      P1  H  6934  6947       L1    19  0.34
      P1  H  7997  8009       L1    25  0.44

> <Gold.Chemscore.Hbond.Weighted>
-5.8550

> <Gold.Chemscore.Metal.Weighted>
-0.0000

> <Gold.Chemscore.Lipo.Weighted>
-10.1386

> <Gold.Chemscore.Internal_Hbond.Weighted>
0.0000

> <Gold.Chemscore.DEClash.Weighted>
0.1849

> <Gold.Chemscore.DEInternal.Weighted>
3.8735

> <Gold.Chemscore.Rot.Weighted>
5.3573

> <Gold.Chemscore.Internal.Correction.Weighted>
   9.000000E+99

> <Gold.Protein.RotatedTorsions>
[ 6907 6896 6895 6894 ] final   68.22 input  -60.11 | X-H torsion
[ 7974 7965 7964 7962 ] final   74.79 input  175.53 | X-H torsion
[ 8008 7997 7996 7995 ] final -175.63 input   59.86 | X-H torsion
[ 10167 10162 10161 10158 ] final -176.86 input  -65.29 | X-H torsion
[ 10718 10713 10712 10709 ] final  105.56 input   66.30 | X-H torsion
[ 10763 10752 10751 10750 ] final  -35.27 input  -60.55 | X-H torsion
[ 11005 11000 10999 10996 ] final -177.22 input  -57.11 | X-H torsion

> <Gold.Protein.ActiveResidues>
 VAL166  LYS551  ARG553  GLY616  TRP617  ASP618  TYR619  PRO620  LYS621  CYS622 
 ASP623  PHE694  ASN695  SER759  ASP760  ASP761  ALA762  ILE779  LEU786  VAL792 
 PHE793  MET794  SER795  GLU796  ALA797  LYS798  CYS799  TRP800  GLU811  SER814 

> <Gold.Protein.RotatedAtoms>
  152.4606  134.5194  159.9777 H   0  0  0  0  0  0  0  0  0  0  0  0  # atno 6907 bound_to 6896
  151.5244  133.3455  159.2915 H   0  0  0  0  0  0  0  0  0  0  0  0  # atno 6908 bound_to 6896
  150.8567  134.7937  159.7113 H   0  0  0  0  0  0  0  0  0  0  0  0  # atno 6909 bound_to 6896
  145.7238  139.2658  143.1581 H   0  0  0  0  0  0  0  0  0  0  0  0  # atno 7974 bound_to 7965
  155.9849  140.1189  157.0692 H   0  0  0  0  0  0  0  0  0  0  0  0  # atno 8008 bound_to 7997
  154.4194  140.1137  156.5554 H   0  0  0  0  0  0  0  0  0  0  0  0  # atno 8009 bound_to 7997
  155.6421  140.3473  155.4720 H   0  0  0  0  0  0  0  0  0  0  0  0  # atno 8010 bound_to 7997
  139.5508  144.2114  152.1074 H   0  0  0  0  0  0  0  0  0  0  0  0  # atno 10167 bound_to 10162
  157.6701  131.0830  150.5875 H   0  0  0  0  0  0  0  0  0  0  0  0  # atno 10718 bound_to 10713
  153.8605  135.6840  153.4783 H   0  0  0  0  0  0  0  0  0  0  0  0  # atno 10763 bound_to 10752
  153.1344  135.4684  154.9398 H   0  0  0  0  0  0  0  0  0  0  0  0  # atno 10764 bound_to 10752
  154.7761  135.3253  154.8039 H   0  0  0  0  0  0  0  0  0  0  0  0  # atno 10765 bound_to 10752
  140.4433  134.6411  157.4768 H   0  0  0  0  0  0  0  0  0  0  0  0  # atno 11005 bound_to 11000
  146.0601  140.7979  142.9739 LP  0  0  0  0  0  0  0  0  0  0  0  0  # atno 17320 bound_to 7965
  144.6910  140.3184  143.7236 LP  0  0  0  0  0  0  0  0  0  0  0  0  # atno 17321 bound_to 7965
  140.1609  144.5027  150.6633 LP  0  0  0  0  0  0  0  0  0  0  0  0  # atno 17342 bound_to 10162
  140.6770  143.2309  151.5481 LP  0  0  0  0  0  0  0  0  0  0  0  0  # atno 17343 bound_to 10162
  156.6176  130.4397  149.5835 LP  0  0  0  0  0  0  0  0  0  0  0  0  # atno 17370 bound_to 10713
  156.2381  130.6835  151.1529 LP  0  0  0  0  0  0  0  0  0  0  0  0  # atno 17371 bound_to 10713
  140.0055  134.6771  155.9462 LP  0  0  0  0  0  0  0  0  0  0  0  0  # atno 17394 bound_to 11000
  141.1696  133.6537  156.4603 LP  0  0  0  0  0  0  0  0  0  0  0  0  # atno 17395 bound_to 11000

$$$$
