AV-unprocessed.smi:1745|AV-procd|sdf|7031|dock4
  -GOLD-   22720 8253D 1   1.00000     0.00000
 Structure written by MMmdl.
 47 49  0  0  0  0  0  0  0  0  1 V2000
  144.2042  136.8156  152.7492 C   0  0  0  0  0  0  0  0  0  0  0  0
  145.2395  135.6835  152.8249 C   0  0  2  0  0  0  0  0  0  0  0  0
  146.5529  136.2685  153.0909 N   0  0  0  0  0  0  0  0  0  0  0  0
  146.8588  137.0865  154.1085 C   0  0  0  0  0  0  0  0  0  0  0  0
  146.0526  137.4324  154.9716 O   0  0  0  0  0  0  0  0  0  0  0  0
  148.1427  137.4774  154.0432 N   0  0  0  0  0  0  0  0  0  0  0  0
  148.8372  138.3734  154.8996 C   0  0  0  0  0  0  0  0  0  0  0  0
  148.5745  138.5226  156.2809 C   0  0  0  0  0  0  0  0  0  0  0  0
  149.3412  139.4394  157.0253 C   0  0  0  0  0  0  0  0  0  0  0  0
  150.3578  140.1801  156.3777 C   0  0  0  0  0  0  0  0  0  0  0  0
  151.1306  141.1118  157.1044 N   0  0  0  0  0  0  0  0  0  0  0  0
  150.5313  142.4309  157.2900 C   0  0  0  0  0  0  0  0  0  0  0  0
  151.5840  143.4293  157.8027 C   0  0  0  0  0  0  0  0  0  0  0  0
  152.1932  142.9242  158.9864 O   0  0  0  0  0  0  0  0  0  0  0  0
  152.8672  141.6924  158.7512 C   0  0  0  0  0  0  0  0  0  0  0  0
  151.8581  140.6328  158.2779 C   0  0  0  0  0  0  0  0  0  0  0  0
  150.6136  140.0252  155.0554 N   0  0  0  0  0  0  0  0  0  0  0  0
  149.8789  139.1435  154.3464 C   0  0  0  0  0  0  0  0  0  0  0  0
  145.2701  134.8448  151.5301 C   0  0  1  0  0  0  0  0  0  0  0  0
  146.2574  133.6753  151.5375 C   0  0  0  0  0  0  0  0  0  0  0  0
  145.6543  132.7582  150.4991 C   0  0  0  0  0  0  0  0  0  0  0  0
  144.1619  132.9248  150.7673 C   0  0  0  0  0  0  0  0  0  0  0  0
  144.0005  134.2375  151.2992 O   0  0  0  0  0  0  0  0  0  0  0  0
  143.2006  136.4224  152.5859 H   0  0  0  0  0  0  0  0  0  0  0  0
  144.4278  137.5055  151.9346 H   0  0  0  0  0  0  0  0  0  0  0  0
  144.1826  137.3900  153.6760 H   0  0  0  0  0  0  0  0  0  0  0  0
  144.9506  135.0305  153.6507 H   0  0  0  0  0  0  0  0  0  0  0  0
  147.2845  136.0429  152.4331 H   0  0  0  0  0  0  0  0  0  0  0  0
  148.6614  137.1610  153.2371 H   0  0  0  0  0  0  0  0  0  0  0  0
  147.8112  137.9509  156.7851 H   0  0  0  0  0  0  0  0  0  0  0  0
  149.1315  139.5720  158.0760 H   0  0  0  0  0  0  0  0  0  0  0  0
  150.1009  142.8138  156.3659 H   0  0  0  0  0  0  0  0  0  0  0  0
  149.7152  142.3475  158.0087 H   0  0  0  0  0  0  0  0  0  0  0  0
  152.3438  143.6175  157.0422 H   0  0  0  0  0  0  0  0  0  0  0  0
  151.1147  144.3874  158.0268 H   0  0  0  0  0  0  0  0  0  0  0  0
  153.6582  141.8336  158.0129 H   0  0  0  0  0  0  0  0  0  0  0  0
  153.3473  141.3670  159.6742 H   0  0  0  0  0  0  0  0  0  0  0  0
  151.1488  140.4090  159.0760 H   0  0  0  0  0  0  0  0  0  0  0  0
  152.3886  139.7092  158.0422 H   0  0  0  0  0  0  0  0  0  0  0  0
  150.1274  139.0581  153.2985 H   0  0  0  0  0  0  0  0  0  0  0  0
  145.4895  135.4849  150.6737 H   0  0  0  0  0  0  0  0  0  0  0  0
  147.2780  133.9760  151.2995 H   0  0  0  0  0  0  0  0  0  0  0  0
  146.2630  133.1811  152.5103 H   0  0  0  0  0  0  0  0  0  0  0  0
  145.8999  133.1144  149.4977 H   0  0  0  0  0  0  0  0  0  0  0  0
  145.9912  131.7252  150.5883 H   0  0  0  0  0  0  0  0  0  0  0  0
  143.5613  132.7830  149.8687 H   0  0  0  0  0  0  0  0  0  0  0  0
  143.8262  132.2059  151.5155 H   0  0  0  0  0  0  0  0  0  0  0  0
  1  2  1  0  0  0  0
  1 24  1  0  0  0  0
  1 25  1  0  0  0  0
  1 26  1  0  0  0  0
  2  3  1  0  0  0  0
  2 19  1  0  0  0  0
  2 27  1  0  0  0  0
  3  4  1  0  0  0  0
  3 28  1  0  0  0  0
  4  5  2  0  0  0  0
  4  6  1  0  0  0  0
  6  7  1  0  0  0  0
  6 29  1  0  0  0  0
  7 18  1  0  0  0  0
  7  8  2  0  0  0  0
  8  9  1  0  0  0  0
  8 30  1  0  0  0  0
  9 10  2  0  0  0  0
  9 31  1  0  0  0  0
 10 11  1  0  0  0  0
 10 17  1  0  0  0  0
 11 16  1  0  0  0  0
 11 12  1  0  0  0  0
 12 13  1  0  0  0  0
 12 32  1  0  0  0  0
 12 33  1  0  0  0  0
 13 14  1  0  0  0  0
 13 34  1  0  0  0  0
 13 35  1  0  0  0  0
 14 15  1  0  0  0  0
 15 16  1  0  0  0  0
 15 36  1  0  0  0  0
 15 37  1  0  0  0  0
 16 38  1  0  0  0  0
 16 39  1  0  0  0  0
 17 18  2  0  0  0  0
 18 40  1  0  0  0  0
 19 23  1  0  0  0  0
 19 20  1  0  0  0  0
 19 41  1  0  0  0  0
 20 21  1  0  0  0  0
 20 42  1  0  0  0  0
 20 43  1  0  0  0  0
 21 22  1  0  0  0  0
 21 44  1  0  0  0  0
 21 45  1  0  0  0  0
 22 23  1  0  0  0  0
 22 46  1  0  0  0  0
 22 47  1  0  0  0  0
M  END
> <s_m_source_file>
AV-unprocessed.smi

> <i_m_source_file_index>
1745

> <i_lp_mmshare_version>
43012

> <i_f3d_flags>
0

> <s_epik_input>
TzFbQ0gyXVtDSDJdW0NIMl1bQ0BIXTFbQ0BIXShbQ0gzXSlbTkhdQyg9TylbTkhdYzJbY0hdW2NIXWMobltjSF0yKU4zW0NIMl1bQ0gyXU9bQ0gyXVtDSDJdMw==

> <s_epik_cmdline>
J2VwaWtfcHl0aG9uJywgJy1waCcsICc3LjAnLCAnLXRuJywgJzgnLCAnLW1hJywgJzIwMCcsICctbWV0YWxfYmluZGluZycsICctaW1hZScsICc8aW5maWxlLm1hZT4nLCAnLW9tYWUnLCAnPG91dGZpbGUubWFlPic=

> <r_lp_tautomer_probability>
1

> <r_epik_Ionization_Penalty>
0.00206005

> <r_epik_Ionization_Penalty_Charging>
0

> <r_epik_Ionization_Penalty_Neutral>
0.00206005

> <r_epik_State_Penalty>
0.00138459

> <r_epik_Charging_Adjusted_Penalty>
0.00138459

> <i_epik_Tot_Q>
0

> <i_epik_Tot_abs_Q>
0

> <r_epik_Metal_State_Penalty>
-0

> <b_epik_Metal_Only>
0

> <s_lp_Force_Field>
OPLS_2005

> <r_lp_Energy>
34.4703

> <b_lp_Chiralities_Consistent>
1

> <s_lp_Variant>
AV-unprocessed.smi:1745-3

> <Gold.Version>
5.8.1

> <Gold.Id.Protein>
6NUR|6NUR_protein|mol2

> <Gold.PLP.Fitness>
42.2048

> <Gold.PLP.PLP>
-31.2659

> <Gold.PLP.part.hbond>
-3.0000

> <Gold.PLP.part.metal>
0.0000

> <Gold.PLP.part.buried>
-5.8429

> <Gold.PLP.part.nonpolar>
-23.2266

> <Gold.PLP.part.repulsive>
0.3202

> <Gold.PLP.ligand.clash>
0.0000

> <Gold.PLP.ligand.torsion>
0.5633

> <Gold.PLP.Chemscore.Hbond>
2.9000

> <Gold.PLP.Chemscore.CHOScore>
1.0000

> <Gold.PLP.Chemscore.Metal>
0.0000

> <Gold.Chemscore.Hbonds>
donor molecule, donor type, donor heavy atom, donor atom, acceptor molecule, acceptor atom, score
      L1  H     3    28       P1  7948  1.00
      L1  H     6    29       P1  7948  1.00
      P1  H  7989  7998       L1    17  0.88
      L1  C    18    40       P1  7957  1.00

> <Gold.PLP.Chemscore.Internal.Correction>
0.3656

> <Gold.Rescore>
     Score         DG    S(hbond)    S(metal)    S(lipo)     H(rot)  DE(clash)    DE(int)     intcor
     16.73     -19.05       2.28        0.00      81.38       1.40       0.10       2.22       ----

> <Gold.Chemscore.Fitness>
16.7328

> <Gold.Chemscore.DG>
-19.0489

> <Gold.Chemscore.ZeroCoef>
-5.4800

> <Gold.Chemscore.Hbond>
2.2811

> <Gold.Chemscore.Metal>
0.0000

> <Gold.Chemscore.Lipo>
81.3771

> <Gold.Chemscore.Internal_Hbond>
0.0000

> <Gold.Chemscore.DEClash>
0.0983

> <Gold.Chemscore.DEInternal>
2.2178

> <Gold.Chemscore.Rot>
1.3950

> <Gold.Chemscore.Internal.Correction>
   9.000000E+99

> <Gold.Chemscore.Hbonds>
donor molecule, donor type, donor heavy atom, donor atom, acceptor molecule, acceptor atom, score
      L1  H     3    28       P1  7948  0.96
      L1  H     6    29       P1  7948  0.99
      P1  H  7989  7998       L1    17  0.16

> <Gold.Chemscore.Hbond.Weighted>
-7.6189

> <Gold.Chemscore.Metal.Weighted>
-0.0000

> <Gold.Chemscore.Lipo.Weighted>
-9.5211

> <Gold.Chemscore.Internal_Hbond.Weighted>
0.0000

> <Gold.Chemscore.DEClash.Weighted>
0.0983

> <Gold.Chemscore.DEInternal.Weighted>
2.2178

> <Gold.Chemscore.Rot.Weighted>
3.5712

> <Gold.Chemscore.Internal.Correction.Weighted>
   9.000000E+99

> <Gold.Protein.RotatedTorsions>
[ 6907 6896 6895 6894 ] final  -99.27 input  -60.11 | X-H torsion
[ 7974 7965 7964 7962 ] final -128.69 input  175.53 | X-H torsion
[ 8008 7997 7996 7995 ] final  114.58 input   59.86 | X-H torsion
[ 10167 10162 10161 10158 ] final -130.32 input  -65.29 | X-H torsion
[ 10718 10713 10712 10709 ] final    6.36 input   66.30 | X-H torsion
[ 10763 10752 10751 10750 ] final   84.37 input  -60.55 | X-H torsion
[ 11005 11000 10999 10996 ] final   99.17 input  -57.11 | X-H torsion

> <Gold.Protein.ActiveResidues>
 VAL166  LYS551  ARG553  GLY616  TRP617  ASP618  TYR619  PRO620  LYS621  CYS622 
 ASP623  PHE694  ASN695  SER759  ASP760  ASP761  ALA762  ILE779  LEU786  VAL792 
 PHE793  MET794  SER795  GLU796  ALA797  LYS798  CYS799  TRP800  GLU811  SER814 

> <Gold.Protein.RotatedAtoms>
  150.7074  134.1066  159.3984 H   0  0  0  0  0  0  0  0  0  0  0  0  # atno 6907 bound_to 6896
  151.9053  135.0359  160.0519 H   0  0  0  0  0  0  0  0  0  0  0  0  # atno 6908 bound_to 6896
  152.2381  133.5077  159.5291 H   0  0  0  0  0  0  0  0  0  0  0  0  # atno 6909 bound_to 6896
  144.9646  140.7482  143.4708 H   0  0  0  0  0  0  0  0  0  0  0  0  # atno 7974 bound_to 7965
  156.2330  140.2956  156.0238 H   0  0  0  0  0  0  0  0  0  0  0  0  # atno 8008 bound_to 7997
  155.2172  140.0414  157.2960 H   0  0  0  0  0  0  0  0  0  0  0  0  # atno 8009 bound_to 7997
  154.6029  140.2431  155.7777 H   0  0  0  0  0  0  0  0  0  0  0  0  # atno 8010 bound_to 7997
  139.9306  143.6276  152.2530 H   0  0  0  0  0  0  0  0  0  0  0  0  # atno 10167 bound_to 10162
  156.9211  130.5791  149.5648 H   0  0  0  0  0  0  0  0  0  0  0  0  # atno 10718 bound_to 10713
  153.1375  135.4657  154.9445 H   0  0  0  0  0  0  0  0  0  0  0  0  # atno 10763 bound_to 10752
  154.7719  135.3161  154.8175 H   0  0  0  0  0  0  0  0  0  0  0  0  # atno 10764 bound_to 10752
  153.8704  135.6904  153.4829 H   0  0  0  0  0  0  0  0  0  0  0  0  # atno 10765 bound_to 10752
  139.8771  134.9083  156.4565 H   0  0  0  0  0  0  0  0  0  0  0  0  # atno 11005 bound_to 11000
  145.2649  139.1977  143.4872 LP  0  0  0  0  0  0  0  0  0  0  0  0  # atno 17320 bound_to 7965
  146.3363  140.2586  142.8601 LP  0  0  0  0  0  0  0  0  0  0  0  0  # atno 17321 bound_to 7965
  139.6785  144.7657  151.1651 LP  0  0  0  0  0  0  0  0  0  0  0  0  # atno 17342 bound_to 10162
  140.7638  143.5759  150.8946 LP  0  0  0  0  0  0  0  0  0  0  0  0  # atno 17343 bound_to 10162
  156.0490  130.5563  150.8947 LP  0  0  0  0  0  0  0  0  0  0  0  0  # atno 17370 bound_to 10713
  157.5907  131.0944  150.9123 LP  0  0  0  0  0  0  0  0  0  0  0  0  # atno 17371 bound_to 10713
  140.8894  133.7859  155.9555 LP  0  0  0  0  0  0  0  0  0  0  0  0  # atno 17394 bound_to 11000
  140.8769  134.2658  157.5163 LP  0  0  0  0  0  0  0  0  0  0  0  0  # atno 17395 bound_to 11000

$$$$
