AV-unprocessed.smi:2032|AV-procd|sdf|8248|dock4
  -GOLD-   2272010513D 1   1.00000     0.00000
 Structure written by MMmdl.
 41 42  0  0  0  0  0  0  0  0  2 V2000
  151.7123  144.0090  157.6795 C   0  0  0  0  0  0  0  0  0  0  0  0
  151.4184  142.7214  158.4561 C   0  0  1  0  0  0  0  0  0  0  0  0
  151.4504  141.4752  157.5506 C   0  0  0  0  0  0  0  0  0  0  0  0
  151.2410  140.2264  158.2908 N   0  0  0  0  0  0  0  0  0  0  0  0
  151.2934  139.0271  157.4211 C   0  0  1  0  0  0  0  0  0  0  0  0
  152.6921  138.8084  156.7896 C   0  0  0  0  0  0  0  0  0  0  0  0
  150.8561  137.7201  158.1462 C   0  0  0  0  0  0  0  0  0  0  0  0
  149.6350  137.8666  158.9353 N   0  0  0  0  0  0  0  0  0  0  0  0
  148.7666  136.8896  159.2336 C   0  0  0  0  0  0  0  0  0  0  0  0
  148.9635  135.7439  158.8222 O   0  0  0  0  0  0  0  0  0  0  0  0
  147.7269  137.3019  159.9942 N   0  5  0  0  0  0  0  0  0  0  0  0
  146.9728  136.4040  160.6490 C   0  0  0  0  0  0  0  0  0  0  0  0
  147.2161  135.0885  160.6213 N   0  0  0  0  0  0  0  0  0  0  0  0
  146.2999  134.3388  161.3613 C   0  0  0  0  0  0  0  0  0  0  0  0
  145.3312  135.1004  161.9592 C   0  0  0  0  0  0  0  0  0  0  0  0
  145.5431  136.7925  161.6099 S   0  0  0  0  0  0  0  0  0  0  0  0
  152.2278  140.1752  159.3749 C   0  0  0  0  0  0  0  0  0  0  0  0
  152.1967  141.4242  160.2764 C   0  0  1  0  0  0  0  0  0  0  0  0
  153.2880  141.3883  161.3516 C   0  0  0  0  0  0  0  0  0  0  0  0
  152.3980  142.5830  159.4774 O   0  0  0  0  0  0  0  0  0  0  0  0
  150.9773  144.1666  156.8898 H   0  0  0  0  0  0  0  0  0  0  0  0
  152.6989  143.9746  157.2167 H   0  0  0  0  0  0  0  0  0  0  0  0
  151.6829  144.8771  158.3385 H   0  0  0  0  0  0  0  0  0  0  0  0
  150.4341  142.8104  158.9192 H   0  0  0  0  0  0  0  0  0  0  0  0
  150.6727  141.6111  156.8017 H   0  0  0  0  0  0  0  0  0  0  0  0
  152.4015  141.4329  157.0174 H   0  0  0  0  0  0  0  0  0  0  0  0
  150.5960  139.1842  156.5970 H   0  0  0  0  0  0  0  0  0  0  0  0
  152.7391  137.9038  156.1844 H   0  0  0  0  0  0  0  0  0  0  0  0
  153.4622  138.7292  157.5574 H   0  0  0  0  0  0  0  0  0  0  0  0
  152.9718  139.6131  156.1116 H   0  0  0  0  0  0  0  0  0  0  0  0
  150.6904  136.9284  157.4150 H   0  0  0  0  0  0  0  0  0  0  0  0
  151.6237  137.3549  158.8272 H   0  0  0  0  0  0  0  0  0  0  0  0
  149.4330  138.7884  159.2931 H   0  0  0  0  0  0  0  0  0  0  0  0
  146.4117  133.2657  161.4057 H   0  0  0  0  0  0  0  0  0  0  0  0
  144.5101  134.7722  162.5787 H   0  0  0  0  0  0  0  0  0  0  0  0
  152.0467  139.3151  160.0167 H   0  0  0  0  0  0  0  0  0  0  0  0
  153.2277  140.0525  158.9558 H   0  0  0  0  0  0  0  0  0  0  0  0
  151.2246  141.4958  160.7676 H   0  0  0  0  0  0  0  0  0  0  0  0
  153.1731  140.5188  161.9992 H   0  0  0  0  0  0  0  0  0  0  0  0
  153.2454  142.2785  161.9796 H   0  0  0  0  0  0  0  0  0  0  0  0
  154.2815  141.3439  160.9040 H   0  0  0  0  0  0  0  0  0  0  0  0
  1  2  1  0  0  0  0
  1 21  1  0  0  0  0
  1 22  1  0  0  0  0
  1 23  1  0  0  0  0
  2 20  1  0  0  0  0
  2  3  1  0  0  0  0
  2 24  1  0  0  0  0
  3  4  1  0  0  0  0
  3 25  1  0  0  0  0
  3 26  1  0  0  0  0
  4  5  1  0  0  0  0
  4 17  1  0  0  0  0
  5  6  1  0  0  0  0
  5  7  1  0  0  0  0
  5 27  1  0  0  0  0
  6 28  1  0  0  0  0
  6 29  1  0  0  0  0
  6 30  1  0  0  0  0
  7  8  1  0  0  0  0
  7 31  1  0  0  0  0
  7 32  1  0  0  0  0
  8  9  1  0  0  0  0
  8 33  1  0  0  0  0
  9 10  2  0  0  0  0
  9 11  1  0  0  0  0
 11 12  1  0  0  0  0
 12 16  1  0  0  0  0
 12 13  2  0  0  0  0
 13 14  1  0  0  0  0
 14 15  2  0  0  0  0
 14 34  1  0  0  0  0
 15 16  1  0  0  0  0
 15 35  1  0  0  0  0
 17 18  1  0  0  0  0
 17 36  1  0  0  0  0
 17 37  1  0  0  0  0
 18 19  1  0  0  0  0
 18 20  1  0  0  0  0
 18 38  1  0  0  0  0
 19 39  1  0  0  0  0
 19 40  1  0  0  0  0
 19 41  1  0  0  0  0
M  CHG  1  11  -1
M  END
> <s_m_source_file>
AV-unprocessed.smi

> <i_m_source_file_index>
2032

> <i_lp_mmshare_version>
43012

> <i_f3d_flags>
0

> <s_epik_input>
W0NIM11bQ0BASF0xW0NIMl1OKFtDSDJdW0NASF0oTzEpW0NIM10pW0NASF0oW0NIM10pW0NIMl1bTkhdQyg9TylbTkhdYzJuW2NIXVtjSF1zMg==

> <s_epik_cmdline>
J2VwaWtfcHl0aG9uJywgJy1waCcsICc3LjAnLCAnLXRuJywgJzgnLCAnLW1hJywgJzIwMCcsICctbWV0YWxfYmluZGluZycsICctaW1hZScsICc8aW5maWxlLm1hZT4nLCAnLW9tYWUnLCAnPG91dGZpbGUubWFlPic=

> <r_lp_tautomer_probability>
0.999

> <r_epik_Ionization_Penalty>
7.22375

> <r_epik_Ionization_Penalty_Charging>
5.82415

> <r_epik_Ionization_Penalty_Neutral>
1.39959

> <r_epik_State_Penalty>
6.03347

> <r_epik_Charging_Adjusted_Penalty>
11.8576

> <i_epik_Tot_Q>
-1

> <i_epik_Tot_abs_Q>
1

> <r_epik_Metal_State_Penalty>
2.01024

> <b_epik_Metal_Only>
1

> <s_lp_Force_Field>
OPLS_2005

> <r_lp_Energy>
22.8045

> <b_lp_Chiralities_Consistent>
1

> <s_lp_Variant>
AV-unprocessed.smi:2032-18

> <Gold.Version>
5.8.1

> <Gold.Id.Protein>
6NUR|6NUR_protein|mol2

> <Gold.PLP.Fitness>
48.3875

> <Gold.PLP.PLP>
-37.8294

> <Gold.PLP.part.hbond>
-3.0000

> <Gold.PLP.part.metal>
0.0000

> <Gold.PLP.part.buried>
-5.5068

> <Gold.PLP.part.nonpolar>
-30.9210

> <Gold.PLP.part.repulsive>
0.2357

> <Gold.PLP.ligand.clash>
0.0000

> <Gold.PLP.ligand.torsion>
0.3518

> <Gold.PLP.Chemscore.Hbond>
3.7225

> <Gold.PLP.Chemscore.CHOScore>
0.0000

> <Gold.PLP.Chemscore.Metal>
0.0000

> <Gold.Chemscore.Hbonds>
donor molecule, donor type, donor heavy atom, donor atom, acceptor molecule, acceptor atom, score
      P1  H  6896  6907       L1    10  0.44
      P1  H  6934  6947       L1    11  1.63

> <Gold.PLP.Chemscore.Internal.Correction>
0.0943

> <Gold.Rescore>
     Score         DG    S(hbond)    S(metal)    S(lipo)     H(rot)  DE(clash)    DE(int)     intcor
     15.87     -17.93       1.78        0.00      89.44       1.54       0.05       2.00       ----

> <Gold.Chemscore.Fitness>
15.8748

> <Gold.Chemscore.DG>
-17.9282

> <Gold.Chemscore.ZeroCoef>
-5.4800

> <Gold.Chemscore.Hbond>
1.7765

> <Gold.Chemscore.Metal>
0.0000

> <Gold.Chemscore.Lipo>
89.4427

> <Gold.Chemscore.Internal_Hbond>
0.0000

> <Gold.Chemscore.DEClash>
0.0513

> <Gold.Chemscore.DEInternal>
2.0021

> <Gold.Chemscore.Rot>
1.5431

> <Gold.Chemscore.Internal.Correction>
   9.000000E+99

> <Gold.Chemscore.Hbonds>
donor molecule, donor type, donor heavy atom, donor atom, acceptor molecule, acceptor atom, score
      P1  H  6896  6907       L1    10  0.43
      P1  H  6934  6947       L1    11  0.26

> <Gold.Chemscore.Hbond.Weighted>
-5.9336

> <Gold.Chemscore.Metal.Weighted>
-0.0000

> <Gold.Chemscore.Lipo.Weighted>
-10.4648

> <Gold.Chemscore.Internal_Hbond.Weighted>
0.0000

> <Gold.Chemscore.DEClash.Weighted>
0.0513

> <Gold.Chemscore.DEInternal.Weighted>
2.0021

> <Gold.Chemscore.Rot.Weighted>
3.9503

> <Gold.Chemscore.Internal.Correction.Weighted>
   9.000000E+99

> <Gold.Protein.RotatedTorsions>
[ 6907 6896 6895 6894 ] final  -84.36 input  -60.11 | X-H torsion
[ 7974 7965 7964 7962 ] final  147.30 input  175.53 | X-H torsion
[ 8008 7997 7996 7995 ] final    5.65 input   59.86 | X-H torsion
[ 10167 10162 10161 10158 ] final -107.76 input  -65.29 | X-H torsion
[ 10718 10713 10712 10709 ] final   37.35 input   66.30 | X-H torsion
[ 10763 10752 10751 10750 ] final  109.65 input  -60.55 | X-H torsion
[ 11005 11000 10999 10996 ] final   35.42 input  -57.11 | X-H torsion

> <Gold.Protein.ActiveResidues>
 VAL166  LYS551  ARG553  GLY616  TRP617  ASP618  TYR619  PRO620  LYS621  CYS622 
 ASP623  PHE694  ASN695  SER759  ASP760  ASP761  ALA762  ILE779  LEU786  VAL792 
 PHE793  MET794  SER795  GLU796  ALA797  LYS798  CYS799  TRP800  GLU811  SER814 

> <Gold.Protein.RotatedAtoms>
  150.6877  134.3370  159.4851 H   0  0  0  0  0  0  0  0  0  0  0  0  # atno 6907 bound_to 6896
  152.1228  134.9190  160.0571 H   0  0  0  0  0  0  0  0  0  0  0  0  # atno 6908 bound_to 6896
  152.0390  133.3934  159.4365 H   0  0  0  0  0  0  0  0  0  0  0  0  # atno 6909 bound_to 6896
  144.8602  139.6012  143.5934 H   0  0  0  0  0  0  0  0  0  0  0  0  # atno 7974 bound_to 7965
  154.7311  140.2730  155.6455 H   0  0  0  0  0  0  0  0  0  0  0  0  # atno 8008 bound_to 7997
  156.2850  140.2715  156.1936 H   0  0  0  0  0  0  0  0  0  0  0  0  # atno 8009 bound_to 7997
  155.0381  140.0371  157.2489 H   0  0  0  0  0  0  0  0  0  0  0  0  # atno 8010 bound_to 7997
  140.1734  143.4024  152.1337 H   0  0  0  0  0  0  0  0  0  0  0  0  # atno 10167 bound_to 10162
  157.3459  130.7572  149.6944 H   0  0  0  0  0  0  0  0  0  0  0  0  # atno 10718 bound_to 10713
  153.4377  135.3773  155.2209 H   0  0  0  0  0  0  0  0  0  0  0  0  # atno 10763 bound_to 10752
  154.8753  135.3855  154.4190 H   0  0  0  0  0  0  0  0  0  0  0  0  # atno 10764 bound_to 10752
  153.4732  135.7087  153.6044 H   0  0  0  0  0  0  0  0  0  0  0  0  # atno 10765 bound_to 10752
  140.2428  134.3394  155.7919 H   0  0  0  0  0  0  0  0  0  0  0  0  # atno 11005 bound_to 11000
  146.2855  139.6991  142.9199 LP  0  0  0  0  0  0  0  0  0  0  0  0  # atno 17320 bound_to 7965
  145.4327  141.0416  143.2902 LP  0  0  0  0  0  0  0  0  0  0  0  0  # atno 17321 bound_to 7965
  139.5328  144.7177  151.4998 LP  0  0  0  0  0  0  0  0  0  0  0  0  # atno 17342 bound_to 10162
  140.6567  143.8584  150.6843 LP  0  0  0  0  0  0  0  0  0  0  0  0  # atno 17343 bound_to 10162
  155.9714  130.4154  150.4182 LP  0  0  0  0  0  0  0  0  0  0  0  0  # atno 17370 bound_to 10713
  157.2237  131.0488  151.2532 LP  0  0  0  0  0  0  0  0  0  0  0  0  # atno 17371 bound_to 10713
  141.2209  133.7309  156.8913 LP  0  0  0  0  0  0  0  0  0  0  0  0  # atno 17394 bound_to 11000
  140.1636  134.9149  157.2745 LP  0  0  0  0  0  0  0  0  0  0  0  0  # atno 17395 bound_to 11000

$$$$
