AV-unprocessed.smi:1678|AV-procd|sdf|6728|dock3
  -GOLD-   22720 7473D 1   1.00000     0.00000
 Structure written by MMmdl.
 43 44  0  0  0  0  0  0  0  0  1 V2000
  145.7296  135.3816  151.1257 C   0  0  0  0  0  0  0  0  0  0  0  0
  145.6414  133.8657  151.1985 C   0  0  0  0  0  0  0  0  0  0  0  0
  144.5886  133.2030  150.5321 C   0  0  0  0  0  0  0  0  0  0  0  0
  144.5077  131.8018  150.6007 C   0  0  0  0  0  0  0  0  0  0  0  0
  145.4893  131.1178  151.3381 C   0  0  0  0  0  0  0  0  0  0  0  0
  146.4982  131.7429  151.9780 N   0  0  0  0  0  0  0  0  0  0  0  0
  146.5915  133.0955  151.9219 C   0  0  0  0  0  0  0  0  0  0  0  0
  147.6294  133.8213  152.5723 N   0  0  0  0  0  0  0  0  0  0  0  0
  148.3723  133.4521  153.6308 C   0  0  0  0  0  0  0  0  0  0  0  0
  148.2694  132.3857  154.2382 O   0  0  0  0  0  0  0  0  0  0  0  0
  149.2608  134.4026  153.9550 N   0  0  0  0  0  0  0  0  0  0  0  0
  150.2161  134.3107  155.0524 C   0  0  0  0  0  0  0  0  0  0  0  0
  150.0113  135.4425  156.0771 C   0  0  0  0  0  0  0  0  0  0  0  0
  149.8726  136.7435  155.4105 N   0  0  0  0  0  0  0  0  0  0  0  0
  148.5758  137.4232  155.5658 C   0  0  0  0  0  0  0  0  0  0  0  0
  148.6378  138.6891  156.4529 C   0  0  0  0  0  0  0  0  0  0  0  0
  149.9756  139.4547  156.4604 C   0  0  0  0  0  0  0  0  0  0  0  0
  150.5235  139.8250  155.0664 C   0  0  0  0  0  0  0  0  0  0  0  0
  150.6743  138.6646  154.0543 C   0  0  0  0  0  0  0  0  0  0  0  0
  150.8917  137.2862  154.6992 C   0  0  0  0  0  0  0  0  0  0  0  0
  151.9798  136.7294  154.5522 O   0  0  0  0  0  0  0  0  0  0  0  0
  144.9301  135.7971  150.5114 H   0  0  0  0  0  0  0  0  0  0  0  0
  146.6807  135.6889  150.6904 H   0  0  0  0  0  0  0  0  0  0  0  0
  145.6470  135.8161  152.1224 H   0  0  0  0  0  0  0  0  0  0  0  0
  143.8499  133.7593  149.9740 H   0  0  0  0  0  0  0  0  0  0  0  0
  143.7144  131.2654  150.1015 H   0  0  0  0  0  0  0  0  0  0  0  0
  145.4649  130.0410  151.4174 H   0  0  0  0  0  0  0  0  0  0  0  0
  147.8307  134.7292  152.1808 H   0  0  0  0  0  0  0  0  0  0  0  0
  149.2780  135.2489  153.4051 H   0  0  0  0  0  0  0  0  0  0  0  0
  150.0807  133.3438  155.5377 H   0  0  0  0  0  0  0  0  0  0  0  0
  151.2341  134.3187  154.6592 H   0  0  0  0  0  0  0  0  0  0  0  0
  149.1275  135.2446  156.6865 H   0  0  0  0  0  0  0  0  0  0  0  0
  150.8428  135.4545  156.7825 H   0  0  0  0  0  0  0  0  0  0  0  0
  148.1883  137.6826  154.5804 H   0  0  0  0  0  0  0  0  0  0  0  0
  147.8222  136.7503  155.9755 H   0  0  0  0  0  0  0  0  0  0  0  0
  147.8320  139.3631  156.1606 H   0  0  0  0  0  0  0  0  0  0  0  0
  148.4186  138.4003  157.4815 H   0  0  0  0  0  0  0  0  0  0  0  0
  149.8540  140.3675  157.0443 H   0  0  0  0  0  0  0  0  0  0  0  0
  150.7222  138.8721  157.0021 H   0  0  0  0  0  0  0  0  0  0  0  0
  149.8813  140.5879  154.6251 H   0  0  0  0  0  0  0  0  0  0  0  0
  151.4950  140.3027  155.1983 H   0  0  0  0  0  0  0  0  0  0  0  0
  149.8006  138.6175  153.4045 H   0  0  0  0  0  0  0  0  0  0  0  0
  151.5073  138.8807  153.3840 H   0  0  0  0  0  0  0  0  0  0  0  0
  1  2  1  0  0  0  0
  1 22  1  0  0  0  0
  1 23  1  0  0  0  0
  1 24  1  0  0  0  0
  2  7  1  0  0  0  0
  2  3  2  0  0  0  0
  3  4  1  0  0  0  0
  3 25  1  0  0  0  0
  4  5  2  0  0  0  0
  4 26  1  0  0  0  0
  5  6  1  0  0  0  0
  5 27  1  0  0  0  0
  6  7  2  0  0  0  0
  7  8  1  0  0  0  0
  8  9  1  0  0  0  0
  8 28  1  0  0  0  0
  9 10  2  0  0  0  0
  9 11  1  0  0  0  0
 11 12  1  0  0  0  0
 11 29  1  0  0  0  0
 12 13  1  0  0  0  0
 12 30  1  0  0  0  0
 12 31  1  0  0  0  0
 13 14  1  0  0  0  0
 13 32  1  0  0  0  0
 13 33  1  0  0  0  0
 14 20  1  0  0  0  0
 14 15  1  0  0  0  0
 15 16  1  0  0  0  0
 15 34  1  0  0  0  0
 15 35  1  0  0  0  0
 16 17  1  0  0  0  0
 16 36  1  0  0  0  0
 16 37  1  0  0  0  0
 17 18  1  0  0  0  0
 17 38  1  0  0  0  0
 17 39  1  0  0  0  0
 18 19  1  0  0  0  0
 18 40  1  0  0  0  0
 18 41  1  0  0  0  0
 19 20  1  0  0  0  0
 19 42  1  0  0  0  0
 19 43  1  0  0  0  0
 20 21  2  0  0  0  0
M  END
> <s_m_source_file>
AV-unprocessed.smi

> <i_m_source_file_index>
1678

> <i_lp_mmshare_version>
43012

> <i_f3d_flags>
0

> <s_epik_input>
W0NIM11jMVtjSF1bY0hdW2NIXW5jMVtOSF1DKD1PKVtOSF1bQ0gyXVtDSDJdTjJbQ0gyXVtDSDJdW0NIMl1bQ0gyXVtDSDJdQzI9Tw==

> <s_epik_cmdline>
J2VwaWtfcHl0aG9uJywgJy1waCcsICc3LjAnLCAnLXRuJywgJzgnLCAnLW1hJywgJzIwMCcsICctbWV0YWxfYmluZGluZycsICctaW1hZScsICc8aW5maWxlLm1hZT4nLCAnLW9tYWUnLCAnPG91dGZpbGUubWFlPic=

> <r_lp_tautomer_probability>
1

> <r_epik_Ionization_Penalty>
5.3034e-05

> <r_epik_Ionization_Penalty_Charging>
0

> <r_epik_Ionization_Penalty_Neutral>
5.3034e-05

> <r_epik_State_Penalty>
-0

> <r_epik_Charging_Adjusted_Penalty>
0

> <i_epik_Tot_Q>
0

> <i_epik_Tot_abs_Q>
0

> <r_epik_Metal_State_Penalty>
-0

> <b_epik_Metal_Only>
0

> <s_lp_Force_Field>
OPLS_2005

> <r_lp_Energy>
24.0679

> <b_lp_Chiralities_Consistent>
1

> <s_lp_Variant>
AV-unprocessed.smi:1678-1

> <Gold.Version>
5.8.1

> <Gold.Id.Protein>
6NUR|6NUR_protein|mol2

> <Gold.PLP.Fitness>
43.5938

> <Gold.PLP.PLP>
-34.9074

> <Gold.PLP.part.hbond>
-2.9559

> <Gold.PLP.part.metal>
0.0000

> <Gold.PLP.part.buried>
-6.1739

> <Gold.PLP.part.nonpolar>
-25.8893

> <Gold.PLP.part.repulsive>
0.3365

> <Gold.PLP.ligand.clash>
0.0000

> <Gold.PLP.ligand.torsion>
0.1802

> <Gold.PLP.Chemscore.Hbond>
3.0000

> <Gold.PLP.Chemscore.CHOScore>
0.0000

> <Gold.PLP.Chemscore.Metal>
0.0000

> <Gold.Chemscore.Hbonds>
donor molecule, donor type, donor heavy atom, donor atom, acceptor molecule, acceptor atom, score
      L1  H     8    28       P1  7948  1.00
      L1  H    11    29       P1  7948  0.90
      P1  H 10752 10763       L1    21  0.80

> <Gold.PLP.Chemscore.Internal.Correction>
0.0467

> <Gold.Rescore>
     Score         DG    S(hbond)    S(metal)    S(lipo)     H(rot)  DE(clash)    DE(int)     intcor
     15.62     -17.10       2.33        0.00      65.83       1.51       0.01       1.47       ----

> <Gold.Chemscore.Fitness>
15.6171

> <Gold.Chemscore.DG>
-17.0958

> <Gold.Chemscore.ZeroCoef>
-5.4800

> <Gold.Chemscore.Hbond>
2.3314

> <Gold.Chemscore.Metal>
0.0000

> <Gold.Chemscore.Lipo>
65.8315

> <Gold.Chemscore.Internal_Hbond>
0.0000

> <Gold.Chemscore.DEClash>
0.0069

> <Gold.Chemscore.DEInternal>
1.4718

> <Gold.Chemscore.Rot>
1.5131

> <Gold.Chemscore.Internal.Correction>
   9.000000E+99

> <Gold.Chemscore.Hbonds>
donor molecule, donor type, donor heavy atom, donor atom, acceptor molecule, acceptor atom, score
      L1  H     8    28       P1  7948  0.58
      L1  H    11    29       P1  7948  0.17
      P1  H 10752 10763       L1    21  0.77

> <Gold.Chemscore.Hbond.Weighted>
-7.7869

> <Gold.Chemscore.Metal.Weighted>
-0.0000

> <Gold.Chemscore.Lipo.Weighted>
-7.7023

> <Gold.Chemscore.Internal_Hbond.Weighted>
0.0000

> <Gold.Chemscore.DEClash.Weighted>
0.0069

> <Gold.Chemscore.DEInternal.Weighted>
1.4718

> <Gold.Chemscore.Rot.Weighted>
3.8735

> <Gold.Chemscore.Internal.Correction.Weighted>
   9.000000E+99

> <Gold.Protein.RotatedTorsions>
[ 6907 6896 6895 6894 ] final  -39.05 input  -60.11 | X-H torsion
[ 7974 7965 7964 7962 ] final -165.77 input  175.53 | X-H torsion
[ 8008 7997 7996 7995 ] final   33.79 input   59.86 | X-H torsion
[ 10167 10162 10161 10158 ] final -121.27 input  -65.29 | X-H torsion
[ 10718 10713 10712 10709 ] final   17.17 input   66.30 | X-H torsion
[ 10763 10752 10751 10750 ] final   48.94 input  -60.55 | X-H torsion
[ 11005 11000 10999 10996 ] final   95.67 input  -57.11 | X-H torsion

> <Gold.Protein.ActiveResidues>
 VAL166  LYS551  ARG553  GLY616  TRP617  ASP618  TYR619  PRO620  LYS621  CYS622 
 ASP623  PHE694  ASN695  SER759  ASP760  ASP761  ALA762  ILE779  LEU786  VAL792 
 PHE793  MET794  SER795  GLU796  ALA797  LYS798  CYS799  TRP800  GLU811  SER814 

> <Gold.Protein.RotatedAtoms>
  150.9950  134.9276  159.7920 H   0  0  0  0  0  0  0  0  0  0  0  0  # atno 6907 bound_to 6896
  152.5262  134.3231  159.9165 H   0  0  0  0  0  0  0  0  0  0  0  0  # atno 6908 bound_to 6896
  151.3236  133.3988  159.2691 H   0  0  0  0  0  0  0  0  0  0  0  0  # atno 6909 bound_to 6896
  144.7261  140.2764  143.6242 H   0  0  0  0  0  0  0  0  0  0  0  0  # atno 7974 bound_to 7965
  155.1443  140.3269  155.4445 H   0  0  0  0  0  0  0  0  0  0  0  0  # atno 8008 bound_to 7997
  156.2595  140.1988  156.6507 H   0  0  0  0  0  0  0  0  0  0  0  0  # atno 8009 bound_to 7997
  154.6519  140.0557  156.9952 H   0  0  0  0  0  0  0  0  0  0  0  0  # atno 8010 bound_to 7997
  140.0269  143.5288  152.2195 H   0  0  0  0  0  0  0  0  0  0  0  0  # atno 10167 bound_to 10162
  157.0783  130.6377  149.5820 H   0  0  0  0  0  0  0  0  0  0  0  0  # atno 10718 bound_to 10713
  152.9789  135.5928  154.4008 H   0  0  0  0  0  0  0  0  0  0  0  0  # atno 10763 bound_to 10752
  154.3654  135.2767  155.2298 H   0  0  0  0  0  0  0  0  0  0  0  0  # atno 10764 bound_to 10752
  154.4277  135.6044  153.6104 H   0  0  0  0  0  0  0  0  0  0  0  0  # atno 10765 bound_to 10752
  139.8787  134.8911  156.4045 H   0  0  0  0  0  0  0  0  0  0  0  0  # atno 11005 bound_to 11000
  145.7992  139.1957  143.2058 LP  0  0  0  0  0  0  0  0  0  0  0  0  # atno 17320 bound_to 7965
  146.0691  140.7889  142.9697 LP  0  0  0  0  0  0  0  0  0  0  0  0  # atno 17321 bound_to 7965
  139.6102  144.7607  151.2969 LP  0  0  0  0  0  0  0  0  0  0  0  0  # atno 17342 bound_to 10162
  140.7319  143.6839  150.7978 LP  0  0  0  0  0  0  0  0  0  0  0  0  # atno 17343 bound_to 10162
  155.9931  130.4991  150.7366 LP  0  0  0  0  0  0  0  0  0  0  0  0  # atno 17370 bound_to 10713
  157.4821  131.0903  151.0524 LP  0  0  0  0  0  0  0  0  0  0  0  0  # atno 17371 bound_to 10713
  140.9244  133.7623  155.9946 LP  0  0  0  0  0  0  0  0  0  0  0  0  # atno 17394 bound_to 11000
  140.8403  134.3074  157.5316 LP  0  0  0  0  0  0  0  0  0  0  0  0  # atno 17395 bound_to 11000

$$$$
