AV-unprocessed.smi:2562|AV-procd|sdf|10046|dock3
  -GOLD-   2272014 93D 1   1.00000     0.00000
 Structure written by MMmdl.
 30 31  0  0  0  0  0  0  0  0  1 V2000
  153.2004  142.3579  159.5129 C   0  0  0  0  0  0  0  0  0  0  0  0
  152.5940  143.4460  158.6205 C   0  0  0  0  0  0  0  0  0  0  0  0
  151.1105  143.1964  158.3130 C   0  0  0  0  0  0  0  0  0  0  0  0
  150.9093  142.1544  157.2621 C   0  0  0  0  0  0  0  0  0  0  0  0
  150.2677  142.4063  156.1194 N   0  0  0  0  0  0  0  0  0  0  0  0
  150.2313  141.2835  155.3717 N   0  0  0  0  0  0  0  0  0  0  0  0
  150.8542  140.4039  156.1581 C   0  0  0  0  0  0  0  0  0  0  0  0
  151.1012  138.9910  155.7269 C   0  0  2  0  0  0  0  0  0  0  0  0
  150.3084  138.6250  154.4568 C   0  0  0  0  0  0  0  0  0  0  0  0
  150.5053  137.2145  154.1254 N   0  0  0  0  0  0  0  0  0  0  0  0
  150.1668  136.3531  155.2575 C   0  0  0  0  0  0  0  0  0  0  0  0
  150.9591  136.7747  156.5083 C   0  0  0  0  0  0  0  0  0  0  0  0
  150.6979  138.1433  156.8008 O   0  0  0  0  0  0  0  0  0  0  0  0
  151.3154  140.8925  157.3494 N   0  0  0  0  0  0  0  0  0  0  0  0
  149.8662  143.2829  155.8183 H   0  0  0  0  0  0  0  0  0  0  0  0
  154.2523  142.5619  159.7137 H   0  0  0  0  0  0  0  0  0  0  0  0
  153.1357  141.3783  159.0384 H   0  0  0  0  0  0  0  0  0  0  0  0
  152.6835  142.3019  160.4713 H   0  0  0  0  0  0  0  0  0  0  0  0
  152.7087  144.4146  159.1086 H   0  0  0  0  0  0  0  0  0  0  0  0
  153.1571  143.5020  157.6881 H   0  0  0  0  0  0  0  0  0  0  0  0
  150.5849  142.8910  159.2189 H   0  0  0  0  0  0  0  0  0  0  0  0
  150.6384  144.1205  157.9772 H   0  0  0  0  0  0  0  0  0  0  0  0
  152.1714  138.8659  155.5507 H   0  0  0  0  0  0  0  0  0  0  0  0
  149.2471  138.8220  154.6139 H   0  0  0  0  0  0  0  0  0  0  0  0
  150.6240  139.2528  153.6234 H   0  0  0  0  0  0  0  0  0  0  0  0
  149.9284  136.9694  153.3269 H   0  0  0  0  0  0  0  0  0  0  0  0
  149.0978  136.4148  155.4643 H   0  0  0  0  0  0  0  0  0  0  0  0
  150.3788  135.3122  155.0128 H   0  0  0  0  0  0  0  0  0  0  0  0
  150.6596  136.1687  157.3633 H   0  0  0  0  0  0  0  0  0  0  0  0
  152.0294  136.6160  156.3659 H   0  0  0  0  0  0  0  0  0  0  0  0
  1  2  1  0  0  0  0
  1 16  1  0  0  0  0
  1 17  1  0  0  0  0
  1 18  1  0  0  0  0
  2  3  1  0  0  0  0
  2 19  1  0  0  0  0
  2 20  1  0  0  0  0
  3 21  1  0  0  0  0
  3 22  1  0  0  0  0
  3  4  1  0  0  0  0
  4 14  2  0  0  0  0
  4  5  1  0  0  0  0
  5  6  1  0  0  0  0
  5 15  1  0  0  0  0
  6  7  2  0  0  0  0
  7 14  1  0  0  0  0
  7  8  1  0  0  0  0
  8 13  1  0  0  0  0
  8  9  1  0  0  0  0
  8 23  1  0  0  0  0
  9 10  1  0  0  0  0
  9 24  1  0  0  0  0
  9 25  1  0  0  0  0
 10 11  1  0  0  0  0
 10 26  1  0  0  0  0
 11 12  1  0  0  0  0
 11 27  1  0  0  0  0
 11 28  1  0  0  0  0
 12 13  1  0  0  0  0
 12 29  1  0  0  0  0
 12 30  1  0  0  0  0
M  END
> <s_m_source_file>
AV-unprocessed.smi

> <i_m_source_file_index>
2562

> <i_lp_mmshare_version>
43012

> <i_f3d_flags>
0

> <s_epik_input>
W0NIM11bQ0gyXVtDSDJdYzFuW25IXWMobjEpW0NAQEhdMltDSDJdW05IXVtDSDJdW0NIMl1PMg==

> <s_epik_cmdline>
J2VwaWtfcHl0aG9uJywgJy1waCcsICc3LjAnLCAnLXRuJywgJzgnLCAnLW1hJywgJzIwMCcsICctbWV0YWxfYmluZGluZycsICctaW1hZScsICc8aW5maWxlLm1hZT4nLCAnLW9tYWUnLCAnPG91dGZpbGUubWFlPic=

> <r_epik_Ionization_Penalty>
1.10136

> <r_epik_Ionization_Penalty_Charging>
0

> <r_epik_Ionization_Penalty_Neutral>
1.10136

> <r_epik_State_Penalty>
1.43987

> <r_epik_Charging_Adjusted_Penalty>
1.43987

> <i_epik_Tot_Q>
0

> <i_epik_Tot_abs_Q>
0

> <r_epik_Metal_State_Penalty>
1.55976

> <b_epik_Metal_Only>
0

> <s_lp_Force_Field>
OPLS_2005

> <r_lp_Energy>
11.7633

> <b_lp_Chiralities_Consistent>
1

> <s_lp_Variant>
AV-unprocessed.smi:2562-5

> <Gold.Version>
5.8.1

> <Gold.Id.Protein>
6NUR|6NUR_protein|mol2

> <Gold.PLP.Fitness>
31.8775

> <Gold.PLP.PLP>
-25.6077

> <Gold.PLP.part.hbond>
-4.0000

> <Gold.PLP.part.metal>
0.0000

> <Gold.PLP.part.buried>
-2.1585

> <Gold.PLP.part.nonpolar>
-19.6543

> <Gold.PLP.part.repulsive>
0.2542

> <Gold.PLP.ligand.clash>
0.0000

> <Gold.PLP.ligand.torsion>
0.2842

> <Gold.PLP.Chemscore.Hbond>
2.2742

> <Gold.PLP.Chemscore.CHOScore>
0.0000

> <Gold.PLP.Chemscore.Metal>
0.0000

> <Gold.Chemscore.Hbonds>
donor molecule, donor type, donor heavy atom, donor atom, acceptor molecule, acceptor atom, score
      L1  H     5    15       P1  8028  1.00
      L1  H    10    26       P1  7948  1.00
      P1  H  7989  7998       L1     6  0.08

> <Gold.PLP.Chemscore.Internal.Correction>
0.0156

> <Gold.Rescore>
     Score         DG    S(hbond)    S(metal)    S(lipo)     H(rot)  DE(clash)    DE(int)     intcor
     15.19     -15.79       2.44        0.00      50.80       1.48       0.52       0.08       ----

> <Gold.Chemscore.Fitness>
15.1943

> <Gold.Chemscore.DG>
-15.7911

> <Gold.Chemscore.ZeroCoef>
-5.4800

> <Gold.Chemscore.Hbond>
2.4396

> <Gold.Chemscore.Metal>
0.0000

> <Gold.Chemscore.Lipo>
50.8009

> <Gold.Chemscore.Internal_Hbond>
0.0000

> <Gold.Chemscore.DEClash>
0.5198

> <Gold.Chemscore.DEInternal>
0.0770

> <Gold.Chemscore.Rot>
1.4769

> <Gold.Chemscore.Internal.Correction>
   9.000000E+99

> <Gold.Chemscore.Hbonds>
donor molecule, donor type, donor heavy atom, donor atom, acceptor molecule, acceptor atom, score
      L1  H     5    15       P1  8028  1.00
      L1  H    10    26       P1  7948  0.26
      P1  H  7989  7998       L1     6  0.01

> <Gold.Chemscore.Hbond.Weighted>
-8.1482

> <Gold.Chemscore.Metal.Weighted>
-0.0000

> <Gold.Chemscore.Lipo.Weighted>
-5.9437

> <Gold.Chemscore.Internal_Hbond.Weighted>
0.0000

> <Gold.Chemscore.DEClash.Weighted>
0.5198

> <Gold.Chemscore.DEInternal.Weighted>
0.0770

> <Gold.Chemscore.Rot.Weighted>
3.7808

> <Gold.Chemscore.Internal.Correction.Weighted>
   9.000000E+99

> <Gold.Protein.RotatedTorsions>
[ 6907 6896 6895 6894 ] final  117.91 input  -60.11 | X-H torsion
[ 7974 7965 7964 7962 ] final   87.47 input  175.53 | X-H torsion
[ 8008 7997 7996 7995 ] final  -75.77 input   59.86 | X-H torsion
[ 10167 10162 10161 10158 ] final  -88.22 input  -65.29 | X-H torsion
[ 10718 10713 10712 10709 ] final  -92.28 input   66.30 | X-H torsion
[ 10763 10752 10751 10750 ] final   68.75 input  -60.55 | X-H torsion
[ 11005 11000 10999 10996 ] final  164.08 input  -57.11 | X-H torsion

> <Gold.Protein.ActiveResidues>
 VAL166  LYS551  ARG553  GLY616  TRP617  ASP618  TYR619  PRO620  LYS621  CYS622 
 ASP623  PHE694  ASN695  SER759  ASP760  ASP761  ALA762  ILE779  LEU786  VAL792 
 PHE793  MET794  SER795  GLU796  ALA797  LYS798  CYS799  TRP800  GLU811  SER814 

> <Gold.Protein.RotatedAtoms>
  152.4580  133.7763  159.6825 H   0  0  0  0  0  0  0  0  0  0  0  0  # atno 6907 bound_to 6896
  150.8513  133.7773  159.3031 H   0  0  0  0  0  0  0  0  0  0  0  0  # atno 6908 bound_to 6896
  151.5367  135.1071  159.9968 H   0  0  0  0  0  0  0  0  0  0  0  0  # atno 6909 bound_to 6896
  145.5585  139.2301  143.2473 H   0  0  0  0  0  0  0  0  0  0  0  0  # atno 7974 bound_to 7965
  154.5446  140.0738  156.8566 H   0  0  0  0  0  0  0  0  0  0  0  0  # atno 8008 bound_to 7997
  155.3114  140.3390  155.4225 H   0  0  0  0  0  0  0  0  0  0  0  0  # atno 8009 bound_to 7997
  156.1906  140.1684  156.8086 H   0  0  0  0  0  0  0  0  0  0  0  0  # atno 8010 bound_to 7997
  140.3768  143.2768  151.9433 H   0  0  0  0  0  0  0  0  0  0  0  0  # atno 10167 bound_to 10162
  156.0001  130.4981  150.5602 H   0  0  0  0  0  0  0  0  0  0  0  0  # atno 10718 bound_to 10713
  153.0251  135.5236  154.7182 H   0  0  0  0  0  0  0  0  0  0  0  0  # atno 10763 bound_to 10752
  154.6245  135.2893  155.0290 H   0  0  0  0  0  0  0  0  0  0  0  0  # atno 10764 bound_to 10752
  154.1264  135.6599  153.4965 H   0  0  0  0  0  0  0  0  0  0  0  0  # atno 10765 bound_to 10752
  140.2422  134.8042  157.3422 H   0  0  0  0  0  0  0  0  0  0  0  0  # atno 11005 bound_to 11000
  146.1868  140.6409  142.9164 LP  0  0  0  0  0  0  0  0  0  0  0  0  # atno 17320 bound_to 7965
  144.7494  140.5153  143.6812 LP  0  0  0  0  0  0  0  0  0  0  0  0  # atno 17321 bound_to 7965
  139.4799  144.5856  151.7859 LP  0  0  0  0  0  0  0  0  0  0  0  0  # atno 17342 bound_to 10162
  140.4978  144.1214  150.5964 LP  0  0  0  0  0  0  0  0  0  0  0  0  # atno 17343 bound_to 10162
  157.3512  131.0734  151.1711 LP  0  0  0  0  0  0  0  0  0  0  0  0  # atno 17370 bound_to 10713
  157.2527  130.6621  149.5938 LP  0  0  0  0  0  0  0  0  0  0  0  0  # atno 17371 bound_to 10713
  140.1641  134.4691  155.7874 LP  0  0  0  0  0  0  0  0  0  0  0  0  # atno 17394 bound_to 11000
  141.2209  133.6914  156.7595 LP  0  0  0  0  0  0  0  0  0  0  0  0  # atno 17395 bound_to 11000

$$$$
