AV-unprocessed.smi:2520|AV-procd|sdf|9909|dock4
  -GOLD-   2272013543D 1   1.00000     0.00000
 Structure written by MMmdl.
 41 44  0  0  0  0  0  0  0  0  1 V2000
  145.4397  138.0547  153.7544 O   0  0  0  0  0  0  0  0  0  0  0  0
  146.3620  137.4086  153.2604 C   0  0  0  0  0  0  0  0  0  0  0  0
  147.6189  137.9008  153.2290 N   0  0  0  0  0  0  0  0  0  0  0  0
  148.1599  139.1353  153.6951 C   0  0  0  0  0  0  0  0  0  0  0  0
  147.2597  140.2220  153.6682 C   0  0  0  0  0  0  0  0  0  0  0  0
  147.7100  141.4764  154.1141 C   0  0  0  0  0  0  0  0  0  0  0  0
  149.0391  141.5609  154.5622 C   0  0  0  0  0  0  0  0  0  0  0  0
  149.8679  140.4951  154.5748 N   0  0  0  0  0  0  0  0  0  0  0  0
  149.4307  139.3058  154.1485 N   0  0  0  0  0  0  0  0  0  0  0  0
  146.1921  136.1908  152.7248 N   0  0  0  0  0  0  0  0  0  0  0  0
  144.9372  135.4426  152.6671 C   0  0  2  0  0  0  0  0  0  0  0  0
  144.6607  134.6395  153.9590 C   0  0  2  0  0  0  0  0  0  0  0  0
  145.4414  134.8495  155.2345 C   0  0  0  0  0  0  0  0  0  0  0  0
  146.4984  133.7428  155.1734 C   0  0  0  0  0  0  0  0  0  0  0  0
  146.5713  133.3805  153.7960 O   0  0  0  0  0  0  0  0  0  0  0  0
  145.2505  133.4242  153.2607 C   0  0  2  0  0  0  0  0  0  0  0  0
  145.0897  134.1140  151.8899 C   0  0  0  0  0  0  0  0  0  0  0  0
  146.2166  133.9383  150.8710 C   0  0  0  0  0  0  0  0  0  0  0  0
  145.8817  132.6930  150.0478 C   0  0  0  0  0  0  0  0  0  0  0  0
  144.3618  132.5324  150.1470 C   0  0  0  0  0  0  0  0  0  0  0  0
  143.8840  133.6576  151.0703 C   0  0  0  0  0  0  0  0  0  0  0  0
  148.2898  137.2977  152.7760 H   0  0  0  0  0  0  0  0  0  0  0  0
  146.2463  140.1005  153.3136 H   0  0  0  0  0  0  0  0  0  0  0  0
  147.0614  142.3399  154.1127 H   0  0  0  0  0  0  0  0  0  0  0  0
  149.4446  142.4968  154.9170 H   0  0  0  0  0  0  0  0  0  0  0  0
  147.0047  135.7333  152.3354 H   0  0  0  0  0  0  0  0  0  0  0  0
  144.0744  136.0276  152.3443 H   0  0  0  0  0  0  0  0  0  0  0  0
  143.5878  134.5176  154.1153 H   0  0  0  0  0  0  0  0  0  0  0  0
  145.9035  135.8357  155.2772 H   0  0  0  0  0  0  0  0  0  0  0  0
  144.8166  134.7464  156.1220 H   0  0  0  0  0  0  0  0  0  0  0  0
  147.4682  134.0653  155.5531 H   0  0  0  0  0  0  0  0  0  0  0  0
  146.1763  132.8750  155.7505 H   0  0  0  0  0  0  0  0  0  0  0  0
  144.6854  132.5031  153.4109 H   0  0  0  0  0  0  0  0  0  0  0  0
  146.2572  134.8055  150.2103 H   0  0  0  0  0  0  0  0  0  0  0  0
  147.1996  133.8534  151.3352 H   0  0  0  0  0  0  0  0  0  0  0  0
  146.2210  132.7894  149.0159 H   0  0  0  0  0  0  0  0  0  0  0  0
  146.3733  131.8185  150.4761 H   0  0  0  0  0  0  0  0  0  0  0  0
  143.8808  132.5905  149.1700 H   0  0  0  0  0  0  0  0  0  0  0  0
  144.1185  131.5594  150.5756 H   0  0  0  0  0  0  0  0  0  0  0  0
  143.0513  133.3328  151.6952 H   0  0  0  0  0  0  0  0  0  0  0  0
  143.5147  134.4859  150.4637 H   0  0  0  0  0  0  0  0  0  0  0  0
  1  2  2  0  0  0  0
  2  3  1  0  0  0  0
  2 10  1  0  0  0  0
  3  4  1  0  0  0  0
  3 22  1  0  0  0  0
  4  9  1  0  0  0  0
  4  5  2  0  0  0  0
  5  6  1  0  0  0  0
  5 23  1  0  0  0  0
  6  7  2  0  0  0  0
  6 24  1  0  0  0  0
  7  8  1  0  0  0  0
  7 25  1  0  0  0  0
  8  9  2  0  0  0  0
 10 11  1  0  0  0  0
 10 26  1  0  0  0  0
 11 17  1  0  0  0  0
 11 12  1  0  0  0  0
 11 27  1  0  0  0  0
 12 16  1  0  0  0  0
 12 13  1  0  0  0  0
 12 28  1  0  0  0  0
 13 14  1  0  0  0  0
 13 29  1  0  0  0  0
 13 30  1  0  0  0  0
 14 15  1  0  0  0  0
 14 31  1  0  0  0  0
 14 32  1  0  0  0  0
 15 16  1  0  0  0  0
 16 17  1  0  0  0  0
 16 33  1  0  0  0  0
 17 21  1  0  0  0  0
 17 18  1  0  0  0  0
 18 19  1  0  0  0  0
 18 34  1  0  0  0  0
 18 35  1  0  0  0  0
 19 20  1  0  0  0  0
 19 36  1  0  0  0  0
 19 37  1  0  0  0  0
 20 21  1  0  0  0  0
 20 38  1  0  0  0  0
 20 39  1  0  0  0  0
 21 40  1  0  0  0  0
 21 41  1  0  0  0  0
M  END
> <s_m_source_file>
AV-unprocessed.smi

> <i_m_source_file_index>
2520

> <i_lp_mmshare_version>
43012

> <i_f3d_flags>
0

> <s_epik_input>
bjFuW2NIXVtjSF1bY0hdYzFbTkhdQyg9TylbTkhdW0NAQEhdMltDQEBIXShbQ0gyXVtDSDJdTzMpW0NASF0zQzI0W0NIMl1bQ0gyXVtDSDJdW0NIMl00

> <s_epik_cmdline>
J2VwaWtfcHl0aG9uJywgJy1waCcsICc3LjAnLCAnLXRuJywgJzgnLCAnLW1hJywgJzIwMCcsICctbWV0YWxfYmluZGluZycsICctaW1hZScsICc8aW5maWxlLm1hZT4nLCAnLW9tYWUnLCAnPG91dGZpbGUubWFlPic=

> <r_lp_tautomer_probability>
1

> <r_epik_Ionization_Penalty>
0.00552561

> <r_epik_Ionization_Penalty_Charging>
0

> <r_epik_Ionization_Penalty_Neutral>
0.00552561

> <r_epik_State_Penalty>
-0

> <r_epik_Charging_Adjusted_Penalty>
0

> <i_epik_Tot_Q>
0

> <i_epik_Tot_abs_Q>
0

> <r_epik_Metal_State_Penalty>
-0

> <b_epik_Metal_Only>
0

> <s_lp_Force_Field>
OPLS_2005

> <r_lp_Energy>
62.4196

> <b_lp_Chiralities_Consistent>
1

> <s_lp_Variant>
AV-unprocessed.smi:2520-3

> <Gold.Version>
5.8.1

> <Gold.Id.Protein>
6NUR|6NUR_protein|mol2

> <Gold.PLP.Fitness>
38.4072

> <Gold.PLP.PLP>
-28.1327

> <Gold.PLP.part.hbond>
-2.9306

> <Gold.PLP.part.metal>
0.0000

> <Gold.PLP.part.buried>
-3.4510

> <Gold.PLP.part.nonpolar>
-22.6213

> <Gold.PLP.part.repulsive>
1.2021

> <Gold.PLP.ligand.clash>
0.0000

> <Gold.PLP.ligand.torsion>
0.3747

> <Gold.PLP.Chemscore.Hbond>
2.6073

> <Gold.PLP.Chemscore.CHOScore>
1.0000

> <Gold.PLP.Chemscore.Metal>
0.0000

> <Gold.Chemscore.Hbonds>
donor molecule, donor type, donor heavy atom, donor atom, acceptor molecule, acceptor atom, score
      L1  H     3    22       P1  7948  1.00
      L1  H    10    26       P1  7948  0.74
      P1  H  7989  7998       L1     8  0.72
      L1  C     7    25       P1  8028  1.00

> <Gold.PLP.Chemscore.Internal.Correction>
0.2022

> <Gold.Rescore>
     Score         DG    S(hbond)    S(metal)    S(lipo)     H(rot)  DE(clash)    DE(int)     intcor
     15.58     -17.78       2.05        0.00      68.65       1.00       0.47       1.73       ----

> <Gold.Chemscore.Fitness>
15.5834

> <Gold.Chemscore.DG>
-17.7839

> <Gold.Chemscore.ZeroCoef>
-5.4800

> <Gold.Chemscore.Hbond>
2.0455

> <Gold.Chemscore.Metal>
0.0000

> <Gold.Chemscore.Lipo>
68.6493

> <Gold.Chemscore.Internal_Hbond>
0.0000

> <Gold.Chemscore.DEClash>
0.4681

> <Gold.Chemscore.DEInternal>
1.7325

> <Gold.Chemscore.Rot>
1.0000

> <Gold.Chemscore.Internal.Correction>
   9.000000E+99

> <Gold.Chemscore.Hbonds>
donor molecule, donor type, donor heavy atom, donor atom, acceptor molecule, acceptor atom, score
      L1  H     3    22       P1  7948  0.94
      L1  H    10    26       P1  7948  0.71
      P1  H  7989  7998       L1     8  0.31

> <Gold.Chemscore.Hbond.Weighted>
-6.8319

> <Gold.Chemscore.Metal.Weighted>
-0.0000

> <Gold.Chemscore.Lipo.Weighted>
-8.0320

> <Gold.Chemscore.Internal_Hbond.Weighted>
0.0000

> <Gold.Chemscore.DEClash.Weighted>
0.4681

> <Gold.Chemscore.DEInternal.Weighted>
1.7325

> <Gold.Chemscore.Rot.Weighted>
2.5600

> <Gold.Chemscore.Internal.Correction.Weighted>
   9.000000E+99

> <Gold.Protein.RotatedTorsions>
[ 6907 6896 6895 6894 ] final   51.69 input  -60.11 | X-H torsion
[ 7974 7965 7964 7962 ] final  -24.53 input  175.53 | X-H torsion
[ 8008 7997 7996 7995 ] final   -1.08 input   59.86 | X-H torsion
[ 10167 10162 10161 10158 ] final   90.58 input  -65.29 | X-H torsion
[ 10718 10713 10712 10709 ] final   20.07 input   66.30 | X-H torsion
[ 10763 10752 10751 10750 ] final  -94.56 input  -60.55 | X-H torsion
[ 11005 11000 10999 10996 ] final  161.80 input  -57.11 | X-H torsion

> <Gold.Protein.ActiveResidues>
 VAL166  LYS551  ARG553  GLY616  TRP617  ASP618  TYR619  PRO620  LYS621  CYS622 
 ASP623  PHE694  ASN695  SER759  ASP760  ASP761  ALA762  ILE779  LEU786  VAL792 
 PHE793  MET794  SER795  GLU796  ALA797  LYS798  CYS799  TRP800  GLU811  SER814 

> <Gold.Protein.RotatedAtoms>
  152.3153  134.7447  160.0326 H   0  0  0  0  0  0  0  0  0  0  0  0  # atno 6907 bound_to 6896
  151.7914  133.3354  159.3508 H   0  0  0  0  0  0  0  0  0  0  0  0  # atno 6908 bound_to 6896
  150.7341  134.5770  159.5964 H   0  0  0  0  0  0  0  0  0  0  0  0  # atno 6909 bound_to 6896
  146.1549  140.4764  142.8596 H   0  0  0  0  0  0  0  0  0  0  0  0  # atno 7974 bound_to 7965
  154.6508  140.2568  155.7216 H   0  0  0  0  0  0  0  0  0  0  0  0  # atno 8008 bound_to 7997
  156.2574  140.2868  156.0862 H   0  0  0  0  0  0  0  0  0  0  0  0  # atno 8009 bound_to 7997
  155.1454  140.0381  157.2799 H   0  0  0  0  0  0  0  0  0  0  0  0  # atno 8010 bound_to 7997
  139.8459  144.6618  150.9227 H   0  0  0  0  0  0  0  0  0  0  0  0  # atno 10167 bound_to 10162
  157.1194  130.6543  149.5919 H   0  0  0  0  0  0  0  0  0  0  0  0  # atno 10718 bound_to 10713
  154.7067  135.5153  153.8605 H   0  0  0  0  0  0  0  0  0  0  0  0  # atno 10763 bound_to 10752
  153.0747  135.6612  154.0181 H   0  0  0  0  0  0  0  0  0  0  0  0  # atno 10764 bound_to 10752
  154.0031  135.3009  155.3380 H   0  0  0  0  0  0  0  0  0  0  0  0  # atno 10765 bound_to 10752
  140.2194  134.8208  157.3204 H   0  0  0  0  0  0  0  0  0  0  0  0  # atno 11005 bound_to 11000
  144.7950  140.6105  143.6516 LP  0  0  0  0  0  0  0  0  0  0  0  0  # atno 17320 bound_to 7965
  145.4734  139.1501  143.3802 LP  0  0  0  0  0  0  0  0  0  0  0  0  # atno 17321 bound_to 7965
  140.7793  143.3870  151.1376 LP  0  0  0  0  0  0  0  0  0  0  0  0  # atno 17342 bound_to 10162
  139.7512  143.8775  152.3077 LP  0  0  0  0  0  0  0  0  0  0  0  0  # atno 17343 bound_to 10162
  155.9832  130.4850  150.6921 LP  0  0  0  0  0  0  0  0  0  0  0  0  # atno 17370 bound_to 10713
  157.4490  131.0870  151.0866 LP  0  0  0  0  0  0  0  0  0  0  0  0  # atno 17371 bound_to 10713
  140.1866  134.4423  155.7740 LP  0  0  0  0  0  0  0  0  0  0  0  0  # atno 17394 bound_to 11000
  141.2223  133.7008  156.7957 LP  0  0  0  0  0  0  0  0  0  0  0  0  # atno 17395 bound_to 11000

$$$$
