AV-unprocessed.smi:158|AV-procd|sdf|1332|dock3
  -GOLD-   2262019 33D 1   1.00000     0.00000
 Structure written by MMmdl.
 31 33  0  0  0  0  0  0  0  0  1 V2000
  153.9986  136.2678  161.1682 N   0  0  0  0  0  0  0  0  0  0  0  0
  154.0221  137.3189  160.3365 C   0  0  0  0  0  0  0  0  0  0  0  0
  155.0862  138.1536  160.3843 N   0  0  0  0  0  0  0  0  0  0  0  0
  155.1490  139.2159  159.5720 C   0  0  0  0  0  0  0  0  0  0  0  0
  156.5491  140.2116  159.7182 Cl  0  0  0  0  0  0  0  0  0  0  0  0
  154.2473  139.5934  158.6598 N   0  0  0  0  0  0  0  0  0  0  0  0
  153.1720  138.7542  158.6082 C   0  0  0  0  0  0  0  0  0  0  0  0
  152.9864  137.5972  159.4113 C   0  0  0  0  0  0  0  0  0  0  0  0
  151.7831  136.9843  159.0886 N   0  0  0  0  0  0  0  0  0  0  0  0
  151.2884  137.7414  158.1457 C   0  0  0  0  0  0  0  0  0  0  0  0
  152.0582  138.8288  157.7952 N   0  0  0  0  0  0  0  0  0  0  0  0
  151.7542  139.8661  156.7610 C   0  0  1  0  0  0  0  0  0  0  0  0
  150.5093  139.5971  156.1854 O   0  0  0  0  0  0  0  0  0  0  0  0
  149.7046  140.7776  156.1748 C   0  0  2  0  0  0  0  0  0  0  0  0
  148.9173  140.8427  154.8572 C   0  0  0  0  0  0  0  0  0  0  0  0
  149.7971  140.8685  153.7532 O   0  0  0  0  0  0  0  0  0  0  0  0
  150.7096  141.9171  156.3836 C   0  0  1  0  0  0  0  0  0  0  0  0
  150.1390  143.0957  156.9167 O   0  0  0  0  0  0  0  0  0  0  0  0
  151.6917  141.2803  157.3470 C   0  0  1  0  0  0  0  0  0  0  0  0
  151.1944  141.2406  158.5872 F   0  0  0  0  0  0  0  0  0  0  0  0
  152.5328  139.7529  156.0056 H   0  0  0  0  0  0  0  0  0  0  0  0
  149.0223  140.7142  157.0246 H   0  0  0  0  0  0  0  0  0  0  0  0
  151.2146  142.1524  155.4456 H   0  0  0  0  0  0  0  0  0  0  0  0
  152.6740  141.7524  157.3756 H   0  0  0  0  0  0  0  0  0  0  0  0
  153.2150  135.6309  161.1516 H   0  0  0  0  0  0  0  0  0  0  0  0
  154.7629  136.1154  161.8101 H   0  0  0  0  0  0  0  0  0  0  0  0
  150.3399  137.5253  157.6759 H   0  0  0  0  0  0  0  0  0  0  0  0
  148.2365  139.9959  154.7644 H   0  0  0  0  0  0  0  0  0  0  0  0
  148.3105  141.7481  154.8310 H   0  0  0  0  0  0  0  0  0  0  0  0
  149.4985  140.2371  153.1164 H   0  0  0  0  0  0  0  0  0  0  0  0
  149.5659  143.4709  156.2650 H   0  0  0  0  0  0  0  0  0  0  0  0
  1  2  1  0  0  0  0
  1 25  1  0  0  0  0
  1 26  1  0  0  0  0
  2  8  1  0  0  0  0
  2  3  2  0  0  0  0
  3  4  1  0  0  0  0
  4  5  1  0  0  0  0
  4  6  2  0  0  0  0
  6  7  1  0  0  0  0
  7 11  1  0  0  0  0
  7  8  2  0  0  0  0
  8  9  1  0  0  0  0
  9 10  2  0  0  0  0
 10 11  1  0  0  0  0
 10 27  1  0  0  0  0
 11 12  1  0  0  0  0
 12 21  1  0  0  0  0
 12 19  1  0  0  0  0
 12 13  1  0  0  0  0
 13 14  1  0  0  0  0
 14 22  1  0  0  0  0
 14 15  1  0  0  0  0
 14 17  1  0  0  0  0
 15 16  1  0  0  0  0
 15 28  1  0  0  0  0
 15 29  1  0  0  0  0
 16 30  1  0  0  0  0
 17 23  1  0  0  0  0
 17 18  1  0  0  0  0
 17 19  1  0  0  0  0
 18 31  1  0  0  0  0
 19 24  1  0  0  0  0
 19 20  1  0  0  0  0
M  END
> <s_m_source_file>
AV-unprocessed.smi

> <i_m_source_file_index>
158

> <i_lp_mmshare_version>
43012

> <i_f3d_flags>
0

> <s_epik_input>
Q2xjKG4xKW5jKFtOSDJdKWMoYzEyKW5bY0hdbjJbQ0BASF0zT1tDQEhdKFtDSDJdW09IXSlbQ0BASF0oW09IXSlbQ0BASF0zRg==

> <s_epik_cmdline>
J2VwaWtfcHl0aG9uJywgJy1waCcsICc3LjAnLCAnLXRuJywgJzgnLCAnLW1hJywgJzIwMCcsICctbWV0YWxfYmluZGluZycsICctaW1hZScsICc8aW5maWxlLm1hZT4nLCAnLW9tYWUnLCAnPG91dGZpbGUubWFlPic=

> <r_lp_tautomer_probability>
1

> <r_epik_Ionization_Penalty>
6.51543e-05

> <r_epik_Ionization_Penalty_Charging>
0

> <r_epik_Ionization_Penalty_Neutral>
6.51543e-05

> <r_epik_State_Penalty>
-0

> <r_epik_Charging_Adjusted_Penalty>
0

> <i_epik_Tot_Q>
0

> <i_epik_Tot_abs_Q>
0

> <r_epik_Metal_State_Penalty>
-0

> <b_epik_Metal_Only>
0

> <s_epik_Chemistry_Notes>
This compound contains an acetal/aminal-like group ( X-CH(R)-Y where X, Y are N, S, or O) that may be acid/base labile, releasing an aldehyde.

> <s_lp_Force_Field>
OPLS_2005

> <r_lp_Energy>
35.9633

> <b_lp_Chiralities_Consistent>
1

> <s_lp_Variant>
AV-unprocessed.smi:158-10

> <Gold.Version>
5.8.1

> <Gold.Id.Protein>
6NUR|6NUR_protein|mol2

> <Gold.PLP.Fitness>
41.0132

> <Gold.PLP.PLP>
-27.2984

> <Gold.PLP.part.hbond>
-5.4141

> <Gold.PLP.part.metal>
0.0000

> <Gold.PLP.part.buried>
-4.2963

> <Gold.PLP.part.nonpolar>
-17.1670

> <Gold.PLP.part.repulsive>
0.0810

> <Gold.PLP.ligand.clash>
0.0000

> <Gold.PLP.ligand.torsion>
0.0059

> <Gold.PLP.Chemscore.Hbond>
4.5743

> <Gold.PLP.Chemscore.CHOScore>
0.0000

> <Gold.PLP.Chemscore.Metal>
0.0000

> <Gold.Chemscore.Hbonds>
donor molecule, donor type, donor heavy atom, donor atom, acceptor molecule, acceptor atom, score
      L1  H    16    30       P1  7957  0.70
      L1  H    18    31       P1  8028  0.98
      P1  H  6896  6908       L1     9  0.98
      P1  H  7989  7998       L1    16  0.42
      P1  H  7997  8008       L1     6  1.00
      P1  H  8011  8017       L1    16  0.49

> <Gold.PLP.Chemscore.Internal.Correction>
0.0037

> <Gold.Rescore>
     Score         DG    S(hbond)    S(metal)    S(lipo)     H(rot)  DE(clash)    DE(int)     intcor
     15.55     -15.60       4.10        0.00      37.82       3.12       0.04       0.00       ----

> <Gold.Chemscore.Fitness>
15.5532

> <Gold.Chemscore.DG>
-15.5999

> <Gold.Chemscore.ZeroCoef>
-5.4800

> <Gold.Chemscore.Hbond>
4.0986

> <Gold.Chemscore.Metal>
0.0000

> <Gold.Chemscore.Lipo>
37.8248

> <Gold.Chemscore.Internal_Hbond>
0.0000

> <Gold.Chemscore.DEClash>
0.0444

> <Gold.Chemscore.DEInternal>
0.0023

> <Gold.Chemscore.Rot>
3.1230

> <Gold.Chemscore.Internal.Correction>
   9.000000E+99

> <Gold.Chemscore.Hbonds>
donor molecule, donor type, donor heavy atom, donor atom, acceptor molecule, acceptor atom, score
      L1  H    16    30       P1  7957  0.71
      L1  H    18    31       P1  8028  0.87
      P1  H  6896  6908       L1     9  0.81
      P1  H  7989  7998       L1    16  0.15
      P1  H  7997  8008       L1     6  0.54
      P1  H  8011  8017       L1    16  0.03

> <Gold.Chemscore.Hbond.Weighted>
-13.6894

> <Gold.Chemscore.Metal.Weighted>
-0.0000

> <Gold.Chemscore.Lipo.Weighted>
-4.4255

> <Gold.Chemscore.Internal_Hbond.Weighted>
0.0000

> <Gold.Chemscore.DEClash.Weighted>
0.0444

> <Gold.Chemscore.DEInternal.Weighted>
0.0023

> <Gold.Chemscore.Rot.Weighted>
7.9950

> <Gold.Chemscore.Internal.Correction.Weighted>
   9.000000E+99

> <Gold.Protein.RotatedTorsions>
[ 6907 6896 6895 6894 ] final -129.76 input  -60.11 | X-H torsion
[ 7974 7965 7964 7962 ] final -178.27 input  175.53 | X-H torsion
[ 8008 7997 7996 7995 ] final -119.82 input   59.86 | X-H torsion
[ 10167 10162 10161 10158 ] final -116.78 input  -65.29 | X-H torsion
[ 10718 10713 10712 10709 ] final   56.06 input   66.30 | X-H torsion
[ 10763 10752 10751 10750 ] final  -12.38 input  -60.55 | X-H torsion
[ 11005 11000 10999 10996 ] final   13.56 input  -57.11 | X-H torsion

> <Gold.Protein.ActiveResidues>
 VAL166  LYS551  ARG553  GLY616  TRP617  ASP618  TYR619  PRO620  LYS621  CYS622 
 ASP623  PHE694  ASN695  SER759  ASP760  ASP761  ALA762  ILE779  LEU786  VAL792 
 PHE793  MET794  SER795  GLU796  ALA797  LYS798  CYS799  TRP800  GLU811  SER814 

> <Gold.Protein.RotatedAtoms>
  150.9323  133.6753  159.2807 H   0  0  0  0  0  0  0  0  0  0  0  0  # atno 6907 bound_to 6896
  151.4171  135.0991  159.9612 H   0  0  0  0  0  0  0  0  0  0  0  0  # atno 6908 bound_to 6896
  152.5031  133.8783  159.7388 H   0  0  0  0  0  0  0  0  0  0  0  0  # atno 6909 bound_to 6896
  144.7130  140.0893  143.6422 H   0  0  0  0  0  0  0  0  0  0  0  0  # atno 7974 bound_to 7965
  155.1219  140.0399  157.2752 H   0  0  0  0  0  0  0  0  0  0  0  0  # atno 8008 bound_to 7997
  154.6607  140.2590  155.7086 H   0  0  0  0  0  0  0  0  0  0  0  0  # atno 8009 bound_to 7997
  156.2618  140.2817  156.1078 H   0  0  0  0  0  0  0  0  0  0  0  0  # atno 8010 bound_to 7997
  140.0755  143.4836  152.1955 H   0  0  0  0  0  0  0  0  0  0  0  0  # atno 10167 bound_to 10162
  157.5399  130.8690  149.8807 H   0  0  0  0  0  0  0  0  0  0  0  0  # atno 10718 bound_to 10713
  153.4976  135.7017  153.5850 H   0  0  0  0  0  0  0  0  0  0  0  0  # atno 10763 bound_to 10752
  153.3995  135.3875  155.1978 H   0  0  0  0  0  0  0  0  0  0  0  0  # atno 10764 bound_to 10752
  154.8713  135.3878  154.4443 H   0  0  0  0  0  0  0  0  0  0  0  0  # atno 10765 bound_to 10752
  140.4793  134.0951  155.7748 H   0  0  0  0  0  0  0  0  0  0  0  0  # atno 11005 bound_to 11000
  145.9634  139.2817  143.1142 LP  0  0  0  0  0  0  0  0  0  0  0  0  # atno 17320 bound_to 7965
  145.9196  140.9124  143.0412 LP  0  0  0  0  0  0  0  0  0  0  0  0  # atno 17321 bound_to 7965
  139.5810  144.7510  151.3640 LP  0  0  0  0  0  0  0  0  0  0  0  0  # atno 17342 bound_to 10162
  140.7104  143.7405  150.7557 LP  0  0  0  0  0  0  0  0  0  0  0  0  # atno 17343 bound_to 10162
  156.0488  130.3722  150.1251 LP  0  0  0  0  0  0  0  0  0  0  0  0  # atno 17370 bound_to 10713
  156.9432  130.9751  151.3512 LP  0  0  0  0  0  0  0  0  0  0  0  0  # atno 17371 bound_to 10713
  141.1539  133.8919  157.2028 LP  0  0  0  0  0  0  0  0  0  0  0  0  # atno 17394 bound_to 11000
  139.9836  135.0090  156.9809 LP  0  0  0  0  0  0  0  0  0  0  0  0  # atno 17395 bound_to 11000

$$$$
