AV-unprocessed.smi:1445|AV-procd|sdf|5886|dock3
  -GOLD-   22720 5563D 1   1.00000     0.00000
 Structure written by MMmdl.
 46 47  0  0  0  0  0  0  0  0  2 V2000
  152.2558  138.5842  154.2411 C   0  0  0  0  0  0  0  0  0  0  0  0
  150.8738  138.2964  154.0580 O   0  0  0  0  0  0  0  0  0  0  0  0
  149.9531  139.2944  154.3151 C   0  0  0  0  0  0  0  0  0  0  0  0
  150.4124  140.5373  154.6071 N   0  0  0  0  0  0  0  0  0  0  0  0
  149.5146  141.5115  154.8608 C   0  0  0  0  0  0  0  0  0  0  0  0
  148.1237  141.3005  154.8454 C   0  0  0  0  0  0  0  0  0  0  0  0
  147.6447  140.0125  154.5428 C   0  0  0  0  0  0  0  0  0  0  0  0
  148.5743  138.9837  154.2566 C   0  0  0  0  0  0  0  0  0  0  0  0
  148.1942  137.6467  153.9560 N   0  0  0  0  0  0  0  0  0  0  0  0
  147.1915  136.9303  154.4909 C   0  0  0  0  0  0  0  0  0  0  0  0
  146.4158  137.3295  155.3596 O   0  0  0  0  0  0  0  0  0  0  0  0
  147.1125  135.7108  153.9392 N   0  0  0  0  0  0  0  0  0  0  0  0
  146.1102  134.7098  154.2863 C   0  0  0  0  0  0  0  0  0  0  0  0
  146.6266  133.2829  154.0174 C   0  0  0  0  0  0  0  0  0  0  0  0
  145.8583  132.5966  152.9492 N   0  3  2  0  0  0  0  0  0  0  0  0
  146.5011  131.3273  152.5210 C   0  0  0  0  0  0  0  0  0  0  0  0
  145.6144  130.5652  151.5237 C   0  0  0  0  0  0  0  0  0  0  0  0
  145.2706  131.4422  150.3117 C   0  0  0  0  0  0  0  0  0  0  0  0
  144.6596  132.7861  150.7498 C   0  0  1  0  0  0  0  0  0  0  0  0
  143.2086  132.6498  151.2430 C   0  0  0  0  0  0  0  0  0  0  0  0
  145.5656  133.4805  151.7874 C   0  0  0  0  0  0  0  0  0  0  0  0
  152.8439  137.6995  153.9974 H   0  0  0  0  0  0  0  0  0  0  0  0
  152.4746  138.8515  155.2758 H   0  0  0  0  0  0  0  0  0  0  0  0
  152.5854  139.3911  153.5849 H   0  0  0  0  0  0  0  0  0  0  0  0
  149.9175  142.4869  155.0902 H   0  0  0  0  0  0  0  0  0  0  0  0
  147.4402  142.1070  155.0659 H   0  0  0  0  0  0  0  0  0  0  0  0
  146.5805  139.8353  154.5502 H   0  0  0  0  0  0  0  0  0  0  0  0
  148.6888  137.2205  153.1859 H   0  0  0  0  0  0  0  0  0  0  0  0
  147.7873  135.4605  153.2309 H   0  0  0  0  0  0  0  0  0  0  0  0
  145.8678  134.8232  155.3433 H   0  0  0  0  0  0  0  0  0  0  0  0
  145.1920  134.9170  153.7360 H   0  0  0  0  0  0  0  0  0  0  0  0
  147.6866  133.2863  153.7579 H   0  0  0  0  0  0  0  0  0  0  0  0
  146.5420  132.7175  154.9467 H   0  0  0  0  0  0  0  0  0  0  0  0
  147.4735  131.5423  152.0748 H   0  0  0  0  0  0  0  0  0  0  0  0
  146.6835  130.6931  153.3895 H   0  0  0  0  0  0  0  0  0  0  0  0
  146.1236  129.6598  151.1922 H   0  0  0  0  0  0  0  0  0  0  0  0
  144.7001  130.2364  152.0188 H   0  0  0  0  0  0  0  0  0  0  0  0
  146.1808  131.6314  149.7411 H   0  0  0  0  0  0  0  0  0  0  0  0
  144.5939  130.9133  149.6396 H   0  0  0  0  0  0  0  0  0  0  0  0
  144.6233  133.4272  149.8680 H   0  0  0  0  0  0  0  0  0  0  0  0
  143.1393  132.0434  152.1459 H   0  0  0  0  0  0  0  0  0  0  0  0
  142.5792  132.1864  150.4828 H   0  0  0  0  0  0  0  0  0  0  0  0
  142.7809  133.6267  151.4693 H   0  0  0  0  0  0  0  0  0  0  0  0
  145.0927  134.4051  152.1169 H   0  0  0  0  0  0  0  0  0  0  0  0
  146.5069  133.7696  151.3166 H   0  0  0  0  0  0  0  0  0  0  0  0
  144.9705  132.3375  153.3555 H   0  0  0  0  0  0  0  0  0  0  0  0
  1  2  1  0  0  0  0
  1 22  1  0  0  0  0
  1 23  1  0  0  0  0
  1 24  1  0  0  0  0
  2  3  1  0  0  0  0
  3  8  1  0  0  0  0
  3  4  2  0  0  0  0
  4  5  1  0  0  0  0
  5  6  2  0  0  0  0
  5 25  1  0  0  0  0
  6  7  1  0  0  0  0
  6 26  1  0  0  0  0
  7  8  2  0  0  0  0
  7 27  1  0  0  0  0
  8  9  1  0  0  0  0
  9 10  1  0  0  0  0
  9 28  1  0  0  0  0
 10 11  2  0  0  0  0
 10 12  1  0  0  0  0
 12 13  1  0  0  0  0
 12 29  1  0  0  0  0
 13 14  1  0  0  0  0
 13 30  1  0  0  0  0
 13 31  1  0  0  0  0
 14 15  1  0  0  0  0
 14 32  1  0  0  0  0
 14 33  1  0  0  0  0
 15 21  1  0  0  0  0
 15 16  1  0  0  0  0
 15 46  1  0  0  0  0
 16 17  1  0  0  0  0
 16 34  1  0  0  0  0
 16 35  1  0  0  0  0
 17 18  1  0  0  0  0
 17 36  1  0  0  0  0
 17 37  1  0  0  0  0
 18 19  1  0  0  0  0
 18 38  1  0  0  0  0
 18 39  1  0  0  0  0
 19 20  1  0  0  0  0
 19 21  1  0  0  0  0
 19 40  1  0  0  0  0
 20 41  1  0  0  0  0
 20 42  1  0  0  0  0
 20 43  1  0  0  0  0
 21 44  1  0  0  0  0
 21 45  1  0  0  0  0
M  CHG  1  15   1
M  END
> <s_m_source_file>
AV-unprocessed.smi

> <i_m_source_file_index>
1445

> <i_lp_mmshare_version>
43012

> <i_f3d_flags>
0

> <s_epik_input>
W0NIM11PYzFuW2NIXVtjSF1bY0hdYzFbTkhdQyg9TylbTkhdW0NIMl1bQ0gyXU4yW0NIMl1bQ0gyXVtDSDJdW0NAQEhdKFtDSDNdKVtDSDJdMg==

> <s_epik_cmdline>
J2VwaWtfcHl0aG9uJywgJy1waCcsICc3LjAnLCAnLXRuJywgJzgnLCAnLW1hJywgJzIwMCcsICctbWV0YWxfYmluZGluZycsICctaW1hZScsICc8aW5maWxlLm1hZT4nLCAnLW9tYWUnLCAnPG91dGZpbGUubWFlPic=

> <r_lp_tautomer_probability>
1

> <r_epik_Ionization_Penalty>
0.00179544

> <r_epik_Ionization_Penalty_Charging>
0.00171832

> <r_epik_Ionization_Penalty_Neutral>
7.71118e-05

> <r_epik_State_Penalty>
0.0011618

> <r_epik_Charging_Adjusted_Penalty>
0.00288012

> <i_epik_Tot_Q>
1

> <i_epik_Tot_abs_Q>
1

> <r_epik_Metal_State_Penalty>
-0

> <b_epik_Metal_Only>
0

> <s_lp_Force_Field>
OPLS_2005

> <r_lp_Energy>
21.8434

> <b_lp_Chiralities_Consistent>
1

> <s_lp_Variant>
AV-unprocessed.smi:1445-2

> <Gold.Version>
5.8.1

> <Gold.Id.Protein>
6NUR|6NUR_protein|mol2

> <Gold.PLP.Fitness>
44.0346

> <Gold.PLP.PLP>
-34.6242

> <Gold.PLP.part.hbond>
-3.0000

> <Gold.PLP.part.metal>
0.0000

> <Gold.PLP.part.buried>
-4.7976

> <Gold.PLP.part.nonpolar>
-27.5809

> <Gold.PLP.part.repulsive>
0.3365

> <Gold.PLP.ligand.clash>
0.0000

> <Gold.PLP.ligand.torsion>
0.9731

> <Gold.PLP.Chemscore.Hbond>
2.7600

> <Gold.PLP.Chemscore.CHOScore>
1.0000

> <Gold.PLP.Chemscore.Metal>
0.0000

> <Gold.Chemscore.Hbonds>
donor molecule, donor type, donor heavy atom, donor atom, acceptor molecule, acceptor atom, score
      L1  H     9    28       P1  7948  1.00
      L1  H    12    29       P1  7948  0.86
      P1  H  7989  7998       L1     4  0.96
      L1  C     5    25       P1  8028  1.00

> <Gold.PLP.Chemscore.Internal.Correction>
0.0767

> <Gold.Rescore>
     Score         DG    S(hbond)    S(metal)    S(lipo)     H(rot)  DE(clash)    DE(int)     intcor
     16.95     -18.92       2.25        0.00      87.96       1.71       0.10       1.87       ----

> <Gold.Chemscore.Fitness>
16.9492

> <Gold.Chemscore.DG>
-18.9185

> <Gold.Chemscore.ZeroCoef>
-5.4800

> <Gold.Chemscore.Hbond>
2.2534

> <Gold.Chemscore.Metal>
0.0000

> <Gold.Chemscore.Lipo>
87.9606

> <Gold.Chemscore.Internal_Hbond>
0.0000

> <Gold.Chemscore.DEClash>
0.1010

> <Gold.Chemscore.DEInternal>
1.8683

> <Gold.Chemscore.Rot>
1.7107

> <Gold.Chemscore.Internal.Correction>
   9.000000E+99

> <Gold.Chemscore.Hbonds>
donor molecule, donor type, donor heavy atom, donor atom, acceptor molecule, acceptor atom, score
      L1  H     9    28       P1  7948  0.99
      L1  H    12    29       P1  7948  0.84
      P1  H  7989  7998       L1     4  0.52

> <Gold.Chemscore.Hbond.Weighted>
-7.5265

> <Gold.Chemscore.Metal.Weighted>
-0.0000

> <Gold.Chemscore.Lipo.Weighted>
-10.2914

> <Gold.Chemscore.Internal_Hbond.Weighted>
0.0000

> <Gold.Chemscore.DEClash.Weighted>
0.1010

> <Gold.Chemscore.DEInternal.Weighted>
1.8683

> <Gold.Chemscore.Rot.Weighted>
4.3794

> <Gold.Chemscore.Internal.Correction.Weighted>
   9.000000E+99

> <Gold.Protein.RotatedTorsions>
[ 6907 6896 6895 6894 ] final   95.88 input  -60.11 | X-H torsion
[ 7974 7965 7964 7962 ] final  139.80 input  175.53 | X-H torsion
[ 8008 7997 7996 7995 ] final  -68.64 input   59.86 | X-H torsion
[ 10167 10162 10161 10158 ] final -122.90 input  -65.29 | X-H torsion
[ 10718 10713 10712 10709 ] final  141.36 input   66.30 | X-H torsion
[ 10763 10752 10751 10750 ] final   64.75 input  -60.55 | X-H torsion
[ 11005 11000 10999 10996 ] final   -2.89 input  -57.11 | X-H torsion

> <Gold.Protein.ActiveResidues>
 VAL166  LYS551  ARG553  GLY616  TRP617  ASP618  TYR619  PRO620  LYS621  CYS622 
 ASP623  PHE694  ASN695  SER759  ASP760  ASP761  ALA762  ILE779  LEU786  VAL792 
 PHE793  MET794  SER795  GLU796  ALA797  LYS798  CYS799  TRP800  GLU811  SER814 

> <Gold.Protein.RotatedAtoms>
  152.5440  134.0972  159.8301 H   0  0  0  0  0  0  0  0  0  0  0  0  # atno 6907 bound_to 6896
  151.1054  133.5205  159.2615 H   0  0  0  0  0  0  0  0  0  0  0  0  # atno 6908 bound_to 6896
  151.1944  135.0425  159.8900 H   0  0  0  0  0  0  0  0  0  0  0  0  # atno 6909 bound_to 6896
  144.9245  139.5125  143.5647 H   0  0  0  0  0  0  0  0  0  0  0  0  # atno 7974 bound_to 7965
  154.4882  140.0869  156.7535 H   0  0  0  0  0  0  0  0  0  0  0  0  # atno 8008 bound_to 7997
  155.4297  140.3449  155.4260 H   0  0  0  0  0  0  0  0  0  0  0  0  # atno 8009 bound_to 7997
  156.1292  140.1496  156.9079 H   0  0  0  0  0  0  0  0  0  0  0  0  # atno 8010 bound_to 7997
  140.0092  143.5459  152.2270 H   0  0  0  0  0  0  0  0  0  0  0  0  # atno 10167 bound_to 10162
  157.3928  131.1007  151.0629 H   0  0  0  0  0  0  0  0  0  0  0  0  # atno 10718 bound_to 10713
  153.0068  135.5382  154.6559 H   0  0  0  0  0  0  0  0  0  0  0  0  # atno 10763 bound_to 10752
  154.5779  135.2847  155.0764 H   0  0  0  0  0  0  0  0  0  0  0  0  # atno 10764 bound_to 10752
  154.1904  135.6501  153.5111 H   0  0  0  0  0  0  0  0  0  0  0  0  # atno 10765 bound_to 10752
  140.6634  133.9300  155.8450 H   0  0  0  0  0  0  0  0  0  0  0  0  # atno 11005 bound_to 11000
  146.3220  139.8149  142.8938 LP  0  0  0  0  0  0  0  0  0  0  0  0  # atno 17320 bound_to 7965
  145.3242  141.0251  143.3483 LP  0  0  0  0  0  0  0  0  0  0  0  0  # atno 17321 bound_to 7965
  139.6217  144.7630  151.2727 LP  0  0  0  0  0  0  0  0  0  0  0  0  # atno 17342 bound_to 10162
  140.7388  143.6637  150.8141 LP  0  0  0  0  0  0  0  0  0  0  0  0  # atno 17343 bound_to 10162
  157.1657  130.6245  149.5624 LP  0  0  0  0  0  0  0  0  0  0  0  0  # atno 17370 bound_to 10713
  155.9803  130.4802  150.6763 LP  0  0  0  0  0  0  0  0  0  0  0  0  # atno 17371 bound_to 10713
  141.0448  134.0570  157.3858 LP  0  0  0  0  0  0  0  0  0  0  0  0  # atno 17394 bound_to 11000
  139.9005  135.0163  156.7247 LP  0  0  0  0  0  0  0  0  0  0  0  0  # atno 17395 bound_to 11000

$$$$
