AV-unprocessed.smi:1011|AV-procd|sdf|4420|dock2
  -GOLD-   22720 2373D 1   1.00000     0.00000
 Structure written by MMmdl.
 43 45  0  0  0  0  0  0  0  0  1 V2000
  145.5110  136.6261  151.8038 C   0  0  0  0  0  0  0  0  0  0  0  0
  146.1180  137.8997  152.3174 C   0  0  0  0  0  0  0  0  0  0  0  0
  146.6982  138.9574  151.5611 C   0  0  0  0  0  0  0  0  0  0  0  0
  147.1444  139.9464  152.3178 N   0  0  0  0  0  0  0  0  0  0  0  0
  146.8655  139.5574  153.5797 N   0  0  0  0  0  0  0  0  0  0  0  0
  147.2194  140.4173  154.6919 C   0  0  0  0  0  0  0  0  0  0  0  0
  148.2377  141.4860  154.2722 C   0  0  0  0  0  0  0  0  0  0  0  0
  149.3533  140.8578  153.5843 N   0  0  0  0  0  0  0  0  0  0  0  0
  150.1381  140.0779  154.5303 C   0  0  0  0  0  0  0  0  0  0  0  0
  150.6193  140.8570  155.7219 C   0  0  0  0  0  0  0  0  0  0  0  0
  150.4234  142.1697  155.8730 N   0  0  0  0  0  0  0  0  0  0  0  0
  151.0209  142.4310  157.0904 C   0  0  0  0  0  0  0  0  0  0  0  0
  151.1504  143.6406  157.8093 C   0  0  0  0  0  0  0  0  0  0  0  0
  151.8143  143.6643  159.0536 C   0  0  0  0  0  0  0  0  0  0  0  0
  151.9629  145.1496  159.9188 Cl  0  0  0  0  0  0  0  0  0  0  0  0
  152.3577  142.4805  159.5943 C   0  0  0  0  0  0  0  0  0  0  0  0
  152.2400  141.2643  158.8940 C   0  0  0  0  0  0  0  0  0  0  0  0
  151.5744  141.2470  157.6538 C   0  0  0  0  0  0  0  0  0  0  0  0
  151.2883  140.2461  156.7313 N   0  0  0  0  0  0  0  0  0  0  0  0
  151.6492  138.8421  156.8464 C   0  0  0  0  0  0  0  0  0  0  0  0
  152.6083  138.4155  155.7268 C   0  0  0  0  0  0  0  0  0  0  0  0
  153.0248  137.0847  155.9388 O   0  0  0  0  0  0  0  0  0  0  0  0
  146.2462  138.3260  153.6092 C   0  0  0  0  0  0  0  0  0  0  0  0
  145.9317  136.3388  150.8400 H   0  0  0  0  0  0  0  0  0  0  0  0
  144.4337  136.7217  151.6687 H   0  0  0  0  0  0  0  0  0  0  0  0
  145.6781  135.7932  152.4873 H   0  0  0  0  0  0  0  0  0  0  0  0
  146.8071  139.0350  150.4893 H   0  0  0  0  0  0  0  0  0  0  0  0
  146.3097  140.8845  155.0722 H   0  0  0  0  0  0  0  0  0  0  0  0
  147.6198  139.7981  155.4962 H   0  0  0  0  0  0  0  0  0  0  0  0
  147.7668  142.2161  153.6123 H   0  0  0  0  0  0  0  0  0  0  0  0
  148.5992  142.0221  155.1508 H   0  0  0  0  0  0  0  0  0  0  0  0
  148.9990  140.2476  152.8617 H   0  0  0  0  0  0  0  0  0  0  0  0
  149.5371  139.2431  154.8928 H   0  0  0  0  0  0  0  0  0  0  0  0
  151.0008  139.6583  154.0118 H   0  0  0  0  0  0  0  0  0  0  0  0
  150.7375  144.5513  157.4013 H   0  0  0  0  0  0  0  0  0  0  0  0
  152.8654  142.5050  160.5474 H   0  0  0  0  0  0  0  0  0  0  0  0
  152.6554  140.3566  159.3059 H   0  0  0  0  0  0  0  0  0  0  0  0
  152.1121  138.6826  157.8211 H   0  0  0  0  0  0  0  0  0  0  0  0
  150.7445  138.2335  156.8339 H   0  0  0  0  0  0  0  0  0  0  0  0
  152.1238  138.4847  154.7524 H   0  0  0  0  0  0  0  0  0  0  0  0
  153.4855  139.0630  155.7026 H   0  0  0  0  0  0  0  0  0  0  0  0
  153.3260  137.0026  156.8310 H   0  0  0  0  0  0  0  0  0  0  0  0
  145.9494  137.8604  154.5374 H   0  0  0  0  0  0  0  0  0  0  0  0
  1  2  1  0  0  0  0
  1 24  1  0  0  0  0
  1 25  1  0  0  0  0
  1 26  1  0  0  0  0
  2 23  2  0  0  0  0
  2  3  1  0  0  0  0
  3  4  2  0  0  0  0
  3 27  1  0  0  0  0
  4  5  1  0  0  0  0
  5  6  1  0  0  0  0
  5 23  1  0  0  0  0
  6  7  1  0  0  0  0
  6 28  1  0  0  0  0
  6 29  1  0  0  0  0
  7  8  1  0  0  0  0
  7 30  1  0  0  0  0
  7 31  1  0  0  0  0
  8  9  1  0  0  0  0
  8 32  1  0  0  0  0
  9 10  1  0  0  0  0
  9 33  1  0  0  0  0
  9 34  1  0  0  0  0
 10 19  1  0  0  0  0
 10 11  2  0  0  0  0
 11 12  1  0  0  0  0
 12 18  2  0  0  0  0
 12 13  1  0  0  0  0
 13 14  2  0  0  0  0
 13 35  1  0  0  0  0
 14 15  1  0  0  0  0
 14 16  1  0  0  0  0
 16 17  2  0  0  0  0
 16 36  1  0  0  0  0
 17 18  1  0  0  0  0
 17 37  1  0  0  0  0
 18 19  1  0  0  0  0
 19 20  1  0  0  0  0
 20 21  1  0  0  0  0
 20 38  1  0  0  0  0
 20 39  1  0  0  0  0
 21 22  1  0  0  0  0
 21 40  1  0  0  0  0
 21 41  1  0  0  0  0
 22 42  1  0  0  0  0
 23 43  1  0  0  0  0
M  END
> <s_m_source_file>
AV-unprocessed.smi

> <i_m_source_file_index>
1011

> <i_lp_mmshare_version>
43012

> <i_f3d_flags>
0

> <s_epik_input>
W0NIM11jMVtjSF1ubihbY0hdMSlbQ0gyXVtDSDJdW05IXVtDSDJdYyhuMiluKFtDSDJdW0NIMl1bT0hdKWMoYzIzKVtjSF1bY0hdYyhDbClbY0hdMw==

> <s_epik_cmdline>
J2VwaWtfcHl0aG9uJywgJy1waCcsICc3LjAnLCAnLXRuJywgJzgnLCAnLW1hJywgJzIwMCcsICctbWV0YWxfYmluZGluZycsICctaW1hZScsICc8aW5maWxlLm1hZT4nLCAnLW9tYWUnLCAnPG91dGZpbGUubWFlPic=

> <r_lp_tautomer_probability>
1

> <r_epik_Ionization_Penalty>
0.714951

> <r_epik_Ionization_Penalty_Charging>
0

> <r_epik_Ionization_Penalty_Neutral>
0.714951

> <r_epik_State_Penalty>
0.695393

> <r_epik_Charging_Adjusted_Penalty>
0.695393

> <i_epik_Tot_Q>
0

> <i_epik_Tot_abs_Q>
0

> <r_epik_Metal_State_Penalty>
0.662708

> <b_epik_Metal_Only>
0

> <s_lp_Force_Field>
OPLS_2005

> <r_lp_Energy>
11.4797

> <b_lp_Chiralities_Consistent>
1

> <s_lp_Variant>
AV-unprocessed.smi:1011-2

> <Gold.Version>
5.8.1

> <Gold.Id.Protein>
6NUR|6NUR_protein|mol2

> <Gold.PLP.Fitness>
52.4005

> <Gold.PLP.PLP>
-47.2752

> <Gold.PLP.part.hbond>
-3.9783

> <Gold.PLP.part.metal>
0.0000

> <Gold.PLP.part.buried>
-1.8224

> <Gold.PLP.part.nonpolar>
-46.4063

> <Gold.PLP.part.repulsive>
4.2526

> <Gold.PLP.ligand.clash>
0.0000

> <Gold.PLP.ligand.torsion>
0.3017

> <Gold.PLP.Chemscore.Hbond>
1.8380

> <Gold.PLP.Chemscore.CHOScore>
0.0000

> <Gold.PLP.Chemscore.Metal>
0.0000

> <Gold.Chemscore.Hbonds>
donor molecule, donor type, donor heavy atom, donor atom, acceptor molecule, acceptor atom, score
      L1  H     8    32       P1  7957  0.56
      P1  H  8011  8017       L1     8  0.65
      P1  H 10752 10765       L1    22  0.61

> <Gold.PLP.Chemscore.Internal.Correction>
0.2148

> <Gold.Rescore>
     Score         DG    S(hbond)    S(metal)    S(lipo)     H(rot)  DE(clash)    DE(int)     intcor
     14.11     -16.58       1.32        0.00     119.29       2.84       0.77       1.70       ----

> <Gold.Chemscore.Fitness>
14.1136

> <Gold.Chemscore.DG>
-16.5796

> <Gold.Chemscore.ZeroCoef>
-5.4800

> <Gold.Chemscore.Hbond>
1.3247

> <Gold.Chemscore.Metal>
0.0000

> <Gold.Chemscore.Lipo>
119.2861

> <Gold.Chemscore.Internal_Hbond>
0.0000

> <Gold.Chemscore.DEClash>
0.7666

> <Gold.Chemscore.DEInternal>
1.6994

> <Gold.Chemscore.Rot>
2.8442

> <Gold.Chemscore.Internal.Correction>
   9.000000E+99

> <Gold.Chemscore.Hbonds>
donor molecule, donor type, donor heavy atom, donor atom, acceptor molecule, acceptor atom, score
      L1  H     8    32       P1  7957  0.56
      P1  H  8011  8017       L1     8  0.02
      P1  H 10752 10765       L1    22  0.33

> <Gold.Chemscore.Hbond.Weighted>
-4.4243

> <Gold.Chemscore.Metal.Weighted>
-0.0000

> <Gold.Chemscore.Lipo.Weighted>
-13.9565

> <Gold.Chemscore.Internal_Hbond.Weighted>
0.0000

> <Gold.Chemscore.DEClash.Weighted>
0.7666

> <Gold.Chemscore.DEInternal.Weighted>
1.6994

> <Gold.Chemscore.Rot.Weighted>
7.2812

> <Gold.Chemscore.Internal.Correction.Weighted>
   9.000000E+99

> <Gold.Protein.RotatedTorsions>
[ 6907 6896 6895 6894 ] final -172.28 input  -60.11 | X-H torsion
[ 7974 7965 7964 7962 ] final -102.26 input  175.53 | X-H torsion
[ 8008 7997 7996 7995 ] final   -7.91 input   59.86 | X-H torsion
[ 10167 10162 10161 10158 ] final  124.24 input  -65.29 | X-H torsion
[ 10718 10713 10712 10709 ] final   27.13 input   66.30 | X-H torsion
[ 10763 10752 10751 10750 ] final -138.25 input  -60.55 | X-H torsion
[ 11005 11000 10999 10996 ] final  110.30 input  -57.11 | X-H torsion

> <Gold.Protein.ActiveResidues>
 VAL166  LYS551  ARG553  GLY616  TRP617  ASP618  TYR619  PRO620  LYS621  CYS622 
 ASP623  PHE694  ASN695  SER759  ASP760  ASP761  ALA762  ILE779  LEU786  VAL792 
 PHE793  MET794  SER795  GLU796  ALA797  LYS798  CYS799  TRP800  GLU811  SER814 

> <Gold.Protein.RotatedAtoms>
  151.5374  133.3438  159.2928 H   0  0  0  0  0  0  0  0  0  0  0  0  # atno 6907 bound_to 6896
  150.8556  134.7896  159.7054 H   0  0  0  0  0  0  0  0  0  0  0  0  # atno 6908 bound_to 6896
  152.4590  134.5234  159.9841 H   0  0  0  0  0  0  0  0  0  0  0  0  # atno 6909 bound_to 6896
  145.2710  140.9298  143.2986 H   0  0  0  0  0  0  0  0  0  0  0  0  # atno 7974 bound_to 7965
  154.5792  140.2394  155.8079 H   0  0  0  0  0  0  0  0  0  0  0  0  # atno 8008 bound_to 7997
  156.2166  140.3010  155.9810 H   0  0  0  0  0  0  0  0  0  0  0  0  # atno 8009 bound_to 7997
  155.2572  140.0413  157.2984 H   0  0  0  0  0  0  0  0  0  0  0  0  # atno 8010 bound_to 7997
  139.5753  144.6960  151.3670 H   0  0  0  0  0  0  0  0  0  0  0  0  # atno 10167 bound_to 10162
  157.2160  130.6956  149.6249 H   0  0  0  0  0  0  0  0  0  0  0  0  # atno 10718 bound_to 10713
  154.8641  135.3618  154.5354 H   0  0  0  0  0  0  0  0  0  0  0  0  # atno 10763 bound_to 10752
  153.5978  135.7013  153.5401 H   0  0  0  0  0  0  0  0  0  0  0  0  # atno 10764 bound_to 10752
  153.3317  135.4122  155.1462 H   0  0  0  0  0  0  0  0  0  0  0  0  # atno 10765 bound_to 10752
  139.8879  134.9480  156.6258 H   0  0  0  0  0  0  0  0  0  0  0  0  # atno 11005 bound_to 11000
  144.9335  139.4271  143.6483 LP  0  0  0  0  0  0  0  0  0  0  0  0  # atno 17320 bound_to 7965
  146.3246  139.8258  142.8918 LP  0  0  0  0  0  0  0  0  0  0  0  0  # atno 17321 bound_to 7965
  140.7036  143.7571  150.7443 LP  0  0  0  0  0  0  0  0  0  0  0  0  # atno 17342 bound_to 10162
  140.1089  143.4718  152.2382 LP  0  0  0  0  0  0  0  0  0  0  0  0  # atno 17343 bound_to 10162
  155.9686  130.4535  150.5815 LP  0  0  0  0  0  0  0  0  0  0  0  0  # atno 17370 bound_to 10713
  157.3624  131.0752  151.1626 LP  0  0  0  0  0  0  0  0  0  0  0  0  # atno 17371 bound_to 10713
  140.7704  133.8743  155.8488 LP  0  0  0  0  0  0  0  0  0  0  0  0  # atno 17394 bound_to 11000
  140.9846  134.1359  157.4463 LP  0  0  0  0  0  0  0  0  0  0  0  0  # atno 17395 bound_to 11000

$$$$
