AV-unprocessed.smi:1434|AV-procd|sdf|5852|dock9
  -GOLD-   22720 5523D 1   1.00000     0.00000
 Structure written by MMmdl.
 45 46  0  0  0  0  0  0  0  0  2 V2000
  146.3004  134.7705  162.3211 C   0  0  0  0  0  0  0  0  0  0  0  0
  147.1427  136.0618  161.3213 S   0  0  0  0  0  0  0  0  0  0  0  0
  146.1533  137.0656  160.9017 O   0  0  0  0  0  0  0  0  0  0  0  0
  148.3630  136.4772  162.0296 O   0  0  0  0  0  0  0  0  0  0  0  0
  147.6220  135.1880  159.9138 N   0  0  0  0  0  0  0  0  0  0  0  0
  148.3761  135.8944  158.8773 C   0  0  1  0  0  0  0  0  0  0  0  0
  148.2748  135.1430  157.5328 C   0  0  0  0  0  0  0  0  0  0  0  0
  148.8891  135.9573  156.3779 C   0  0  0  0  0  0  0  0  0  0  0  0
  148.3433  137.3972  156.3640 C   0  0  0  0  0  0  0  0  0  0  0  0
  148.6020  138.0133  157.6771 N   0  0  0  0  0  0  0  0  0  0  0  0
  149.5837  138.9062  157.9597 C   0  0  0  0  0  0  0  0  0  0  0  0
  149.8020  139.3350  159.0936 O   0  0  0  0  0  0  0  0  0  0  0  0
  150.2792  139.3330  156.8932 N   0  0  0  0  0  0  0  0  0  0  0  0
  151.3627  140.3044  156.9495 C   0  0  0  0  0  0  0  0  0  0  0  0
  150.8119  141.7358  156.9052 C   0  0  0  0  0  0  0  0  0  0  0  0
  151.2973  142.5703  158.0745 C   0  0  0  0  0  0  0  0  0  0  0  0
  152.0865  142.0246  159.1103 C   0  0  0  0  0  0  0  0  0  0  0  0
  152.5144  142.8599  160.1633 C   0  0  0  0  0  0  0  0  0  0  0  0
  152.1453  144.2211  160.1583 C   0  0  0  0  0  0  0  0  0  0  0  0
  151.3571  144.7136  159.0983 C   0  0  0  0  0  0  0  0  0  0  0  0
  150.9672  143.8818  158.1073 N   0  3  0  0  0  0  0  0  0  0  0  0
  147.8478  137.3352  158.7384 C   0  0  0  0  0  0  0  0  0  0  0  0
  145.9606  135.2056  163.2609 H   0  0  0  0  0  0  0  0  0  0  0  0
  146.9975  133.9592  162.5296 H   0  0  0  0  0  0  0  0  0  0  0  0
  145.4438  134.3824  161.7709 H   0  0  0  0  0  0  0  0  0  0  0  0
  146.8328  134.6836  159.5105 H   0  0  0  0  0  0  0  0  0  0  0  0
  149.4231  135.9426  159.1818 H   0  0  0  0  0  0  0  0  0  0  0  0
  148.7591  134.1685  157.6006 H   0  0  0  0  0  0  0  0  0  0  0  0
  147.2253  134.9493  157.3058 H   0  0  0  0  0  0  0  0  0  0  0  0
  149.9743  135.9813  156.4857 H   0  0  0  0  0  0  0  0  0  0  0  0
  148.6833  135.4670  155.4259 H   0  0  0  0  0  0  0  0  0  0  0  0
  148.7716  137.9460  155.5255 H   0  0  0  0  0  0  0  0  0  0  0  0
  147.2680  137.3841  156.1801 H   0  0  0  0  0  0  0  0  0  0  0  0
  150.0400  138.9561  155.9877 H   0  0  0  0  0  0  0  0  0  0  0  0
  151.9391  140.1578  157.8647 H   0  0  0  0  0  0  0  0  0  0  0  0
  152.0383  140.1314  156.1103 H   0  0  0  0  0  0  0  0  0  0  0  0
  151.1070  142.2239  155.9751 H   0  0  0  0  0  0  0  0  0  0  0  0
  149.7210  141.7161  156.9104 H   0  0  0  0  0  0  0  0  0  0  0  0
  152.3644  140.9806  159.0986 H   0  0  0  0  0  0  0  0  0  0  0  0
  153.1196  142.4613  160.9644 H   0  0  0  0  0  0  0  0  0  0  0  0
  152.4637  144.8774  160.9552 H   0  0  0  0  0  0  0  0  0  0  0  0
  151.0300  145.7395  159.0129 H   0  0  0  0  0  0  0  0  0  0  0  0
  146.7879  137.3288  158.4790 H   0  0  0  0  0  0  0  0  0  0  0  0
  147.9134  137.8582  159.6940 H   0  0  0  0  0  0  0  0  0  0  0  0
  150.3991  144.2607  157.3492 H   0  0  0  0  0  0  0  0  0  0  0  0
  1  2  1  0  0  0  0
  1 23  1  0  0  0  0
  1 24  1  0  0  0  0
  1 25  1  0  0  0  0
  2  3  2  0  0  0  0
  2  4  2  0  0  0  0
  2  5  1  0  0  0  0
  5  6  1  0  0  0  0
  5 26  1  0  0  0  0
  6 22  1  0  0  0  0
  6  7  1  0  0  0  0
  6 27  1  0  0  0  0
  7  8  1  0  0  0  0
  7 28  1  0  0  0  0
  7 29  1  0  0  0  0
  8  9  1  0  0  0  0
  8 30  1  0  0  0  0
  8 31  1  0  0  0  0
  9 10  1  0  0  0  0
  9 32  1  0  0  0  0
  9 33  1  0  0  0  0
 10 11  1  0  0  0  0
 10 22  1  0  0  0  0
 11 12  2  0  0  0  0
 11 13  1  0  0  0  0
 13 14  1  0  0  0  0
 13 34  1  0  0  0  0
 14 15  1  0  0  0  0
 14 35  1  0  0  0  0
 14 36  1  0  0  0  0
 15 16  1  0  0  0  0
 15 37  1  0  0  0  0
 15 38  1  0  0  0  0
 16 21  1  0  0  0  0
 16 17  2  0  0  0  0
 17 18  1  0  0  0  0
 17 39  1  0  0  0  0
 18 19  2  0  0  0  0
 18 40  1  0  0  0  0
 19 20  1  0  0  0  0
 19 41  1  0  0  0  0
 20 21  2  0  0  0  0
 20 42  1  0  0  0  0
 21 45  1  0  0  0  0
 22 43  1  0  0  0  0
 22 44  1  0  0  0  0
M  CHG  1  21   1
M  END
> <s_m_source_file>
AV-unprocessed.smi

> <i_m_source_file_index>
1434

> <i_lp_mmshare_version>
43012

> <i_f3d_flags>
0

> <s_epik_input>
W0NIM11TKD1PKSg9TylbTkhdW0NAQEhdMVtDSDJdW0NIMl1bQ0gyXU4oW0NIMl0xKUMoPU8pW05IXVtDSDJdW0NIMl1jMltjSF1bY0hdW2NIXVtjSF1uMg==

> <s_epik_cmdline>
J2VwaWtfcHl0aG9uJywgJy1waCcsICc3LjAnLCAnLXRuJywgJzgnLCAnLW1hJywgJzIwMCcsICctbWV0YWxfYmluZGluZycsICctaW1hZScsICc8aW5maWxlLm1hZT4nLCAnLW9tYWUnLCAnPG91dGZpbGUubWFlPic=

> <r_epik_Ionization_Penalty>
1.55113

> <r_epik_Ionization_Penalty_Charging>
1.55107

> <r_epik_Ionization_Penalty_Neutral>
6.01346e-05

> <r_epik_State_Penalty>
1.64529

> <r_epik_Charging_Adjusted_Penalty>
3.19637

> <i_epik_Tot_Q>
1

> <i_epik_Tot_abs_Q>
1

> <r_epik_Metal_State_Penalty>
1.69621

> <b_epik_Metal_Only>
0

> <s_lp_Force_Field>
OPLS_2005

> <r_lp_Energy>
28.1725

> <b_lp_Chiralities_Consistent>
1

> <s_lp_Variant>
AV-unprocessed.smi:1434-4

> <Gold.Version>
5.8.1

> <Gold.Id.Protein>
6NUR|6NUR_protein|mol2

> <Gold.PLP.Fitness>
45.8062

> <Gold.PLP.PLP>
-35.4306

> <Gold.PLP.part.hbond>
-4.0958

> <Gold.PLP.part.metal>
0.0000

> <Gold.PLP.part.buried>
-3.5911

> <Gold.PLP.part.nonpolar>
-28.8240

> <Gold.PLP.part.repulsive>
0.0329

> <Gold.PLP.ligand.clash>
0.0000

> <Gold.PLP.ligand.torsion>
0.8334

> <Gold.PLP.Chemscore.Hbond>
3.9588

> <Gold.PLP.Chemscore.CHOScore>
0.0000

> <Gold.PLP.Chemscore.Metal>
0.0000

> <Gold.Chemscore.Hbonds>
donor molecule, donor type, donor heavy atom, donor atom, acceptor molecule, acceptor atom, score
      L1  H    21    45       P1  8028  0.71
      P1  H  6931  6943       L1     4  1.00
      P1  H  6934  6947       L1     3  0.57

> <Gold.PLP.Chemscore.Internal.Correction>
0.1661

> <Gold.Rescore>
     Score         DG    S(hbond)    S(metal)    S(lipo)     H(rot)  DE(clash)    DE(int)     intcor
     16.82     -19.27       2.77        0.00      85.33       2.13       0.24       2.21       ----

> <Gold.Chemscore.Fitness>
16.8235

> <Gold.Chemscore.DG>
-19.2682

> <Gold.Chemscore.ZeroCoef>
-5.4800

> <Gold.Chemscore.Hbond>
2.7738

> <Gold.Chemscore.Metal>
0.0000

> <Gold.Chemscore.Lipo>
85.3262

> <Gold.Chemscore.Internal_Hbond>
0.0000

> <Gold.Chemscore.DEClash>
0.2387

> <Gold.Chemscore.DEInternal>
2.2060

> <Gold.Chemscore.Rot>
2.1326

> <Gold.Chemscore.Internal.Correction>
   9.000000E+99

> <Gold.Chemscore.Hbonds>
donor molecule, donor type, donor heavy atom, donor atom, acceptor molecule, acceptor atom, score
      L1  H    21    45       P1  8028  0.28
      P1  H  6931  6943       L1     4  0.99
      P1  H  6934  6947       L1     3  0.34

> <Gold.Chemscore.Hbond.Weighted>
-9.2646

> <Gold.Chemscore.Metal.Weighted>
-0.0000

> <Gold.Chemscore.Lipo.Weighted>
-9.9832

> <Gold.Chemscore.Internal_Hbond.Weighted>
0.0000

> <Gold.Chemscore.DEClash.Weighted>
0.2387

> <Gold.Chemscore.DEInternal.Weighted>
2.2060

> <Gold.Chemscore.Rot.Weighted>
5.4595

> <Gold.Chemscore.Internal.Correction.Weighted>
   9.000000E+99

> <Gold.Protein.RotatedTorsions>
[ 6907 6896 6895 6894 ] final  150.87 input  -60.11 | X-H torsion
[ 7974 7965 7964 7962 ] final -142.77 input  175.53 | X-H torsion
[ 8008 7997 7996 7995 ] final -156.49 input   59.86 | X-H torsion
[ 10167 10162 10161 10158 ] final  151.28 input  -65.29 | X-H torsion
[ 10718 10713 10712 10709 ] final -122.14 input   66.30 | X-H torsion
[ 10763 10752 10751 10750 ] final   22.13 input  -60.55 | X-H torsion
[ 11005 11000 10999 10996 ] final   83.71 input  -57.11 | X-H torsion

> <Gold.Protein.ActiveResidues>
 VAL166  LYS551  ARG553  GLY616  TRP617  ASP618  TYR619  PRO620  LYS621  CYS622 
 ASP623  PHE694  ASN695  SER759  ASP760  ASP761  ALA762  ILE779  LEU786  VAL792 
 PHE793  MET794  SER795  GLU796  ALA797  LYS798  CYS799  TRP800  GLU811  SER814 

> <Gold.Protein.RotatedAtoms>
  152.1085  133.4288  159.4619 H   0  0  0  0  0  0  0  0  0  0  0  0  # atno 6907 bound_to 6896
  150.6866  134.2676  159.4584 H   0  0  0  0  0  0  0  0  0  0  0  0  # atno 6908 bound_to 6896
  152.0543  134.9634  160.0625 H   0  0  0  0  0  0  0  0  0  0  0  0  # atno 6909 bound_to 6896
  144.8418  140.5917  143.5447 H   0  0  0  0  0  0  0  0  0  0  0  0  # atno 7974 bound_to 7965
  155.7179  140.0786  157.2343 H   0  0  0  0  0  0  0  0  0  0  0  0  # atno 8008 bound_to 7997
  154.4049  140.1618  156.2423 H   0  0  0  0  0  0  0  0  0  0  0  0  # atno 8009 bound_to 7997
  155.9223  140.3397  155.6185 H   0  0  0  0  0  0  0  0  0  0  0  0  # atno 8010 bound_to 7997
  139.4842  144.5454  151.7493 H   0  0  0  0  0  0  0  0  0  0  0  0  # atno 10167 bound_to 10162
  156.1395  130.6455  150.9748 H   0  0  0  0  0  0  0  0  0  0  0  0  # atno 10718 bound_to 10713
  153.0939  135.6654  153.9800 H   0  0  0  0  0  0  0  0  0  0  0  0  # atno 10763 bound_to 10752
  153.9389  135.2996  155.3444 H   0  0  0  0  0  0  0  0  0  0  0  0  # atno 10764 bound_to 10752
  154.7356  135.5103  153.9110 H   0  0  0  0  0  0  0  0  0  0  0  0  # atno 10765 bound_to 10752
  139.9022  134.8164  156.2347 H   0  0  0  0  0  0  0  0  0  0  0  0  # atno 11005 bound_to 11000
  145.4677  139.1506  143.3831 LP  0  0  0  0  0  0  0  0  0  0  0  0  # atno 17320 bound_to 7965
  146.2710  140.4810  142.8814 LP  0  0  0  0  0  0  0  0  0  0  0  0  # atno 17321 bound_to 7965
  140.4999  144.1184  150.5969 LP  0  0  0  0  0  0  0  0  0  0  0  0  # atno 17342 bound_to 10162
  140.4074  143.2674  151.9875 LP  0  0  0  0  0  0  0  0  0  0  0  0  # atno 17343 bound_to 10162
  157.6562  131.0889  150.7941 LP  0  0  0  0  0  0  0  0  0  0  0  0  # atno 17370 bound_to 10713
  156.8018  130.4923  149.5368 LP  0  0  0  0  0  0  0  0  0  0  0  0  # atno 17371 bound_to 10713
  141.0323  133.6982  156.1452 LP  0  0  0  0  0  0  0  0  0  0  0  0  # atno 17394 bound_to 11000
  140.7078  134.4494  157.5583 LP  0  0  0  0  0  0  0  0  0  0  0  0  # atno 17395 bound_to 11000

$$$$
