AV-unprocessed.smi:3117|AV-procd|sdf|11882|dock10
  -GOLD-   2272017273D 1   1.00000     0.00000
 Structure written by MMmdl.
 36 36  0  0  0  0  0  0  0  0  1 V2000
  149.2852  142.1503  158.3207 C   0  0  0  0  0  0  0  0  0  0  0  0
  150.4942  142.3687  157.3940 C   0  0  2  0  0  0  0  0  0  0  0  0
  150.4037  141.3842  156.3083 N   0  0  0  0  0  0  0  0  0  0  0  0
  149.0767  141.2183  155.7079 C   0  0  0  0  0  0  0  0  0  0  0  0
  149.0837  140.2129  154.5369 C   0  0  0  0  0  0  0  0  0  0  0  0
  149.9685  139.0067  154.8927 C   0  0  0  0  0  0  0  0  0  0  0  0
  147.6694  139.7368  154.1535 C   0  0  0  0  0  0  0  0  0  0  0  0
  149.6825  140.8331  153.4152 O   0  0  0  0  0  0  0  0  0  0  0  0
  151.8475  142.2633  158.1628 C   0  0  2  0  0  0  0  0  0  0  0  0
  152.1816  140.8303  158.6247 C   0  0  0  0  0  0  0  0  0  0  0  0
  151.9186  143.1684  159.3032 N   0  0  0  0  0  0  0  0  0  0  0  0
  152.2175  142.8617  160.6152 C   0  0  0  0  0  0  0  0  0  0  0  0
  152.1801  144.0265  161.3268 C   0  0  0  0  0  0  0  0  0  0  0  0
  151.8449  145.0070  160.3520 C   0  0  0  0  0  0  0  0  0  0  0  0
  151.6907  144.4927  159.1429 N   0  0  0  0  0  0  0  0  0  0  0  0
  149.1981  142.9410  159.0655 H   0  0  0  0  0  0  0  0  0  0  0  0
  149.3511  141.1968  158.8459 H   0  0  0  0  0  0  0  0  0  0  0  0
  148.3534  142.1527  157.7541 H   0  0  0  0  0  0  0  0  0  0  0  0
  150.3961  143.3733  156.9798 H   0  0  0  0  0  0  0  0  0  0  0  0
  150.7212  140.4803  156.6449 H   0  0  0  0  0  0  0  0  0  0  0  0
  148.3677  140.8901  156.4691 H   0  0  0  0  0  0  0  0  0  0  0  0
  148.7002  142.1684  155.3382 H   0  0  0  0  0  0  0  0  0  0  0  0
  149.5727  138.4707  155.7562 H   0  0  0  0  0  0  0  0  0  0  0  0
  150.9857  139.3166  155.1368 H   0  0  0  0  0  0  0  0  0  0  0  0
  150.0299  138.2975  154.0663 H   0  0  0  0  0  0  0  0  0  0  0  0
  147.1682  139.2753  155.0051 H   0  0  0  0  0  0  0  0  0  0  0  0
  147.7036  138.9984  153.3517 H   0  0  0  0  0  0  0  0  0  0  0  0
  147.0420  140.5589  153.8081 H   0  0  0  0  0  0  0  0  0  0  0  0
  149.6237  140.2433  152.6793 H   0  0  0  0  0  0  0  0  0  0  0  0
  152.6414  142.5641  157.4770 H   0  0  0  0  0  0  0  0  0  0  0  0
  152.3633  140.1656  157.7805 H   0  0  0  0  0  0  0  0  0  0  0  0
  151.3744  140.4029  159.2203 H   0  0  0  0  0  0  0  0  0  0  0  0
  153.0862  140.8179  159.2337 H   0  0  0  0  0  0  0  0  0  0  0  0
  152.4346  141.8512  160.9286 H   0  0  0  0  0  0  0  0  0  0  0  0
  152.3656  144.1579  162.3823 H   0  0  0  0  0  0  0  0  0  0  0  0
  151.7121  146.0704  160.4859 H   0  0  0  0  0  0  0  0  0  0  0  0
  1  2  1  0  0  0  0
  1 16  1  0  0  0  0
  1 17  1  0  0  0  0
  1 18  1  0  0  0  0
  2  3  1  0  0  0  0
  2  9  1  0  0  0  0
  2 19  1  0  0  0  0
  3  4  1  0  0  0  0
  3 20  1  0  0  0  0
  4  5  1  0  0  0  0
  4 21  1  0  0  0  0
  4 22  1  0  0  0  0
  5  6  1  0  0  0  0
  5  7  1  0  0  0  0
  5  8  1  0  0  0  0
  6 23  1  0  0  0  0
  6 24  1  0  0  0  0
  6 25  1  0  0  0  0
  7 26  1  0  0  0  0
  7 27  1  0  0  0  0
  7 28  1  0  0  0  0
  8 29  1  0  0  0  0
  9 10  1  0  0  0  0
  9 11  1  0  0  0  0
  9 30  1  0  0  0  0
 10 31  1  0  0  0  0
 10 32  1  0  0  0  0
 10 33  1  0  0  0  0
 11 15  1  0  0  0  0
 11 12  1  0  0  0  0
 12 13  2  0  0  0  0
 12 34  1  0  0  0  0
 13 14  1  0  0  0  0
 13 35  1  0  0  0  0
 14 15  2  0  0  0  0
 14 36  1  0  0  0  0
M  END
> <s_m_source_file>
AV-unprocessed.smi

> <i_m_source_file_index>
3117

> <i_lp_mmshare_version>
43012

> <i_f3d_flags>
0

> <s_epik_input>
W0NIM11DKFtDSDNdKShbT0hdKVtDSDJdW05IXVtDQEBIXShbQ0gzXSlbQ0BIXShbQ0gzXSluMVtjSF1bY0hdW2NIXW4x

> <s_epik_cmdline>
J2VwaWtfcHl0aG9uJywgJy1waCcsICc3LjAnLCAnLXRuJywgJzgnLCAnLW1hJywgJzIwMCcsICctbWV0YWxfYmluZGluZycsICctaW1hZScsICc8aW5maWxlLm1hZT4nLCAnLW9tYWUnLCAnPG91dGZpbGUubWFlPic=

> <r_lp_tautomer_probability>
1

> <r_epik_Ionization_Penalty>
2.13419

> <r_epik_Ionization_Penalty_Charging>
0

> <r_epik_Ionization_Penalty_Neutral>
2.13419

> <r_epik_State_Penalty>
2.27148

> <r_epik_Charging_Adjusted_Penalty>
2.27148

> <i_epik_Tot_Q>
0

> <i_epik_Tot_abs_Q>
0

> <r_epik_Metal_State_Penalty>
2.27029

> <b_epik_Metal_Only>
0

> <s_lp_Force_Field>
OPLS_2005

> <r_lp_Energy>
19.9089

> <b_lp_Chiralities_Consistent>
1

> <s_lp_Variant>
AV-unprocessed.smi:3117-5

> <Gold.Version>
5.8.1

> <Gold.Id.Protein>
6NUR|6NUR_protein|mol2

> <Gold.PLP.Fitness>
38.7759

> <Gold.PLP.PLP>
-33.5052

> <Gold.PLP.part.hbond>
-2.3532

> <Gold.PLP.part.metal>
0.0000

> <Gold.PLP.part.buried>
-5.8519

> <Gold.PLP.part.nonpolar>
-25.5198

> <Gold.PLP.part.repulsive>
0.0617

> <Gold.PLP.ligand.clash>
0.0000

> <Gold.PLP.ligand.torsion>
0.3898

> <Gold.PLP.Chemscore.Hbond>
1.9864

> <Gold.PLP.Chemscore.CHOScore>
0.0000

> <Gold.PLP.Chemscore.Metal>
0.0000

> <Gold.Chemscore.Hbonds>
donor molecule, donor type, donor heavy atom, donor atom, acceptor molecule, acceptor atom, score
      L1  H     8    29       P1  7957  0.96
      P1  H  7989  7998       L1     8  0.24
      P1  H  8011  8017       L1     8  0.70

> <Gold.PLP.Chemscore.Internal.Correction>
0.0911

> <Gold.Rescore>
     Score         DG    S(hbond)    S(metal)    S(lipo)     H(rot)  DE(clash)    DE(int)     intcor
     13.60     -13.94       1.16        0.00      87.03       2.19       0.00       0.34       ----

> <Gold.Chemscore.Fitness>
13.6015

> <Gold.Chemscore.DG>
-13.9416

> <Gold.Chemscore.ZeroCoef>
-5.4800

> <Gold.Chemscore.Hbond>
1.1620

> <Gold.Chemscore.Metal>
0.0000

> <Gold.Chemscore.Lipo>
87.0277

> <Gold.Chemscore.Internal_Hbond>
0.0000

> <Gold.Chemscore.DEClash>
0.0033

> <Gold.Chemscore.DEInternal>
0.3368

> <Gold.Chemscore.Rot>
2.1882

> <Gold.Chemscore.Internal.Correction>
   9.000000E+99

> <Gold.Chemscore.Hbonds>
donor molecule, donor type, donor heavy atom, donor atom, acceptor molecule, acceptor atom, score
      L1  H     8    29       P1  7957  0.86
      P1  H  7989  7998       L1     8  0.03
      P1  H  8011  8017       L1     8  0.07

> <Gold.Chemscore.Hbond.Weighted>
-3.8811

> <Gold.Chemscore.Metal.Weighted>
-0.0000

> <Gold.Chemscore.Lipo.Weighted>
-10.1822

> <Gold.Chemscore.Internal_Hbond.Weighted>
0.0000

> <Gold.Chemscore.DEClash.Weighted>
0.0033

> <Gold.Chemscore.DEInternal.Weighted>
0.3368

> <Gold.Chemscore.Rot.Weighted>
5.6018

> <Gold.Chemscore.Internal.Correction.Weighted>
   9.000000E+99

> <Gold.Protein.RotatedTorsions>
[ 6907 6896 6895 6894 ] final -175.65 input  -60.11 | X-H torsion
[ 7974 7965 7964 7962 ] final   57.34 input  175.53 | X-H torsion
[ 8008 7997 7996 7995 ] final  142.16 input   59.86 | X-H torsion
[ 10167 10162 10161 10158 ] final  -39.04 input  -65.29 | X-H torsion
[ 10718 10713 10712 10709 ] final  -20.93 input   66.30 | X-H torsion
[ 10763 10752 10751 10750 ] final  -30.19 input  -60.55 | X-H torsion
[ 11005 11000 10999 10996 ] final  179.62 input  -57.11 | X-H torsion

> <Gold.Protein.ActiveResidues>
 VAL166  LYS551  ARG553  GLY616  TRP617  ASP618  TYR619  PRO620  LYS621  CYS622 
 ASP623  PHE694  ASN695  SER759  ASP760  ASP761  ALA762  ILE779  LEU786  VAL792 
 PHE793  MET794  SER795  GLU796  ALA797  LYS798  CYS799  TRP800  GLU811  SER814 

> <Gold.Protein.RotatedAtoms>
  151.5921  133.3365  159.3029 H   0  0  0  0  0  0  0  0  0  0  0  0  # atno 6907 bound_to 6896
  150.8254  134.7486  159.6820 H   0  0  0  0  0  0  0  0  0  0  0  0  # atno 6908 bound_to 6896
  152.4344  134.5721  159.9975 H   0  0  0  0  0  0  0  0  0  0  0  0  # atno 6909 bound_to 6896
  145.9301  139.3800  143.0426 H   0  0  0  0  0  0  0  0  0  0  0  0  # atno 7974 bound_to 7965
  156.2954  140.2296  156.4682 H   0  0  0  0  0  0  0  0  0  0  0  0  # atno 8008 bound_to 7997
  154.7958  140.0451  157.1256 H   0  0  0  0  0  0  0  0  0  0  0  0  # atno 8009 bound_to 7997
  154.9591  140.3052  155.5042 H   0  0  0  0  0  0  0  0  0  0  0  0  # atno 8010 bound_to 7997
  140.7075  143.3239  151.2727 H   0  0  0  0  0  0  0  0  0  0  0  0  # atno 10167 bound_to 10162
  156.5251  130.4641  149.6576 H   0  0  0  0  0  0  0  0  0  0  0  0  # atno 10718 bound_to 10713
  153.7769  135.6908  153.4895 H   0  0  0  0  0  0  0  0  0  0  0  0  # atno 10763 bound_to 10752
  153.1837  135.4497  155.0060 H   0  0  0  0  0  0  0  0  0  0  0  0  # atno 10764 bound_to 10752
  154.8096  135.3372  154.7275 H   0  0  0  0  0  0  0  0  0  0  0  0  # atno 10765 bound_to 10752
  140.4082  134.6715  157.4600 H   0  0  0  0  0  0  0  0  0  0  0  0  # atno 11005 bound_to 11000
  145.8437  140.9567  143.0786 LP  0  0  0  0  0  0  0  0  0  0  0  0  # atno 17320 bound_to 7965
  144.6764  140.0317  143.7482 LP  0  0  0  0  0  0  0  0  0  0  0  0  # atno 17321 bound_to 7965
  139.6701  144.0035  152.2747 LP  0  0  0  0  0  0  0  0  0  0  0  0  # atno 17342 bound_to 10162
  139.9631  144.6544  150.8060 LP  0  0  0  0  0  0  0  0  0  0  0  0  # atno 17343 bound_to 10162
  156.3113  130.7230  151.2123 LP  0  0  0  0  0  0  0  0  0  0  0  0  # atno 17370 bound_to 10713
  157.7431  131.0480  150.4975 LP  0  0  0  0  0  0  0  0  0  0  0  0  # atno 17371 bound_to 10713
  140.0286  134.6439  155.9137 LP  0  0  0  0  0  0  0  0  0  0  0  0  # atno 17394 bound_to 11000
  141.1831  133.6550  156.5103 LP  0  0  0  0  0  0  0  0  0  0  0  0  # atno 17395 bound_to 11000

$$$$
