AV-unprocessed.smi:3336|AV-procd|sdf|12855|dock1
  -GOLD-   2272019253D 1   1.00000     0.00000
 Structure written by MMmdl.
 42 43  0  0  0  0  0  0  0  0  2 V2000
  147.2334  132.9097  154.1058 C   0  0  0  0  0  0  0  0  0  0  0  0
  147.1393  134.4302  154.3176 C   0  0  2  0  0  0  0  0  0  0  0  0
  146.2411  135.1136  153.2599 C   0  0  0  0  0  0  0  0  0  0  0  0
  145.7209  134.1864  152.2716 N   0  0  0  0  0  0  0  0  0  0  0  0
  144.4072  133.8611  152.0059 C   0  0  0  0  0  0  0  0  0  0  0  0
  144.4135  132.9397  150.9982 C   0  0  0  0  0  0  0  0  0  0  0  0
  145.7961  132.7568  150.7155 C   0  0  0  0  0  0  0  0  0  0  0  0
  146.5762  133.5031  151.4812 N   0  0  0  0  0  0  0  0  0  0  0  0
  148.5064  135.0038  154.3104 N   0  3  0  0  0  0  0  0  0  0  0  0
  148.7371  136.2157  155.1347 C   0  0  1  0  0  0  0  0  0  0  0  0
  148.1849  136.0249  156.5645 C   0  0  0  0  0  0  0  0  0  0  0  0
  150.2456  136.5418  155.1469 C   0  0  0  0  0  0  0  0  0  0  0  0
  151.0246  135.6939  155.5850 O   0  0  0  0  0  0  0  0  0  0  0  0
  150.6876  137.7279  154.6569 N   0  0  0  0  0  0  0  0  0  0  0  0
  149.7847  138.7680  154.1520 C   0  0  0  0  0  0  0  0  0  0  0  0
  149.8923  139.9955  155.0749 C   0  0  0  0  0  0  0  0  0  0  0  0
  151.2442  140.4463  155.1171 O   0  0  0  0  0  0  0  0  0  0  0  0
  152.1549  139.4477  155.5691 C   0  0  0  0  0  0  0  0  0  0  0  0
  152.0708  138.2170  154.6489 C   0  0  0  0  0  0  0  0  0  0  0  0
  146.2586  132.4296  154.1950 H   0  0  0  0  0  0  0  0  0  0  0  0
  147.8849  132.4496  154.8496 H   0  0  0  0  0  0  0  0  0  0  0  0
  147.6333  132.6701  153.1198 H   0  0  0  0  0  0  0  0  0  0  0  0
  146.7004  134.5840  155.3028 H   0  0  0  0  0  0  0  0  0  0  0  0
  145.3891  135.6066  153.7277 H   0  0  0  0  0  0  0  0  0  0  0  0
  146.8021  135.8897  152.7372 H   0  0  0  0  0  0  0  0  0  0  0  0
  143.5861  134.3081  152.5469 H   0  0  0  0  0  0  0  0  0  0  0  0
  143.5605  132.4660  150.5350 H   0  0  0  0  0  0  0  0  0  0  0  0
  146.2523  132.1076  149.9826 H   0  0  0  0  0  0  0  0  0  0  0  0
  149.1486  134.2956  154.6372 H   0  0  0  0  0  0  0  0  0  0  0  0
  148.2124  137.0714  154.7138 H   0  0  0  0  0  0  0  0  0  0  0  0
  148.4402  136.8720  157.2031 H   0  0  0  0  0  0  0  0  0  0  0  0
  148.5807  135.1234  157.0340 H   0  0  0  0  0  0  0  0  0  0  0  0
  147.0980  135.9487  156.5717 H   0  0  0  0  0  0  0  0  0  0  0  0
  150.0731  139.0364  153.1347 H   0  0  0  0  0  0  0  0  0  0  0  0
  148.7450  138.4437  154.0925 H   0  0  0  0  0  0  0  0  0  0  0  0
  149.2618  140.8037  154.7042 H   0  0  0  0  0  0  0  0  0  0  0  0
  149.5477  139.7563  156.0821 H   0  0  0  0  0  0  0  0  0  0  0  0
  153.1641  139.8595  155.5583 H   0  0  0  0  0  0  0  0  0  0  0  0
  151.9307  139.1773  156.6022 H   0  0  0  0  0  0  0  0  0  0  0  0
  152.8067  137.4830  154.9642 H   0  0  0  0  0  0  0  0  0  0  0  0
  152.3489  138.4927  153.6306 H   0  0  0  0  0  0  0  0  0  0  0  0
  148.7420  135.2216  153.3529 H   0  0  0  0  0  0  0  0  0  0  0  0
  1  2  1  0  0  0  0
  1 20  1  0  0  0  0
  1 21  1  0  0  0  0
  1 22  1  0  0  0  0
  2  3  1  0  0  0  0
  2  9  1  0  0  0  0
  2 23  1  0  0  0  0
  3  4  1  0  0  0  0
  3 24  1  0  0  0  0
  3 25  1  0  0  0  0
  4  8  1  0  0  0  0
  4  5  1  0  0  0  0
  5  6  2  0  0  0  0
  5 26  1  0  0  0  0
  6  7  1  0  0  0  0
  6 27  1  0  0  0  0
  7  8  2  0  0  0  0
  7 28  1  0  0  0  0
  9 10  1  0  0  0  0
  9 29  1  0  0  0  0
  9 42  1  0  0  0  0
 10 11  1  0  0  0  0
 10 12  1  0  0  0  0
 10 30  1  0  0  0  0
 11 31  1  0  0  0  0
 11 32  1  0  0  0  0
 11 33  1  0  0  0  0
 12 13  2  0  0  0  0
 12 14  1  0  0  0  0
 14 19  1  0  0  0  0
 14 15  1  0  0  0  0
 15 16  1  0  0  0  0
 15 34  1  0  0  0  0
 15 35  1  0  0  0  0
 16 17  1  0  0  0  0
 16 36  1  0  0  0  0
 16 37  1  0  0  0  0
 17 18  1  0  0  0  0
 18 19  1  0  0  0  0
 18 38  1  0  0  0  0
 18 39  1  0  0  0  0
 19 40  1  0  0  0  0
 19 41  1  0  0  0  0
M  CHG  1   9   1
M  END
> <s_m_source_file>
AV-unprocessed.smi

> <i_m_source_file_index>
3336

> <i_lp_mmshare_version>
43012

> <i_f3d_flags>
0

> <s_epik_input>
bjFbY0hdW2NIXVtjSF1uMVtDSDJdW0NAQEhdKFtDSDNdKVtOSF1bQ0BIXShbQ0gzXSlDKD1PKU4yW0NIMl1bQ0gyXU9bQ0gyXVtDSDJdMg==

> <s_epik_cmdline>
J2VwaWtfcHl0aG9uJywgJy1waCcsICc3LjAnLCAnLXRuJywgJzgnLCAnLW1hJywgJzIwMCcsICctbWV0YWxfYmluZGluZycsICctaW1hZScsICc8aW5maWxlLm1hZT4nLCAnLW9tYWUnLCAnPG91dGZpbGUubWFlPic=

> <r_lp_tautomer_probability>
1

> <r_epik_Ionization_Penalty>
0.200288

> <r_epik_Ionization_Penalty_Charging>
0.200285

> <r_epik_Ionization_Penalty_Neutral>
3.37705e-06

> <r_epik_State_Penalty>
0.190126

> <r_epik_Charging_Adjusted_Penalty>
0.39041

> <i_epik_Tot_Q>
1

> <i_epik_Tot_abs_Q>
1

> <r_epik_Metal_State_Penalty>
0.190133

> <b_epik_Metal_Only>
0

> <s_lp_Force_Field>
OPLS_2005

> <r_lp_Energy>
29.2722

> <b_lp_Chiralities_Consistent>
1

> <s_lp_Variant>
AV-unprocessed.smi:3336-3

> <Gold.Version>
5.8.1

> <Gold.Id.Protein>
6NUR|6NUR_protein|mol2

> <Gold.PLP.Fitness>
43.4640

> <Gold.PLP.PLP>
-31.1757

> <Gold.PLP.part.hbond>
-3.0000

> <Gold.PLP.part.metal>
0.0000

> <Gold.PLP.part.buried>
-2.1487

> <Gold.PLP.part.nonpolar>
-25.1185

> <Gold.PLP.part.repulsive>
0.3565

> <Gold.PLP.ligand.clash>
0.0000

> <Gold.PLP.ligand.torsion>
1.1535

> <Gold.PLP.Chemscore.Hbond>
4.0000

> <Gold.PLP.Chemscore.CHOScore>
0.8249

> <Gold.PLP.Chemscore.Metal>
0.0000

> <Gold.Chemscore.Hbonds>
donor molecule, donor type, donor heavy atom, donor atom, acceptor molecule, acceptor atom, score
      L1  H     9    42       P1  7948  2.00
      P1  H  7989  7998       L1    17  0.98
      P1  H 10752 10763       L1    13  0.78

> <Gold.PLP.Chemscore.Internal.Correction>
0.1204

> <Gold.Rescore>
     Score         DG    S(hbond)    S(metal)    S(lipo)     H(rot)  DE(clash)    DE(int)     intcor
     12.94     -15.40       2.24        0.00      61.52       1.85       0.01       2.45       ----

> <Gold.Chemscore.Fitness>
12.9421

> <Gold.Chemscore.DG>
-15.4049

> <Gold.Chemscore.ZeroCoef>
-5.4800

> <Gold.Chemscore.Hbond>
2.2376

> <Gold.Chemscore.Metal>
0.0000

> <Gold.Chemscore.Lipo>
61.5203

> <Gold.Chemscore.Internal_Hbond>
0.0000

> <Gold.Chemscore.DEClash>
0.0141

> <Gold.Chemscore.DEInternal>
2.4487

> <Gold.Chemscore.Rot>
1.8541

> <Gold.Chemscore.Internal.Correction>
   9.000000E+99

> <Gold.Chemscore.Hbonds>
donor molecule, donor type, donor heavy atom, donor atom, acceptor molecule, acceptor atom, score
      L1  H     9    42       P1  7948  0.74
      P1  H  7989  7998       L1    17  0.36
      P1  H 10752 10763       L1    13  0.74

> <Gold.Chemscore.Hbond.Weighted>
-7.4735

> <Gold.Chemscore.Metal.Weighted>
-0.0000

> <Gold.Chemscore.Lipo.Weighted>
-7.1979

> <Gold.Chemscore.Internal_Hbond.Weighted>
0.0000

> <Gold.Chemscore.DEClash.Weighted>
0.0141

> <Gold.Chemscore.DEInternal.Weighted>
2.4487

> <Gold.Chemscore.Rot.Weighted>
4.7465

> <Gold.Chemscore.Internal.Correction.Weighted>
   9.000000E+99

> <Gold.Protein.RotatedTorsions>
[ 6907 6896 6895 6894 ] final   25.61 input  -60.11 | X-H torsion
[ 7974 7965 7964 7962 ] final   65.34 input  175.53 | X-H torsion
[ 8008 7997 7996 7995 ] final  104.38 input   59.86 | X-H torsion
[ 10167 10162 10161 10158 ] final  -79.29 input  -65.29 | X-H torsion
[ 10718 10713 10712 10709 ] final  -34.79 input   66.30 | X-H torsion
[ 10763 10752 10751 10750 ] final   68.01 input  -60.55 | X-H torsion
[ 11005 11000 10999 10996 ] final  -65.48 input  -57.11 | X-H torsion

> <Gold.Protein.ActiveResidues>
 VAL166  LYS551  ARG553  GLY616  TRP617  ASP618  TYR619  PRO620  LYS621  CYS622 
 ASP623  PHE694  ASN695  SER759  ASP760  ASP761  ALA762  ILE779  LEU786  VAL792 
 PHE793  MET794  SER795  GLU796  ALA797  LYS798  CYS799  TRP800  GLU811  SER814 

> <Gold.Protein.RotatedAtoms>
  151.9752  135.0057  160.0554 H   0  0  0  0  0  0  0  0  0  0  0  0  # atno 6907 bound_to 6896
  152.1747  133.4662  159.4935 H   0  0  0  0  0  0  0  0  0  0  0  0  # atno 6908 bound_to 6896
  150.6907  134.1826  159.4297 H   0  0  0  0  0  0  0  0  0  0  0  0  # atno 6909 bound_to 6896
  145.8396  139.3187  143.0939 H   0  0  0  0  0  0  0  0  0  0  0  0  # atno 7974 bound_to 7965
  156.1567  140.3149  155.8738 H   0  0  0  0  0  0  0  0  0  0  0  0  # atno 8008 bound_to 7997
  155.3863  140.0491  157.3059 H   0  0  0  0  0  0  0  0  0  0  0  0  # atno 8009 bound_to 7997
  154.5108  140.2164  155.9171 H   0  0  0  0  0  0  0  0  0  0  0  0  # atno 8010 bound_to 7997
  140.4606  143.2455  151.8354 H   0  0  0  0  0  0  0  0  0  0  0  0  # atno 10167 bound_to 10162
  156.3464  130.4301  149.7742 H   0  0  0  0  0  0  0  0  0  0  0  0  # atno 10718 bound_to 10713
  153.0214  135.5263  154.7068 H   0  0  0  0  0  0  0  0  0  0  0  0  # atno 10763 bound_to 10752
  154.6161  135.2883  155.0380 H   0  0  0  0  0  0  0  0  0  0  0  0  # atno 10764 bound_to 10752
  154.1384  135.6582  153.4989 H   0  0  0  0  0  0  0  0  0  0  0  0  # atno 10765 bound_to 10752
  141.1455  133.6682  156.5993 H   0  0  0  0  0  0  0  0  0  0  0  0  # atno 11005 bound_to 11000
  145.9480  140.8930  143.0274 LP  0  0  0  0  0  0  0  0  0  0  0  0  # atno 17320 bound_to 7965
  144.6734  140.1640  143.7420 LP  0  0  0  0  0  0  0  0  0  0  0  0  # atno 17321 bound_to 7965
  139.4806  144.5012  151.9058 LP  0  0  0  0  0  0  0  0  0  0  0  0  # atno 17342 bound_to 10162
  140.4098  144.2384  150.5889 LP  0  0  0  0  0  0  0  0  0  0  0  0  # atno 17343 bound_to 10162
  156.4959  130.8106  151.3113 LP  0  0  0  0  0  0  0  0  0  0  0  0  # atno 17370 bound_to 10713
  157.7455  130.9960  150.2764 LP  0  0  0  0  0  0  0  0  0  0  0  0  # atno 17371 bound_to 10713
  140.3701  134.7613  157.4593 LP  0  0  0  0  0  0  0  0  0  0  0  0  # atno 17394 bound_to 11000
  140.0717  134.5853  155.8635 LP  0  0  0  0  0  0  0  0  0  0  0  0  # atno 17395 bound_to 11000

$$$$
