AV-unprocessed.smi:3033|AV-procd|sdf|11576|dock7
  -GOLD-   2272016543D 1   1.00000     0.00000
 Structure written by MMmdl.
 32 33  0  0  0  0  0  0  0  0  2 V2000
  151.6051  144.2443  158.1204 C   0  0  0  0  0  0  0  0  0  0  0  0
  151.7881  144.5002  159.5054 O   0  0  0  0  0  0  0  0  0  0  0  0
  152.3981  143.5282  160.2691 C   0  0  0  0  0  0  0  0  0  0  0  0
  152.5686  143.8051  161.6407 C   0  0  0  0  0  0  0  0  0  0  0  0
  153.1763  142.8657  162.4946 C   0  0  0  0  0  0  0  0  0  0  0  0
  153.6260  141.6356  161.9817 C   0  0  0  0  0  0  0  0  0  0  0  0
  153.4727  141.3422  160.6096 C   0  0  0  0  0  0  0  0  0  0  0  0
  153.9433  140.0126  160.0375 C   0  0  1  0  0  0  0  0  0  0  0  0
  153.6915  139.9227  158.6482 O   0  0  0  0  0  0  0  0  0  0  0  0
  155.4543  139.8141  160.2804 C   0  0  0  0  0  0  0  0  0  0  0  0
  155.7507  139.4758  161.6801 N   0  0  0  0  0  0  0  0  0  0  0  0
  155.0403  138.4079  162.2532 C   0  0  0  0  0  0  0  0  0  0  0  0
  155.2385  138.0190  163.5277 C   0  0  0  0  0  0  0  0  0  0  0  0
  154.3479  136.7034  164.2066 Cl  0  0  0  0  0  0  0  0  0  0  0  0
  156.2289  138.7455  164.3201 C   0  0  0  0  0  0  0  0  0  0  0  0
  156.4395  138.4128  165.4855 O   0  0  0  0  0  0  0  0  0  0  0  0
  156.8866  139.7804  163.7192 N   0  5  0  0  0  0  0  0  0  0  0  0
  156.6683  140.1633  162.4232 C   0  0  0  0  0  0  0  0  0  0  0  0
  157.2672  141.1067  161.9052 O   0  0  0  0  0  0  0  0  0  0  0  0
  152.8551  142.2858  159.7609 C   0  0  0  0  0  0  0  0  0  0  0  0
  151.1115  145.0994  157.6589 H   0  0  0  0  0  0  0  0  0  0  0  0
  150.9725  143.3706  157.9571 H   0  0  0  0  0  0  0  0  0  0  0  0
  152.5591  144.1005  157.6116 H   0  0  0  0  0  0  0  0  0  0  0  0
  152.2261  144.7468  162.0438 H   0  0  0  0  0  0  0  0  0  0  0  0
  153.2956  143.0891  163.5445 H   0  0  0  0  0  0  0  0  0  0  0  0
  154.0856  140.9185  162.6462 H   0  0  0  0  0  0  0  0  0  0  0  0
  153.3760  139.2171  160.5226 H   0  0  0  0  0  0  0  0  0  0  0  0
  152.8203  140.2484  158.4822 H   0  0  0  0  0  0  0  0  0  0  0  0
  155.8603  139.0698  159.5932 H   0  0  0  0  0  0  0  0  0  0  0  0
  155.9865  140.7352  160.0339 H   0  0  0  0  0  0  0  0  0  0  0  0
  154.3253  137.9316  161.5983 H   0  0  0  0  0  0  0  0  0  0  0  0
  152.7380  142.0329  158.7179 H   0  0  0  0  0  0  0  0  0  0  0  0
  1  2  1  0  0  0  0
  1 21  1  0  0  0  0
  1 22  1  0  0  0  0
  1 23  1  0  0  0  0
  2  3  1  0  0  0  0
  3 20  1  0  0  0  0
  3  4  2  0  0  0  0
  4  5  1  0  0  0  0
  4 24  1  0  0  0  0
  5  6  2  0  0  0  0
  5 25  1  0  0  0  0
  6  7  1  0  0  0  0
  6 26  1  0  0  0  0
  7  8  1  0  0  0  0
  7 20  2  0  0  0  0
  8  9  1  0  0  0  0
  8 10  1  0  0  0  0
  8 27  1  0  0  0  0
  9 28  1  0  0  0  0
 10 11  1  0  0  0  0
 10 29  1  0  0  0  0
 10 30  1  0  0  0  0
 11 18  1  0  0  0  0
 11 12  1  0  0  0  0
 12 13  2  0  0  0  0
 12 31  1  0  0  0  0
 13 14  1  0  0  0  0
 13 15  1  0  0  0  0
 15 16  2  0  0  0  0
 15 17  1  0  0  0  0
 17 18  1  0  0  0  0
 18 19  2  0  0  0  0
 20 32  1  0  0  0  0
M  CHG  1  17  -1
M  END
> <s_m_source_file>
AV-unprocessed.smi

> <i_m_source_file_index>
3033

> <i_lp_mmshare_version>
43012

> <i_f3d_flags>
0

> <s_epik_input>
W0NIM11PYzFbY0hdW2NIXVtjSF1jKFtjSF0xKVtDQEhdKFtPSF0pW0NIMl1uMltjSF1jKENsKWMoPU8pW25IXWMyPU8=

> <s_epik_cmdline>
J2VwaWtfcHl0aG9uJywgJy1waCcsICc3LjAnLCAnLXRuJywgJzgnLCAnLW1hJywgJzIwMCcsICctbWV0YWxfYmluZGluZycsICctaW1hZScsICc8aW5maWxlLm1hZT4nLCAnLW9tYWUnLCAnPG91dGZpbGUubWFlPic=

> <r_lp_tautomer_probability>
1

> <r_epik_Ionization_Penalty>
1.7979

> <r_epik_Ionization_Penalty_Charging>
3.23819e-08

> <r_epik_Ionization_Penalty_Neutral>
1.7979

> <r_epik_State_Penalty>
1.91135

> <r_epik_Charging_Adjusted_Penalty>
1.91135

> <i_epik_Tot_Q>
-1

> <i_epik_Tot_abs_Q>
1

> <r_epik_Metal_State_Penalty>
0.014155

> <b_epik_Metal_Only>
0

> <s_lp_Force_Field>
OPLS_2005

> <r_lp_Energy>
25.1118

> <b_lp_Chiralities_Consistent>
1

> <s_lp_Variant>
AV-unprocessed.smi:3033-4

> <Gold.Version>
5.8.1

> <Gold.Id.Protein>
6NUR|6NUR_protein|mol2

> <Gold.PLP.Fitness>
48.4289

> <Gold.PLP.PLP>
-46.0554

> <Gold.PLP.part.hbond>
-0.9520

> <Gold.PLP.part.metal>
0.0000

> <Gold.PLP.part.buried>
-4.8649

> <Gold.PLP.part.nonpolar>
-38.9082

> <Gold.PLP.part.repulsive>
0.1177

> <Gold.PLP.ligand.clash>
0.2667

> <Gold.PLP.ligand.torsion>
0.1916

> <Gold.PLP.Chemscore.Hbond>
1.0000

> <Gold.PLP.Chemscore.CHOScore>
0.0000

> <Gold.PLP.Chemscore.Metal>
0.0000

> <Gold.Chemscore.Hbonds>
donor molecule, donor type, donor heavy atom, donor atom, acceptor molecule, acceptor atom, score
      P1  H  7997  8009       L1     9  1.00

> <Gold.PLP.Chemscore.Internal.Correction>
0.0234

> <Gold.Rescore>
     Score         DG    S(hbond)    S(metal)    S(lipo)     H(rot)  DE(clash)    DE(int)     intcor
     13.66     -15.85       0.88        0.00     116.98       2.45       1.78       0.41       ----

> <Gold.Chemscore.Fitness>
13.6552

> <Gold.Chemscore.DG>
-15.8459

> <Gold.Chemscore.ZeroCoef>
-5.4800

> <Gold.Chemscore.Hbond>
0.8829

> <Gold.Chemscore.Metal>
0.0000

> <Gold.Chemscore.Lipo>
116.9793

> <Gold.Chemscore.Internal_Hbond>
0.0000

> <Gold.Chemscore.DEClash>
1.7845

> <Gold.Chemscore.DEInternal>
0.4062

> <Gold.Chemscore.Rot>
2.4491

> <Gold.Chemscore.Internal.Correction>
   9.000000E+99

> <Gold.Chemscore.Hbonds>
donor molecule, donor type, donor heavy atom, donor atom, acceptor molecule, acceptor atom, score
      P1  H  7997  8009       L1     9  0.89

> <Gold.Chemscore.Hbond.Weighted>
-2.9490

> <Gold.Chemscore.Metal.Weighted>
-0.0000

> <Gold.Chemscore.Lipo.Weighted>
-13.6866

> <Gold.Chemscore.Internal_Hbond.Weighted>
0.0000

> <Gold.Chemscore.DEClash.Weighted>
1.7845

> <Gold.Chemscore.DEInternal.Weighted>
0.4062

> <Gold.Chemscore.Rot.Weighted>
6.2696

> <Gold.Chemscore.Internal.Correction.Weighted>
   9.000000E+99

> <Gold.Protein.RotatedTorsions>
[ 6907 6896 6895 6894 ] final   46.54 input  -60.11 | X-H torsion
[ 7974 7965 7964 7962 ] final  110.49 input  175.53 | X-H torsion
[ 8008 7997 7996 7995 ] final  131.01 input   59.86 | X-H torsion
[ 10167 10162 10161 10158 ] final  111.66 input  -65.29 | X-H torsion
[ 10718 10713 10712 10709 ] final  -49.66 input   66.30 | X-H torsion
[ 10763 10752 10751 10750 ] final    3.78 input  -60.55 | X-H torsion
[ 11005 11000 10999 10996 ] final  144.10 input  -57.11 | X-H torsion

> <Gold.Protein.ActiveResidues>
 VAL166  LYS551  ARG553  GLY616  TRP617  ASP618  TYR619  PRO620  LYS621  CYS622 
 ASP623  PHE694  ASN695  SER759  ASP760  ASP761  ALA762  ILE779  LEU786  VAL792 
 PHE793  MET794  SER795  GLU796  ALA797  LYS798  CYS799  TRP800  GLU811  SER814 

> <Gold.Protein.RotatedAtoms>
  152.2576  134.8067  160.0435 H   0  0  0  0  0  0  0  0  0  0  0  0  # atno 6907 bound_to 6896
  151.8725  133.3473  159.3748 H   0  0  0  0  0  0  0  0  0  0  0  0  # atno 6908 bound_to 6896
  150.7105  134.5025  159.5612 H   0  0  0  0  0  0  0  0  0  0  0  0  # atno 6909 bound_to 6896
  145.2543  139.2727  143.4051 H   0  0  0  0  0  0  0  0  0  0  0  0  # atno 7974 bound_to 7965
  156.2963  140.2582  156.2855 H   0  0  0  0  0  0  0  0  0  0  0  0  # atno 8008 bound_to 7997
  154.9560  140.0393  157.2186 H   0  0  0  0  0  0  0  0  0  0  0  0  # atno 8009 bound_to 7997
  154.7991  140.2825  155.5939 H   0  0  0  0  0  0  0  0  0  0  0  0  # atno 8010 bound_to 7997
  139.6595  144.7129  151.1893 H   0  0  0  0  0  0  0  0  0  0  0  0  # atno 10167 bound_to 10162
  156.1873  130.4152  149.9421 H   0  0  0  0  0  0  0  0  0  0  0  0  # atno 10718 bound_to 10713
  153.2791  135.6939  153.7403 H   0  0  0  0  0  0  0  0  0  0  0  0  # atno 10763 bound_to 10752
  153.6397  135.3395  155.3068 H   0  0  0  0  0  0  0  0  0  0  0  0  # atno 10764 bound_to 10752
  154.8489  135.4429  154.1839 H   0  0  0  0  0  0  0  0  0  0  0  0  # atno 10765 bound_to 10752
  140.0606  134.9206  157.1177 H   0  0  0  0  0  0  0  0  0  0  0  0  # atno 11005 bound_to 11000
  146.3294  140.2942  142.8617 LP  0  0  0  0  0  0  0  0  0  0  0  0  # atno 17320 bound_to 7965
  144.9475  140.8143  143.5592 LP  0  0  0  0  0  0  0  0  0  0  0  0  # atno 17321 bound_to 7965
  140.7573  143.6018  150.8692 LP  0  0  0  0  0  0  0  0  0  0  0  0  # atno 17342 bound_to 10162
  139.9674  143.6095  152.2984 LP  0  0  0  0  0  0  0  0  0  0  0  0  # atno 17343 bound_to 10162
  156.7173  130.8993  151.3615 LP  0  0  0  0  0  0  0  0  0  0  0  0  # atno 17370 bound_to 10713
  157.6907  130.9230  150.0505 LP  0  0  0  0  0  0  0  0  0  0  0  0  # atno 17371 bound_to 10713
  140.3776  134.2322  155.7173 LP  0  0  0  0  0  0  0  0  0  0  0  0  # atno 17394 bound_to 11000
  141.1971  133.8066  157.0641 LP  0  0  0  0  0  0  0  0  0  0  0  0  # atno 17395 bound_to 11000

$$$$
