AV-unprocessed.smi:317|AV-procd|sdf|2326|dock9
  -GOLD-   2262022233D 1   1.00000     0.00000
 Structure written by MMmdl.
 39 40  0  0  0  0  0  0  0  0  1 V2000
  152.5581  139.0033  154.8553 C   0  0  0  0  0  0  0  0  0  0  0  0
  151.1680  139.1104  155.5039 C   0  0  2  0  0  0  0  0  0  0  0  0
  150.1603  139.7805  154.5526 C   0  0  0  0  0  0  0  0  0  0  0  0
  149.8875  138.9367  153.4538 O   0  0  0  0  0  0  0  0  0  0  0  0
  151.2692  139.8936  156.7325 N   0  0  0  0  0  0  0  0  0  0  0  0
  152.2350  139.7695  157.6535 C   0  0  0  0  0  0  0  0  0  0  0  0
  153.1717  138.9761  157.5593 O   0  0  0  0  0  0  0  0  0  0  0  0
  152.0527  140.6337  158.6653 N   0  0  0  0  0  0  0  0  0  0  0  0
  152.8874  140.8389  159.7990 C   0  0  0  0  0  0  0  0  0  0  0  0
  153.6784  139.7909  160.3294 C   0  0  0  0  0  0  0  0  0  0  0  0
  154.4314  140.0171  161.4941 C   0  0  0  0  0  0  0  0  0  0  0  0
  154.3546  141.2826  162.0993 C   0  0  0  0  0  0  0  0  0  0  0  0
  153.5971  142.2866  161.6142 N   0  0  0  0  0  0  0  0  0  0  0  0
  152.8761  142.0886  160.4828 C   0  0  0  0  0  0  0  0  0  0  0  0
  152.1153  143.1828  160.0101 N   0  0  0  0  0  0  0  0  0  0  0  0
  151.8655  144.3372  160.8667 C   0  0  0  0  0  0  0  0  0  0  0  0
  151.3867  145.4351  159.9213 C   0  0  0  0  0  0  0  0  0  0  0  0
  152.2121  145.1667  158.6672 C   0  0  0  0  0  0  0  0  0  0  0  0
  152.3470  143.6405  158.6428 C   0  0  0  0  0  0  0  0  0  0  0  0
  152.5189  138.4137  153.9390 H   0  0  0  0  0  0  0  0  0  0  0  0
  153.2713  138.5188  155.5231 H   0  0  0  0  0  0  0  0  0  0  0  0
  152.9551  139.9867  154.6010 H   0  0  0  0  0  0  0  0  0  0  0  0
  150.8235  138.0989  155.7295 H   0  0  0  0  0  0  0  0  0  0  0  0
  149.2351  140.0469  155.0652 H   0  0  0  0  0  0  0  0  0  0  0  0
  150.5775  140.7040  154.1498 H   0  0  0  0  0  0  0  0  0  0  0  0
  149.9355  139.4493  152.6614 H   0  0  0  0  0  0  0  0  0  0  0  0
  150.5406  140.5722  156.8984 H   0  0  0  0  0  0  0  0  0  0  0  0
  151.2959  141.2934  158.5592 H   0  0  0  0  0  0  0  0  0  0  0  0
  153.7003  138.8120  159.8749 H   0  0  0  0  0  0  0  0  0  0  0  0
  155.0418  139.2348  161.9198 H   0  0  0  0  0  0  0  0  0  0  0  0
  154.9114  141.4933  163.0003 H   0  0  0  0  0  0  0  0  0  0  0  0
  151.1237  144.1101  161.6327 H   0  0  0  0  0  0  0  0  0  0  0  0
  152.7827  144.6604  161.3610 H   0  0  0  0  0  0  0  0  0  0  0  0
  150.3256  145.3053  159.7042 H   0  0  0  0  0  0  0  0  0  0  0  0
  151.5325  146.4377  160.3243 H   0  0  0  0  0  0  0  0  0  0  0  0
  151.7556  145.5663  157.7616 H   0  0  0  0  0  0  0  0  0  0  0  0
  153.1983  145.6200  158.7750 H   0  0  0  0  0  0  0  0  0  0  0  0
  153.3227  143.3328  158.2644 H   0  0  0  0  0  0  0  0  0  0  0  0
  151.5824  143.2116  157.9949 H   0  0  0  0  0  0  0  0  0  0  0  0
  1  2  1  0  0  0  0
  1 20  1  0  0  0  0
  1 21  1  0  0  0  0
  1 22  1  0  0  0  0
  2  3  1  0  0  0  0
  2  5  1  0  0  0  0
  2 23  1  0  0  0  0
  3  4  1  0  0  0  0
  3 24  1  0  0  0  0
  3 25  1  0  0  0  0
  4 26  1  0  0  0  0
  5  6  1  0  0  0  0
  5 27  1  0  0  0  0
  6  7  2  0  0  0  0
  6  8  1  0  0  0  0
  8  9  1  0  0  0  0
  8 28  1  0  0  0  0
  9 14  1  0  0  0  0
  9 10  2  0  0  0  0
 10 11  1  0  0  0  0
 10 29  1  0  0  0  0
 11 12  2  0  0  0  0
 11 30  1  0  0  0  0
 12 13  1  0  0  0  0
 12 31  1  0  0  0  0
 13 14  2  0  0  0  0
 14 15  1  0  0  0  0
 15 19  1  0  0  0  0
 15 16  1  0  0  0  0
 16 17  1  0  0  0  0
 16 32  1  0  0  0  0
 16 33  1  0  0  0  0
 17 18  1  0  0  0  0
 17 34  1  0  0  0  0
 17 35  1  0  0  0  0
 18 19  1  0  0  0  0
 18 36  1  0  0  0  0
 18 37  1  0  0  0  0
 19 38  1  0  0  0  0
 19 39  1  0  0  0  0
M  END
> <s_m_source_file>
AV-unprocessed.smi

> <i_m_source_file_index>
317

> <i_lp_mmshare_version>
43012

> <i_f3d_flags>
0

> <s_epik_input>
W09IXVtDSDJdW0NAQEhdKFtDSDNdKVtOSF1DKD1PKVtOSF1jMVtjSF1bY0hdW2NIXW5jMU4yW0NIMl1bQ0gyXVtDSDJdW0NIMl0y

> <s_epik_cmdline>
J2VwaWtfcHl0aG9uJywgJy1waCcsICc3LjAnLCAnLXRuJywgJzgnLCAnLW1hJywgJzIwMCcsICctbWV0YWxfYmluZGluZycsICctaW1hZScsICc8aW5maWxlLm1hZT4nLCAnLW9tYWUnLCAnPG91dGZpbGUubWFlPic=

> <r_lp_tautomer_probability>
1

> <r_epik_Ionization_Penalty>
0.098371

> <r_epik_Ionization_Penalty_Charging>
0

> <r_epik_Ionization_Penalty_Neutral>
0.098371

> <r_epik_State_Penalty>
0.0879016

> <r_epik_Charging_Adjusted_Penalty>
0.0879016

> <i_epik_Tot_Q>
0

> <i_epik_Tot_abs_Q>
0

> <r_epik_Metal_State_Penalty>
0.0753294

> <b_epik_Metal_Only>
0

> <s_lp_Force_Field>
OPLS_2005

> <r_lp_Energy>
32.6275

> <b_lp_Chiralities_Consistent>
1

> <s_lp_Variant>
AV-unprocessed.smi:317-1

> <Gold.Version>
5.8.1

> <Gold.Id.Protein>
6NUR|6NUR_protein|mol2

> <Gold.PLP.Fitness>
49.1821

> <Gold.PLP.PLP>
-44.0222

> <Gold.PLP.part.hbond>
-2.5743

> <Gold.PLP.part.metal>
0.0000

> <Gold.PLP.part.buried>
-3.8359

> <Gold.PLP.part.nonpolar>
-37.0921

> <Gold.PLP.part.repulsive>
0.2228

> <Gold.PLP.ligand.clash>
0.0000

> <Gold.PLP.ligand.torsion>
0.5849

> <Gold.PLP.Chemscore.Hbond>
2.0000

> <Gold.PLP.Chemscore.CHOScore>
0.0000

> <Gold.PLP.Chemscore.Metal>
0.0000

> <Gold.Chemscore.Hbonds>
donor molecule, donor type, donor heavy atom, donor atom, acceptor molecule, acceptor atom, score
      L1  H     4    26       P1  7957  1.00
      P1  H  7997  8009       L1     7  1.00

> <Gold.PLP.Chemscore.Internal.Correction>
0.3298

> <Gold.Rescore>
     Score         DG    S(hbond)    S(metal)    S(lipo)     H(rot)  DE(clash)    DE(int)     intcor
     14.82     -18.84       1.89        0.00     105.62       2.08       0.77       3.25       ----

> <Gold.Chemscore.Fitness>
14.8160

> <Gold.Chemscore.DG>
-18.8406

> <Gold.Chemscore.ZeroCoef>
-5.4800

> <Gold.Chemscore.Hbond>
1.8926

> <Gold.Chemscore.Metal>
0.0000

> <Gold.Chemscore.Lipo>
105.6164

> <Gold.Chemscore.Internal_Hbond>
0.0000

> <Gold.Chemscore.DEClash>
0.7713

> <Gold.Chemscore.DEInternal>
3.2533

> <Gold.Chemscore.Rot>
2.0773

> <Gold.Chemscore.Internal.Correction>
   9.000000E+99

> <Gold.Chemscore.Hbonds>
donor molecule, donor type, donor heavy atom, donor atom, acceptor molecule, acceptor atom, score
      L1  H     4    26       P1  7957  0.96
      P1  H  7997  8009       L1     7  0.35

> <Gold.Chemscore.Hbond.Weighted>
-6.3213

> <Gold.Chemscore.Metal.Weighted>
-0.0000

> <Gold.Chemscore.Lipo.Weighted>
-12.3571

> <Gold.Chemscore.Internal_Hbond.Weighted>
0.0000

> <Gold.Chemscore.DEClash.Weighted>
0.7713

> <Gold.Chemscore.DEInternal.Weighted>
3.2533

> <Gold.Chemscore.Rot.Weighted>
5.3178

> <Gold.Chemscore.Internal.Correction.Weighted>
   9.000000E+99

> <Gold.Protein.RotatedTorsions>
[ 6907 6896 6895 6894 ] final   34.90 input  -60.11 | X-H torsion
[ 7974 7965 7964 7962 ] final -179.78 input  175.53 | X-H torsion
[ 8008 7997 7996 7995 ] final  164.92 input   59.86 | X-H torsion
[ 10167 10162 10161 10158 ] final  -53.62 input  -65.29 | X-H torsion
[ 10718 10713 10712 10709 ] final  -31.54 input   66.30 | X-H torsion
[ 10763 10752 10751 10750 ] final   -1.70 input  -60.55 | X-H torsion
[ 11005 11000 10999 10996 ] final  116.51 input  -57.11 | X-H torsion

> <Gold.Protein.ActiveResidues>
 VAL166  LYS551  ARG553  GLY616  TRP617  ASP618  TYR619  PRO620  LYS621  CYS622 
 ASP623  PHE694  ASN695  SER759  ASP760  ASP761  ALA762  ILE779  LEU786  VAL792 
 PHE793  MET794  SER795  GLU796  ALA797  LYS798  CYS799  TRP800  GLU811  SER814 

> <Gold.Protein.RotatedAtoms>
  152.1088  134.9289  160.0567 H   0  0  0  0  0  0  0  0  0  0  0  0  # atno 6907 bound_to 6896
  152.0475  133.3999  159.4371 H   0  0  0  0  0  0  0  0  0  0  0  0  # atno 6908 bound_to 6896
  150.6842  134.3266  159.4853 H   0  0  0  0  0  0  0  0  0  0  0  0  # atno 6909 bound_to 6896
  144.7139  140.0666  143.6431 H   0  0  0  0  0  0  0  0  0  0  0  0  # atno 7974 bound_to 7965
  156.1842  140.1684  156.8217 H   0  0  0  0  0  0  0  0  0  0  0  0  # atno 8008 bound_to 7997
  154.5395  140.0740  156.8517 H   0  0  0  0  0  0  0  0  0  0  0  0  # atno 8009 bound_to 7997
  155.3244  140.3375  155.4243 H   0  0  0  0  0  0  0  0  0  0  0  0  # atno 8010 bound_to 7997
  140.6475  143.2544  151.4818 H   0  0  0  0  0  0  0  0  0  0  0  0  # atno 10167 bound_to 10162
  156.3861  130.4364  149.7431 H   0  0  0  0  0  0  0  0  0  0  0  0  # atno 10718 bound_to 10713
  153.3483  135.6984  153.6809 H   0  0  0  0  0  0  0  0  0  0  0  0  # atno 10763 bound_to 10752
  153.5546  135.3547  155.2774 H   0  0  0  0  0  0  0  0  0  0  0  0  # atno 10764 bound_to 10752
  154.8649  135.4234  154.2713 H   0  0  0  0  0  0  0  0  0  0  0  0  # atno 10765 bound_to 10752
  139.9043  134.9599  156.7209 H   0  0  0  0  0  0  0  0  0  0  0  0  # atno 11005 bound_to 11000
  145.9819  139.2948  143.1037 LP  0  0  0  0  0  0  0  0  0  0  0  0  # atno 17320 bound_to 7965
  145.9001  140.9248  143.0507 LP  0  0  0  0  0  0  0  0  0  0  0  0  # atno 17321 bound_to 7965
  139.5687  144.1981  152.1803 LP  0  0  0  0  0  0  0  0  0  0  0  0  # atno 17342 bound_to 10162
  140.1271  144.5322  150.6826 LP  0  0  0  0  0  0  0  0  0  0  0  0  # atno 17343 bound_to 10162
  156.4503  130.7903  151.2924 LP  0  0  0  0  0  0  0  0  0  0  0  0  # atno 17370 bound_to 10713
  157.7496  131.0097  150.3279 LP  0  0  0  0  0  0  0  0  0  0  0  0  # atno 17371 bound_to 10713
  140.7001  133.9313  155.8019 LP  0  0  0  0  0  0  0  0  0  0  0  0  # atno 17394 bound_to 11000
  141.0377  134.0665  157.3939 LP  0  0  0  0  0  0  0  0  0  0  0  0  # atno 17395 bound_to 11000

$$$$
