AV-unprocessed.smi:249|AV-procd|sdf|1909|dock7
  -GOLD-   2262020593D 1   1.00000     0.00000
 Structure written by MMmdl.
 64 67  0  0  0  0  0  0  0  0  2 V2000
  143.3096  132.7988  150.9374 C   0  0  0  0  0  0  0  0  0  0  0  0
  144.4403  131.8004  150.6478 C   0  0  0  0  0  0  0  0  0  0  0  0
  145.1920  131.3923  151.8651 N   0  3  1  0  0  0  0  0  0  0  0  0
  146.1040  130.2466  151.6024 C   0  0  0  0  0  0  0  0  0  0  0  0
  146.6829  129.6790  152.9075 C   0  0  0  0  0  0  0  0  0  0  0  0
  147.3927  130.7805  153.7188 C   0  0  2  0  0  0  0  0  0  0  0  0
  148.0424  130.2901  154.9432 N   0  0  0  0  0  0  0  0  0  0  0  0
  147.4632  129.1221  155.5991 C   0  0  0  0  0  0  0  0  0  0  0  0
  148.7367  131.1047  155.7825 C   0  0  0  0  0  0  0  0  0  0  0  0
  148.9266  130.7522  157.0809 N   0  0  0  0  0  0  0  0  0  0  0  0
  149.6219  131.5415  157.9045 C   0  0  0  0  0  0  0  0  0  0  0  0
  150.2131  132.7072  157.6399 N   0  0  0  0  0  0  0  0  0  0  0  0
  150.0357  133.0656  156.3368 C   0  0  0  0  0  0  0  0  0  0  0  0
  149.3165  132.3318  155.3510 C   0  0  0  0  0  0  0  0  0  0  0  0
  149.3376  133.0201  154.1436 N   0  0  0  0  0  0  0  0  0  0  0  0
  150.0342  134.0936  154.3985 C   0  0  0  0  0  0  0  0  0  0  0  0
  150.5113  134.1906  155.6861 N   0  0  0  0  0  0  0  0  0  0  0  0
  151.3037  135.2753  156.2386 C   0  0  0  0  0  0  0  0  0  0  0  0
  150.6124  136.6679  156.2191 C   0  0  2  0  0  0  0  0  0  0  0  0
  150.4323  137.1226  154.7503 C   0  0  0  0  0  0  0  0  0  0  0  0
  151.6423  137.0219  154.0277 O   0  0  0  0  0  0  0  0  0  0  0  0
  151.3695  137.7406  157.0588 C   0  0  1  0  0  0  0  0  0  0  0  0
  151.6321  137.3571  158.5082 C   0  0  0  0  0  0  0  0  0  0  0  0
  152.7401  138.3204  158.9056 C   0  0  0  0  0  0  0  0  0  0  0  0
  153.5620  138.4031  157.7530 O   0  0  0  0  0  0  0  0  0  0  0  0
  152.8014  138.0657  156.5967 C   0  0  0  0  0  0  0  0  0  0  0  0
  146.4409  131.9763  153.9442 C   0  0  0  0  0  0  0  0  0  0  0  0
  145.8521  132.5041  152.6194 C   0  0  1  0  0  0  0  0  0  0  0  0
  146.8883  133.2908  151.7879 C   0  0  0  0  0  0  0  0  0  0  0  0
  142.7022  132.9555  150.0460 H   0  0  0  0  0  0  0  0  0  0  0  0
  143.6924  133.7738  151.2378 H   0  0  0  0  0  0  0  0  0  0  0  0
  142.6504  132.4332  151.7252 H   0  0  0  0  0  0  0  0  0  0  0  0
  143.9871  130.9098  150.2107 H   0  0  0  0  0  0  0  0  0  0  0  0
  145.1167  132.1944  149.8890 H   0  0  0  0  0  0  0  0  0  0  0  0
  145.5573  129.4534  151.0910 H   0  0  0  0  0  0  0  0  0  0  0  0
  146.9060  130.5505  150.9293 H   0  0  0  0  0  0  0  0  0  0  0  0
  145.8743  129.2294  153.4826 H   0  0  0  0  0  0  0  0  0  0  0  0
  147.3781  128.8721  152.6742 H   0  0  0  0  0  0  0  0  0  0  0  0
  148.2113  131.1499  153.1005 H   0  0  0  0  0  0  0  0  0  0  0  0
  148.1936  128.3146  155.6518 H   0  0  0  0  0  0  0  0  0  0  0  0
  146.5985  128.7473  155.0508 H   0  0  0  0  0  0  0  0  0  0  0  0
  147.1363  129.3582  156.6129 H   0  0  0  0  0  0  0  0  0  0  0  0
  149.7212  131.1876  158.9200 H   0  0  0  0  0  0  0  0  0  0  0  0
  150.2307  134.8425  153.6449 H   0  0  0  0  0  0  0  0  0  0  0  0
  151.5823  135.0153  157.2606 H   0  0  0  0  0  0  0  0  0  0  0  0
  152.2333  135.3016  155.6698 H   0  0  0  0  0  0  0  0  0  0  0  0
  149.6124  136.5663  156.6428 H   0  0  0  0  0  0  0  0  0  0  0  0
  149.7093  136.5011  154.2238 H   0  0  0  0  0  0  0  0  0  0  0  0
  150.0674  138.1492  154.7036 H   0  0  0  0  0  0  0  0  0  0  0  0
  151.4385  136.9366  153.1088 H   0  0  0  0  0  0  0  0  0  0  0  0
  150.7889  138.6648  157.0617 H   0  0  0  0  0  0  0  0  0  0  0  0
  150.7553  137.4591  159.1483 H   0  0  0  0  0  0  0  0  0  0  0  0
  151.9904  136.3286  158.5741 H   0  0  0  0  0  0  0  0  0  0  0  0
  152.3299  139.3076  159.1215 H   0  0  0  0  0  0  0  0  0  0  0  0
  153.3018  137.9833  159.7770 H   0  0  0  0  0  0  0  0  0  0  0  0
  153.2739  137.2022  156.1273 H   0  0  0  0  0  0  0  0  0  0  0  0
  152.8244  138.8918  155.8872 H   0  0  0  0  0  0  0  0  0  0  0  0
  145.6091  131.6938  154.5881 H   0  0  0  0  0  0  0  0  0  0  0  0
  146.9651  132.7778  154.4662 H   0  0  0  0  0  0  0  0  0  0  0  0
  145.0774  133.2142  152.9066 H   0  0  0  0  0  0  0  0  0  0  0  0
  147.3479  134.0741  152.3912 H   0  0  0  0  0  0  0  0  0  0  0  0
  146.4294  133.7854  150.9322 H   0  0  0  0  0  0  0  0  0  0  0  0
  147.6925  132.6580  151.4147 H   0  0  0  0  0  0  0  0  0  0  0  0
  144.4915  131.0264  152.4941 H   0  0  0  0  0  0  0  0  0  0  0  0
  1  2  1  0  0  0  0
  1 30  1  0  0  0  0
  1 31  1  0  0  0  0
  1 32  1  0  0  0  0
  2  3  1  0  0  0  0
  2 33  1  0  0  0  0
  2 34  1  0  0  0  0
  3 28  1  0  0  0  0
  3  4  1  0  0  0  0
  3 64  1  0  0  0  0
  4  5  1  0  0  0  0
  4 35  1  0  0  0  0
  4 36  1  0  0  0  0
  5  6  1  0  0  0  0
  5 37  1  0  0  0  0
  5 38  1  0  0  0  0
  6  7  1  0  0  0  0
  6 27  1  0  0  0  0
  6 39  1  0  0  0  0
  7  8  1  0  0  0  0
  7  9  1  0  0  0  0
  8 40  1  0  0  0  0
  8 41  1  0  0  0  0
  8 42  1  0  0  0  0
  9 14  1  0  0  0  0
  9 10  2  0  0  0  0
 10 11  1  0  0  0  0
 11 12  2  0  0  0  0
 11 43  1  0  0  0  0
 12 13  1  0  0  0  0
 13 17  1  0  0  0  0
 13 14  2  0  0  0  0
 14 15  1  0  0  0  0
 15 16  2  0  0  0  0
 16 17  1  0  0  0  0
 16 44  1  0  0  0  0
 17 18  1  0  0  0  0
 18 19  1  0  0  0  0
 18 45  1  0  0  0  0
 18 46  1  0  0  0  0
 19 20  1  0  0  0  0
 19 22  1  0  0  0  0
 19 47  1  0  0  0  0
 20 21  1  0  0  0  0
 20 48  1  0  0  0  0
 20 49  1  0  0  0  0
 21 50  1  0  0  0  0
 22 26  1  0  0  0  0
 22 23  1  0  0  0  0
 22 51  1  0  0  0  0
 23 24  1  0  0  0  0
 23 52  1  0  0  0  0
 23 53  1  0  0  0  0
 24 25  1  0  0  0  0
 24 54  1  0  0  0  0
 24 55  1  0  0  0  0
 25 26  1  0  0  0  0
 26 56  1  0  0  0  0
 26 57  1  0  0  0  0
 27 28  1  0  0  0  0
 27 58  1  0  0  0  0
 27 59  1  0  0  0  0
 28 29  1  0  0  0  0
 28 60  1  0  0  0  0
 29 61  1  0  0  0  0
 29 62  1  0  0  0  0
 29 63  1  0  0  0  0
M  CHG  1   3   1
M  END
> <s_m_source_file>
AV-unprocessed.smi

> <i_m_source_file_index>
249

> <i_lp_mmshare_version>
43012

> <i_f3d_flags>
0

> <s_epik_input>
W0NIM11bQ0gyXU4xW0NIMl1bQ0gyXVtDQEhdKFtDSDJdW0NASF0xW0NIM10pTihbQ0gzXSljKG5bY0hdbjIpYyhjMjMpbltjSF1uM1tDSDJdW0NASF0oW0NIMl1bT0hdKVtDQEBIXTRbQ0gyXVtDSDJdT1tDSDJdNA==

> <s_epik_cmdline>
J2VwaWtfcHl0aG9uJywgJy1waCcsICc3LjAnLCAnLXRuJywgJzgnLCAnLW1hJywgJzIwMCcsICctbWV0YWxfYmluZGluZycsICctaW1hZScsICc8aW5maWxlLm1hZT4nLCAnLW9tYWUnLCAnPG91dGZpbGUubWFlPic=

> <r_lp_tautomer_probability>
1

> <r_epik_Ionization_Penalty>
0.00294688

> <r_epik_Ionization_Penalty_Charging>
0.00169971

> <r_epik_Ionization_Penalty_Neutral>
0.00124717

> <r_epik_State_Penalty>
-0

> <r_epik_Charging_Adjusted_Penalty>
0.00169971

> <i_epik_Tot_Q>
1

> <i_epik_Tot_abs_Q>
1

> <r_epik_Metal_State_Penalty>
-0

> <b_epik_Metal_Only>
0

> <s_lp_Force_Field>
OPLS_2005

> <r_lp_Energy>
54.5732

> <b_lp_Chiralities_Consistent>
1

> <s_lp_Variant>
AV-unprocessed.smi:249-12

> <Gold.Version>
5.8.1

> <Gold.Id.Protein>
6NUR|6NUR_protein|mol2

> <Gold.PLP.Fitness>
49.0916

> <Gold.PLP.PLP>
-37.2914

> <Gold.PLP.part.hbond>
-4.0000

> <Gold.PLP.part.metal>
0.0000

> <Gold.PLP.part.buried>
-5.3467

> <Gold.PLP.part.nonpolar>
-28.0604

> <Gold.PLP.part.repulsive>
0.1480

> <Gold.PLP.ligand.clash>
0.0000

> <Gold.PLP.ligand.torsion>
0.6431

> <Gold.PLP.Chemscore.Hbond>
4.0000

> <Gold.PLP.Chemscore.CHOScore>
0.0000

> <Gold.PLP.Chemscore.Metal>
0.0000

> <Gold.Chemscore.Hbonds>
donor molecule, donor type, donor heavy atom, donor atom, acceptor molecule, acceptor atom, score
      L1  H    21    50       P1  7949  1.00
      P1  H  6896  6907       L1    12  1.00
      P1  H  7997  8008       L1    25  0.88
      P1  H 10752 10765       L1    21  1.00

> <Gold.PLP.Chemscore.Internal.Correction>
1.0865

> <Gold.Rescore>
     Score         DG    S(hbond)    S(metal)    S(lipo)     H(rot)  DE(clash)    DE(int)     intcor
     17.50     -20.14       3.26        0.00      90.30       2.65       0.08       2.56       ----

> <Gold.Chemscore.Fitness>
17.4984

> <Gold.Chemscore.DG>
-20.1362

> <Gold.Chemscore.ZeroCoef>
-5.4800

> <Gold.Chemscore.Hbond>
3.2572

> <Gold.Chemscore.Metal>
0.0000

> <Gold.Chemscore.Lipo>
90.2995

> <Gold.Chemscore.Internal_Hbond>
0.0000

> <Gold.Chemscore.DEClash>
0.0763

> <Gold.Chemscore.DEInternal>
2.5615

> <Gold.Chemscore.Rot>
2.6515

> <Gold.Chemscore.Internal.Correction>
   9.000000E+99

> <Gold.Chemscore.Hbonds>
donor molecule, donor type, donor heavy atom, donor atom, acceptor molecule, acceptor atom, score
      L1  H    21    50       P1  7949  0.84
      P1  H  6896  6907       L1    12  0.87
      P1  H  7997  8008       L1    25  0.41
      P1  H 10752 10765       L1    21  0.44

> <Gold.Chemscore.Hbond.Weighted>
-10.8791

> <Gold.Chemscore.Metal.Weighted>
-0.0000

> <Gold.Chemscore.Lipo.Weighted>
-10.5650

> <Gold.Chemscore.Internal_Hbond.Weighted>
0.0000

> <Gold.Chemscore.DEClash.Weighted>
0.0763

> <Gold.Chemscore.DEInternal.Weighted>
2.5615

> <Gold.Chemscore.Rot.Weighted>
6.7880

> <Gold.Chemscore.Internal.Correction.Weighted>
   9.000000E+99

> <Gold.Protein.RotatedTorsions>
[ 6907 6896 6895 6894 ] final -135.39 input  -60.11 | X-H torsion
[ 7974 7965 7964 7962 ] final   32.48 input  175.53 | X-H torsion
[ 8008 7997 7996 7995 ] final  -98.35 input   59.86 | X-H torsion
[ 10167 10162 10161 10158 ] final   81.27 input  -65.29 | X-H torsion
[ 10718 10713 10712 10709 ] final   56.70 input   66.30 | X-H torsion
[ 10763 10752 10751 10750 ] final  166.01 input  -60.55 | X-H torsion
[ 11005 11000 10999 10996 ] final    6.71 input  -57.11 | X-H torsion

> <Gold.Protein.ActiveResidues>
 VAL166  LYS551  ARG553  GLY616  TRP617  ASP618  TYR619  PRO620  LYS621  CYS622 
 ASP623  PHE694  ASN695  SER759  ASP760  ASP761  ALA762  ILE779  LEU786  VAL792 
 PHE793  MET794  SER795  GLU796  ALA797  LYS798  CYS799  TRP800  GLU811  SER814 

> <Gold.Protein.RotatedAtoms>
  150.9973  133.6090  159.2699 H   0  0  0  0  0  0  0  0  0  0  0  0  # atno 6907 bound_to 6896
  151.3289  135.0836  159.9341 H   0  0  0  0  0  0  0  0  0  0  0  0  # atno 6908 bound_to 6896
  152.5263  133.9606  159.7770 H   0  0  0  0  0  0  0  0  0  0  0  0  # atno 6909 bound_to 6896
  146.1483  139.6520  142.9116 H   0  0  0  0  0  0  0  0  0  0  0  0  # atno 7974 bound_to 7965
  154.8000  140.0456  157.1266 H   0  0  0  0  0  0  0  0  0  0  0  0  # atno 8008 bound_to 7997
  154.9490  140.3062  155.5064 H   0  0  0  0  0  0  0  0  0  0  0  0  # atno 8009 bound_to 7997
  156.2960  140.2291  156.4566 H   0  0  0  0  0  0  0  0  0  0  0  0  # atno 8010 bound_to 7997
  139.9410  144.6089  150.8252 H   0  0  0  0  0  0  0  0  0  0  0  0  # atno 10167 bound_to 10162
  157.5453  130.8726  149.8882 H   0  0  0  0  0  0  0  0  0  0  0  0  # atno 10718 bound_to 10713
  154.3326  135.2754  155.2464 H   0  0  0  0  0  0  0  0  0  0  0  0  # atno 10763 bound_to 10752
  154.4769  135.5868  153.6365 H   0  0  0  0  0  0  0  0  0  0  0  0  # atno 10764 bound_to 10752
  152.9865  135.6102  154.3520 H   0  0  0  0  0  0  0  0  0  0  0  0  # atno 10765 bound_to 10752
  140.5564  134.0234  155.7955 H   0  0  0  0  0  0  0  0  0  0  0  0  # atno 11005 bound_to 11000
  145.4884  141.0438  143.2607 LP  0  0  0  0  0  0  0  0  0  0  0  0  # atno 17320 bound_to 7965
  144.7873  139.6400  143.7128 LP  0  0  0  0  0  0  0  0  0  0  0  0  # atno 17321 bound_to 7965
  140.7611  143.3166  151.2719 LP  0  0  0  0  0  0  0  0  0  0  0  0  # atno 17342 bound_to 10162
  139.6704  144.0030  152.2749 LP  0  0  0  0  0  0  0  0  0  0  0  0  # atno 17343 bound_to 10162
  156.0530  130.3714  150.1156 LP  0  0  0  0  0  0  0  0  0  0  0  0  # atno 17370 bound_to 10713
  156.9333  130.9721  151.3529 LP  0  0  0  0  0  0  0  0  0  0  0  0  # atno 17371 bound_to 10713
  141.1141  133.9569  157.2856 LP  0  0  0  0  0  0  0  0  0  0  0  0  # atno 17394 bound_to 11000
  139.9429  135.0188  156.8765 LP  0  0  0  0  0  0  0  0  0  0  0  0  # atno 17395 bound_to 11000

$$$$
