AV-unprocessed.smi:2757|AV-procd|sdf|10621|dock8
  -GOLD-   2272015 63D 1   1.00000     0.00000
 Structure written by MMmdl.
 32 33  0  0  0  0  0  0  0  0  2 V2000
  150.6272  130.8884  154.8377 C   0  0  0  0  0  0  0  0  0  0  0  0
  149.5399  131.5954  154.1791 N   0  0  0  0  0  0  0  0  0  0  0  0
  149.2827  132.9022  154.3376 C   0  0  0  0  0  0  0  0  0  0  0  0
  149.9426  133.6449  155.0654 O   0  0  0  0  0  0  0  0  0  0  0  0
  148.1229  133.4235  153.5408 C   0  0  0  0  0  0  0  0  0  0  0  0
  147.2540  134.4165  154.0809 C   0  0  0  0  0  0  0  0  0  0  0  0
  146.3455  134.6358  153.0858 C   0  0  0  0  0  0  0  0  0  0  0  0
  146.6782  133.8097  152.0326 N   0  0  0  0  0  0  0  0  0  0  0  0
  146.0081  133.6780  150.7476 C   0  0  1  0  0  0  0  0  0  0  0  0
  145.9244  132.2054  150.2965 C   0  0  0  0  0  0  0  0  0  0  0  0
  145.1960  132.1015  148.9480 C   0  0  0  0  0  0  0  0  0  0  0  0
  143.8153  132.7761  149.0157 C   0  0  0  0  0  0  0  0  0  0  0  0
  143.9395  134.1823  149.4586 N   0  3  0  0  0  0  0  0  0  0  0  0
  144.6034  134.3174  150.7740 C   0  0  0  0  0  0  0  0  0  0  0  0
  147.7673  133.0603  152.3152 N   0  0  0  0  0  0  0  0  0  0  0  0
  150.6001  129.8321  154.5699 H   0  0  0  0  0  0  0  0  0  0  0  0
  150.5435  130.9678  155.9224 H   0  0  0  0  0  0  0  0  0  0  0  0
  151.5927  131.2930  154.5319 H   0  0  0  0  0  0  0  0  0  0  0  0
  148.9478  131.0643  153.5570 H   0  0  0  0  0  0  0  0  0  0  0  0
  147.2922  134.8968  155.0478 H   0  0  0  0  0  0  0  0  0  0  0  0
  145.4992  135.3056  153.0416 H   0  0  0  0  0  0  0  0  0  0  0  0
  146.6114  134.2194  150.0168 H   0  0  0  0  0  0  0  0  0  0  0  0
  146.9241  131.7775  150.2144 H   0  0  0  0  0  0  0  0  0  0  0  0
  145.3910  131.6109  151.0394 H   0  0  0  0  0  0  0  0  0  0  0  0
  145.7978  132.5721  148.1694 H   0  0  0  0  0  0  0  0  0  0  0  0
  145.0862  131.0544  148.6638 H   0  0  0  0  0  0  0  0  0  0  0  0
  143.3335  132.7514  148.0379 H   0  0  0  0  0  0  0  0  0  0  0  0
  143.1640  132.2391  149.7065 H   0  0  0  0  0  0  0  0  0  0  0  0
  144.4800  134.6892  148.7722 H   0  0  0  0  0  0  0  0  0  0  0  0
  143.9764  133.8487  151.5341 H   0  0  0  0  0  0  0  0  0  0  0  0
  144.6721  135.3758  151.0269 H   0  0  0  0  0  0  0  0  0  0  0  0
  143.0174  134.5911  149.5136 H   0  0  0  0  0  0  0  0  0  0  0  0
  1  2  1  0  0  0  0
  1 16  1  0  0  0  0
  1 17  1  0  0  0  0
  1 18  1  0  0  0  0
  2  3  1  0  0  0  0
  2 19  1  0  0  0  0
  3  4  2  0  0  0  0
  3  5  1  0  0  0  0
  5 15  2  0  0  0  0
  5  6  1  0  0  0  0
  6  7  2  0  0  0  0
  6 20  1  0  0  0  0
  7  8  1  0  0  0  0
  7 21  1  0  0  0  0
  8  9  1  0  0  0  0
  8 15  1  0  0  0  0
  9 14  1  0  0  0  0
  9 10  1  0  0  0  0
  9 22  1  0  0  0  0
 10 11  1  0  0  0  0
 10 23  1  0  0  0  0
 10 24  1  0  0  0  0
 11 12  1  0  0  0  0
 11 25  1  0  0  0  0
 11 26  1  0  0  0  0
 12 13  1  0  0  0  0
 12 27  1  0  0  0  0
 12 28  1  0  0  0  0
 13 14  1  0  0  0  0
 13 29  1  0  0  0  0
 13 32  1  0  0  0  0
 14 30  1  0  0  0  0
 14 31  1  0  0  0  0
M  CHG  1  13   1
M  END
> <s_m_source_file>
AV-unprocessed.smi

> <i_m_source_file_index>
2757

> <i_lp_mmshare_version>
43012

> <i_f3d_flags>
0

> <s_epik_input>
W0NIM11bTkhdQyg9TyljMVtjSF1bY0hdbihuMSlbQ0BASF0yW0NIMl1bQ0gyXVtDSDJdW05IXVtDSDJdMg==

> <s_epik_cmdline>
J2VwaWtfcHl0aG9uJywgJy1waCcsICc3LjAnLCAnLXRuJywgJzgnLCAnLW1hJywgJzIwMCcsICctbWV0YWxfYmluZGluZycsICctaW1hZScsICc8aW5maWxlLm1hZT4nLCAnLW9tYWUnLCAnPG91dGZpbGUubWFlPic=

> <r_lp_tautomer_probability>
1

> <r_epik_Ionization_Penalty>
0.000652722

> <r_epik_Ionization_Penalty_Charging>
0.000651447

> <r_epik_Ionization_Penalty_Neutral>
1.27533e-06

> <r_epik_State_Penalty>
0.000412577

> <r_epik_Charging_Adjusted_Penalty>
0.00106402

> <i_epik_Tot_Q>
1

> <i_epik_Tot_abs_Q>
1

> <r_epik_Metal_State_Penalty>
-0

> <b_epik_Metal_Only>
0

> <s_lp_Force_Field>
OPLS_2005

> <r_lp_Energy>
20.0976

> <b_lp_Chiralities_Consistent>
1

> <s_lp_Variant>
AV-unprocessed.smi:2757-2

> <Gold.Version>
5.8.1

> <Gold.Id.Protein>
6NUR|6NUR_protein|mol2

> <Gold.PLP.Fitness>
35.4946

> <Gold.PLP.PLP>
-28.4983

> <Gold.PLP.part.hbond>
-2.0000

> <Gold.PLP.part.metal>
0.0000

> <Gold.PLP.part.buried>
-3.0158

> <Gold.PLP.part.nonpolar>
-23.6627

> <Gold.PLP.part.repulsive>
0.3661

> <Gold.PLP.ligand.clash>
0.0000

> <Gold.PLP.ligand.torsion>
1.0113

> <Gold.PLP.Chemscore.Hbond>
3.0000

> <Gold.PLP.Chemscore.CHOScore>
0.0000

> <Gold.PLP.Chemscore.Metal>
0.0000

> <Gold.Chemscore.Hbonds>
donor molecule, donor type, donor heavy atom, donor atom, acceptor molecule, acceptor atom, score
      L1  H    13    29       P1  7921  0.99
      L1  H    13    32       P1 10186  2.00

> <Gold.PLP.Chemscore.Internal.Correction>
0.0189

> <Gold.Rescore>
     Score         DG    S(hbond)    S(metal)    S(lipo)     H(rot)  DE(clash)    DE(int)     intcor
     16.09     -17.17       1.91        0.00      67.29       1.00       0.03       1.04       ----

> <Gold.Chemscore.Fitness>
16.0949

> <Gold.Chemscore.DG>
-17.1723

> <Gold.Chemscore.ZeroCoef>
-5.4800

> <Gold.Chemscore.Hbond>
1.9100

> <Gold.Chemscore.Metal>
0.0000

> <Gold.Chemscore.Lipo>
67.2898

> <Gold.Chemscore.Internal_Hbond>
0.0000

> <Gold.Chemscore.DEClash>
0.0330

> <Gold.Chemscore.DEInternal>
1.0444

> <Gold.Chemscore.Rot>
1.0000

> <Gold.Chemscore.Internal.Correction>
   9.000000E+99

> <Gold.Chemscore.Hbonds>
donor molecule, donor type, donor heavy atom, donor atom, acceptor molecule, acceptor atom, score
      L1  H    13    29       P1  7921  0.90
      L1  H    13    32       P1 10186  0.89

> <Gold.Chemscore.Hbond.Weighted>
-6.3794

> <Gold.Chemscore.Metal.Weighted>
-0.0000

> <Gold.Chemscore.Lipo.Weighted>
-7.8729

> <Gold.Chemscore.Internal_Hbond.Weighted>
0.0000

> <Gold.Chemscore.DEClash.Weighted>
0.0330

> <Gold.Chemscore.DEInternal.Weighted>
1.0444

> <Gold.Chemscore.Rot.Weighted>
2.5600

> <Gold.Chemscore.Internal.Correction.Weighted>
   9.000000E+99

> <Gold.Protein.RotatedTorsions>
[ 6907 6896 6895 6894 ] final  -54.18 input  -60.11 | X-H torsion
[ 7974 7965 7964 7962 ] final   97.54 input  175.53 | X-H torsion
[ 8008 7997 7996 7995 ] final  171.08 input   59.86 | X-H torsion
[ 10167 10162 10161 10158 ] final  -94.90 input  -65.29 | X-H torsion
[ 10718 10713 10712 10709 ] final   74.03 input   66.30 | X-H torsion
[ 10763 10752 10751 10750 ] final   98.31 input  -60.55 | X-H torsion
[ 11005 11000 10999 10996 ] final    9.77 input  -57.11 | X-H torsion

> <Gold.Protein.ActiveResidues>
 VAL166  LYS551  ARG553  GLY616  TRP617  ASP618  TYR619  PRO620  LYS621  CYS622 
 ASP623  PHE694  ASN695  SER759  ASP760  ASP761  ALA762  ILE779  LEU786  VAL792 
 PHE793  MET794  SER795  GLU796  ALA797  LYS798  CYS799  TRP800  GLU811  SER814 

> <Gold.Protein.RotatedAtoms>
  150.8360  134.7634  159.6893 H   0  0  0  0  0  0  0  0  0  0  0  0  # atno 6907 bound_to 6896
  152.4457  134.5496  159.9873 H   0  0  0  0  0  0  0  0  0  0  0  0  # atno 6908 bound_to 6896
  151.5646  133.3360  159.3013 H   0  0  0  0  0  0  0  0  0  0  0  0  # atno 6909 bound_to 6896
  145.4242  139.2318  143.3180 H   0  0  0  0  0  0  0  0  0  0  0  0  # atno 7974 bound_to 7965
  156.1305  140.1521  156.9073 H   0  0  0  0  0  0  0  0  0  0  0  0  # atno 8008 bound_to 7997
  154.4905  140.0852  156.7624 H   0  0  0  0  0  0  0  0  0  0  0  0  # atno 8009 bound_to 7997
  155.4265  140.3425  155.4278 H   0  0  0  0  0  0  0  0  0  0  0  0  # atno 8010 bound_to 7997
  140.3097  143.3112  152.0161 H   0  0  0  0  0  0  0  0  0  0  0  0  # atno 10167 bound_to 10162
  157.6574  130.9657  150.1153 H   0  0  0  0  0  0  0  0  0  0  0  0  # atno 10718 bound_to 10713
  153.2876  135.4152  155.1136 H   0  0  0  0  0  0  0  0  0  0  0  0  # atno 10763 bound_to 10752
  154.8510  135.3510  154.6026 H   0  0  0  0  0  0  0  0  0  0  0  0  # atno 10764 bound_to 10752
  153.6448  135.7055  153.5287 H   0  0  0  0  0  0  0  0  0  0  0  0  # atno 10765 bound_to 10752
  140.5220  134.0550  155.7847 H   0  0  0  0  0  0  0  0  0  0  0  0  # atno 11005 bound_to 11000
  146.2641  140.4970  142.8841 LP  0  0  0  0  0  0  0  0  0  0  0  0  # atno 17320 bound_to 7965
  144.8225  140.6574  143.6343 LP  0  0  0  0  0  0  0  0  0  0  0  0  # atno 17321 bound_to 7965
  139.4896  144.6394  151.6909 LP  0  0  0  0  0  0  0  0  0  0  0  0  # atno 17342 bound_to 10162
  140.5579  144.0317  150.6156 LP  0  0  0  0  0  0  0  0  0  0  0  0  # atno 17343 bound_to 10162
  156.2038  130.3662  149.8754 LP  0  0  0  0  0  0  0  0  0  0  0  0  # atno 17370 bound_to 10713
  156.6651  130.8797  151.3553 LP  0  0  0  0  0  0  0  0  0  0  0  0  # atno 17371 bound_to 10713
  141.1329  133.9271  157.2497 LP  0  0  0  0  0  0  0  0  0  0  0  0  # atno 17394 bound_to 11000
  139.9601  135.0156  156.9236 LP  0  0  0  0  0  0  0  0  0  0  0  0  # atno 17395 bound_to 11000

$$$$
