AV-unprocessed.smi:594|AV-procd|sdf|3014|dock2
  -GOLD-   2262023523D 1   1.00000     0.00000
 Structure written by MMmdl.
 40 41  0  0  0  0  0  0  0  0  3 V2000
  153.0125  142.0343  161.3254 C   0  0  0  0  0  0  0  0  0  0  0  0
  152.7643  143.1261  160.2690 C   0  0  2  0  0  0  0  0  0  0  0  0
  152.1568  144.3838  160.9234 C   0  0  0  0  0  0  0  0  0  0  0  0
  151.9027  145.4978  159.8969 C   0  0  0  0  0  0  0  0  0  0  0  0
  151.0043  145.0013  158.7563 C   0  0  0  0  0  0  0  0  0  0  0  0
  151.6049  143.7587  158.0838 C   0  0  0  0  0  0  0  0  0  0  0  0
  151.8714  142.6314  159.1036 C   0  0  1  0  0  0  0  0  0  0  0  0
  152.4968  141.4948  158.4308 N   0  0  0  0  0  0  0  0  0  0  0  0
  151.9751  140.2625  158.3361 C   0  0  0  0  0  0  0  0  0  0  0  0
  150.8741  139.9573  158.7964 O   0  0  0  0  0  0  0  0  0  0  0  0
  152.8280  139.2295  157.5863 C   0  0  0  0  0  0  0  0  0  0  0  0
  152.0696  138.4774  156.5726 N   0  0  0  0  0  0  0  0  0  0  0  0
  151.3145  137.3764  157.0229 C   0  0  0  0  0  0  0  0  0  0  0  0
  150.5886  136.6141  156.1819 C   0  0  0  0  0  0  0  0  0  0  0  0
  149.8230  135.4841  156.6612 N   0  3  0  0  0  0  0  0  0  0  0  0
  149.2347  134.7828  155.8444 O   0  0  0  0  0  0  0  0  0  0  0  0
  149.7829  135.2602  157.8674 O   0  5  0  0  0  0  0  0  0  0  0  0
  150.6025  136.9620  154.7741 C   0  0  0  0  0  0  0  0  0  0  0  0
  151.3254  138.0117  154.3366 C   0  0  0  0  0  0  0  0  0  0  0  0
  152.1179  138.8377  155.2533 C   0  0  0  0  0  0  0  0  0  0  0  0
  152.7842  139.7951  154.8595 O   0  0  0  0  0  0  0  0  0  0  0  0
  152.0750  141.6824  161.7571 H   0  0  0  0  0  0  0  0  0  0  0  0
  153.6313  142.4115  162.1400 H   0  0  0  0  0  0  0  0  0  0  0  0
  153.5281  141.1718  160.9025 H   0  0  0  0  0  0  0  0  0  0  0  0
  153.7345  143.4073  159.8558 H   0  0  0  0  0  0  0  0  0  0  0  0
  151.2187  144.1255  161.4169 H   0  0  0  0  0  0  0  0  0  0  0  0
  152.8217  144.7561  161.7037 H   0  0  0  0  0  0  0  0  0  0  0  0
  151.4412  146.3560  160.3864 H   0  0  0  0  0  0  0  0  0  0  0  0
  152.8528  145.8465  159.4904 H   0  0  0  0  0  0  0  0  0  0  0  0
  150.0134  144.7641  159.1457 H   0  0  0  0  0  0  0  0  0  0  0  0
  150.8666  145.7930  158.0194 H   0  0  0  0  0  0  0  0  0  0  0  0
  150.9294  143.4077  157.3025 H   0  0  0  0  0  0  0  0  0  0  0  0
  152.5355  144.0333  157.5852 H   0  0  0  0  0  0  0  0  0  0  0  0
  150.9159  142.3131  159.5256 H   0  0  0  0  0  0  0  0  0  0  0  0
  153.4034  141.6571  158.0168 H   0  0  0  0  0  0  0  0  0  0  0  0
  153.6679  139.7525  157.1272 H   0  0  0  0  0  0  0  0  0  0  0  0
  153.2796  138.5415  158.3037 H   0  0  0  0  0  0  0  0  0  0  0  0
  151.3759  137.1962  158.0865 H   0  0  0  0  0  0  0  0  0  0  0  0
  150.0348  136.3830  154.0606 H   0  0  0  0  0  0  0  0  0  0  0  0
  151.3225  138.2529  153.2838 H   0  0  0  0  0  0  0  0  0  0  0  0
  1  2  1  0  0  0  0
  1 22  1  0  0  0  0
  1 23  1  0  0  0  0
  1 24  1  0  0  0  0
  2  7  1  0  0  0  0
  2  3  1  0  0  0  0
  2 25  1  0  0  0  0
  3  4  1  0  0  0  0
  3 26  1  0  0  0  0
  3 27  1  0  0  0  0
  4  5  1  0  0  0  0
  4 28  1  0  0  0  0
  4 29  1  0  0  0  0
  5  6  1  0  0  0  0
  5 30  1  0  0  0  0
  5 31  1  0  0  0  0
  6  7  1  0  0  0  0
  6 32  1  0  0  0  0
  6 33  1  0  0  0  0
  7  8  1  0  0  0  0
  7 34  1  0  0  0  0
  8  9  1  0  0  0  0
  8 35  1  0  0  0  0
  9 10  2  0  0  0  0
  9 11  1  0  0  0  0
 11 12  1  0  0  0  0
 11 36  1  0  0  0  0
 11 37  1  0  0  0  0
 12 20  1  0  0  0  0
 12 13  1  0  0  0  0
 13 14  2  0  0  0  0
 13 38  1  0  0  0  0
 14 15  1  0  0  0  0
 14 18  1  0  0  0  0
 15 16  2  0  0  0  0
 15 17  1  0  0  0  0
 18 19  2  0  0  0  0
 18 39  1  0  0  0  0
 19 20  1  0  0  0  0
 19 40  1  0  0  0  0
 20 21  2  0  0  0  0
M  CHG  1  15   1
M  CHG  1  17  -1
M  END
> <s_m_source_file>
AV-unprocessed.smi

> <i_m_source_file_index>
594

> <i_lp_mmshare_version>
43012

> <i_f3d_flags>
0

> <s_epik_input>
W0NIM11bQ0BASF0xW0NIMl1bQ0gyXVtDSDJdW0NIMl1bQ0BIXTFbTkhdQyg9TylbQ0gyXW4yW2NIXWMoW04rXSg9TylbTy1dKVtjSF1bY0hdYzI9Tw==

> <s_epik_cmdline>
J2VwaWtfcHl0aG9uJywgJy1waCcsICc3LjAnLCAnLXRuJywgJzgnLCAnLW1hJywgJzIwMCcsICctbWV0YWxfYmluZGluZycsICctaW1hZScsICc8aW5maWxlLm1hZT4nLCAnLW9tYWUnLCAnPG91dGZpbGUubWFlPic=

> <r_lp_tautomer_probability>
1

> <r_epik_Ionization_Penalty>
1.91305e-08

> <r_epik_Ionization_Penalty_Charging>
8.35811e-11

> <r_epik_Ionization_Penalty_Neutral>
1.90469e-08

> <r_epik_State_Penalty>
-0

> <r_epik_Charging_Adjusted_Penalty>
8.35811e-11

> <i_epik_Tot_Q>
0

> <i_epik_Tot_abs_Q>
2

> <r_epik_Metal_State_Penalty>
-0

> <b_epik_Metal_Only>
0

> <s_lp_Force_Field>
OPLS_2005

> <r_lp_Energy>
21.501

> <b_lp_Chiralities_Consistent>
1

> <s_lp_Variant>
AV-unprocessed.smi:594-1

> <Gold.Version>
5.8.1

> <Gold.Id.Protein>
6NUR|6NUR_protein|mol2

> <Gold.PLP.Fitness>
48.5207

> <Gold.PLP.PLP>
-42.1238

> <Gold.PLP.part.hbond>
-3.0000

> <Gold.PLP.part.metal>
0.0000

> <Gold.PLP.part.buried>
-3.5111

> <Gold.PLP.part.nonpolar>
-35.4759

> <Gold.PLP.part.repulsive>
0.1654

> <Gold.PLP.ligand.clash>
0.0000

> <Gold.PLP.ligand.torsion>
0.4505

> <Gold.PLP.Chemscore.Hbond>
2.4240

> <Gold.PLP.Chemscore.CHOScore>
0.0000

> <Gold.PLP.Chemscore.Metal>
0.0000

> <Gold.Chemscore.Hbonds>
donor molecule, donor type, donor heavy atom, donor atom, acceptor molecule, acceptor atom, score
      P1  H  6896  6908       L1    17  0.96
      P1  H  7989  7998       L1    21  0.44
      P1  H  7997  8008       L1    21  1.00

> <Gold.PLP.Chemscore.Internal.Correction>
0.0260

> <Gold.Rescore>
     Score         DG    S(hbond)    S(metal)    S(lipo)     H(rot)  DE(clash)    DE(int)     intcor
     20.79     -21.23       2.25        0.00     104.38       1.55       0.00       0.44       ----

> <Gold.Chemscore.Fitness>
20.7856

> <Gold.Chemscore.DG>
-21.2278

> <Gold.Chemscore.ZeroCoef>
-5.4800

> <Gold.Chemscore.Hbond>
2.2469

> <Gold.Chemscore.Metal>
0.0000

> <Gold.Chemscore.Lipo>
104.3787

> <Gold.Chemscore.Internal_Hbond>
0.0000

> <Gold.Chemscore.DEClash>
0.0004

> <Gold.Chemscore.DEInternal>
0.4417

> <Gold.Chemscore.Rot>
1.5505

> <Gold.Chemscore.Internal.Correction>
   9.000000E+99

> <Gold.Chemscore.Hbonds>
donor molecule, donor type, donor heavy atom, donor atom, acceptor molecule, acceptor atom, score
      P1  H  6896  6908       L1    17  0.89
      P1  H  7989  7998       L1    21  0.31
      P1  H  7997  8008       L1    21  0.86

> <Gold.Chemscore.Hbond.Weighted>
-7.5046

> <Gold.Chemscore.Metal.Weighted>
-0.0000

> <Gold.Chemscore.Lipo.Weighted>
-12.2123

> <Gold.Chemscore.Internal_Hbond.Weighted>
0.0000

> <Gold.Chemscore.DEClash.Weighted>
0.0004

> <Gold.Chemscore.DEInternal.Weighted>
0.4417

> <Gold.Chemscore.Rot.Weighted>
3.9692

> <Gold.Chemscore.Internal.Correction.Weighted>
   9.000000E+99

> <Gold.Protein.RotatedTorsions>
[ 6907 6896 6895 6894 ] final  157.52 input  -60.11 | X-H torsion
[ 7974 7965 7964 7962 ] final    3.52 input  175.53 | X-H torsion
[ 8008 7997 7996 7995 ] final  -21.69 input   59.86 | X-H torsion
[ 10167 10162 10161 10158 ] final  172.51 input  -65.29 | X-H torsion
[ 10718 10713 10712 10709 ] final   -8.36 input   66.30 | X-H torsion
[ 10763 10752 10751 10750 ] final   67.41 input  -60.55 | X-H torsion
[ 11005 11000 10999 10996 ] final   66.00 input  -57.11 | X-H torsion

> <Gold.Protein.ActiveResidues>
 VAL166  LYS551  ARG553  GLY616  TRP617  ASP618  TYR619  PRO620  LYS621  CYS622 
 ASP623  PHE694  ASN695  SER759  ASP760  ASP761  ALA762  ILE779  LEU786  VAL792 
 PHE793  MET794  SER795  GLU796  ALA797  LYS798  CYS799  TRP800  GLU811  SER814 

> <Gold.Protein.RotatedAtoms>
  152.0139  133.3872  159.4230 H   0  0  0  0  0  0  0  0  0  0  0  0  # atno 6907 bound_to 6896
  150.6897  134.3700  159.4997 H   0  0  0  0  0  0  0  0  0  0  0  0  # atno 6908 bound_to 6896
  152.1465  134.9022  160.0601 H   0  0  0  0  0  0  0  0  0  0  0  0  # atno 6909 bound_to 6896
  146.2445  140.0672  142.8364 H   0  0  0  0  0  0  0  0  0  0  0  0  # atno 7974 bound_to 7965
  154.4690  140.2028  156.0044 H   0  0  0  0  0  0  0  0  0  0  0  0  # atno 8008 bound_to 7997
  156.0977  140.3248  155.7871 H   0  0  0  0  0  0  0  0  0  0  0  0  # atno 8009 bound_to 7997
  155.4850  140.0541  157.2952 H   0  0  0  0  0  0  0  0  0  0  0  0  # atno 8010 bound_to 7997
  139.5079  144.3366  152.0059 H   0  0  0  0  0  0  0  0  0  0  0  0  # atno 10167 bound_to 10162
  156.7037  130.5101  149.5910 H   0  0  0  0  0  0  0  0  0  0  0  0  # atno 10718 bound_to 10713
  153.0185  135.5285  154.6975 H   0  0  0  0  0  0  0  0  0  0  0  0  # atno 10763 bound_to 10752
  154.6093  135.2876  155.0452 H   0  0  0  0  0  0  0  0  0  0  0  0  # atno 10764 bound_to 10752
  154.1480  135.6567  153.5009 H   0  0  0  0  0  0  0  0  0  0  0  0  # atno 10765 bound_to 10752
  139.9859  134.6669  156.0177 H   0  0  0  0  0  0  0  0  0  0  0  0  # atno 11005 bound_to 11000
  145.0848  140.9245  143.4804 LP  0  0  0  0  0  0  0  0  0  0  0  0  # atno 17320 bound_to 7965
  145.0833  139.2944  143.5772 LP  0  0  0  0  0  0  0  0  0  0  0  0  # atno 17321 bound_to 7965
  140.2804  144.3865  150.6121 LP  0  0  0  0  0  0  0  0  0  0  0  0  # atno 17342 bound_to 10162
  140.6022  143.2167  151.7050 LP  0  0  0  0  0  0  0  0  0  0  0  0  # atno 17343 bound_to 10162
  156.1710  130.6437  151.0837 LP  0  0  0  0  0  0  0  0  0  0  0  0  # atno 17370 bound_to 10713
  157.6963  131.0792  150.6958 LP  0  0  0  0  0  0  0  0  0  0  0  0  # atno 17371 bound_to 10713
  141.1524  133.6547  156.4055 LP  0  0  0  0  0  0  0  0  0  0  0  0  # atno 17394 bound_to 11000
  140.5003  134.6492  157.5246 LP  0  0  0  0  0  0  0  0  0  0  0  0  # atno 17395 bound_to 11000

$$$$
