AV-unprocessed.smi:1005|AV-procd|sdf|4367|dock5
  -GOLD-   22720 2273D 1   1.00000     0.00000
 Structure written by MMmdl.
 57 59  0  0  0  0  0  0  0  0  3 V2000
  153.4452  142.6254  161.1296 C   0  0  0  0  0  0  0  0  0  0  0  0
  152.7330  142.3492  159.8172 C   0  0  0  0  0  0  0  0  0  0  0  0
  153.0535  141.1779  159.0945 C   0  0  0  0  0  0  0  0  0  0  0  0
  152.4131  140.8839  157.8709 C   0  0  0  0  0  0  0  0  0  0  0  0
  152.5658  139.8097  157.0112 N   0  0  0  0  0  0  0  0  0  0  0  0
  151.6937  140.1067  156.0526 C   0  0  0  0  0  0  0  0  0  0  0  0
  150.9887  141.2462  156.1912 N   0  0  0  0  0  0  0  0  0  0  0  0
  149.9847  141.7680  155.2803 C   0  0  0  0  0  0  0  0  0  0  0  0
  148.8597  140.7536  154.9956 C   0  0  1  0  0  0  0  0  0  0  0  0
  149.2798  139.8530  153.9882 O   0  0  0  0  0  0  0  0  0  0  0  0
  148.4892  139.9442  156.2550 C   0  0  0  0  0  0  0  0  0  0  0  0
  147.3447  140.5294  157.0004 N   0  3  1  0  0  0  0  0  0  0  0  0
  146.5958  139.5154  157.7793 C   0  0  0  0  0  0  0  0  0  0  0  0
  145.3822  140.1592  158.4692 C   0  0  0  0  0  0  0  0  0  0  0  0
  145.8164  141.2367  159.2902 O   0  0  0  0  0  0  0  0  0  0  0  0
  146.4552  142.2661  158.5418 C   0  0  1  0  0  0  0  0  0  0  0  0
  146.8120  143.4099  159.5103 C   0  0  0  0  0  0  0  0  0  0  0  0
  146.3130  144.7333  159.0543 N   0  3  0  0  0  0  0  0  0  0  0  0
  146.4408  145.7975  160.0771 C   0  0  0  0  0  0  0  0  0  0  0  0
  144.9321  144.6541  158.5281 C   0  0  0  0  0  0  0  0  0  0  0  0
  147.7109  141.6768  157.8676 C   0  0  0  0  0  0  0  0  0  0  0  0
  151.4361  141.8017  157.3856 C   0  0  0  0  0  0  0  0  0  0  0  0
  151.1104  142.9715  158.0944 C   0  0  0  0  0  0  0  0  0  0  0  0
  151.7581  143.2489  159.3163 C   0  0  0  0  0  0  0  0  0  0  0  0
  151.3972  144.5134  160.0753 C   0  0  0  0  0  0  0  0  0  0  0  0
  154.1809  141.8527  161.3545 H   0  0  0  0  0  0  0  0  0  0  0  0
  152.7305  142.6567  161.9523 H   0  0  0  0  0  0  0  0  0  0  0  0
  153.9673  143.5815  161.0870 H   0  0  0  0  0  0  0  0  0  0  0  0
  153.7962  140.4923  159.4760 H   0  0  0  0  0  0  0  0  0  0  0  0
  151.5577  139.4569  155.2005 H   0  0  0  0  0  0  0  0  0  0  0  0
  149.5776  142.6887  155.7007 H   0  0  0  0  0  0  0  0  0  0  0  0
  150.4817  142.0458  154.3499 H   0  0  0  0  0  0  0  0  0  0  0  0
  147.9925  141.2992  154.6250 H   0  0  0  0  0  0  0  0  0  0  0  0
  149.2191  140.2891  153.1508 H   0  0  0  0  0  0  0  0  0  0  0  0
  148.2356  138.9281  155.9477 H   0  0  0  0  0  0  0  0  0  0  0  0
  149.3488  139.8553  156.9211 H   0  0  0  0  0  0  0  0  0  0  0  0
  146.2585  138.7142  157.1204 H   0  0  0  0  0  0  0  0  0  0  0  0
  147.2542  139.0642  158.5236 H   0  0  0  0  0  0  0  0  0  0  0  0
  144.6578  140.5140  157.7344 H   0  0  0  0  0  0  0  0  0  0  0  0
  144.8701  139.4249  159.0915 H   0  0  0  0  0  0  0  0  0  0  0  0
  145.7804  142.6282  157.7657 H   0  0  0  0  0  0  0  0  0  0  0  0
  146.3819  143.1771  160.4859 H   0  0  0  0  0  0  0  0  0  0  0  0
  147.8917  143.4654  159.6570 H   0  0  0  0  0  0  0  0  0  0  0  0
  145.8572  145.5576  160.9670 H   0  0  0  0  0  0  0  0  0  0  0  0
  146.0812  146.7495  159.6852 H   0  0  0  0  0  0  0  0  0  0  0  0
  147.4770  145.9466  160.3774 H   0  0  0  0  0  0  0  0  0  0  0  0
  144.2348  144.3396  159.3056 H   0  0  0  0  0  0  0  0  0  0  0  0
  144.8711  143.9422  157.7045 H   0  0  0  0  0  0  0  0  0  0  0  0
  144.6061  145.6231  158.1482 H   0  0  0  0  0  0  0  0  0  0  0  0
  148.4281  141.3492  158.6223 H   0  0  0  0  0  0  0  0  0  0  0  0
  148.1987  142.4541  157.2808 H   0  0  0  0  0  0  0  0  0  0  0  0
  150.3659  143.6484  157.7022 H   0  0  0  0  0  0  0  0  0  0  0  0
  150.6084  145.0700  159.5686 H   0  0  0  0  0  0  0  0  0  0  0  0
  152.2656  145.1666  160.1617 H   0  0  0  0  0  0  0  0  0  0  0  0
  151.0438  144.2716  161.0779 H   0  0  0  0  0  0  0  0  0  0  0  0
  146.8907  145.0061  158.2718 H   0  0  0  0  0  0  0  0  0  0  0  0
  146.7051  140.8765  156.2992 H   0  0  0  0  0  0  0  0  0  0  0  0
  1  2  1  0  0  0  0
  1 26  1  0  0  0  0
  1 27  1  0  0  0  0
  1 28  1  0  0  0  0
  2 24  1  0  0  0  0
  2  3  2  0  0  0  0
  3  4  1  0  0  0  0
  3 29  1  0  0  0  0
  4 22  2  0  0  0  0
  4  5  1  0  0  0  0
  5  6  2  0  0  0  0
  6  7  1  0  0  0  0
  6 30  1  0  0  0  0
  7  8  1  0  0  0  0
  7 22  1  0  0  0  0
  8  9  1  0  0  0  0
  8 31  1  0  0  0  0
  8 32  1  0  0  0  0
  9 10  1  0  0  0  0
  9 11  1  0  0  0  0
  9 33  1  0  0  0  0
 10 34  1  0  0  0  0
 11 12  1  0  0  0  0
 11 35  1  0  0  0  0
 11 36  1  0  0  0  0
 12 21  1  0  0  0  0
 12 13  1  0  0  0  0
 12 57  1  0  0  0  0
 13 14  1  0  0  0  0
 13 37  1  0  0  0  0
 13 38  1  0  0  0  0
 14 15  1  0  0  0  0
 14 39  1  0  0  0  0
 14 40  1  0  0  0  0
 15 16  1  0  0  0  0
 16 17  1  0  0  0  0
 16 21  1  0  0  0  0
 16 41  1  0  0  0  0
 17 18  1  0  0  0  0
 17 42  1  0  0  0  0
 17 43  1  0  0  0  0
 18 19  1  0  0  0  0
 18 20  1  0  0  0  0
 18 56  1  0  0  0  0
 19 44  1  0  0  0  0
 19 45  1  0  0  0  0
 19 46  1  0  0  0  0
 20 47  1  0  0  0  0
 20 48  1  0  0  0  0
 20 49  1  0  0  0  0
 21 50  1  0  0  0  0
 21 51  1  0  0  0  0
 22 23  1  0  0  0  0
 23 24  2  0  0  0  0
 23 52  1  0  0  0  0
 24 25  1  0  0  0  0
 25 53  1  0  0  0  0
 25 54  1  0  0  0  0
 25 55  1  0  0  0  0
M  CHG  1  12   1
M  CHG  1  18   1
M  END
> <s_m_source_file>
AV-unprocessed.smi

> <i_m_source_file_index>
1005

> <i_lp_mmshare_version>
43012

> <i_f3d_flags>
0

> <s_epik_input>
W0NIM11jKFtjSF0xKWMoW0NIM10pW2NIXWMoYzEyKW4oW2NIXW4yKVtDSDJdW0NASF0oW09IXSlbQ0gyXU4zW0NIMl1bQ0gyXU9bQ0BIXShbQ0gyXTMpW0NIMl1OKFtDSDNdKVtDSDNd

> <s_epik_cmdline>
J2VwaWtfcHl0aG9uJywgJy1waCcsICc3LjAnLCAnLXRuJywgJzgnLCAnLW1hJywgJzIwMCcsICctbWV0YWxfYmluZGluZycsICctaW1hZScsICc8aW5maWxlLm1hZT4nLCAnLW9tYWUnLCAnPG91dGZpbGUubWFlPic=

> <r_epik_Ionization_Penalty>
1.0968

> <r_epik_Ionization_Penalty_Charging>
1.0096

> <r_epik_Ionization_Penalty_Neutral>
0.0871956

> <r_epik_State_Penalty>
1.31185

> <r_epik_Charging_Adjusted_Penalty>
2.32145

> <i_epik_Tot_Q>
2

> <i_epik_Tot_abs_Q>
2

> <r_epik_Metal_State_Penalty>
1.22442

> <b_epik_Metal_Only>
0

> <s_lp_Force_Field>
OPLS_2005

> <r_lp_Energy>
33.8035

> <b_lp_Chiralities_Consistent>
1

> <s_lp_Variant>
AV-unprocessed.smi:1005-6

> <Gold.Version>
5.8.1

> <Gold.Id.Protein>
6NUR|6NUR_protein|mol2

> <Gold.PLP.Fitness>
52.3414

> <Gold.PLP.PLP>
-41.9778

> <Gold.PLP.part.hbond>
-4.0000

> <Gold.PLP.part.metal>
0.0000

> <Gold.PLP.part.buried>
-5.0415

> <Gold.PLP.part.nonpolar>
-31.8932

> <Gold.PLP.part.repulsive>
0.0451

> <Gold.PLP.ligand.clash>
0.0000

> <Gold.PLP.ligand.torsion>
1.7904

> <Gold.PLP.Chemscore.Hbond>
4.6085

> <Gold.PLP.Chemscore.CHOScore>
0.0000

> <Gold.PLP.Chemscore.Metal>
0.0000

> <Gold.Chemscore.Hbonds>
donor molecule, donor type, donor heavy atom, donor atom, acceptor molecule, acceptor atom, score
      L1  H    10    34       P1  7957  0.83
      L1  H    18    56       P1  8029  2.00
      P1  H  6934  6946       L1    15  0.78
      P1  H  7997  8008       L1     5  0.95

> <Gold.PLP.Chemscore.Internal.Correction>
0.1189

> <Gold.Rescore>
     Score         DG    S(hbond)    S(metal)    S(lipo)     H(rot)  DE(clash)    DE(int)     intcor
     17.47     -19.33       2.56        0.00      99.50       2.48       0.21       1.65       ----

> <Gold.Chemscore.Fitness>
17.4695

> <Gold.Chemscore.DG>
-19.3277

> <Gold.Chemscore.ZeroCoef>
-5.4800

> <Gold.Chemscore.Hbond>
2.5623

> <Gold.Chemscore.Metal>
0.0000

> <Gold.Chemscore.Lipo>
99.5034

> <Gold.Chemscore.Internal_Hbond>
0.0000

> <Gold.Chemscore.DEClash>
0.2126

> <Gold.Chemscore.DEInternal>
1.6456

> <Gold.Chemscore.Rot>
2.4814

> <Gold.Chemscore.Internal.Correction>
   9.000000E+99

> <Gold.Chemscore.Hbonds>
donor molecule, donor type, donor heavy atom, donor atom, acceptor molecule, acceptor atom, score
      L1  H    10    34       P1  7957  0.77
      L1  H    18    56       P1  8029  0.98
      P1  H  6934  6946       L1    15  0.48
      P1  H  7997  8008       L1     5  0.17

> <Gold.Chemscore.Hbond.Weighted>
-8.5582

> <Gold.Chemscore.Metal.Weighted>
-0.0000

> <Gold.Chemscore.Lipo.Weighted>
-11.6419

> <Gold.Chemscore.Internal_Hbond.Weighted>
0.0000

> <Gold.Chemscore.DEClash.Weighted>
0.2126

> <Gold.Chemscore.DEInternal.Weighted>
1.6456

> <Gold.Chemscore.Rot.Weighted>
6.3524

> <Gold.Chemscore.Internal.Correction.Weighted>
   9.000000E+99

> <Gold.Protein.RotatedTorsions>
[ 6907 6896 6895 6894 ] final -131.08 input  -60.11 | X-H torsion
[ 7974 7965 7964 7962 ] final  112.25 input  175.53 | X-H torsion
[ 8008 7997 7996 7995 ] final  -48.29 input   59.86 | X-H torsion
[ 10167 10162 10161 10158 ] final -139.32 input  -65.29 | X-H torsion
[ 10718 10713 10712 10709 ] final   29.88 input   66.30 | X-H torsion
[ 10763 10752 10751 10750 ] final  136.27 input  -60.55 | X-H torsion
[ 11005 11000 10999 10996 ] final  -56.52 input  -57.11 | X-H torsion

> <Gold.Protein.ActiveResidues>
 VAL166  LYS551  ARG553  GLY616  TRP617  ASP618  TYR619  PRO620  LYS621  CYS622 
 ASP623  PHE694  ASN695  SER759  ASP760  ASP761  ALA762  ILE779  LEU786  VAL792 
 PHE793  MET794  SER795  GLU796  ALA797  LYS798  CYS799  TRP800  GLU811  SER814 

> <Gold.Protein.RotatedAtoms>
  150.9469  133.6593  159.2779 H   0  0  0  0  0  0  0  0  0  0  0  0  # atno 6907 bound_to 6896
  151.3962  135.0963  159.9551 H   0  0  0  0  0  0  0  0  0  0  0  0  # atno 6908 bound_to 6896
  152.5093  133.8973  159.7478 H   0  0  0  0  0  0  0  0  0  0  0  0  # atno 6909 bound_to 6896
  145.2320  139.2815  143.4163 H   0  0  0  0  0  0  0  0  0  0  0  0  # atno 7974 bound_to 7965
  154.4027  140.1325  156.4314 H   0  0  0  0  0  0  0  0  0  0  0  0  # atno 8008 bound_to 7997
  155.7547  140.3487  155.5148 H   0  0  0  0  0  0  0  0  0  0  0  0  # atno 8009 bound_to 7997
  155.8916  140.1004  157.1404 H   0  0  0  0  0  0  0  0  0  0  0  0  # atno 8010 bound_to 7997
  139.8391  143.7346  152.2664 H   0  0  0  0  0  0  0  0  0  0  0  0  # atno 10167 bound_to 10162
  157.2523  130.7121  149.6411 H   0  0  0  0  0  0  0  0  0  0  0  0  # atno 10718 bound_to 10713
  153.8538  135.3076  155.3434 H   0  0  0  0  0  0  0  0  0  0  0  0  # atno 10763 bound_to 10752
  154.7879  135.4799  153.9990 H   0  0  0  0  0  0  0  0  0  0  0  0  # atno 10764 bound_to 10752
  153.1502  135.6841  153.8987 H   0  0  0  0  0  0  0  0  0  0  0  0  # atno 10765 bound_to 10752
  141.1124  133.6610  156.4632 H   0  0  0  0  0  0  0  0  0  0  0  0  # atno 11005 bound_to 11000
  146.3350  140.2657  142.8604 LP  0  0  0  0  0  0  0  0  0  0  0  0  # atno 17320 bound_to 7965
  144.9668  140.8330  143.5480 LP  0  0  0  0  0  0  0  0  0  0  0  0  # atno 17321 bound_to 7965
  139.7577  144.7516  151.0410 LP  0  0  0  0  0  0  0  0  0  0  0  0  # atno 17342 bound_to 10162
  140.7800  143.4786  151.0048 LP  0  0  0  0  0  0  0  0  0  0  0  0  # atno 17343 bound_to 10162
  155.9666  130.4424  150.5378 LP  0  0  0  0  0  0  0  0  0  0  0  0  # atno 17370 bound_to 10713
  157.3265  131.0691  151.1893 LP  0  0  0  0  0  0  0  0  0  0  0  0  # atno 17371 bound_to 10713
  140.4739  134.6727  157.5141 LP  0  0  0  0  0  0  0  0  0  0  0  0  # atno 17394 bound_to 11000
  140.0025  134.6814  155.9507 LP  0  0  0  0  0  0  0  0  0  0  0  0  # atno 17395 bound_to 11000

$$$$
