AV-unprocessed.smi:2083|AV-procd|sdf|8492|dock10
  -GOLD-   2272011203D 1   1.00000     0.00000
 Structure written by MMmdl.
 45 46  0  0  0  0  0  0  0  0  2 V2000
  138.4249  136.9326  153.5750 C   0  0  0  0  0  0  0  0  0  0  0  0
  139.7731  137.3228  154.0769 C   0  0  0  0  0  0  0  0  0  0  0  0
  140.6263  138.3421  153.7589 C   0  0  0  0  0  0  0  0  0  0  0  0
  141.7338  138.1111  154.6175 C   0  0  0  0  0  0  0  0  0  0  0  0
  142.8641  138.9677  154.5954 N   0  0  0  0  0  0  0  0  0  0  0  0
  143.7137  139.2262  155.6040 C   0  0  0  0  0  0  0  0  0  0  0  0
  143.6410  138.7468  156.7359 O   0  0  0  0  0  0  0  0  0  0  0  0
  144.6730  140.0850  155.2287 N   0  0  0  0  0  0  0  0  0  0  0  0
  145.7624  140.5451  156.0856 C   0  0  0  0  0  0  0  0  0  0  0  0
  146.5475  141.7474  155.4879 C   0  0  2  0  0  0  0  0  0  0  0  0
  146.5650  141.6586  153.9448 C   0  0  0  0  0  0  0  0  0  0  0  0
  147.9491  141.8866  156.0057 N   0  3  2  0  0  0  0  0  0  0  0  0
  149.0237  141.2968  155.1544 C   0  0  0  0  0  0  0  0  0  0  0  0
  150.4242  141.6205  155.7011 C   0  0  0  0  0  0  0  0  0  0  0  0
  150.5760  141.1742  157.1595 C   0  0  0  0  0  0  0  0  0  0  0  0
  149.4463  141.7485  158.0295 C   0  0  1  0  0  0  0  0  0  0  0  0
  149.6051  143.2539  158.3073 C   0  0  0  0  0  0  0  0  0  0  0  0
  148.0743  141.4090  157.4144 C   0  0  0  0  0  0  0  0  0  0  0  0
  141.5706  137.0493  155.3917 N   0  0  0  0  0  0  0  0  0  0  0  0
  140.3132  136.5385  155.0487 O   0  0  0  0  0  0  0  0  0  0  0  0
  138.0023  137.7140  152.9433 H   0  0  0  0  0  0  0  0  0  0  0  0
  137.7380  136.7606  154.4037 H   0  0  0  0  0  0  0  0  0  0  0  0
  138.4828  136.0165  152.9872 H   0  0  0  0  0  0  0  0  0  0  0  0
  140.4794  139.1229  153.0274 H   0  0  0  0  0  0  0  0  0  0  0  0
  143.0485  139.4258  153.7153 H   0  0  0  0  0  0  0  0  0  0  0  0
  144.6583  140.4337  154.2809 H   0  0  0  0  0  0  0  0  0  0  0  0
  145.3258  140.7965  157.0532 H   0  0  0  0  0  0  0  0  0  0  0  0
  146.4344  139.7021  156.2507 H   0  0  0  0  0  0  0  0  0  0  0  0
  146.0083  142.6527  155.7721 H   0  0  0  0  0  0  0  0  0  0  0  0
  145.5576  141.6245  153.5303 H   0  0  0  0  0  0  0  0  0  0  0  0
  147.0886  140.7626  153.6101 H   0  0  0  0  0  0  0  0  0  0  0  0
  147.0515  142.5137  153.4788 H   0  0  0  0  0  0  0  0  0  0  0  0
  148.8833  140.2170  155.0816 H   0  0  0  0  0  0  0  0  0  0  0  0
  148.9866  141.6995  154.1432 H   0  0  0  0  0  0  0  0  0  0  0  0
  151.1820  141.1334  155.0867 H   0  0  0  0  0  0  0  0  0  0  0  0
  150.6110  142.6916  155.6188 H   0  0  0  0  0  0  0  0  0  0  0  0
  150.5461  140.0847  157.2035 H   0  0  0  0  0  0  0  0  0  0  0  0
  151.5510  141.4695  157.5490 H   0  0  0  0  0  0  0  0  0  0  0  0
  149.5012  141.2510  158.9987 H   0  0  0  0  0  0  0  0  0  0  0  0
  149.5365  143.8476  157.3958 H   0  0  0  0  0  0  0  0  0  0  0  0
  150.5689  143.4673  158.7704 H   0  0  0  0  0  0  0  0  0  0  0  0
  148.8307  143.6087  158.9881 H   0  0  0  0  0  0  0  0  0  0  0  0
  147.2957  141.8317  158.0466 H   0  0  0  0  0  0  0  0  0  0  0  0
  147.9241  140.3283  157.4330 H   0  0  0  0  0  0  0  0  0  0  0  0
  148.1362  142.8790  156.0197 H   0  0  0  0  0  0  0  0  0  0  0  0
  1  2  1  0  0  0  0
  1 21  1  0  0  0  0
  1 22  1  0  0  0  0
  1 23  1  0  0  0  0
  2 20  1  0  0  0  0
  2  3  2  0  0  0  0
  3  4  1  0  0  0  0
  3 24  1  0  0  0  0
  4  5  1  0  0  0  0
  4 19  2  0  0  0  0
  5  6  1  0  0  0  0
  5 25  1  0  0  0  0
  6  7  2  0  0  0  0
  6  8  1  0  0  0  0
  8  9  1  0  0  0  0
  8 26  1  0  0  0  0
  9 10  1  0  0  0  0
  9 27  1  0  0  0  0
  9 28  1  0  0  0  0
 10 11  1  0  0  0  0
 10 12  1  0  0  0  0
 10 29  1  0  0  0  0
 11 30  1  0  0  0  0
 11 31  1  0  0  0  0
 11 32  1  0  0  0  0
 12 18  1  0  0  0  0
 12 13  1  0  0  0  0
 12 45  1  0  0  0  0
 13 14  1  0  0  0  0
 13 33  1  0  0  0  0
 13 34  1  0  0  0  0
 14 15  1  0  0  0  0
 14 35  1  0  0  0  0
 14 36  1  0  0  0  0
 15 16  1  0  0  0  0
 15 37  1  0  0  0  0
 15 38  1  0  0  0  0
 16 17  1  0  0  0  0
 16 18  1  0  0  0  0
 16 39  1  0  0  0  0
 17 40  1  0  0  0  0
 17 41  1  0  0  0  0
 17 42  1  0  0  0  0
 18 43  1  0  0  0  0
 18 44  1  0  0  0  0
 19 20  1  0  0  0  0
M  CHG  1  12   1
M  END
> <s_m_source_file>
AV-unprocessed.smi

> <i_m_source_file_index>
2083

> <i_lp_mmshare_version>
43012

> <i_f3d_flags>
0

> <s_epik_input>
W0NIM11jMVtjSF1jKG5vMSlbTkhdQyg9TylbTkhdW0NIMl1bQ0BIXShbQ0gzXSlOMltDSDJdW0NIMl1bQ0gyXVtDQEBIXShbQ0gzXSlbQ0gyXTI=

> <s_epik_cmdline>
J2VwaWtfcHl0aG9uJywgJy1waCcsICc3LjAnLCAnLXRuJywgJzgnLCAnLW1hJywgJzIwMCcsICctbWV0YWxfYmluZGluZycsICctaW1hZScsICc8aW5maWxlLm1hZT4nLCAnLW9tYWUnLCAnPG91dGZpbGUubWFlPic=

> <r_epik_Ionization_Penalty>
0.00216453

> <r_epik_Ionization_Penalty_Charging>
0.00212879

> <r_epik_Ionization_Penalty_Neutral>
3.57418e-05

> <r_epik_State_Penalty>
0.00146033

> <r_epik_Charging_Adjusted_Penalty>
0.00358912

> <i_epik_Tot_Q>
1

> <i_epik_Tot_abs_Q>
1

> <r_epik_Metal_State_Penalty>
0.0215827

> <b_epik_Metal_Only>
0

> <s_lp_Force_Field>
OPLS_2005

> <r_lp_Energy>
21.6248

> <b_lp_Chiralities_Consistent>
1

> <s_lp_Variant>
AV-unprocessed.smi:2083-3

> <Gold.Version>
5.8.1

> <Gold.Id.Protein>
6NUR|6NUR_protein|mol2

> <Gold.PLP.Fitness>
39.2428

> <Gold.PLP.PLP>
-27.3854

> <Gold.PLP.part.hbond>
-4.0000

> <Gold.PLP.part.metal>
0.0000

> <Gold.PLP.part.buried>
-4.8336

> <Gold.PLP.part.nonpolar>
-19.8243

> <Gold.PLP.part.repulsive>
0.0748

> <Gold.PLP.ligand.clash>
0.0000

> <Gold.PLP.ligand.torsion>
1.2870

> <Gold.PLP.Chemscore.Hbond>
4.7940

> <Gold.PLP.Chemscore.CHOScore>
0.0000

> <Gold.PLP.Chemscore.Metal>
0.0000

> <Gold.Chemscore.Hbonds>
donor molecule, donor type, donor heavy atom, donor atom, acceptor molecule, acceptor atom, score
      L1  H     5    25       P1 10175  1.00
      L1  H     8    26       P1 10175  0.90
      L1  H    12    45       P1  8028  2.00
      P1  H 11000 11005       L1    20  0.84

> <Gold.PLP.Chemscore.Internal.Correction>
0.0494

> <Gold.Rescore>
     Score         DG    S(hbond)    S(metal)    S(lipo)     H(rot)  DE(clash)    DE(int)     intcor
     18.77     -20.50       3.48        0.00      62.97       1.55       0.29       1.44       ----

> <Gold.Chemscore.Fitness>
18.7710

> <Gold.Chemscore.DG>
-20.4969

> <Gold.Chemscore.ZeroCoef>
-5.4800

> <Gold.Chemscore.Hbond>
3.4763

> <Gold.Chemscore.Metal>
0.0000

> <Gold.Chemscore.Lipo>
62.9677

> <Gold.Chemscore.Internal_Hbond>
0.0000

> <Gold.Chemscore.DEClash>
0.2899

> <Gold.Chemscore.DEInternal>
1.4360

> <Gold.Chemscore.Rot>
1.5474

> <Gold.Chemscore.Internal.Correction>
   9.000000E+99

> <Gold.Chemscore.Hbonds>
donor molecule, donor type, donor heavy atom, donor atom, acceptor molecule, acceptor atom, score
      L1  H     5    25       P1 10175  1.00
      L1  H     8    26       P1 10175  0.83
      L1  H    12    45       P1  8028  0.75
      P1  H 11000 11005       L1    20  0.59

> <Gold.Chemscore.Hbond.Weighted>
-11.6109

> <Gold.Chemscore.Metal.Weighted>
-0.0000

> <Gold.Chemscore.Lipo.Weighted>
-7.3672

> <Gold.Chemscore.Internal_Hbond.Weighted>
0.0000

> <Gold.Chemscore.DEClash.Weighted>
0.2899

> <Gold.Chemscore.DEInternal.Weighted>
1.4360

> <Gold.Chemscore.Rot.Weighted>
3.9612

> <Gold.Chemscore.Internal.Correction.Weighted>
   9.000000E+99

> <Gold.Protein.RotatedTorsions>
[ 6907 6896 6895 6894 ] final -101.07 input  -60.11 | X-H torsion
[ 7974 7965 7964 7962 ] final  129.78 input  175.53 | X-H torsion
[ 8008 7997 7996 7995 ] final -104.30 input   59.86 | X-H torsion
[ 10167 10162 10161 10158 ] final -110.28 input  -65.29 | X-H torsion
[ 10718 10713 10712 10709 ] final   95.58 input   66.30 | X-H torsion
[ 10763 10752 10751 10750 ] final  131.35 input  -60.55 | X-H torsion
[ 11005 11000 10999 10996 ] final   74.90 input  -57.11 | X-H torsion

> <Gold.Protein.ActiveResidues>
 VAL166  LYS551  ARG553  GLY616  TRP617  ASP618  TYR619  PRO620  LYS621  CYS622 
 ASP623  PHE694  ASN695  SER759  ASP760  ASP761  ALA762  ILE779  LEU786  VAL792 
 PHE793  MET794  SER795  GLU796  ALA797  LYS798  CYS799  TRP800  GLU811  SER814 

> <Gold.Protein.RotatedAtoms>
  150.7140  134.0790  159.3890 H   0  0  0  0  0  0  0  0  0  0  0  0  # atno 6907 bound_to 6896
  151.8773  135.0464  160.0494 H   0  0  0  0  0  0  0  0  0  0  0  0  # atno 6908 bound_to 6896
  152.2595  133.5250  159.5410 H   0  0  0  0  0  0  0  0  0  0  0  0  # atno 6909 bound_to 6896
  145.0249  139.4098  143.5179 H   0  0  0  0  0  0  0  0  0  0  0  0  # atno 7974 bound_to 7965
  154.8833  140.0418  157.1795 H   0  0  0  0  0  0  0  0  0  0  0  0  # atno 8008 bound_to 7997
  154.8616  140.2945  155.5514 H   0  0  0  0  0  0  0  0  0  0  0  0  # atno 8009 bound_to 7997
  156.2998  140.2446  156.3591 H   0  0  0  0  0  0  0  0  0  0  0  0  # atno 8010 bound_to 7997
  140.1461  143.4238  152.1528 H   0  0  0  0  0  0  0  0  0  0  0  0  # atno 10167 bound_to 10162
  157.6937  131.0550  150.4361 H   0  0  0  0  0  0  0  0  0  0  0  0  # atno 10718 bound_to 10713
  153.7729  135.3179  155.3354 H   0  0  0  0  0  0  0  0  0  0  0  0  # atno 10763 bound_to 10752
  154.8190  135.4616  154.0727 H   0  0  0  0  0  0  0  0  0  0  0  0  # atno 10764 bound_to 10752
  153.1992  135.6920  153.8338 H   0  0  0  0  0  0  0  0  0  0  0  0  # atno 10765 bound_to 10752
  139.9369  134.7472  156.1205 H   0  0  0  0  0  0  0  0  0  0  0  0  # atno 11005 bound_to 11000
  146.3491  139.9767  142.8700 LP  0  0  0  0  0  0  0  0  0  0  0  0  # atno 17320 bound_to 7965
  145.1846  140.9783  143.4246 LP  0  0  0  0  0  0  0  0  0  0  0  0  # atno 17321 bound_to 7965
  139.5448  144.7289  151.4618 LP  0  0  0  0  0  0  0  0  0  0  0  0  # atno 17342 bound_to 10162
  140.6731  143.8250  150.7024 LP  0  0  0  0  0  0  0  0  0  0  0  0  # atno 17343 bound_to 10162
  156.4724  130.4055  149.6510 LP  0  0  0  0  0  0  0  0  0  0  0  0  # atno 17370 bound_to 10713
  156.3586  130.7469  151.2439 LP  0  0  0  0  0  0  0  0  0  0  0  0  # atno 17371 bound_to 10713
  141.0986  133.6686  156.2702 LP  0  0  0  0  0  0  0  0  0  0  0  0  # atno 17394 bound_to 11000
  140.6053  134.5513  157.5524 LP  0  0  0  0  0  0  0  0  0  0  0  0  # atno 17395 bound_to 11000

$$$$
