AV-unprocessed.smi:3001|AV-procd|sdf|11431|dock9
  -GOLD-   2272016363D 1   1.00000     0.00000
 Structure written by MMmdl.
 41 42  0  0  0  0  0  0  0  0  1 V2000
  143.6409  132.3398  148.4190 C   0  0  0  0  0  0  0  0  0  0  0  0
  144.2823  132.8127  149.3443 C   0  0  0  0  0  0  0  0  0  0  0  0
  145.0561  133.3939  150.4515 C   0  0  0  0  0  0  0  0  0  0  0  0
  145.4308  134.7723  150.1786 N   0  0  0  0  0  0  0  0  0  0  0  0
  145.4279  135.7623  151.0863 C   0  0  0  0  0  0  0  0  0  0  0  0
  145.1095  135.5842  152.2614 O   0  0  0  0  0  0  0  0  0  0  0  0
  145.8421  137.1707  150.6282 C   0  0  0  0  0  0  0  0  0  0  0  0
  146.9228  137.7697  151.4118 N   0  0  0  0  0  0  0  0  0  0  0  0
  146.7548  138.5846  152.4633 C   0  0  0  0  0  0  0  0  0  0  0  0
  145.6553  138.8728  152.9362 O   0  0  0  0  0  0  0  0  0  0  0  0
  147.9306  139.0652  152.8976 N   0  0  0  0  0  0  0  0  0  0  0  0
  148.1304  140.0799  153.8722 C   0  0  0  0  0  0  0  0  0  0  0  0
  147.1526  141.0791  154.0933 C   0  0  0  0  0  0  0  0  0  0  0  0
  147.3530  142.0238  155.1147 C   0  0  0  0  0  0  0  0  0  0  0  0
  148.5198  141.9246  155.8912 C   0  0  0  0  0  0  0  0  0  0  0  0
  149.4543  140.9716  155.6994 N   0  0  0  0  0  0  0  0  0  0  0  0
  149.2834  140.0628  154.7075 C   0  0  0  0  0  0  0  0  0  0  0  0
  150.3076  139.1032  154.5339 N   0  0  0  0  0  0  0  0  0  0  0  0
  150.0314  137.6832  154.7257 C   0  0  0  0  0  0  0  0  0  0  0  0
  151.4030  137.0259  154.8478 C   0  0  0  0  0  0  0  0  0  0  0  0
  152.2085  138.0896  155.5870 C   0  0  0  0  0  0  0  0  0  0  0  0
  151.6343  139.4097  155.0624 C   0  0  0  0  0  0  0  0  0  0  0  0
  143.0799  131.9322  147.6080 H   0  0  0  0  0  0  0  0  0  0  0  0
  144.4504  133.3410  151.3571 H   0  0  0  0  0  0  0  0  0  0  0  0
  145.9465  132.7831  150.6058 H   0  0  0  0  0  0  0  0  0  0  0  0
  145.6995  134.9960  149.2315 H   0  0  0  0  0  0  0  0  0  0  0  0
  146.1142  137.1379  149.5719 H   0  0  0  0  0  0  0  0  0  0  0  0
  144.9722  137.8234  150.7016 H   0  0  0  0  0  0  0  0  0  0  0  0
  147.8645  137.5862  151.0981 H   0  0  0  0  0  0  0  0  0  0  0  0
  148.7452  138.8134  152.3569 H   0  0  0  0  0  0  0  0  0  0  0  0
  146.2466  141.1187  153.5068 H   0  0  0  0  0  0  0  0  0  0  0  0
  146.6239  142.7972  155.3059 H   0  0  0  0  0  0  0  0  0  0  0  0
  148.7066  142.6261  156.6907 H   0  0  0  0  0  0  0  0  0  0  0  0
  149.4682  137.5189  155.6451 H   0  0  0  0  0  0  0  0  0  0  0  0
  149.4581  137.2738  153.8936 H   0  0  0  0  0  0  0  0  0  0  0  0
  151.3720  136.0707  155.3725 H   0  0  0  0  0  0  0  0  0  0  0  0
  151.8278  136.8578  153.8571 H   0  0  0  0  0  0  0  0  0  0  0  0
  152.0232  138.0096  156.6592 H   0  0  0  0  0  0  0  0  0  0  0  0
  153.2830  138.0013  155.4246 H   0  0  0  0  0  0  0  0  0  0  0  0
  152.2572  139.7875  154.2513 H   0  0  0  0  0  0  0  0  0  0  0  0
  151.6016  140.1685  155.8455 H   0  0  0  0  0  0  0  0  0  0  0  0
  1  2  3  0  0  0  0
  1 23  1  0  0  0  0
  2  3  1  0  0  0  0
  3  4  1  0  0  0  0
  3 24  1  0  0  0  0
  3 25  1  0  0  0  0
  4  5  1  0  0  0  0
  4 26  1  0  0  0  0
  5  6  2  0  0  0  0
  5  7  1  0  0  0  0
  7  8  1  0  0  0  0
  7 27  1  0  0  0  0
  7 28  1  0  0  0  0
  8  9  1  0  0  0  0
  8 29  1  0  0  0  0
  9 10  2  0  0  0  0
  9 11  1  0  0  0  0
 11 12  1  0  0  0  0
 11 30  1  0  0  0  0
 12 17  1  0  0  0  0
 12 13  2  0  0  0  0
 13 14  1  0  0  0  0
 13 31  1  0  0  0  0
 14 15  2  0  0  0  0
 14 32  1  0  0  0  0
 15 16  1  0  0  0  0
 15 33  1  0  0  0  0
 16 17  2  0  0  0  0
 17 18  1  0  0  0  0
 18 22  1  0  0  0  0
 18 19  1  0  0  0  0
 19 20  1  0  0  0  0
 19 34  1  0  0  0  0
 19 35  1  0  0  0  0
 20 21  1  0  0  0  0
 20 36  1  0  0  0  0
 20 37  1  0  0  0  0
 21 22  1  0  0  0  0
 21 38  1  0  0  0  0
 21 39  1  0  0  0  0
 22 40  1  0  0  0  0
 22 41  1  0  0  0  0
M  END
> <s_m_source_file>
AV-unprocessed.smi

> <i_m_source_file_index>
3001

> <i_lp_mmshare_version>
43012

> <i_f3d_flags>
0

> <s_epik_input>
W0NIXSNDW0NIMl1bTkhdQyg9TylbQ0gyXVtOSF1DKD1PKVtOSF1jMVtjSF1bY0hdW2NIXW5jMU4yW0NIMl1bQ0gyXVtDSDJdW0NIMl0y

> <s_epik_cmdline>
J2VwaWtfcHl0aG9uJywgJy1waCcsICc3LjAnLCAnLXRuJywgJzgnLCAnLW1hJywgJzIwMCcsICctbWV0YWxfYmluZGluZycsICctaW1hZScsICc8aW5maWxlLm1hZT4nLCAnLW9tYWUnLCAnPG91dGZpbGUubWFlPic=

> <r_lp_tautomer_probability>
1

> <r_epik_Ionization_Penalty>
0.243831

> <r_epik_Ionization_Penalty_Charging>
0

> <r_epik_Ionization_Penalty_Neutral>
0.243831

> <r_epik_State_Penalty>
0.234327

> <r_epik_Charging_Adjusted_Penalty>
0.234327

> <i_epik_Tot_Q>
0

> <i_epik_Tot_abs_Q>
0

> <r_epik_Metal_State_Penalty>
0.165313

> <b_epik_Metal_Only>
0

> <s_lp_Force_Field>
OPLS_2005

> <r_lp_Energy>
26.7815

> <b_lp_Chiralities_Consistent>
1

> <s_lp_Variant>
AV-unprocessed.smi:3001-1

> <Gold.Version>
5.8.1

> <Gold.Id.Protein>
6NUR|6NUR_protein|mol2

> <Gold.PLP.Fitness>
39.0500

> <Gold.PLP.PLP>
-32.8084

> <Gold.PLP.part.hbond>
-3.5207

> <Gold.PLP.part.metal>
0.0000

> <Gold.PLP.part.buried>
4.7328

> <Gold.PLP.part.nonpolar>
-40.0132

> <Gold.PLP.part.repulsive>
5.3086

> <Gold.PLP.ligand.clash>
0.0000

> <Gold.PLP.ligand.torsion>
0.8473

> <Gold.PLP.Chemscore.Hbond>
2.0080

> <Gold.PLP.Chemscore.CHOScore>
0.5198

> <Gold.PLP.Chemscore.Metal>
0.0000

> <Gold.Chemscore.Hbonds>
donor molecule, donor type, donor heavy atom, donor atom, acceptor molecule, acceptor atom, score
      L1  H     4    26       P1  7921  1.00
      L1  H     8    29       P1  7948  0.50
      L1  H    11    30       P1  7957  0.46
      L1  C    15    33       P1  8028  0.52

> <Gold.PLP.Chemscore.Internal.Correction>
0.3526

> <Gold.Rescore>
     Score         DG    S(hbond)    S(metal)    S(lipo)     H(rot)  DE(clash)    DE(int)     intcor
     11.62     -17.51       1.89        0.00      88.82       1.82       3.66       2.23       ----

> <Gold.Chemscore.Fitness>
11.6165

> <Gold.Chemscore.DG>
-17.5076

> <Gold.Chemscore.ZeroCoef>
-5.4800

> <Gold.Chemscore.Hbond>
1.8876

> <Gold.Chemscore.Metal>
0.0000

> <Gold.Chemscore.Lipo>
88.8155

> <Gold.Chemscore.Internal_Hbond>
0.0000

> <Gold.Chemscore.DEClash>
3.6638

> <Gold.Chemscore.DEInternal>
2.2274

> <Gold.Chemscore.Rot>
1.8236

> <Gold.Chemscore.Internal.Correction>
   9.000000E+99

> <Gold.Chemscore.Hbonds>
donor molecule, donor type, donor heavy atom, donor atom, acceptor molecule, acceptor atom, score
      L1  H     4    26       P1  7921  0.98
      L1  H     8    29       P1  7948  0.47
      L1  H    11    30       P1  7957  0.44

> <Gold.Chemscore.Hbond.Weighted>
-6.3047

> <Gold.Chemscore.Metal.Weighted>
-0.0000

> <Gold.Chemscore.Lipo.Weighted>
-10.3914

> <Gold.Chemscore.Internal_Hbond.Weighted>
0.0000

> <Gold.Chemscore.DEClash.Weighted>
3.6638

> <Gold.Chemscore.DEInternal.Weighted>
2.2274

> <Gold.Chemscore.Rot.Weighted>
4.6685

> <Gold.Chemscore.Internal.Correction.Weighted>
   9.000000E+99

> <Gold.Protein.RotatedTorsions>
[ 6907 6896 6895 6894 ] final -133.38 input  -60.11 | X-H torsion
[ 7974 7965 7964 7962 ] final -147.28 input  175.53 | X-H torsion
[ 8008 7997 7996 7995 ] final  -69.30 input   59.86 | X-H torsion
[ 10167 10162 10161 10158 ] final -145.95 input  -65.29 | X-H torsion
[ 10718 10713 10712 10709 ] final   90.23 input   66.30 | X-H torsion
[ 10763 10752 10751 10750 ] final  149.85 input  -60.55 | X-H torsion
[ 11005 11000 10999 10996 ] final   48.95 input  -57.11 | X-H torsion

> <Gold.Protein.ActiveResidues>
 VAL166  LYS551  ARG553  GLY616  TRP617  ASP618  TYR619  PRO620  LYS621  CYS622 
 ASP623  PHE694  ASN695  SER759  ASP760  ASP761  ALA762  ILE779  LEU786  VAL792 
 PHE793  MET794  SER795  GLU796  ALA797  LYS798  CYS799  TRP800  GLU811  SER814 

> <Gold.Protein.RotatedAtoms>
  150.9733  133.6321  159.2734 H   0  0  0  0  0  0  0  0  0  0  0  0  # atno 6907 bound_to 6896
  151.3602  135.0901  159.9441 H   0  0  0  0  0  0  0  0  0  0  0  0  # atno 6908 bound_to 6896
  152.5190  133.9308  159.7634 H   0  0  0  0  0  0  0  0  0  0  0  0  # atno 6909 bound_to 6896
  144.8103  140.5347  143.5646 H   0  0  0  0  0  0  0  0  0  0  0  0  # atno 7974 bound_to 7965
  154.4929  140.0856  156.7632 H   0  0  0  0  0  0  0  0  0  0  0  0  # atno 8008 bound_to 7997
  155.4188  140.3445  155.4251 H   0  0  0  0  0  0  0  0  0  0  0  0  # atno 8009 bound_to 7997
  156.1354  140.1513  156.8991 H   0  0  0  0  0  0  0  0  0  0  0  0  # atno 8010 bound_to 7997
  139.7758  143.8172  152.2631 H   0  0  0  0  0  0  0  0  0  0  0  0  # atno 10167 bound_to 10162
  157.6958  131.0363  150.3546 H   0  0  0  0  0  0  0  0  0  0  0  0  # atno 10718 bound_to 10713
  154.0779  135.2861  155.3296 H   0  0  0  0  0  0  0  0  0  0  0  0  # atno 10763 bound_to 10752
  154.6703  135.5302  153.8133 H   0  0  0  0  0  0  0  0  0  0  0  0  # atno 10764 bound_to 10752
  153.0460  135.6556  154.0956 H   0  0  0  0  0  0  0  0  0  0  0  0  # atno 10765 bound_to 10752
  140.1146  134.4910  155.8649 H   0  0  0  0  0  0  0  0  0  0  0  0  # atno 11005 bound_to 11000
  145.5339  139.1475  143.3484 LP  0  0  0  0  0  0  0  0  0  0  0  0  # atno 17320 bound_to 7965
  146.2401  140.5479  142.8938 LP  0  0  0  0  0  0  0  0  0  0  0  0  # atno 17321 bound_to 7965
  139.8220  144.7291  150.9560 LP  0  0  0  0  0  0  0  0  0  0  0  0  # atno 17342 bound_to 10162
  140.7816  143.4150  151.0932 LP  0  0  0  0  0  0  0  0  0  0  0  0  # atno 17343 bound_to 10162
  156.3990  130.3912  149.6974 LP  0  0  0  0  0  0  0  0  0  0  0  0  # atno 17370 bound_to 10713
  156.4298  130.7809  151.2829 LP  0  0  0  0  0  0  0  0  0  0  0  0  # atno 17371 bound_to 10713
  141.2138  133.6739  156.6770 LP  0  0  0  0  0  0  0  0  0  0  0  0  # atno 17394 bound_to 11000
  140.3046  134.8136  157.4126 LP  0  0  0  0  0  0  0  0  0  0  0  0  # atno 17395 bound_to 11000

$$$$
