AV-unprocessed.smi:3310|AV-procd|sdf|12718|dock1
  -GOLD-   2272019 53D 1   1.00000     0.00000
 Structure written by MMmdl.
 45 46  0  0  0  0  0  0  0  0  2 V2000
  145.7369  141.9925  155.0030 C   0  0  0  0  0  0  0  0  0  0  0  0
  147.0064  142.3344  154.2155 C   0  0  0  0  0  0  0  0  0  0  0  0
  148.0817  141.3063  154.3838 C   0  0  0  0  0  0  0  0  0  0  0  0
  149.3379  141.6075  154.7336 N   0  0  0  0  0  0  0  0  0  0  0  0
  150.0163  140.4057  154.7598 N   0  0  0  0  0  0  0  0  0  0  0  0
  149.1044  139.4987  154.4140 C   0  0  0  0  0  0  0  0  0  0  0  0
  147.8807  139.9896  154.1639 N   0  0  0  0  0  0  0  0  0  0  0  0
  146.6870  139.2655  153.7668 C   0  0  0  0  0  0  0  0  0  0  0  0
  146.7427  138.8571  152.2884 C   0  0  0  0  0  0  0  0  0  0  0  0
  145.4698  138.2480  151.8572 N   0  3  0  0  0  0  0  0  0  0  0  0
  144.9708  137.1958  152.7652 C   0  0  0  0  0  0  0  0  0  0  0  0
  145.5744  135.8192  152.4298 C   0  0  2  0  0  0  0  0  0  0  0  0
  145.3560  135.4739  150.9432 C   0  0  0  0  0  0  0  0  0  0  0  0
  145.9348  134.0944  150.5820 C   0  0  0  0  0  0  0  0  0  0  0  0
  145.3799  132.9690  151.4771 C   0  0  2  0  0  0  0  0  0  0  0  0
  143.9226  132.6080  151.1393 C   0  0  0  0  0  0  0  0  0  0  0  0
  145.5728  133.3222  152.9648 C   0  0  0  0  0  0  0  0  0  0  0  0
  144.9930  134.7019  153.3227 C   0  0  0  0  0  0  0  0  0  0  0  0
  144.9704  142.7531  154.8543 H   0  0  0  0  0  0  0  0  0  0  0  0
  145.9411  141.9288  156.0719 H   0  0  0  0  0  0  0  0  0  0  0  0
  145.3223  141.0356  154.6839 H   0  0  0  0  0  0  0  0  0  0  0  0
  146.7660  142.4131  153.1547 H   0  0  0  0  0  0  0  0  0  0  0  0
  147.3818  143.3131  154.5134 H   0  0  0  0  0  0  0  0  0  0  0  0
  149.3365  138.4461  154.3410 H   0  0  0  0  0  0  0  0  0  0  0  0
  146.5710  138.3911  154.4077 H   0  0  0  0  0  0  0  0  0  0  0  0
  145.8226  139.9052  153.9503 H   0  0  0  0  0  0  0  0  0  0  0  0
  146.9467  139.7315  151.6684 H   0  0  0  0  0  0  0  0  0  0  0  0
  147.5550  138.1480  152.1228 H   0  0  0  0  0  0  0  0  0  0  0  0
  144.7692  138.9723  151.7878 H   0  0  0  0  0  0  0  0  0  0  0  0
  145.1975  137.4637  153.7982 H   0  0  0  0  0  0  0  0  0  0  0  0
  143.8841  137.1566  152.6780 H   0  0  0  0  0  0  0  0  0  0  0  0
  146.6510  135.8694  152.6007 H   0  0  0  0  0  0  0  0  0  0  0  0
  144.2912  135.4996  150.7084 H   0  0  0  0  0  0  0  0  0  0  0  0
  145.8225  136.2329  150.3141 H   0  0  0  0  0  0  0  0  0  0  0  0
  145.7404  133.8714  149.5324 H   0  0  0  0  0  0  0  0  0  0  0  0
  147.0202  134.1292  150.6859 H   0  0  0  0  0  0  0  0  0  0  0  0
  145.9702  132.0739  151.2763 H   0  0  0  0  0  0  0  0  0  0  0  0
  143.2422  133.4428  151.3057 H   0  0  0  0  0  0  0  0  0  0  0  0
  143.5758  131.7745  151.7505 H   0  0  0  0  0  0  0  0  0  0  0  0
  143.8263  132.3088  150.0954 H   0  0  0  0  0  0  0  0  0  0  0  0
  145.1246  132.5536  153.5955 H   0  0  0  0  0  0  0  0  0  0  0  0
  146.6388  133.3170  153.1962 H   0  0  0  0  0  0  0  0  0  0  0  0
  145.2022  134.9108  154.3720 H   0  0  0  0  0  0  0  0  0  0  0  0
  143.9068  134.6800  153.2301 H   0  0  0  0  0  0  0  0  0  0  0  0
  145.6051  137.8406  150.9430 H   0  0  0  0  0  0  0  0  0  0  0  0
  1  2  1  0  0  0  0
  1 19  1  0  0  0  0
  1 20  1  0  0  0  0
  1 21  1  0  0  0  0
  2  3  1  0  0  0  0
  2 22  1  0  0  0  0
  2 23  1  0  0  0  0
  3  7  1  0  0  0  0
  3  4  2  0  0  0  0
  4  5  1  0  0  0  0
  5  6  2  0  0  0  0
  6  7  1  0  0  0  0
  6 24  1  0  0  0  0
  7  8  1  0  0  0  0
  8  9  1  0  0  0  0
  8 25  1  0  0  0  0
  8 26  1  0  0  0  0
  9 10  1  0  0  0  0
  9 27  1  0  0  0  0
  9 28  1  0  0  0  0
 10 11  1  0  0  0  0
 10 29  1  0  0  0  0
 10 45  1  0  0  0  0
 11 12  1  0  0  0  0
 11 30  1  0  0  0  0
 11 31  1  0  0  0  0
 12 18  1  0  0  0  0
 12 13  1  0  0  0  0
 12 32  1  0  0  0  0
 13 14  1  0  0  0  0
 13 33  1  0  0  0  0
 13 34  1  0  0  0  0
 14 15  1  0  0  0  0
 14 35  1  0  0  0  0
 14 36  1  0  0  0  0
 15 16  1  0  0  0  0
 15 17  1  0  0  0  0
 15 37  1  0  0  0  0
 16 38  1  0  0  0  0
 16 39  1  0  0  0  0
 16 40  1  0  0  0  0
 17 18  1  0  0  0  0
 17 41  1  0  0  0  0
 17 42  1  0  0  0  0
 18 43  1  0  0  0  0
 18 44  1  0  0  0  0
M  CHG  1  10   1
M  END
> <s_m_source_file>
AV-unprocessed.smi

> <i_m_source_file_index>
3310

> <i_lp_mmshare_version>
43012

> <i_f3d_flags>
0

> <s_epik_input>
W0NIM11bQ0gyXWMxbm5bY0hdbjFbQ0gyXVtDSDJdW05IXVtDSDJdW0NAQEhdMltDSDJdW0NIMl1bQ0BASF0oW0NIM10pW0NIMl1bQ0gyXTI=

> <s_epik_cmdline>
J2VwaWtfcHl0aG9uJywgJy1waCcsICc3LjAnLCAnLXRuJywgJzgnLCAnLW1hJywgJzIwMCcsICctbWV0YWxfYmluZGluZycsICctaW1hZScsICc8aW5maWxlLm1hZT4nLCAnLW9tYWUnLCAnPG91dGZpbGUubWFlPic=

> <r_lp_tautomer_probability>
1

> <r_epik_Ionization_Penalty>
0.00127868

> <r_epik_Ionization_Penalty_Charging>
0.00126792

> <r_epik_Ionization_Penalty_Neutral>
1.07546e-05

> <r_epik_State_Penalty>
-0

> <r_epik_Charging_Adjusted_Penalty>
0.00126792

> <i_epik_Tot_Q>
1

> <i_epik_Tot_abs_Q>
1

> <r_epik_Metal_State_Penalty>
-0

> <b_epik_Metal_Only>
0

> <s_lp_Force_Field>
OPLS_2005

> <r_lp_Energy>
17.5761

> <b_lp_Chiralities_Consistent>
1

> <s_lp_Variant>
AV-unprocessed.smi:3310-2

> <Gold.Version>
5.8.1

> <Gold.Id.Protein>
6NUR|6NUR_protein|mol2

> <Gold.PLP.Fitness>
45.1014

> <Gold.PLP.PLP>
-36.4614

> <Gold.PLP.part.hbond>
-5.0000

> <Gold.PLP.part.metal>
0.0000

> <Gold.PLP.part.buried>
-2.4200

> <Gold.PLP.part.nonpolar>
-29.2457

> <Gold.PLP.part.repulsive>
0.3514

> <Gold.PLP.ligand.clash>
0.0000

> <Gold.PLP.ligand.torsion>
0.4685

> <Gold.PLP.Chemscore.Hbond>
3.1575

> <Gold.PLP.Chemscore.CHOScore>
0.0000

> <Gold.PLP.Chemscore.Metal>
0.0000

> <Gold.Chemscore.Hbonds>
donor molecule, donor type, donor heavy atom, donor atom, acceptor molecule, acceptor atom, score
      L1  H    10    29       P1 10175  2.00
      L1  H    10    45       P1 10171  0.04
      P1  H  7989  7998       L1     5  0.77

> <Gold.PLP.Chemscore.Internal.Correction>
0.1043

> <Gold.Rescore>
     Score         DG    S(hbond)    S(metal)    S(lipo)     H(rot)  DE(clash)    DE(int)     intcor
     12.67     -14.29       1.88        0.00      66.18       2.03       1.15       0.47       ----

> <Gold.Chemscore.Fitness>
12.6738

> <Gold.Chemscore.DG>
-14.2936

> <Gold.Chemscore.ZeroCoef>
-5.4800

> <Gold.Chemscore.Hbond>
1.8762

> <Gold.Chemscore.Metal>
0.0000

> <Gold.Chemscore.Lipo>
66.1757

> <Gold.Chemscore.Internal_Hbond>
0.0000

> <Gold.Chemscore.DEClash>
1.1496

> <Gold.Chemscore.DEInternal>
0.4702

> <Gold.Chemscore.Rot>
2.0295

> <Gold.Chemscore.Internal.Correction>
   9.000000E+99

> <Gold.Chemscore.Hbonds>
donor molecule, donor type, donor heavy atom, donor atom, acceptor molecule, acceptor atom, score
      L1  H    10    29       P1 10175  0.97
      L1  H    10    45       P1 10171  0.05
      P1  H  7989  7998       L1     5  0.16

> <Gold.Chemscore.Hbond.Weighted>
-6.2666

> <Gold.Chemscore.Metal.Weighted>
-0.0000

> <Gold.Chemscore.Lipo.Weighted>
-7.7426

> <Gold.Chemscore.Internal_Hbond.Weighted>
0.0000

> <Gold.Chemscore.DEClash.Weighted>
1.1496

> <Gold.Chemscore.DEInternal.Weighted>
0.4702

> <Gold.Chemscore.Rot.Weighted>
5.1956

> <Gold.Chemscore.Internal.Correction.Weighted>
   9.000000E+99

> <Gold.Protein.RotatedTorsions>
[ 6907 6896 6895 6894 ] final  -31.46 input  -60.11 | X-H torsion
[ 7974 7965 7964 7962 ] final  147.60 input  175.53 | X-H torsion
[ 8008 7997 7996 7995 ] final   86.79 input   59.86 | X-H torsion
[ 10167 10162 10161 10158 ] final  147.93 input  -65.29 | X-H torsion
[ 10718 10713 10712 10709 ] final -113.80 input   66.30 | X-H torsion
[ 10763 10752 10751 10750 ] final   59.17 input  -60.55 | X-H torsion
[ 11005 11000 10999 10996 ] final  143.47 input  -57.11 | X-H torsion

> <Gold.Protein.ActiveResidues>
 VAL166  LYS551  ARG553  GLY616  TRP617  ASP618  TYR619  PRO620  LYS621  CYS622 
 ASP623  PHE694  ASN695  SER759  ASP760  ASP761  ALA762  ILE779  LEU786  VAL792 
 PHE793  MET794  SER795  GLU796  ALA797  LYS798  CYS799  TRP800  GLU811  SER814 

> <Gold.Protein.RotatedAtoms>
  151.0918  134.9921  159.8406 H   0  0  0  0  0  0  0  0  0  0  0  0  # atno 6907 bound_to 6896
  152.5430  134.2056  159.8739 H   0  0  0  0  0  0  0  0  0  0  0  0  # atno 6908 bound_to 6896
  151.2093  133.4521  159.2631 H   0  0  0  0  0  0  0  0  0  0  0  0  # atno 6909 bound_to 6896
  144.8579  139.6049  143.5944 H   0  0  0  0  0  0  0  0  0  0  0  0  # atno 7974 bound_to 7965
  155.9672  140.3388  155.6543 H   0  0  0  0  0  0  0  0  0  0  0  0  # atno 8008 bound_to 7997
  155.6722  140.0728  157.2534 H   0  0  0  0  0  0  0  0  0  0  0  0  # atno 8009 bound_to 7997
  154.4157  140.1689  156.1879 H   0  0  0  0  0  0  0  0  0  0  0  0  # atno 8010 bound_to 7997
  139.4882  144.5718  151.7040 H   0  0  0  0  0  0  0  0  0  0  0  0  # atno 10167 bound_to 10162
  156.0789  130.5992  150.8691 H   0  0  0  0  0  0  0  0  0  0  0  0  # atno 10718 bound_to 10713
  152.9888  135.5581  154.5671 H   0  0  0  0  0  0  0  0  0  0  0  0  # atno 10763 bound_to 10752
  154.5078  135.2800  155.1369 H   0  0  0  0  0  0  0  0  0  0  0  0  # atno 10764 bound_to 10752
  154.2773  135.6351  153.5386 H   0  0  0  0  0  0  0  0  0  0  0  0  # atno 10765 bound_to 10752
  140.0556  134.9232  157.1094 H   0  0  0  0  0  0  0  0  0  0  0  0  # atno 11005 bound_to 11000
  146.2837  139.6946  142.9210 LP  0  0  0  0  0  0  0  0  0  0  0  0  # atno 17320 bound_to 7965
  145.4370  141.0419  143.2878 LP  0  0  0  0  0  0  0  0  0  0  0  0  # atno 17321 bound_to 7965
  140.5307  144.0735  150.6052 LP  0  0  0  0  0  0  0  0  0  0  0  0  # atno 17342 bound_to 10162
  140.3724  143.2847  152.0263 LP  0  0  0  0  0  0  0  0  0  0  0  0  # atno 17343 bound_to 10162
  157.5898  131.0945  150.9138 LP  0  0  0  0  0  0  0  0  0  0  0  0  # atno 17370 bound_to 10713
  156.9316  130.5352  149.5279 LP  0  0  0  0  0  0  0  0  0  0  0  0  # atno 17371 bound_to 10713
  140.3849  134.2247  155.7169 LP  0  0  0  0  0  0  0  0  0  0  0  0  # atno 17394 bound_to 11000
  141.1950  133.8114  157.0732 LP  0  0  0  0  0  0  0  0  0  0  0  0  # atno 17395 bound_to 11000

$$$$
