AV-unprocessed.smi:2678|AV-procd|sdf|10368|dock2
  -GOLD-   2272014393D 1   1.00000     0.00000
 Structure written by MMmdl.
 46 47  0  0  0  0  0  0  0  0  1 V2000
  148.3320  127.2314  153.0091 C   0  0  0  0  0  0  0  0  0  0  0  0
  147.8364  127.4888  151.5800 C   0  0  0  0  0  0  0  0  0  0  0  0
  148.8759  127.0574  150.5332 C   0  0  0  0  0  0  0  0  0  0  0  0
  147.5132  128.9043  151.4263 N   0  0  0  0  0  0  0  0  0  0  0  0
  146.4379  129.5192  151.9445 C   0  0  0  0  0  0  0  0  0  0  0  0
  145.5899  128.9397  152.6241 O   0  0  0  0  0  0  0  0  0  0  0  0
  146.2964  131.0172  151.6435 C   0  0  2  0  0  0  0  0  0  0  0  0
  147.5420  131.8005  152.1084 C   0  0  0  0  0  0  0  0  0  0  0  0
  147.3941  133.3033  151.8214 C   0  0  0  0  0  0  0  0  0  0  0  0
  146.1179  133.8719  152.4621 C   0  0  0  0  0  0  0  0  0  0  0  0
  144.8681  133.0979  152.0044 C   0  0  2  0  0  0  0  0  0  0  0  0
  143.6823  133.6420  152.6703 N   0  0  0  0  0  0  0  0  0  0  0  0
  143.2007  134.8980  152.6238 C   0  0  0  0  0  0  0  0  0  0  0  0
  143.7703  135.7728  151.9751 O   0  0  0  0  0  0  0  0  0  0  0  0
  142.0822  135.0860  153.3514 N   0  0  0  0  0  0  0  0  0  0  0  0
  141.3465  136.2819  153.5654 C   0  0  0  0  0  0  0  0  0  0  0  0
  141.7914  137.5727  153.1910 C   0  0  0  0  0  0  0  0  0  0  0  0
  140.9574  138.6784  153.4465 C   0  0  0  0  0  0  0  0  0  0  0  0
  139.7088  138.4533  154.0583 C   0  0  0  0  0  0  0  0  0  0  0  0
  139.2664  137.2268  154.4071 N   0  0  0  0  0  0  0  0  0  0  0  0
  140.0713  136.1717  154.1591 C   0  0  0  0  0  0  0  0  0  0  0  0
  145.0272  131.5920  152.3057 C   0  0  0  0  0  0  0  0  0  0  0  0
  148.5401  126.1727  153.1660 H   0  0  0  0  0  0  0  0  0  0  0  0
  147.5848  127.5318  153.7445 H   0  0  0  0  0  0  0  0  0  0  0  0
  149.2485  127.7844  153.2187 H   0  0  0  0  0  0  0  0  0  0  0  0
  146.9293  126.8998  151.4328 H   0  0  0  0  0  0  0  0  0  0  0  0
  149.1179  125.9992  150.6359 H   0  0  0  0  0  0  0  0  0  0  0  0
  149.8034  127.6215  150.6381 H   0  0  0  0  0  0  0  0  0  0  0  0
  148.5054  127.2106  149.5192 H   0  0  0  0  0  0  0  0  0  0  0  0
  148.1571  129.4599  150.8820 H   0  0  0  0  0  0  0  0  0  0  0  0
  146.2013  131.1414  150.5630 H   0  0  0  0  0  0  0  0  0  0  0  0
  147.7024  131.6547  153.1780 H   0  0  0  0  0  0  0  0  0  0  0  0
  148.4333  131.4200  151.6079 H   0  0  0  0  0  0  0  0  0  0  0  0
  148.2670  133.8402  152.1939 H   0  0  0  0  0  0  0  0  0  0  0  0
  147.3666  133.4688  150.7438 H   0  0  0  0  0  0  0  0  0  0  0  0
  146.2070  133.8239  153.5486 H   0  0  0  0  0  0  0  0  0  0  0  0
  146.0192  134.9276  152.2065 H   0  0  0  0  0  0  0  0  0  0  0  0
  144.7710  133.2386  150.9264 H   0  0  0  0  0  0  0  0  0  0  0  0
  143.1645  132.9874  153.2390 H   0  0  0  0  0  0  0  0  0  0  0  0
  141.7668  134.2863  153.8806 H   0  0  0  0  0  0  0  0  0  0  0  0
  142.7403  137.7361  152.7048 H   0  0  0  0  0  0  0  0  0  0  0  0
  141.2668  139.6769  153.1757 H   0  0  0  0  0  0  0  0  0  0  0  0
  139.0452  139.2792  154.2678 H   0  0  0  0  0  0  0  0  0  0  0  0
  139.6844  135.2056  154.4495 H   0  0  0  0  0  0  0  0  0  0  0  0
  144.1521  131.0433  151.9546 H   0  0  0  0  0  0  0  0  0  0  0  0
  145.0682  131.4408  153.3860 H   0  0  0  0  0  0  0  0  0  0  0  0
  1  2  1  0  0  0  0
  1 23  1  0  0  0  0
  1 24  1  0  0  0  0
  1 25  1  0  0  0  0
  2  3  1  0  0  0  0
  2  4  1  0  0  0  0
  2 26  1  0  0  0  0
  3 27  1  0  0  0  0
  3 28  1  0  0  0  0
  3 29  1  0  0  0  0
  4  5  1  0  0  0  0
  4 30  1  0  0  0  0
  5  6  2  0  0  0  0
  5  7  1  0  0  0  0
  7 22  1  0  0  0  0
  7  8  1  0  0  0  0
  7 31  1  0  0  0  0
  8  9  1  0  0  0  0
  8 32  1  0  0  0  0
  8 33  1  0  0  0  0
  9 10  1  0  0  0  0
  9 34  1  0  0  0  0
  9 35  1  0  0  0  0
 10 11  1  0  0  0  0
 10 36  1  0  0  0  0
 10 37  1  0  0  0  0
 11 12  1  0  0  0  0
 11 22  1  0  0  0  0
 11 38  1  0  0  0  0
 12 13  1  0  0  0  0
 12 39  1  0  0  0  0
 13 14  2  0  0  0  0
 13 15  1  0  0  0  0
 15 16  1  0  0  0  0
 15 40  1  0  0  0  0
 16 21  1  0  0  0  0
 16 17  2  0  0  0  0
 17 18  1  0  0  0  0
 17 41  1  0  0  0  0
 18 19  2  0  0  0  0
 18 42  1  0  0  0  0
 19 20  1  0  0  0  0
 19 43  1  0  0  0  0
 20 21  2  0  0  0  0
 21 44  1  0  0  0  0
 22 45  1  0  0  0  0
 22 46  1  0  0  0  0
M  END
> <s_m_source_file>
AV-unprocessed.smi

> <i_m_source_file_index>
2678

> <i_lp_mmshare_version>
43012

> <i_f3d_flags>
0

> <s_epik_input>
W0NIM11bQ0hdKFtDSDNdKVtOSF1DKD1PKVtDQEBIXTFbQ0gyXVtDSDJdW0NIMl1bQ0BIXShbQ0gyXTEpW05IXUMoPU8pW05IXWMyW2NIXVtjSF1bY0hdbltjSF0y

> <s_epik_cmdline>
J2VwaWtfcHl0aG9uJywgJy1waCcsICc3LjAnLCAnLXRuJywgJzgnLCAnLW1hJywgJzIwMCcsICctbWV0YWxfYmluZGluZycsICctaW1hZScsICc8aW5maWxlLm1hZT4nLCAnLW9tYWUnLCAnPG91dGZpbGUubWFlPic=

> <r_epik_Ionization_Penalty>
0.00482944

> <r_epik_Ionization_Penalty_Charging>
0

> <r_epik_Ionization_Penalty_Neutral>
0.00482944

> <r_epik_State_Penalty>
0.00347168

> <r_epik_Charging_Adjusted_Penalty>
0.00347168

> <i_epik_Tot_Q>
0

> <i_epik_Tot_abs_Q>
0

> <r_epik_Metal_State_Penalty>
-0

> <b_epik_Metal_Only>
0

> <s_lp_Force_Field>
OPLS_2005

> <r_lp_Energy>
22.9796

> <b_lp_Chiralities_Consistent>
1

> <s_lp_Variant>
AV-unprocessed.smi:2678-3

> <Gold.Version>
5.8.1

> <Gold.Id.Protein>
6NUR|6NUR_protein|mol2

> <Gold.PLP.Fitness>
42.3743

> <Gold.PLP.PLP>
-34.3130

> <Gold.PLP.part.hbond>
-2.0000

> <Gold.PLP.part.metal>
0.0000

> <Gold.PLP.part.buried>
-0.3114

> <Gold.PLP.part.nonpolar>
-32.6079

> <Gold.PLP.part.repulsive>
0.4881

> <Gold.PLP.ligand.clash>
0.0000

> <Gold.PLP.ligand.torsion>
0.2329

> <Gold.PLP.Chemscore.Hbond>
2.0000

> <Gold.PLP.Chemscore.CHOScore>
0.8364

> <Gold.PLP.Chemscore.Metal>
0.0000

> <Gold.Chemscore.Hbonds>
donor molecule, donor type, donor heavy atom, donor atom, acceptor molecule, acceptor atom, score
      L1  H     4    30       P1 10747  1.00
      L1  H    12    39       P1 10957  1.00
      L1  C    21    44       P1 11000  0.84

> <Gold.PLP.Chemscore.Internal.Correction>
0.0181

> <Gold.Rescore>
     Score         DG    S(hbond)    S(metal)    S(lipo)     H(rot)  DE(clash)    DE(int)     intcor
     14.02     -17.81       1.54        0.00      93.46       1.46       2.21       1.58       ----

> <Gold.Chemscore.Fitness>
14.0221

> <Gold.Chemscore.DG>
-17.8133

> <Gold.Chemscore.ZeroCoef>
-5.4800

> <Gold.Chemscore.Hbond>
1.5380

> <Gold.Chemscore.Metal>
0.0000

> <Gold.Chemscore.Lipo>
93.4588

> <Gold.Chemscore.Internal_Hbond>
0.0000

> <Gold.Chemscore.DEClash>
2.2128

> <Gold.Chemscore.DEInternal>
1.5784

> <Gold.Chemscore.Rot>
1.4603

> <Gold.Chemscore.Internal.Correction>
   9.000000E+99

> <Gold.Chemscore.Hbonds>
donor molecule, donor type, donor heavy atom, donor atom, acceptor molecule, acceptor atom, score
      L1  H     4    30       P1 10747  0.45
      L1  H    12    39       P1 10957  0.66

> <Gold.Chemscore.Hbond.Weighted>
-5.1369

> <Gold.Chemscore.Metal.Weighted>
-0.0000

> <Gold.Chemscore.Lipo.Weighted>
-10.9347

> <Gold.Chemscore.Internal_Hbond.Weighted>
0.0000

> <Gold.Chemscore.DEClash.Weighted>
2.2128

> <Gold.Chemscore.DEInternal.Weighted>
1.5784

> <Gold.Chemscore.Rot.Weighted>
3.7383

> <Gold.Chemscore.Internal.Correction.Weighted>
   9.000000E+99

> <Gold.Protein.RotatedTorsions>
[ 6907 6896 6895 6894 ] final  130.62 input  -60.11 | X-H torsion
[ 7974 7965 7964 7962 ] final  175.14 input  175.53 | X-H torsion
[ 8008 7997 7996 7995 ] final  102.87 input   59.86 | X-H torsion
[ 10167 10162 10161 10158 ] final  -24.95 input  -65.29 | X-H torsion
[ 10718 10713 10712 10709 ] final   98.18 input   66.30 | X-H torsion
[ 10763 10752 10751 10750 ] final  -30.03 input  -60.55 | X-H torsion
[ 11005 11000 10999 10996 ] final  -91.02 input  -57.11 | X-H torsion

> <Gold.Protein.ActiveResidues>
 VAL166  LYS551  ARG553  GLY616  TRP617  ASP618  TYR619  PRO620  LYS621  CYS622 
 ASP623  PHE694  ASN695  SER759  ASP760  ASP761  ALA762  ILE779  LEU786  VAL792 
 PHE793  MET794  SER795  GLU796  ALA797  LYS798  CYS799  TRP800  GLU811  SER814 

> <Gold.Protein.RotatedAtoms>
  152.3508  133.6177  159.5943 H   0  0  0  0  0  0  0  0  0  0  0  0  # atno 6907 bound_to 6896
  150.7537  133.9577  159.3514 H   0  0  0  0  0  0  0  0  0  0  0  0  # atno 6908 bound_to 6896
  151.7429  135.0851  160.0369 H   0  0  0  0  0  0  0  0  0  0  0  0  # atno 6909 bound_to 6896
  144.7207  139.9902  143.6440 H   0  0  0  0  0  0  0  0  0  0  0  0  # atno 7974 bound_to 7965
  156.1432  140.3174  155.8529 H   0  0  0  0  0  0  0  0  0  0  0  0  # atno 8008 bound_to 7997
  155.4114  140.0506  157.3048 H   0  0  0  0  0  0  0  0  0  0  0  0  # atno 8009 bound_to 7997
  154.4994  140.2123  155.9390 H   0  0  0  0  0  0  0  0  0  0  0  0  # atno 8010 bound_to 7997
  140.7287  143.4308  151.0805 H   0  0  0  0  0  0  0  0  0  0  0  0  # atno 10167 bound_to 10162
  157.6900  131.0632  150.4757 H   0  0  0  0  0  0  0  0  0  0  0  0  # atno 10718 bound_to 10713
  153.7743  135.6910  153.4900 H   0  0  0  0  0  0  0  0  0  0  0  0  # atno 10763 bound_to 10752
  153.1853  135.4491  155.0079 H   0  0  0  0  0  0  0  0  0  0  0  0  # atno 10764 bound_to 10752
  154.8106  135.3376  154.7251 H   0  0  0  0  0  0  0  0  0  0  0  0  # atno 10765 bound_to 10752
  141.1554  133.7729  156.9820 H   0  0  0  0  0  0  0  0  0  0  0  0  # atno 11005 bound_to 11000
  146.0417  139.3428  143.0693 LP  0  0  0  0  0  0  0  0  0  0  0  0  # atno 17320 bound_to 7965
  145.8326  140.9623  143.0841 LP  0  0  0  0  0  0  0  0  0  0  0  0  # atno 17321 bound_to 7965
  139.7965  143.8145  152.3158 LP  0  0  0  0  0  0  0  0  0  0  0  0  # atno 17342 bound_to 10162
  139.8146  144.7321  150.9651 LP  0  0  0  0  0  0  0  0  0  0  0  0  # atno 17343 bound_to 10162
  156.5092  130.4135  149.6310 LP  0  0  0  0  0  0  0  0  0  0  0  0  # atno 17370 bound_to 10713
  156.3256  130.7304  151.2224 LP  0  0  0  0  0  0  0  0  0  0  0  0  # atno 17371 bound_to 10713
  140.1059  134.9506  157.1994 LP  0  0  0  0  0  0  0  0  0  0  0  0  # atno 17394 bound_to 11000
  140.3256  134.2867  155.7237 LP  0  0  0  0  0  0  0  0  0  0  0  0  # atno 17395 bound_to 11000

$$$$
