AV-unprocessed.smi:2217|AV-procd|sdf|8972|dock6
  -GOLD-   2272012183D 1   1.00000     0.00000
 Structure written by MMmdl.
 45 48  0  0  0  0  0  0  0  0  1 V2000
  143.7928  144.1103  162.9220 C   0  0  0  0  0  0  0  0  0  0  0  0
  144.7023  143.8002  161.7518 C   0  0  0  0  0  0  0  0  0  0  0  0
  145.4949  144.8003  161.1581 C   0  0  0  0  0  0  0  0  0  0  0  0
  146.3260  144.4535  160.0756 C   0  0  0  0  0  0  0  0  0  0  0  0
  146.3463  143.1201  159.6073 C   0  0  0  0  0  0  0  0  0  0  0  0
  147.2335  142.8917  158.5142 N   0  0  0  0  0  0  0  0  0  0  0  0
  147.7074  141.7499  157.9707 C   0  0  0  0  0  0  0  0  0  0  0  0
  147.3823  140.6513  158.4178 O   0  0  0  0  0  0  0  0  0  0  0  0
  148.5417  141.8895  156.9288 N   0  0  0  0  0  0  0  0  0  0  0  0
  149.1336  140.7870  156.1808 C   0  0  2  0  0  0  0  0  0  0  0  0
  150.4846  141.1662  155.5537 C   0  0  1  0  0  0  0  0  0  0  0  0
  151.7424  140.4873  156.0222 C   0  0  0  0  0  0  0  0  0  0  0  0
  151.9172  139.3553  155.0061 C   0  0  0  0  0  0  0  0  0  0  0  0
  150.6144  139.1550  154.4619 O   0  0  0  0  0  0  0  0  0  0  0  0
  150.0137  140.4383  154.3033 C   0  0  1  0  0  0  0  0  0  0  0  0
  148.5474  140.5851  154.7634 C   0  0  0  0  0  0  0  0  0  0  0  0
  147.7636  141.7207  154.0986 C   0  0  0  0  0  0  0  0  0  0  0  0
  147.1039  141.1207  152.8569 C   0  0  0  0  0  0  0  0  0  0  0  0
  146.9084  139.6366  153.1802 C   0  0  0  0  0  0  0  0  0  0  0  0
  147.6137  139.4015  154.5211 C   0  0  0  0  0  0  0  0  0  0  0  0
  145.5783  142.1642  160.1901 N   0  0  0  0  0  0  0  0  0  0  0  0
  144.7823  142.4958  161.2283 C   0  0  0  0  0  0  0  0  0  0  0  0
  143.7165  145.1851  163.0894 H   0  0  0  0  0  0  0  0  0  0  0  0
  144.1787  143.6482  163.8308 H   0  0  0  0  0  0  0  0  0  0  0  0
  142.7903  143.7230  162.7375 H   0  0  0  0  0  0  0  0  0  0  0  0
  145.4712  145.8166  161.5233 H   0  0  0  0  0  0  0  0  0  0  0  0
  146.9424  145.2101  159.6116 H   0  0  0  0  0  0  0  0  0  0  0  0
  147.6050  143.7338  158.0993 H   0  0  0  0  0  0  0  0  0  0  0  0
  148.7625  142.8265  156.6215 H   0  0  0  0  0  0  0  0  0  0  0  0
  149.1926  139.8493  156.7382 H   0  0  0  0  0  0  0  0  0  0  0  0
  150.5814  142.2396  155.3790 H   0  0  0  0  0  0  0  0  0  0  0  0
  152.6031  141.1566  156.0301 H   0  0  0  0  0  0  0  0  0  0  0  0
  151.6174  140.0886  157.0295 H   0  0  0  0  0  0  0  0  0  0  0  0
  152.5933  139.6600  154.2060 H   0  0  0  0  0  0  0  0  0  0  0  0
  152.3094  138.4429  155.4554 H   0  0  0  0  0  0  0  0  0  0  0  0
  150.2807  140.9349  153.3694 H   0  0  0  0  0  0  0  0  0  0  0  0
  146.9816  142.0888  154.7635 H   0  0  0  0  0  0  0  0  0  0  0  0
  148.3926  142.5747  153.8451 H   0  0  0  0  0  0  0  0  0  0  0  0
  146.1667  141.6204  152.6099 H   0  0  0  0  0  0  0  0  0  0  0  0
  147.7689  141.2238  151.9985 H   0  0  0  0  0  0  0  0  0  0  0  0
  145.8518  139.3749  153.2462 H   0  0  0  0  0  0  0  0  0  0  0  0
  147.3514  139.0202  152.3972 H   0  0  0  0  0  0  0  0  0  0  0  0
  148.1364  138.4450  154.5295 H   0  0  0  0  0  0  0  0  0  0  0  0
  146.8690  139.3534  155.3165 H   0  0  0  0  0  0  0  0  0  0  0  0
  144.1944  141.6954  161.6531 H   0  0  0  0  0  0  0  0  0  0  0  0
  1  2  1  0  0  0  0
  1 23  1  0  0  0  0
  1 24  1  0  0  0  0
  1 25  1  0  0  0  0
  2 22  1  0  0  0  0
  2  3  2  0  0  0  0
  3  4  1  0  0  0  0
  3 26  1  0  0  0  0
  4  5  2  0  0  0  0
  4 27  1  0  0  0  0
  5  6  1  0  0  0  0
  5 21  1  0  0  0  0
  6  7  1  0  0  0  0
  6 28  1  0  0  0  0
  7  8  2  0  0  0  0
  7  9  1  0  0  0  0
  9 10  1  0  0  0  0
  9 29  1  0  0  0  0
 10 16  1  0  0  0  0
 10 11  1  0  0  0  0
 10 30  1  0  0  0  0
 11 15  1  0  0  0  0
 11 12  1  0  0  0  0
 11 31  1  0  0  0  0
 12 13  1  0  0  0  0
 12 32  1  0  0  0  0
 12 33  1  0  0  0  0
 13 14  1  0  0  0  0
 13 34  1  0  0  0  0
 13 35  1  0  0  0  0
 14 15  1  0  0  0  0
 15 16  1  0  0  0  0
 15 36  1  0  0  0  0
 16 20  1  0  0  0  0
 16 17  1  0  0  0  0
 17 18  1  0  0  0  0
 17 37  1  0  0  0  0
 17 38  1  0  0  0  0
 18 19  1  0  0  0  0
 18 39  1  0  0  0  0
 18 40  1  0  0  0  0
 19 20  1  0  0  0  0
 19 41  1  0  0  0  0
 19 42  1  0  0  0  0
 20 43  1  0  0  0  0
 20 44  1  0  0  0  0
 21 22  2  0  0  0  0
 22 45  1  0  0  0  0
M  END
> <s_m_source_file>
AV-unprocessed.smi

> <i_m_source_file_index>
2217

> <i_lp_mmshare_version>
43012

> <i_f3d_flags>
0

> <s_epik_input>
W0NIM11jMVtjSF1bY0hdYyhuW2NIXTEpW05IXUMoPU8pW05IXVtDQEBIXTJbQ0BASF0oW0NIMl1bQ0gyXU8zKVtDQEhdM0MyNFtDSDJdW0NIMl1bQ0gyXVtDSDJdNA==

> <s_epik_cmdline>
J2VwaWtfcHl0aG9uJywgJy1waCcsICc3LjAnLCAnLXRuJywgJzgnLCAnLW1hJywgJzIwMCcsICctbWV0YWxfYmluZGluZycsICctaW1hZScsICc8aW5maWxlLm1hZT4nLCAnLW9tYWUnLCAnPG91dGZpbGUubWFlPic=

> <r_lp_tautomer_probability>
1

> <r_epik_Ionization_Penalty>
6.14796e-05

> <r_epik_Ionization_Penalty_Charging>
0

> <r_epik_Ionization_Penalty_Neutral>
6.14796e-05

> <r_epik_State_Penalty>
-0

> <r_epik_Charging_Adjusted_Penalty>
0

> <i_epik_Tot_Q>
0

> <i_epik_Tot_abs_Q>
0

> <r_epik_Metal_State_Penalty>
-0

> <b_epik_Metal_Only>
0

> <s_lp_Force_Field>
OPLS_2005

> <r_lp_Energy>
58.5561

> <b_lp_Chiralities_Consistent>
1

> <s_lp_Variant>
AV-unprocessed.smi:2217-5

> <Gold.Version>
5.8.1

> <Gold.Id.Protein>
6NUR|6NUR_protein|mol2

> <Gold.PLP.Fitness>
39.8333

> <Gold.PLP.PLP>
-34.4436

> <Gold.PLP.part.hbond>
-3.1563

> <Gold.PLP.part.metal>
0.0000

> <Gold.PLP.part.buried>
3.1125

> <Gold.PLP.part.nonpolar>
-33.3974

> <Gold.PLP.part.repulsive>
0.2921

> <Gold.PLP.ligand.clash>
0.0000

> <Gold.PLP.ligand.torsion>
0.2951

> <Gold.PLP.Chemscore.Hbond>
1.9319

> <Gold.PLP.Chemscore.CHOScore>
0.0000

> <Gold.PLP.Chemscore.Metal>
0.0000

> <Gold.Chemscore.Hbonds>
donor molecule, donor type, donor heavy atom, donor atom, acceptor molecule, acceptor atom, score
      L1  H     6    28       P1  8029  0.14
      L1  H     9    29       P1  8028  0.78
      P1  H  6934  6946       L1    21  1.00

> <Gold.PLP.Chemscore.Internal.Correction>
0.1842

> <Gold.Rescore>
     Score         DG    S(hbond)    S(metal)    S(lipo)     H(rot)  DE(clash)    DE(int)     intcor
     15.82     -19.76       1.50        0.00     101.11       1.00       2.49       1.44       ----

> <Gold.Chemscore.Fitness>
15.8219

> <Gold.Chemscore.DG>
-19.7562

> <Gold.Chemscore.ZeroCoef>
-5.4800

> <Gold.Chemscore.Hbond>
1.4989

> <Gold.Chemscore.Metal>
0.0000

> <Gold.Chemscore.Lipo>
101.1100

> <Gold.Chemscore.Internal_Hbond>
0.0000

> <Gold.Chemscore.DEClash>
2.4940

> <Gold.Chemscore.DEInternal>
1.4403

> <Gold.Chemscore.Rot>
1.0000

> <Gold.Chemscore.Internal.Correction>
   9.000000E+99

> <Gold.Chemscore.Hbonds>
donor molecule, donor type, donor heavy atom, donor atom, acceptor molecule, acceptor atom, score
      L1  H     6    28       P1  8029  0.03
      L1  H     9    29       P1  8028  0.72
      P1  H  6934  6946       L1    21  0.27

> <Gold.Chemscore.Hbond.Weighted>
-5.0064

> <Gold.Chemscore.Metal.Weighted>
-0.0000

> <Gold.Chemscore.Lipo.Weighted>
-11.8299

> <Gold.Chemscore.Internal_Hbond.Weighted>
0.0000

> <Gold.Chemscore.DEClash.Weighted>
2.4940

> <Gold.Chemscore.DEInternal.Weighted>
1.4403

> <Gold.Chemscore.Rot.Weighted>
2.5600

> <Gold.Chemscore.Internal.Correction.Weighted>
   9.000000E+99

> <Gold.Protein.RotatedTorsions>
[ 6907 6896 6895 6894 ] final   -0.66 input  -60.11 | X-H torsion
[ 7974 7965 7964 7962 ] final  -42.60 input  175.53 | X-H torsion
[ 8008 7997 7996 7995 ] final   70.37 input   59.86 | X-H torsion
[ 10167 10162 10161 10158 ] final  -13.02 input  -65.29 | X-H torsion
[ 10718 10713 10712 10709 ] final  142.44 input   66.30 | X-H torsion
[ 10763 10752 10751 10750 ] final  131.79 input  -60.55 | X-H torsion
[ 11005 11000 10999 10996 ] final   -0.82 input  -57.11 | X-H torsion

> <Gold.Protein.ActiveResidues>
 VAL166  LYS551  ARG553  GLY616  TRP617  ASP618  TYR619  PRO620  LYS621  CYS622 
 ASP623  PHE694  ASN695  SER759  ASP760  ASP761  ALA762  ILE779  LEU786  VAL792 
 PHE793  MET794  SER795  GLU796  ALA797  LYS798  CYS799  TRP800  GLU811  SER814 

> <Gold.Protein.RotatedAtoms>
  151.5587  135.1066  159.9967 H   0  0  0  0  0  0  0  0  0  0  0  0  # atno 6907 bound_to 6896
  152.4457  133.7527  159.6714 H   0  0  0  0  0  0  0  0  0  0  0  0  # atno 6908 bound_to 6896
  150.8372  133.7926  159.3099 H   0  0  0  0  0  0  0  0  0  0  0  0  # atno 6909 bound_to 6896
  146.0100  140.6975  142.9229 H   0  0  0  0  0  0  0  0  0  0  0  0  # atno 7974 bound_to 7965
  155.7378  140.3491  155.5090 H   0  0  0  0  0  0  0  0  0  0  0  0  # atno 8008 bound_to 7997
  155.9122  140.1052  157.1292 H   0  0  0  0  0  0  0  0  0  0  0  0  # atno 8009 bound_to 7997
  154.4057  140.1265  156.4559 H   0  0  0  0  0  0  0  0  0  0  0  0  # atno 8010 bound_to 7997
  140.7173  143.5471  150.9343 H   0  0  0  0  0  0  0  0  0  0  0  0  # atno 10167 bound_to 10162
  157.3805  131.0991  151.0743 H   0  0  0  0  0  0  0  0  0  0  0  0  # atno 10718 bound_to 10713
  153.7802  135.3169  155.3364 H   0  0  0  0  0  0  0  0  0  0  0  0  # atno 10763 bound_to 10752
  154.8164  135.4633  154.0659 H   0  0  0  0  0  0  0  0  0  0  0  0  # atno 10764 bound_to 10752
  153.1945  135.6913  153.8395 H   0  0  0  0  0  0  0  0  0  0  0  0  # atno 10765 bound_to 10752
  140.6405  133.9493  155.8324 H   0  0  0  0  0  0  0  0  0  0  0  0  # atno 11005 bound_to 11000
  144.6949  140.3382  143.7204 LP  0  0  0  0  0  0  0  0  0  0  0  0  # atno 17320 bound_to 7965
  145.7357  139.1749  143.2405 LP  0  0  0  0  0  0  0  0  0  0  0  0  # atno 17321 bound_to 7965
  139.9194  143.6624  152.3100 LP  0  0  0  0  0  0  0  0  0  0  0  0  # atno 17342 bound_to 10162
  139.7035  144.7631  151.1232 LP  0  0  0  0  0  0  0  0  0  0  0  0  # atno 17343 bound_to 10162
  157.1813  130.6311  149.5673 LP  0  0  0  0  0  0  0  0  0  0  0  0  # atno 17370 bound_to 10713
  155.9775  130.4752  150.6596 LP  0  0  0  0  0  0  0  0  0  0  0  0  # atno 17371 bound_to 10713
  141.0610  134.0346  157.3658 LP  0  0  0  0  0  0  0  0  0  0  0  0  # atno 17394 bound_to 11000
  139.9082  135.0184  156.7577 LP  0  0  0  0  0  0  0  0  0  0  0  0  # atno 17395 bound_to 11000

$$$$
