AV-unprocessed.smi:2327|AV-procd|sdf|9298|dock4
  -GOLD-   2272012523D 1   1.00000     0.00000
 Structure written by MMmdl.
 40 41  0  0  0  0  0  0  0  0  1 V2000
  147.9798  132.3251  153.4155 C   0  0  0  0  0  0  0  0  0  0  0  0
  147.0468  133.2285  152.6720 C   0  0  0  0  0  0  0  0  0  0  0  0
  146.7258  133.1674  151.3390 C   0  0  0  0  0  0  0  0  0  0  0  0
  145.6004  134.4166  150.8842 S   0  0  0  0  0  0  0  0  0  0  0  0
  145.6090  134.9897  152.5490 C   0  0  0  0  0  0  0  0  0  0  0  0
  144.7761  136.1433  153.0229 C   0  0  2  0  0  0  0  0  0  0  0  0
  143.2784  135.9232  152.7678 C   0  0  0  0  0  0  0  0  0  0  0  0
  145.2847  137.5048  152.5031 C   0  0  0  0  0  0  0  0  0  0  0  0
  146.7259  137.6492  152.6766 N   0  0  0  0  0  0  0  0  0  0  0  0
  147.3254  138.2545  153.7144 C   0  0  0  0  0  0  0  0  0  0  0  0
  146.7154  138.8789  154.5802 O   0  0  0  0  0  0  0  0  0  0  0  0
  148.6645  138.1330  153.7333 N   0  0  0  0  0  0  0  0  0  0  0  0
  149.6015  138.6725  154.7212 C   0  0  0  0  0  0  0  0  0  0  0  0
  149.4448  140.1981  154.8040 C   0  0  0  0  0  0  0  0  0  0  0  0
  150.5121  140.8041  155.7293 C   0  0  0  0  0  0  0  0  0  0  0  0
  151.8118  140.4432  155.2739 O   0  0  0  0  0  0  0  0  0  0  0  0
  152.0372  139.0376  155.2970 C   0  0  0  0  0  0  0  0  0  0  0  0
  151.0546  138.3295  154.3503 C   0  0  0  0  0  0  0  0  0  0  0  0
  146.3988  134.2657  153.3485 N   0  0  0  0  0  0  0  0  0  0  0  0
  148.4803  131.6280  152.7431 H   0  0  0  0  0  0  0  0  0  0  0  0
  147.4463  131.7374  154.1627 H   0  0  0  0  0  0  0  0  0  0  0  0
  148.7526  132.8951  153.9318 H   0  0  0  0  0  0  0  0  0  0  0  0
  147.0826  132.4667  150.5988 H   0  0  0  0  0  0  0  0  0  0  0  0
  144.8916  136.1678  154.1076 H   0  0  0  0  0  0  0  0  0  0  0  0
  142.9320  135.0015  153.2361 H   0  0  0  0  0  0  0  0  0  0  0  0
  143.0631  135.8570  151.7008 H   0  0  0  0  0  0  0  0  0  0  0  0
  142.6870  136.7433  153.1757 H   0  0  0  0  0  0  0  0  0  0  0  0
  145.0777  137.5890  151.4359 H   0  0  0  0  0  0  0  0  0  0  0  0
  144.7547  138.3271  152.9865 H   0  0  0  0  0  0  0  0  0  0  0  0
  147.3122  137.1816  152.0006 H   0  0  0  0  0  0  0  0  0  0  0  0
  149.0858  137.7028  152.9224 H   0  0  0  0  0  0  0  0  0  0  0  0
  149.3766  138.2641  155.7086 H   0  0  0  0  0  0  0  0  0  0  0  0
  149.5424  140.6374  153.8101 H   0  0  0  0  0  0  0  0  0  0  0  0
  148.4482  140.4566  155.1642 H   0  0  0  0  0  0  0  0  0  0  0  0
  150.4299  141.8911  155.7334 H   0  0  0  0  0  0  0  0  0  0  0  0
  150.3696  140.4708  156.7586 H   0  0  0  0  0  0  0  0  0  0  0  0
  153.0633  138.8410  154.9859 H   0  0  0  0  0  0  0  0  0  0  0  0
  151.9359  138.6593  156.3155 H   0  0  0  0  0  0  0  0  0  0  0  0
  151.2172  137.2519  154.3876 H   0  0  0  0  0  0  0  0  0  0  0  0
  151.2583  138.6399  153.3245 H   0  0  0  0  0  0  0  0  0  0  0  0
  1  2  1  0  0  0  0
  1 20  1  0  0  0  0
  1 21  1  0  0  0  0
  1 22  1  0  0  0  0
  2 19  1  0  0  0  0
  2  3  2  0  0  0  0
  3  4  1  0  0  0  0
  3 23  1  0  0  0  0
  4  5  1  0  0  0  0
  5  6  1  0  0  0  0
  5 19  2  0  0  0  0
  6  7  1  0  0  0  0
  6  8  1  0  0  0  0
  6 24  1  0  0  0  0
  7 25  1  0  0  0  0
  7 26  1  0  0  0  0
  7 27  1  0  0  0  0
  8  9  1  0  0  0  0
  8 28  1  0  0  0  0
  8 29  1  0  0  0  0
  9 10  1  0  0  0  0
  9 30  1  0  0  0  0
 10 11  2  0  0  0  0
 10 12  1  0  0  0  0
 12 13  1  0  0  0  0
 12 31  1  0  0  0  0
 13 18  1  0  0  0  0
 13 14  1  0  0  0  0
 13 32  1  0  0  0  0
 14 15  1  0  0  0  0
 14 33  1  0  0  0  0
 14 34  1  0  0  0  0
 15 16  1  0  0  0  0
 15 35  1  0  0  0  0
 15 36  1  0  0  0  0
 16 17  1  0  0  0  0
 17 18  1  0  0  0  0
 17 37  1  0  0  0  0
 17 38  1  0  0  0  0
 18 39  1  0  0  0  0
 18 40  1  0  0  0  0
M  END
> <s_m_source_file>
AV-unprocessed.smi

> <i_m_source_file_index>
2327

> <i_lp_mmshare_version>
43012

> <i_f3d_flags>
0

> <s_epik_input>
W0NIM11jMVtjSF1zYyhuMSlbQ0BIXShbQ0gzXSlbQ0gyXVtOSF1DKD1PKVtOSF1bQ0hdMltDSDJdW0NIMl1PW0NIMl1bQ0gyXTI=

> <s_epik_cmdline>
J2VwaWtfcHl0aG9uJywgJy1waCcsICc3LjAnLCAnLXRuJywgJzgnLCAnLW1hJywgJzIwMCcsICctbWV0YWxfYmluZGluZycsICctaW1hZScsICc8aW5maWxlLm1hZT4nLCAnLW9tYWUnLCAnPG91dGZpbGUubWFlPic=

> <r_epik_Ionization_Penalty>
0.0015425

> <r_epik_Ionization_Penalty_Charging>
0

> <r_epik_Ionization_Penalty_Neutral>
0.0015425

> <r_epik_State_Penalty>
0.000998134

> <r_epik_Charging_Adjusted_Penalty>
0.000998134

> <i_epik_Tot_Q>
0

> <i_epik_Tot_abs_Q>
0

> <r_epik_Metal_State_Penalty>
-0

> <b_epik_Metal_Only>
0

> <s_lp_Force_Field>
OPLS_2005

> <r_lp_Energy>
7.05585

> <b_lp_Chiralities_Consistent>
1

> <s_lp_Variant>
AV-unprocessed.smi:2327-1

> <Gold.Version>
5.8.1

> <Gold.Id.Protein>
6NUR|6NUR_protein|mol2

> <Gold.PLP.Fitness>
41.3914

> <Gold.PLP.PLP>
-31.6572

> <Gold.PLP.part.hbond>
-3.1020

> <Gold.PLP.part.metal>
0.0000

> <Gold.PLP.part.buried>
-3.0829

> <Gold.PLP.part.nonpolar>
-26.3971

> <Gold.PLP.part.repulsive>
0.2777

> <Gold.PLP.ligand.clash>
0.0000

> <Gold.PLP.ligand.torsion>
0.3279

> <Gold.PLP.Chemscore.Hbond>
2.4160

> <Gold.PLP.Chemscore.CHOScore>
1.0000

> <Gold.PLP.Chemscore.Metal>
0.0000

> <Gold.Chemscore.Hbonds>
donor molecule, donor type, donor heavy atom, donor atom, acceptor molecule, acceptor atom, score
      L1  H     9    30       P1  7948  0.85
      L1  H    12    31       P1  7948  0.86
      P1  H  7989  7998       L1    16  0.75
      L1  C     3    23       P1 10747  1.00

> <Gold.PLP.Chemscore.Internal.Correction>
0.1419

> <Gold.Rescore>
     Score         DG    S(hbond)    S(metal)    S(lipo)     H(rot)  DE(clash)    DE(int)     intcor
     18.63     -18.91       2.69        0.00      71.47       1.53       0.00       0.28       ----

> <Gold.Chemscore.Fitness>
18.6280

> <Gold.Chemscore.DG>
-18.9115

> <Gold.Chemscore.ZeroCoef>
-5.4800

> <Gold.Chemscore.Hbond>
2.6926

> <Gold.Chemscore.Metal>
0.0000

> <Gold.Chemscore.Lipo>
71.4666

> <Gold.Chemscore.Internal_Hbond>
0.0000

> <Gold.Chemscore.DEClash>
0.0042

> <Gold.Chemscore.DEInternal>
0.2793

> <Gold.Chemscore.Rot>
1.5325

> <Gold.Chemscore.Internal.Correction>
   9.000000E+99

> <Gold.Chemscore.Hbonds>
donor molecule, donor type, donor heavy atom, donor atom, acceptor molecule, acceptor atom, score
      L1  H     9    30       P1  7948  0.85
      L1  H    12    31       P1  7948  0.84
      P1  H  7989  7998       L1    16  0.11

> <Gold.Chemscore.Hbond.Weighted>
-8.9932

> <Gold.Chemscore.Metal.Weighted>
-0.0000

> <Gold.Chemscore.Lipo.Weighted>
-8.3616

> <Gold.Chemscore.Internal_Hbond.Weighted>
0.0000

> <Gold.Chemscore.DEClash.Weighted>
0.0042

> <Gold.Chemscore.DEInternal.Weighted>
0.2793

> <Gold.Chemscore.Rot.Weighted>
3.9233

> <Gold.Chemscore.Internal.Correction.Weighted>
   9.000000E+99

> <Gold.Protein.RotatedTorsions>
[ 6907 6896 6895 6894 ] final  151.05 input  -60.11 | X-H torsion
[ 7974 7965 7964 7962 ] final  134.43 input  175.53 | X-H torsion
[ 8008 7997 7996 7995 ] final   -9.87 input   59.86 | X-H torsion
[ 10167 10162 10161 10158 ] final -150.91 input  -65.29 | X-H torsion
[ 10718 10713 10712 10709 ] final   -8.14 input   66.30 | X-H torsion
[ 10763 10752 10751 10750 ] final   47.45 input  -60.55 | X-H torsion
[ 11005 11000 10999 10996 ] final  -42.35 input  -57.11 | X-H torsion

> <Gold.Protein.ActiveResidues>
 VAL166  LYS551  ARG553  GLY616  TRP617  ASP618  TYR619  PRO620  LYS621  CYS622 
 ASP623  PHE694  ASN695  SER759  ASP760  ASP761  ALA762  ILE779  LEU786  VAL792 
 PHE793  MET794  SER795  GLU796  ALA797  LYS798  CYS799  TRP800  GLU811  SER814 

> <Gold.Protein.RotatedAtoms>
  152.1060  133.4275  159.4608 H   0  0  0  0  0  0  0  0  0  0  0  0  # atno 6907 bound_to 6896
  150.6865  134.2704  159.4595 H   0  0  0  0  0  0  0  0  0  0  0  0  # atno 6908 bound_to 6896
  152.0569  134.9618  160.0625 H   0  0  0  0  0  0  0  0  0  0  0  0  # atno 6909 bound_to 6896
  144.9764  139.4550  143.5407 H   0  0  0  0  0  0  0  0  0  0  0  0  # atno 7974 bound_to 7965
  154.5607  140.2344  155.8340 H   0  0  0  0  0  0  0  0  0  0  0  0  # atno 8008 bound_to 7997
  156.2027  140.3048  155.9519 H   0  0  0  0  0  0  0  0  0  0  0  0  # atno 8009 bound_to 7997
  155.2895  140.0426  157.3012 H   0  0  0  0  0  0  0  0  0  0  0  0  # atno 8010 bound_to 7997
  139.7313  143.8803  152.2535 H   0  0  0  0  0  0  0  0  0  0  0  0  # atno 10167 bound_to 10162
  156.7069  130.5110  149.5902 H   0  0  0  0  0  0  0  0  0  0  0  0  # atno 10718 bound_to 10713
  152.9800  135.5976  154.3764 H   0  0  0  0  0  0  0  0  0  0  0  0  # atno 10763 bound_to 10752
  154.3433  135.2767  155.2413 H   0  0  0  0  0  0  0  0  0  0  0  0  # atno 10764 bound_to 10752
  154.4485  135.5995  153.6231 H   0  0  0  0  0  0  0  0  0  0  0  0  # atno 10765 bound_to 10752
  141.0310  133.6820  156.2583 H   0  0  0  0  0  0  0  0  0  0  0  0  # atno 11005 bound_to 11000
  146.3396  139.9009  142.8794 LP  0  0  0  0  0  0  0  0  0  0  0  0  # atno 17320 bound_to 7965
  145.2484  141.0035  143.3895 LP  0  0  0  0  0  0  0  0  0  0  0  0  # atno 17321 bound_to 7965
  139.8727  144.7059  150.8968 LP  0  0  0  0  0  0  0  0  0  0  0  0  # atno 17342 bound_to 10162
  140.7771  143.3725  151.1624 LP  0  0  0  0  0  0  0  0  0  0  0  0  # atno 17343 bound_to 10162
  156.1688  130.6423  151.0812 LP  0  0  0  0  0  0  0  0  0  0  0  0  # atno 17370 bound_to 10713
  157.6951  131.0797  150.6993 LP  0  0  0  0  0  0  0  0  0  0  0  0  # atno 17371 bound_to 10713
  140.6407  134.5169  157.5569 LP  0  0  0  0  0  0  0  0  0  0  0  0  # atno 17394 bound_to 11000
  139.9208  134.8153  156.1219 LP  0  0  0  0  0  0  0  0  0  0  0  0  # atno 17395 bound_to 11000

$$$$
