AV-unprocessed.smi:196|AV-procd|sdf|1541|dock8
  -GOLD-   2262019403D 1   1.00000     0.00000
 Structure written by MMmdl.
 47 50  0  0  0  0  0  0  0  0  1 V2000
  152.3488  139.4845  154.5747 C   0  0  0  0  0  0  0  0  0  0  0  0
  151.1744  139.6960  155.5444 C   0  0  1  0  0  0  0  0  0  0  0  0
  151.3670  140.8726  156.3161 O   0  0  0  0  0  0  0  0  0  0  0  0
  150.1114  141.2084  156.8781 C   0  0  0  0  0  0  0  0  0  0  0  0
  149.1572  141.0194  155.7050 C   0  0  0  0  0  0  0  0  0  0  0  0
  149.7612  139.8499  154.9213 C   0  0  1  0  0  0  0  0  0  0  0  0
  149.8260  140.2231  153.5544 O   0  0  0  0  0  0  0  0  0  0  0  0
  148.8999  138.5675  155.0333 C   0  0  0  0  0  0  0  0  0  0  0  0
  148.7124  138.1113  156.4025 N   0  0  0  0  0  0  0  0  0  0  0  0
  148.0855  138.7930  157.4203 C   0  0  0  0  0  0  0  0  0  0  0  0
  148.0415  138.1674  158.5642 N   0  0  0  0  0  0  0  0  0  0  0  0
  148.6915  136.9624  158.3220 C   0  0  0  0  0  0  0  0  0  0  0  0
  149.0040  135.8219  159.1179 C   0  0  0  0  0  0  0  0  0  0  0  0
  148.6540  135.7042  160.4274 N   0  0  0  0  0  0  0  0  0  0  0  0
  148.2553  136.8965  161.1676 C   0  0  0  0  0  0  0  0  0  0  0  0
  147.1901  136.4304  162.1602 C   0  0  1  0  0  0  0  0  0  0  0  0
  145.9825  136.5551  161.6066 F   0  0  0  0  0  0  0  0  0  0  0  0
  147.5106  134.9512  162.3509 C   0  0  0  0  0  0  0  0  0  0  0  0
  148.0077  134.5030  160.9671 C   0  0  2  0  0  0  0  0  0  0  0  0
  148.9670  133.3072  161.0806 C   0  0  0  0  0  0  0  0  0  0  0  0
  149.3967  132.7710  159.9361 N   0  0  0  0  0  0  0  0  0  0  0  0
  149.3054  132.8655  162.1776 O   0  0  0  0  0  0  0  0  0  0  0  0
  149.6945  134.8163  158.5171 N   0  0  0  0  0  0  0  0  0  0  0  0
  150.0473  134.9076  157.2321 C   0  0  0  0  0  0  0  0  0  0  0  0
  149.8177  135.9017  156.3735 N   0  0  0  0  0  0  0  0  0  0  0  0
  149.1310  136.9188  156.9677 C   0  0  0  0  0  0  0  0  0  0  0  0
  147.1869  136.9996  163.0901 H   0  0  0  0  0  0  0  0  0  0  0  0
  147.1496  134.2442  160.3434 H   0  0  0  0  0  0  0  0  0  0  0  0
  152.2017  138.5912  153.9672 H   0  0  0  0  0  0  0  0  0  0  0  0
  153.2829  139.3606  155.1226 H   0  0  0  0  0  0  0  0  0  0  0  0
  152.4731  140.3342  153.9031 H   0  0  0  0  0  0  0  0  0  0  0  0
  151.1659  138.8717  156.2585 H   0  0  0  0  0  0  0  0  0  0  0  0
  149.8744  140.5209  157.6918 H   0  0  0  0  0  0  0  0  0  0  0  0
  150.1025  142.2256  157.2700 H   0  0  0  0  0  0  0  0  0  0  0  0
  148.1322  140.8416  156.0326 H   0  0  0  0  0  0  0  0  0  0  0  0
  149.1528  141.9326  155.1070 H   0  0  0  0  0  0  0  0  0  0  0  0
  149.6079  139.4699  153.0272 H   0  0  0  0  0  0  0  0  0  0  0  0
  147.9170  138.7392  154.5929 H   0  0  0  0  0  0  0  0  0  0  0  0
  149.3494  137.7547  154.4610 H   0  0  0  0  0  0  0  0  0  0  0  0
  147.6537  139.7741  157.2865 H   0  0  0  0  0  0  0  0  0  0  0  0
  149.1275  137.2792  161.6988 H   0  0  0  0  0  0  0  0  0  0  0  0
  147.8748  137.6917  160.5243 H   0  0  0  0  0  0  0  0  0  0  0  0
  148.2981  134.8500  163.1001 H   0  0  0  0  0  0  0  0  0  0  0  0
  146.6499  134.3771  162.6955 H   0  0  0  0  0  0  0  0  0  0  0  0
  150.0232  131.9794  159.9534 H   0  0  0  0  0  0  0  0  0  0  0  0
  149.0869  133.1568  159.0560 H   0  0  0  0  0  0  0  0  0  0  0  0
  150.5904  134.0628  156.8353 H   0  0  0  0  0  0  0  0  0  0  0  0
  1  2  1  0  0  0  0
  1 29  1  0  0  0  0
  1 30  1  0  0  0  0
  1 31  1  0  0  0  0
  2  6  1  0  0  0  0
  2  3  1  0  0  0  0
  2 32  1  0  0  0  0
  3  4  1  0  0  0  0
  4  5  1  0  0  0  0
  4 33  1  0  0  0  0
  4 34  1  0  0  0  0
  5  6  1  0  0  0  0
  5 35  1  0  0  0  0
  5 36  1  0  0  0  0
  6  7  1  0  0  0  0
  6  8  1  0  0  0  0
  7 37  1  0  0  0  0
  8  9  1  0  0  0  0
  8 38  1  0  0  0  0
  8 39  1  0  0  0  0
  9 26  1  0  0  0  0
  9 10  1  0  0  0  0
 10 11  2  0  0  0  0
 10 40  1  0  0  0  0
 11 12  1  0  0  0  0
 12 26  2  0  0  0  0
 12 13  1  0  0  0  0
 13 14  1  0  0  0  0
 13 23  2  0  0  0  0
 14 19  1  0  0  0  0
 14 15  1  0  0  0  0
 15 16  1  0  0  0  0
 15 41  1  0  0  0  0
 15 42  1  0  0  0  0
 16 27  1  0  0  0  0
 16 17  1  0  0  0  0
 16 18  1  0  0  0  0
 18 19  1  0  0  0  0
 18 43  1  0  0  0  0
 18 44  1  0  0  0  0
 19 28  1  0  0  0  0
 19 20  1  0  0  0  0
 20 21  1  0  0  0  0
 20 22  2  0  0  0  0
 21 45  1  0  0  0  0
 21 46  1  0  0  0  0
 23 24  1  0  0  0  0
 24 25  2  0  0  0  0
 24 47  1  0  0  0  0
 25 26  1  0  0  0  0
M  END
> <s_m_source_file>
AV-unprocessed.smi

> <i_m_source_file_index>
196

> <i_lp_mmshare_version>
43012

> <i_f3d_flags>
0

> <s_epik_input>
W0NIMl0xW0NIMl1PW0NAQEhdKFtDSDNdKVtDQEBdMShbT0hdKVtDSDJdbihbY0hdbjIpYyhjMjMpbltjSF1uYzNONFtDSDJdW0NASF0oRilbQ0gyXVtDQEhdNEMoPU8pW05IMl0=

> <s_epik_cmdline>
J2VwaWtfcHl0aG9uJywgJy1waCcsICc3LjAnLCAnLXRuJywgJzgnLCAnLW1hJywgJzIwMCcsICctbWV0YWxfYmluZGluZycsICctaW1hZScsICc8aW5maWxlLm1hZT4nLCAnLW9tYWUnLCAnPG91dGZpbGUubWFlPic=

> <r_lp_tautomer_probability>
1

> <r_epik_Ionization_Penalty>
0.000857933

> <r_epik_Ionization_Penalty_Charging>
0

> <r_epik_Ionization_Penalty_Neutral>
0.000857933

> <r_epik_State_Penalty>
0.000462053

> <r_epik_Charging_Adjusted_Penalty>
0.000462053

> <i_epik_Tot_Q>
0

> <i_epik_Tot_abs_Q>
0

> <r_epik_Metal_State_Penalty>
-0

> <b_epik_Metal_Only>
0

> <s_lp_Force_Field>
OPLS_2005

> <r_lp_Energy>
42.8122

> <b_lp_Chiralities_Consistent>
1

> <s_lp_Variant>
AV-unprocessed.smi:196-14

> <Gold.Version>
5.8.1

> <Gold.Id.Protein>
6NUR|6NUR_protein|mol2

> <Gold.PLP.Fitness>
40.7816

> <Gold.PLP.PLP>
-35.5769

> <Gold.PLP.part.hbond>
-4.0000

> <Gold.PLP.part.metal>
0.0000

> <Gold.PLP.part.buried>
-4.0604

> <Gold.PLP.part.nonpolar>
-27.0547

> <Gold.PLP.part.repulsive>
0.1094

> <Gold.PLP.ligand.clash>
0.0000

> <Gold.PLP.ligand.torsion>
0.5740

> <Gold.PLP.Chemscore.Hbond>
2.0270

> <Gold.PLP.Chemscore.CHOScore>
0.0000

> <Gold.PLP.Chemscore.Metal>
0.0000

> <Gold.Chemscore.Hbonds>
donor molecule, donor type, donor heavy atom, donor atom, acceptor molecule, acceptor atom, score
      L1  H     7    37       P1  7957  0.16
      P1  H  6896  6909       L1    23  0.72
      P1  H  7989  7998       L1     7  0.61

> <Gold.PLP.Chemscore.Internal.Correction>
0.2718

> <Gold.Rescore>
     Score         DG    S(hbond)    S(metal)    S(lipo)     H(rot)  DE(clash)    DE(int)     intcor
      6.14     -10.53       1.14        0.00      67.50       2.60       0.01       4.37       ----

> <Gold.Chemscore.Fitness>
6.1423

> <Gold.Chemscore.DG>
-10.5251

> <Gold.Chemscore.ZeroCoef>
-5.4800

> <Gold.Chemscore.Hbond>
1.1363

> <Gold.Chemscore.Metal>
0.0000

> <Gold.Chemscore.Lipo>
67.5022

> <Gold.Chemscore.Internal_Hbond>
0.0000

> <Gold.Chemscore.DEClash>
0.0141

> <Gold.Chemscore.DEInternal>
4.3688

> <Gold.Chemscore.Rot>
2.5968

> <Gold.Chemscore.Internal.Correction>
   9.000000E+99

> <Gold.Chemscore.Hbonds>
donor molecule, donor type, donor heavy atom, donor atom, acceptor molecule, acceptor atom, score
      L1  H     7    37       P1  7957  0.17
      P1  H  6896  6909       L1    23  0.53
      P1  H  7989  7998       L1     7  0.17
      P1  H  8011  8017       L1     7  0.01

> <Gold.Chemscore.Hbond.Weighted>
-3.7951

> <Gold.Chemscore.Metal.Weighted>
-0.0000

> <Gold.Chemscore.Lipo.Weighted>
-7.8978

> <Gold.Chemscore.Internal_Hbond.Weighted>
0.0000

> <Gold.Chemscore.DEClash.Weighted>
0.0141

> <Gold.Chemscore.DEInternal.Weighted>
4.3688

> <Gold.Chemscore.Rot.Weighted>
6.6477

> <Gold.Chemscore.Internal.Correction.Weighted>
   9.000000E+99

> <Gold.Protein.RotatedTorsions>
[ 6907 6896 6895 6894 ] final    8.19 input  -60.11 | X-H torsion
[ 7974 7965 7964 7962 ] final  -86.67 input  175.53 | X-H torsion
[ 8008 7997 7996 7995 ] final  161.59 input   59.86 | X-H torsion
[ 10167 10162 10161 10158 ] final   -3.87 input  -65.29 | X-H torsion
[ 10718 10713 10712 10709 ] final   20.92 input   66.30 | X-H torsion
[ 10763 10752 10751 10750 ] final   47.06 input  -60.55 | X-H torsion
[ 11005 11000 10999 10996 ] final   35.10 input  -57.11 | X-H torsion

> <Gold.Protein.ActiveResidues>
 VAL166  LYS551  ARG553  GLY616  TRP617  ASP618  TYR619  PRO620  LYS621  CYS622 
 ASP623  PHE694  ASN695  SER759  ASP760  ASP761  ALA762  ILE779  LEU786  VAL792 
 PHE793  MET794  SER795  GLU796  ALA797  LYS798  CYS799  TRP800  GLU811  SER814 

> <Gold.Protein.RotatedAtoms>
  151.7020  135.0928  160.0252 H   0  0  0  0  0  0  0  0  0  0  0  0  # atno 6907 bound_to 6896
  152.3715  133.6420  159.6099 H   0  0  0  0  0  0  0  0  0  0  0  0  # atno 6908 bound_to 6896
  150.7676  133.9179  159.3430 H   0  0  0  0  0  0  0  0  0  0  0  0  # atno 6909 bound_to 6896
  145.4768  140.9558  143.1887 H   0  0  0  0  0  0  0  0  0  0  0  0  # atno 7974 bound_to 7965
  156.2092  140.1773  156.7733 H   0  0  0  0  0  0  0  0  0  0  0  0  # atno 8008 bound_to 7997
  154.5698  140.0684  156.8977 H   0  0  0  0  0  0  0  0  0  0  0  0  # atno 8009 bound_to 7997
  155.2694  140.3341  155.4269 H   0  0  0  0  0  0  0  0  0  0  0  0  # atno 8010 bound_to 7997
  140.6906  143.6489  150.8368 H   0  0  0  0  0  0  0  0  0  0  0  0  # atno 10167 bound_to 10162
  157.1312  130.6591  149.5952 H   0  0  0  0  0  0  0  0  0  0  0  0  # atno 10718 bound_to 10713
  152.9804  135.5988  154.3701 H   0  0  0  0  0  0  0  0  0  0  0  0  # atno 10763 bound_to 10752
  154.3375  135.2768  155.2441 H   0  0  0  0  0  0  0  0  0  0  0  0  # atno 10764 bound_to 10752
  154.4538  135.5983  153.6264 H   0  0  0  0  0  0  0  0  0  0  0  0  # atno 10765 bound_to 10752
  140.2461  134.3358  155.7907 H   0  0  0  0  0  0  0  0  0  0  0  0  # atno 11005 bound_to 11000
  144.7913  139.6323  143.7112 LP  0  0  0  0  0  0  0  0  0  0  0  0  # atno 17320 bound_to 7965
  146.2365  139.5915  142.9520 LP  0  0  0  0  0  0  0  0  0  0  0  0  # atno 17321 bound_to 7965
  140.0202  143.5551  152.2804 LP  0  0  0  0  0  0  0  0  0  0  0  0  # atno 17342 bound_to 10162
  139.6306  144.7643  151.2544 LP  0  0  0  0  0  0  0  0  0  0  0  0  # atno 17343 bound_to 10162
  155.9807  130.4810  150.6790 LP  0  0  0  0  0  0  0  0  0  0  0  0  # atno 17370 bound_to 10713
  157.4391  131.0859  151.0962 LP  0  0  0  0  0  0  0  0  0  0  0  0  # atno 17371 bound_to 10713
  141.2206  133.7326  156.8963 LP  0  0  0  0  0  0  0  0  0  0  0  0  # atno 17394 bound_to 11000
  140.1605  134.9169  157.2708 LP  0  0  0  0  0  0  0  0  0  0  0  0  # atno 17395 bound_to 11000

$$$$
