AV-unprocessed.smi:266|AV-procd|sdf|2034|dock8
  -GOLD-   2262021243D 1   1.00000     0.00000
 Structure written by MMmdl.
 52 55  0  0  0  0  0  0  0  0  1 V2000
  145.1895  131.9900  149.9157 C   0  0  0  0  0  0  0  0  0  0  0  0
  144.8844  133.3726  150.5130 C   0  0  1  0  0  0  0  0  0  0  0  0
  143.5366  133.3523  150.9766 O   0  0  0  0  0  0  0  0  0  0  0  0
  143.4219  134.2153  152.0943 C   0  0  0  0  0  0  0  0  0  0  0  0
  144.7138  133.9450  152.8499 C   0  0  0  0  0  0  0  0  0  0  0  0
  145.7442  133.8154  151.7314 C   0  0  2  0  0  0  0  0  0  0  0  0
  146.2461  135.1123  151.4526 O   0  0  0  0  0  0  0  0  0  0  0  0
  146.9472  132.9056  152.0953 C   0  0  0  0  0  0  0  0  0  0  0  0
  147.4358  133.1040  153.4522 N   0  0  0  0  0  0  0  0  0  0  0  0
  148.4855  133.9023  153.8402 C   0  0  0  0  0  0  0  0  0  0  0  0
  148.7296  133.9113  155.1209 N   0  0  0  0  0  0  0  0  0  0  0  0
  147.7844  133.0481  155.6683 C   0  0  0  0  0  0  0  0  0  0  0  0
  147.4778  132.5937  156.9907 C   0  0  0  0  0  0  0  0  0  0  0  0
  148.1406  132.9676  158.1263 N   0  0  0  0  0  0  0  0  0  0  0  0
  149.5373  133.3809  158.0575 C   0  0  0  0  0  0  0  0  0  0  0  0
  147.5525  132.7269  159.4475 C   0  0  0  0  0  0  0  0  0  0  0  0
  147.6431  133.9498  160.3836 C   0  0  2  0  0  0  0  0  0  0  0  0
  147.2338  133.6001  161.8273 C   0  0  0  0  0  0  0  0  0  0  0  0
  147.0929  134.8996  162.6259 C   0  0  0  0  0  0  0  0  0  0  0  0
  146.4548  136.1380  161.4380 S   0  0  0  0  0  0  0  0  0  0  0  0
  145.0014  136.2812  161.6118 O   0  0  0  0  0  0  0  0  0  0  0  0
  147.3385  137.3134  161.4500 O   0  0  0  0  0  0  0  0  0  0  0  0
  146.7784  135.1404  159.9344 C   0  0  0  0  0  0  0  0  0  0  0  0
  146.4372  131.7240  157.1067 N   0  0  0  0  0  0  0  0  0  0  0  0
  145.7523  131.3185  156.0354 C   0  0  0  0  0  0  0  0  0  0  0  0
  145.9307  131.6537  154.7589 N   0  0  0  0  0  0  0  0  0  0  0  0
  146.9643  132.5310  154.6208 C   0  0  0  0  0  0  0  0  0  0  0  0
  146.2080  131.9370  149.5305 H   0  0  0  0  0  0  0  0  0  0  0  0
  144.5165  131.7741  149.0856 H   0  0  0  0  0  0  0  0  0  0  0  0
  145.0600  131.1978  150.6535 H   0  0  0  0  0  0  0  0  0  0  0  0
  144.9473  134.1134  149.7136 H   0  0  0  0  0  0  0  0  0  0  0  0
  143.3695  135.2522  151.7588 H   0  0  0  0  0  0  0  0  0  0  0  0
  142.5325  133.9946  152.6845 H   0  0  0  0  0  0  0  0  0  0  0  0
  144.9528  134.7143  153.5856 H   0  0  0  0  0  0  0  0  0  0  0  0
  144.6137  132.9973  153.3801 H   0  0  0  0  0  0  0  0  0  0  0  0
  147.1496  135.1492  151.7266 H   0  0  0  0  0  0  0  0  0  0  0  0
  146.6763  131.8548  151.9924 H   0  0  0  0  0  0  0  0  0  0  0  0
  147.7767  133.0786  151.4084 H   0  0  0  0  0  0  0  0  0  0  0  0
  149.0654  134.4855  153.1398 H   0  0  0  0  0  0  0  0  0  0  0  0
  149.6394  134.2946  157.4718 H   0  0  0  0  0  0  0  0  0  0  0  0
  150.1506  132.5998  157.6076 H   0  0  0  0  0  0  0  0  0  0  0  0
  149.9383  133.5838  159.0505 H   0  0  0  0  0  0  0  0  0  0  0  0
  146.5076  132.4394  159.3242 H   0  0  0  0  0  0  0  0  0  0  0  0
  148.0268  131.8619  159.9127 H   0  0  0  0  0  0  0  0  0  0  0  0
  148.6786  134.2910  160.4246 H   0  0  0  0  0  0  0  0  0  0  0  0
  146.2706  133.0883  161.8137 H   0  0  0  0  0  0  0  0  0  0  0  0
  147.9480  132.9225  162.2962 H   0  0  0  0  0  0  0  0  0  0  0  0
  146.4197  134.8088  163.4782 H   0  0  0  0  0  0  0  0  0  0  0  0
  148.0650  135.2425  162.9808 H   0  0  0  0  0  0  0  0  0  0  0  0
  147.2625  135.7542  159.1747 H   0  0  0  0  0  0  0  0  0  0  0  0
  145.8157  134.8046  159.5483 H   0  0  0  0  0  0  0  0  0  0  0  0
  144.9456  130.6270  156.2297 H   0  0  0  0  0  0  0  0  0  0  0  0
  1  2  1  0  0  0  0
  1 28  1  0  0  0  0
  1 29  1  0  0  0  0
  1 30  1  0  0  0  0
  2  6  1  0  0  0  0
  2  3  1  0  0  0  0
  2 31  1  0  0  0  0
  3  4  1  0  0  0  0
  4  5  1  0  0  0  0
  4 32  1  0  0  0  0
  4 33  1  0  0  0  0
  5  6  1  0  0  0  0
  5 34  1  0  0  0  0
  5 35  1  0  0  0  0
  6  7  1  0  0  0  0
  6  8  1  0  0  0  0
  7 36  1  0  0  0  0
  8  9  1  0  0  0  0
  8 37  1  0  0  0  0
  8 38  1  0  0  0  0
  9 27  1  0  0  0  0
  9 10  1  0  0  0  0
 10 11  2  0  0  0  0
 10 39  1  0  0  0  0
 11 12  1  0  0  0  0
 12 27  2  0  0  0  0
 12 13  1  0  0  0  0
 13 14  1  0  0  0  0
 13 24  2  0  0  0  0
 14 15  1  0  0  0  0
 14 16  1  0  0  0  0
 15 40  1  0  0  0  0
 15 41  1  0  0  0  0
 15 42  1  0  0  0  0
 16 17  1  0  0  0  0
 16 43  1  0  0  0  0
 16 44  1  0  0  0  0
 17 23  1  0  0  0  0
 17 18  1  0  0  0  0
 17 45  1  0  0  0  0
 18 19  1  0  0  0  0
 18 46  1  0  0  0  0
 18 47  1  0  0  0  0
 19 20  1  0  0  0  0
 19 48  1  0  0  0  0
 19 49  1  0  0  0  0
 20 21  2  0  0  0  0
 20 22  2  0  0  0  0
 20 23  1  0  0  0  0
 23 50  1  0  0  0  0
 23 51  1  0  0  0  0
 24 25  1  0  0  0  0
 25 26  2  0  0  0  0
 25 52  1  0  0  0  0
 26 27  1  0  0  0  0
M  END
> <s_m_source_file>
AV-unprocessed.smi

> <i_m_source_file_index>
266

> <i_lp_mmshare_version>
43012

> <i_f3d_flags>
0

> <s_epik_input>
W0NIMl0xW0NIMl1PW0NAQEhdKFtDSDNdKVtDQEBdMShbT0hdKVtDSDJdbihbY0hdbjIpYyhjMjMpbltjSF1uYzNOKFtDSDNdKVtDSDJdW0NAQEhdKFtDSDJdNClbQ0gyXVtDSDJdUzQoPU8pPU8=

> <s_epik_cmdline>
J2VwaWtfcHl0aG9uJywgJy1waCcsICc3LjAnLCAnLXRuJywgJzgnLCAnLW1hJywgJzIwMCcsICctbWV0YWxfYmluZGluZycsICctaW1hZScsICc8aW5maWxlLm1hZT4nLCAnLW9tYWUnLCAnPG91dGZpbGUubWFlPic=

> <r_lp_tautomer_probability>
1

> <r_epik_Ionization_Penalty>
0.00155497

> <r_epik_Ionization_Penalty_Charging>
0

> <r_epik_Ionization_Penalty_Neutral>
0.00155497

> <r_epik_State_Penalty>
-0

> <r_epik_Charging_Adjusted_Penalty>
0

> <i_epik_Tot_Q>
0

> <i_epik_Tot_abs_Q>
0

> <r_epik_Metal_State_Penalty>
-0

> <b_epik_Metal_Only>
0

> <s_lp_Force_Field>
OPLS_2005

> <r_lp_Energy>
30.3558

> <b_lp_Chiralities_Consistent>
1

> <s_lp_Variant>
AV-unprocessed.smi:266-4

> <Gold.Version>
5.8.1

> <Gold.Id.Protein>
6NUR|6NUR_protein|mol2

> <Gold.PLP.Fitness>
42.2961

> <Gold.PLP.PLP>
-31.3118

> <Gold.PLP.part.hbond>
-3.0000

> <Gold.PLP.part.metal>
0.0000

> <Gold.PLP.part.buried>
-0.9665

> <Gold.PLP.part.nonpolar>
-27.8997

> <Gold.PLP.part.repulsive>
0.4892

> <Gold.PLP.ligand.clash>
0.0000

> <Gold.PLP.ligand.torsion>
0.9183

> <Gold.PLP.Chemscore.Hbond>
2.7840

> <Gold.PLP.Chemscore.CHOScore>
1.4504

> <Gold.PLP.Chemscore.Metal>
0.0000

> <Gold.Chemscore.Hbonds>
donor molecule, donor type, donor heavy atom, donor atom, acceptor molecule, acceptor atom, score
      L1  H     7    36       P1  7948  0.89
      P1  H  6931  6943       L1    22  0.83
      P1  H  6934  6947       L1    22  0.93
      L1  C    10    39       P1  7948  0.51
      L1  C    25    52       P1 10956  1.00
      L1  C    25    52       P1 10957  0.02

> <Gold.PLP.Chemscore.Internal.Correction>
0.1175

> <Gold.Rescore>
     Score         DG    S(hbond)    S(metal)    S(lipo)     H(rot)  DE(clash)    DE(int)     intcor
     14.24     -16.24       2.59        0.00      71.69       2.45       1.13       0.87       ----

> <Gold.Chemscore.Fitness>
14.2423

> <Gold.Chemscore.DG>
-16.2404

> <Gold.Chemscore.ZeroCoef>
-5.4800

> <Gold.Chemscore.Hbond>
2.5860

> <Gold.Chemscore.Metal>
0.0000

> <Gold.Chemscore.Lipo>
71.6901

> <Gold.Chemscore.Internal_Hbond>
0.0000

> <Gold.Chemscore.DEClash>
1.1295

> <Gold.Chemscore.DEInternal>
0.8685

> <Gold.Chemscore.Rot>
2.4471

> <Gold.Chemscore.Internal.Correction>
   9.000000E+99

> <Gold.Chemscore.Hbonds>
donor molecule, donor type, donor heavy atom, donor atom, acceptor molecule, acceptor atom, score
      L1  H     7    36       P1  7948  0.79
      P1  H  6931  6943       L1    22  0.81
      P1  H  6934  6947       L1    22  0.90

> <Gold.Chemscore.Hbond.Weighted>
-8.6372

> <Gold.Chemscore.Metal.Weighted>
-0.0000

> <Gold.Chemscore.Lipo.Weighted>
-8.3877

> <Gold.Chemscore.Internal_Hbond.Weighted>
0.0000

> <Gold.Chemscore.DEClash.Weighted>
1.1295

> <Gold.Chemscore.DEInternal.Weighted>
0.8685

> <Gold.Chemscore.Rot.Weighted>
6.2645

> <Gold.Chemscore.Internal.Correction.Weighted>
   9.000000E+99

> <Gold.Protein.RotatedTorsions>
[ 6907 6896 6895 6894 ] final  144.60 input  -60.11 | X-H torsion
[ 7974 7965 7964 7962 ] final  126.99 input  175.53 | X-H torsion
[ 8008 7997 7996 7995 ] final  -32.54 input   59.86 | X-H torsion
[ 10167 10162 10161 10158 ] final -142.37 input  -65.29 | X-H torsion
[ 10718 10713 10712 10709 ] final  -57.39 input   66.30 | X-H torsion
[ 10763 10752 10751 10750 ] final  163.13 input  -60.55 | X-H torsion
[ 11005 11000 10999 10996 ] final -141.66 input  -57.11 | X-H torsion

> <Gold.Protein.ActiveResidues>
 VAL166  LYS551  ARG553  GLY616  TRP617  ASP618  TYR619  PRO620  LYS621  CYS622 
 ASP623  PHE694  ASN695  SER759  ASP760  ASP761  ALA762  ILE779  LEU786  VAL792 
 PHE793  MET794  SER795  GLU796  ALA797  LYS798  CYS799  TRP800  GLU811  SER814 

> <Gold.Protein.RotatedAtoms>
  152.1915  133.4776  159.5010 H   0  0  0  0  0  0  0  0  0  0  0  0  # atno 6907 bound_to 6896
  150.6952  134.1706  159.4220 H   0  0  0  0  0  0  0  0  0  0  0  0  # atno 6908 bound_to 6896
  151.9621  135.0118  160.0599 H   0  0  0  0  0  0  0  0  0  0  0  0  # atno 6909 bound_to 6896
  145.0555  139.3848  143.5032 H   0  0  0  0  0  0  0  0  0  0  0  0  # atno 7974 bound_to 7965
  154.4177  140.1735  156.1744 H   0  0  0  0  0  0  0  0  0  0  0  0  # atno 8008 bound_to 7997
  155.9734  140.3384  155.6572 H   0  0  0  0  0  0  0  0  0  0  0  0  # atno 8009 bound_to 7997
  155.6595  140.0699  157.2549 H   0  0  0  0  0  0  0  0  0  0  0  0  # atno 8010 bound_to 7997
  139.8095  143.7722  152.2663 H   0  0  0  0  0  0  0  0  0  0  0  0  # atno 10167 bound_to 10162
  156.1214  130.4166  150.0434 H   0  0  0  0  0  0  0  0  0  0  0  0  # atno 10718 bound_to 10713
  154.2890  135.2761  155.2663 H   0  0  0  0  0  0  0  0  0  0  0  0  # atno 10763 bound_to 10752
  154.5150  135.5772  153.6638 H   0  0  0  0  0  0  0  0  0  0  0  0  # atno 10764 bound_to 10752
  152.9917  135.6190  154.3054 H   0  0  0  0  0  0  0  0  0  0  0  0  # atno 10765 bound_to 10752
  140.8302  134.2526  157.4860 H   0  0  0  0  0  0  0  0  0  0  0  0  # atno 11005 bound_to 11000
  146.3521  140.0227  142.8657 LP  0  0  0  0  0  0  0  0  0  0  0  0  # atno 17320 bound_to 7965
  145.1474  140.9604  143.4453 LP  0  0  0  0  0  0  0  0  0  0  0  0  # atno 17321 bound_to 7965
  139.7867  144.7425  151.0012 LP  0  0  0  0  0  0  0  0  0  0  0  0  # atno 17342 bound_to 10162
  140.7818  143.4485  151.0447 LP  0  0  0  0  0  0  0  0  0  0  0  0  # atno 17343 bound_to 10162
  156.8372  130.9413  151.3634 LP  0  0  0  0  0  0  0  0  0  0  0  0  # atno 17370 bound_to 10713
  157.6397  130.8796  149.9426 LP  0  0  0  0  0  0  0  0  0  0  0  0  # atno 17371 bound_to 10713
  139.8705  134.9582  156.4292 LP  0  0  0  0  0  0  0  0  0  0  0  0  # atno 17394 bound_to 11000
  140.9006  133.7782  155.9676 LP  0  0  0  0  0  0  0  0  0  0  0  0  # atno 17395 bound_to 11000

$$$$
