AV-unprocessed.smi:2597|AV-procd|sdf|10177|dock6
  -GOLD-   2272014193D 1   1.00000     0.00000
 Structure written by MMmdl.
 30 31  0  0  0  0  0  0  0  0  1 V2000
  144.0351  133.2729  148.9470 N   0  0  0  0  0  0  0  0  0  0  0  0
  144.9893  132.6504  149.8480 C   0  0  2  0  0  0  0  0  0  0  0  0
  144.3566  131.4181  150.5258 C   0  0  0  0  0  0  0  0  0  0  0  0
  145.3449  130.7539  151.4976 C   0  0  0  0  0  0  0  0  0  0  0  0
  145.8843  131.7525  152.5340 C   0  0  0  0  0  0  0  0  0  0  0  0
  146.5260  132.9762  151.8538 C   0  0  0  0  0  0  0  0  0  0  0  0
  145.5866  133.6796  150.8482 C   0  0  2  0  0  0  0  0  0  0  0  0
  144.6067  134.5375  151.5197 N   0  0  0  0  0  0  0  0  0  0  0  0
  143.5672  134.1359  152.3352 C   0  0  0  0  0  0  0  0  0  0  0  0
  142.9496  135.3047  152.6772 C   0  0  0  0  0  0  0  0  0  0  0  0
  141.7558  135.5254  153.5540 C   0  0  0  0  0  0  0  0  0  0  0  0
  141.2610  134.2478  153.8927 O   0  0  0  0  0  0  0  0  0  0  0  0
  143.6178  136.3581  152.0577 N   0  0  0  0  0  0  0  0  0  0  0  0
  144.6041  135.8855  151.3636 N   0  0  0  0  0  0  0  0  0  0  0  0
  145.8090  132.2901  149.2251 H   0  0  0  0  0  0  0  0  0  0  0  0
  146.2105  134.3562  150.2621 H   0  0  0  0  0  0  0  0  0  0  0  0
  144.5037  133.9566  148.3700 H   0  0  0  0  0  0  0  0  0  0  0  0
  143.6515  132.5786  148.3219 H   0  0  0  0  0  0  0  0  0  0  0  0
  143.4434  131.6867  151.0558 H   0  0  0  0  0  0  0  0  0  0  0  0
  144.0571  130.6933  149.7677 H   0  0  0  0  0  0  0  0  0  0  0  0
  144.8617  129.9178  152.0040 H   0  0  0  0  0  0  0  0  0  0  0  0
  146.1783  130.3322  150.9340 H   0  0  0  0  0  0  0  0  0  0  0  0
  145.0804  132.0657  153.1994 H   0  0  0  0  0  0  0  0  0  0  0  0
  146.6214  131.2592  153.1681 H   0  0  0  0  0  0  0  0  0  0  0  0
  146.8704  133.6851  152.6078 H   0  0  0  0  0  0  0  0  0  0  0  0
  147.4203  132.6461  151.3237 H   0  0  0  0  0  0  0  0  0  0  0  0
  143.3695  133.1060  152.5918 H   0  0  0  0  0  0  0  0  0  0  0  0
  142.0164  136.0715  154.4615 H   0  0  0  0  0  0  0  0  0  0  0  0
  140.9821  136.0916  153.0346 H   0  0  0  0  0  0  0  0  0  0  0  0
  140.8616  134.2980  154.7473 H   0  0  0  0  0  0  0  0  0  0  0  0
  1  2  1  0  0  0  0
  1 17  1  0  0  0  0
  1 18  1  0  0  0  0
  2 15  1  0  0  0  0
  2  7  1  0  0  0  0
  2  3  1  0  0  0  0
  3  4  1  0  0  0  0
  3 19  1  0  0  0  0
  3 20  1  0  0  0  0
  4  5  1  0  0  0  0
  4 21  1  0  0  0  0
  4 22  1  0  0  0  0
  5  6  1  0  0  0  0
  5 23  1  0  0  0  0
  5 24  1  0  0  0  0
  6  7  1  0  0  0  0
  6 25  1  0  0  0  0
  6 26  1  0  0  0  0
  7 16  1  0  0  0  0
  7  8  1  0  0  0  0
  8 14  1  0  0  0  0
  8  9  1  0  0  0  0
  9 10  2  0  0  0  0
  9 27  1  0  0  0  0
 10 11  1  0  0  0  0
 10 13  1  0  0  0  0
 11 12  1  0  0  0  0
 11 28  1  0  0  0  0
 11 29  1  0  0  0  0
 12 30  1  0  0  0  0
 13 14  2  0  0  0  0
M  END
> <s_m_source_file>
AV-unprocessed.smi

> <i_m_source_file_index>
2597

> <i_lp_mmshare_version>
43012

> <i_f3d_flags>
0

> <s_epik_input>
W05IMl1bQ0BIXTFbQ0gyXVtDSDJdW0NIMl1bQ0gyXVtDQEhdMW4yW2NIXWMobm4yKVtDSDJdW09IXQ==

> <s_epik_cmdline>
J2VwaWtfcHl0aG9uJywgJy1waCcsICc3LjAnLCAnLXRuJywgJzgnLCAnLW1hJywgJzIwMCcsICctbWV0YWxfYmluZGluZycsICctaW1hZScsICc8aW5maWxlLm1hZT4nLCAnLW9tYWUnLCAnPG91dGZpbGUubWFlPic=

> <r_lp_tautomer_probability>
1

> <r_epik_Ionization_Penalty>
2.21303

> <r_epik_Ionization_Penalty_Charging>
0

> <r_epik_Ionization_Penalty_Neutral>
2.21303

> <r_epik_State_Penalty>
2.3573

> <r_epik_Charging_Adjusted_Penalty>
2.3573

> <i_epik_Tot_Q>
0

> <i_epik_Tot_abs_Q>
0

> <r_epik_Metal_State_Penalty>
2.35724

> <b_epik_Metal_Only>
0

> <s_lp_Force_Field>
OPLS_2005

> <r_lp_Energy>
16.7408

> <b_lp_Chiralities_Consistent>
1

> <s_lp_Variant>
AV-unprocessed.smi:2597-8

> <Gold.Version>
5.8.1

> <Gold.Id.Protein>
6NUR|6NUR_protein|mol2

> <Gold.PLP.Fitness>
36.5622

> <Gold.PLP.PLP>
-28.2649

> <Gold.PLP.part.hbond>
-3.8068

> <Gold.PLP.part.metal>
0.0000

> <Gold.PLP.part.buried>
-6.5888

> <Gold.PLP.part.nonpolar>
-18.8560

> <Gold.PLP.part.repulsive>
0.3890

> <Gold.PLP.ligand.clash>
0.0000

> <Gold.PLP.ligand.torsion>
0.0772

> <Gold.PLP.Chemscore.Hbond>
2.0000

> <Gold.PLP.Chemscore.CHOScore>
0.7969

> <Gold.PLP.Chemscore.Metal>
0.0000

> <Gold.Chemscore.Hbonds>
donor molecule, donor type, donor heavy atom, donor atom, acceptor molecule, acceptor atom, score
      L1  H     1    17       P1  7921  1.00
      L1  H    12    30       P1 11000  1.00
      L1  C     9    27       P1 10957  0.70

> <Gold.PLP.Chemscore.Internal.Correction>
0.0609

> <Gold.Rescore>
     Score         DG    S(hbond)    S(metal)    S(lipo)     H(rot)  DE(clash)    DE(int)     intcor
     14.80     -14.87       1.98        0.00      63.53       1.82       0.00       0.07       ----

> <Gold.Chemscore.Fitness>
14.8012

> <Gold.Chemscore.DG>
-14.8688

> <Gold.Chemscore.ZeroCoef>
-5.4800

> <Gold.Chemscore.Hbond>
1.9821

> <Gold.Chemscore.Metal>
0.0000

> <Gold.Chemscore.Lipo>
63.5340

> <Gold.Chemscore.Internal_Hbond>
0.0000

> <Gold.Chemscore.DEClash>
0.0009

> <Gold.Chemscore.DEInternal>
0.0667

> <Gold.Chemscore.Rot>
1.8222

> <Gold.Chemscore.Internal.Correction>
   9.000000E+99

> <Gold.Chemscore.Hbonds>
donor molecule, donor type, donor heavy atom, donor atom, acceptor molecule, acceptor atom, score
      L1  H     1    17       P1  7921  0.95
      L1  H    12    30       P1 11000  0.92

> <Gold.Chemscore.Hbond.Weighted>
-6.6203

> <Gold.Chemscore.Metal.Weighted>
-0.0000

> <Gold.Chemscore.Lipo.Weighted>
-7.4335

> <Gold.Chemscore.Internal_Hbond.Weighted>
0.0000

> <Gold.Chemscore.DEClash.Weighted>
0.0009

> <Gold.Chemscore.DEInternal.Weighted>
0.0667

> <Gold.Chemscore.Rot.Weighted>
4.6649

> <Gold.Chemscore.Internal.Correction.Weighted>
   9.000000E+99

> <Gold.Protein.RotatedTorsions>
[ 6907 6896 6895 6894 ] final   17.40 input  -60.11 | X-H torsion
[ 7974 7965 7964 7962 ] final  -80.31 input  175.53 | X-H torsion
[ 8008 7997 7996 7995 ] final -134.44 input   59.86 | X-H torsion
[ 10167 10162 10161 10158 ] final   -1.24 input  -65.29 | X-H torsion
[ 10718 10713 10712 10709 ] final  -43.25 input   66.30 | X-H torsion
[ 10763 10752 10751 10750 ] final  -86.33 input  -60.55 | X-H torsion
[ 11005 11000 10999 10996 ] final -171.08 input  -57.11 | X-H torsion

> <Gold.Protein.ActiveResidues>
 VAL166  LYS551  ARG553  GLY616  TRP617  ASP618  TYR619  PRO620  LYS621  CYS622 
 ASP623  PHE694  ASN695  SER759  ASP760  ASP761  ALA762  ILE779  LEU786  VAL792 
 PHE793  MET794  SER795  GLU796  ALA797  LYS798  CYS799  TRP800  GLU811  SER814 

> <Gold.Protein.RotatedAtoms>
  151.8491  135.0564  160.0456 H   0  0  0  0  0  0  0  0  0  0  0  0  # atno 6907 bound_to 6896
  152.2750  133.5413  159.5471 H   0  0  0  0  0  0  0  0  0  0  0  0  # atno 6908 bound_to 6896
  150.7167  134.0560  159.3857 H   0  0  0  0  0  0  0  0  0  0  0  0  # atno 6909 bound_to 6896
  145.5617  140.9481  143.1444 H   0  0  0  0  0  0  0  0  0  0  0  0  # atno 7974 bound_to 7965
  155.3622  140.0483  157.3046 H   0  0  0  0  0  0  0  0  0  0  0  0  # atno 8008 bound_to 7997
  154.5172  140.2212  155.9006 H   0  0  0  0  0  0  0  0  0  0  0  0  # atno 8009 bound_to 7997
  156.1650  140.3108  155.8878 H   0  0  0  0  0  0  0  0  0  0  0  0  # atno 8010 bound_to 7997
  140.6802  143.6798  150.8115 H   0  0  0  0  0  0  0  0  0  0  0  0  # atno 10167 bound_to 10162
  156.2509  130.4188  149.8650 H   0  0  0  0  0  0  0  0  0  0  0  0  # atno 10718 bound_to 10713
  154.6212  135.5453  153.7577 H   0  0  0  0  0  0  0  0  0  0  0  0  # atno 10763 bound_to 10752
  153.0239  135.6413  154.1437 H   0  0  0  0  0  0  0  0  0  0  0  0  # atno 10764 bound_to 10752
  154.1372  135.2910  155.3150 H   0  0  0  0  0  0  0  0  0  0  0  0  # atno 10765 bound_to 10752
  140.5122  134.5790  157.5022 H   0  0  0  0  0  0  0  0  0  0  0  0  # atno 11005 bound_to 11000
  144.7480  139.7269  143.7284 LP  0  0  0  0  0  0  0  0  0  0  0  0  # atno 17320 bound_to 7965
  146.1847  139.5056  142.9844 LP  0  0  0  0  0  0  0  0  0  0  0  0  # atno 17321 bound_to 7965
  140.0498  143.5262  152.2679 LP  0  0  0  0  0  0  0  0  0  0  0  0  # atno 17342 bound_to 10162
  139.6119  144.7610  151.2932 LP  0  0  0  0  0  0  0  0  0  0  0  0  # atno 17343 bound_to 10162
  156.6199  130.8622  151.3473 LP  0  0  0  0  0  0  0  0  0  0  0  0  # atno 17370 bound_to 10713
  157.7214  130.9564  150.1454 LP  0  0  0  0  0  0  0  0  0  0  0  0  # atno 17371 bound_to 10713
  139.9652  134.7385  156.0153 LP  0  0  0  0  0  0  0  0  0  0  0  0  # atno 17394 bound_to 11000
  141.1379  133.6571  156.3646 LP  0  0  0  0  0  0  0  0  0  0  0  0  # atno 17395 bound_to 11000

$$$$
