AV-unprocessed.smi:646|AV-procd|sdf|3167|dock9
  -GOLD-   22720 0 93D 1   1.00000     0.00000
 Structure written by MMmdl.
 44 45  0  0  0  0  0  0  0  0  1 V2000
  152.2258  143.8145  161.7593 C   0  0  0  0  0  0  0  0  0  0  0  0
  151.6697  142.8547  160.8690 O   0  0  0  0  0  0  0  0  0  0  0  0
  152.1699  142.8339  159.5248 C   0  0  1  0  0  0  0  0  0  0  0  0
  153.6997  142.9430  159.5193 C   0  0  0  0  0  0  0  0  0  0  0  0
  151.4900  141.7112  158.7172 C   0  0  0  0  0  0  0  0  0  0  0  0
  150.3315  142.6792  158.4879 C   0  0  2  0  0  0  0  0  0  0  0  0
  149.7657  142.5720  157.1487 N   0  0  0  0  0  0  0  0  0  0  0  0
  149.4514  141.4142  156.5493 C   0  0  0  0  0  0  0  0  0  0  0  0
  149.6896  140.3097  157.0370 O   0  0  0  0  0  0  0  0  0  0  0  0
  148.7280  141.5199  155.2076 C   0  0  0  0  0  0  0  0  0  0  0  0
  147.2459  141.3428  155.4233 C   0  0  0  0  0  0  0  0  0  0  0  0
  146.1781  142.0606  154.8112 C   0  0  0  0  0  0  0  0  0  0  0  0
  146.2553  143.1686  153.8006 C   0  0  0  0  0  0  0  0  0  0  0  0
  144.9960  141.6304  155.2191 N   0  0  0  0  0  0  0  0  0  0  0  0
  145.2557  140.5997  156.1273 O   0  0  0  0  0  0  0  0  0  0  0  0
  146.6003  140.4455  156.2288 C   0  0  0  0  0  0  0  0  0  0  0  0
  147.0841  139.3751  157.1473 C   0  0  0  0  0  0  0  0  0  0  0  0
  151.3360  143.8464  158.6731 C   0  0  0  0  0  0  0  0  0  0  0  0
  150.7992  145.0815  159.4048 C   0  0  0  0  0  0  0  0  0  0  0  0
  152.0199  144.3815  157.3994 C   0  0  0  0  0  0  0  0  0  0  0  0
  151.8550  143.6206  162.7657 H   0  0  0  0  0  0  0  0  0  0  0  0
  151.9260  144.8290  161.4975 H   0  0  0  0  0  0  0  0  0  0  0  0
  153.3136  143.7688  161.7946 H   0  0  0  0  0  0  0  0  0  0  0  0
  154.0957  143.0396  158.5090 H   0  0  0  0  0  0  0  0  0  0  0  0
  154.1732  142.0588  159.9451 H   0  0  0  0  0  0  0  0  0  0  0  0
  154.0365  143.8109  160.0866 H   0  0  0  0  0  0  0  0  0  0  0  0
  152.0339  141.4563  157.8056 H   0  0  0  0  0  0  0  0  0  0  0  0
  151.2195  140.8142  159.2730 H   0  0  0  0  0  0  0  0  0  0  0  0
  149.5913  142.6206  159.2894 H   0  0  0  0  0  0  0  0  0  0  0  0
  149.5369  143.4337  156.6753 H   0  0  0  0  0  0  0  0  0  0  0  0
  148.9580  142.4859  154.7565 H   0  0  0  0  0  0  0  0  0  0  0  0
  149.1209  140.7649  154.5260 H   0  0  0  0  0  0  0  0  0  0  0  0
  147.0984  143.8286  154.0056 H   0  0  0  0  0  0  0  0  0  0  0  0
  145.3515  143.7787  153.8020 H   0  0  0  0  0  0  0  0  0  0  0  0
  146.3863  142.7676  152.7952 H   0  0  0  0  0  0  0  0  0  0  0  0
  147.9405  138.8549  156.7178 H   0  0  0  0  0  0  0  0  0  0  0  0
  146.3037  138.6375  157.3365 H   0  0  0  0  0  0  0  0  0  0  0  0
  147.3896  139.7983  158.1041 H   0  0  0  0  0  0  0  0  0  0  0  0
  150.1732  145.6934  158.7541 H   0  0  0  0  0  0  0  0  0  0  0  0
  151.6108  145.7111  159.7705 H   0  0  0  0  0  0  0  0  0  0  0  0
  150.1844  144.8121  160.2637 H   0  0  0  0  0  0  0  0  0  0  0  0
  151.3260  144.9455  156.7754 H   0  0  0  0  0  0  0  0  0  0  0  0
  152.4234  143.5808  156.7795 H   0  0  0  0  0  0  0  0  0  0  0  0
  152.8472  145.0496  157.6408 H   0  0  0  0  0  0  0  0  0  0  0  0
  1  2  1  0  0  0  0
  1 21  1  0  0  0  0
  1 22  1  0  0  0  0
  1 23  1  0  0  0  0
  2  3  1  0  0  0  0
  3 18  1  0  0  0  0
  3  4  1  0  0  0  0
  3  5  1  0  0  0  0
  4 24  1  0  0  0  0
  4 25  1  0  0  0  0
  4 26  1  0  0  0  0
  5  6  1  0  0  0  0
  5 27  1  0  0  0  0
  5 28  1  0  0  0  0
  6  7  1  0  0  0  0
  6 18  1  0  0  0  0
  6 29  1  0  0  0  0
  7  8  1  0  0  0  0
  7 30  1  0  0  0  0
  8  9  2  0  0  0  0
  8 10  1  0  0  0  0
 10 11  1  0  0  0  0
 10 31  1  0  0  0  0
 10 32  1  0  0  0  0
 11 16  2  0  0  0  0
 11 12  1  0  0  0  0
 12 13  1  0  0  0  0
 12 14  2  0  0  0  0
 13 33  1  0  0  0  0
 13 34  1  0  0  0  0
 13 35  1  0  0  0  0
 14 15  1  0  0  0  0
 15 16  1  0  0  0  0
 16 17  1  0  0  0  0
 17 36  1  0  0  0  0
 17 37  1  0  0  0  0
 17 38  1  0  0  0  0
 18 19  1  0  0  0  0
 18 20  1  0  0  0  0
 19 39  1  0  0  0  0
 19 40  1  0  0  0  0
 19 41  1  0  0  0  0
 20 42  1  0  0  0  0
 20 43  1  0  0  0  0
 20 44  1  0  0  0  0
M  END
> <s_m_source_file>
AV-unprocessed.smi

> <i_m_source_file_index>
646

> <i_lp_mmshare_version>
43012

> <i_f3d_flags>
0

> <s_epik_input>
W0NIM11PW0NAQF0xKFtDSDNdKVtDSDJdW0NASF0oQzEoW0NIM10pW0NIM10pW05IXUMoPU8pW0NIMl1jMmMoW0NIM10pbm9jMltDSDNd

> <s_epik_cmdline>
J2VwaWtfcHl0aG9uJywgJy1waCcsICc3LjAnLCAnLXRuJywgJzgnLCAnLW1hJywgJzIwMCcsICctbWV0YWxfYmluZGluZycsICctaW1hZScsICc8aW5maWxlLm1hZT4nLCAnLW9tYWUnLCAnPG91dGZpbGUubWFlPic=

> <r_lp_tautomer_probability>
1

> <r_epik_Ionization_Penalty>
2.13169e-08

> <r_epik_Ionization_Penalty_Charging>
0

> <r_epik_Ionization_Penalty_Neutral>
2.13169e-08

> <r_epik_State_Penalty>
-0

> <r_epik_Charging_Adjusted_Penalty>
0

> <i_epik_Tot_Q>
0

> <i_epik_Tot_abs_Q>
0

> <r_epik_Metal_State_Penalty>
-0

> <b_epik_Metal_Only>
0

> <s_lp_Force_Field>
OPLS_2005

> <r_lp_Energy>
15.7725

> <b_lp_Chiralities_Consistent>
1

> <s_lp_Variant>
AV-unprocessed.smi:646-3

> <Gold.Version>
5.8.1

> <Gold.Id.Protein>
6NUR|6NUR_protein|mol2

> <Gold.PLP.Fitness>
39.8072

> <Gold.PLP.PLP>
-38.3693

> <Gold.PLP.part.hbond>
-2.0000

> <Gold.PLP.part.metal>
0.0000

> <Gold.PLP.part.buried>
-6.4579

> <Gold.PLP.part.nonpolar>
-30.3422

> <Gold.PLP.part.repulsive>
0.3058

> <Gold.PLP.ligand.clash>
0.0000

> <Gold.PLP.ligand.torsion>
1.0321

> <Gold.PLP.Chemscore.Hbond>
1.0395

> <Gold.PLP.Chemscore.CHOScore>
0.0000

> <Gold.PLP.Chemscore.Metal>
0.0000

> <Gold.Chemscore.Hbonds>
donor molecule, donor type, donor heavy atom, donor atom, acceptor molecule, acceptor atom, score
      L1  H     7    30       P1  8028  1.00
      P1  H  6933  6945       L1     2  0.04

> <Gold.PLP.Chemscore.Internal.Correction>
0.3835

> <Gold.Rescore>
     Score         DG    S(hbond)    S(metal)    S(lipo)     H(rot)  DE(clash)    DE(int)     intcor
     14.33     -18.08       1.11        0.00     108.59       1.49       0.03       3.71       ----

> <Gold.Chemscore.Fitness>
14.3330

> <Gold.Chemscore.DG>
-18.0752

> <Gold.Chemscore.ZeroCoef>
-5.4800

> <Gold.Chemscore.Hbond>
1.1112

> <Gold.Chemscore.Metal>
0.0000

> <Gold.Chemscore.Lipo>
108.5926

> <Gold.Chemscore.Internal_Hbond>
0.0000

> <Gold.Chemscore.DEClash>
0.0276

> <Gold.Chemscore.DEInternal>
3.7146

> <Gold.Chemscore.Rot>
1.4928

> <Gold.Chemscore.Internal.Correction>
   9.000000E+99

> <Gold.Chemscore.Hbonds>
donor molecule, donor type, donor heavy atom, donor atom, acceptor molecule, acceptor atom, score
      L1  H     7    30       P1  8028  1.00
      P1  H  6933  6945       L1     2  0.02

> <Gold.Chemscore.Hbond.Weighted>
-3.7115

> <Gold.Chemscore.Metal.Weighted>
-0.0000

> <Gold.Chemscore.Lipo.Weighted>
-12.7053

> <Gold.Chemscore.Internal_Hbond.Weighted>
0.0000

> <Gold.Chemscore.DEClash.Weighted>
0.0276

> <Gold.Chemscore.DEInternal.Weighted>
3.7146

> <Gold.Chemscore.Rot.Weighted>
3.8217

> <Gold.Chemscore.Internal.Correction.Weighted>
   9.000000E+99

> <Gold.Protein.RotatedTorsions>
[ 6907 6896 6895 6894 ] final   59.30 input  -60.11 | X-H torsion
[ 7974 7965 7964 7962 ] final   80.18 input  175.53 | X-H torsion
[ 8008 7997 7996 7995 ] final   40.83 input   59.86 | X-H torsion
[ 10167 10162 10161 10158 ] final -129.01 input  -65.29 | X-H torsion
[ 10718 10713 10712 10709 ] final -147.62 input   66.30 | X-H torsion
[ 10763 10752 10751 10750 ] final  -88.87 input  -60.55 | X-H torsion
[ 11005 11000 10999 10996 ] final  105.37 input  -57.11 | X-H torsion

> <Gold.Protein.ActiveResidues>
 VAL166  LYS551  ARG553  GLY616  TRP617  ASP618  TYR619  PRO620  LYS621  CYS622 
 ASP623  PHE694  ASN695  SER759  ASP760  ASP761  ALA762  ILE779  LEU786  VAL792 
 PHE793  MET794  SER795  GLU796  ALA797  LYS798  CYS799  TRP800  GLU811  SER814 

> <Gold.Protein.RotatedAtoms>
  152.3902  134.6453  160.0110 H   0  0  0  0  0  0  0  0  0  0  0  0  # atno 6907 bound_to 6896
  151.6689  133.3309  159.3200 H   0  0  0  0  0  0  0  0  0  0  0  0  # atno 6908 bound_to 6896
  150.7820  134.6816  159.6492 H   0  0  0  0  0  0  0  0  0  0  0  0  # atno 6909 bound_to 6896
  145.6545  139.2456  143.1957 H   0  0  0  0  0  0  0  0  0  0  0  0  # atno 7974 bound_to 7965
  155.2596  140.3358  155.4274 H   0  0  0  0  0  0  0  0  0  0  0  0  # atno 8008 bound_to 7997
  156.2180  140.1797  156.7586 H   0  0  0  0  0  0  0  0  0  0  0  0  # atno 8009 bound_to 7997
  154.5783  140.0658  156.9051 H   0  0  0  0  0  0  0  0  0  0  0  0  # atno 8010 bound_to 7997
  139.9442  143.6128  152.2494 H   0  0  0  0  0  0  0  0  0  0  0  0  # atno 10167 bound_to 10162
  156.4098  130.7976  151.2192 H   0  0  0  0  0  0  0  0  0  0  0  0  # atno 10718 bound_to 10713
  154.6492  135.5361  153.7881 H   0  0  0  0  0  0  0  0  0  0  0  0  # atno 10763 bound_to 10752
  153.0376  135.6478  154.1043 H   0  0  0  0  0  0  0  0  0  0  0  0  # atno 10764 bound_to 10752
  154.0961  135.2936  155.3241 H   0  0  0  0  0  0  0  0  0  0  0  0  # atno 10765 bound_to 10752
  139.8801  134.9333  156.5503 H   0  0  0  0  0  0  0  0  0  0  0  0  # atno 11005 bound_to 11000
  146.1176  140.7350  142.9473 LP  0  0  0  0  0  0  0  0  0  0  0  0  # atno 17320 bound_to 7965
  144.7110  140.4040  143.7080 LP  0  0  0  0  0  0  0  0  0  0  0  0  # atno 17321 bound_to 7965
  139.6680  144.7662  151.1837 LP  0  0  0  0  0  0  0  0  0  0  0  0  # atno 17342 bound_to 10162
  140.7602  143.5908  150.8798 LP  0  0  0  0  0  0  0  0  0  0  0  0  # atno 17343 bound_to 10162
  157.7506  131.0261  150.3947 LP  0  0  0  0  0  0  0  0  0  0  0  0  # atno 17370 bound_to 10713
  156.4243  130.3959  149.6803 LP  0  0  0  0  0  0  0  0  0  0  0  0  # atno 17371 bound_to 10713
  140.8245  133.8327  155.8926 LP  0  0  0  0  0  0  0  0  0  0  0  0  # atno 17394 bound_to 11000
  140.9387  134.1929  157.4813 LP  0  0  0  0  0  0  0  0  0  0  0  0  # atno 17395 bound_to 11000

$$$$
