AV-unprocessed.smi:1128|AV-procd|sdf|4845|dock6
  -GOLD-   22720 3413D 1   1.00000     0.00000
 Structure written by MMmdl.
 37 38  0  0  0  0  0  0  0  0  2 V2000
  154.7647  141.0090  161.9680 O   0  0  0  0  0  0  0  0  0  0  0  0
  154.7253  140.1169  161.1212 C   0  0  0  0  0  0  0  0  0  0  0  0
  155.4270  138.9793  161.2232 N   0  0  0  0  0  0  0  0  0  0  0  0
  156.3164  138.6361  162.3279 C   0  0  0  0  0  0  0  0  0  0  0  0
  155.8922  137.3395  163.0492 C   0  0  1  0  0  0  0  0  0  0  0  0
  154.6060  137.5263  163.8888 C   0  0  0  0  0  0  0  0  0  0  0  0
  154.0167  136.2090  164.3608 C   0  0  0  0  0  0  0  0  0  0  0  0
  154.3774  135.0148  163.8622 C   0  0  0  0  0  0  0  0  0  0  0  0
  155.4100  134.8484  162.7633 C   0  0  0  0  0  0  0  0  0  0  0  0
  155.7224  136.1781  162.0518 C   0  0  0  0  0  0  0  0  0  0  0  0
  154.0087  140.1324  159.9826 N   0  0  0  0  0  0  0  0  0  0  0  0
  153.1410  141.1159  159.4759 C   0  0  0  0  0  0  0  0  0  0  0  0
  152.8598  142.3024  160.0836 C   0  0  0  0  0  0  0  0  0  0  0  0
  151.9456  143.2788  159.5040 C   0  0  0  0  0  0  0  0  0  0  0  0
  151.5475  144.5729  160.1915 C   0  0  0  0  0  0  0  0  0  0  0  0
  150.2291  144.6291  160.3819 F   0  0  0  0  0  0  0  0  0  0  0  0
  152.1485  144.6899  161.3757 F   0  0  0  0  0  0  0  0  0  0  0  0
  151.9031  145.6139  159.4401 F   0  0  0  0  0  0  0  0  0  0  0  0
  151.4015  142.8442  158.3111 C   0  0  0  0  0  0  0  0  0  0  0  0
  151.6325  141.6953  157.6394 N   0  5  0  0  0  0  0  0  0  0  0  0
  152.4919  140.7912  158.1884 C   0  0  0  0  0  0  0  0  0  0  0  0
  152.7362  139.7180  157.6357 O   0  0  0  0  0  0  0  0  0  0  0  0
  155.3420  138.3015  160.4799 H   0  0  0  0  0  0  0  0  0  0  0  0
  157.3237  138.5249  161.9255 H   0  0  0  0  0  0  0  0  0  0  0  0
  156.3601  139.4672  163.0338 H   0  0  0  0  0  0  0  0  0  0  0  0
  156.6964  137.0578  163.7312 H   0  0  0  0  0  0  0  0  0  0  0  0
  154.8152  138.1457  164.7616 H   0  0  0  0  0  0  0  0  0  0  0  0
  153.8424  138.0446  163.3080 H   0  0  0  0  0  0  0  0  0  0  0  0
  153.2632  136.2622  165.1329 H   0  0  0  0  0  0  0  0  0  0  0  0
  153.9319  134.1117  164.2533 H   0  0  0  0  0  0  0  0  0  0  0  0
  156.3157  134.4378  163.2104 H   0  0  0  0  0  0  0  0  0  0  0  0
  155.0520  134.1156  162.0398 H   0  0  0  0  0  0  0  0  0  0  0  0
  154.9136  136.4165  161.3598 H   0  0  0  0  0  0  0  0  0  0  0  0
  156.6206  136.0616  161.4444 H   0  0  0  0  0  0  0  0  0  0  0  0
  154.1216  139.3341  159.3751 H   0  0  0  0  0  0  0  0  0  0  0  0
  153.3026  142.5618  161.0303 H   0  0  0  0  0  0  0  0  0  0  0  0
  150.6649  143.5198  157.8257 H   0  0  0  0  0  0  0  0  0  0  0  0
  1  2  2  0  0  0  0
  2  3  1  0  0  0  0
  2 11  1  0  0  0  0
  3  4  1  0  0  0  0
  3 23  1  0  0  0  0
  4  5  1  0  0  0  0
  4 24  1  0  0  0  0
  4 25  1  0  0  0  0
  5 10  1  0  0  0  0
  5  6  1  0  0  0  0
  5 26  1  0  0  0  0
  6  7  1  0  0  0  0
  6 27  1  0  0  0  0
  6 28  1  0  0  0  0
  7  8  2  0  0  0  0
  7 29  1  0  0  0  0
  8  9  1  0  0  0  0
  8 30  1  0  0  0  0
  9 10  1  0  0  0  0
  9 31  1  0  0  0  0
  9 32  1  0  0  0  0
 10 33  1  0  0  0  0
 10 34  1  0  0  0  0
 11 12  1  0  0  0  0
 11 35  1  0  0  0  0
 12 21  1  0  0  0  0
 12 13  2  0  0  0  0
 13 14  1  0  0  0  0
 13 36  1  0  0  0  0
 14 15  1  0  0  0  0
 14 19  2  0  0  0  0
 15 16  1  0  0  0  0
 15 17  1  0  0  0  0
 15 18  1  0  0  0  0
 19 20  1  0  0  0  0
 19 37  1  0  0  0  0
 20 21  1  0  0  0  0
 21 22  2  0  0  0  0
M  CHG  1  20  -1
M  END
> <s_m_source_file>
AV-unprocessed.smi

> <i_m_source_file_index>
1128

> <i_lp_mmshare_version>
43012

> <i_f3d_flags>
0

> <s_epik_input>
Tz1jMVtuSF1bY0hdYyhDKEYpKEYpRilbY0hdYzFbTkhdQyg9TylbTkhdW0NIMl1bQ0BASF0yW0NIMl1bQ0hdPVtDSF1bQ0gyXVtDSDJdMg==

> <s_epik_cmdline>
J2VwaWtfcHl0aG9uJywgJy1waCcsICc3LjAnLCAnLXRuJywgJzgnLCAnLW1hJywgJzIwMCcsICctbWV0YWxfYmluZGluZycsICctaW1hZScsICc8aW5maWxlLm1hZT4nLCAnLW9tYWUnLCAnPG91dGZpbGUubWFlPic=

> <r_lp_tautomer_probability>
1

> <r_epik_Ionization_Penalty>
3.16664

> <r_epik_Ionization_Penalty_Charging>
0.172425

> <r_epik_Ionization_Penalty_Neutral>
2.99422

> <r_epik_State_Penalty>
2.99038

> <r_epik_Charging_Adjusted_Penalty>
3.16281

> <i_epik_Tot_Q>
-1

> <i_epik_Tot_abs_Q>
1

> <r_epik_Metal_State_Penalty>
0.453031

> <b_epik_Metal_Only>
1

> <s_lp_Force_Field>
OPLS_2005

> <r_lp_Energy>
22.2299

> <b_lp_Chiralities_Consistent>
1

> <s_lp_Variant>
AV-unprocessed.smi:1128-4

> <Gold.Version>
5.8.1

> <Gold.Id.Protein>
6NUR|6NUR_protein|mol2

> <Gold.PLP.Fitness>
46.3919

> <Gold.PLP.PLP>
-43.5125

> <Gold.PLP.part.hbond>
-2.0000

> <Gold.PLP.part.metal>
0.0000

> <Gold.PLP.part.buried>
-3.7581

> <Gold.PLP.part.nonpolar>
-36.6020

> <Gold.PLP.part.repulsive>
0.0887

> <Gold.PLP.ligand.clash>
0.0000

> <Gold.PLP.ligand.torsion>
0.0920

> <Gold.PLP.Chemscore.Hbond>
1.0000

> <Gold.PLP.Chemscore.CHOScore>
0.0000

> <Gold.PLP.Chemscore.Metal>
0.0000

> <Gold.Chemscore.Hbonds>
donor molecule, donor type, donor heavy atom, donor atom, acceptor molecule, acceptor atom, score
      P1  H  7997  8010       L1    22  1.00

> <Gold.PLP.Chemscore.Internal.Correction>
0.0635

> <Gold.Rescore>
     Score         DG    S(hbond)    S(metal)    S(lipo)     H(rot)  DE(clash)    DE(int)     intcor
     12.33     -13.88       0.52        0.00      85.21       1.29       0.25       1.30       ----

> <Gold.Chemscore.Fitness>
12.3271

> <Gold.Chemscore.DG>
-13.8818

> <Gold.Chemscore.ZeroCoef>
-5.4800

> <Gold.Chemscore.Hbond>
0.5224

> <Gold.Chemscore.Metal>
0.0000

> <Gold.Chemscore.Lipo>
85.2149

> <Gold.Chemscore.Internal_Hbond>
0.0000

> <Gold.Chemscore.DEClash>
0.2517

> <Gold.Chemscore.DEInternal>
1.3031

> <Gold.Chemscore.Rot>
1.2943

> <Gold.Chemscore.Internal.Correction>
   9.000000E+99

> <Gold.Chemscore.Hbonds>
donor molecule, donor type, donor heavy atom, donor atom, acceptor molecule, acceptor atom, score
      P1  H  7997  8010       L1    22  0.29

> <Gold.Chemscore.Hbond.Weighted>
-1.7450

> <Gold.Chemscore.Metal.Weighted>
-0.0000

> <Gold.Chemscore.Lipo.Weighted>
-9.9701

> <Gold.Chemscore.Internal_Hbond.Weighted>
0.0000

> <Gold.Chemscore.DEClash.Weighted>
0.2517

> <Gold.Chemscore.DEInternal.Weighted>
1.3031

> <Gold.Chemscore.Rot.Weighted>
3.3133

> <Gold.Chemscore.Internal.Correction.Weighted>
   9.000000E+99

> <Gold.Protein.RotatedTorsions>
[ 6907 6896 6895 6894 ] final   91.83 input  -60.11 | X-H torsion
[ 7974 7965 7964 7962 ] final  149.68 input  175.53 | X-H torsion
[ 8008 7997 7996 7995 ] final   37.88 input   59.86 | X-H torsion
[ 10167 10162 10161 10158 ] final  149.97 input  -65.29 | X-H torsion
[ 10718 10713 10712 10709 ] final   84.29 input   66.30 | X-H torsion
[ 10763 10752 10751 10750 ] final  -82.59 input  -60.55 | X-H torsion
[ 11005 11000 10999 10996 ] final  -74.55 input  -57.11 | X-H torsion

> <Gold.Protein.ActiveResidues>
 VAL166  LYS551  ARG553  GLY616  TRP617  ASP618  TYR619  PRO620  LYS621  CYS622 
 ASP623  PHE694  ASN695  SER759  ASP760  ASP761  ALA762  ILE779  LEU786  VAL792 
 PHE793  MET794  SER795  GLU796  ALA797  LYS798  CYS799  TRP800  GLU811  SER814 

> <Gold.Protein.RotatedAtoms>
  152.5451  134.1596  159.8551 H   0  0  0  0  0  0  0  0  0  0  0  0  # atno 6907 bound_to 6896
  151.1615  133.4835  159.2601 H   0  0  0  0  0  0  0  0  0  0  0  0  # atno 6908 bound_to 6896
  151.1368  135.0170  159.8662 H   0  0  0  0  0  0  0  0  0  0  0  0  # atno 6909 bound_to 6896
  144.8420  139.6311  143.6012 H   0  0  0  0  0  0  0  0  0  0  0  0  # atno 7974 bound_to 7965
  155.2110  140.3323  155.4329 H   0  0  0  0  0  0  0  0  0  0  0  0  # atno 8008 bound_to 7997
  156.2370  140.1877  156.7140 H   0  0  0  0  0  0  0  0  0  0  0  0  # atno 8009 bound_to 7997
  154.6078  140.0613  156.9439 H   0  0  0  0  0  0  0  0  0  0  0  0  # atno 8010 bound_to 7997
  139.4855  144.5559  151.7318 H   0  0  0  0  0  0  0  0  0  0  0  0  # atno 10167 bound_to 10162
  157.6895  131.0127  150.2651 H   0  0  0  0  0  0  0  0  0  0  0  0  # atno 10718 bound_to 10713
  154.5776  135.5586  153.7154 H   0  0  0  0  0  0  0  0  0  0  0  0  # atno 10763 bound_to 10752
  153.0070  135.6312  154.2027 H   0  0  0  0  0  0  0  0  0  0  0  0  # atno 10764 bound_to 10752
  154.1968  135.2880  155.2984 H   0  0  0  0  0  0  0  0  0  0  0  0  # atno 10765 bound_to 10752
  141.1636  133.6915  156.7381 H   0  0  0  0  0  0  0  0  0  0  0  0  # atno 11005 bound_to 11000
  146.2711  139.6637  142.9295 LP  0  0  0  0  0  0  0  0  0  0  0  0  # atno 17320 bound_to 7965
  145.4675  141.0435  143.2717 LP  0  0  0  0  0  0  0  0  0  0  0  0  # atno 17321 bound_to 7965
  140.5121  144.1009  150.5998 LP  0  0  0  0  0  0  0  0  0  0  0  0  # atno 17342 bound_to 10162
  140.3938  143.2738  152.0028 LP  0  0  0  0  0  0  0  0  0  0  0  0  # atno 17343 bound_to 10162
  156.3223  130.3788  149.7564 LP  0  0  0  0  0  0  0  0  0  0  0  0  # atno 17370 bound_to 10713
  156.5130  130.8180  151.3176 LP  0  0  0  0  0  0  0  0  0  0  0  0  # atno 17371 bound_to 10713
  140.2695  134.8403  157.3834 LP  0  0  0  0  0  0  0  0  0  0  0  0  # atno 17394 bound_to 11000
  140.1535  134.4819  155.7944 LP  0  0  0  0  0  0  0  0  0  0  0  0  # atno 17395 bound_to 11000

$$$$
