AV-unprocessed.smi:238|AV-procd|sdf|1819|dock4
  -GOLD-   2262020413D 1   1.00000     0.00000
 Structure written by MMmdl.
 52 54  0  0  0  0  0  0  0  0  1 V2000
  150.6297  136.8779  155.0146 C   0  0  0  0  0  0  0  0  0  0  0  0
  151.1981  135.7045  155.5837 O   0  0  0  0  0  0  0  0  0  0  0  0
  150.3292  134.6034  155.8729 C   0  0  0  0  0  0  0  0  0  0  0  0
  149.8380  134.1137  154.4985 C   0  0  0  0  0  0  0  0  0  0  0  0
  151.1019  133.4468  156.5445 C   0  0  0  0  0  0  0  0  0  0  0  0
  149.1579  135.0480  156.7965 C   0  0  0  0  0  0  0  0  0  0  0  0
  148.0896  135.8060  156.1390 N   0  0  0  0  0  0  0  0  0  0  0  0
  147.7542  137.1509  156.5983 C   0  0  0  0  0  0  0  0  0  0  0  0
  147.1649  135.1296  155.4134 C   0  0  0  0  0  0  0  0  0  0  0  0
  146.9159  133.8282  155.7155 N   0  0  0  0  0  0  0  0  0  0  0  0
  146.0396  133.1241  154.9943 C   0  0  0  0  0  0  0  0  0  0  0  0
  145.3056  133.5217  153.9538 N   0  0  0  0  0  0  0  0  0  0  0  0
  145.5290  134.8351  153.6615 C   0  0  0  0  0  0  0  0  0  0  0  0
  146.4356  135.7037  154.3333 C   0  0  0  0  0  0  0  0  0  0  0  0
  146.3907  136.9661  153.7548 N   0  0  0  0  0  0  0  0  0  0  0  0
  145.5310  136.8430  152.7816 C   0  0  0  0  0  0  0  0  0  0  0  0
  144.9379  135.6040  152.6723 N   0  0  0  0  0  0  0  0  0  0  0  0
  143.9843  135.1750  151.6838 C   0  0  0  0  0  0  0  0  0  0  0  0
  143.4733  133.7288  151.6334 C   0  0  0  0  0  0  0  0  0  0  0  0
  144.4254  133.4253  150.4563 C   0  0  0  0  0  0  0  0  0  0  0  0
  145.7904  132.8253  150.8511 C   0  0  0  0  0  0  0  0  0  0  0  0
  146.5932  132.5719  149.7158 O   0  0  0  0  0  0  0  0  0  0  0  0
  143.8210  132.5928  149.3133 C   0  0  0  0  0  0  0  0  0  0  0  0
  143.2808  131.3776  149.7920 O   0  0  0  0  0  0  0  0  0  0  0  0
  144.4252  134.9521  150.2319 C   0  0  0  0  0  0  0  0  0  0  0  0
  151.4318  137.5339  154.6768 H   0  0  0  0  0  0  0  0  0  0  0  0
  150.0444  137.4317  155.7485 H   0  0  0  0  0  0  0  0  0  0  0  0
  149.9958  136.6629  154.1564 H   0  0  0  0  0  0  0  0  0  0  0  0
  149.0904  133.3262  154.5983 H   0  0  0  0  0  0  0  0  0  0  0  0
  150.6625  133.7135  153.9076 H   0  0  0  0  0  0  0  0  0  0  0  0
  149.4012  134.9240  153.9155 H   0  0  0  0  0  0  0  0  0  0  0  0
  150.4732  132.5608  156.6399 H   0  0  0  0  0  0  0  0  0  0  0  0
  151.4367  133.7056  157.5493 H   0  0  0  0  0  0  0  0  0  0  0  0
  151.9793  133.1637  155.9621 H   0  0  0  0  0  0  0  0  0  0  0  0
  148.7011  134.1559  157.2260 H   0  0  0  0  0  0  0  0  0  0  0  0
  149.5346  135.6004  157.6550 H   0  0  0  0  0  0  0  0  0  0  0  0
  147.4528  137.7726  155.7545 H   0  0  0  0  0  0  0  0  0  0  0  0
  148.6143  137.6260  157.0705 H   0  0  0  0  0  0  0  0  0  0  0  0
  146.9373  137.1387  157.3197 H   0  0  0  0  0  0  0  0  0  0  0  0
  145.9087  132.0945  155.2928 H   0  0  0  0  0  0  0  0  0  0  0  0
  145.3058  137.6676  152.1222 H   0  0  0  0  0  0  0  0  0  0  0  0
  143.1584  135.8850  151.7429 H   0  0  0  0  0  0  0  0  0  0  0  0
  143.6505  133.1283  152.5249 H   0  0  0  0  0  0  0  0  0  0  0  0
  142.4209  133.6794  151.3483 H   0  0  0  0  0  0  0  0  0  0  0  0
  146.3360  133.4848  151.5262 H   0  0  0  0  0  0  0  0  0  0  0  0
  145.6680  131.8844  151.3874 H   0  0  0  0  0  0  0  0  0  0  0  0
  147.4292  132.2418  150.0079 H   0  0  0  0  0  0  0  0  0  0  0  0
  143.0425  133.1429  148.7839 H   0  0  0  0  0  0  0  0  0  0  0  0
  144.5801  132.3479  148.5697 H   0  0  0  0  0  0  0  0  0  0  0  0
  142.3500  131.4895  149.9120 H   0  0  0  0  0  0  0  0  0  0  0  0
  143.6672  135.2772  149.5170 H   0  0  0  0  0  0  0  0  0  0  0  0
  145.4008  135.3634  149.9723 H   0  0  0  0  0  0  0  0  0  0  0  0
  1  2  1  0  0  0  0
  1 26  1  0  0  0  0
  1 27  1  0  0  0  0
  1 28  1  0  0  0  0
  2  3  1  0  0  0  0
  3  4  1  0  0  0  0
  3  5  1  0  0  0  0
  3  6  1  0  0  0  0
  4 29  1  0  0  0  0
  4 30  1  0  0  0  0
  4 31  1  0  0  0  0
  5 32  1  0  0  0  0
  5 33  1  0  0  0  0
  5 34  1  0  0  0  0
  6  7  1  0  0  0  0
  6 35  1  0  0  0  0
  6 36  1  0  0  0  0
  7  8  1  0  0  0  0
  7  9  1  0  0  0  0
  8 37  1  0  0  0  0
  8 38  1  0  0  0  0
  8 39  1  0  0  0  0
  9 14  1  0  0  0  0
  9 10  2  0  0  0  0
 10 11  1  0  0  0  0
 11 12  2  0  0  0  0
 11 40  1  0  0  0  0
 12 13  1  0  0  0  0
 13 17  1  0  0  0  0
 13 14  2  0  0  0  0
 14 15  1  0  0  0  0
 15 16  2  0  0  0  0
 16 17  1  0  0  0  0
 16 41  1  0  0  0  0
 17 18  1  0  0  0  0
 18 25  1  0  0  0  0
 18 19  1  0  0  0  0
 18 42  1  0  0  0  0
 19 20  1  0  0  0  0
 19 43  1  0  0  0  0
 19 44  1  0  0  0  0
 20 21  1  0  0  0  0
 20 23  1  0  0  0  0
 20 25  1  0  0  0  0
 21 22  1  0  0  0  0
 21 45  1  0  0  0  0
 21 46  1  0  0  0  0
 22 47  1  0  0  0  0
 23 24  1  0  0  0  0
 23 48  1  0  0  0  0
 23 49  1  0  0  0  0
 24 50  1  0  0  0  0
 25 51  1  0  0  0  0
 25 52  1  0  0  0  0
M  END
> <s_m_source_file>
AV-unprocessed.smi

> <i_m_source_file_index>
238

> <i_lp_mmshare_version>
43012

> <i_f3d_flags>
0

> <s_epik_input>
W0NIM11PQyhbQ0gzXSkoW0NIM10pW0NIMl1OKFtDSDNdKWMobltjSF1uMSljKGMxMiluW2NIXW4yW0NIXShbQ0gyXTMpW0NIMl1DMyhbQ0gyXVtPSF0pW0NIMl1bT0hd

> <s_epik_cmdline>
J2VwaWtfcHl0aG9uJywgJy1waCcsICc3LjAnLCAnLXRuJywgJzgnLCAnLW1hJywgJzIwMCcsICctbWV0YWxfYmluZGluZycsICctaW1hZScsICc8aW5maWxlLm1hZT4nLCAnLW9tYWUnLCAnPG91dGZpbGUubWFlPic=

> <r_lp_tautomer_probability>
1

> <r_epik_Ionization_Penalty>
0.00209421

> <r_epik_Ionization_Penalty_Charging>
0

> <r_epik_Ionization_Penalty_Neutral>
0.00209421

> <r_epik_State_Penalty>
0.00129171

> <r_epik_Charging_Adjusted_Penalty>
0.00129171

> <i_epik_Tot_Q>
0

> <i_epik_Tot_abs_Q>
0

> <r_epik_Metal_State_Penalty>
-0

> <b_epik_Metal_Only>
0

> <s_lp_Force_Field>
OPLS_2005

> <r_lp_Energy>
43.4617

> <b_lp_Chiralities_Consistent>
1

> <s_lp_Variant>
AV-unprocessed.smi:238-1

> <Gold.Version>
5.8.1

> <Gold.Id.Protein>
6NUR|6NUR_protein|mol2

> <Gold.PLP.Fitness>
42.5365

> <Gold.PLP.PLP>
-31.1001

> <Gold.PLP.part.hbond>
-4.9953

> <Gold.PLP.part.metal>
0.0000

> <Gold.PLP.part.buried>
-2.3978

> <Gold.PLP.part.nonpolar>
-25.8431

> <Gold.PLP.part.repulsive>
0.9075

> <Gold.PLP.ligand.clash>
0.0000

> <Gold.PLP.ligand.torsion>
1.4833

> <Gold.PLP.Chemscore.Hbond>
3.6080

> <Gold.PLP.Chemscore.CHOScore>
0.8968

> <Gold.PLP.Chemscore.Metal>
0.0000

> <Gold.Chemscore.Hbonds>
donor molecule, donor type, donor heavy atom, donor atom, acceptor molecule, acceptor atom, score
      L1  H    22    47       P1 10747  0.88
      L1  H    24    50       P1 10952  0.67
      P1  H 10752 10765       L1     2  1.00
      P1  H 10785 10796       L1    24  0.85
      L1  C    16    41       P1 10171  0.15

> <Gold.PLP.Chemscore.Internal.Correction>
0.8885

> <Gold.Rescore>
     Score         DG    S(hbond)    S(metal)    S(lipo)     H(rot)  DE(clash)    DE(int)     intcor
      8.79     -13.16       2.56        0.00      71.89       3.63       1.48       2.90       ----

> <Gold.Chemscore.Fitness>
8.7885

> <Gold.Chemscore.DG>
-13.1639

> <Gold.Chemscore.ZeroCoef>
-5.4800

> <Gold.Chemscore.Hbond>
2.5615

> <Gold.Chemscore.Metal>
0.0000

> <Gold.Chemscore.Lipo>
71.8939

> <Gold.Chemscore.Internal_Hbond>
0.0000

> <Gold.Chemscore.DEClash>
1.4780

> <Gold.Chemscore.DEInternal>
2.8974

> <Gold.Chemscore.Rot>
3.6261

> <Gold.Chemscore.Internal.Correction>
   9.000000E+99

> <Gold.Chemscore.Hbonds>
donor molecule, donor type, donor heavy atom, donor atom, acceptor molecule, acceptor atom, score
      L1  H    22    47       P1 10747  0.85
      L1  H    24    50       P1 10952  0.65
      P1  H 10752 10765       L1     2  0.72
      P1  H 10785 10796       L1    24  0.14

> <Gold.Chemscore.Hbond.Weighted>
-8.5553

> <Gold.Chemscore.Metal.Weighted>
-0.0000

> <Gold.Chemscore.Lipo.Weighted>
-8.4116

> <Gold.Chemscore.Internal_Hbond.Weighted>
0.0000

> <Gold.Chemscore.DEClash.Weighted>
1.4780

> <Gold.Chemscore.DEInternal.Weighted>
2.8974

> <Gold.Chemscore.Rot.Weighted>
9.2829

> <Gold.Chemscore.Internal.Correction.Weighted>
   9.000000E+99

> <Gold.Protein.RotatedTorsions>
[ 6907 6896 6895 6894 ] final  -57.44 input  -60.11 | X-H torsion
[ 7974 7965 7964 7962 ] final   72.91 input  175.53 | X-H torsion
[ 8008 7997 7996 7995 ] final  -84.99 input   59.86 | X-H torsion
[ 10167 10162 10161 10158 ] final  127.43 input  -65.29 | X-H torsion
[ 10718 10713 10712 10709 ] final -104.20 input   66.30 | X-H torsion
[ 10763 10752 10751 10750 ] final -152.18 input  -60.55 | X-H torsion
[ 11005 11000 10999 10996 ] final  125.68 input  -57.11 | X-H torsion

> <Gold.Protein.ActiveResidues>
 VAL166  LYS551  ARG553  GLY616  TRP617  ASP618  TYR619  PRO620  LYS621  CYS622 
 ASP623  PHE694  ASN695  SER759  ASP760  ASP761  ALA762  ILE779  LEU786  VAL792 
 PHE793  MET794  SER795  GLU796  ALA797  LYS798  CYS799  TRP800  GLU811  SER814 

> <Gold.Protein.RotatedAtoms>
  150.8086  134.7226  159.6666 H   0  0  0  0  0  0  0  0  0  0  0  0  # atno 6907 bound_to 6896
  152.4206  134.5959  159.9997 H   0  0  0  0  0  0  0  0  0  0  0  0  # atno 6908 bound_to 6896
  151.6176  133.3304  159.3117 H   0  0  0  0  0  0  0  0  0  0  0  0  # atno 6909 bound_to 6896
  145.7474  139.2746  143.1451 H   0  0  0  0  0  0  0  0  0  0  0  0  # atno 7974 bound_to 7965
  154.6358  140.0597  156.9787 H   0  0  0  0  0  0  0  0  0  0  0  0  # atno 8008 bound_to 7997
  155.1594  140.3281  155.4396 H   0  0  0  0  0  0  0  0  0  0  0  0  # atno 8009 bound_to 7997
  156.2506  140.1933  156.6702 H   0  0  0  0  0  0  0  0  0  0  0  0  # atno 8010 bound_to 7997
  139.5578  144.6861  151.4130 H   0  0  0  0  0  0  0  0  0  0  0  0  # atno 10167 bound_to 10162
  156.0295  130.5504  150.7362 H   0  0  0  0  0  0  0  0  0  0  0  0  # atno 10718 bound_to 10713
  154.8011  135.3242  154.7548 H   0  0  0  0  0  0  0  0  0  0  0  0  # atno 10763 bound_to 10752
  153.8216  135.6887  153.4831 H   0  0  0  0  0  0  0  0  0  0  0  0  # atno 10764 bound_to 10752
  153.1728  135.4616  154.9868 H   0  0  0  0  0  0  0  0  0  0  0  0  # atno 10765 bound_to 10752
  139.9418  134.9634  156.8594 H   0  0  0  0  0  0  0  0  0  0  0  0  # atno 11005 bound_to 11000
  146.0389  140.8184  142.9838 LP  0  0  0  0  0  0  0  0  0  0  0  0  # atno 17320 bound_to 7965
  144.6857  140.2881  143.7282 LP  0  0  0  0  0  0  0  0  0  0  0  0  # atno 17321 bound_to 7965
  140.6854  143.7986  150.7179 LP  0  0  0  0  0  0  0  0  0  0  0  0  # atno 17342 bound_to 10162
  140.1452  143.4406  152.2168 LP  0  0  0  0  0  0  0  0  0  0  0  0  # atno 17343 bound_to 10162
  157.4942  131.0913  151.0391 LP  0  0  0  0  0  0  0  0  0  0  0  0  # atno 17370 bound_to 10713
  157.0789  130.5895  149.5416 LP  0  0  0  0  0  0  0  0  0  0  0  0  # atno 17371 bound_to 10713
  140.5932  134.0242  155.7508 LP  0  0  0  0  0  0  0  0  0  0  0  0  # atno 17394 bound_to 11000
  141.1055  133.9700  157.3003 LP  0  0  0  0  0  0  0  0  0  0  0  0  # atno 17395 bound_to 11000

$$$$
