AV-unprocessed.smi:44|AV-procd|sdf|395|dock9
  -GOLD-   2262016253D 1   1.00000     0.00000
 Structure written by MMmdl.
 29 31  0  0  0  0  0  0  0  0  1 V2000
  145.0113  142.3715  155.3565 O   0  0  0  0  0  0  0  0  0  0  0  0
  146.0802  141.8848  154.9937 C   0  0  0  0  0  0  0  0  0  0  0  0
  146.2630  141.2809  153.7942 N   0  0  0  0  0  0  0  0  0  0  0  0
  147.4927  140.7178  153.3699 C   0  0  0  0  0  0  0  0  0  0  0  0
  148.5950  140.7065  154.0738 N   0  0  0  0  0  0  0  0  0  0  0  0
  148.4379  141.3154  155.3028 C   0  0  0  0  0  0  0  0  0  0  0  0
  147.3097  141.8939  155.8208 C   0  0  0  0  0  0  0  0  0  0  0  0
  147.5407  142.4095  157.0898 N   0  0  0  0  0  0  0  0  0  0  0  0
  148.8240  142.1137  157.2853 C   0  0  0  0  0  0  0  0  0  0  0  0
  149.4275  141.4601  156.2735 N   0  0  0  0  0  0  0  0  0  0  0  0
  150.8537  141.0139  156.2340 C   0  0  1  0  0  0  0  0  0  0  0  0
  151.2455  140.2979  157.5337 C   0  0  0  0  0  0  0  0  0  0  0  0
  151.5085  138.8786  157.0673 C   0  0  0  0  0  0  0  0  0  0  0  0
  151.8831  139.0696  155.5991 C   0  0  1  0  0  0  0  0  0  0  0  0
  151.6701  137.8093  154.7479 C   0  0  0  0  0  0  0  0  0  0  0  0
  151.9996  136.6581  155.4953 O   0  0  0  0  0  0  0  0  0  0  0  0
  150.9930  140.0996  155.1905 O   0  0  0  0  0  0  0  0  0  0  0  0
  145.4702  141.2332  153.1706 H   0  0  0  0  0  0  0  0  0  0  0  0
  151.4360  141.9173  156.0471 H   0  0  0  0  0  0  0  0  0  0  0  0
  152.9138  139.4240  155.5328 H   0  0  0  0  0  0  0  0  0  0  0  0
  147.4376  140.2797  152.3723 H   0  0  0  0  0  0  0  0  0  0  0  0
  149.3413  142.3786  158.1957 H   0  0  0  0  0  0  0  0  0  0  0  0
  152.1563  140.7554  157.9218 H   0  0  0  0  0  0  0  0  0  0  0  0
  150.4663  140.3629  158.2946 H   0  0  0  0  0  0  0  0  0  0  0  0
  152.2910  138.3823  157.6418 H   0  0  0  0  0  0  0  0  0  0  0  0
  150.5994  138.2829  157.1550 H   0  0  0  0  0  0  0  0  0  0  0  0
  150.6215  137.7236  154.4617 H   0  0  0  0  0  0  0  0  0  0  0  0
  152.2554  137.8487  153.8283 H   0  0  0  0  0  0  0  0  0  0  0  0
  151.2054  136.2967  155.8578 H   0  0  0  0  0  0  0  0  0  0  0  0
  1  2  2  0  0  0  0
  2  7  1  0  0  0  0
  2  3  1  0  0  0  0
  3 18  1  0  0  0  0
  3  4  1  0  0  0  0
  4  5  2  0  0  0  0
  4 21  1  0  0  0  0
  5  6  1  0  0  0  0
  6 10  1  0  0  0  0
  6  7  2  0  0  0  0
  7  8  1  0  0  0  0
  8  9  2  0  0  0  0
  9 10  1  0  0  0  0
  9 22  1  0  0  0  0
 10 11  1  0  0  0  0
 11 19  1  0  0  0  0
 11 17  1  0  0  0  0
 11 12  1  0  0  0  0
 12 13  1  0  0  0  0
 12 23  1  0  0  0  0
 12 24  1  0  0  0  0
 13 14  1  0  0  0  0
 13 25  1  0  0  0  0
 13 26  1  0  0  0  0
 14 20  1  0  0  0  0
 14 15  1  0  0  0  0
 14 17  1  0  0  0  0
 15 16  1  0  0  0  0
 15 27  1  0  0  0  0
 15 28  1  0  0  0  0
 16 29  1  0  0  0  0
M  END
> <s_m_source_file>
AV-unprocessed.smi

> <i_m_source_file_index>
44

> <i_lp_mmshare_version>
43012

> <i_f3d_flags>
0

> <s_epik_input>
bjFbY0hdW25IXWMoPU8pYyhjMTIpbltjSF1uMltDQEhdM1tDSDJdW0NIMl1bQ0BIXShPMylbQ0gyXVtPSF0=

> <s_epik_cmdline>
J2VwaWtfcHl0aG9uJywgJy1waCcsICc3LjAnLCAnLXRuJywgJzgnLCAnLW1hJywgJzIwMCcsICctbWV0YWxfYmluZGluZycsICctaW1hZScsICc8aW5maWxlLm1hZT4nLCAnLW9tYWUnLCAnPG91dGZpbGUubWFlPic=

> <r_lp_tautomer_probability>
0.85571

> <r_epik_Ionization_Penalty>
0.00801444

> <r_epik_Ionization_Penalty_Charging>
0.00794574

> <r_epik_Ionization_Penalty_Neutral>
6.87072e-05

> <r_epik_State_Penalty>
0.0826172

> <r_epik_Charging_Adjusted_Penalty>
0.090563

> <i_epik_Tot_Q>
0

> <i_epik_Tot_abs_Q>
0

> <r_epik_Metal_State_Penalty>
0.440697

> <b_epik_Metal_Only>
0

> <s_epik_Chemistry_Notes>
This compound contains an acetal/aminal-like group ( X-CH(R)-Y where X, Y are N, S, or O) that may be acid/base labile, releasing an aldehyde.

> <s_lp_Force_Field>
OPLS_2005

> <r_lp_Energy>
43.2881

> <b_lp_Chiralities_Consistent>
1

> <s_lp_Variant>
AV-unprocessed.smi:44-1

> <Gold.Version>
5.8.1

> <Gold.Id.Protein>
6NUR|6NUR_protein|mol2

> <Gold.PLP.Fitness>
35.0661

> <Gold.PLP.PLP>
-25.3912

> <Gold.PLP.part.hbond>
-2.8469

> <Gold.PLP.part.metal>
0.0000

> <Gold.PLP.part.buried>
-4.9585

> <Gold.PLP.part.nonpolar>
-19.6691

> <Gold.PLP.part.repulsive>
0.5061

> <Gold.PLP.ligand.clash>
0.0000

> <Gold.PLP.ligand.torsion>
0.6292

> <Gold.PLP.Chemscore.Hbond>
2.9000

> <Gold.PLP.Chemscore.CHOScore>
0.7398

> <Gold.PLP.Chemscore.Metal>
0.0000

> <Gold.Chemscore.Hbonds>
donor molecule, donor type, donor heavy atom, donor atom, acceptor molecule, acceptor atom, score
      L1  H     3    18       P1 10175  0.86
      P1  H  7989  7998       L1    17  1.00
      P1  H 10752 10765       L1    16  1.00
      L1  C     4    21       P1  7957  0.74

> <Gold.PLP.Chemscore.Internal.Correction>
0.0139

> <Gold.Rescore>
     Score         DG    S(hbond)    S(metal)    S(lipo)     H(rot)  DE(clash)    DE(int)     intcor
      8.22     -10.16       2.17        0.00      27.83       2.27       0.01       1.93       ----

> <Gold.Chemscore.Fitness>
8.2213

> <Gold.Chemscore.DG>
-10.1569

> <Gold.Chemscore.ZeroCoef>
-5.4800

> <Gold.Chemscore.Hbond>
2.1670

> <Gold.Chemscore.Metal>
0.0000

> <Gold.Chemscore.Lipo>
27.8259

> <Gold.Chemscore.Internal_Hbond>
0.0000

> <Gold.Chemscore.DEClash>
0.0057

> <Gold.Chemscore.DEInternal>
1.9300

> <Gold.Chemscore.Rot>
2.2720

> <Gold.Chemscore.Internal.Correction>
   9.000000E+99

> <Gold.Chemscore.Hbonds>
donor molecule, donor type, donor heavy atom, donor atom, acceptor molecule, acceptor atom, score
      L1  H     3    18       P1 10175  0.16
      P1  H  7989  7998       L1    17  0.62
      P1  H 10752 10765       L1    16  0.73

> <Gold.Chemscore.Hbond.Weighted>
-7.2377

> <Gold.Chemscore.Metal.Weighted>
-0.0000

> <Gold.Chemscore.Lipo.Weighted>
-3.2556

> <Gold.Chemscore.Internal_Hbond.Weighted>
0.0000

> <Gold.Chemscore.DEClash.Weighted>
0.0057

> <Gold.Chemscore.DEInternal.Weighted>
1.9300

> <Gold.Chemscore.Rot.Weighted>
5.8164

> <Gold.Chemscore.Internal.Correction.Weighted>
   9.000000E+99

> <Gold.Protein.RotatedTorsions>
[ 6907 6896 6895 6894 ] final -169.16 input  -60.11 | X-H torsion
[ 7974 7965 7964 7962 ] final  155.06 input  175.53 | X-H torsion
[ 8008 7997 7996 7995 ] final  -11.00 input   59.86 | X-H torsion
[ 10167 10162 10161 10158 ] final   93.60 input  -65.29 | X-H torsion
[ 10718 10713 10712 10709 ] final   10.34 input   66.30 | X-H torsion
[ 10763 10752 10751 10750 ] final -178.95 input  -60.55 | X-H torsion
[ 11005 11000 10999 10996 ] final  -66.18 input  -57.11 | X-H torsion

> <Gold.Protein.ActiveResidues>
 VAL166  LYS551  ARG553  GLY616  TRP617  ASP618  TYR619  PRO620  LYS621  CYS622 
 ASP623  PHE694  ASN695  SER759  ASP760  ASP761  ALA762  ILE779  LEU786  VAL792 
 PHE793  MET794  SER795  GLU796  ALA797  LYS798  CYS799  TRP800  GLU811  SER814 

> <Gold.Protein.RotatedAtoms>
  151.4872  133.3533  159.2847 H   0  0  0  0  0  0  0  0  0  0  0  0  # atno 6907 bound_to 6896
  150.8858  134.8258  159.7269 H   0  0  0  0  0  0  0  0  0  0  0  0  # atno 6908 bound_to 6896
  152.4792  134.4776  159.9707 H   0  0  0  0  0  0  0  0  0  0  0  0  # atno 6909 bound_to 6896
  144.8049  139.7017  143.6166 H   0  0  0  0  0  0  0  0  0  0  0  0  # atno 7974 bound_to 7965
  154.5503  140.2314  155.8495 H   0  0  0  0  0  0  0  0  0  0  0  0  # atno 8008 bound_to 7997
  156.1941  140.3069  155.9352 H   0  0  0  0  0  0  0  0  0  0  0  0  # atno 8009 bound_to 7997
  155.3083  140.0434  157.3024 H   0  0  0  0  0  0  0  0  0  0  0  0  # atno 8010 bound_to 7997
  139.8164  144.6751  150.9575 H   0  0  0  0  0  0  0  0  0  0  0  0  # atno 10167 bound_to 10162
  156.9795  130.6000  149.5675 H   0  0  0  0  0  0  0  0  0  0  0  0  # atno 10718 bound_to 10713
  154.5413  135.2806  155.1093 H   0  0  0  0  0  0  0  0  0  0  0  0  # atno 10763 bound_to 10752
  154.2575  135.6328  153.5266 H   0  0  0  0  0  0  0  0  0  0  0  0  # atno 10764 bound_to 10752
  152.9979  135.5597  154.5953 H   0  0  0  0  0  0  0  0  0  0  0  0  # atno 10765 bound_to 10752
  141.1475  133.6694  156.6099 H   0  0  0  0  0  0  0  0  0  0  0  0  # atno 11005 bound_to 11000
  146.2338  139.5865  142.9537 LP  0  0  0  0  0  0  0  0  0  0  0  0  # atno 17320 bound_to 7965
  145.5463  141.0417  143.2303 LP  0  0  0  0  0  0  0  0  0  0  0  0  # atno 17321 bound_to 7965
  140.7815  143.4135  151.0955 LP  0  0  0  0  0  0  0  0  0  0  0  0  # atno 17342 bound_to 10162
  139.7798  143.8372  152.3135 LP  0  0  0  0  0  0  0  0  0  0  0  0  # atno 17343 bound_to 10162
  156.0250  130.5344  150.8381 LP  0  0  0  0  0  0  0  0  0  0  0  0  # atno 17370 bound_to 10713
  157.5536  131.0944  150.9661 LP  0  0  0  0  0  0  0  0  0  0  0  0  # atno 17371 bound_to 10713
  140.3622  134.7678  157.4542 LP  0  0  0  0  0  0  0  0  0  0  0  0  # atno 17394 bound_to 11000
  140.0776  134.5776  155.8575 LP  0  0  0  0  0  0  0  0  0  0  0  0  # atno 17395 bound_to 11000

$$$$
