AV-unprocessed.smi:2822|AV-procd|sdf|10867|dock9
  -GOLD-   2272015313D 1   1.00000     0.00000
 Structure written by MMmdl.
 41 43  0  0  0  0  0  0  0  0  3 V2000
  146.7429  141.7432  157.6211 Cl  0  0  0  0  0  0  0  0  0  0  0  0
  146.9754  141.2765  155.9727 C   0  0  0  0  0  0  0  0  0  0  0  0
  145.8770  141.3000  155.0887 C   0  0  0  0  0  0  0  0  0  0  0  0
  146.0405  140.9389  153.7984 N   0  3  0  0  0  0  0  0  0  0  0  0
  147.2304  140.5471  153.2962 C   0  0  0  0  0  0  0  0  0  0  0  0
  148.3660  140.5032  154.1305 C   0  0  0  0  0  0  0  0  0  0  0  0
  148.2462  140.8718  155.4941 C   0  0  0  0  0  0  0  0  0  0  0  0
  149.3357  140.8454  156.3788 N   0  0  0  0  0  0  0  0  0  0  0  0
  150.6967  141.0579  155.9093 C   0  0  0  0  0  0  0  0  0  0  0  0
  151.5851  141.6580  157.0088 C   0  0  1  0  0  0  0  0  0  0  0  0
  150.8560  142.7676  157.7890 C   0  0  0  0  0  0  0  0  0  0  0  0
  151.7081  143.2796  158.8877 N   0  3  1  0  0  0  0  0  0  0  0  0
  151.0584  144.3806  159.6433 C   0  0  0  0  0  0  0  0  0  0  0  0
  152.0040  144.9514  160.7126 C   0  0  0  0  0  0  0  0  0  0  0  0
  152.4915  143.8456  161.6574 C   0  0  0  0  0  0  0  0  0  0  0  0
  153.1324  142.7088  160.8501 C   0  0  0  0  0  0  0  0  0  0  0  0
  152.1677  142.1746  159.7726 C   0  0  2  0  0  0  0  0  0  0  0  0
  152.8265  141.0647  158.9302 C   0  0  0  0  0  0  0  0  0  0  0  0
  151.9259  140.6213  157.9230 O   0  0  0  0  0  0  0  0  0  0  0  0
  144.8778  141.5952  155.3740 H   0  0  0  0  0  0  0  0  0  0  0  0
  147.2389  140.2815  152.2490 H   0  0  0  0  0  0  0  0  0  0  0  0
  149.3083  140.1852  153.7099 H   0  0  0  0  0  0  0  0  0  0  0  0
  149.1591  140.8787  157.3735 H   0  0  0  0  0  0  0  0  0  0  0  0
  151.1086  140.0972  155.5978 H   0  0  0  0  0  0  0  0  0  0  0  0
  150.6889  141.7090  155.0342 H   0  0  0  0  0  0  0  0  0  0  0  0
  152.4909  142.0666  156.5558 H   0  0  0  0  0  0  0  0  0  0  0  0
  150.5997  143.5875  157.1168 H   0  0  0  0  0  0  0  0  0  0  0  0
  149.9200  142.3863  158.2007 H   0  0  0  0  0  0  0  0  0  0  0  0
  150.7658  145.1739  158.9544 H   0  0  0  0  0  0  0  0  0  0  0  0
  150.1438  144.0130  160.1111 H   0  0  0  0  0  0  0  0  0  0  0  0
  152.8595  145.4267  160.2308 H   0  0  0  0  0  0  0  0  0  0  0  0
  151.4964  145.7308  161.2818 H   0  0  0  0  0  0  0  0  0  0  0  0
  153.2075  144.2497  162.3739 H   0  0  0  0  0  0  0  0  0  0  0  0
  151.6525  143.4595  162.2379 H   0  0  0  0  0  0  0  0  0  0  0  0
  154.0490  143.0692  160.3809 H   0  0  0  0  0  0  0  0  0  0  0  0
  153.4269  141.9021  161.5225 H   0  0  0  0  0  0  0  0  0  0  0  0
  151.2912  141.7526  160.2679 H   0  0  0  0  0  0  0  0  0  0  0  0
  153.7544  141.4138  158.4737 H   0  0  0  0  0  0  0  0  0  0  0  0
  153.0852  140.2157  159.5636 H   0  0  0  0  0  0  0  0  0  0  0  0
  152.5346  143.6700  158.4578 H   0  0  0  0  0  0  0  0  0  0  0  0
  145.2311  140.9632  153.1775 H   0  0  0  0  0  0  0  0  0  0  0  0
  1  2  1  0  0  0  0
  2  7  1  0  0  0  0
  2  3  2  0  0  0  0
  3  4  1  0  0  0  0
  3 20  1  0  0  0  0
  4  5  2  0  0  0  0
  4 41  1  0  0  0  0
  5  6  1  0  0  0  0
  5 21  1  0  0  0  0
  6  7  2  0  0  0  0
  6 22  1  0  0  0  0
  7  8  1  0  0  0  0
  8  9  1  0  0  0  0
  8 23  1  0  0  0  0
  9 10  1  0  0  0  0
  9 24  1  0  0  0  0
  9 25  1  0  0  0  0
 10 19  1  0  0  0  0
 10 11  1  0  0  0  0
 10 26  1  0  0  0  0
 11 12  1  0  0  0  0
 11 27  1  0  0  0  0
 11 28  1  0  0  0  0
 12 17  1  0  0  0  0
 12 13  1  0  0  0  0
 12 40  1  0  0  0  0
 13 14  1  0  0  0  0
 13 29  1  0  0  0  0
 13 30  1  0  0  0  0
 14 15  1  0  0  0  0
 14 31  1  0  0  0  0
 14 32  1  0  0  0  0
 15 16  1  0  0  0  0
 15 33  1  0  0  0  0
 15 34  1  0  0  0  0
 16 17  1  0  0  0  0
 16 35  1  0  0  0  0
 16 36  1  0  0  0  0
 17 18  1  0  0  0  0
 17 37  1  0  0  0  0
 18 19  1  0  0  0  0
 18 38  1  0  0  0  0
 18 39  1  0  0  0  0
M  CHG  1   4   1
M  CHG  1  12   1
M  END
> <s_m_source_file>
AV-unprocessed.smi

> <i_m_source_file_index>
2822

> <i_lp_mmshare_version>
43012

> <i_f3d_flags>
0

> <s_epik_input>
Q2xjMVtjSF1uW2NIXVtjSF1jMVtOSF1bQ0gyXVtDQEhdKFtDSDJdMilPW0NIMl1bQ0BASF0oTjIzKVtDSDJdW0NIMl1bQ0gyXVtDSDJdMw==

> <s_epik_cmdline>
J2VwaWtfcHl0aG9uJywgJy1waCcsICc3LjAnLCAnLXRuJywgJzgnLCAnLW1hJywgJzIwMCcsICctbWV0YWxfYmluZGluZycsICctaW1hZScsICc8aW5maWxlLm1hZT4nLCAnLW9tYWUnLCAnPG91dGZpbGUubWFlPic=

> <r_lp_tautomer_probability>
1

> <r_epik_Ionization_Penalty>
0.254999

> <r_epik_Ionization_Penalty_Charging>
0.254956

> <r_epik_Ionization_Penalty_Neutral>
4.33524e-05

> <r_epik_State_Penalty>
0.230978

> <r_epik_Charging_Adjusted_Penalty>
0.485934

> <i_epik_Tot_Q>
2

> <i_epik_Tot_abs_Q>
2

> <r_epik_Metal_State_Penalty>
3.47007

> <b_epik_Metal_Only>
0

> <s_lp_Force_Field>
OPLS_2005

> <r_lp_Energy>
36.8988

> <b_lp_Chiralities_Consistent>
1

> <s_lp_Variant>
AV-unprocessed.smi:2822-8

> <Gold.Version>
5.8.1

> <Gold.Id.Protein>
6NUR|6NUR_protein|mol2

> <Gold.PLP.Fitness>
41.5627

> <Gold.PLP.PLP>
-36.5685

> <Gold.PLP.part.hbond>
-1.0000

> <Gold.PLP.part.metal>
0.0000

> <Gold.PLP.part.buried>
-6.6563

> <Gold.PLP.part.nonpolar>
-29.3020

> <Gold.PLP.part.repulsive>
0.0658

> <Gold.PLP.ligand.clash>
0.0000

> <Gold.PLP.ligand.torsion>
0.5031

> <Gold.PLP.Chemscore.Hbond>
2.0000

> <Gold.PLP.Chemscore.CHOScore>
0.0000

> <Gold.PLP.Chemscore.Metal>
0.0000

> <Gold.Chemscore.Hbonds>
donor molecule, donor type, donor heavy atom, donor atom, acceptor molecule, acceptor atom, score
      L1  H     4    41       P1 10175  2.00

> <Gold.PLP.Chemscore.Internal.Correction>
0.0005

> <Gold.Rescore>
     Score         DG    S(hbond)    S(metal)    S(lipo)     H(rot)  DE(clash)    DE(int)     intcor
     18.07     -18.67       0.99        0.00     110.64       1.20       0.13       0.46       ----

> <Gold.Chemscore.Fitness>
18.0726

> <Gold.Chemscore.DG>
-18.6659

> <Gold.Chemscore.ZeroCoef>
-5.4800

> <Gold.Chemscore.Hbond>
0.9891

> <Gold.Chemscore.Metal>
0.0000

> <Gold.Chemscore.Lipo>
110.6388

> <Gold.Chemscore.Internal_Hbond>
0.0000

> <Gold.Chemscore.DEClash>
0.1334

> <Gold.Chemscore.DEInternal>
0.4600

> <Gold.Chemscore.Rot>
1.1962

> <Gold.Chemscore.Internal.Correction>
   9.000000E+99

> <Gold.Chemscore.Hbonds>
donor molecule, donor type, donor heavy atom, donor atom, acceptor molecule, acceptor atom, score
      L1  H     4    41       P1 10175  0.45

> <Gold.Chemscore.Hbond.Weighted>
-3.3035

> <Gold.Chemscore.Metal.Weighted>
-0.0000

> <Gold.Chemscore.Lipo.Weighted>
-12.9447

> <Gold.Chemscore.Internal_Hbond.Weighted>
0.0000

> <Gold.Chemscore.DEClash.Weighted>
0.1334

> <Gold.Chemscore.DEInternal.Weighted>
0.4600

> <Gold.Chemscore.Rot.Weighted>
3.0623

> <Gold.Chemscore.Internal.Correction.Weighted>
   9.000000E+99

> <Gold.Protein.RotatedTorsions>
[ 6907 6896 6895 6894 ] final  171.22 input  -60.11 | X-H torsion
[ 7974 7965 7964 7962 ] final  121.94 input  175.53 | X-H torsion
[ 8008 7997 7996 7995 ] final -152.13 input   59.86 | X-H torsion
[ 10167 10162 10161 10158 ] final -165.81 input  -65.29 | X-H torsion
[ 10718 10713 10712 10709 ] final  170.15 input   66.30 | X-H torsion
[ 10763 10752 10751 10750 ] final   40.86 input  -60.55 | X-H torsion
[ 11005 11000 10999 10996 ] final    5.33 input  -57.11 | X-H torsion

> <Gold.Protein.ActiveResidues>
 VAL166  LYS551  ARG553  GLY616  TRP617  ASP618  TYR619  PRO620  LYS621  CYS622 
 ASP623  PHE694  ASN695  SER759  ASP760  ASP761  ALA762  ILE779  LEU786  VAL792 
 PHE793  MET794  SER795  GLU796  ALA797  LYS798  CYS799  TRP800  GLU811  SER814 

> <Gold.Protein.RotatedAtoms>
  151.8036  133.3373  159.3534 H   0  0  0  0  0  0  0  0  0  0  0  0  # atno 6907 bound_to 6896
  150.7350  134.5730  159.5909 H   0  0  0  0  0  0  0  0  0  0  0  0  # atno 6908 bound_to 6896
  152.3125  134.7481  160.0384 H   0  0  0  0  0  0  0  0  0  0  0  0  # atno 6909 bound_to 6896
  145.1134  139.3437  143.4751 H   0  0  0  0  0  0  0  0  0  0  0  0  # atno 7974 bound_to 7965
  155.6503  140.0711  157.2589 H   0  0  0  0  0  0  0  0  0  0  0  0  # atno 8008 bound_to 7997
  154.4164  140.1734  156.1717 H   0  0  0  0  0  0  0  0  0  0  0  0  # atno 8009 bound_to 7997
  155.9782  140.3356  155.6642 H   0  0  0  0  0  0  0  0  0  0  0  0  # atno 8010 bound_to 7997
  139.6157  144.0725  152.1885 H   0  0  0  0  0  0  0  0  0  0  0  0  # atno 10167 bound_to 10162
  157.0124  131.0208  151.2799 H   0  0  0  0  0  0  0  0  0  0  0  0  # atno 10718 bound_to 10713
  152.9924  135.6179  154.2694 H   0  0  0  0  0  0  0  0  0  0  0  0  # atno 10763 bound_to 10752
  154.2428  135.2788  155.2849 H   0  0  0  0  0  0  0  0  0  0  0  0  # atno 10764 bound_to 10752
  154.5355  135.5776  153.6852 H   0  0  0  0  0  0  0  0  0  0  0  0  # atno 10765 bound_to 10752
  140.5719  134.0094  155.8012 H   0  0  0  0  0  0  0  0  0  0  0  0  # atno 11005 bound_to 11000
  146.3525  140.1062  142.8606 LP  0  0  0  0  0  0  0  0  0  0  0  0  # atno 17320 bound_to 7965
  145.0822  140.9228  143.4819 LP  0  0  0  0  0  0  0  0  0  0  0  0  # atno 17321 bound_to 7965
  140.0354  144.6048  150.7453 LP  0  0  0  0  0  0  0  0  0  0  0  0  # atno 17342 bound_to 10162
  140.7349  143.2734  151.3816 LP  0  0  0  0  0  0  0  0  0  0  0  0  # atno 17343 bound_to 10162
  157.5311  130.8059  149.7918 LP  0  0  0  0  0  0  0  0  0  0  0  0  # atno 17370 bound_to 10713
  156.0131  130.3824  150.2198 LP  0  0  0  0  0  0  0  0  0  0  0  0  # atno 17371 bound_to 10713
  141.1051  133.9707  157.3012 LP  0  0  0  0  0  0  0  0  0  0  0  0  # atno 17394 bound_to 11000
  139.9358  135.0196  156.8550 LP  0  0  0  0  0  0  0  0  0  0  0  0  # atno 17395 bound_to 11000

$$$$
