AV-unprocessed.smi:2949|AV-procd|sdf|11285|dock7
  -GOLD-   2272016173D 1   1.00000     0.00000
 Structure written by MMmdl.
 35 36  0  0  0  0  0  0  0  0  2 V2000
  142.6429  132.7142  150.2250 N   0  0  0  0  0  0  0  0  0  0  0  0
  143.9167  132.6167  150.6135 C   0  0  0  0  0  0  0  0  0  0  0  0
  144.7257  131.1223  150.9786 S   0  0  0  0  0  0  0  0  0  0  0  0
  146.1891  131.9900  151.3325 C   0  0  0  0  0  0  0  0  0  0  0  0
  146.0243  133.3398  151.1670 C   0  0  0  0  0  0  0  0  0  0  0  0
  144.7349  133.6798  150.7620 N   0  3  0  0  0  0  0  0  0  0  0  0
  144.3169  135.0735  150.5079 C   0  0  0  0  0  0  0  0  0  0  0  0
  144.2308  135.9235  151.7837 C   0  0  0  0  0  0  0  0  0  0  0  0
  143.1796  135.9623  152.4289 O   0  0  0  0  0  0  0  0  0  0  0  0
  145.3718  136.5787  152.0976 N   0  0  0  0  0  0  0  0  0  0  0  0
  145.6671  137.4119  153.1242 C   0  0  0  0  0  0  0  0  0  0  0  0
  144.7931  137.7641  153.9144 O   0  0  0  0  0  0  0  0  0  0  0  0
  146.9437  137.8259  153.2321 N   0  0  0  0  0  0  0  0  0  0  0  0
  147.4878  138.6138  154.3341 C   0  0  0  0  0  0  0  0  0  0  0  0
  147.8638  140.0422  153.8866 C   0  0  0  0  0  0  0  0  0  0  0  0
  149.2985  140.2737  154.3649 C   0  0  0  0  0  0  0  0  0  0  0  0
  149.9206  138.8812  154.3812 C   0  0  0  0  0  0  0  0  0  0  0  0
  148.7861  137.9750  154.8590 C   0  0  0  0  0  0  0  0  0  0  0  0
  142.2074  133.6008  150.0156 H   0  0  0  0  0  0  0  0  0  0  0  0
  147.0779  131.4563  151.6362 H   0  0  0  0  0  0  0  0  0  0  0  0
  146.7490  134.1297  151.3047 H   0  0  0  0  0  0  0  0  0  0  0  0
  145.0049  135.5291  149.7943 H   0  0  0  0  0  0  0  0  0  0  0  0
  143.3381  135.0493  150.0268 H   0  0  0  0  0  0  0  0  0  0  0  0
  146.1370  136.4246  151.4571 H   0  0  0  0  0  0  0  0  0  0  0  0
  147.5874  137.5666  152.4978 H   0  0  0  0  0  0  0  0  0  0  0  0
  146.7589  138.6500  155.1460 H   0  0  0  0  0  0  0  0  0  0  0  0
  147.8346  140.1267  152.7990 H   0  0  0  0  0  0  0  0  0  0  0  0
  147.1777  140.7903  154.2850 H   0  0  0  0  0  0  0  0  0  0  0  0
  149.8454  140.9719  153.7306 H   0  0  0  0  0  0  0  0  0  0  0  0
  149.2874  140.6811  155.3767 H   0  0  0  0  0  0  0  0  0  0  0  0
  150.2165  138.5989  153.3699 H   0  0  0  0  0  0  0  0  0  0  0  0
  150.8037  138.8211  155.0176 H   0  0  0  0  0  0  0  0  0  0  0  0
  148.7679  137.9714  155.9498 H   0  0  0  0  0  0  0  0  0  0  0  0
  148.9227  136.9411  154.5385 H   0  0  0  0  0  0  0  0  0  0  0  0
  142.0536  131.9040  150.0968 H   0  0  0  0  0  0  0  0  0  0  0  0
  1  2  1  0  0  0  0
  1 19  1  0  0  0  0
  1 35  1  0  0  0  0
  2  6  2  0  0  0  0
  2  3  1  0  0  0  0
  3  4  1  0  0  0  0
  4  5  2  0  0  0  0
  4 20  1  0  0  0  0
  5  6  1  0  0  0  0
  5 21  1  0  0  0  0
  6  7  1  0  0  0  0
  7  8  1  0  0  0  0
  7 22  1  0  0  0  0
  7 23  1  0  0  0  0
  8  9  2  0  0  0  0
  8 10  1  0  0  0  0
 10 11  1  0  0  0  0
 10 24  1  0  0  0  0
 11 12  2  0  0  0  0
 11 13  1  0  0  0  0
 13 14  1  0  0  0  0
 13 25  1  0  0  0  0
 14 18  1  0  0  0  0
 14 15  1  0  0  0  0
 14 26  1  0  0  0  0
 15 16  1  0  0  0  0
 15 27  1  0  0  0  0
 15 28  1  0  0  0  0
 16 17  1  0  0  0  0
 16 29  1  0  0  0  0
 16 30  1  0  0  0  0
 17 18  1  0  0  0  0
 17 31  1  0  0  0  0
 17 32  1  0  0  0  0
 18 33  1  0  0  0  0
 18 34  1  0  0  0  0
M  CHG  1   6   1
M  END
> <s_m_source_file>
AV-unprocessed.smi

> <i_m_source_file_index>
2949

> <i_lp_mmshare_version>
43012

> <i_f3d_flags>
0

> <s_epik_input>
W0hdL049YzFcc1tjSF1bY0hdbjFbQ0gyXUMoPU8pW05IXUMoPU8pW05IXVtDSF0yW0NIMl1bQ0gyXVtDSDJdW0NIMl0y

> <s_epik_cmdline>
J2VwaWtfcHl0aG9uJywgJy1waCcsICc3LjAnLCAnLXRuJywgJzgnLCAnLW1hJywgJzIwMCcsICctbWV0YWxfYmluZGluZycsICctaW1hZScsICc8aW5maWxlLm1hZT4nLCAnLW9tYWUnLCAnPG91dGZpbGUubWFlPic=

> <r_lp_tautomer_probability>
1

> <r_epik_Ionization_Penalty>
0.019454

> <r_epik_Ionization_Penalty_Charging>
0

> <r_epik_Ionization_Penalty_Neutral>
0.019454

> <r_epik_State_Penalty>
0.0306361

> <r_epik_Charging_Adjusted_Penalty>
0.0306361

> <i_epik_Tot_Q>
1

> <i_epik_Tot_abs_Q>
1

> <r_epik_Metal_State_Penalty>
0.0306361

> <b_epik_Metal_Only>
0

> <s_lp_Force_Field>
OPLS_2005

> <r_lp_Energy>
26.5716

> <b_lp_Chiralities_Consistent>
1

> <s_lp_Variant>
AV-unprocessed.smi:2949-1

> <Gold.Version>
5.8.1

> <Gold.Id.Protein>
6NUR|6NUR_protein|mol2

> <Gold.PLP.Fitness>
44.3320

> <Gold.PLP.PLP>
-30.9021

> <Gold.PLP.part.hbond>
-2.8120

> <Gold.PLP.part.metal>
0.0000

> <Gold.PLP.part.buried>
-4.6730

> <Gold.PLP.part.nonpolar>
-24.3839

> <Gold.PLP.part.repulsive>
0.4568

> <Gold.PLP.ligand.clash>
0.0000

> <Gold.PLP.ligand.torsion>
0.5573

> <Gold.PLP.Chemscore.Hbond>
3.9670

> <Gold.PLP.Chemscore.CHOScore>
0.8746

> <Gold.PLP.Chemscore.Metal>
0.0000

> <Gold.Chemscore.Hbonds>
donor molecule, donor type, donor heavy atom, donor atom, acceptor molecule, acceptor atom, score
      L1  H     1    19       P1 10186  1.98
      L1  H     1    35       P1 10952  0.96
      L1  H    13    25       P1  7948  0.94
      L1  C     4    20       P1 10747  0.96

> <Gold.PLP.Chemscore.Internal.Correction>
0.0197

> <Gold.Rescore>
     Score         DG    S(hbond)    S(metal)    S(lipo)     H(rot)  DE(clash)    DE(int)     intcor
     15.66     -17.78       2.86        0.00      61.21       1.73       0.18       1.94       ----

> <Gold.Chemscore.Fitness>
15.6595

> <Gold.Chemscore.DG>
-17.7793

> <Gold.Chemscore.ZeroCoef>
-5.4800

> <Gold.Chemscore.Hbond>
2.8636

> <Gold.Chemscore.Metal>
0.0000

> <Gold.Chemscore.Lipo>
61.2069

> <Gold.Chemscore.Internal_Hbond>
0.0000

> <Gold.Chemscore.DEClash>
0.1755

> <Gold.Chemscore.DEInternal>
1.9443

> <Gold.Chemscore.Rot>
1.7291

> <Gold.Chemscore.Internal.Correction>
   9.000000E+99

> <Gold.Chemscore.Hbonds>
donor molecule, donor type, donor heavy atom, donor atom, acceptor molecule, acceptor atom, score
      L1  H     1    19       P1 10186  0.88
      L1  H     1    35       P1 10952  0.78
      L1  H    13    25       P1  7948  0.87

> <Gold.Chemscore.Hbond.Weighted>
-9.5645

> <Gold.Chemscore.Metal.Weighted>
-0.0000

> <Gold.Chemscore.Lipo.Weighted>
-7.1612

> <Gold.Chemscore.Internal_Hbond.Weighted>
0.0000

> <Gold.Chemscore.DEClash.Weighted>
0.1755

> <Gold.Chemscore.DEInternal.Weighted>
1.9443

> <Gold.Chemscore.Rot.Weighted>
4.4265

> <Gold.Chemscore.Internal.Correction.Weighted>
   9.000000E+99

> <Gold.Protein.RotatedTorsions>
[ 6907 6896 6895 6894 ] final  143.71 input  -60.11 | X-H torsion
[ 7974 7965 7964 7962 ] final  -56.11 input  175.53 | X-H torsion
[ 8008 7997 7996 7995 ] final  -90.29 input   59.86 | X-H torsion
[ 10167 10162 10161 10158 ] final  145.30 input  -65.29 | X-H torsion
[ 10718 10713 10712 10709 ] final  177.09 input   66.30 | X-H torsion
[ 10763 10752 10751 10750 ] final  -24.84 input  -60.55 | X-H torsion
[ 11005 11000 10999 10996 ] final   17.39 input  -57.11 | X-H torsion

> <Gold.Protein.ActiveResidues>
 VAL166  LYS551  ARG553  GLY616  TRP617  ASP618  TYR619  PRO620  LYS621  CYS622 
 ASP623  PHE694  ASN695  SER759  ASP760  ASP761  ALA762  ILE779  LEU786  VAL792 
 PHE793  MET794  SER795  GLU796  ALA797  LYS798  CYS799  TRP800  GLU811  SER814 

> <Gold.Protein.RotatedAtoms>
  152.2028  133.4854  159.5067 H   0  0  0  0  0  0  0  0  0  0  0  0  # atno 6907 bound_to 6896
  150.6973  134.1568  159.4170 H   0  0  0  0  0  0  0  0  0  0  0  0  # atno 6908 bound_to 6896
  151.9486  135.0180  160.0591 H   0  0  0  0  0  0  0  0  0  0  0  0  # atno 6909 bound_to 6896
  145.8665  140.8247  142.9910 H   0  0  0  0  0  0  0  0  0  0  0  0  # atno 7974 bound_to 7965
  154.6968  140.0532  157.0418 H   0  0  0  0  0  0  0  0  0  0  0  0  # atno 8008 bound_to 7997
  155.0740  140.3202  155.4603 H   0  0  0  0  0  0  0  0  0  0  0  0  # atno 8009 bound_to 7997
  156.2747  140.2077  156.5868 H   0  0  0  0  0  0  0  0  0  0  0  0  # atno 8010 bound_to 7997
  139.4929  144.5911  151.6678 H   0  0  0  0  0  0  0  0  0  0  0  0  # atno 10167 bound_to 10162
  156.9105  130.9908  151.3021 H   0  0  0  0  0  0  0  0  0  0  0  0  # atno 10718 bound_to 10713
  153.6902  135.6962  153.5092 H   0  0  0  0  0  0  0  0  0  0  0  0  # atno 10763 bound_to 10752
  153.2419  135.4303  155.0706 H   0  0  0  0  0  0  0  0  0  0  0  0  # atno 10764 bound_to 10752
  154.8375  135.3510  154.6443 H   0  0  0  0  0  0  0  0  0  0  0  0  # atno 10765 bound_to 10752
  140.4364  134.1366  155.7686 H   0  0  0  0  0  0  0  0  0  0  0  0  # atno 11005 bound_to 11000
  144.6726  140.1174  143.7452 LP  0  0  0  0  0  0  0  0  0  0  0  0  # atno 17320 bound_to 7965
  145.9187  139.2532  143.1394 LP  0  0  0  0  0  0  0  0  0  0  0  0  # atno 17321 bound_to 7965
  140.5539  144.0381  150.6139 LP  0  0  0  0  0  0  0  0  0  0  0  0  # atno 17342 bound_to 10162
  140.3444  143.3000  152.0554 LP  0  0  0  0  0  0  0  0  0  0  0  0  # atno 17343 bound_to 10162
  157.5970  130.8485  149.8745 LP  0  0  0  0  0  0  0  0  0  0  0  0  # atno 17370 bound_to 10713
  156.0538  130.3712  150.1138 LP  0  0  0  0  0  0  0  0  0  0  0  0  # atno 17371 bound_to 10713
  141.1724  133.8582  157.1529 LP  0  0  0  0  0  0  0  0  0  0  0  0  # atno 17394 bound_to 11000
  140.0099  134.9992  157.0373 LP  0  0  0  0  0  0  0  0  0  0  0  0  # atno 17395 bound_to 11000

$$$$
