AV-unprocessed.smi:332|AV-procd|sdf|2357|dock7
  -GOLD-   2262022273D 1   1.00000     0.00000
 Structure written by MMmdl.
 42 44  0  0  0  0  0  0  0  0  1 V2000
  152.3620  139.9956  158.7637 C   0  0  0  0  0  0  0  0  0  0  0  0
  151.6131  141.1058  158.0088 C   0  0  1  0  0  0  0  0  0  0  0  0
  150.4403  140.5329  157.3508 N   0  0  0  0  0  0  0  0  0  0  0  0
  150.3691  140.1417  156.0692 C   0  0  0  0  0  0  0  0  0  0  0  0
  151.3135  140.2268  155.2826 O   0  0  0  0  0  0  0  0  0  0  0  0
  149.0149  139.5676  155.6268 C   0  0  0  0  0  0  0  0  0  0  0  0
  148.0139  140.5953  155.2939 N   0  0  0  0  0  0  0  0  0  0  0  0
  146.8766  140.6705  156.1226 C   0  0  0  0  0  0  0  0  0  0  0  0
  145.9010  141.5678  155.9102 C   0  0  0  0  0  0  0  0  0  0  0  0
  146.0392  142.4751  154.7960 C   0  0  0  0  0  0  0  0  0  0  0  0
  147.1247  142.4147  153.9993 C   0  0  0  0  0  0  0  0  0  0  0  0
  148.1937  141.4353  154.2276 C   0  0  0  0  0  0  0  0  0  0  0  0
  149.1891  141.3741  153.5052 O   0  0  0  0  0  0  0  0  0  0  0  0
  151.1640  142.2591  158.9369 C   0  0  2  0  0  0  0  0  0  0  0  0
  150.5224  143.4617  158.2062 C   0  0  0  0  0  0  0  0  0  0  0  0
  151.2774  144.6682  158.7942 C   0  0  2  0  0  0  0  0  0  0  0  0
  152.6997  144.7075  158.2057 C   0  0  0  0  0  0  0  0  0  0  0  0
  153.3910  143.5305  158.9172 C   0  0  0  0  0  0  0  0  0  0  0  0
  152.2613  142.9449  159.7893 C   0  0  1  0  0  0  0  0  0  0  0  0
  151.5408  144.2169  160.2262 C   0  0  0  0  0  0  0  0  0  0  0  0
  153.2782  140.3727  159.2179 H   0  0  0  0  0  0  0  0  0  0  0  0
  152.6453  139.1855  158.0909 H   0  0  0  0  0  0  0  0  0  0  0  0
  151.7468  139.5695  159.5570 H   0  0  0  0  0  0  0  0  0  0  0  0
  152.2798  141.5112  157.2472 H   0  0  0  0  0  0  0  0  0  0  0  0
  149.6134  140.4251  157.9199 H   0  0  0  0  0  0  0  0  0  0  0  0
  149.1774  138.9050  154.7749 H   0  0  0  0  0  0  0  0  0  0  0  0
  148.6377  138.9208  156.4206 H   0  0  0  0  0  0  0  0  0  0  0  0
  146.8528  139.9617  156.9377 H   0  0  0  0  0  0  0  0  0  0  0  0
  145.0376  141.6123  156.5577 H   0  0  0  0  0  0  0  0  0  0  0  0
  145.2695  143.2072  154.6011 H   0  0  0  0  0  0  0  0  0  0  0  0
  147.2118  143.1031  153.1715 H   0  0  0  0  0  0  0  0  0  0  0  0
  150.4238  141.8545  159.6301 H   0  0  0  0  0  0  0  0  0  0  0  0
  150.6295  143.4103  157.1217 H   0  0  0  0  0  0  0  0  0  0  0  0
  149.4563  143.5196  158.4288 H   0  0  0  0  0  0  0  0  0  0  0  0
  150.7385  145.6111  158.6973 H   0  0  0  0  0  0  0  0  0  0  0  0
  152.7026  144.5978  157.1206 H   0  0  0  0  0  0  0  0  0  0  0  0
  153.1975  145.6472  158.4485 H   0  0  0  0  0  0  0  0  0  0  0  0
  153.8253  142.8113  158.2242 H   0  0  0  0  0  0  0  0  0  0  0  0
  154.2021  143.8978  159.5476 H   0  0  0  0  0  0  0  0  0  0  0  0
  152.6224  142.3288  160.6133 H   0  0  0  0  0  0  0  0  0  0  0  0
  152.1754  144.9051  160.7875 H   0  0  0  0  0  0  0  0  0  0  0  0
  150.6286  144.0280  160.7951 H   0  0  0  0  0  0  0  0  0  0  0  0
  1  2  1  0  0  0  0
  1 21  1  0  0  0  0
  1 22  1  0  0  0  0
  1 23  1  0  0  0  0
  2  3  1  0  0  0  0
  2 14  1  0  0  0  0
  2 24  1  0  0  0  0
  3  4  1  0  0  0  0
  3 25  1  0  0  0  0
  4  5  2  0  0  0  0
  4  6  1  0  0  0  0
  6  7  1  0  0  0  0
  6 26  1  0  0  0  0
  6 27  1  0  0  0  0
  7 12  1  0  0  0  0
  7  8  1  0  0  0  0
  8  9  2  0  0  0  0
  8 28  1  0  0  0  0
  9 10  1  0  0  0  0
  9 29  1  0  0  0  0
 10 11  2  0  0  0  0
 10 30  1  0  0  0  0
 11 12  1  0  0  0  0
 11 31  1  0  0  0  0
 12 13  2  0  0  0  0
 14 19  1  0  0  0  0
 14 15  1  0  0  0  0
 14 32  1  0  0  0  0
 15 16  1  0  0  0  0
 15 33  1  0  0  0  0
 15 34  1  0  0  0  0
 16 20  1  0  0  0  0
 16 17  1  0  0  0  0
 16 35  1  0  0  0  0
 17 18  1  0  0  0  0
 17 36  1  0  0  0  0
 17 37  1  0  0  0  0
 18 19  1  0  0  0  0
 18 38  1  0  0  0  0
 18 39  1  0  0  0  0
 19 20  1  0  0  0  0
 19 40  1  0  0  0  0
 20 41  1  0  0  0  0
 20 42  1  0  0  0  0
M  END
> <s_m_source_file>
AV-unprocessed.smi

> <i_m_source_file_index>
332

> <i_lp_mmshare_version>
43012

> <i_f3d_flags>
0

> <s_epik_input>
W0NIMl0xW0NIMl1bQ0BIXShbQ0gyXTIpW0NAQEhdKFtDSDJdW0NAQEhdMTIpW0NASF0oW0NIM10pW05IXUMoPU8pW0NIMl1uM1tjSF1bY0hdW2NIXVtjSF1jMz1P

> <s_epik_cmdline>
J2VwaWtfcHl0aG9uJywgJy1waCcsICc3LjAnLCAnLXRuJywgJzgnLCAnLW1hJywgJzIwMCcsICctbWV0YWxfYmluZGluZycsICctaW1hZScsICc8aW5maWxlLm1hZT4nLCAnLW9tYWUnLCAnPG91dGZpbGUubWFlPic=

> <r_lp_tautomer_probability>
1

> <r_epik_Ionization_Penalty>
4.05802e-07

> <r_epik_Ionization_Penalty_Charging>
3.84175e-07

> <r_epik_Ionization_Penalty_Neutral>
2.16269e-08

> <r_epik_State_Penalty>
-0

> <r_epik_Charging_Adjusted_Penalty>
3.84175e-07

> <i_epik_Tot_Q>
0

> <i_epik_Tot_abs_Q>
0

> <r_epik_Metal_State_Penalty>
-0

> <b_epik_Metal_Only>
0

> <s_lp_Force_Field>
OPLS_2005

> <r_lp_Energy>
60.6372

> <b_lp_Chiralities_Consistent>
1

> <s_lp_Variant>
AV-unprocessed.smi:332-6

> <Gold.Version>
5.8.1

> <Gold.Id.Protein>
6NUR|6NUR_protein|mol2

> <Gold.PLP.Fitness>
45.7497

> <Gold.PLP.PLP>
-41.2933

> <Gold.PLP.part.hbond>
-3.0000

> <Gold.PLP.part.metal>
0.0000

> <Gold.PLP.part.buried>
-6.6813

> <Gold.PLP.part.nonpolar>
-34.1951

> <Gold.PLP.part.repulsive>
2.7666

> <Gold.PLP.ligand.clash>
0.0000

> <Gold.PLP.ligand.torsion>
0.6483

> <Gold.PLP.Chemscore.Hbond>
1.9120

> <Gold.PLP.Chemscore.CHOScore>
0.0000

> <Gold.PLP.Chemscore.Metal>
0.0000

> <Gold.Chemscore.Hbonds>
donor molecule, donor type, donor heavy atom, donor atom, acceptor molecule, acceptor atom, score
      P1  H  7989  7998       L1     5  1.00
      P1  H  8011  8017       L1    13  0.91

> <Gold.PLP.Chemscore.Internal.Correction>
0.0169

> <Gold.Rescore>
     Score         DG    S(hbond)    S(metal)    S(lipo)     H(rot)  DE(clash)    DE(int)     intcor
     18.95     -20.84       1.86        0.00     111.70       1.54       1.23       0.65       ----

> <Gold.Chemscore.Fitness>
18.9468

> <Gold.Chemscore.DG>
-20.8358

> <Gold.Chemscore.ZeroCoef>
-5.4800

> <Gold.Chemscore.Hbond>
1.8649

> <Gold.Chemscore.Metal>
0.0000

> <Gold.Chemscore.Lipo>
111.7011

> <Gold.Chemscore.Internal_Hbond>
0.0000

> <Gold.Chemscore.DEClash>
1.2344

> <Gold.Chemscore.DEInternal>
0.6546

> <Gold.Chemscore.Rot>
1.5398

> <Gold.Chemscore.Internal.Correction>
   9.000000E+99

> <Gold.Chemscore.Hbonds>
donor molecule, donor type, donor heavy atom, donor atom, acceptor molecule, acceptor atom, score
      P1  H  7989  7998       L1     5  0.96
      P1  H  8011  8017       L1    13  0.89

> <Gold.Chemscore.Hbond.Weighted>
-6.2286

> <Gold.Chemscore.Metal.Weighted>
-0.0000

> <Gold.Chemscore.Lipo.Weighted>
-13.0690

> <Gold.Chemscore.Internal_Hbond.Weighted>
0.0000

> <Gold.Chemscore.DEClash.Weighted>
1.2344

> <Gold.Chemscore.DEInternal.Weighted>
0.6546

> <Gold.Chemscore.Rot.Weighted>
3.9419

> <Gold.Chemscore.Internal.Correction.Weighted>
   9.000000E+99

> <Gold.Protein.RotatedTorsions>
[ 6907 6896 6895 6894 ] final  -81.39 input  -60.11 | X-H torsion
[ 7974 7965 7964 7962 ] final   99.16 input  175.53 | X-H torsion
[ 8008 7997 7996 7995 ] final   28.50 input   59.86 | X-H torsion
[ 10167 10162 10161 10158 ] final   65.06 input  -65.29 | X-H torsion
[ 10718 10713 10712 10709 ] final -136.63 input   66.30 | X-H torsion
[ 10763 10752 10751 10750 ] final   47.30 input  -60.55 | X-H torsion
[ 11005 11000 10999 10996 ] final  -68.78 input  -57.11 | X-H torsion

> <Gold.Protein.ActiveResidues>
 VAL166  LYS551  ARG553  GLY616  TRP617  ASP618  TYR619  PRO620  LYS621  CYS622 
 ASP623  PHE694  ASN695  SER759  ASP760  ASP761  ALA762  ILE779  LEU786  VAL792 
 PHE793  MET794  SER795  GLU796  ALA797  LYS798  CYS799  TRP800  GLU811  SER814 

> <Gold.Protein.RotatedAtoms>
  150.6913  134.3824  159.5039 H   0  0  0  0  0  0  0  0  0  0  0  0  # atno 6907 bound_to 6896
  152.1625  134.8898  160.0550 H   0  0  0  0  0  0  0  0  0  0  0  0  # atno 6908 bound_to 6896
  151.9955  133.3771  159.4198 H   0  0  0  0  0  0  0  0  0  0  0  0  # atno 6909 bound_to 6896
  145.4025  139.2345  143.3292 H   0  0  0  0  0  0  0  0  0  0  0  0  # atno 7974 bound_to 7965
  155.0596  140.3188  155.4665 H   0  0  0  0  0  0  0  0  0  0  0  0  # atno 8008 bound_to 7997
  156.2816  140.2131  156.5667 H   0  0  0  0  0  0  0  0  0  0  0  0  # atno 8009 bound_to 7997
  154.7143  140.0495  157.0567 H   0  0  0  0  0  0  0  0  0  0  0  0  # atno 8010 bound_to 7997
  140.1154  144.4780  150.6953 H   0  0  0  0  0  0  0  0  0  0  0  0  # atno 10167 bound_to 10162
  156.2792  130.7310  151.1302 H   0  0  0  0  0  0  0  0  0  0  0  0  # atno 10718 bound_to 10713
  152.9801  135.5980  154.3740 H   0  0  0  0  0  0  0  0  0  0  0  0  # atno 10763 bound_to 10752
  154.3411  135.2767  155.2424 H   0  0  0  0  0  0  0  0  0  0  0  0  # atno 10764 bound_to 10752
  154.4505  135.5991  153.6243 H   0  0  0  0  0  0  0  0  0  0  0  0  # atno 10765 bound_to 10752
  141.1540  133.6749  156.6499 H   0  0  0  0  0  0  0  0  0  0  0  0  # atno 11005 bound_to 11000
  146.2745  140.4725  142.8801 LP  0  0  0  0  0  0  0  0  0  0  0  0  # atno 17320 bound_to 7965
  144.8364  140.6789  143.6258 LP  0  0  0  0  0  0  0  0  0  0  0  0  # atno 17321 bound_to 7965
  140.6902  143.2372  151.5151 LP  0  0  0  0  0  0  0  0  0  0  0  0  # atno 17342 bound_to 10162
  139.5597  144.2187  152.1671 LP  0  0  0  0  0  0  0  0  0  0  0  0  # atno 17343 bound_to 10162
  157.7309  131.0613  150.5705 LP  0  0  0  0  0  0  0  0  0  0  0  0  # atno 17370 bound_to 10713
  156.5809  130.4304  149.5978 LP  0  0  0  0  0  0  0  0  0  0  0  0  # atno 17371 bound_to 10713
  140.3328  134.7914  157.4339 LP  0  0  0  0  0  0  0  0  0  0  0  0  # atno 17394 bound_to 11000
  140.1002  134.5482  155.8360 LP  0  0  0  0  0  0  0  0  0  0  0  0  # atno 17395 bound_to 11000

$$$$
