AV-unprocessed.smi:1658|AV-procd|sdf|6648|dock9
  -GOLD-   22720 7353D 1   1.00000     0.00000
 Structure written by MMmdl.
 46 47  0  0  0  0  0  0  0  0  1 V2000
  146.9498  129.5433  152.6145 C   0  0  0  0  0  0  0  0  0  0  0  0
  148.0256  129.7678  153.5191 O   0  0  0  0  0  0  0  0  0  0  0  0
  148.4171  131.0684  153.7621 C   0  0  0  0  0  0  0  0  0  0  0  0
  149.3307  131.3128  154.8069 C   0  0  0  0  0  0  0  0  0  0  0  0
  149.7324  132.6375  155.0644 C   0  0  0  0  0  0  0  0  0  0  0  0
  149.1989  133.6798  154.2702 C   0  0  0  0  0  0  0  0  0  0  0  0
  149.5437  135.0495  154.4209 N   0  0  0  0  0  0  0  0  0  0  0  0
  149.8910  135.6991  155.5447 C   0  0  0  0  0  0  0  0  0  0  0  0
  149.9283  135.2001  156.6693 O   0  0  0  0  0  0  0  0  0  0  0  0
  150.1697  136.9849  155.2906 N   0  0  0  0  0  0  0  0  0  0  0  0
  150.5278  137.9980  156.2831 C   0  0  0  0  0  0  0  0  0  0  0  0
  151.0838  139.2961  155.6286 C   0  0  0  0  0  0  0  0  0  0  0  0
  152.4693  138.9279  155.0392 C   0  0  0  0  0  0  0  0  0  0  0  0
  150.1567  139.6410  154.4380 C   0  0  0  0  0  0  0  0  0  0  0  0
  151.1996  140.4052  156.6179 N   0  0  0  0  0  0  0  0  0  0  0  0
  149.9239  141.0061  157.0251 C   0  0  0  0  0  0  0  0  0  0  0  0
  150.1234  142.2165  157.9534 C   0  0  0  0  0  0  0  0  0  0  0  0
  150.8797  141.8279  159.0935 O   0  0  0  0  0  0  0  0  0  0  0  0
  152.1514  141.2958  158.7443 C   0  0  0  0  0  0  0  0  0  0  0  0
  151.9684  140.0771  157.8245 C   0  0  0  0  0  0  0  0  0  0  0  0
  148.3049  133.3283  153.2380 C   0  0  0  0  0  0  0  0  0  0  0  0
  147.9143  132.0610  152.9869 N   0  0  0  0  0  0  0  0  0  0  0  0
  146.7599  128.4729  152.5386 H   0  0  0  0  0  0  0  0  0  0  0  0
  147.1865  129.9092  151.6144 H   0  0  0  0  0  0  0  0  0  0  0  0
  146.0307  130.0178  152.9617 H   0  0  0  0  0  0  0  0  0  0  0  0
  149.7199  130.4974  155.3984 H   0  0  0  0  0  0  0  0  0  0  0  0
  150.4476  132.8259  155.8501 H   0  0  0  0  0  0  0  0  0  0  0  0
  149.4573  135.6140  153.5884 H   0  0  0  0  0  0  0  0  0  0  0  0
  150.0988  137.3029  154.3352 H   0  0  0  0  0  0  0  0  0  0  0  0
  149.6727  138.2391  156.9172 H   0  0  0  0  0  0  0  0  0  0  0  0
  151.2540  137.5579  156.9659 H   0  0  0  0  0  0  0  0  0  0  0  0
  152.4242  138.0066  154.4570 H   0  0  0  0  0  0  0  0  0  0  0  0
  153.2143  138.7802  155.8219 H   0  0  0  0  0  0  0  0  0  0  0  0
  152.8485  139.6950  154.3641 H   0  0  0  0  0  0  0  0  0  0  0  0
  150.1094  138.8145  153.7279 H   0  0  0  0  0  0  0  0  0  0  0  0
  150.5045  140.5111  153.8816 H   0  0  0  0  0  0  0  0  0  0  0  0
  149.1333  139.8381  154.7567 H   0  0  0  0  0  0  0  0  0  0  0  0
  149.3591  141.3448  156.1585 H   0  0  0  0  0  0  0  0  0  0  0  0
  149.3065  140.2692  157.5388 H   0  0  0  0  0  0  0  0  0  0  0  0
  150.6323  143.0267  157.4287 H   0  0  0  0  0  0  0  0  0  0  0  0
  149.1592  142.6044  158.2820 H   0  0  0  0  0  0  0  0  0  0  0  0
  152.7539  142.0624  158.2544 H   0  0  0  0  0  0  0  0  0  0  0  0
  152.6784  141.0071  159.6537 H   0  0  0  0  0  0  0  0  0  0  0  0
  151.4700  139.2866  158.3857 H   0  0  0  0  0  0  0  0  0  0  0  0
  152.9587  139.7065  157.5675 H   0  0  0  0  0  0  0  0  0  0  0  0
  147.8829  134.0879  152.5957 H   0  0  0  0  0  0  0  0  0  0  0  0
  1  2  1  0  0  0  0
  1 23  1  0  0  0  0
  1 24  1  0  0  0  0
  1 25  1  0  0  0  0
  2  3  1  0  0  0  0
  3 22  1  0  0  0  0
  3  4  2  0  0  0  0
  4  5  1  0  0  0  0
  4 26  1  0  0  0  0
  5  6  2  0  0  0  0
  5 27  1  0  0  0  0
  6  7  1  0  0  0  0
  6 21  1  0  0  0  0
  7  8  1  0  0  0  0
  7 28  1  0  0  0  0
  8  9  2  0  0  0  0
  8 10  1  0  0  0  0
 10 11  1  0  0  0  0
 10 29  1  0  0  0  0
 11 12  1  0  0  0  0
 11 30  1  0  0  0  0
 11 31  1  0  0  0  0
 12 13  1  0  0  0  0
 12 14  1  0  0  0  0
 12 15  1  0  0  0  0
 13 32  1  0  0  0  0
 13 33  1  0  0  0  0
 13 34  1  0  0  0  0
 14 35  1  0  0  0  0
 14 36  1  0  0  0  0
 14 37  1  0  0  0  0
 15 20  1  0  0  0  0
 15 16  1  0  0  0  0
 16 17  1  0  0  0  0
 16 38  1  0  0  0  0
 16 39  1  0  0  0  0
 17 18  1  0  0  0  0
 17 40  1  0  0  0  0
 17 41  1  0  0  0  0
 18 19  1  0  0  0  0
 19 20  1  0  0  0  0
 19 42  1  0  0  0  0
 19 43  1  0  0  0  0
 20 44  1  0  0  0  0
 20 45  1  0  0  0  0
 21 22  2  0  0  0  0
 21 46  1  0  0  0  0
M  END
> <s_m_source_file>
AV-unprocessed.smi

> <i_m_source_file_index>
1658

> <i_lp_mmshare_version>
43012

> <i_f3d_flags>
0

> <s_epik_input>
W0NIM11PYzFbY0hdW2NIXWMoW2NIXW4xKVtOSF1DKD1PKVtOSF1bQ0gyXUMoW0NIM10pKFtDSDNdKU4yW0NIMl1bQ0gyXU9bQ0gyXVtDSDJdMg==

> <s_epik_cmdline>
J2VwaWtfcHl0aG9uJywgJy1waCcsICc3LjAnLCAnLXRuJywgJzgnLCAnLW1hJywgJzIwMCcsICctbWV0YWxfYmluZGluZycsICctaW1hZScsICc8aW5maWxlLm1hZT4nLCAnLW9tYWUnLCAnPG91dGZpbGUubWFlPic=

> <r_lp_tautomer_probability>
1

> <r_epik_Ionization_Penalty>
0.266086

> <r_epik_Ionization_Penalty_Charging>
0

> <r_epik_Ionization_Penalty_Neutral>
0.266086

> <r_epik_State_Penalty>
0.257924

> <r_epik_Charging_Adjusted_Penalty>
0.257924

> <i_epik_Tot_Q>
0

> <i_epik_Tot_abs_Q>
0

> <r_epik_Metal_State_Penalty>
0.257921

> <b_epik_Metal_Only>
0

> <s_lp_Force_Field>
OPLS_2005

> <r_lp_Energy>
44.8547

> <b_lp_Chiralities_Consistent>
1

> <s_lp_Variant>
AV-unprocessed.smi:1658-1

> <Gold.Version>
5.8.1

> <Gold.Id.Protein>
6NUR|6NUR_protein|mol2

> <Gold.PLP.Fitness>
38.9992

> <Gold.PLP.PLP>
-34.4064

> <Gold.PLP.part.hbond>
-1.5822

> <Gold.PLP.part.metal>
0.0000

> <Gold.PLP.part.buried>
-4.3854

> <Gold.PLP.part.nonpolar>
-28.3825

> <Gold.PLP.part.repulsive>
0.6463

> <Gold.PLP.ligand.clash>
0.0000

> <Gold.PLP.ligand.torsion>
0.6022

> <Gold.PLP.Chemscore.Hbond>
1.0000

> <Gold.PLP.Chemscore.CHOScore>
0.9150

> <Gold.PLP.Chemscore.Metal>
0.0000

> <Gold.Chemscore.Hbonds>
donor molecule, donor type, donor heavy atom, donor atom, acceptor molecule, acceptor atom, score
      L1  H     7    28       P1  7948  1.00
      L1  C    21    46       P1  7948  0.94

> <Gold.PLP.Chemscore.Internal.Correction>
0.0521

> <Gold.Rescore>
     Score         DG    S(hbond)    S(metal)    S(lipo)     H(rot)  DE(clash)    DE(int)     intcor
     11.56     -13.13       0.85        0.00      78.42       1.70       0.03       1.53       ----

> <Gold.Chemscore.Fitness>
11.5634

> <Gold.Chemscore.DG>
-13.1313

> <Gold.Chemscore.ZeroCoef>
-5.4800

> <Gold.Chemscore.Hbond>
0.8485

> <Gold.Chemscore.Metal>
0.0000

> <Gold.Chemscore.Lipo>
78.4239

> <Gold.Chemscore.Internal_Hbond>
0.0000

> <Gold.Chemscore.DEClash>
0.0337

> <Gold.Chemscore.DEInternal>
1.5342

> <Gold.Chemscore.Rot>
1.7024

> <Gold.Chemscore.Internal.Correction>
   9.000000E+99

> <Gold.Chemscore.Hbonds>
donor molecule, donor type, donor heavy atom, donor atom, acceptor molecule, acceptor atom, score
      L1  H     7    28       P1  7948  0.26

> <Gold.Chemscore.Hbond.Weighted>
-2.8340

> <Gold.Chemscore.Metal.Weighted>
-0.0000

> <Gold.Chemscore.Lipo.Weighted>
-9.1756

> <Gold.Chemscore.Internal_Hbond.Weighted>
0.0000

> <Gold.Chemscore.DEClash.Weighted>
0.0337

> <Gold.Chemscore.DEInternal.Weighted>
1.5342

> <Gold.Chemscore.Rot.Weighted>
4.3583

> <Gold.Chemscore.Internal.Correction.Weighted>
   9.000000E+99

> <Gold.Protein.RotatedTorsions>
[ 6907 6896 6895 6894 ] final  -55.59 input  -60.11 | X-H torsion
[ 7974 7965 7964 7962 ] final  -15.21 input  175.53 | X-H torsion
[ 8008 7997 7996 7995 ] final   -8.45 input   59.86 | X-H torsion
[ 10167 10162 10161 10158 ] final  -61.59 input  -65.29 | X-H torsion
[ 10718 10713 10712 10709 ] final    6.44 input   66.30 | X-H torsion
[ 10763 10752 10751 10750 ] final  144.84 input  -60.55 | X-H torsion
[ 11005 11000 10999 10996 ] final -163.54 input  -57.11 | X-H torsion

> <Gold.Protein.ActiveResidues>
 VAL166  LYS551  ARG553  GLY616  TRP617  ASP618  TYR619  PRO620  LYS621  CYS622 
 ASP623  PHE694  ASN695  SER759  ASP760  ASP761  ALA762  ILE779  LEU786  VAL792 
 PHE793  MET794  SER795  GLU796  ALA797  LYS798  CYS799  TRP800  GLU811  SER814 

> <Gold.Protein.RotatedAtoms>
  150.8239  134.7460  159.6795 H   0  0  0  0  0  0  0  0  0  0  0  0  # atno 6907 bound_to 6896
  152.4352  134.5697  159.9927 H   0  0  0  0  0  0  0  0  0  0  0  0  # atno 6908 bound_to 6896
  151.5875  133.3333  159.3057 H   0  0  0  0  0  0  0  0  0  0  0  0  # atno 6909 bound_to 6896
  146.2042  140.3459  142.8413 H   0  0  0  0  0  0  0  0  0  0  0  0  # atno 7974 bound_to 7965
  154.5740  140.2380  155.8150 H   0  0  0  0  0  0  0  0  0  0  0  0  # atno 8008 bound_to 7997
  156.2128  140.3021  155.9729 H   0  0  0  0  0  0  0  0  0  0  0  0  # atno 8009 bound_to 7997
  155.2661  140.0416  157.2993 H   0  0  0  0  0  0  0  0  0  0  0  0  # atno 8010 bound_to 7997
  140.5995  143.2358  151.5960 H   0  0  0  0  0  0  0  0  0  0  0  0  # atno 10167 bound_to 10162
  156.9222  130.5795  149.5648 H   0  0  0  0  0  0  0  0  0  0  0  0  # atno 10718 bound_to 10713
  153.9956  135.2928  155.3408 H   0  0  0  0  0  0  0  0  0  0  0  0  # atno 10763 bound_to 10752
  154.7189  135.5117  153.8784 H   0  0  0  0  0  0  0  0  0  0  0  0  # atno 10764 bound_to 10752
  153.0789  135.6672  154.0203 H   0  0  0  0  0  0  0  0  0  0  0  0  # atno 10765 bound_to 10752
  140.5969  134.4987  157.5200 H   0  0  0  0  0  0  0  0  0  0  0  0  # atno 11005 bound_to 11000
  144.8752  140.7327  143.6021 LP  0  0  0  0  0  0  0  0  0  0  0  0  # atno 17320 bound_to 7965
  145.3379  139.1740  143.4501 LP  0  0  0  0  0  0  0  0  0  0  0  0  # atno 17321 bound_to 7965
  139.5281  144.2997  152.1084 LP  0  0  0  0  0  0  0  0  0  0  0  0  # atno 17342 bound_to 10162
  140.2175  144.4500  150.6357 LP  0  0  0  0  0  0  0  0  0  0  0  0  # atno 17343 bound_to 10162
  156.0486  130.5558  150.8937 LP  0  0  0  0  0  0  0  0  0  0  0  0  # atno 17370 bound_to 10713
  157.5900  131.0944  150.9133 LP  0  0  0  0  0  0  0  0  0  0  0  0  # atno 17371 bound_to 10713
  139.9249  134.8075  156.1098 LP  0  0  0  0  0  0  0  0  0  0  0  0  # atno 17394 bound_to 11000
  141.0898  133.6719  156.2515 LP  0  0  0  0  0  0  0  0  0  0  0  0  # atno 17395 bound_to 11000

$$$$
