AV-unprocessed.smi:1624|AV-procd|sdf|6503|dock2
  -GOLD-   22720 7173D 1   1.00000     0.00000
 Structure written by MMmdl.
 36 37  0  0  0  0  0  0  0  0  1 V2000
  144.3613  136.5620  154.7997 O   0  0  0  0  0  0  0  0  0  0  0  0
  144.1715  137.5683  154.1157 C   0  0  0  0  0  0  0  0  0  0  0  0
  145.1518  138.4027  153.7411 N   0  0  0  0  0  0  0  0  0  0  0  0
  146.5602  138.2423  154.0794 C   0  0  0  0  0  0  0  0  0  0  0  0
  147.4541  139.1817  153.2487 C   0  0  0  0  0  0  0  0  0  0  0  0
  147.9095  140.3223  154.0525 N   0  0  0  0  0  0  0  0  0  0  0  0
  146.8879  141.3252  154.3964 C   0  0  0  0  0  0  0  0  0  0  0  0
  146.4941  141.3245  155.8922 C   0  0  0  0  0  0  0  0  0  0  0  0
  147.5878  140.8885  156.8873 C   0  0  0  0  0  0  0  0  0  0  0  0
  148.9314  141.6346  156.7482 C   0  0  0  0  0  0  0  0  0  0  0  0
  149.5788  141.6336  155.3427 C   0  0  0  0  0  0  0  0  0  0  0  0
  149.1950  140.4269  154.4710 C   0  0  0  0  0  0  0  0  0  0  0  0
  150.0618  139.5981  154.1920 O   0  0  0  0  0  0  0  0  0  0  0  0
  142.9798  137.9792  153.6480 N   0  0  0  0  0  0  0  0  0  0  0  0
  141.7073  137.3745  153.8249 C   0  0  0  0  0  0  0  0  0  0  0  0
  141.5190  136.2062  154.4582 N   0  0  0  0  0  0  0  0  0  0  0  0
  140.1784  135.8441  154.4923 N   0  0  0  0  0  0  0  0  0  0  0  0
  139.4098  136.7524  153.8845 C   0  0  0  0  0  0  0  0  0  0  0  0
  140.2485  138.1392  153.2114 S   0  0  0  0  0  0  0  0  0  0  0  0
  144.9085  139.2057  153.1800 H   0  0  0  0  0  0  0  0  0  0  0  0
  146.7100  138.4160  155.1465 H   0  0  0  0  0  0  0  0  0  0  0  0
  146.8308  137.2024  153.8953 H   0  0  0  0  0  0  0  0  0  0  0  0
  148.3124  138.6314  152.8592 H   0  0  0  0  0  0  0  0  0  0  0  0
  146.9167  139.5260  152.3645 H   0  0  0  0  0  0  0  0  0  0  0  0
  147.2462  142.3139  154.1093 H   0  0  0  0  0  0  0  0  0  0  0  0
  145.9843  141.1899  153.8013 H   0  0  0  0  0  0  0  0  0  0  0  0
  146.1305  142.3168  156.1603 H   0  0  0  0  0  0  0  0  0  0  0  0
  145.6434  140.6551  156.0241 H   0  0  0  0  0  0  0  0  0  0  0  0
  147.2128  141.0239  157.9021 H   0  0  0  0  0  0  0  0  0  0  0  0
  147.7561  139.8148  156.7918 H   0  0  0  0  0  0  0  0  0  0  0  0
  148.7962  142.6688  157.0663 H   0  0  0  0  0  0  0  0  0  0  0  0
  149.6361  141.2011  157.4587 H   0  0  0  0  0  0  0  0  0  0  0  0
  149.3230  142.5496  154.8108 H   0  0  0  0  0  0  0  0  0  0  0  0
  150.6639  141.6675  155.4487 H   0  0  0  0  0  0  0  0  0  0  0  0
  142.9833  138.8251  153.0977 H   0  0  0  0  0  0  0  0  0  0  0  0
  138.3414  136.6051  153.8325 H   0  0  0  0  0  0  0  0  0  0  0  0
  1  2  2  0  0  0  0
  2  3  1  0  0  0  0
  2 14  1  0  0  0  0
  3  4  1  0  0  0  0
  3 20  1  0  0  0  0
  4  5  1  0  0  0  0
  4 21  1  0  0  0  0
  4 22  1  0  0  0  0
  5  6  1  0  0  0  0
  5 23  1  0  0  0  0
  5 24  1  0  0  0  0
  6 12  1  0  0  0  0
  6  7  1  0  0  0  0
  7  8  1  0  0  0  0
  7 25  1  0  0  0  0
  7 26  1  0  0  0  0
  8  9  1  0  0  0  0
  8 27  1  0  0  0  0
  8 28  1  0  0  0  0
  9 10  1  0  0  0  0
  9 29  1  0  0  0  0
  9 30  1  0  0  0  0
 10 11  1  0  0  0  0
 10 31  1  0  0  0  0
 10 32  1  0  0  0  0
 11 12  1  0  0  0  0
 11 33  1  0  0  0  0
 11 34  1  0  0  0  0
 12 13  2  0  0  0  0
 14 15  1  0  0  0  0
 14 35  1  0  0  0  0
 15 19  1  0  0  0  0
 15 16  2  0  0  0  0
 16 17  1  0  0  0  0
 17 18  2  0  0  0  0
 18 19  1  0  0  0  0
 18 36  1  0  0  0  0
M  END
> <s_m_source_file>
AV-unprocessed.smi

> <i_m_source_file_index>
1624

> <i_lp_mmshare_version>
43012

> <i_f3d_flags>
0

> <s_epik_input>
czFbY0hdbm5jMVtOSF1DKD1PKVtOSF1bQ0gyXVtDSDJdTjJbQ0gyXVtDSDJdW0NIMl1bQ0gyXVtDSDJdQzI9Tw==

> <s_epik_cmdline>
J2VwaWtfcHl0aG9uJywgJy1waCcsICc3LjAnLCAnLXRuJywgJzgnLCAnLW1hJywgJzIwMCcsICctbWV0YWxfYmluZGluZycsICctaW1hZScsICc8aW5maWxlLm1hZT4nLCAnLW9tYWUnLCAnPG91dGZpbGUubWFlPic=

> <r_lp_tautomer_probability>
1

> <r_epik_Ionization_Penalty>
0.00222419

> <r_epik_Ionization_Penalty_Charging>
0

> <r_epik_Ionization_Penalty_Neutral>
0.00222419

> <r_epik_State_Penalty>
-0

> <r_epik_Charging_Adjusted_Penalty>
0

> <i_epik_Tot_Q>
0

> <i_epik_Tot_abs_Q>
0

> <r_epik_Metal_State_Penalty>
0.3454

> <b_epik_Metal_Only>
0

> <s_lp_Force_Field>
OPLS_2005

> <r_lp_Energy>
20.1162

> <b_lp_Chiralities_Consistent>
1

> <s_lp_Variant>
AV-unprocessed.smi:1624-1

> <Gold.Version>
5.8.1

> <Gold.Id.Protein>
6NUR|6NUR_protein|mol2

> <Gold.PLP.Fitness>
39.0143

> <Gold.PLP.PLP>
-28.5730

> <Gold.PLP.part.hbond>
-4.2145

> <Gold.PLP.part.metal>
0.0000

> <Gold.PLP.part.buried>
-4.0010

> <Gold.PLP.part.nonpolar>
-20.8824

> <Gold.PLP.part.repulsive>
1.2056

> <Gold.PLP.ligand.clash>
0.0000

> <Gold.PLP.ligand.torsion>
0.5088

> <Gold.PLP.Chemscore.Hbond>
3.8160

> <Gold.PLP.Chemscore.CHOScore>
0.0000

> <Gold.PLP.Chemscore.Metal>
0.0000

> <Gold.Chemscore.Hbonds>
donor molecule, donor type, donor heavy atom, donor atom, acceptor molecule, acceptor atom, score
      L1  H     3    20       P1 10175  1.00
      L1  H    14    35       P1 10175  1.00
      P1  H  7989  7998       L1    13  0.76
      P1  H 11000 11005       L1    17  0.63

> <Gold.PLP.Chemscore.Internal.Correction>
0.0109

> <Gold.Rescore>
     Score         DG    S(hbond)    S(metal)    S(lipo)     H(rot)  DE(clash)    DE(int)     intcor
     15.28     -18.15       3.64        0.00      42.84       1.76       1.15       1.72       ----

> <Gold.Chemscore.Fitness>
15.2833

> <Gold.Chemscore.DG>
-18.1538

> <Gold.Chemscore.ZeroCoef>
-5.4800

> <Gold.Chemscore.Hbond>
3.6440

> <Gold.Chemscore.Metal>
0.0000

> <Gold.Chemscore.Lipo>
42.8401

> <Gold.Chemscore.Internal_Hbond>
0.0000

> <Gold.Chemscore.DEClash>
1.1462

> <Gold.Chemscore.DEInternal>
1.7244

> <Gold.Chemscore.Rot>
1.7615

> <Gold.Chemscore.Internal.Correction>
   9.000000E+99

> <Gold.Chemscore.Hbonds>
donor molecule, donor type, donor heavy atom, donor atom, acceptor molecule, acceptor atom, score
      L1  H     3    20       P1 10175  0.97
      L1  H    14    35       P1 10175  0.99
      P1  H  7989  7998       L1    13  0.22
      P1  H 11000 11005       L1    17  0.12

> <Gold.Chemscore.Hbond.Weighted>
-12.1710

> <Gold.Chemscore.Metal.Weighted>
-0.0000

> <Gold.Chemscore.Lipo.Weighted>
-5.0123

> <Gold.Chemscore.Internal_Hbond.Weighted>
0.0000

> <Gold.Chemscore.DEClash.Weighted>
1.1462

> <Gold.Chemscore.DEInternal.Weighted>
1.7244

> <Gold.Chemscore.Rot.Weighted>
4.5095

> <Gold.Chemscore.Internal.Correction.Weighted>
   9.000000E+99

> <Gold.Protein.RotatedTorsions>
[ 6907 6896 6895 6894 ] final   39.30 input  -60.11 | X-H torsion
[ 7974 7965 7964 7962 ] final   94.95 input  175.53 | X-H torsion
[ 8008 7997 7996 7995 ] final  169.29 input   59.86 | X-H torsion
[ 10167 10162 10161 10158 ] final  156.06 input  -65.29 | X-H torsion
[ 10718 10713 10712 10709 ] final  -69.76 input   66.30 | X-H torsion
[ 10763 10752 10751 10750 ] final  -54.04 input  -60.55 | X-H torsion
[ 11005 11000 10999 10996 ] final   25.47 input  -57.11 | X-H torsion

> <Gold.Protein.ActiveResidues>
 VAL166  LYS551  ARG553  GLY616  TRP617  ASP618  TYR619  PRO620  LYS621  CYS622 
 ASP623  PHE694  ASN695  SER759  ASP760  ASP761  ALA762  ILE779  LEU786  VAL792 
 PHE793  MET794  SER795  GLU796  ALA797  LYS798  CYS799  TRP800  GLU811  SER814 

> <Gold.Protein.RotatedAtoms>
  152.1678  134.8859  160.0536 H   0  0  0  0  0  0  0  0  0  0  0  0  # atno 6907 bound_to 6896
  151.9831  133.3759  159.4123 H   0  0  0  0  0  0  0  0  0  0  0  0  # atno 6908 bound_to 6896
  150.6897  134.3940  159.5133 H   0  0  0  0  0  0  0  0  0  0  0  0  # atno 6909 bound_to 6896
  145.4587  139.2288  143.2999 H   0  0  0  0  0  0  0  0  0  0  0  0  # atno 7974 bound_to 7965
  156.1471  140.1568  156.8830 H   0  0  0  0  0  0  0  0  0  0  0  0  # atno 8008 bound_to 7997
  154.5037  140.0818  156.7889 H   0  0  0  0  0  0  0  0  0  0  0  0  # atno 8009 bound_to 7997
  155.3968  140.3412  155.4257 H   0  0  0  0  0  0  0  0  0  0  0  0  # atno 8010 bound_to 7997
  139.4821  144.5043  151.8121 H   0  0  0  0  0  0  0  0  0  0  0  0  # atno 10167 bound_to 10162
  156.0440  130.4319  150.2196 H   0  0  0  0  0  0  0  0  0  0  0  0  # atno 10718 bound_to 10713
  154.1685  135.6463  153.5003 H   0  0  0  0  0  0  0  0  0  0  0  0  # atno 10763 bound_to 10752
  153.0091  135.5377  154.6637 H   0  0  0  0  0  0  0  0  0  0  0  0  # atno 10764 bound_to 10752
  154.5970  135.2940  155.0548 H   0  0  0  0  0  0  0  0  0  0  0  0  # atno 10765 bound_to 10752
  140.3474  134.2266  155.7683 H   0  0  0  0  0  0  0  0  0  0  0  0  # atno 11005 bound_to 11000
  146.2463  140.5354  142.8912 LP  0  0  0  0  0  0  0  0  0  0  0  0  # atno 17320 bound_to 7965
  144.8016  140.6224  143.6474 LP  0  0  0  0  0  0  0  0  0  0  0  0  # atno 17321 bound_to 7965
  140.4539  144.1816  150.5900 LP  0  0  0  0  0  0  0  0  0  0  0  0  # atno 17342 bound_to 10162
  140.4556  143.2469  151.9290 LP  0  0  0  0  0  0  0  0  0  0  0  0  # atno 17343 bound_to 10162
  157.0288  131.0001  151.3318 LP  0  0  0  0  0  0  0  0  0  0  0  0  # atno 17370 bound_to 10713
  157.5292  130.8047  149.7897 LP  0  0  0  0  0  0  0  0  0  0  0  0  # atno 17371 bound_to 10713
  141.2021  133.7945  157.0405 LP  0  0  0  0  0  0  0  0  0  0  0  0  # atno 17394 bound_to 11000
  140.0731  134.9691  157.1500 LP  0  0  0  0  0  0  0  0  0  0  0  0  # atno 17395 bound_to 11000

$$$$
