AV-unprocessed.smi:39|AV-procd|sdf|355|dock2
  -GOLD-   2262016193D 1   1.00000     0.00000
 Structure written by MMmdl.
 32 33  0  0  0  0  0  0  0  0  3 V2000
  152.6091  144.1563  160.6657 C   0  0  0  0  0  0  0  0  0  0  0  0
  151.9516  143.4693  159.4803 C   0  0  0  0  0  0  0  0  0  0  0  0
  152.0482  142.1318  159.2686 C   0  0  0  0  0  0  0  0  0  0  0  0
  151.4586  141.4768  158.1959 N   0  0  0  0  0  0  0  0  0  0  0  0
  151.6014  139.9842  158.0049 C   0  0  1  0  0  0  0  0  0  0  0  0
  150.2219  139.3094  157.9464 C   0  0  0  0  0  0  0  0  0  0  0  0
  150.4298  138.2278  156.8998 C   0  0  2  0  0  0  0  0  0  0  0  0
  150.9953  137.0272  157.5286 N   0  0  0  0  0  0  0  0  0  0  0  0
  150.2334  136.3617  158.2427 N   0  3  0  0  0  0  0  0  0  0  0  0
  149.4578  135.7400  158.7969 N   0  5  0  0  0  0  0  0  0  0  0  0
  151.3959  138.9684  155.9568 C   0  0  2  0  0  0  0  0  0  0  0  0
  152.1720  138.1948  154.8709 C   0  0  0  0  0  0  0  0  0  0  0  0
  151.5920  136.9482  154.5506 O   0  0  0  0  0  0  0  0  0  0  0  0
  152.2549  139.7336  156.7942 O   0  0  0  0  0  0  0  0  0  0  0  0
  150.7366  142.2243  157.2427 C   0  0  0  0  0  0  0  0  0  0  0  0
  150.2161  141.7191  156.2491 O   0  0  0  0  0  0  0  0  0  0  0  0
  150.6326  143.5966  157.4620 N   0  0  0  0  0  0  0  0  0  0  0  0
  151.1925  144.2934  158.5354 C   0  0  0  0  0  0  0  0  0  0  0  0
  151.0278  145.5092  158.6227 O   0  0  0  0  0  0  0  0  0  0  0  0
  152.2398  139.6050  158.8048 H   0  0  0  0  0  0  0  0  0  0  0  0
  149.4870  138.0037  156.3962 H   0  0  0  0  0  0  0  0  0  0  0  0
  150.7896  139.6985  155.4181 H   0  0  0  0  0  0  0  0  0  0  0  0
  150.1109  144.1341  156.7851 H   0  0  0  0  0  0  0  0  0  0  0  0
  153.1477  143.4485  161.2963 H   0  0  0  0  0  0  0  0  0  0  0  0
  151.8585  144.6503  161.2838 H   0  0  0  0  0  0  0  0  0  0  0  0
  153.3211  144.9083  160.3239 H   0  0  0  0  0  0  0  0  0  0  0  0
  152.6208  141.5522  159.9765 H   0  0  0  0  0  0  0  0  0  0  0  0
  149.9190  138.9405  158.9273 H   0  0  0  0  0  0  0  0  0  0  0  0
  149.4765  140.0270  157.5991 H   0  0  0  0  0  0  0  0  0  0  0  0
  152.2225  138.7907  153.9595 H   0  0  0  0  0  0  0  0  0  0  0  0
  153.1986  138.0260  155.1967 H   0  0  0  0  0  0  0  0  0  0  0  0
  151.3751  136.9440  153.6308 H   0  0  0  0  0  0  0  0  0  0  0  0
  1  2  1  0  0  0  0
  1 24  1  0  0  0  0
  1 25  1  0  0  0  0
  1 26  1  0  0  0  0
  2 18  1  0  0  0  0
  2  3  2  0  0  0  0
  3  4  1  0  0  0  0
  3 27  1  0  0  0  0
  4  5  1  0  0  0  0
  4 15  1  0  0  0  0
  5 20  1  0  0  0  0
  5 14  1  0  0  0  0
  5  6  1  0  0  0  0
  6  7  1  0  0  0  0
  6 28  1  0  0  0  0
  6 29  1  0  0  0  0
  7 21  1  0  0  0  0
  7  8  1  0  0  0  0
  7 11  1  0  0  0  0
  8  9  2  0  0  0  0
  9 10  2  0  0  0  0
 11 22  1  0  0  0  0
 11 12  1  0  0  0  0
 11 14  1  0  0  0  0
 12 13  1  0  0  0  0
 12 30  1  0  0  0  0
 12 31  1  0  0  0  0
 13 32  1  0  0  0  0
 15 16  2  0  0  0  0
 15 17  1  0  0  0  0
 17 23  1  0  0  0  0
 17 18  1  0  0  0  0
 18 19  2  0  0  0  0
M  CHG  1   9   1
M  CHG  1  10  -1
M  END
> <s_m_source_file>
AV-unprocessed.smi

> <i_m_source_file_index>
39

> <i_lp_mmshare_version>
43012

> <i_f3d_flags>
0

> <s_epik_input>
Tz1jMVtuSF1jKD1PKW4oW2NIXWMxW0NIM10pW0NASF0yW0NIMl1bQ0BIXShOPVtOK109W04tXSlbQ0BIXShPMilbQ0gyXVtPSF0=

> <s_epik_cmdline>
J2VwaWtfcHl0aG9uJywgJy1waCcsICc3LjAnLCAnLXRuJywgJzgnLCAnLW1hJywgJzIwMCcsICctbWV0YWxfYmluZGluZycsICctaW1hZScsICc8aW5maWxlLm1hZT4nLCAnLW9tYWUnLCAnPG91dGZpbGUubWFlPic=

> <r_lp_tautomer_probability>
0.999537

> <r_epik_Ionization_Penalty>
0.00127512

> <r_epik_Ionization_Penalty_Charging>
0.00127507

> <r_epik_Ionization_Penalty_Neutral>
5.43433e-08

> <r_epik_State_Penalty>
0.000844892

> <r_epik_Charging_Adjusted_Penalty>
0.00211996

> <i_epik_Tot_Q>
0

> <i_epik_Tot_abs_Q>
2

> <r_epik_Metal_State_Penalty>
0.680636

> <b_epik_Metal_Only>
0

> <s_epik_Chemistry_Notes>
This compound contains an acetal/aminal-like group ( X-CH(R)-Y where X, Y are N, S, or O) that may be acid/base labile, releasing an aldehyde.

> <s_lp_Force_Field>
OPLS_2005

> <r_lp_Energy>
30.2266

> <b_lp_Chiralities_Consistent>
1

> <s_lp_Variant>
AV-unprocessed.smi:39-5

> <Gold.Version>
5.8.1

> <Gold.Id.Protein>
6NUR|6NUR_protein|mol2

> <Gold.PLP.Fitness>
46.4233

> <Gold.PLP.PLP>
-32.7586

> <Gold.PLP.part.hbond>
-6.0289

> <Gold.PLP.part.metal>
0.0000

> <Gold.PLP.part.buried>
-6.6364

> <Gold.PLP.part.nonpolar>
-20.9342

> <Gold.PLP.part.repulsive>
0.2427

> <Gold.PLP.ligand.clash>
0.0000

> <Gold.PLP.ligand.torsion>
0.5876

> <Gold.PLP.Chemscore.Hbond>
4.9280

> <Gold.PLP.Chemscore.CHOScore>
0.0000

> <Gold.PLP.Chemscore.Metal>
0.0000

> <Gold.Chemscore.Hbonds>
donor molecule, donor type, donor heavy atom, donor atom, acceptor molecule, acceptor atom, score
      L1  H    13    32       P1  7949  0.19
      L1  H    17    23       P1  8028  1.00
      P1  H  6896  6907       L1    10  0.65
      P1  H  7997  8010       L1    14  0.71
      P1  H 10752 10763       L1    13  0.70

> <Gold.PLP.Chemscore.Internal.Correction>
0.0558

> <Gold.Rescore>
     Score         DG    S(hbond)    S(metal)    S(lipo)     H(rot)  DE(clash)    DE(int)     intcor
     14.93     -18.06       3.94        0.00      55.19       2.75       0.06       3.07       ----

> <Gold.Chemscore.Fitness>
14.9305

> <Gold.Chemscore.DG>
-18.0645

> <Gold.Chemscore.ZeroCoef>
-5.4800

> <Gold.Chemscore.Hbond>
3.9441

> <Gold.Chemscore.Metal>
0.0000

> <Gold.Chemscore.Lipo>
55.1906

> <Gold.Chemscore.Internal_Hbond>
0.0000

> <Gold.Chemscore.DEClash>
0.0640

> <Gold.Chemscore.DEInternal>
3.0701

> <Gold.Chemscore.Rot>
2.7524

> <Gold.Chemscore.Internal.Correction>
   9.000000E+99

> <Gold.Chemscore.Hbonds>
donor molecule, donor type, donor heavy atom, donor atom, acceptor molecule, acceptor atom, score
      L1  H    13    32       P1  7949  0.15
      L1  H    17    23       P1  8028  0.98
      P1  H  6896  6907       L1    10  0.06
      P1  H  7997  8010       L1    14  0.72
      P1  H 10752 10763       L1    13  0.05

> <Gold.Chemscore.Hbond.Weighted>
-13.1733

> <Gold.Chemscore.Metal.Weighted>
-0.0000

> <Gold.Chemscore.Lipo.Weighted>
-6.4573

> <Gold.Chemscore.Internal_Hbond.Weighted>
0.0000

> <Gold.Chemscore.DEClash.Weighted>
0.0640

> <Gold.Chemscore.DEInternal.Weighted>
3.0701

> <Gold.Chemscore.Rot.Weighted>
7.0461

> <Gold.Chemscore.Internal.Correction.Weighted>
   9.000000E+99

> <Gold.Protein.RotatedTorsions>
[ 6907 6896 6895 6894 ] final  -61.73 input  -60.11 | X-H torsion
[ 7974 7965 7964 7962 ] final -171.60 input  175.53 | X-H torsion
[ 8008 7997 7996 7995 ] final   68.71 input   59.86 | X-H torsion
[ 10167 10162 10161 10158 ] final   92.56 input  -65.29 | X-H torsion
[ 10718 10713 10712 10709 ] final   -4.28 input   66.30 | X-H torsion
[ 10763 10752 10751 10750 ] final   45.99 input  -60.55 | X-H torsion
[ 11005 11000 10999 10996 ] final   74.70 input  -57.11 | X-H torsion

> <Gold.Protein.ActiveResidues>
 VAL166  LYS551  ARG553  GLY616  TRP617  ASP618  TYR619  PRO620  LYS621  CYS622 
 ASP623  PHE694  ASN695  SER759  ASP760  ASP761  ALA762  ILE779  LEU786  VAL792 
 PHE793  MET794  SER795  GLU796  ALA797  LYS798  CYS799  TRP800  GLU811  SER814 

> <Gold.Protein.RotatedAtoms>
  150.7764  134.6665  159.6367 H   0  0  0  0  0  0  0  0  0  0  0  0  # atno 6907 bound_to 6896
  152.3835  134.6550  160.0143 H   0  0  0  0  0  0  0  0  0  0  0  0  # atno 6908 bound_to 6896
  151.6873  133.3275  159.3270 H   0  0  0  0  0  0  0  0  0  0  0  0  # atno 6909 bound_to 6896
  144.7155  140.1897  143.6350 H   0  0  0  0  0  0  0  0  0  0  0  0  # atno 7974 bound_to 7965
  155.7124  140.3494  155.4980 H   0  0  0  0  0  0  0  0  0  0  0  0  # atno 8008 bound_to 7997
  155.9343  140.1090  157.1129 H   0  0  0  0  0  0  0  0  0  0  0  0  # atno 8009 bound_to 7997
  154.4091  140.1225  156.4830 H   0  0  0  0  0  0  0  0  0  0  0  0  # atno 8010 bound_to 7997
  139.8265  144.6707  150.9454 H   0  0  0  0  0  0  0  0  0  0  0  0  # atno 10167 bound_to 10162
  156.7636  130.5277  149.5780 H   0  0  0  0  0  0  0  0  0  0  0  0  # atno 10718 bound_to 10713
  152.9816  135.6022  154.3527 H   0  0  0  0  0  0  0  0  0  0  0  0  # atno 10763 bound_to 10752
  154.3215  135.2769  155.2519 H   0  0  0  0  0  0  0  0  0  0  0  0  # atno 10764 bound_to 10752
  154.4683  135.5948  153.6359 H   0  0  0  0  0  0  0  0  0  0  0  0  # atno 10765 bound_to 10752
  139.9379  134.7455  156.1179 H   0  0  0  0  0  0  0  0  0  0  0  0  # atno 11005 bound_to 11000
  145.8780  139.2307  143.1622 LP  0  0  0  0  0  0  0  0  0  0  0  0  # atno 17320 bound_to 7965
  146.0022  140.8510  143.0013 LP  0  0  0  0  0  0  0  0  0  0  0  0  # atno 17321 bound_to 7965
  140.7810  143.4042  151.1099 LP  0  0  0  0  0  0  0  0  0  0  0  0  # atno 17342 bound_to 10162
  139.7699  143.8510  152.3118 LP  0  0  0  0  0  0  0  0  0  0  0  0  # atno 17343 bound_to 10162
  156.1323  130.6186  151.0351 LP  0  0  0  0  0  0  0  0  0  0  0  0  # atno 17370 bound_to 10713
  157.6723  131.0858  150.7581 LP  0  0  0  0  0  0  0  0  0  0  0  0  # atno 17371 bound_to 10713
  141.1000  133.6681  156.2733 LP  0  0  0  0  0  0  0  0  0  0  0  0  # atno 17394 bound_to 11000
  140.6029  134.5537  157.5520 LP  0  0  0  0  0  0  0  0  0  0  0  0  # atno 17395 bound_to 11000

$$$$
