AV-unprocessed.smi:758|AV-procd|sdf|3618|dock3
  -GOLD-   22720 1 13D 1   1.00000     0.00000
 Structure written by MMmdl.
 47 48  0  0  0  0  0  0  0  0  1 V2000
  147.9148  141.9129  153.9511 C   0  0  0  0  0  0  0  0  0  0  0  0
  148.0428  140.4865  154.5297 C   0  0  0  0  0  0  0  0  0  0  0  0
  147.2825  140.4364  155.8738 C   0  0  0  0  0  0  0  0  0  0  0  0
  147.3247  139.5068  153.5747 C   0  0  0  0  0  0  0  0  0  0  0  0
  149.5383  140.0556  154.7283 C   0  0  2  0  0  0  0  0  0  0  0  0
  149.7193  138.6390  155.3344 C   0  0  0  0  0  0  0  0  0  0  0  0
  151.2008  138.2354  155.4568 C   0  0  0  0  0  0  0  0  0  0  0  0
  152.0380  139.2569  156.2561 C   0  0  2  0  0  0  0  0  0  0  0  0
  153.3904  138.8691  156.1018 O   0  0  0  0  0  0  0  0  0  0  0  0
  151.7291  139.1870  157.7753 C   0  0  0  0  0  0  0  0  0  0  0  0
  152.0578  140.4276  158.4751 N   0  0  0  0  0  0  0  0  0  0  0  0
  153.2875  140.8276  158.8371 C   0  0  0  0  0  0  0  0  0  0  0  0
  154.3114  140.1854  158.6050 O   0  0  0  0  0  0  0  0  0  0  0  0
  153.3765  142.1573  159.5872 C   0  0  0  0  0  0  0  0  0  0  0  0
  152.8086  143.2409  158.8061 N   0  0  0  0  0  0  0  0  0  0  0  0
  152.7268  144.5477  159.0640 C   0  0  0  0  0  0  0  0  0  0  0  0
  152.1268  145.2456  158.1101 N   0  0  0  0  0  0  0  0  0  0  0  0
  151.8450  144.2368  157.2326 C   0  0  0  0  0  0  0  0  0  0  0  0
  152.2324  143.0158  157.6017 N   0  0  0  0  0  0  0  0  0  0  0  0
  151.8641  140.6544  155.6209 C   0  0  0  0  0  0  0  0  0  0  0  0
  150.3872  141.0722  155.5354 C   0  0  0  0  0  0  0  0  0  0  0  0
  146.8675  142.1947  153.8370 H   0  0  0  0  0  0  0  0  0  0  0  0
  148.3722  141.9980  152.9657 H   0  0  0  0  0  0  0  0  0  0  0  0
  148.3758  142.6599  154.5966 H   0  0  0  0  0  0  0  0  0  0  0  0
  147.6220  141.2053  156.5675 H   0  0  0  0  0  0  0  0  0  0  0  0
  147.3997  139.4687  156.3629 H   0  0  0  0  0  0  0  0  0  0  0  0
  146.2138  140.6018  155.7320 H   0  0  0  0  0  0  0  0  0  0  0  0
  146.2567  139.7206  153.5170 H   0  0  0  0  0  0  0  0  0  0  0  0
  147.4307  138.4740  153.9086 H   0  0  0  0  0  0  0  0  0  0  0  0
  147.7046  139.5683  152.5556 H   0  0  0  0  0  0  0  0  0  0  0  0
  149.9790  140.0146  153.7307 H   0  0  0  0  0  0  0  0  0  0  0  0
  149.2420  138.5781  156.3112 H   0  0  0  0  0  0  0  0  0  0  0  0
  149.2291  137.8906  154.7135 H   0  0  0  0  0  0  0  0  0  0  0  0
  151.2764  137.2460  155.9095 H   0  0  0  0  0  0  0  0  0  0  0  0
  151.6109  138.1369  154.4501 H   0  0  0  0  0  0  0  0  0  0  0  0
  153.4470  138.2582  155.3829 H   0  0  0  0  0  0  0  0  0  0  0  0
  150.6805  138.9379  157.9360 H   0  0  0  0  0  0  0  0  0  0  0  0
  152.2922  138.3758  158.2384 H   0  0  0  0  0  0  0  0  0  0  0  0
  151.2790  141.0213  158.7207 H   0  0  0  0  0  0  0  0  0  0  0  0
  152.8441  142.0882  160.5367 H   0  0  0  0  0  0  0  0  0  0  0  0
  154.4178  142.3869  159.8192 H   0  0  0  0  0  0  0  0  0  0  0  0
  153.1115  144.9967  159.9680 H   0  0  0  0  0  0  0  0  0  0  0  0
  151.3391  144.4072  156.2937 H   0  0  0  0  0  0  0  0  0  0  0  0
  152.4345  141.4089  156.1626 H   0  0  0  0  0  0  0  0  0  0  0  0
  152.2778  140.6470  154.6114 H   0  0  0  0  0  0  0  0  0  0  0  0
  150.3487  142.0596  155.0785 H   0  0  0  0  0  0  0  0  0  0  0  0
  149.9897  141.1857  156.5429 H   0  0  0  0  0  0  0  0  0  0  0  0
  1  2  1  0  0  0  0
  1 22  1  0  0  0  0
  1 23  1  0  0  0  0
  1 24  1  0  0  0  0
  2  3  1  0  0  0  0
  2  4  1  0  0  0  0
  2  5  1  0  0  0  0
  3 25  1  0  0  0  0
  3 26  1  0  0  0  0
  3 27  1  0  0  0  0
  4 28  1  0  0  0  0
  4 29  1  0  0  0  0
  4 30  1  0  0  0  0
  5 21  1  0  0  0  0
  5  6  1  0  0  0  0
  5 31  1  0  0  0  0
  6  7  1  0  0  0  0
  6 32  1  0  0  0  0
  6 33  1  0  0  0  0
  7  8  1  0  0  0  0
  7 34  1  0  0  0  0
  7 35  1  0  0  0  0
  8  9  1  0  0  0  0
  8 10  1  0  0  0  0
  8 20  1  0  0  0  0
  9 36  1  0  0  0  0
 10 11  1  0  0  0  0
 10 37  1  0  0  0  0
 10 38  1  0  0  0  0
 11 12  1  0  0  0  0
 11 39  1  0  0  0  0
 12 13  2  0  0  0  0
 12 14  1  0  0  0  0
 14 15  1  0  0  0  0
 14 40  1  0  0  0  0
 14 41  1  0  0  0  0
 15 19  1  0  0  0  0
 15 16  1  0  0  0  0
 16 17  2  0  0  0  0
 16 42  1  0  0  0  0
 17 18  1  0  0  0  0
 18 19  2  0  0  0  0
 18 43  1  0  0  0  0
 20 21  1  0  0  0  0
 20 44  1  0  0  0  0
 20 45  1  0  0  0  0
 21 46  1  0  0  0  0
 21 47  1  0  0  0  0
M  END
> <s_m_source_file>
AV-unprocessed.smi

> <i_m_source_file_index>
758

> <i_lp_mmshare_version>
43012

> <i_f3d_flags>
0

> <s_epik_input>
W0NIM11DKFtDSDNdKShbQ0gzXSlbQ0BASF0oW0NIMl1bQ0gyXTEpW0NIMl1bQ0gyXVtDQEBdMShbT0hdKVtDSDJdW05IXUMoPU8pW0NIMl1uMltjSF1uW2NIXW4y

> <s_epik_cmdline>
J2VwaWtfcHl0aG9uJywgJy1waCcsICc3LjAnLCAnLXRuJywgJzgnLCAnLW1hJywgJzIwMCcsICctbWV0YWxfYmluZGluZycsICctaW1hZScsICc8aW5maWxlLm1hZT4nLCAnLW9tYWUnLCAnPG91dGZpbGUubWFlPic=

> <r_lp_tautomer_probability>
1

> <r_epik_Ionization_Penalty>
1.04836e-05

> <r_epik_Ionization_Penalty_Charging>
0

> <r_epik_Ionization_Penalty_Neutral>
1.04836e-05

> <r_epik_State_Penalty>
-0

> <r_epik_Charging_Adjusted_Penalty>
0

> <i_epik_Tot_Q>
0

> <i_epik_Tot_abs_Q>
0

> <r_epik_Metal_State_Penalty>
-0

> <b_epik_Metal_Only>
0

> <s_lp_Force_Field>
OPLS_2005

> <r_lp_Energy>
24.1988

> <b_lp_Chiralities_Consistent>
1

> <s_lp_Variant>
AV-unprocessed.smi:758-2

> <Gold.Version>
5.8.1

> <Gold.Id.Protein>
6NUR|6NUR_protein|mol2

> <Gold.PLP.Fitness>
44.4317

> <Gold.PLP.PLP>
-39.6209

> <Gold.PLP.part.hbond>
-2.0000

> <Gold.PLP.part.metal>
0.0000

> <Gold.PLP.part.buried>
-3.9121

> <Gold.PLP.part.nonpolar>
-33.5176

> <Gold.PLP.part.repulsive>
0.2480

> <Gold.PLP.ligand.clash>
0.0000

> <Gold.PLP.ligand.torsion>
0.6298

> <Gold.PLP.Chemscore.Hbond>
1.0000

> <Gold.PLP.Chemscore.CHOScore>
1.0000

> <Gold.PLP.Chemscore.Metal>
0.0000

> <Gold.Chemscore.Hbonds>
donor molecule, donor type, donor heavy atom, donor atom, acceptor molecule, acceptor atom, score
      P1  H  7997  8009       L1     9  0.96
      L1  C    18    43       P1  8028  1.00

> <Gold.PLP.Chemscore.Internal.Correction>
0.0704

> <Gold.Rescore>
     Score         DG    S(hbond)    S(metal)    S(lipo)     H(rot)  DE(clash)    DE(int)     intcor
      4.93      -8.36       0.85        0.00      69.61       3.17       0.25       3.19       ----

> <Gold.Chemscore.Fitness>
4.9293

> <Gold.Chemscore.DG>
-8.3625

> <Gold.Chemscore.ZeroCoef>
-5.4800

> <Gold.Chemscore.Hbond>
0.8514

> <Gold.Chemscore.Metal>
0.0000

> <Gold.Chemscore.Lipo>
69.6103

> <Gold.Chemscore.Internal_Hbond>
0.0000

> <Gold.Chemscore.DEClash>
0.2480

> <Gold.Chemscore.DEInternal>
3.1852

> <Gold.Chemscore.Rot>
3.1663

> <Gold.Chemscore.Internal.Correction>
   9.000000E+99

> <Gold.Chemscore.Hbonds>
donor molecule, donor type, donor heavy atom, donor atom, acceptor molecule, acceptor atom, score
      P1  H  7997  8008       L1    13  0.01
      P1  H  7997  8009       L1     9  0.71

> <Gold.Chemscore.Hbond.Weighted>
-2.8437

> <Gold.Chemscore.Metal.Weighted>
-0.0000

> <Gold.Chemscore.Lipo.Weighted>
-8.1444

> <Gold.Chemscore.Internal_Hbond.Weighted>
0.0000

> <Gold.Chemscore.DEClash.Weighted>
0.2480

> <Gold.Chemscore.DEInternal.Weighted>
3.1852

> <Gold.Chemscore.Rot.Weighted>
8.1056

> <Gold.Chemscore.Internal.Correction.Weighted>
   9.000000E+99

> <Gold.Protein.RotatedTorsions>
[ 6907 6896 6895 6894 ] final  -86.97 input  -60.11 | X-H torsion
[ 7974 7965 7964 7962 ] final   -2.44 input  175.53 | X-H torsion
[ 8008 7997 7996 7995 ] final -170.04 input   59.86 | X-H torsion
[ 10167 10162 10161 10158 ] final   41.62 input  -65.29 | X-H torsion
[ 10718 10713 10712 10709 ] final  -10.16 input   66.30 | X-H torsion
[ 10763 10752 10751 10750 ] final   64.14 input  -60.55 | X-H torsion
[ 11005 11000 10999 10996 ] final  -61.87 input  -57.11 | X-H torsion

> <Gold.Protein.ActiveResidues>
 VAL166  LYS551  ARG553  GLY616  TRP617  ASP618  TYR619  PRO620  LYS621  CYS622 
 ASP623  PHE694  ASN695  SER759  ASP760  ASP761  ALA762  ILE779  LEU786  VAL792 
 PHE793  MET794  SER795  GLU796  ALA797  LYS798  CYS799  TRP800  GLU811  SER814 

> <Gold.Protein.RotatedAtoms>
  150.6866  134.2969  159.4689 H   0  0  0  0  0  0  0  0  0  0  0  0  # atno 6907 bound_to 6896
  152.0869  134.9431  160.0582 H   0  0  0  0  0  0  0  0  0  0  0  0  # atno 6908 bound_to 6896
  152.0762  133.4096  159.4518 H   0  0  0  0  0  0  0  0  0  0  0  0  # atno 6909 bound_to 6896
  146.2404  140.1571  142.8333 H   0  0  0  0  0  0  0  0  0  0  0  0  # atno 7974 bound_to 7965
  155.9131  140.1061  157.1264 H   0  0  0  0  0  0  0  0  0  0  0  0  # atno 8008 bound_to 7997
  154.4042  140.1270  156.4647 H   0  0  0  0  0  0  0  0  0  0  0  0  # atno 8009 bound_to 7997
  155.7287  140.3469  155.5051 H   0  0  0  0  0  0  0  0  0  0  0  0  # atno 8010 bound_to 7997
  140.3625  144.2209  150.6137 H   0  0  0  0  0  0  0  0  0  0  0  0  # atno 10167 bound_to 10162
  156.6775  130.5027  149.5981 H   0  0  0  0  0  0  0  0  0  0  0  0  # atno 10718 bound_to 10713
  153.0044  135.5404  154.6463 H   0  0  0  0  0  0  0  0  0  0  0  0  # atno 10763 bound_to 10752
  154.5706  135.2841  155.0833 H   0  0  0  0  0  0  0  0  0  0  0  0  # atno 10764 bound_to 10752
  154.2000  135.6485  153.5137 H   0  0  0  0  0  0  0  0  0  0  0  0  # atno 10765 bound_to 10752
  141.1340  133.6634  156.5442 H   0  0  0  0  0  0  0  0  0  0  0  0  # atno 11005 bound_to 11000
  145.0120  140.8722  143.5218 LP  0  0  0  0  0  0  0  0  0  0  0  0  # atno 17320 bound_to 7965
  145.1606  139.2461  143.5393 LP  0  0  0  0  0  0  0  0  0  0  0  0  # atno 17321 bound_to 7965
  140.5112  143.2290  151.8532 LP  0  0  0  0  0  0  0  0  0  0  0  0  # atno 17342 bound_to 10162
  139.4812  144.4947  151.9139 LP  0  0  0  0  0  0  0  0  0  0  0  0  # atno 17343 bound_to 10162
  156.1892  130.6549  151.1042 LP  0  0  0  0  0  0  0  0  0  0  0  0  # atno 17370 bound_to 10713
  157.7055  131.0758  150.6680 LP  0  0  0  0  0  0  0  0  0  0  0  0  # atno 17371 bound_to 10713
  140.4116  134.7267  157.4839 LP  0  0  0  0  0  0  0  0  0  0  0  0  # atno 17394 bound_to 11000
  140.0423  134.6249  155.8964 LP  0  0  0  0  0  0  0  0  0  0  0  0  # atno 17395 bound_to 11000

$$$$
