AV-unprocessed.smi:1490|AV-procd|sdf|6031|dock5
  -GOLD-   22720 6133D 1   1.00000     0.00000
 Structure written by MMmdl.
 37 38  0  0  0  0  0  0  0  0  3 V2000
  151.2091  138.1422  154.2402 C   0  0  0  0  0  0  0  0  0  0  0  0
  151.8682  139.3203  154.6677 O   0  0  0  0  0  0  0  0  0  0  0  0
  152.5854  139.1425  155.8781 C   0  0  0  0  0  0  0  0  0  0  0  0
  151.6517  139.4120  157.0668 C   0  0  0  0  0  0  0  0  0  0  0  0
  151.0747  140.7628  157.0216 N   0  0  0  0  0  0  0  0  0  0  0  0
  150.1616  141.3045  156.1676 C   0  0  0  0  0  0  0  0  0  0  0  0
  149.3794  140.4829  154.8188 S   0  0  0  0  0  0  0  0  0  0  0  0
  148.2666  141.7140  154.0830 C   0  0  0  0  0  0  0  0  0  0  0  0
  146.9983  141.9216  154.9097 C   0  0  0  0  0  0  0  0  0  0  0  0
  146.1204  142.6777  154.4961 O   0  0  0  0  0  0  0  0  0  0  0  0
  147.0185  141.1973  156.0502 N   0  5  0  0  0  0  0  0  0  0  0  0
  145.8654  141.2334  156.9278 C   0  0  0  0  0  0  0  0  0  0  0  0
  146.2351  141.7857  158.2401 C   0  0  0  0  0  0  0  0  0  0  0  0
  146.5263  142.2209  159.2724 N   0  0  0  0  0  0  0  0  0  0  0  0
  149.9722  142.6019  156.5343 N   0  3  0  0  0  0  0  0  0  0  0  0
  150.7802  142.8980  157.6333 C   0  0  0  0  0  0  0  0  0  0  0  0
  150.9397  144.0764  158.3554 C   0  0  0  0  0  0  0  0  0  0  0  0
  151.8582  144.0457  159.4256 C   0  0  0  0  0  0  0  0  0  0  0  0
  152.1080  145.4704  160.3654 Cl  0  0  0  0  0  0  0  0  0  0  0  0
  152.5770  142.8735  159.7401 C   0  0  0  0  0  0  0  0  0  0  0  0
  152.4076  141.6837  159.0015 C   0  0  0  0  0  0  0  0  0  0  0  0
  151.4947  141.7227  157.9484 C   0  0  0  0  0  0  0  0  0  0  0  0
  150.6773  138.3392  153.3092 H   0  0  0  0  0  0  0  0  0  0  0  0
  150.4810  137.8073  154.9798 H   0  0  0  0  0  0  0  0  0  0  0  0
  151.9210  137.3363  154.0581 H   0  0  0  0  0  0  0  0  0  0  0  0
  152.9755  138.1256  155.9377 H   0  0  0  0  0  0  0  0  0  0  0  0
  153.4380  139.8227  155.9084 H   0  0  0  0  0  0  0  0  0  0  0  0
  150.8271  138.6985  157.0629 H   0  0  0  0  0  0  0  0  0  0  0  0
  152.1715  139.2755  158.0154 H   0  0  0  0  0  0  0  0  0  0  0  0
  148.8023  142.6581  153.9803 H   0  0  0  0  0  0  0  0  0  0  0  0
  147.9935  141.3972  153.0752 H   0  0  0  0  0  0  0  0  0  0  0  0
  145.0582  141.8544  156.5372 H   0  0  0  0  0  0  0  0  0  0  0  0
  145.4438  140.2432  157.1019 H   0  0  0  0  0  0  0  0  0  0  0  0
  150.3920  144.9752  158.1125 H   0  0  0  0  0  0  0  0  0  0  0  0
  153.2742  142.8862  160.5654 H   0  0  0  0  0  0  0  0  0  0  0  0
  152.9660  140.7932  159.2494 H   0  0  0  0  0  0  0  0  0  0  0  0
  149.3426  143.2356  156.0589 H   0  0  0  0  0  0  0  0  0  0  0  0
  1  2  1  0  0  0  0
  1 23  1  0  0  0  0
  1 24  1  0  0  0  0
  1 25  1  0  0  0  0
  2  3  1  0  0  0  0
  3  4  1  0  0  0  0
  3 26  1  0  0  0  0
  3 27  1  0  0  0  0
  4  5  1  0  0  0  0
  4 28  1  0  0  0  0
  4 29  1  0  0  0  0
  5 22  1  0  0  0  0
  5  6  1  0  0  0  0
  6  7  1  0  0  0  0
  6 15  2  0  0  0  0
  7  8  1  0  0  0  0
  8  9  1  0  0  0  0
  8 30  1  0  0  0  0
  8 31  1  0  0  0  0
  9 10  2  0  0  0  0
  9 11  1  0  0  0  0
 11 12  1  0  0  0  0
 12 13  1  0  0  0  0
 12 32  1  0  0  0  0
 12 33  1  0  0  0  0
 13 14  3  0  0  0  0
 15 16  1  0  0  0  0
 15 37  1  0  0  0  0
 16 22  2  0  0  0  0
 16 17  1  0  0  0  0
 17 18  2  0  0  0  0
 17 34  1  0  0  0  0
 18 19  1  0  0  0  0
 18 20  1  0  0  0  0
 20 21  2  0  0  0  0
 20 35  1  0  0  0  0
 21 22  1  0  0  0  0
 21 36  1  0  0  0  0
M  CHG  1  11  -1
M  CHG  1  15   1
M  END
> <s_m_source_file>
AV-unprocessed.smi

> <i_m_source_file_index>
1490

> <i_lp_mmshare_version>
43012

> <i_f3d_flags>
0

> <s_epik_input>
W2NIXTFjKENsKVtjSF1bY0hdYyhjMTIpbihbQ0gyXVtDSDJdT1tDSDNdKWMobjIpU1tDSDJdQyg9TylbTkhdW0NIMl1DI04=

> <s_epik_cmdline>
J2VwaWtfcHl0aG9uJywgJy1waCcsICc3LjAnLCAnLXRuJywgJzgnLCAnLW1hJywgJzIwMCcsICctbWV0YWxfYmluZGluZycsICctaW1hZScsICc8aW5maWxlLm1hZT4nLCAnLW9tYWUnLCAnPG91dGZpbGUubWFlPic=

> <r_epik_Ionization_Penalty>
9.25224

> <r_epik_Ionization_Penalty_Charging>
9.25224

> <r_epik_Ionization_Penalty_Neutral>
2.90678e-12

> <r_epik_State_Penalty>
9.37242

> <r_epik_Charging_Adjusted_Penalty>
18.6247

> <i_epik_Tot_Q>
0

> <i_epik_Tot_abs_Q>
2

> <r_epik_Metal_State_Penalty>
5.29561

> <b_epik_Metal_Only>
1

> <s_lp_Force_Field>
OPLS_2005

> <r_lp_Energy>
5.70634

> <b_lp_Chiralities_Consistent>
1

> <s_lp_Variant>
AV-unprocessed.smi:1490-3

> <Gold.Version>
5.8.1

> <Gold.Id.Protein>
6NUR|6NUR_protein|mol2

> <Gold.PLP.Fitness>
55.6705

> <Gold.PLP.PLP>
-44.1745

> <Gold.PLP.part.hbond>
-3.0000

> <Gold.PLP.part.metal>
0.0000

> <Gold.PLP.part.buried>
-5.4335

> <Gold.PLP.part.nonpolar>
-37.0131

> <Gold.PLP.part.repulsive>
0.4110

> <Gold.PLP.ligand.clash>
0.0000

> <Gold.PLP.ligand.torsion>
0.3426

> <Gold.PLP.Chemscore.Hbond>
3.9920

> <Gold.PLP.Chemscore.CHOScore>
0.0000

> <Gold.PLP.Chemscore.Metal>
0.0000

> <Gold.Chemscore.Hbonds>
donor molecule, donor type, donor heavy atom, donor atom, acceptor molecule, acceptor atom, score
      L1  H    15    37       P1  8028  2.00
      P1  H  6934  6946       L1    14  0.98
      P1  H  7989  7998       L1     2  0.99

> <Gold.PLP.Chemscore.Internal.Correction>
0.2051

> <Gold.Rescore>
     Score         DG    S(hbond)    S(metal)    S(lipo)     H(rot)  DE(clash)    DE(int)     intcor
     18.09     -20.12       2.83        0.00     104.47       2.74       0.14       1.90       ----

> <Gold.Chemscore.Fitness>
18.0928

> <Gold.Chemscore.DG>
-20.1239

> <Gold.Chemscore.ZeroCoef>
-5.4800

> <Gold.Chemscore.Hbond>
2.8263

> <Gold.Chemscore.Metal>
0.0000

> <Gold.Chemscore.Lipo>
104.4743

> <Gold.Chemscore.Internal_Hbond>
0.0000

> <Gold.Chemscore.DEClash>
0.1359

> <Gold.Chemscore.DEInternal>
1.8952

> <Gold.Chemscore.Rot>
2.7420

> <Gold.Chemscore.Internal.Correction>
   9.000000E+99

> <Gold.Chemscore.Hbonds>
donor molecule, donor type, donor heavy atom, donor atom, acceptor molecule, acceptor atom, score
      L1  H    15    37       P1  8028  0.94
      P1  H  6934  6946       L1    14  0.81
      P1  H  7989  7998       L1     2  0.84

> <Gold.Chemscore.Hbond.Weighted>
-9.4398

> <Gold.Chemscore.Metal.Weighted>
-0.0000

> <Gold.Chemscore.Lipo.Weighted>
-12.2235

> <Gold.Chemscore.Internal_Hbond.Weighted>
0.0000

> <Gold.Chemscore.DEClash.Weighted>
0.1359

> <Gold.Chemscore.DEInternal.Weighted>
1.8952

> <Gold.Chemscore.Rot.Weighted>
7.0194

> <Gold.Chemscore.Internal.Correction.Weighted>
   9.000000E+99

> <Gold.Protein.RotatedTorsions>
[ 6907 6896 6895 6894 ] final    4.09 input  -60.11 | X-H torsion
[ 7974 7965 7964 7962 ] final -145.94 input  175.53 | X-H torsion
[ 8008 7997 7996 7995 ] final   75.91 input   59.86 | X-H torsion
[ 10167 10162 10161 10158 ] final   68.72 input  -65.29 | X-H torsion
[ 10718 10713 10712 10709 ] final  -36.16 input   66.30 | X-H torsion
[ 10763 10752 10751 10750 ] final -164.54 input  -60.55 | X-H torsion
[ 11005 11000 10999 10996 ] final -104.63 input  -57.11 | X-H torsion

> <Gold.Protein.ActiveResidues>
 VAL166  LYS551  ARG553  GLY616  TRP617  ASP618  TYR619  PRO620  LYS621  CYS622 
 ASP623  PHE694  ASN695  SER759  ASP760  ASP761  ALA762  ILE779  LEU786  VAL792 
 PHE793  MET794  SER795  GLU796  ALA797  LYS798  CYS799  TRP800  GLU811  SER814 

> <Gold.Protein.RotatedAtoms>
  151.6356  135.1018  160.0130 H   0  0  0  0  0  0  0  0  0  0  0  0  # atno 6907 bound_to 6896
  152.4082  133.6918  159.6383 H   0  0  0  0  0  0  0  0  0  0  0  0  # atno 6908 bound_to 6896
  150.7975  133.8588  159.3267 H   0  0  0  0  0  0  0  0  0  0  0  0  # atno 6909 bound_to 6896
  144.8193  140.5520  143.5589 H   0  0  0  0  0  0  0  0  0  0  0  0  # atno 7974 bound_to 7965
  155.8198  140.3470  155.5507 H   0  0  0  0  0  0  0  0  0  0  0  0  # atno 8008 bound_to 7997
  155.8354  140.0933  157.1787 H   0  0  0  0  0  0  0  0  0  0  0  0  # atno 8009 bound_to 7997
  154.4004  140.1404  156.3652 H   0  0  0  0  0  0  0  0  0  0  0  0  # atno 8010 bound_to 7997
  140.0756  144.5115  150.7197 H   0  0  0  0  0  0  0  0  0  0  0  0  # atno 10167 bound_to 10162
  156.3301  130.4278  149.7880 H   0  0  0  0  0  0  0  0  0  0  0  0  # atno 10718 bound_to 10713
  154.7019  135.2989  154.9329 H   0  0  0  0  0  0  0  0  0  0  0  0  # atno 10763 bound_to 10752
  154.0258  135.6676  153.4780 H   0  0  0  0  0  0  0  0  0  0  0  0  # atno 10764 bound_to 10752
  153.0687  135.5073  154.8167 H   0  0  0  0  0  0  0  0  0  0  0  0  # atno 10765 bound_to 10752
  141.1091  133.8740  157.1635 H   0  0  0  0  0  0  0  0  0  0  0  0  # atno 11005 bound_to 11000
  145.5142  139.1478  143.3588 LP  0  0  0  0  0  0  0  0  0  0  0  0  # atno 17320 bound_to 7965
  146.2498  140.5282  142.8898 LP  0  0  0  0  0  0  0  0  0  0  0  0  # atno 17321 bound_to 7965
  140.7103  143.2500  151.4600 LP  0  0  0  0  0  0  0  0  0  0  0  0  # atno 17342 bound_to 10162
  139.5810  144.1710  152.1967 LP  0  0  0  0  0  0  0  0  0  0  0  0  # atno 17343 bound_to 10162
  156.5156  130.8192  151.3185 LP  0  0  0  0  0  0  0  0  0  0  0  0  # atno 17370 bound_to 10713
  157.7429  130.9899  150.2549 LP  0  0  0  0  0  0  0  0  0  0  0  0  # atno 17371 bound_to 10713
  139.9976  135.0040  157.0117 LP  0  0  0  0  0  0  0  0  0  0  0  0  # atno 17394 bound_to 11000
  140.4823  134.1277  155.7219 LP  0  0  0  0  0  0  0  0  0  0  0  0  # atno 17395 bound_to 11000

$$$$
