AV-unprocessed.smi:3303|AV-procd|sdf|12659|dock4
  -GOLD-   2272018593D 1   1.00000     0.00000
 Structure written by MMmdl.
 45 46  0  0  0  0  0  0  0  0  3 V2000
  151.8511  139.4501  155.8226 C   0  0  0  0  0  0  0  0  0  0  0  0
  150.3737  139.3792  155.3980 C   0  0  2  0  0  0  0  0  0  0  0  0
  150.1980  138.3242  154.2801 C   0  0  0  0  0  0  0  0  0  0  0  0
  148.7937  138.2213  153.8060 N   0  3  1  0  0  0  0  0  0  0  0  0
  147.9109  137.5066  154.7632 C   0  0  0  0  0  0  0  0  0  0  0  0
  148.2843  139.5356  153.3195 C   0  0  1  0  0  0  0  0  0  0  0  0
  146.8712  139.4463  152.7177 C   0  0  0  0  0  0  0  0  0  0  0  0
  148.3913  140.6163  154.4146 C   0  0  0  0  0  0  0  0  0  0  0  0
  149.8331  140.7543  154.9381 C   0  0  1  0  0  0  0  0  0  0  0  0
  149.8640  141.7346  156.0478 N   0  3  0  0  0  0  0  0  0  0  0  0
  149.1057  141.3345  157.2502 C   0  0  0  0  0  0  0  0  0  0  0  0
  149.2086  142.4036  158.3462 C   0  0  0  0  0  0  0  0  0  0  0  0
  150.6244  142.5560  158.8679 C   0  0  0  0  0  0  0  0  0  0  0  0
  151.3489  143.7474  158.6515 C   0  0  0  0  0  0  0  0  0  0  0  0
  152.6582  143.8379  159.1625 C   0  0  0  0  0  0  0  0  0  0  0  0
  153.1883  142.7399  159.8671 C   0  0  0  0  0  0  0  0  0  0  0  0
  152.3823  141.5957  160.0309 C   0  0  0  0  0  0  0  0  0  0  0  0
  151.1250  141.4993  159.5462 N   0  0  0  0  0  0  0  0  0  0  0  0
  152.4837  139.7943  155.0037 H   0  0  0  0  0  0  0  0  0  0  0  0
  152.2163  138.4706  156.1330 H   0  0  0  0  0  0  0  0  0  0  0  0
  151.9971  140.1285  156.6633 H   0  0  0  0  0  0  0  0  0  0  0  0
  149.7998  139.0556  156.2676 H   0  0  0  0  0  0  0  0  0  0  0  0
  150.8271  138.5850  153.4274 H   0  0  0  0  0  0  0  0  0  0  0  0
  150.5423  137.3461  154.6189 H   0  0  0  0  0  0  0  0  0  0  0  0
  147.7202  138.0918  155.6624 H   0  0  0  0  0  0  0  0  0  0  0  0
  148.3651  136.5634  155.0684 H   0  0  0  0  0  0  0  0  0  0  0  0
  146.9521  137.2592  154.3086 H   0  0  0  0  0  0  0  0  0  0  0  0
  148.9452  139.8316  152.5028 H   0  0  0  0  0  0  0  0  0  0  0  0
  146.5993  140.3837  152.2317 H   0  0  0  0  0  0  0  0  0  0  0  0
  146.1141  139.2473  153.4767 H   0  0  0  0  0  0  0  0  0  0  0  0
  146.8114  138.6598  151.9645 H   0  0  0  0  0  0  0  0  0  0  0  0
  148.0592  141.5750  154.0136 H   0  0  0  0  0  0  0  0  0  0  0  0
  147.7139  140.3840  155.2375 H   0  0  0  0  0  0  0  0  0  0  0  0
  150.4562  141.1129  154.1161 H   0  0  0  0  0  0  0  0  0  0  0  0
  150.8260  141.8857  156.3172 H   0  0  0  0  0  0  0  0  0  0  0  0
  148.0596  141.1794  156.9822 H   0  0  0  0  0  0  0  0  0  0  0  0
  149.4924  140.3817  157.6146 H   0  0  0  0  0  0  0  0  0  0  0  0
  148.8686  143.3673  157.9637 H   0  0  0  0  0  0  0  0  0  0  0  0
  148.5470  142.1522  159.1763 H   0  0  0  0  0  0  0  0  0  0  0  0
  150.9156  144.5740  158.1075 H   0  0  0  0  0  0  0  0  0  0  0  0
  153.2449  144.7331  159.0179 H   0  0  0  0  0  0  0  0  0  0  0  0
  154.1887  142.7736  160.2725 H   0  0  0  0  0  0  0  0  0  0  0  0
  152.7568  140.7358  160.5663 H   0  0  0  0  0  0  0  0  0  0  0  0
  149.4864  142.6088  155.7107 H   0  0  0  0  0  0  0  0  0  0  0  0
  148.8276  137.6228  152.9925 H   0  0  0  0  0  0  0  0  0  0  0  0
  1  2  1  0  0  0  0
  1 19  1  0  0  0  0
  1 20  1  0  0  0  0
  1 21  1  0  0  0  0
  2  9  1  0  0  0  0
  2  3  1  0  0  0  0
  2 22  1  0  0  0  0
  3  4  1  0  0  0  0
  3 23  1  0  0  0  0
  3 24  1  0  0  0  0
  4  5  1  0  0  0  0
  4  6  1  0  0  0  0
  4 45  1  0  0  0  0
  5 25  1  0  0  0  0
  5 26  1  0  0  0  0
  5 27  1  0  0  0  0
  6  7  1  0  0  0  0
  6  8  1  0  0  0  0
  6 28  1  0  0  0  0
  7 29  1  0  0  0  0
  7 30  1  0  0  0  0
  7 31  1  0  0  0  0
  8  9  1  0  0  0  0
  8 32  1  0  0  0  0
  8 33  1  0  0  0  0
  9 10  1  0  0  0  0
  9 34  1  0  0  0  0
 10 11  1  0  0  0  0
 10 35  1  0  0  0  0
 10 44  1  0  0  0  0
 11 12  1  0  0  0  0
 11 36  1  0  0  0  0
 11 37  1  0  0  0  0
 12 13  1  0  0  0  0
 12 38  1  0  0  0  0
 12 39  1  0  0  0  0
 13 18  1  0  0  0  0
 13 14  2  0  0  0  0
 14 15  1  0  0  0  0
 14 40  1  0  0  0  0
 15 16  2  0  0  0  0
 15 41  1  0  0  0  0
 16 17  1  0  0  0  0
 16 42  1  0  0  0  0
 17 18  2  0  0  0  0
 17 43  1  0  0  0  0
M  CHG  1   4   1
M  CHG  1  10   1
M  END
> <s_m_source_file>
AV-unprocessed.smi

> <i_m_source_file_index>
3303

> <i_lp_mmshare_version>
43012

> <i_f3d_flags>
0

> <s_epik_input>
W0NIM11bQ0BASF0xW0NIMl1OKFtDSDNdKVtDQEBIXShbQ0gzXSlbQ0gyXVtDQEhdMVtOSF1bQ0gyXVtDSDJdYzJbY0hdW2NIXVtjSF1bY0hdbjI=

> <s_epik_cmdline>
J2VwaWtfcHl0aG9uJywgJy1waCcsICc3LjAnLCAnLXRuJywgJzgnLCAnLW1hJywgJzIwMCcsICctbWV0YWxfYmluZGluZycsICctaW1hZScsICc8aW5maWxlLm1hZT4nLCAnLW9tYWUnLCAnPG91dGZpbGUubWFlPic=

> <r_epik_Ionization_Penalty>
0.0769462

> <r_epik_Ionization_Penalty_Charging>
0.0759813

> <r_epik_Ionization_Penalty_Neutral>
0.000964829

> <r_epik_State_Penalty>
0.0654373

> <r_epik_Charging_Adjusted_Penalty>
0.141419

> <i_epik_Tot_Q>
2

> <i_epik_Tot_abs_Q>
2

> <r_epik_Metal_State_Penalty>
0.0656439

> <b_epik_Metal_Only>
0

> <s_lp_Force_Field>
OPLS_2005

> <r_lp_Energy>
31.8581

> <b_lp_Chiralities_Consistent>
1

> <s_lp_Variant>
AV-unprocessed.smi:3303-3

> <Gold.Version>
5.8.1

> <Gold.Id.Protein>
6NUR|6NUR_protein|mol2

> <Gold.PLP.Fitness>
50.7095

> <Gold.PLP.PLP>
-38.8060

> <Gold.PLP.part.hbond>
-2.3674

> <Gold.PLP.part.metal>
0.0000

> <Gold.PLP.part.buried>
-0.4519

> <Gold.PLP.part.nonpolar>
-36.4232

> <Gold.PLP.part.repulsive>
0.1405

> <Gold.PLP.ligand.clash>
0.0000

> <Gold.PLP.ligand.torsion>
0.0569

> <Gold.PLP.Chemscore.Hbond>
4.0000

> <Gold.PLP.Chemscore.CHOScore>
0.0000

> <Gold.PLP.Chemscore.Metal>
0.0000

> <Gold.Chemscore.Hbonds>
donor molecule, donor type, donor heavy atom, donor atom, acceptor molecule, acceptor atom, score
      L1  H     4    45       P1  7948  2.00
      L1  H    10    44       P1  8028  1.17

> <Gold.PLP.Chemscore.Internal.Correction>
0.0173

> <Gold.Rescore>
     Score         DG    S(hbond)    S(metal)    S(lipo)     H(rot)  DE(clash)    DE(int)     intcor
     21.32     -22.15       1.92        0.00     117.65       1.37       0.82       0.01       ----

> <Gold.Chemscore.Fitness>
21.3195

> <Gold.Chemscore.DG>
-22.1504

> <Gold.Chemscore.ZeroCoef>
-5.4800

> <Gold.Chemscore.Hbond>
1.9232

> <Gold.Chemscore.Metal>
0.0000

> <Gold.Chemscore.Lipo>
117.6524

> <Gold.Chemscore.Internal_Hbond>
0.0000

> <Gold.Chemscore.DEClash>
0.8219

> <Gold.Chemscore.DEInternal>
0.0091

> <Gold.Chemscore.Rot>
1.3744

> <Gold.Chemscore.Internal.Correction>
   9.000000E+99

> <Gold.Chemscore.Hbonds>
donor molecule, donor type, donor heavy atom, donor atom, acceptor molecule, acceptor atom, score
      L1  H     4    45       P1  7948  1.00
      L1  H    10    44       P1  8028  0.58

> <Gold.Chemscore.Hbond.Weighted>
-6.4235

> <Gold.Chemscore.Metal.Weighted>
-0.0000

> <Gold.Chemscore.Lipo.Weighted>
-13.7653

> <Gold.Chemscore.Internal_Hbond.Weighted>
0.0000

> <Gold.Chemscore.DEClash.Weighted>
0.8219

> <Gold.Chemscore.DEInternal.Weighted>
0.0091

> <Gold.Chemscore.Rot.Weighted>
3.5185

> <Gold.Chemscore.Internal.Correction.Weighted>
   9.000000E+99

> <Gold.Protein.RotatedTorsions>
[ 6907 6896 6895 6894 ] final -110.94 input  -60.11 | X-H torsion
[ 7974 7965 7964 7962 ] final  125.29 input  175.53 | X-H torsion
[ 8008 7997 7996 7995 ] final  147.63 input   59.86 | X-H torsion
[ 10167 10162 10161 10158 ] final  -72.98 input  -65.29 | X-H torsion
[ 10718 10713 10712 10709 ] final  178.70 input   66.30 | X-H torsion
[ 10763 10752 10751 10750 ] final   22.80 input  -60.55 | X-H torsion
[ 11005 11000 10999 10996 ] final -147.05 input  -57.11 | X-H torsion

> <Gold.Protein.ActiveResidues>
 VAL166  LYS551  ARG553  GLY616  TRP617  ASP618  TYR619  PRO620  LYS621  CYS622 
 ASP623  PHE694  ASN695  SER759  ASP760  ASP761  ALA762  ILE779  LEU786  VAL792 
 PHE793  MET794  SER795  GLU796  ALA797  LYS798  CYS799  TRP800  GLU811  SER814 

> <Gold.Protein.RotatedAtoms>
  150.7658  133.9308  159.3426 H   0  0  0  0  0  0  0  0  0  0  0  0  # atno 6907 bound_to 6896
  151.7206  135.0893  160.0293 H   0  0  0  0  0  0  0  0  0  0  0  0  # atno 6908 bound_to 6896
  152.3652  133.6310  159.6081 H   0  0  0  0  0  0  0  0  0  0  0  0  # atno 6909 bound_to 6896
  145.0746  139.3703  143.4940 H   0  0  0  0  0  0  0  0  0  0  0  0  # atno 7974 bound_to 7965
  156.2818  140.2150  156.5569 H   0  0  0  0  0  0  0  0  0  0  0  0  # atno 8008 bound_to 7997
  154.7245  140.0500  157.0692 H   0  0  0  0  0  0  0  0  0  0  0  0  # atno 8009 bound_to 7997
  155.0435  140.3148  155.4719 H   0  0  0  0  0  0  0  0  0  0  0  0  # atno 8010 bound_to 7997
  140.5148  143.2339  151.7531 H   0  0  0  0  0  0  0  0  0  0  0  0  # atno 10167 bound_to 10162
  156.8867  130.9834  151.3055 H   0  0  0  0  0  0  0  0  0  0  0  0  # atno 10718 bound_to 10713
  153.0887  135.6640  153.9897 H   0  0  0  0  0  0  0  0  0  0  0  0  # atno 10763 bound_to 10752
  153.9500  135.2985  155.3440 H   0  0  0  0  0  0  0  0  0  0  0  0  # atno 10764 bound_to 10752
  154.7299  135.5127  153.9019 H   0  0  0  0  0  0  0  0  0  0  0  0  # atno 10765 bound_to 10752
  140.7756  134.3138  157.5061 H   0  0  0  0  0  0  0  0  0  0  0  0  # atno 11005 bound_to 11000
  146.3529  140.0508  142.8636 LP  0  0  0  0  0  0  0  0  0  0  0  0  # atno 17320 bound_to 7965
  145.1251  140.9485  143.4578 LP  0  0  0  0  0  0  0  0  0  0  0  0  # atno 17321 bound_to 7965
  139.4906  144.4339  151.9841 LP  0  0  0  0  0  0  0  0  0  0  0  0  # atno 17342 bound_to 10162
  140.3433  144.3177  150.5963 LP  0  0  0  0  0  0  0  0  0  0  0  0  # atno 17343 bound_to 10162
  157.6108  130.8581  149.8949 LP  0  0  0  0  0  0  0  0  0  0  0  0  # atno 17370 bound_to 10713
  156.0649  130.3694  150.0899 LP  0  0  0  0  0  0  0  0  0  0  0  0  # atno 17371 bound_to 10713
  139.8749  134.9287  156.3459 LP  0  0  0  0  0  0  0  0  0  0  0  0  # atno 17394 bound_to 11000
  140.9532  133.7437  156.0299 LP  0  0  0  0  0  0  0  0  0  0  0  0  # atno 17395 bound_to 11000

$$$$
