AV-unprocessed.smi:3208|AV-procd|sdf|12265|dock7
  -GOLD-   2272018103D 1   1.00000     0.00000
 Structure written by MMmdl.
 29 29  0  0  0  0  0  0  0  0  2 V2000
  146.7838  142.3153  154.5668 C   0  0  0  0  0  0  0  0  0  0  0  0
  147.7028  141.6829  153.8218 C   0  0  0  0  0  0  0  0  0  0  0  0
  149.0320  141.1829  154.3423 C   0  0  0  0  0  0  0  0  0  0  0  0
  148.8292  140.1572  155.3056 O   0  0  0  0  0  0  0  0  0  0  0  0
  150.0070  139.7012  155.9683 C   0  0  1  0  0  0  0  0  0  0  0  0
  150.9975  139.2491  154.8867 C   0  0  0  0  0  0  0  0  0  0  0  0
  150.6234  140.8269  156.8273 C   0  0  0  0  0  0  0  0  0  0  0  0
  150.1489  141.9616  156.7836 O   0  0  0  0  0  0  0  0  0  0  0  0
  151.7726  140.4778  157.5194 N   0  0  0  0  0  0  0  0  0  0  0  0
  152.2135  141.2406  158.4819 C   0  0  0  0  0  0  0  0  0  0  0  0
  151.6103  142.4691  158.8130 N   0  0  0  0  0  0  0  0  0  0  0  0
  152.0660  143.2771  159.8326 C   0  0  0  0  0  0  0  0  0  0  0  0
  153.1272  142.9407  160.5680 C   0  0  0  0  0  0  0  0  0  0  0  0
  153.8130  141.6968  160.2816 C   0  0  0  0  0  0  0  0  0  0  0  0
  153.3956  140.8334  159.2616 C   0  0  0  0  0  0  0  0  0  0  0  0
  154.0169  139.7667  159.0488 O   0  5  0  0  0  0  0  0  0  0  0  0
  146.9489  142.5094  155.6167 H   0  0  0  0  0  0  0  0  0  0  0  0
  145.8518  142.6480  154.1339 H   0  0  0  0  0  0  0  0  0  0  0  0
  147.5042  141.5065  152.7748 H   0  0  0  0  0  0  0  0  0  0  0  0
  149.6356  140.8235  153.5080 H   0  0  0  0  0  0  0  0  0  0  0  0
  149.5617  142.0223  154.7943 H   0  0  0  0  0  0  0  0  0  0  0  0
  149.7576  138.8341  156.5820 H   0  0  0  0  0  0  0  0  0  0  0  0
  151.9175  138.8639  155.3278 H   0  0  0  0  0  0  0  0  0  0  0  0
  151.2631  140.0704  154.2199 H   0  0  0  0  0  0  0  0  0  0  0  0
  150.5680  138.4540  154.2770 H   0  0  0  0  0  0  0  0  0  0  0  0
  151.5000  144.1851  159.9790 H   0  0  0  0  0  0  0  0  0  0  0  0
  153.4712  143.5853  161.3634 H   0  0  0  0  0  0  0  0  0  0  0  0
  154.6740  141.4382  160.8810 H   0  0  0  0  0  0  0  0  0  0  0  0
  150.8077  142.8062  158.3036 H   0  0  0  0  0  0  0  0  0  0  0  0
  1  2  2  0  0  0  0
  1 17  1  0  0  0  0
  1 18  1  0  0  0  0
  2  3  1  0  0  0  0
  2 19  1  0  0  0  0
  3  4  1  0  0  0  0
  3 20  1  0  0  0  0
  3 21  1  0  0  0  0
  4  5  1  0  0  0  0
  5  6  1  0  0  0  0
  5  7  1  0  0  0  0
  5 22  1  0  0  0  0
  6 23  1  0  0  0  0
  6 24  1  0  0  0  0
  6 25  1  0  0  0  0
  7  8  2  0  0  0  0
  7  9  1  0  0  0  0
  9 10  2  0  0  0  0
 10 15  1  0  0  0  0
 10 11  1  0  0  0  0
 11 29  1  0  0  0  0
 11 12  1  0  0  0  0
 12 26  1  0  0  0  0
 12 13  2  0  0  0  0
 13 27  1  0  0  0  0
 13 14  1  0  0  0  0
 14 15  2  0  0  0  0
 14 28  1  0  0  0  0
 15 16  1  0  0  0  0
M  CHG  1  16  -1
M  END
> <s_m_source_file>
AV-unprocessed.smi

> <i_m_source_file_index>
3208

> <i_lp_mmshare_version>
43012

> <i_f3d_flags>
0

> <s_epik_input>
W0NIMl09W0NIXVtDSDJdT1tDQEhdKFtDSDNdKUMoPU8pW05IXWMxbltjSF1bY0hdW2NIXWMxW09IXQ==

> <s_epik_cmdline>
J2VwaWtfcHl0aG9uJywgJy1waCcsICc3LjAnLCAnLXRuJywgJzgnLCAnLW1hJywgJzIwMCcsICctbWV0YWxfYmluZGluZycsICctaW1hZScsICc8aW5maWxlLm1hZT4nLCAnLW9tYWUnLCAnPG91dGZpbGUubWFlPic=

> <r_epik_Ionization_Penalty>
0.613767

> <r_epik_Ionization_Penalty_Charging>
0.613767

> <r_epik_Ionization_Penalty_Neutral>
1.14324e-13

> <r_epik_State_Penalty>
1.22258

> <r_epik_Charging_Adjusted_Penalty>
1.83635

> <i_epik_Tot_Q>
-1

> <i_epik_Tot_abs_Q>
1

> <r_epik_Metal_State_Penalty>
1.18528

> <b_epik_Metal_Only>
0

> <s_lp_Force_Field>
OPLS_2005

> <r_lp_Energy>
40.4661

> <b_lp_Chiralities_Consistent>
1

> <s_lp_Variant>
AV-unprocessed.smi:3208-6

> <Gold.Version>
5.8.1

> <Gold.Id.Protein>
6NUR|6NUR_protein|mol2

> <Gold.PLP.Fitness>
38.0495

> <Gold.PLP.PLP>
-32.2767

> <Gold.PLP.part.hbond>
-1.0000

> <Gold.PLP.part.metal>
0.0000

> <Gold.PLP.part.buried>
-3.1271

> <Gold.PLP.part.nonpolar>
-27.7442

> <Gold.PLP.part.repulsive>
0.2423

> <Gold.PLP.ligand.clash>
0.0000

> <Gold.PLP.ligand.torsion>
0.1387

> <Gold.PLP.Chemscore.Hbond>
2.0000

> <Gold.PLP.Chemscore.CHOScore>
0.0000

> <Gold.PLP.Chemscore.Metal>
0.0000

> <Gold.Chemscore.Hbonds>
donor molecule, donor type, donor heavy atom, donor atom, acceptor molecule, acceptor atom, score
      P1  H  7997  8010       L1    16  2.00

> <Gold.PLP.Chemscore.Internal.Correction>
0.0502

> <Gold.Rescore>
     Score         DG    S(hbond)    S(metal)    S(lipo)     H(rot)  DE(clash)    DE(int)     intcor
     11.32     -13.04       0.91        0.00      74.71       1.65       0.13       1.59       ----

> <Gold.Chemscore.Fitness>
11.3217

> <Gold.Chemscore.DG>
-13.0434

> <Gold.Chemscore.ZeroCoef>
-5.4800

> <Gold.Chemscore.Hbond>
0.9145

> <Gold.Chemscore.Metal>
0.0000

> <Gold.Chemscore.Lipo>
74.7131

> <Gold.Chemscore.Internal_Hbond>
0.0000

> <Gold.Chemscore.DEClash>
0.1347

> <Gold.Chemscore.DEInternal>
1.5870

> <Gold.Chemscore.Rot>
1.6533

> <Gold.Chemscore.Internal.Correction>
   9.000000E+99

> <Gold.Chemscore.Hbonds>
donor molecule, donor type, donor heavy atom, donor atom, acceptor molecule, acceptor atom, score
      P1  H  7997  8010       L1    16  0.42

> <Gold.Chemscore.Hbond.Weighted>
-3.0543

> <Gold.Chemscore.Metal.Weighted>
-0.0000

> <Gold.Chemscore.Lipo.Weighted>
-8.7414

> <Gold.Chemscore.Internal_Hbond.Weighted>
0.0000

> <Gold.Chemscore.DEClash.Weighted>
0.1347

> <Gold.Chemscore.DEInternal.Weighted>
1.5870

> <Gold.Chemscore.Rot.Weighted>
4.2324

> <Gold.Chemscore.Internal.Correction.Weighted>
   9.000000E+99

> <Gold.Protein.RotatedTorsions>
[ 6907 6896 6895 6894 ] final  141.08 input  -60.11 | X-H torsion
[ 7974 7965 7964 7962 ] final -168.75 input  175.53 | X-H torsion
[ 8008 7997 7996 7995 ] final   16.50 input   59.86 | X-H torsion
[ 10167 10162 10161 10158 ] final -150.29 input  -65.29 | X-H torsion
[ 10718 10713 10712 10709 ] final   30.70 input   66.30 | X-H torsion
[ 10763 10752 10751 10750 ] final    0.84 input  -60.55 | X-H torsion
[ 11005 11000 10999 10996 ] final   -6.83 input  -57.11 | X-H torsion

> <Gold.Protein.ActiveResidues>
 VAL166  LYS551  ARG553  GLY616  TRP617  ASP618  TYR619  PRO620  LYS621  CYS622 
 ASP623  PHE694  ASN695  SER759  ASP760  ASP761  ALA762  ILE779  LEU786  VAL792 
 PHE793  MET794  SER795  GLU796  ALA797  LYS798  CYS799  TRP800  GLU811  SER814 

> <Gold.Protein.RotatedAtoms>
  152.2353  133.5091  159.5238 H   0  0  0  0  0  0  0  0  0  0  0  0  # atno 6907 bound_to 6896
  150.7049  134.1162  159.4027 H   0  0  0  0  0  0  0  0  0  0  0  0  # atno 6908 bound_to 6896
  151.9083  135.0349  160.0563 H   0  0  0  0  0  0  0  0  0  0  0  0  # atno 6909 bound_to 6896
  144.7197  140.2324  143.6302 H   0  0  0  0  0  0  0  0  0  0  0  0  # atno 7974 bound_to 7965
  154.8779  140.2968  155.5443 H   0  0  0  0  0  0  0  0  0  0  0  0  # atno 8008 bound_to 7997
  156.3022  140.2448  156.3710 H   0  0  0  0  0  0  0  0  0  0  0  0  # atno 8009 bound_to 7997
  154.8748  140.0400  157.1736 H   0  0  0  0  0  0  0  0  0  0  0  0  # atno 8010 bound_to 7997
  139.7367  143.8724  152.2551 H   0  0  0  0  0  0  0  0  0  0  0  0  # atno 10167 bound_to 10162
  157.2630  130.7170  149.6464 H   0  0  0  0  0  0  0  0  0  0  0  0  # atno 10718 bound_to 10713
  153.3156  135.6966  153.7076 H   0  0  0  0  0  0  0  0  0  0  0  0  # atno 10763 bound_to 10752
  153.5936  135.3475  155.2920 H   0  0  0  0  0  0  0  0  0  0  0  0  # atno 10764 bound_to 10752
  154.8585  135.4324  154.2306 H   0  0  0  0  0  0  0  0  0  0  0  0  # atno 10765 bound_to 10752
  140.7062  133.8947  155.8718 H   0  0  0  0  0  0  0  0  0  0  0  0  # atno 11005 bound_to 11000
  145.8398  139.2124  143.1834 LP  0  0  0  0  0  0  0  0  0  0  0  0  # atno 17320 bound_to 7965
  146.0357  140.8215  142.9854 LP  0  0  0  0  0  0  0  0  0  0  0  0  # atno 17321 bound_to 7965
  139.8663  144.7091  150.9040 LP  0  0  0  0  0  0  0  0  0  0  0  0  # atno 17342 bound_to 10162
  140.7780  143.3775  151.1536 LP  0  0  0  0  0  0  0  0  0  0  0  0  # atno 17343 bound_to 10162
  155.9664  130.4391  150.5246 LP  0  0  0  0  0  0  0  0  0  0  0  0  # atno 17370 bound_to 10713
  157.3155  131.0672  151.1970 LP  0  0  0  0  0  0  0  0  0  0  0  0  # atno 17371 bound_to 10713
  141.0123  134.1004  157.4209 LP  0  0  0  0  0  0  0  0  0  0  0  0  # atno 17394 bound_to 11000
  139.8883  135.0097  156.6615 LP  0  0  0  0  0  0  0  0  0  0  0  0  # atno 17395 bound_to 11000

$$$$
