AV-unprocessed.smi:95|AV-procd|sdf|856|dock8
  -GOLD-   2262017303D 1   1.00000     0.00000
 Structure written by MMmdl.
 41 44  0  0  0  0  0  0  0  0  1 V2000
  147.3511  139.5317  157.1130 O   0  0  0  0  0  0  0  0  0  0  0  0
  147.5249  138.6923  157.9985 C   0  0  0  0  0  0  0  0  0  0  0  0
  146.4383  138.1043  158.7740 C   0  0  0  0  0  0  0  0  0  0  0  0
  145.1721  138.4900  158.5420 F   0  0  0  0  0  0  0  0  0  0  0  0
  146.6813  137.1743  159.7231 C   0  0  0  0  0  0  0  0  0  0  0  0
  147.9544  136.7187  160.0268 N   0  0  0  0  0  0  0  0  0  0  0  0
  148.2006  135.6591  161.0809 C   0  0  1  0  0  0  0  0  0  0  0  0
  147.7101  136.1404  162.4605 C   0  0  0  0  0  0  0  0  0  0  0  0
  146.8203  135.0013  162.9171 C   0  0  0  0  0  0  0  0  0  0  0  0
  146.3186  134.4432  161.5939 C   0  0  0  0  0  0  0  0  0  0  0  0
  147.4767  134.5018  160.7722 O   0  0  0  0  0  0  0  0  0  0  0  0
  149.0656  137.2256  159.3177 C   0  0  0  0  0  0  0  0  0  0  0  0
  150.2029  136.8098  159.5515 O   0  0  0  0  0  0  0  0  0  0  0  0
  148.8136  138.2122  158.3347 N   0  0  0  0  0  0  0  0  0  0  0  0
  149.9373  138.7324  157.5701 C   0  0  0  0  0  0  0  0  0  0  0  0
  150.3406  140.1688  157.8846 C   0  0  0  0  0  0  0  0  0  0  0  0
  149.4925  141.2317  157.5154 C   0  0  0  0  0  0  0  0  0  0  0  0
  149.8849  142.5449  157.8312 C   0  0  0  0  0  0  0  0  0  0  0  0
  151.1055  142.7465  158.5071 C   0  0  0  0  0  0  0  0  0  0  0  0
  151.5268  144.0511  158.8373 C   0  0  0  0  0  0  0  0  0  0  0  0
  152.7462  144.2462  159.5114 C   0  0  0  0  0  0  0  0  0  0  0  0
  153.5415  143.1378  159.8548 C   0  0  0  0  0  0  0  0  0  0  0  0
  153.1176  141.8358  159.5247 C   0  0  0  0  0  0  0  0  0  0  0  0
  151.8985  141.6165  158.8485 C   0  0  0  0  0  0  0  0  0  0  0  0
  151.5090  140.3589  158.5404 N   0  0  0  0  0  0  0  0  0  0  0  0
  145.8291  136.7792  160.2541 H   0  0  0  0  0  0  0  0  0  0  0  0
  149.2694  135.4420  161.0360 H   0  0  0  0  0  0  0  0  0  0  0  0
  148.5495  136.3259  163.1314 H   0  0  0  0  0  0  0  0  0  0  0  0
  147.1293  137.0583  162.3572 H   0  0  0  0  0  0  0  0  0  0  0  0
  147.4120  134.2487  163.4397 H   0  0  0  0  0  0  0  0  0  0  0  0
  146.0155  135.3252  163.5774 H   0  0  0  0  0  0  0  0  0  0  0  0
  145.9377  133.4255  161.6801 H   0  0  0  0  0  0  0  0  0  0  0  0
  145.5303  135.0734  161.1802 H   0  0  0  0  0  0  0  0  0  0  0  0
  150.7735  138.0508  157.7371 H   0  0  0  0  0  0  0  0  0  0  0  0
  149.7128  138.6335  156.5077 H   0  0  0  0  0  0  0  0  0  0  0  0
  148.5618  141.0465  156.9994 H   0  0  0  0  0  0  0  0  0  0  0  0
  149.2572  143.3803  157.5582 H   0  0  0  0  0  0  0  0  0  0  0  0
  150.9186  144.9047  158.5754 H   0  0  0  0  0  0  0  0  0  0  0  0
  153.0709  145.2448  159.7648 H   0  0  0  0  0  0  0  0  0  0  0  0
  154.4780  143.2853  160.3722 H   0  0  0  0  0  0  0  0  0  0  0  0
  153.7380  140.9937  159.7943 H   0  0  0  0  0  0  0  0  0  0  0  0
  1  2  2  0  0  0  0
  2 14  1  0  0  0  0
  2  3  1  0  0  0  0
  3  4  1  0  0  0  0
  3  5  2  0  0  0  0
  5  6  1  0  0  0  0
  5 26  1  0  0  0  0
  6  7  1  0  0  0  0
  6 12  1  0  0  0  0
  7 11  1  0  0  0  0
  7  8  1  0  0  0  0
  7 27  1  0  0  0  0
  8  9  1  0  0  0  0
  8 28  1  0  0  0  0
  8 29  1  0  0  0  0
  9 10  1  0  0  0  0
  9 30  1  0  0  0  0
  9 31  1  0  0  0  0
 10 11  1  0  0  0  0
 10 32  1  0  0  0  0
 10 33  1  0  0  0  0
 12 13  2  0  0  0  0
 12 14  1  0  0  0  0
 14 15  1  0  0  0  0
 15 16  1  0  0  0  0
 15 34  1  0  0  0  0
 15 35  1  0  0  0  0
 16 25  1  0  0  0  0
 16 17  2  0  0  0  0
 17 18  1  0  0  0  0
 17 36  1  0  0  0  0
 18 19  2  0  0  0  0
 18 37  1  0  0  0  0
 19 24  1  0  0  0  0
 19 20  1  0  0  0  0
 20 21  2  0  0  0  0
 20 38  1  0  0  0  0
 21 22  1  0  0  0  0
 21 39  1  0  0  0  0
 22 23  2  0  0  0  0
 22 40  1  0  0  0  0
 23 24  1  0  0  0  0
 23 41  1  0  0  0  0
 24 25  2  0  0  0  0
M  END
> <s_m_source_file>
AV-unprocessed.smi

> <i_m_source_file_index>
95

> <i_lp_mmshare_version>
43012

> <i_f3d_flags>
0

> <s_epik_input>
TzFbQ0gyXVtDSDJdW0NIMl1bQ0BIXTFuKFtjSF1jKEYpYzI9TyljKD1PKW4yW0NIMl1jKFtjSF1bY0hdMyluYyhjMzQpW2NIXVtjSF1bY0hdW2NIXTQ=

> <s_epik_cmdline>
J2VwaWtfcHl0aG9uJywgJy1waCcsICc3LjAnLCAnLXRuJywgJzgnLCAnLW1hJywgJzIwMCcsICctbWV0YWxfYmluZGluZycsICctaW1hZScsICc8aW5maWxlLm1hZT4nLCAnLW9tYWUnLCAnPG91dGZpbGUubWFlPic=

> <r_lp_tautomer_probability>
1

> <r_epik_Ionization_Penalty>
0.0274176

> <r_epik_Ionization_Penalty_Charging>
1.11818e-08

> <r_epik_Ionization_Penalty_Neutral>
0.0274176

> <r_epik_State_Penalty>
0.0224396

> <r_epik_Charging_Adjusted_Penalty>
0.0224396

> <i_epik_Tot_Q>
0

> <i_epik_Tot_abs_Q>
0

> <r_epik_Metal_State_Penalty>
2.28695e-05

> <b_epik_Metal_Only>
0

> <s_epik_Chemistry_Notes>
This compound contains an acetal/aminal-like group ( X-CH(R)-Y where X, Y are N, S, or O) that may be acid/base labile, releasing an aldehyde.

> <s_lp_Force_Field>
OPLS_2005

> <r_lp_Energy>
34.6925

> <b_lp_Chiralities_Consistent>
1

> <s_lp_Variant>
AV-unprocessed.smi:95-2

> <Gold.Version>
5.8.1

> <Gold.Id.Protein>
6NUR|6NUR_protein|mol2

> <Gold.PLP.Fitness>
44.4546

> <Gold.PLP.PLP>
-41.9147

> <Gold.PLP.part.hbond>
-1.0000

> <Gold.PLP.part.metal>
0.0000

> <Gold.PLP.part.buried>
-5.6302

> <Gold.PLP.part.nonpolar>
-35.7084

> <Gold.PLP.part.repulsive>
0.0000

> <Gold.PLP.ligand.clash>
0.0000

> <Gold.PLP.ligand.torsion>
0.2369

> <Gold.PLP.Chemscore.Hbond>
1.0000

> <Gold.PLP.Chemscore.CHOScore>
0.0000

> <Gold.PLP.Chemscore.Metal>
0.0000

> <Gold.Chemscore.Hbonds>
donor molecule, donor type, donor heavy atom, donor atom, acceptor molecule, acceptor atom, score
      P1  H  6896  6907       L1    13  1.00

> <Gold.PLP.Chemscore.Internal.Correction>
0.0137

> <Gold.Rescore>
     Score         DG    S(hbond)    S(metal)    S(lipo)     H(rot)  DE(clash)    DE(int)     intcor
     17.19     -17.65       1.00        0.00     108.37       1.50       0.04       0.41       ----

> <Gold.Chemscore.Fitness>
17.1935

> <Gold.Chemscore.DG>
-17.6493

> <Gold.Chemscore.ZeroCoef>
-5.4800

> <Gold.Chemscore.Hbond>
0.9958

> <Gold.Chemscore.Metal>
0.0000

> <Gold.Chemscore.Lipo>
108.3721

> <Gold.Chemscore.Internal_Hbond>
0.0000

> <Gold.Chemscore.DEClash>
0.0438

> <Gold.Chemscore.DEInternal>
0.4120

> <Gold.Chemscore.Rot>
1.4985

> <Gold.Chemscore.Internal.Correction>
   9.000000E+99

> <Gold.Chemscore.Hbonds>
donor molecule, donor type, donor heavy atom, donor atom, acceptor molecule, acceptor atom, score
      P1  H  6896  6907       L1    13  0.96

> <Gold.Chemscore.Hbond.Weighted>
-3.3260

> <Gold.Chemscore.Metal.Weighted>
-0.0000

> <Gold.Chemscore.Lipo.Weighted>
-12.6795

> <Gold.Chemscore.Internal_Hbond.Weighted>
0.0000

> <Gold.Chemscore.DEClash.Weighted>
0.0438

> <Gold.Chemscore.DEInternal.Weighted>
0.4120

> <Gold.Chemscore.Rot.Weighted>
3.8362

> <Gold.Chemscore.Internal.Correction.Weighted>
   9.000000E+99

> <Gold.Protein.RotatedTorsions>
[ 6907 6896 6895 6894 ] final  -42.10 input  -60.11 | X-H torsion
[ 7974 7965 7964 7962 ] final -150.31 input  175.53 | X-H torsion
[ 8008 7997 7996 7995 ] final  -47.21 input   59.86 | X-H torsion
[ 10167 10162 10161 10158 ] final  132.30 input  -65.29 | X-H torsion
[ 10718 10713 10712 10709 ] final   -0.11 input   66.30 | X-H torsion
[ 10763 10752 10751 10750 ] final   48.11 input  -60.55 | X-H torsion
[ 11005 11000 10999 10996 ] final   92.51 input  -57.11 | X-H torsion

> <Gold.Protein.ActiveResidues>
 VAL166  LYS551  ARG553  GLY616  TRP617  ASP618  TYR619  PRO620  LYS621  CYS622 
 ASP623  PHE694  ASN695  SER759  ASP760  ASP761  ALA762  ILE779  LEU786  VAL792 
 PHE793  MET794  SER795  GLU796  ALA797  LYS798  CYS799  TRP800  GLU811  SER814 

> <Gold.Protein.RotatedAtoms>
  150.9591  134.8981  159.7719 H   0  0  0  0  0  0  0  0  0  0  0  0  # atno 6907 bound_to 6896
  152.5149  134.3698  159.9324 H   0  0  0  0  0  0  0  0  0  0  0  0  # atno 6908 bound_to 6896
  151.3711  133.3814  159.2734 H   0  0  0  0  0  0  0  0  0  0  0  0  # atno 6909 bound_to 6896
  144.7915  140.4949  143.5769 H   0  0  0  0  0  0  0  0  0  0  0  0  # atno 7974 bound_to 7965
  154.4014  140.1352  156.4138 H   0  0  0  0  0  0  0  0  0  0  0  0  # atno 8008 bound_to 7997
  155.7708  140.3484  155.5226 H   0  0  0  0  0  0  0  0  0  0  0  0  # atno 8009 bound_to 7997
  155.8768  140.0981  157.1503 H   0  0  0  0  0  0  0  0  0  0  0  0  # atno 8010 bound_to 7997
  139.5345  144.6668  151.4832 H   0  0  0  0  0  0  0  0  0  0  0  0  # atno 10167 bound_to 10162
  156.8252  130.5470  149.5693 H   0  0  0  0  0  0  0  0  0  0  0  0  # atno 10718 bound_to 10713
  152.9794  135.5955  154.3872 H   0  0  0  0  0  0  0  0  0  0  0  0  # atno 10763 bound_to 10752
  154.3531  135.2767  155.2363 H   0  0  0  0  0  0  0  0  0  0  0  0  # atno 10764 bound_to 10752
  154.4393  135.6017  153.6174 H   0  0  0  0  0  0  0  0  0  0  0  0  # atno 10765 bound_to 10752
  139.8822  134.8737  156.3583 H   0  0  0  0  0  0  0  0  0  0  0  0  # atno 11005 bound_to 11000
  145.5781  139.1487  143.3250 LP  0  0  0  0  0  0  0  0  0  0  0  0  # atno 17320 bound_to 7965
  146.2169  140.5912  142.9034 LP  0  0  0  0  0  0  0  0  0  0  0  0  # atno 17321 bound_to 7965
  140.6544  143.8630  150.6819 LP  0  0  0  0  0  0  0  0  0  0  0  0  # atno 17342 bound_to 10162
  140.2005  143.3963  152.1795 LP  0  0  0  0  0  0  0  0  0  0  0  0  # atno 17343 bound_to 10162
  156.0965  130.5936  150.9823 LP  0  0  0  0  0  0  0  0  0  0  0  0  # atno 17370 bound_to 10713
  157.6436  131.0907  150.8201 LP  0  0  0  0  0  0  0  0  0  0  0  0  # atno 17371 bound_to 10713
  140.9547  133.7428  156.0319 LP  0  0  0  0  0  0  0  0  0  0  0  0  # atno 17394 bound_to 11000
  140.8063  134.3451  157.5425 LP  0  0  0  0  0  0  0  0  0  0  0  0  # atno 17395 bound_to 11000

$$$$
