AV-unprocessed.smi:661|AV-procd|sdf|3241|dock6
  -GOLD-   22720 0193D 1   1.00000     0.00000
 Structure written by MMmdl.
 30 31  0  0  0  0  0  0  0  0  1 V2000
  148.0256  141.6530  154.1011 C   0  0  0  0  0  0  0  0  0  0  0  0
  149.3640  142.0437  154.5058 N   0  0  0  0  0  0  0  0  0  0  0  0
  149.9576  140.9899  155.3120 C   0  0  0  0  0  0  0  0  0  0  0  0
  150.7070  141.5286  156.4912 C   0  0  0  0  0  0  0  0  0  0  0  0
  150.8081  142.8390  156.7164 N   0  0  0  0  0  0  0  0  0  0  0  0
  151.5655  142.8914  157.8704 C   0  0  0  0  0  0  0  0  0  0  0  0
  152.0204  143.9989  158.6212 C   0  0  0  0  0  0  0  0  0  0  0  0
  152.7951  143.8037  159.7835 C   0  0  0  0  0  0  0  0  0  0  0  0
  153.1258  142.5013  160.2104 C   0  0  0  0  0  0  0  0  0  0  0  0
  152.6823  141.3839  159.4772 C   0  0  0  0  0  0  0  0  0  0  0  0
  151.9084  141.5843  158.3185 C   0  0  0  0  0  0  0  0  0  0  0  0
  151.3290  140.7246  157.3910 N   0  0  0  0  0  0  0  0  0  0  0  0
  151.4043  139.2714  157.4119 C   0  0  0  0  0  0  0  0  0  0  0  0
  151.8744  138.7100  156.0631 C   0  0  0  0  0  0  0  0  0  0  0  0
  153.1103  139.2919  155.7107 O   0  0  0  0  0  0  0  0  0  0  0  0
  147.5730  142.4450  153.5044 H   0  0  0  0  0  0  0  0  0  0  0  0
  147.3908  141.4778  154.9706 H   0  0  0  0  0  0  0  0  0  0  0  0
  148.0508  140.7449  153.4975 H   0  0  0  0  0  0  0  0  0  0  0  0
  149.3041  142.8857  155.0607 H   0  0  0  0  0  0  0  0  0  0  0  0
  149.1696  140.3252  155.6689 H   0  0  0  0  0  0  0  0  0  0  0  0
  150.6296  140.3805  154.7072 H   0  0  0  0  0  0  0  0  0  0  0  0
  151.7728  145.0005  158.3025 H   0  0  0  0  0  0  0  0  0  0  0  0
  153.1376  144.6575  160.3494 H   0  0  0  0  0  0  0  0  0  0  0  0
  153.7204  142.3608  161.1013 H   0  0  0  0  0  0  0  0  0  0  0  0
  152.9343  140.3846  159.8002 H   0  0  0  0  0  0  0  0  0  0  0  0
  152.0953  138.9769  158.2029 H   0  0  0  0  0  0  0  0  0  0  0  0
  150.4350  138.8546  157.6839 H   0  0  0  0  0  0  0  0  0  0  0  0
  151.9934  137.6276  156.1116 H   0  0  0  0  0  0  0  0  0  0  0  0
  151.1461  138.9238  155.2801 H   0  0  0  0  0  0  0  0  0  0  0  0
  153.4582  138.8281  154.9644 H   0  0  0  0  0  0  0  0  0  0  0  0
  1  2  1  0  0  0  0
  1 16  1  0  0  0  0
  1 17  1  0  0  0  0
  1 18  1  0  0  0  0
  2  3  1  0  0  0  0
  2 19  1  0  0  0  0
  3  4  1  0  0  0  0
  3 20  1  0  0  0  0
  3 21  1  0  0  0  0
  4 12  1  0  0  0  0
  4  5  2  0  0  0  0
  5  6  1  0  0  0  0
  6 11  2  0  0  0  0
  6  7  1  0  0  0  0
  7  8  2  0  0  0  0
  7 22  1  0  0  0  0
  8  9  1  0  0  0  0
  8 23  1  0  0  0  0
  9 10  2  0  0  0  0
  9 24  1  0  0  0  0
 10 11  1  0  0  0  0
 10 25  1  0  0  0  0
 11 12  1  0  0  0  0
 12 13  1  0  0  0  0
 13 14  1  0  0  0  0
 13 26  1  0  0  0  0
 13 27  1  0  0  0  0
 14 15  1  0  0  0  0
 14 28  1  0  0  0  0
 14 29  1  0  0  0  0
 15 30  1  0  0  0  0
M  END
> <s_m_source_file>
AV-unprocessed.smi

> <i_m_source_file_index>
661

> <i_lp_mmshare_version>
43012

> <i_f3d_flags>
0

> <s_epik_input>
W0NIM11bTkhdW0NIMl1jKG4xKW4oW0NIMl1bQ0gyXVtPSF0pYyhjMTIpW2NIXVtjSF1bY0hdW2NIXTI=

> <s_epik_cmdline>
J2VwaWtfcHl0aG9uJywgJy1waCcsICc3LjAnLCAnLXRuJywgJzgnLCAnLW1hJywgJzIwMCcsICctbWV0YWxfYmluZGluZycsICctaW1hZScsICc8aW5maWxlLm1hZT4nLCAnLW9tYWUnLCAnPG91dGZpbGUubWFlPic=

> <r_epik_Ionization_Penalty>
1.98932

> <r_epik_Ionization_Penalty_Charging>
0

> <r_epik_Ionization_Penalty_Neutral>
1.98932

> <r_epik_State_Penalty>
1.95598

> <r_epik_Charging_Adjusted_Penalty>
1.95598

> <i_epik_Tot_Q>
0

> <i_epik_Tot_abs_Q>
0

> <r_epik_Metal_State_Penalty>
1.80219

> <b_epik_Metal_Only>
0

> <s_lp_Force_Field>
OPLS_2005

> <r_lp_Energy>
9.98392

> <b_lp_Chiralities_Consistent>
1

> <s_lp_Variant>
AV-unprocessed.smi:661-2

> <Gold.Version>
5.8.1

> <Gold.Id.Protein>
6NUR|6NUR_protein|mol2

> <Gold.PLP.Fitness>
40.6900

> <Gold.PLP.PLP>
-35.2505

> <Gold.PLP.part.hbond>
-3.5219

> <Gold.PLP.part.metal>
0.0000

> <Gold.PLP.part.buried>
-3.9196

> <Gold.PLP.part.nonpolar>
-29.4121

> <Gold.PLP.part.repulsive>
1.6906

> <Gold.PLP.ligand.clash>
0.0000

> <Gold.PLP.ligand.torsion>
0.3752

> <Gold.PLP.Chemscore.Hbond>
2.0603

> <Gold.PLP.Chemscore.CHOScore>
0.0000

> <Gold.PLP.Chemscore.Metal>
0.0000

> <Gold.Chemscore.Hbonds>
donor molecule, donor type, donor heavy atom, donor atom, acceptor molecule, acceptor atom, score
      L1  H     2    19       P1  8028  1.00
      P1  H  7997  8009       L1    15  1.00
      P1  H  8011  8017       L1     2  0.06

> <Gold.PLP.Chemscore.Internal.Correction>
0.0088

> <Gold.Rescore>
     Score         DG    S(hbond)    S(metal)    S(lipo)     H(rot)  DE(clash)    DE(int)     intcor
     15.32     -16.22       1.81        0.00      90.57       2.30       0.59       0.31       ----

> <Gold.Chemscore.Fitness>
15.3222

> <Gold.Chemscore.DG>
-16.2169

> <Gold.Chemscore.ZeroCoef>
-5.4800

> <Gold.Chemscore.Hbond>
1.8071

> <Gold.Chemscore.Metal>
0.0000

> <Gold.Chemscore.Lipo>
90.5728

> <Gold.Chemscore.Internal_Hbond>
0.0000

> <Gold.Chemscore.DEClash>
0.5879

> <Gold.Chemscore.DEInternal>
0.3068

> <Gold.Chemscore.Rot>
2.3031

> <Gold.Chemscore.Internal.Correction>
   9.000000E+99

> <Gold.Chemscore.Hbonds>
donor molecule, donor type, donor heavy atom, donor atom, acceptor molecule, acceptor atom, score
      L1  H     2    19       P1  8028  0.98
      P1  H  7997  8009       L1    15  0.61

> <Gold.Chemscore.Hbond.Weighted>
-6.0359

> <Gold.Chemscore.Metal.Weighted>
-0.0000

> <Gold.Chemscore.Lipo.Weighted>
-10.5970

> <Gold.Chemscore.Internal_Hbond.Weighted>
0.0000

> <Gold.Chemscore.DEClash.Weighted>
0.5879

> <Gold.Chemscore.DEInternal.Weighted>
0.3068

> <Gold.Chemscore.Rot.Weighted>
5.8960

> <Gold.Chemscore.Internal.Correction.Weighted>
   9.000000E+99

> <Gold.Protein.RotatedTorsions>
[ 6907 6896 6895 6894 ] final  -97.57 input  -60.11 | X-H torsion
[ 7974 7965 7964 7962 ] final  -73.55 input  175.53 | X-H torsion
[ 8008 7997 7996 7995 ] final -169.79 input   59.86 | X-H torsion
[ 10167 10162 10161 10158 ] final -148.48 input  -65.29 | X-H torsion
[ 10718 10713 10712 10709 ] final -134.22 input   66.30 | X-H torsion
[ 10763 10752 10751 10750 ] final    7.91 input  -60.55 | X-H torsion
[ 11005 11000 10999 10996 ] final   10.67 input  -57.11 | X-H torsion

> <Gold.Protein.ActiveResidues>
 VAL166  LYS551  ARG553  GLY616  TRP617  ASP618  TYR619  PRO620  LYS621  CYS622 
 ASP623  PHE694  ASN695  SER759  ASP760  ASP761  ALA762  ILE779  LEU786  VAL792 
 PHE793  MET794  SER795  GLU796  ALA797  LYS798  CYS799  TRP800  GLU811  SER814 

> <Gold.Protein.RotatedAtoms>
  150.7020  134.1328  159.4075 H   0  0  0  0  0  0  0  0  0  0  0  0  # atno 6907 bound_to 6896
  151.9314  135.0252  160.0538 H   0  0  0  0  0  0  0  0  0  0  0  0  # atno 6908 bound_to 6896
  152.2172  133.4921  159.5179 H   0  0  0  0  0  0  0  0  0  0  0  0  # atno 6909 bound_to 6896
  145.6507  140.9283  143.0986 H   0  0  0  0  0  0  0  0  0  0  0  0  # atno 7974 bound_to 7965
  155.9097  140.1055  157.1289 H   0  0  0  0  0  0  0  0  0  0  0  0  # atno 8008 bound_to 7997
  154.4037  140.1276  156.4606 H   0  0  0  0  0  0  0  0  0  0  0  0  # atno 8009 bound_to 7997
  155.7325  140.3468  155.5068 H   0  0  0  0  0  0  0  0  0  0  0  0  # atno 8010 bound_to 7997
  139.7528  143.8493  152.2590 H   0  0  0  0  0  0  0  0  0  0  0  0  # atno 10167 bound_to 10162
  156.2531  130.7165  151.1072 H   0  0  0  0  0  0  0  0  0  0  0  0  # atno 10718 bound_to 10713
  153.2310  135.6892  153.7890 H   0  0  0  0  0  0  0  0  0  0  0  0  # atno 10763 bound_to 10752
  153.7054  135.3290  155.3235 H   0  0  0  0  0  0  0  0  0  0  0  0  # atno 10764 bound_to 10752
  154.8314  135.4578  154.1195 H   0  0  0  0  0  0  0  0  0  0  0  0  # atno 10765 bound_to 10752
  140.5119  134.0644  155.7820 H   0  0  0  0  0  0  0  0  0  0  0  0  # atno 11005 bound_to 11000
  144.7123  139.8323  143.7410 LP  0  0  0  0  0  0  0  0  0  0  0  0  # atno 17320 bound_to 7965
  146.1206  139.4223  143.0231 LP  0  0  0  0  0  0  0  0  0  0  0  0  # atno 17321 bound_to 7965
  139.8476  144.7180  150.9254 LP  0  0  0  0  0  0  0  0  0  0  0  0  # atno 17342 bound_to 10162
  140.7799  143.3928  151.1281 LP  0  0  0  0  0  0  0  0  0  0  0  0  # atno 17343 bound_to 10162
  157.7222  131.0674  150.6086 LP  0  0  0  0  0  0  0  0  0  0  0  0  # atno 17370 bound_to 10713
  156.6168  130.4395  149.5837 LP  0  0  0  0  0  0  0  0  0  0  0  0  # atno 17371 bound_to 10713
  141.1381  133.9186  157.2388 LP  0  0  0  0  0  0  0  0  0  0  0  0  # atno 17394 bound_to 11000
  139.9654  135.0143  156.9373 LP  0  0  0  0  0  0  0  0  0  0  0  0  # atno 17395 bound_to 11000

$$$$
