AV-unprocessed.smi:3058|AV-procd|sdf|11676|dock2
  -GOLD-   2272017 83D 1   1.00000     0.00000
 Structure written by MMmdl.
 39 41  0  0  0  0  0  0  0  0  2 V2000
  155.7504  139.3310  159.1622 O   0  0  0  0  0  0  0  0  0  0  0  0
  155.3563  139.3380  160.3289 C   0  0  0  0  0  0  0  0  0  0  0  0
  154.6548  140.3544  160.8567 N   0  0  0  0  0  0  0  0  0  0  0  0
  154.2163  141.5480  160.1360 C   0  0  0  0  0  0  0  0  0  0  0  0
  152.7059  141.5236  159.8258 C   0  0  0  0  0  0  0  0  0  0  0  0
  152.1331  142.8860  159.4724 C   0  0  0  0  0  0  0  0  0  0  0  0
  152.2935  143.9847  160.3464 C   0  0  0  0  0  0  0  0  0  0  0  0
  151.7162  145.2264  160.0101 C   0  0  0  0  0  0  0  0  0  0  0  0
  150.9933  145.3432  158.8054 C   0  0  0  0  0  0  0  0  0  0  0  0
  150.8644  144.2721  157.9920 N   0  3  0  0  0  0  0  0  0  0  0  0
  151.4027  143.0663  158.2778 C   0  0  0  0  0  0  0  0  0  0  0  0
  155.6199  138.1406  161.2577 C   0  0  1  0  0  0  0  0  0  0  0  0
  155.1500  138.3905  162.7127 C   0  0  0  0  0  0  0  0  0  0  0  0
  154.2102  137.2005  162.9898 C   0  0  2  0  0  0  0  0  0  0  0  0
  155.0362  135.9021  163.0673 C   0  0  0  0  0  0  0  0  0  0  0  0
  155.4276  135.6598  161.5963 C   0  0  0  0  0  0  0  0  0  0  0  0
  154.8086  136.8752  160.8790 C   0  0  1  0  0  0  0  0  0  0  0  0
  153.5003  137.0382  161.6529 C   0  0  0  0  0  0  0  0  0  0  0  0
  154.3775  140.2822  161.8253 H   0  0  0  0  0  0  0  0  0  0  0  0
  154.4483  142.4202  160.7474 H   0  0  0  0  0  0  0  0  0  0  0  0
  154.7864  141.6680  159.2130 H   0  0  0  0  0  0  0  0  0  0  0  0
  152.5132  140.8322  159.0043 H   0  0  0  0  0  0  0  0  0  0  0  0
  152.1633  141.1287  160.6854 H   0  0  0  0  0  0  0  0  0  0  0  0
  152.8406  143.8757  161.2715 H   0  0  0  0  0  0  0  0  0  0  0  0
  151.8221  146.0754  160.6695 H   0  0  0  0  0  0  0  0  0  0  0  0
  150.5166  146.2533  158.4713 H   0  0  0  0  0  0  0  0  0  0  0  0
  151.2200  142.2840  157.5555 H   0  0  0  0  0  0  0  0  0  0  0  0
  156.6880  137.9159  161.2408 H   0  0  0  0  0  0  0  0  0  0  0  0
  155.9858  138.4211  163.4127 H   0  0  0  0  0  0  0  0  0  0  0  0
  154.6072  139.3319  162.8170 H   0  0  0  0  0  0  0  0  0  0  0  0
  153.5521  137.3521  163.8459 H   0  0  0  0  0  0  0  0  0  0  0  0
  155.9051  136.0043  163.7188 H   0  0  0  0  0  0  0  0  0  0  0  0
  154.4309  135.0764  163.4432 H   0  0  0  0  0  0  0  0  0  0  0  0
  156.5070  135.5929  161.4555 H   0  0  0  0  0  0  0  0  0  0  0  0
  154.9870  134.7308  161.2320 H   0  0  0  0  0  0  0  0  0  0  0  0
  154.6862  136.7276  159.8051 H   0  0  0  0  0  0  0  0  0  0  0  0
  152.8599  136.1552  161.6091 H   0  0  0  0  0  0  0  0  0  0  0  0
  152.9125  137.9106  161.3670 H   0  0  0  0  0  0  0  0  0  0  0  0
  150.3334  144.3768  157.1271 H   0  0  0  0  0  0  0  0  0  0  0  0
  1  2  2  0  0  0  0
  2  3  1  0  0  0  0
  2 12  1  0  0  0  0
  3  4  1  0  0  0  0
  3 19  1  0  0  0  0
  4  5  1  0  0  0  0
  4 20  1  0  0  0  0
  4 21  1  0  0  0  0
  5  6  1  0  0  0  0
  5 22  1  0  0  0  0
  5 23  1  0  0  0  0
  6 11  1  0  0  0  0
  6  7  2  0  0  0  0
  7  8  1  0  0  0  0
  7 24  1  0  0  0  0
  8  9  2  0  0  0  0
  8 25  1  0  0  0  0
  9 10  1  0  0  0  0
  9 26  1  0  0  0  0
 10 11  2  0  0  0  0
 10 39  1  0  0  0  0
 11 27  1  0  0  0  0
 12 17  1  0  0  0  0
 12 13  1  0  0  0  0
 12 28  1  0  0  0  0
 13 14  1  0  0  0  0
 13 29  1  0  0  0  0
 13 30  1  0  0  0  0
 14 18  1  0  0  0  0
 14 15  1  0  0  0  0
 14 31  1  0  0  0  0
 15 16  1  0  0  0  0
 15 32  1  0  0  0  0
 15 33  1  0  0  0  0
 16 17  1  0  0  0  0
 16 34  1  0  0  0  0
 16 35  1  0  0  0  0
 17 18  1  0  0  0  0
 17 36  1  0  0  0  0
 18 37  1  0  0  0  0
 18 38  1  0  0  0  0
M  CHG  1  10   1
M  END
> <s_m_source_file>
AV-unprocessed.smi

> <i_m_source_file_index>
3058

> <i_lp_mmshare_version>
43012

> <i_f3d_flags>
0

> <s_epik_input>
W0NIMl0xW0NIMl1bQ0BIXShbQ0gyXTIpW0NAQEhdKFtDSDJdW0NAQEhdMTIpQyg9TylbTkhdW0NIMl1bQ0gyXWMzW2NIXVtjSF1bY0hdbltjSF0z

> <s_epik_cmdline>
J2VwaWtfcHl0aG9uJywgJy1waCcsICc3LjAnLCAnLXRuJywgJzgnLCAnLW1hJywgJzIwMCcsICctbWV0YWxfYmluZGluZycsICctaW1hZScsICc8aW5maWxlLm1hZT4nLCAnLW9tYWUnLCAnPG91dGZpbGUubWFlPic=

> <r_epik_Ionization_Penalty>
2.24375

> <r_epik_Ionization_Penalty_Charging>
2.24375

> <r_epik_Ionization_Penalty_Neutral>
1.89995e-08

> <r_epik_State_Penalty>
2.39035

> <r_epik_Charging_Adjusted_Penalty>
4.63411

> <i_epik_Tot_Q>
1

> <i_epik_Tot_abs_Q>
1

> <r_epik_Metal_State_Penalty>
2.40369

> <b_epik_Metal_Only>
0

> <s_lp_Force_Field>
OPLS_2005

> <r_lp_Energy>
53.8629

> <b_lp_Chiralities_Consistent>
1

> <s_lp_Variant>
AV-unprocessed.smi:3058-8

> <Gold.Version>
5.8.1

> <Gold.Id.Protein>
6NUR|6NUR_protein|mol2

> <Gold.PLP.Fitness>
46.4598

> <Gold.PLP.PLP>
-38.1954

> <Gold.PLP.part.hbond>
-1.9886

> <Gold.PLP.part.metal>
0.0000

> <Gold.PLP.part.buried>
-4.6384

> <Gold.PLP.part.nonpolar>
-32.2253

> <Gold.PLP.part.repulsive>
0.0731

> <Gold.PLP.ligand.clash>
0.1055

> <Gold.PLP.ligand.torsion>
0.3347

> <Gold.PLP.Chemscore.Hbond>
3.0000

> <Gold.PLP.Chemscore.CHOScore>
0.0000

> <Gold.PLP.Chemscore.Metal>
0.0000

> <Gold.Chemscore.Hbonds>
donor molecule, donor type, donor heavy atom, donor atom, acceptor molecule, acceptor atom, score
      L1  H    10    39       P1  8028  1.85
      P1  H  7997  8008       L1     1  1.00

> <Gold.PLP.Chemscore.Internal.Correction>
0.0392

> <Gold.Rescore>
     Score         DG    S(hbond)    S(metal)    S(lipo)     H(rot)  DE(clash)    DE(int)     intcor
     21.71     -22.07       1.97        0.00     117.57       1.45       0.07       0.30       ----

> <Gold.Chemscore.Fitness>
21.7056

> <Gold.Chemscore.DG>
-22.0745

> <Gold.Chemscore.ZeroCoef>
-5.4800

> <Gold.Chemscore.Hbond>
1.9650

> <Gold.Chemscore.Metal>
0.0000

> <Gold.Chemscore.Lipo>
117.5686

> <Gold.Chemscore.Internal_Hbond>
0.0000

> <Gold.Chemscore.DEClash>
0.0659

> <Gold.Chemscore.DEInternal>
0.3030

> <Gold.Chemscore.Rot>
1.4548

> <Gold.Chemscore.Internal.Correction>
   9.000000E+99

> <Gold.Chemscore.Hbonds>
donor molecule, donor type, donor heavy atom, donor atom, acceptor molecule, acceptor atom, score
      L1  H    10    39       P1  8028  0.69
      P1  H  7997  8008       L1     1  0.99

> <Gold.Chemscore.Hbond.Weighted>
-6.5632

> <Gold.Chemscore.Metal.Weighted>
-0.0000

> <Gold.Chemscore.Lipo.Weighted>
-13.7555

> <Gold.Chemscore.Internal_Hbond.Weighted>
0.0000

> <Gold.Chemscore.DEClash.Weighted>
0.0659

> <Gold.Chemscore.DEInternal.Weighted>
0.3030

> <Gold.Chemscore.Rot.Weighted>
3.7242

> <Gold.Chemscore.Internal.Correction.Weighted>
   9.000000E+99

> <Gold.Protein.RotatedTorsions>
[ 6907 6896 6895 6894 ] final   70.77 input  -60.11 | X-H torsion
[ 7974 7965 7964 7962 ] final   56.55 input  175.53 | X-H torsion
[ 8008 7997 7996 7995 ] final -142.58 input   59.86 | X-H torsion
[ 10167 10162 10161 10158 ] final  150.95 input  -65.29 | X-H torsion
[ 10718 10713 10712 10709 ] final   17.37 input   66.30 | X-H torsion
[ 10763 10752 10751 10750 ] final  -74.59 input  -60.55 | X-H torsion
[ 11005 11000 10999 10996 ] final -149.58 input  -57.11 | X-H torsion

> <Gold.Protein.ActiveResidues>
 VAL166  LYS551  ARG553  GLY616  TRP617  ASP618  TYR619  PRO620  LYS621  CYS622 
 ASP623  PHE694  ASN695  SER759  ASP760  ASP761  ALA762  ILE779  LEU786  VAL792 
 PHE793  MET794  SER795  GLU796  ALA797  LYS798  CYS799  TRP800  GLU811  SER814 

> <Gold.Protein.RotatedAtoms>
  152.4769  134.4819  159.9668 H   0  0  0  0  0  0  0  0  0  0  0  0  # atno 6907 bound_to 6896
  151.4834  133.3535  159.2849 H   0  0  0  0  0  0  0  0  0  0  0  0  # atno 6908 bound_to 6896
  150.8815  134.8233  159.7289 H   0  0  0  0  0  0  0  0  0  0  0  0  # atno 6909 bound_to 6896
  145.9386  139.3869  143.0377 H   0  0  0  0  0  0  0  0  0  0  0  0  # atno 7974 bound_to 7965
  155.4965  140.0572  157.2945 H   0  0  0  0  0  0  0  0  0  0  0  0  # atno 8008 bound_to 7997
  154.4603  140.1993  156.0214 H   0  0  0  0  0  0  0  0  0  0  0  0  # atno 8009 bound_to 7997
  156.0877  140.3238  155.7780 H   0  0  0  0  0  0  0  0  0  0  0  0  # atno 8010 bound_to 7997
  139.4845  144.5481  151.7449 H   0  0  0  0  0  0  0  0  0  0  0  0  # atno 10167 bound_to 10162
  157.0812  130.6388  149.5827 H   0  0  0  0  0  0  0  0  0  0  0  0  # atno 10718 bound_to 10713
  154.4751  135.5859  153.6349 H   0  0  0  0  0  0  0  0  0  0  0  0  # atno 10763 bound_to 10752
  152.9840  135.6076  154.3317 H   0  0  0  0  0  0  0  0  0  0  0  0  # atno 10764 bound_to 10752
  154.3203  135.2844  155.2502 H   0  0  0  0  0  0  0  0  0  0  0  0  # atno 10765 bound_to 10752
  140.7492  134.3426  157.5130 H   0  0  0  0  0  0  0  0  0  0  0  0  # atno 11005 bound_to 11000
  145.8330  140.9621  143.0839 LP  0  0  0  0  0  0  0  0  0  0  0  0  # atno 17320 bound_to 7965
  144.6775  140.0187  143.7484 LP  0  0  0  0  0  0  0  0  0  0  0  0  # atno 17321 bound_to 7965
  140.5030  144.1140  150.5976 LP  0  0  0  0  0  0  0  0  0  0  0  0  # atno 17342 bound_to 10162
  140.4040  143.2690  151.9914 LP  0  0  0  0  0  0  0  0  0  0  0  0  # atno 17343 bound_to 10162
  155.9923  130.4980  150.7334 LP  0  0  0  0  0  0  0  0  0  0  0  0  # atno 17370 bound_to 10713
  157.4798  131.0901  151.0549 LP  0  0  0  0  0  0  0  0  0  0  0  0  # atno 17371 bound_to 10713
  139.8791  134.9131  156.3075 LP  0  0  0  0  0  0  0  0  0  0  0  0  # atno 17394 bound_to 11000
  140.9766  133.7293  156.0611 LP  0  0  0  0  0  0  0  0  0  0  0  0  # atno 17395 bound_to 11000

$$$$
