AV-unprocessed.smi:2742|AV-procd|sdf|10562|dock7
  -GOLD-   2272015 13D 1   1.00000     0.00000
 Structure written by MMmdl.
 37 38  0  0  0  0  0  0  0  0  1 V2000
  151.8627  138.7144  154.7932 C   0  0  0  0  0  0  0  0  0  0  0  0
  150.7680  140.1089  155.1732 S   0  0  0  0  0  0  0  0  0  0  0  0
  149.2077  139.5246  154.4487 C   0  0  2  0  0  0  0  0  0  0  0  0
  148.4141  140.7067  153.8654 C   0  0  0  0  0  0  0  0  0  0  0  0
  147.0798  140.2442  153.2608 C   0  0  0  0  0  0  0  0  0  0  0  0
  146.2319  139.4872  154.2965 C   0  0  0  0  0  0  0  0  0  0  0  0
  146.9992  138.3033  154.9229 C   0  0  1  0  0  0  0  0  0  0  0  0
  147.1831  137.2189  153.9585 N   0  0  0  0  0  0  0  0  0  0  0  0
  146.2183  136.3979  153.5185 C   0  0  0  0  0  0  0  0  0  0  0  0
  145.0509  136.4597  153.9027 O   0  0  0  0  0  0  0  0  0  0  0  0
  146.7032  135.5161  152.6270 N   0  0  0  0  0  0  0  0  0  0  0  0
  146.0256  134.4866  151.9155 C   0  0  0  0  0  0  0  0  0  0  0  0
  144.7270  134.6123  151.3637 C   0  0  0  0  0  0  0  0  0  0  0  0
  144.1790  133.5151  150.6691 C   0  0  0  0  0  0  0  0  0  0  0  0
  144.8288  132.3453  150.4928 N   0  0  0  0  0  0  0  0  0  0  0  0
  146.0701  132.2321  151.0102 C   0  0  0  0  0  0  0  0  0  0  0  0
  146.7092  133.2671  151.7221 C   0  0  0  0  0  0  0  0  0  0  0  0
  147.9598  133.0874  152.2120 F   0  0  0  0  0  0  0  0  0  0  0  0
  148.3603  138.7590  155.4867 C   0  0  0  0  0  0  0  0  0  0  0  0
  152.8716  138.9263  155.1471 H   0  0  0  0  0  0  0  0  0  0  0  0
  151.9041  138.5442  153.7173 H   0  0  0  0  0  0  0  0  0  0  0  0
  151.5153  137.8031  155.2788 H   0  0  0  0  0  0  0  0  0  0  0  0
  149.4646  138.8532  153.6285 H   0  0  0  0  0  0  0  0  0  0  0  0
  148.2225  141.4438  154.6466 H   0  0  0  0  0  0  0  0  0  0  0  0
  149.0059  141.2127  153.1018 H   0  0  0  0  0  0  0  0  0  0  0  0
  146.5248  141.1046  152.8860 H   0  0  0  0  0  0  0  0  0  0  0  0
  147.2705  139.6033  152.3991 H   0  0  0  0  0  0  0  0  0  0  0  0
  145.9394  140.1790  155.0873 H   0  0  0  0  0  0  0  0  0  0  0  0
  145.3029  139.1430  153.8403 H   0  0  0  0  0  0  0  0  0  0  0  0
  146.4125  137.9167  155.7583 H   0  0  0  0  0  0  0  0  0  0  0  0
  148.1153  137.0934  153.5921 H   0  0  0  0  0  0  0  0  0  0  0  0
  147.6979  135.5616  152.4604 H   0  0  0  0  0  0  0  0  0  0  0  0
  144.1457  135.5167  151.4451 H   0  0  0  0  0  0  0  0  0  0  0  0
  143.1910  133.5822  150.2384 H   0  0  0  0  0  0  0  0  0  0  0  0
  146.5706  131.2886  150.8506 H   0  0  0  0  0  0  0  0  0  0  0  0
  148.9068  137.8955  155.8659 H   0  0  0  0  0  0  0  0  0  0  0  0
  148.1854  139.4053  156.3481 H   0  0  0  0  0  0  0  0  0  0  0  0
  1  2  1  0  0  0  0
  1 20  1  0  0  0  0
  1 21  1  0  0  0  0
  1 22  1  0  0  0  0
  2  3  1  0  0  0  0
  3 19  1  0  0  0  0
  3  4  1  0  0  0  0
  3 23  1  0  0  0  0
  4  5  1  0  0  0  0
  4 24  1  0  0  0  0
  4 25  1  0  0  0  0
  5  6  1  0  0  0  0
  5 26  1  0  0  0  0
  5 27  1  0  0  0  0
  6  7  1  0  0  0  0
  6 28  1  0  0  0  0
  6 29  1  0  0  0  0
  7  8  1  0  0  0  0
  7 19  1  0  0  0  0
  7 30  1  0  0  0  0
  8  9  1  0  0  0  0
  8 31  1  0  0  0  0
  9 10  2  0  0  0  0
  9 11  1  0  0  0  0
 11 12  1  0  0  0  0
 11 32  1  0  0  0  0
 12 17  1  0  0  0  0
 12 13  2  0  0  0  0
 13 14  1  0  0  0  0
 13 33  1  0  0  0  0
 14 15  2  0  0  0  0
 14 34  1  0  0  0  0
 15 16  1  0  0  0  0
 16 17  2  0  0  0  0
 16 35  1  0  0  0  0
 17 18  1  0  0  0  0
 19 36  1  0  0  0  0
 19 37  1  0  0  0  0
M  END
> <s_m_source_file>
AV-unprocessed.smi

> <i_m_source_file_index>
2742

> <i_lp_mmshare_version>
43012

> <i_f3d_flags>
0

> <s_epik_input>
W0NIM11TW0NAQEhdMVtDSDJdW0NIMl1bQ0gyXVtDQEhdKFtDSDJdMSlbTkhdQyg9TylbTkhdYzJbY0hdW2NIXW5bY0hdYzJG

> <s_epik_cmdline>
J2VwaWtfcHl0aG9uJywgJy1waCcsICc3LjAnLCAnLXRuJywgJzgnLCAnLW1hJywgJzIwMCcsICctbWV0YWxfYmluZGluZycsICctaW1hZScsICc8aW5maWxlLm1hZT4nLCAnLW9tYWUnLCAnPG91dGZpbGUubWFlPic=

> <r_epik_Ionization_Penalty>
0.00344009

> <r_epik_Ionization_Penalty_Charging>
0

> <r_epik_Ionization_Penalty_Neutral>
0.00344009

> <r_epik_State_Penalty>
0.0024078

> <r_epik_Charging_Adjusted_Penalty>
0.0024078

> <i_epik_Tot_Q>
0

> <i_epik_Tot_abs_Q>
0

> <r_epik_Metal_State_Penalty>
-0

> <b_epik_Metal_Only>
0

> <s_lp_Force_Field>
OPLS_2005

> <r_lp_Energy>
13.9457

> <b_lp_Chiralities_Consistent>
1

> <s_lp_Variant>
AV-unprocessed.smi:2742-1

> <Gold.Version>
5.8.1

> <Gold.Id.Protein>
6NUR|6NUR_protein|mol2

> <Gold.PLP.Fitness>
38.1296

> <Gold.PLP.PLP>
-29.2753

> <Gold.PLP.part.hbond>
-1.7888

> <Gold.PLP.part.metal>
0.0000

> <Gold.PLP.part.buried>
0.4755

> <Gold.PLP.part.nonpolar>
-27.5259

> <Gold.PLP.part.repulsive>
0.2168

> <Gold.PLP.ligand.clash>
0.0000

> <Gold.PLP.ligand.torsion>
0.9028

> <Gold.PLP.Chemscore.Hbond>
1.5733

> <Gold.PLP.Chemscore.CHOScore>
1.9759

> <Gold.PLP.Chemscore.Metal>
0.0000

> <Gold.Chemscore.Hbonds>
donor molecule, donor type, donor heavy atom, donor atom, acceptor molecule, acceptor atom, score
      L1  H     8    31       P1  7948  0.58
      L1  H    11    32       P1  7948  0.98
      L1  C    14    34       P1 10186  1.00
      L1  C    16    35       P1 10747  0.99

> <Gold.PLP.Chemscore.Internal.Correction>
0.0124

> <Gold.Rescore>
     Score         DG    S(hbond)    S(metal)    S(lipo)     H(rot)  DE(clash)    DE(int)     intcor
     15.32     -16.22       1.59        0.00      72.31       1.19       0.17       0.73       ----

> <Gold.Chemscore.Fitness>
15.3200

> <Gold.Chemscore.DG>
-16.2170

> <Gold.Chemscore.ZeroCoef>
-5.4800

> <Gold.Chemscore.Hbond>
1.5917

> <Gold.Chemscore.Metal>
0.0000

> <Gold.Chemscore.Lipo>
72.3131

> <Gold.Chemscore.Internal_Hbond>
0.0000

> <Gold.Chemscore.DEClash>
0.1679

> <Gold.Chemscore.DEInternal>
0.7291

> <Gold.Chemscore.Rot>
1.1875

> <Gold.Chemscore.Internal.Correction>
   9.000000E+99

> <Gold.Chemscore.Hbonds>
donor molecule, donor type, donor heavy atom, donor atom, acceptor molecule, acceptor atom, score
      L1  H     8    31       P1  7948  0.58
      L1  H    11    32       P1  7948  0.90

> <Gold.Chemscore.Hbond.Weighted>
-5.3163

> <Gold.Chemscore.Metal.Weighted>
-0.0000

> <Gold.Chemscore.Lipo.Weighted>
-8.4606

> <Gold.Chemscore.Internal_Hbond.Weighted>
0.0000

> <Gold.Chemscore.DEClash.Weighted>
0.1679

> <Gold.Chemscore.DEInternal.Weighted>
0.7291

> <Gold.Chemscore.Rot.Weighted>
3.0400

> <Gold.Chemscore.Internal.Correction.Weighted>
   9.000000E+99

> <Gold.Protein.RotatedTorsions>
[ 6907 6896 6895 6894 ] final  178.38 input  -60.11 | X-H torsion
[ 7974 7965 7964 7962 ] final  135.71 input  175.53 | X-H torsion
[ 8008 7997 7996 7995 ] final -133.45 input   59.86 | X-H torsion
[ 10167 10162 10161 10158 ] final   73.49 input  -65.29 | X-H torsion
[ 10718 10713 10712 10709 ] final  -45.56 input   66.30 | X-H torsion
[ 10763 10752 10751 10750 ] final   30.38 input  -60.55 | X-H torsion
[ 11005 11000 10999 10996 ] final -136.51 input  -57.11 | X-H torsion

> <Gold.Protein.ActiveResidues>
 VAL166  LYS551  ARG553  GLY616  TRP617  ASP618  TYR619  PRO620  LYS621  CYS622 
 ASP623  PHE694  ASN695  SER759  ASP760  ASP761  ALA762  ILE779  LEU786  VAL792 
 PHE793  MET794  SER795  GLU796  ALA797  LYS798  CYS799  TRP800  GLU811  SER814 

> <Gold.Protein.RotatedAtoms>
  151.6888  133.3311  159.3237 H   0  0  0  0  0  0  0  0  0  0  0  0  # atno 6907 bound_to 6896
  150.7789  134.6717  159.6404 H   0  0  0  0  0  0  0  0  0  0  0  0  # atno 6908 bound_to 6896
  152.3840  134.6550  160.0184 H   0  0  0  0  0  0  0  0  0  0  0  0  # atno 6909 bound_to 6896
  144.9636  139.4682  143.5467 H   0  0  0  0  0  0  0  0  0  0  0  0  # atno 7974 bound_to 7965
  155.3457  140.0474  157.3045 H   0  0  0  0  0  0  0  0  0  0  0  0  # atno 8008 bound_to 7997
  154.5254  140.2239  155.8865 H   0  0  0  0  0  0  0  0  0  0  0  0  # atno 8009 bound_to 7997
  156.1733  140.3091  155.9020 H   0  0  0  0  0  0  0  0  0  0  0  0  # atno 8010 bound_to 7997
  140.0239  144.5519  150.7560 H   0  0  0  0  0  0  0  0  0  0  0  0  # atno 10167 bound_to 10162
  156.2271  130.4170  149.8921 H   0  0  0  0  0  0  0  0  0  0  0  0  # atno 10718 bound_to 10713
  153.0375  135.6465  154.1035 H   0  0  0  0  0  0  0  0  0  0  0  0  # atno 10763 bound_to 10752
  154.0747  135.2878  155.3303 H   0  0  0  0  0  0  0  0  0  0  0  0  # atno 10764 bound_to 10752
  154.6570  135.5405  153.8036 H   0  0  0  0  0  0  0  0  0  0  0  0  # atno 10765 bound_to 10752
  140.8798  134.1946  157.4598 H   0  0  0  0  0  0  0  0  0  0  0  0  # atno 11005 bound_to 11000
  146.3361  139.8803  142.8825 LP  0  0  0  0  0  0  0  0  0  0  0  0  # atno 17320 bound_to 7965
  145.2662  141.0094  143.3798 LP  0  0  0  0  0  0  0  0  0  0  0  0  # atno 17321 bound_to 7965
  140.7331  143.2713  151.3880 LP  0  0  0  0  0  0  0  0  0  0  0  0  # atno 17342 bound_to 10162
  139.6121  144.1077  152.2309 LP  0  0  0  0  0  0  0  0  0  0  0  0  # atno 17343 bound_to 10162
  156.6547  130.8758  151.3537 LP  0  0  0  0  0  0  0  0  0  0  0  0  # atno 17370 bound_to 10713
  157.7115  130.9446  150.1107 LP  0  0  0  0  0  0  0  0  0  0  0  0  # atno 17371 bound_to 10713
  139.8718  134.9812  156.5107 LP  0  0  0  0  0  0  0  0  0  0  0  0  # atno 17394 bound_to 11000
  140.8474  133.8158  155.9135 LP  0  0  0  0  0  0  0  0  0  0  0  0  # atno 17395 bound_to 11000

$$$$
