AV-unprocessed.smi:2509|AV-procd|sdf|9866|dock3
  -GOLD-   2272013493D 1   1.00000     0.00000
 Structure written by MMmdl.
 45 46  0  0  0  0  0  0  0  0  1 V2000
  152.9152  142.9050  160.3468 C   0  0  0  0  0  0  0  0  0  0  0  0
  151.8777  143.7550  159.5764 C   0  0  0  0  0  0  0  0  0  0  0  0
  150.9912  144.5203  160.5757 C   0  0  0  0  0  0  0  0  0  0  0  0
  152.6931  144.7639  158.7330 C   0  0  0  0  0  0  0  0  0  0  0  0
  150.9933  142.8691  158.6815 C   0  0  0  0  0  0  0  0  0  0  0  0
  149.6673  142.9779  158.8389 N   0  0  0  0  0  0  0  0  0  0  0  0
  148.8769  142.3054  157.9762 C   0  0  0  0  0  0  0  0  0  0  0  0
  149.4081  141.5312  156.9258 C   0  0  0  0  0  0  0  0  0  0  0  0
  148.5209  140.8639  156.0404 N   0  0  0  0  0  0  0  0  0  0  0  0
  148.8227  140.1799  154.9240 C   0  0  0  0  0  0  0  0  0  0  0  0
  149.9608  139.9823  154.4993 O   0  0  0  0  0  0  0  0  0  0  0  0
  147.7162  139.7089  154.3317 N   0  0  0  0  0  0  0  0  0  0  0  0
  147.6834  138.8986  153.1176 C   0  0  0  0  0  0  0  0  0  0  0  0
  146.2642  138.3780  152.8190 C   0  0  2  0  0  0  0  0  0  0  0  0
  145.4805  137.9170  154.0586 C   0  0  0  0  0  0  0  0  0  0  0  0
  144.4922  136.8444  153.5740 C   0  0  0  0  0  0  0  0  0  0  0  0
  144.8312  136.5778  152.1024 C   0  0  0  0  0  0  0  0  0  0  0  0
  146.2382  137.1458  151.9092 C   0  0  1  0  0  0  0  0  0  0  0  0
  146.4841  137.4706  150.5566 O   0  0  0  0  0  0  0  0  0  0  0  0
  150.8190  141.5256  156.8183 C   0  0  0  0  0  0  0  0  0  0  0  0
  151.5975  142.2065  157.6862 N   0  0  0  0  0  0  0  0  0  0  0  0
  153.5763  143.5320  160.9458 H   0  0  0  0  0  0  0  0  0  0  0  0
  153.5405  142.3276  159.6647 H   0  0  0  0  0  0  0  0  0  0  0  0
  152.4399  142.2041  161.0340 H   0  0  0  0  0  0  0  0  0  0  0  0
  150.4306  143.8351  161.2125 H   0  0  0  0  0  0  0  0  0  0  0  0
  150.2692  145.1538  160.0596 H   0  0  0  0  0  0  0  0  0  0  0  0
  151.5868  145.1613  161.2264 H   0  0  0  0  0  0  0  0  0  0  0  0
  153.3562  145.3612  159.3599 H   0  0  0  0  0  0  0  0  0  0  0  0
  152.0497  145.4649  158.2000 H   0  0  0  0  0  0  0  0  0  0  0  0
  153.3124  144.2551  157.9933 H   0  0  0  0  0  0  0  0  0  0  0  0
  147.8106  142.3911  158.1259 H   0  0  0  0  0  0  0  0  0  0  0  0
  147.5489  140.8686  156.3131 H   0  0  0  0  0  0  0  0  0  0  0  0
  146.8255  139.9193  154.7578 H   0  0  0  0  0  0  0  0  0  0  0  0
  148.0225  139.5267  152.2935 H   0  0  0  0  0  0  0  0  0  0  0  0
  148.3907  138.0694  153.1760 H   0  0  0  0  0  0  0  0  0  0  0  0
  145.6898  139.1716  152.3372 H   0  0  0  0  0  0  0  0  0  0  0  0
  146.1586  137.4727  154.7882 H   0  0  0  0  0  0  0  0  0  0  0  0
  144.9750  138.7484  154.5509 H   0  0  0  0  0  0  0  0  0  0  0  0
  144.6078  135.9359  154.1660 H   0  0  0  0  0  0  0  0  0  0  0  0
  143.4577  137.1729  153.6807 H   0  0  0  0  0  0  0  0  0  0  0  0
  144.7673  135.5212  151.8407 H   0  0  0  0  0  0  0  0  0  0  0  0
  144.1215  137.1158  151.4718 H   0  0  0  0  0  0  0  0  0  0  0  0
  146.9767  136.4166  152.2456 H   0  0  0  0  0  0  0  0  0  0  0  0
  145.6867  137.8076  150.1776 H   0  0  0  0  0  0  0  0  0  0  0  0
  151.3421  141.0082  156.0291 H   0  0  0  0  0  0  0  0  0  0  0  0
  1  2  1  0  0  0  0
  1 22  1  0  0  0  0
  1 23  1  0  0  0  0
  1 24  1  0  0  0  0
  2  3  1  0  0  0  0
  2  4  1  0  0  0  0
  2  5  1  0  0  0  0
  3 25  1  0  0  0  0
  3 26  1  0  0  0  0
  3 27  1  0  0  0  0
  4 28  1  0  0  0  0
  4 29  1  0  0  0  0
  4 30  1  0  0  0  0
  5 21  1  0  0  0  0
  5  6  2  0  0  0  0
  6  7  1  0  0  0  0
  7  8  2  0  0  0  0
  7 31  1  0  0  0  0
  8  9  1  0  0  0  0
  8 20  1  0  0  0  0
  9 10  1  0  0  0  0
  9 32  1  0  0  0  0
 10 11  2  0  0  0  0
 10 12  1  0  0  0  0
 12 13  1  0  0  0  0
 12 33  1  0  0  0  0
 13 14  1  0  0  0  0
 13 34  1  0  0  0  0
 13 35  1  0  0  0  0
 14 18  1  0  0  0  0
 14 15  1  0  0  0  0
 14 36  1  0  0  0  0
 15 16  1  0  0  0  0
 15 37  1  0  0  0  0
 15 38  1  0  0  0  0
 16 17  1  0  0  0  0
 16 39  1  0  0  0  0
 16 40  1  0  0  0  0
 17 18  1  0  0  0  0
 17 41  1  0  0  0  0
 17 42  1  0  0  0  0
 18 19  1  0  0  0  0
 18 43  1  0  0  0  0
 19 44  1  0  0  0  0
 20 21  2  0  0  0  0
 20 45  1  0  0  0  0
M  END
> <s_m_source_file>
AV-unprocessed.smi

> <i_m_source_file_index>
2509

> <i_lp_mmshare_version>
43012

> <i_f3d_flags>
0

> <s_epik_input>
W0NIM11DKFtDSDNdKShbQ0gzXSljMW5bY0hdYyhbY0hdbjEpW05IXUMoPU8pW05IXVtDSDJdW0NAQEhdMltDSDJdW0NIMl1bQ0gyXVtDQEhdMltPSF0=

> <s_epik_cmdline>
J2VwaWtfcHl0aG9uJywgJy1waCcsICc3LjAnLCAnLXRuJywgJzgnLCAnLW1hJywgJzIwMCcsICctbWV0YWxfYmluZGluZycsICctaW1hZScsICc8aW5maWxlLm1hZT4nLCAnLW9tYWUnLCAnPG91dGZpbGUubWFlPic=

> <r_lp_tautomer_probability>
1

> <r_epik_Ionization_Penalty>
2.77586e-05

> <r_epik_Ionization_Penalty_Charging>
0

> <r_epik_Ionization_Penalty_Neutral>
2.77586e-05

> <r_epik_State_Penalty>
-0

> <r_epik_Charging_Adjusted_Penalty>
0

> <i_epik_Tot_Q>
0

> <i_epik_Tot_abs_Q>
0

> <r_epik_Metal_State_Penalty>
-0

> <b_epik_Metal_Only>
0

> <s_lp_Force_Field>
OPLS_2005

> <r_lp_Energy>
20.4584

> <b_lp_Chiralities_Consistent>
1

> <s_lp_Variant>
AV-unprocessed.smi:2509-1

> <Gold.Version>
5.8.1

> <Gold.Id.Protein>
6NUR|6NUR_protein|mol2

> <Gold.PLP.Fitness>
42.7526

> <Gold.PLP.PLP>
-34.6087

> <Gold.PLP.part.hbond>
-4.0657

> <Gold.PLP.part.metal>
0.0000

> <Gold.PLP.part.buried>
-0.6943

> <Gold.PLP.part.nonpolar>
-30.3089

> <Gold.PLP.part.repulsive>
0.2930

> <Gold.PLP.ligand.clash>
0.0000

> <Gold.PLP.ligand.torsion>
0.3000

> <Gold.PLP.Chemscore.Hbond>
2.8636

> <Gold.PLP.Chemscore.CHOScore>
0.0000

> <Gold.PLP.Chemscore.Metal>
0.0000

> <Gold.Chemscore.Hbonds>
donor molecule, donor type, donor heavy atom, donor atom, acceptor molecule, acceptor atom, score
      L1  H    19    44       P1 10171  1.00
      P1  H  7954  7966       L1    19  0.96
      P1  H  7989  7998       L1    11  0.75

> <Gold.PLP.Chemscore.Internal.Correction>
0.1530

> <Gold.Rescore>
     Score         DG    S(hbond)    S(metal)    S(lipo)     H(rot)  DE(clash)    DE(int)     intcor
     17.42     -20.45       2.64        0.00      94.48       1.91       1.41       1.61       ----

> <Gold.Chemscore.Fitness>
17.4213

> <Gold.Chemscore.DG>
-20.4495

> <Gold.Chemscore.ZeroCoef>
-5.4800

> <Gold.Chemscore.Hbond>
2.6375

> <Gold.Chemscore.Metal>
0.0000

> <Gold.Chemscore.Lipo>
94.4764

> <Gold.Chemscore.Internal_Hbond>
0.0000

> <Gold.Chemscore.DEClash>
1.4139

> <Gold.Chemscore.DEInternal>
1.6143

> <Gold.Chemscore.Rot>
1.9116

> <Gold.Chemscore.Internal.Correction>
   9.000000E+99

> <Gold.Chemscore.Hbonds>
donor molecule, donor type, donor heavy atom, donor atom, acceptor molecule, acceptor atom, score
      L1  H    19    44       P1 10171  0.97
      P1  H  7954  7966       L1    19  0.91
      P1  H  7989  7998       L1    11  0.71

> <Gold.Chemscore.Hbond.Weighted>
-8.8094

> <Gold.Chemscore.Metal.Weighted>
-0.0000

> <Gold.Chemscore.Lipo.Weighted>
-11.0537

> <Gold.Chemscore.Internal_Hbond.Weighted>
0.0000

> <Gold.Chemscore.DEClash.Weighted>
1.4139

> <Gold.Chemscore.DEInternal.Weighted>
1.6143

> <Gold.Chemscore.Rot.Weighted>
4.8936

> <Gold.Chemscore.Internal.Correction.Weighted>
   9.000000E+99

> <Gold.Protein.RotatedTorsions>
[ 6907 6896 6895 6894 ] final  174.55 input  -60.11 | X-H torsion
[ 7974 7965 7964 7962 ] final   27.84 input  175.53 | X-H torsion
[ 8008 7997 7996 7995 ] final  -68.92 input   59.86 | X-H torsion
[ 10167 10162 10161 10158 ] final   49.99 input  -65.29 | X-H torsion
[ 10718 10713 10712 10709 ] final  -64.12 input   66.30 | X-H torsion
[ 10763 10752 10751 10750 ] final  -35.32 input  -60.55 | X-H torsion
[ 11005 11000 10999 10996 ] final   87.73 input  -57.11 | X-H torsion

> <Gold.Protein.ActiveResidues>
 VAL166  LYS551  ARG553  GLY616  TRP617  ASP618  TYR619  PRO620  LYS621  CYS622 
 ASP623  PHE694  ASN695  SER759  ASP760  ASP761  ALA762  ILE779  LEU786  VAL792 
 PHE793  MET794  SER795  GLU796  ALA797  LYS798  CYS799  TRP800  GLU811  SER814 

> <Gold.Protein.RotatedAtoms>
  151.7504  133.3327  159.3389 H   0  0  0  0  0  0  0  0  0  0  0  0  # atno 6907 bound_to 6896
  150.7537  134.6197  159.6139 H   0  0  0  0  0  0  0  0  0  0  0  0  # atno 6908 bound_to 6896
  152.3472  134.7057  160.0298 H   0  0  0  0  0  0  0  0  0  0  0  0  # atno 6909 bound_to 6896
  146.1762  139.7136  142.8933 H   0  0  0  0  0  0  0  0  0  0  0  0  # atno 7974 bound_to 7965
  154.4901  140.0863  156.7576 H   0  0  0  0  0  0  0  0  0  0  0  0  # atno 8008 bound_to 7997
  155.4251  140.3447  155.4256 H   0  0  0  0  0  0  0  0  0  0  0  0  # atno 8009 bound_to 7997
  156.1318  140.1503  156.9042 H   0  0  0  0  0  0  0  0  0  0  0  0  # atno 8010 bound_to 7997
  140.2771  144.3199  150.6274 H   0  0  0  0  0  0  0  0  0  0  0  0  # atno 10167 bound_to 10162
  156.0749  130.4229  150.1374 H   0  0  0  0  0  0  0  0  0  0  0  0  # atno 10718 bound_to 10713
  153.8613  135.6840  153.4782 H   0  0  0  0  0  0  0  0  0  0  0  0  # atno 10763 bound_to 10752
  153.1340  135.4686  154.9391 H   0  0  0  0  0  0  0  0  0  0  0  0  # atno 10764 bound_to 10752
  154.7757  135.3252  154.8046 H   0  0  0  0  0  0  0  0  0  0  0  0  # atno 10765 bound_to 10752
  139.8913  134.8441  156.2901 H   0  0  0  0  0  0  0  0  0  0  0  0  # atno 11005 bound_to 11000
  145.4205  141.0406  143.2966 LP  0  0  0  0  0  0  0  0  0  0  0  0  # atno 17320 bound_to 7965
  144.8240  139.5743  143.6974 LP  0  0  0  0  0  0  0  0  0  0  0  0  # atno 17321 bound_to 7965
  140.5842  143.2171  151.7372 LP  0  0  0  0  0  0  0  0  0  0  0  0  # atno 17342 bound_to 10162
  139.4972  144.4035  152.0156 LP  0  0  0  0  0  0  0  0  0  0  0  0  # atno 17343 bound_to 10162
  156.9417  130.9746  151.3515 LP  0  0  0  0  0  0  0  0  0  0  0  0  # atno 17370 bound_to 10713
  157.5839  130.8396  149.8561 LP  0  0  0  0  0  0  0  0  0  0  0  0  # atno 17371 bound_to 10713
  140.9982  133.7167  156.0919 LP  0  0  0  0  0  0  0  0  0  0  0  0  # atno 17394 bound_to 11000
  140.7534  134.4020  157.5538 LP  0  0  0  0  0  0  0  0  0  0  0  0  # atno 17395 bound_to 11000

$$$$
