AV-unprocessed.smi:2847|AV-procd|sdf|10954|dock4
  -GOLD-   2272015413D 1   1.00000     0.00000
 Structure written by MMmdl.
 45 46  0  0  0  0  0  0  0  0  1 V2000
  135.3754  137.1961  151.9241 C   0  0  0  0  0  0  0  0  0  0  0  0
  135.8795  138.2629  152.9247 C   0  0  0  0  0  0  0  0  0  0  0  0
  135.3037  139.6387  152.5422 C   0  0  0  0  0  0  0  0  0  0  0  0
  135.3354  137.8405  154.3098 C   0  0  0  0  0  0  0  0  0  0  0  0
  137.4166  138.3340  152.9325 C   0  0  0  0  0  0  0  0  0  0  0  0
  138.0799  137.1836  153.1095 N   0  0  0  0  0  0  0  0  0  0  0  0
  139.4241  137.2118  152.9957 C   0  0  0  0  0  0  0  0  0  0  0  0
  140.1216  138.3934  152.6755 C   0  0  0  0  0  0  0  0  0  0  0  0
  141.5362  138.3480  152.5559 N   0  0  0  0  0  0  0  0  0  0  0  0
  142.3405  137.2721  152.5791 C   0  0  0  0  0  0  0  0  0  0  0  0
  141.9591  136.1075  152.6877 O   0  0  0  0  0  0  0  0  0  0  0  0
  143.6269  137.6359  152.4501 N   0  0  0  0  0  0  0  0  0  0  0  0
  144.8258  136.7867  152.4253 C   0  0  2  0  0  0  0  0  0  0  0  0
  144.7934  135.7912  153.6095 C   0  0  0  0  0  0  0  0  0  0  0  0
  146.0326  137.7511  152.6037 C   0  0  0  0  0  0  0  0  0  0  0  0
  145.9353  138.8951  151.7760 O   0  0  0  0  0  0  0  0  0  0  0  0
  144.9228  135.9741  151.1213 C   0  0  0  0  0  0  0  0  0  0  0  0
  144.3140  134.6041  150.9264 C   0  0  0  0  0  0  0  0  0  0  0  0
  145.8213  134.7737  150.9320 C   0  0  0  0  0  0  0  0  0  0  0  0
  139.3210  139.5394  152.4554 C   0  0  0  0  0  0  0  0  0  0  0  0
  137.9763  139.4964  152.5717 N   0  0  0  0  0  0  0  0  0  0  0  0
  134.2887  137.1080  151.9518 H   0  0  0  0  0  0  0  0  0  0  0  0
  135.7892  136.2125  152.1500 H   0  0  0  0  0  0  0  0  0  0  0  0
  135.6440  137.4405  150.8957 H   0  0  0  0  0  0  0  0  0  0  0  0
  135.6435  139.9494  151.5536 H   0  0  0  0  0  0  0  0  0  0  0  0
  135.6109  140.4079  153.2518 H   0  0  0  0  0  0  0  0  0  0  0  0
  134.2135  139.6227  152.5257 H   0  0  0  0  0  0  0  0  0  0  0  0
  134.2492  137.7434  154.2961 H   0  0  0  0  0  0  0  0  0  0  0  0
  135.5754  138.5701  155.0840 H   0  0  0  0  0  0  0  0  0  0  0  0
  135.7460  136.8794  154.6221 H   0  0  0  0  0  0  0  0  0  0  0  0
  139.9458  136.2800  153.1591 H   0  0  0  0  0  0  0  0  0  0  0  0
  141.9863  139.2358  152.3877 H   0  0  0  0  0  0  0  0  0  0  0  0
  143.8074  138.6261  152.3726 H   0  0  0  0  0  0  0  0  0  0  0  0
  145.7382  135.2534  153.6941 H   0  0  0  0  0  0  0  0  0  0  0  0
  144.0115  135.0409  153.4908 H   0  0  0  0  0  0  0  0  0  0  0  0
  144.6153  136.2935  154.5610 H   0  0  0  0  0  0  0  0  0  0  0  0
  146.1062  138.1104  153.6291 H   0  0  0  0  0  0  0  0  0  0  0  0
  146.9742  137.2557  152.3680 H   0  0  0  0  0  0  0  0  0  0  0  0
  145.0740  139.2697  151.8817 H   0  0  0  0  0  0  0  0  0  0  0  0
  144.8322  136.6053  150.2398 H   0  0  0  0  0  0  0  0  0  0  0  0
  143.8640  134.0952  151.7746 H   0  0  0  0  0  0  0  0  0  0  0  0
  143.8382  134.4036  149.9687 H   0  0  0  0  0  0  0  0  0  0  0  0
  146.3391  134.6872  149.9789 H   0  0  0  0  0  0  0  0  0  0  0  0
  146.3634  134.3734  151.7846 H   0  0  0  0  0  0  0  0  0  0  0  0
  139.7321  140.4921  152.1599 H   0  0  0  0  0  0  0  0  0  0  0  0
  1  2  1  0  0  0  0
  1 22  1  0  0  0  0
  1 23  1  0  0  0  0
  1 24  1  0  0  0  0
  2  3  1  0  0  0  0
  2  4  1  0  0  0  0
  2  5  1  0  0  0  0
  3 25  1  0  0  0  0
  3 26  1  0  0  0  0
  3 27  1  0  0  0  0
  4 28  1  0  0  0  0
  4 29  1  0  0  0  0
  4 30  1  0  0  0  0
  5 21  1  0  0  0  0
  5  6  2  0  0  0  0
  6  7  1  0  0  0  0
  7  8  2  0  0  0  0
  7 31  1  0  0  0  0
  8  9  1  0  0  0  0
  8 20  1  0  0  0  0
  9 10  1  0  0  0  0
  9 32  1  0  0  0  0
 10 11  2  0  0  0  0
 10 12  1  0  0  0  0
 12 13  1  0  0  0  0
 12 33  1  0  0  0  0
 13 14  1  0  0  0  0
 13 15  1  0  0  0  0
 13 17  1  0  0  0  0
 14 34  1  0  0  0  0
 14 35  1  0  0  0  0
 14 36  1  0  0  0  0
 15 16  1  0  0  0  0
 15 37  1  0  0  0  0
 15 38  1  0  0  0  0
 16 39  1  0  0  0  0
 17 19  1  0  0  0  0
 17 18  1  0  0  0  0
 17 40  1  0  0  0  0
 18 19  1  0  0  0  0
 18 41  1  0  0  0  0
 18 42  1  0  0  0  0
 19 43  1  0  0  0  0
 19 44  1  0  0  0  0
 20 21  2  0  0  0  0
 20 45  1  0  0  0  0
M  END
> <s_m_source_file>
AV-unprocessed.smi

> <i_m_source_file_index>
2847

> <i_lp_mmshare_version>
43012

> <i_f3d_flags>
0

> <s_epik_input>
W0NIM11DKFtDSDNdKShbQ0gzXSljMW5bY0hdYyhbY0hdbjEpW05IXUMoPU8pW05IXVtDQEBdKFtDSDNdKShbQ0gyXVtPSF0pW0NIXTJbQ0gyXVtDSDJdMg==

> <s_epik_cmdline>
J2VwaWtfcHl0aG9uJywgJy1waCcsICc3LjAnLCAnLXRuJywgJzgnLCAnLW1hJywgJzIwMCcsICctbWV0YWxfYmluZGluZycsICctaW1hZScsICc8aW5maWxlLm1hZT4nLCAnLW9tYWUnLCAnPG91dGZpbGUubWFlPic=

> <r_lp_tautomer_probability>
1

> <r_epik_Ionization_Penalty>
2.57177e-05

> <r_epik_Ionization_Penalty_Charging>
0

> <r_epik_Ionization_Penalty_Neutral>
2.57177e-05

> <r_epik_State_Penalty>
-0

> <r_epik_Charging_Adjusted_Penalty>
0

> <i_epik_Tot_Q>
0

> <i_epik_Tot_abs_Q>
0

> <r_epik_Metal_State_Penalty>
-0

> <b_epik_Metal_Only>
0

> <s_lp_Force_Field>
OPLS_2005

> <r_lp_Energy>
20.8954

> <b_lp_Chiralities_Consistent>
1

> <s_lp_Variant>
AV-unprocessed.smi:2847-2

> <Gold.Version>
5.8.1

> <Gold.Id.Protein>
6NUR|6NUR_protein|mol2

> <Gold.PLP.Fitness>
43.5006

> <Gold.PLP.PLP>
-32.7350

> <Gold.PLP.part.hbond>
-4.7704

> <Gold.PLP.part.metal>
0.0000

> <Gold.PLP.part.buried>
-5.1115

> <Gold.PLP.part.nonpolar>
-24.1458

> <Gold.PLP.part.repulsive>
0.3046

> <Gold.PLP.ligand.clash>
0.0000

> <Gold.PLP.ligand.torsion>
1.1765

> <Gold.PLP.Chemscore.Hbond>
3.0000

> <Gold.PLP.Chemscore.CHOScore>
0.8564

> <Gold.PLP.Chemscore.Metal>
0.0000

> <Gold.Chemscore.Hbonds>
donor molecule, donor type, donor heavy atom, donor atom, acceptor molecule, acceptor atom, score
      L1  H     9    32       P1 10175  1.00
      L1  H    12    33       P1 10175  1.00
      L1  H    16    39       P1 10175  1.00
      L1  C     7    31       P1 10187  0.14

> <Gold.PLP.Chemscore.Internal.Correction>
1.5492

> <Gold.Rescore>
     Score         DG    S(hbond)    S(metal)    S(lipo)     H(rot)  DE(clash)    DE(int)     intcor
     14.92     -17.52       2.86        0.00      68.70       2.17       0.21       2.39       ----

> <Gold.Chemscore.Fitness>
14.9205

> <Gold.Chemscore.DG>
-17.5241

> <Gold.Chemscore.ZeroCoef>
-5.4800

> <Gold.Chemscore.Hbond>
2.8613

> <Gold.Chemscore.Metal>
0.0000

> <Gold.Chemscore.Lipo>
68.6953

> <Gold.Chemscore.Internal_Hbond>
0.0000

> <Gold.Chemscore.DEClash>
0.2122

> <Gold.Chemscore.DEInternal>
2.3913

> <Gold.Chemscore.Rot>
2.1679

> <Gold.Chemscore.Internal.Correction>
   9.000000E+99

> <Gold.Chemscore.Hbonds>
donor molecule, donor type, donor heavy atom, donor atom, acceptor molecule, acceptor atom, score
      L1  H     9    32       P1 10175  0.51
      L1  H    12    33       P1 10175  1.00
      L1  H    16    39       P1 10175  0.97

> <Gold.Chemscore.Hbond.Weighted>
-9.5566

> <Gold.Chemscore.Metal.Weighted>
-0.0000

> <Gold.Chemscore.Lipo.Weighted>
-8.0373

> <Gold.Chemscore.Internal_Hbond.Weighted>
0.0000

> <Gold.Chemscore.DEClash.Weighted>
0.2122

> <Gold.Chemscore.DEInternal.Weighted>
2.3913

> <Gold.Chemscore.Rot.Weighted>
5.5499

> <Gold.Chemscore.Internal.Correction.Weighted>
   9.000000E+99

> <Gold.Protein.RotatedTorsions>
[ 6907 6896 6895 6894 ] final   12.22 input  -60.11 | X-H torsion
[ 7974 7965 7964 7962 ] final  122.18 input  175.53 | X-H torsion
[ 8008 7997 7996 7995 ] final -131.87 input   59.86 | X-H torsion
[ 10167 10162 10161 10158 ] final    3.73 input  -65.29 | X-H torsion
[ 10718 10713 10712 10709 ] final  -46.29 input   66.30 | X-H torsion
[ 10763 10752 10751 10750 ] final   23.70 input  -60.55 | X-H torsion
[ 11005 11000 10999 10996 ] final   -4.81 input  -57.11 | X-H torsion

> <Gold.Protein.ActiveResidues>
 VAL166  LYS551  ARG553  GLY616  TRP617  ASP618  TYR619  PRO620  LYS621  CYS622 
 ASP623  PHE694  ASN695  SER759  ASP760  ASP761  ALA762  ILE779  LEU786  VAL792 
 PHE793  MET794  SER795  GLU796  ALA797  LYS798  CYS799  TRP800  GLU811  SER814 

> <Gold.Protein.RotatedAtoms>
  151.7668  135.0796  160.0353 H   0  0  0  0  0  0  0  0  0  0  0  0  # atno 6907 bound_to 6896
  152.3316  133.5960  159.5822 H   0  0  0  0  0  0  0  0  0  0  0  0  # atno 6908 bound_to 6896
  150.7426  133.9776  159.3607 H   0  0  0  0  0  0  0  0  0  0  0  0  # atno 6909 bound_to 6896
  145.1105  139.3456  143.4765 H   0  0  0  0  0  0  0  0  0  0  0  0  # atno 7974 bound_to 7965
  155.3196  140.0461  157.3038 H   0  0  0  0  0  0  0  0  0  0  0  0  # atno 8008 bound_to 7997
  154.5387  140.2281  155.8643 H   0  0  0  0  0  0  0  0  0  0  0  0  # atno 8009 bound_to 7997
  156.1860  140.3062  155.9246 H   0  0  0  0  0  0  0  0  0  0  0  0  # atno 8010 bound_to 7997
  140.6571  143.7400  150.7672 H   0  0  0  0  0  0  0  0  0  0  0  0  # atno 10167 bound_to 10162
  156.2198  130.4165  149.9007 H   0  0  0  0  0  0  0  0  0  0  0  0  # atno 10718 bound_to 10713
  153.0818  135.6621  154.0029 H   0  0  0  0  0  0  0  0  0  0  0  0  # atno 10763 bound_to 10752
  153.9648  135.2970  155.3432 H   0  0  0  0  0  0  0  0  0  0  0  0  # atno 10764 bound_to 10752
  154.7219  135.5161  153.8897 H   0  0  0  0  0  0  0  0  0  0  0  0  # atno 10765 bound_to 10752
  140.6843  133.9126  155.8576 H   0  0  0  0  0  0  0  0  0  0  0  0  # atno 11005 bound_to 11000
  146.3526  140.1022  142.8607 LP  0  0  0  0  0  0  0  0  0  0  0  0  # atno 17320 bound_to 7965
  145.0852  140.9248  143.4802 LP  0  0  0  0  0  0  0  0  0  0  0  0  # atno 17321 bound_to 7965
  140.1061  143.4742  152.2397 LP  0  0  0  0  0  0  0  0  0  0  0  0  # atno 17342 bound_to 10162
  139.5796  144.7504  151.3675 LP  0  0  0  0  0  0  0  0  0  0  0  0  # atno 17343 bound_to 10162
  156.6658  130.8800  151.3554 LP  0  0  0  0  0  0  0  0  0  0  0  0  # atno 17370 bound_to 10713
  157.7082  130.9409  150.0999 LP  0  0  0  0  0  0  0  0  0  0  0  0  # atno 17371 bound_to 10713
  141.0292  134.0780  157.4033 LP  0  0  0  0  0  0  0  0  0  0  0  0  # atno 17394 bound_to 11000
  139.8942  135.0134  156.6939 LP  0  0  0  0  0  0  0  0  0  0  0  0  # atno 17395 bound_to 11000

$$$$
