AV-unprocessed.smi:2889|AV-procd|sdf|11115|dock2
  -GOLD-   2272015583D 1   1.00000     0.00000
 Structure written by MMmdl.
 35 36  0  0  0  0  0  0  0  0  2 V2000
  153.1376  142.3712  162.6149 C   0  0  0  0  0  0  0  0  0  0  0  0
  153.6167  141.7738  160.9700 S   0  0  0  0  0  0  0  0  0  0  0  0
  152.3579  142.5758  159.9218 C   0  0  1  0  0  0  0  0  0  0  0  0
  152.8128  144.0262  159.6035 C   0  0  0  0  0  0  0  0  0  0  0  0
  151.8238  144.7936  158.7032 C   0  0  0  0  0  0  0  0  0  0  0  0
  151.5643  143.9796  157.4211 C   0  0  0  0  0  0  0  0  0  0  0  0
  151.0881  142.5392  157.7266 C   0  0  0  0  0  0  0  0  0  0  0  0
  152.0570  141.7439  158.6395 C   0  0  2  0  0  0  0  0  0  0  0  0
  151.4522  140.4663  158.9899 N   0  5  0  0  0  0  0  0  0  0  0  0
  151.7772  139.1466  158.1050 S   0  0  0  0  0  0  0  0  0  0  0  0
  152.7242  139.4128  157.0094 O   0  0  0  0  0  0  0  0  0  0  0  0
  152.0377  137.9679  158.9471 O   0  0  0  0  0  0  0  0  0  0  0  0
  150.1331  138.8470  157.3187 C   0  0  0  0  0  0  0  0  0  0  0  0
  150.2084  139.0616  155.8310 C   0  0  0  0  0  0  0  0  0  0  0  0
  150.0127  138.1125  154.7887 C   0  0  0  0  0  0  0  0  0  0  0  0
  150.2011  138.8425  153.6514 C   0  0  0  0  0  0  0  0  0  0  0  0
  150.4989  140.1303  153.9574 O   0  0  0  0  0  0  0  0  0  0  0  0
  150.5050  140.2601  155.3510 N   0  0  0  0  0  0  0  0  0  0  0  0
  153.8279  141.9887  163.3663 H   0  0  0  0  0  0  0  0  0  0  0  0
  152.1325  142.0380  162.8722 H   0  0  0  0  0  0  0  0  0  0  0  0
  153.1626  143.4604  162.6467 H   0  0  0  0  0  0  0  0  0  0  0  0
  151.4416  142.6534  160.5091 H   0  0  0  0  0  0  0  0  0  0  0  0
  152.9423  144.5770  160.5357 H   0  0  0  0  0  0  0  0  0  0  0  0
  153.7959  144.0163  159.1278 H   0  0  0  0  0  0  0  0  0  0  0  0
  150.8857  144.9524  159.2366 H   0  0  0  0  0  0  0  0  0  0  0  0
  152.2184  145.7795  158.4561 H   0  0  0  0  0  0  0  0  0  0  0  0
  150.8143  144.4881  156.8149 H   0  0  0  0  0  0  0  0  0  0  0  0
  152.4714  143.9551  156.8139 H   0  0  0  0  0  0  0  0  0  0  0  0
  150.1056  142.5922  158.1984 H   0  0  0  0  0  0  0  0  0  0  0  0
  150.9420  142.0060  156.7867 H   0  0  0  0  0  0  0  0  0  0  0  0
  152.9968  141.6105  158.1016 H   0  0  0  0  0  0  0  0  0  0  0  0
  149.8435  137.8211  157.5465 H   0  0  0  0  0  0  0  0  0  0  0  0
  149.3984  139.5037  157.7835 H   0  0  0  0  0  0  0  0  0  0  0  0
  149.7640  137.0644  154.8669 H   0  0  0  0  0  0  0  0  0  0  0  0
  150.1618  138.6006  152.5998 H   0  0  0  0  0  0  0  0  0  0  0  0
  1  2  1  0  0  0  0
  1 19  1  0  0  0  0
  1 20  1  0  0  0  0
  1 21  1  0  0  0  0
  2  3  1  0  0  0  0
  3  8  1  0  0  0  0
  3  4  1  0  0  0  0
  3 22  1  0  0  0  0
  4  5  1  0  0  0  0
  4 23  1  0  0  0  0
  4 24  1  0  0  0  0
  5  6  1  0  0  0  0
  5 25  1  0  0  0  0
  5 26  1  0  0  0  0
  6  7  1  0  0  0  0
  6 27  1  0  0  0  0
  6 28  1  0  0  0  0
  7  8  1  0  0  0  0
  7 29  1  0  0  0  0
  7 30  1  0  0  0  0
  8  9  1  0  0  0  0
  8 31  1  0  0  0  0
  9 10  1  0  0  0  0
 10 11  2  0  0  0  0
 10 12  2  0  0  0  0
 10 13  1  0  0  0  0
 13 14  1  0  0  0  0
 13 32  1  0  0  0  0
 13 33  1  0  0  0  0
 14 18  2  0  0  0  0
 14 15  1  0  0  0  0
 15 16  2  0  0  0  0
 15 34  1  0  0  0  0
 16 17  1  0  0  0  0
 16 35  1  0  0  0  0
 17 18  1  0  0  0  0
M  CHG  1   9  -1
M  END
> <s_m_source_file>
AV-unprocessed.smi

> <i_m_source_file_index>
2889

> <i_lp_mmshare_version>
43012

> <i_f3d_flags>
0

> <s_epik_input>
W0NIM11TW0NAQEhdMVtDSDJdW0NIMl1bQ0gyXVtDSDJdW0NASF0xW05IXVMoPU8pKD1PKVtDSDJdYzJbY0hdW2NIXW9uMg==

> <s_epik_cmdline>
J2VwaWtfcHl0aG9uJywgJy1waCcsICc3LjAnLCAnLXRuJywgJzgnLCAnLW1hJywgJzIwMCcsICctbWV0YWxfYmluZGluZycsICctaW1hZScsICc8aW5maWxlLm1hZT4nLCAnLW9tYWUnLCAnPG91dGZpbGUubWFlPic=

> <r_lp_tautomer_probability>
1

> <r_epik_Ionization_Penalty>
4.65467

> <r_epik_Ionization_Penalty_Charging>
4.65467

> <r_epik_Ionization_Penalty_Neutral>
2.71476e-10

> <r_epik_State_Penalty>
4.65444

> <r_epik_Charging_Adjusted_Penalty>
9.30911

> <i_epik_Tot_Q>
-1

> <i_epik_Tot_abs_Q>
1

> <r_epik_Metal_State_Penalty>
0.901484

> <b_epik_Metal_Only>
1

> <s_lp_Force_Field>
OPLS_2005

> <r_lp_Energy>
9.1096

> <b_lp_Chiralities_Consistent>
1

> <s_lp_Variant>
AV-unprocessed.smi:2889-8

> <Gold.Version>
5.8.1

> <Gold.Id.Protein>
6NUR|6NUR_protein|mol2

> <Gold.PLP.Fitness>
47.4391

> <Gold.PLP.PLP>
-37.4649

> <Gold.PLP.part.hbond>
-2.0000

> <Gold.PLP.part.metal>
0.0000

> <Gold.PLP.part.buried>
-5.0159

> <Gold.PLP.part.nonpolar>
-30.8577

> <Gold.PLP.part.repulsive>
0.2060

> <Gold.PLP.ligand.clash>
0.0000

> <Gold.PLP.ligand.torsion>
1.2474

> <Gold.PLP.Chemscore.Hbond>
2.0000

> <Gold.PLP.Chemscore.CHOScore>
1.8184

> <Gold.PLP.Chemscore.Metal>
0.0000

> <Gold.Chemscore.Hbonds>
donor molecule, donor type, donor heavy atom, donor atom, acceptor molecule, acceptor atom, score
      P1  H  7989  7998       L1    17  0.71
      P1  H  7997  8008       L1    11  1.00
      L1  C    16    35       P1  7948  0.40
      L1  C    16    35       P1  7957  0.81

> <Gold.PLP.Chemscore.Internal.Correction>
1.0139

> <Gold.Rescore>
     Score         DG    S(hbond)    S(metal)    S(lipo)     H(rot)  DE(clash)    DE(int)     intcor
     18.34     -21.09       1.95        0.00     111.26       1.53       0.08       2.67       ----

> <Gold.Chemscore.Fitness>
18.3433

> <Gold.Chemscore.DG>
-21.0938

> <Gold.Chemscore.ZeroCoef>
-5.4800

> <Gold.Chemscore.Hbond>
1.9511

> <Gold.Chemscore.Metal>
0.0000

> <Gold.Chemscore.Lipo>
111.2615

> <Gold.Chemscore.Internal_Hbond>
0.0000

> <Gold.Chemscore.DEClash>
0.0784

> <Gold.Chemscore.DEInternal>
2.6721

> <Gold.Chemscore.Rot>
1.5314

> <Gold.Chemscore.Internal.Correction>
   9.000000E+99

> <Gold.Chemscore.Hbonds>
donor molecule, donor type, donor heavy atom, donor atom, acceptor molecule, acceptor atom, score
      P1  H  7989  7998       L1    17  0.42
      P1  H  7997  8008       L1    11  0.98

> <Gold.Chemscore.Hbond.Weighted>
-6.5166

> <Gold.Chemscore.Metal.Weighted>
-0.0000

> <Gold.Chemscore.Lipo.Weighted>
-13.0176

> <Gold.Chemscore.Internal_Hbond.Weighted>
0.0000

> <Gold.Chemscore.DEClash.Weighted>
0.0784

> <Gold.Chemscore.DEInternal.Weighted>
2.6721

> <Gold.Chemscore.Rot.Weighted>
3.9205

> <Gold.Chemscore.Internal.Correction.Weighted>
   9.000000E+99

> <Gold.Protein.RotatedTorsions>
[ 6907 6896 6895 6894 ] final  -34.02 input  -60.11 | X-H torsion
[ 7974 7965 7964 7962 ] final -129.02 input  175.53 | X-H torsion
[ 8008 7997 7996 7995 ] final  -43.05 input   59.86 | X-H torsion
[ 10167 10162 10161 10158 ] final -135.48 input  -65.29 | X-H torsion
[ 10718 10713 10712 10709 ] final  -37.65 input   66.30 | X-H torsion
[ 10763 10752 10751 10750 ] final -171.05 input  -60.55 | X-H torsion
[ 11005 11000 10999 10996 ] final  -54.02 input  -57.11 | X-H torsion

> <Gold.Protein.ActiveResidues>
 VAL166  LYS551  ARG553  GLY616  TRP617  ASP618  TYR619  PRO620  LYS621  CYS622 
 ASP623  PHE694  ASN695  SER759  ASP760  ASP761  ALA762  ILE779  LEU786  VAL792 
 PHE793  MET794  SER795  GLU796  ALA797  LYS798  CYS799  TRP800  GLU811  SER814 

> <Gold.Protein.RotatedAtoms>
  151.0580  134.9717  159.8245 H   0  0  0  0  0  0  0  0  0  0  0  0  # atno 6907 bound_to 6896
  152.5391  134.2454  159.8888 H   0  0  0  0  0  0  0  0  0  0  0  0  # atno 6908 bound_to 6896
  151.2472  133.4325  159.2643 H   0  0  0  0  0  0  0  0  0  0  0  0  # atno 6909 bound_to 6896
  144.9612  140.7449  143.4727 H   0  0  0  0  0  0  0  0  0  0  0  0  # atno 7974 bound_to 7965
  154.3997  140.1457  156.3456 H   0  0  0  0  0  0  0  0  0  0  0  0  # atno 8008 bound_to 7997
  155.8316  140.3465  155.5555 H   0  0  0  0  0  0  0  0  0  0  0  0  # atno 8009 bound_to 7997
  155.8182  140.0894  157.1855 H   0  0  0  0  0  0  0  0  0  0  0  0  # atno 8010 bound_to 7997
  139.8774  143.6881  152.2632 H   0  0  0  0  0  0  0  0  0  0  0  0  # atno 10167 bound_to 10162
  156.3128  130.4255  149.8034 H   0  0  0  0  0  0  0  0  0  0  0  0  # atno 10718 bound_to 10713
  154.6348  135.2891  155.0174 H   0  0  0  0  0  0  0  0  0  0  0  0  # atno 10763 bound_to 10752
  154.1321  135.6532  153.4928 H   0  0  0  0  0  0  0  0  0  0  0  0  # atno 10764 bound_to 10752
  153.0297  135.5313  154.7190 H   0  0  0  0  0  0  0  0  0  0  0  0  # atno 10765 bound_to 10752
  141.1005  133.6618  156.4259 H   0  0  0  0  0  0  0  0  0  0  0  0  # atno 11005 bound_to 11000
  145.2696  139.1960  143.4848 LP  0  0  0  0  0  0  0  0  0  0  0  0  # atno 17320 bound_to 7965
  146.3354  140.2640  142.8603 LP  0  0  0  0  0  0  0  0  0  0  0  0  # atno 17321 bound_to 7965
  139.7227  144.7599  151.0929 LP  0  0  0  0  0  0  0  0  0  0  0  0  # atno 17342 bound_to 10162
  140.7750  143.5187  150.9563 LP  0  0  0  0  0  0  0  0  0  0  0  0  # atno 17343 bound_to 10162
  156.5371  130.8283  151.3256 LP  0  0  0  0  0  0  0  0  0  0  0  0  # atno 17370 bound_to 10713
  157.7395  130.9832  150.2316 LP  0  0  0  0  0  0  0  0  0  0  0  0  # atno 17371 bound_to 10713
  140.5033  134.6464  157.5257 LP  0  0  0  0  0  0  0  0  0  0  0  0  # atno 17394 bound_to 11000
  139.9855  134.7068  155.9782 LP  0  0  0  0  0  0  0  0  0  0  0  0  # atno 17395 bound_to 11000

$$$$
