AV-unprocessed.smi:1374|AV-procd|sdf|5588|dock10
  -GOLD-   22720 5193D 1   1.00000     0.00000
 Structure written by MMmdl.
 42 43  0  0  0  0  0  0  0  0  2 V2000
  152.0039  145.2617  158.8470 C   0  0  0  0  0  0  0  0  0  0  0  0
  152.3193  144.5227  160.1517 C   0  0  0  0  0  0  0  0  0  0  0  0
  151.9520  143.0308  160.0884 C   0  0  0  0  0  0  0  0  0  0  0  0
  152.7205  142.2262  159.0171 C   0  0  0  0  0  0  0  0  0  0  0  0
  152.7535  140.7730  159.3011 N   0  0  0  0  0  0  0  0  0  0  0  0
  151.8537  139.9199  158.6071 C   0  0  0  0  0  0  0  0  0  0  0  0
  150.9617  140.4752  157.7007 N   0  0  0  0  0  0  0  0  0  0  0  0
  151.9034  138.5746  158.8012 C   0  0  0  0  0  0  0  0  0  0  0  0
  151.0366  137.6878  158.1255 N   0  0  0  0  0  0  0  0  0  0  0  0
  149.6046  137.8310  158.4108 C   0  0  0  0  0  0  0  0  0  0  0  0
  151.4478  136.6928  157.2852 C   0  0  0  0  0  0  0  0  0  0  0  0
  152.6104  136.6499  156.8751 O   0  0  0  0  0  0  0  0  0  0  0  0
  150.4617  135.6658  156.9338 C   0  0  0  0  0  0  0  0  0  0  0  0
  150.3741  135.2609  155.6461 C   0  0  0  0  0  0  0  0  0  0  0  0
  149.5246  134.2747  155.2100 O   0  0  0  0  0  0  0  0  0  0  0  0
  148.8968  133.5258  156.2445 C   0  0  0  0  0  0  0  0  0  0  0  0
  148.4960  134.4425  157.4089 C   0  0  0  0  0  0  0  0  0  0  0  0
  149.6426  135.1250  157.8997 O   0  0  0  0  0  0  0  0  0  0  0  0
  152.8537  138.0360  159.7841 C   0  0  0  0  0  0  0  0  0  0  0  0
  152.8849  136.8280  160.0202 O   0  0  0  0  0  0  0  0  0  0  0  0
  153.6777  138.9136  160.4134 N   0  5  0  0  0  0  0  0  0  0  0  0
  153.6570  140.2585  160.1924 C   0  0  0  0  0  0  0  0  0  0  0  0
  154.4366  141.0167  160.7706 O   0  0  0  0  0  0  0  0  0  0  0  0
  152.2834  146.3127  158.9202 H   0  0  0  0  0  0  0  0  0  0  0  0
  150.9398  145.2146  158.6145 H   0  0  0  0  0  0  0  0  0  0  0  0
  152.5514  144.8299  158.0086 H   0  0  0  0  0  0  0  0  0  0  0  0
  153.3817  144.6353  160.3685 H   0  0  0  0  0  0  0  0  0  0  0  0
  151.7831  144.9970  160.9741 H   0  0  0  0  0  0  0  0  0  0  0  0
  152.1450  142.5779  161.0614 H   0  0  0  0  0  0  0  0  0  0  0  0
  150.8785  142.9362  159.9253 H   0  0  0  0  0  0  0  0  0  0  0  0
  152.2941  142.4430  158.0369 H   0  0  0  0  0  0  0  0  0  0  0  0
  153.7388  142.6075  158.9358 H   0  0  0  0  0  0  0  0  0  0  0  0
  150.9366  141.4687  157.5227 H   0  0  0  0  0  0  0  0  0  0  0  0
  150.2309  139.9246  157.2738 H   0  0  0  0  0  0  0  0  0  0  0  0
  149.0443  138.0170  157.4936 H   0  0  0  0  0  0  0  0  0  0  0  0
  149.4040  138.6584  159.0929 H   0  0  0  0  0  0  0  0  0  0  0  0
  149.2112  136.9267  158.8776 H   0  0  0  0  0  0  0  0  0  0  0  0
  150.9787  135.6493  154.8389 H   0  0  0  0  0  0  0  0  0  0  0  0
  148.0207  133.0205  155.8378 H   0  0  0  0  0  0  0  0  0  0  0  0
  149.5826  132.7514  156.5906 H   0  0  0  0  0  0  0  0  0  0  0  0
  147.7517  135.1728  157.0878 H   0  0  0  0  0  0  0  0  0  0  0  0
  148.0507  133.8645  158.2188 H   0  0  0  0  0  0  0  0  0  0  0  0
  1  2  1  0  0  0  0
  1 24  1  0  0  0  0
  1 25  1  0  0  0  0
  1 26  1  0  0  0  0
  2  3  1  0  0  0  0
  2 27  1  0  0  0  0
  2 28  1  0  0  0  0
  3  4  1  0  0  0  0
  3 29  1  0  0  0  0
  3 30  1  0  0  0  0
  4  5  1  0  0  0  0
  4 31  1  0  0  0  0
  4 32  1  0  0  0  0
  5 22  1  0  0  0  0
  5  6  1  0  0  0  0
  6  7  1  0  0  0  0
  6  8  2  0  0  0  0
  7 33  1  0  0  0  0
  7 34  1  0  0  0  0
  8  9  1  0  0  0  0
  8 19  1  0  0  0  0
  9 10  1  0  0  0  0
  9 11  1  0  0  0  0
 10 35  1  0  0  0  0
 10 36  1  0  0  0  0
 10 37  1  0  0  0  0
 11 12  2  0  0  0  0
 11 13  1  0  0  0  0
 13 18  1  0  0  0  0
 13 14  2  0  0  0  0
 14 15  1  0  0  0  0
 14 38  1  0  0  0  0
 15 16  1  0  0  0  0
 16 17  1  0  0  0  0
 16 39  1  0  0  0  0
 16 40  1  0  0  0  0
 17 18  1  0  0  0  0
 17 41  1  0  0  0  0
 17 42  1  0  0  0  0
 19 20  2  0  0  0  0
 19 21  1  0  0  0  0
 21 22  1  0  0  0  0
 22 23  2  0  0  0  0
M  CHG  1  21  -1
M  END
> <s_m_source_file>
AV-unprocessed.smi

> <i_m_source_file_index>
1374

> <i_lp_mmshare_version>
43012

> <i_f3d_flags>
0

> <s_epik_input>
W0NIM11bQ0gyXVtDSDJdW0NIMl1uMWMoW05IMl0pYyhjKD1PKVtuSF1jMT1PKU4oW0NIM10pQyg9TylDMj1bQ0hdT1tDSDJdW0NIMl1PMg==

> <s_epik_cmdline>
J2VwaWtfcHl0aG9uJywgJy1waCcsICc3LjAnLCAnLXRuJywgJzgnLCAnLW1hJywgJzIwMCcsICctbWV0YWxfYmluZGluZycsICctaW1hZScsICc8aW5maWxlLm1hZT4nLCAnLW9tYWUnLCAnPG91dGZpbGUubWFlPic=

> <r_lp_tautomer_probability>
1

> <r_epik_Ionization_Penalty>
6.1831

> <r_epik_Ionization_Penalty_Charging>
0.183564

> <r_epik_Ionization_Penalty_Neutral>
5.99954

> <r_epik_State_Penalty>
5.99952

> <r_epik_Charging_Adjusted_Penalty>
6.18308

> <i_epik_Tot_Q>
-1

> <i_epik_Tot_abs_Q>
1

> <r_epik_Metal_State_Penalty>
1.93002

> <b_epik_Metal_Only>
1

> <s_epik_Chemistry_Notes>
This compound has an imine and may undergo hydrolysis.

> <s_lp_Force_Field>
OPLS_2005

> <r_lp_Energy>
38.087

> <b_lp_Chiralities_Consistent>
1

> <s_lp_Variant>
AV-unprocessed.smi:1374-2

> <Gold.Version>
5.8.1

> <Gold.Id.Protein>
6NUR|6NUR_protein|mol2

> <Gold.PLP.Fitness>
43.3219

> <Gold.PLP.PLP>
-36.0454

> <Gold.PLP.part.hbond>
-3.0000

> <Gold.PLP.part.metal>
0.0000

> <Gold.PLP.part.buried>
-7.2043

> <Gold.PLP.part.nonpolar>
-26.3096

> <Gold.PLP.part.repulsive>
0.1652

> <Gold.PLP.ligand.clash>
0.0000

> <Gold.PLP.ligand.torsion>
2.3999

> <Gold.PLP.Chemscore.Hbond>
2.8800

> <Gold.PLP.Chemscore.CHOScore>
0.0000

> <Gold.PLP.Chemscore.Metal>
0.0000

> <Gold.Chemscore.Hbonds>
donor molecule, donor type, donor heavy atom, donor atom, acceptor molecule, acceptor atom, score
      P1  H  6896  6907       L1    18  1.00
      P1  H  6896  6908       L1    20  1.00
      P1  H 10752 10764       L1    12  0.63

> <Gold.PLP.Chemscore.Internal.Correction>
3.4363

> <Gold.Rescore>
     Score         DG    S(hbond)    S(metal)    S(lipo)     H(rot)  DE(clash)    DE(int)     intcor
     15.63     -19.53       2.91        0.00      69.15       1.47       0.01       3.89       ----

> <Gold.Chemscore.Fitness>
15.6327

> <Gold.Chemscore.DG>
-19.5331

> <Gold.Chemscore.ZeroCoef>
-5.4800

> <Gold.Chemscore.Hbond>
2.9129

> <Gold.Chemscore.Metal>
0.0000

> <Gold.Chemscore.Lipo>
69.1538

> <Gold.Chemscore.Internal_Hbond>
0.0000

> <Gold.Chemscore.DEClash>
0.0073

> <Gold.Chemscore.DEInternal>
3.8931

> <Gold.Chemscore.Rot>
1.4715

> <Gold.Chemscore.Internal.Correction>
   9.000000E+99

> <Gold.Chemscore.Hbonds>
donor molecule, donor type, donor heavy atom, donor atom, acceptor molecule, acceptor atom, score
      P1  H  6896  6907       L1    18  0.78
      P1  H  6896  6908       L1    20  0.97
      P1  H 10752 10764       L1    12  0.64

> <Gold.Chemscore.Hbond.Weighted>
-9.7292

> <Gold.Chemscore.Metal.Weighted>
-0.0000

> <Gold.Chemscore.Lipo.Weighted>
-8.0910

> <Gold.Chemscore.Internal_Hbond.Weighted>
0.0000

> <Gold.Chemscore.DEClash.Weighted>
0.0073

> <Gold.Chemscore.DEInternal.Weighted>
3.8931

> <Gold.Chemscore.Rot.Weighted>
3.7671

> <Gold.Chemscore.Internal.Correction.Weighted>
   9.000000E+99

> <Gold.Protein.RotatedTorsions>
[ 6907 6896 6895 6894 ] final  -85.42 input  -60.11 | X-H torsion
[ 7974 7965 7964 7962 ] final  158.83 input  175.53 | X-H torsion
[ 8008 7997 7996 7995 ] final  -11.89 input   59.86 | X-H torsion
[ 10167 10162 10161 10158 ] final  176.12 input  -65.29 | X-H torsion
[ 10718 10713 10712 10709 ] final   55.11 input   66.30 | X-H torsion
[ 10763 10752 10751 10750 ] final  -10.46 input  -60.55 | X-H torsion
[ 11005 11000 10999 10996 ] final -108.46 input  -57.11 | X-H torsion

> <Gold.Protein.ActiveResidues>
 VAL166  LYS551  ARG553  GLY616  TRP617  ASP618  TYR619  PRO620  LYS621  CYS622 
 ASP623  PHE694  ASN695  SER759  ASP760  ASP761  ALA762  ILE779  LEU786  VAL792 
 PHE793  MET794  SER795  GLU796  ALA797  LYS798  CYS799  TRP800  GLU811  SER814 

> <Gold.Protein.RotatedAtoms>
  150.6870  134.3207  159.4785 H   0  0  0  0  0  0  0  0  0  0  0  0  # atno 6907 bound_to 6896
  152.1083  134.9290  160.0576 H   0  0  0  0  0  0  0  0  0  0  0  0  # atno 6908 bound_to 6896
  152.0543  133.3998  159.4427 H   0  0  0  0  0  0  0  0  0  0  0  0  # atno 6909 bound_to 6896
  144.7824  139.7533  143.6254 H   0  0  0  0  0  0  0  0  0  0  0  0  # atno 7974 bound_to 7965
  154.5425  140.2290  155.8617 H   0  0  0  0  0  0  0  0  0  0  0  0  # atno 8008 bound_to 7997
  156.1872  140.3086  155.9223 H   0  0  0  0  0  0  0  0  0  0  0  0  # atno 8009 bound_to 7997
  155.3229  140.0441  157.3030 H   0  0  0  0  0  0  0  0  0  0  0  0  # atno 8010 bound_to 7997
  139.5202  144.2952  152.0428 H   0  0  0  0  0  0  0  0  0  0  0  0  # atno 10167 bound_to 10162
  157.5317  130.8635  149.8696 H   0  0  0  0  0  0  0  0  0  0  0  0  # atno 10718 bound_to 10713
  153.4695  135.7016  153.6002 H   0  0  0  0  0  0  0  0  0  0  0  0  # atno 10763 bound_to 10752
  153.4262  135.3813  155.2142 H   0  0  0  0  0  0  0  0  0  0  0  0  # atno 10764 bound_to 10752
  154.8725  135.3939  154.4131 H   0  0  0  0  0  0  0  0  0  0  0  0  # atno 10765 bound_to 10752
  141.0900  133.9071  157.2096 H   0  0  0  0  0  0  0  0  0  0  0  0  # atno 11005 bound_to 11000
  146.2038  139.5350  142.9726 LP  0  0  0  0  0  0  0  0  0  0  0  0  # atno 17320 bound_to 7965
  145.6015  141.0354  143.2016 LP  0  0  0  0  0  0  0  0  0  0  0  0  # atno 17321 bound_to 7965
  140.2402  144.4277  150.6263 LP  0  0  0  0  0  0  0  0  0  0  0  0  # atno 17342 bound_to 10162
  140.6296  143.2185  151.6524 LP  0  0  0  0  0  0  0  0  0  0  0  0  # atno 17343 bound_to 10162
  156.0427  130.3735  150.1394 LP  0  0  0  0  0  0  0  0  0  0  0  0  # atno 17370 bound_to 10713
  156.9579  130.9795  151.3485 LP  0  0  0  0  0  0  0  0  0  0  0  0  # atno 17371 bound_to 10713
  139.9725  135.0124  156.9548 LP  0  0  0  0  0  0  0  0  0  0  0  0  # atno 17394 bound_to 11000
  140.5273  134.0848  155.7307 LP  0  0  0  0  0  0  0  0  0  0  0  0  # atno 17395 bound_to 11000

$$$$
