AV-unprocessed.smi:101|AV-procd|sdf|924|dock2
  -GOLD-   2262017433D 1   1.00000     0.00000
 Structure written by MMmdl.
 44 46  0  0  0  0  0  0  0  0  1 V2000
  143.7796  144.9166  154.1462 C   0  0  0  0  0  0  0  0  0  0  0  0
  144.4908  143.6594  154.6197 C   0  0  0  0  0  0  0  0  0  0  0  0
  145.4759  143.0646  153.8986 C   0  0  0  0  0  0  0  0  0  0  0  0
  146.1472  141.9162  154.3061 N   0  0  0  0  0  0  0  0  0  0  0  0
  147.2290  141.2503  153.4708 C   0  0  1  0  0  0  0  0  0  0  0  0
  148.4778  141.4449  154.0620 O   0  0  0  0  0  0  0  0  0  0  0  0
  148.7979  140.3169  154.8626 C   0  0  2  0  0  0  0  0  0  0  0  0
  150.3039  140.2775  155.1564 C   0  0  0  0  0  0  0  0  0  0  0  0
  150.5597  140.7712  156.4620 O   0  0  0  0  0  0  0  0  0  0  0  0
  151.7896  140.6648  156.9983 C   0  0  0  0  0  0  0  0  0  0  0  0
  152.6454  139.8757  156.5930 O   0  0  0  0  0  0  0  0  0  0  0  0
  152.0069  141.6041  158.1362 C   0  0  0  0  0  0  0  0  0  0  0  0
  152.9103  141.2498  159.1653 C   0  0  0  0  0  0  0  0  0  0  0  0
  153.1346  142.1162  160.2527 C   0  0  0  0  0  0  0  0  0  0  0  0
  152.4591  143.3484  160.3239 C   0  0  0  0  0  0  0  0  0  0  0  0
  151.5587  143.7132  159.3061 C   0  0  0  0  0  0  0  0  0  0  0  0
  151.3320  142.8474  158.2183 C   0  0  0  0  0  0  0  0  0  0  0  0
  148.2463  139.1329  154.0664 C   0  0  1  0  0  0  0  0  0  0  0  0
  147.8869  138.0828  154.9417 O   0  0  0  0  0  0  0  0  0  0  0  0
  147.0105  139.7184  153.3842 C   0  0  2  0  0  0  0  0  0  0  0  0
  146.9392  139.2770  152.0434 O   0  0  0  0  0  0  0  0  0  0  0  0
  145.7577  141.2885  155.5086 C   0  0  0  0  0  0  0  0  0  0  0  0
  146.2682  140.2425  155.9088 O   0  0  0  0  0  0  0  0  0  0  0  0
  144.7518  141.9017  156.2518 N   0  0  0  0  0  0  0  0  0  0  0  0
  144.0788  143.0723  155.8972 C   0  0  0  0  0  0  0  0  0  0  0  0
  143.2102  143.5230  156.6420 O   0  0  0  0  0  0  0  0  0  0  0  0
  144.4818  141.4590  157.1181 H   0  0  0  0  0  0  0  0  0  0  0  0
  144.1644  145.2647  153.1871 H   0  0  0  0  0  0  0  0  0  0  0  0
  143.9088  145.7224  154.8698 H   0  0  0  0  0  0  0  0  0  0  0  0
  142.7117  144.7290  154.0294 H   0  0  0  0  0  0  0  0  0  0  0  0
  145.7313  143.5226  152.9555 H   0  0  0  0  0  0  0  0  0  0  0  0
  147.1971  141.7700  152.5109 H   0  0  0  0  0  0  0  0  0  0  0  0
  148.2550  140.4068  155.8050 H   0  0  0  0  0  0  0  0  0  0  0  0
  150.6726  139.2546  155.0697 H   0  0  0  0  0  0  0  0  0  0  0  0
  150.8408  140.8822  154.4244 H   0  0  0  0  0  0  0  0  0  0  0  0
  153.4413  140.3093  159.1320 H   0  0  0  0  0  0  0  0  0  0  0  0
  153.8261  141.8347  161.0330 H   0  0  0  0  0  0  0  0  0  0  0  0
  152.6316  144.0128  161.1577 H   0  0  0  0  0  0  0  0  0  0  0  0
  151.0399  144.6590  159.3592 H   0  0  0  0  0  0  0  0  0  0  0  0
  150.6342  143.1584  157.4545 H   0  0  0  0  0  0  0  0  0  0  0  0
  148.9706  138.7818  153.3297 H   0  0  0  0  0  0  0  0  0  0  0  0
  148.3826  137.3140  154.7036 H   0  0  0  0  0  0  0  0  0  0  0  0
  146.0975  139.4367  153.9113 H   0  0  0  0  0  0  0  0  0  0  0  0
  147.6792  139.6316  151.5741 H   0  0  0  0  0  0  0  0  0  0  0  0
  1  2  1  0  0  0  0
  1 28  1  0  0  0  0
  1 29  1  0  0  0  0
  1 30  1  0  0  0  0
  2 25  1  0  0  0  0
  2  3  2  0  0  0  0
  3  4  1  0  0  0  0
  3 31  1  0  0  0  0
  4  5  1  0  0  0  0
  4 22  1  0  0  0  0
  5 20  1  0  0  0  0
  5  6  1  0  0  0  0
  5 32  1  0  0  0  0
  6  7  1  0  0  0  0
  7  8  1  0  0  0  0
  7 18  1  0  0  0  0
  7 33  1  0  0  0  0
  8  9  1  0  0  0  0
  8 34  1  0  0  0  0
  8 35  1  0  0  0  0
  9 10  1  0  0  0  0
 10 11  2  0  0  0  0
 10 12  1  0  0  0  0
 12 17  1  0  0  0  0
 12 13  2  0  0  0  0
 13 14  1  0  0  0  0
 13 36  1  0  0  0  0
 14 15  2  0  0  0  0
 14 37  1  0  0  0  0
 15 16  1  0  0  0  0
 15 38  1  0  0  0  0
 16 17  2  0  0  0  0
 16 39  1  0  0  0  0
 17 40  1  0  0  0  0
 18 19  1  0  0  0  0
 18 20  1  0  0  0  0
 18 41  1  0  0  0  0
 19 42  1  0  0  0  0
 20 21  1  0  0  0  0
 20 43  1  0  0  0  0
 21 44  1  0  0  0  0
 22 23  2  0  0  0  0
 22 24  1  0  0  0  0
 24 27  1  0  0  0  0
 24 25  1  0  0  0  0
 25 26  2  0  0  0  0
M  END
> <s_m_source_file>
AV-unprocessed.smi

> <i_m_source_file_index>
101

> <i_lp_mmshare_version>
43012

> <i_f3d_flags>
0

> <s_epik_input>
Tz1jMVtuSF1jKD1PKW4oW2NIXWMxW0NIM10pW0NAQEhdMk9bQ0BIXShbQ0BASF0oW09IXSlbQ0BIXTJbT0hdKVtDSDJdT0MoPU8pYzNbY0hdW2NIXVtjSF1bY0hdW2NIXTM=

> <s_epik_cmdline>
J2VwaWtfcHl0aG9uJywgJy1waCcsICc3LjAnLCAnLXRuJywgJzgnLCAnLW1hJywgJzIwMCcsICctbWV0YWxfYmluZGluZycsICctaW1hZScsICc8aW5maWxlLm1hZT4nLCAnLW9tYWUnLCAnPG91dGZpbGUubWFlPic=

> <r_lp_tautomer_probability>
0.999537

> <r_epik_Ionization_Penalty>
0.00263537

> <r_epik_Ionization_Penalty_Charging>
0.00263428

> <r_epik_Ionization_Penalty_Neutral>
1.09111e-06

> <r_epik_State_Penalty>
0.00183335

> <r_epik_Charging_Adjusted_Penalty>
0.00446763

> <i_epik_Tot_Q>
0

> <i_epik_Tot_abs_Q>
0

> <r_epik_Metal_State_Penalty>
1.00528

> <b_epik_Metal_Only>
0

> <s_epik_Chemistry_Notes>
This compound has an ester and may undergo hydrolysis at high or low pH. This compound contains an acetal/aminal-like group ( X-CH(R)-Y where X, Y are N, S, or O) that may be acid/base labile, releasing an aldehyde.

> <s_lp_Force_Field>
OPLS_2005

> <r_lp_Energy>
29.5421

> <b_lp_Chiralities_Consistent>
1

> <s_lp_Variant>
AV-unprocessed.smi:101-12

> <Gold.Version>
5.8.1

> <Gold.Id.Protein>
6NUR|6NUR_protein|mol2

> <Gold.PLP.Fitness>
51.9877

> <Gold.PLP.PLP>
-49.8707

> <Gold.PLP.part.hbond>
-3.0000

> <Gold.PLP.part.metal>
0.0000

> <Gold.PLP.part.buried>
-7.0848

> <Gold.PLP.part.nonpolar>
-39.0946

> <Gold.PLP.part.repulsive>
0.5086

> <Gold.PLP.ligand.clash>
2.8157

> <Gold.PLP.ligand.torsion>
1.5289

> <Gold.PLP.Chemscore.Hbond>
2.6178

> <Gold.PLP.Chemscore.CHOScore>
0.0000

> <Gold.PLP.Chemscore.Metal>
0.0000

> <Gold.Chemscore.Hbonds>
donor molecule, donor type, donor heavy atom, donor atom, acceptor molecule, acceptor atom, score
      L1  H    21    44       P1  7957  1.00
      P1  H  7997  8008       L1    11  1.00
      P1  H  8011  8017       L1     6  0.09

> <Gold.PLP.Chemscore.Internal.Correction>
0.1372

> <Gold.Rescore>
     Score         DG    S(hbond)    S(metal)    S(lipo)     H(rot)  DE(clash)    DE(int)     intcor
      9.47     -16.94       2.06        0.00     111.62       3.32       0.52       6.95       ----

> <Gold.Chemscore.Fitness>
9.4686

> <Gold.Chemscore.DG>
-16.9410

> <Gold.Chemscore.ZeroCoef>
-5.4800

> <Gold.Chemscore.Hbond>
2.0638

> <Gold.Chemscore.Metal>
0.0000

> <Gold.Chemscore.Lipo>
111.6246

> <Gold.Chemscore.Internal_Hbond>
0.0000

> <Gold.Chemscore.DEClash>
0.5215

> <Gold.Chemscore.DEInternal>
6.9509

> <Gold.Chemscore.Rot>
3.3172

> <Gold.Chemscore.Internal.Correction>
   9.000000E+99

> <Gold.Chemscore.Hbonds>
donor molecule, donor type, donor heavy atom, donor atom, acceptor molecule, acceptor atom, score
      L1  H    21    44       P1  7957  0.97
      P1  H  7997  8008       L1    11  1.00
      P1  H  8011  8017       L1     6  0.05

> <Gold.Chemscore.Hbond.Weighted>
-6.8930

> <Gold.Chemscore.Metal.Weighted>
-0.0000

> <Gold.Chemscore.Lipo.Weighted>
-13.0601

> <Gold.Chemscore.Internal_Hbond.Weighted>
0.0000

> <Gold.Chemscore.DEClash.Weighted>
0.5215

> <Gold.Chemscore.DEInternal.Weighted>
6.9509

> <Gold.Chemscore.Rot.Weighted>
8.4920

> <Gold.Chemscore.Internal.Correction.Weighted>
   9.000000E+99

> <Gold.Protein.RotatedTorsions>
[ 6907 6896 6895 6894 ] final -154.17 input  -60.11 | X-H torsion
[ 7974 7965 7964 7962 ] final   72.02 input  175.53 | X-H torsion
[ 8008 7997 7996 7995 ] final  -56.18 input   59.86 | X-H torsion
[ 10167 10162 10161 10158 ] final   45.54 input  -65.29 | X-H torsion
[ 10718 10713 10712 10709 ] final    6.45 input   66.30 | X-H torsion
[ 10763 10752 10751 10750 ] final   17.47 input  -60.55 | X-H torsion
[ 11005 11000 10999 10996 ] final  107.81 input  -57.11 | X-H torsion

> <Gold.Protein.ActiveResidues>
 VAL166  LYS551  ARG553  GLY616  TRP617  ASP618  TYR619  PRO620  LYS621  CYS622 
 ASP623  PHE694  ASN695  SER759  ASP760  ASP761  ALA762  ILE779  LEU786  VAL792 
 PHE793  MET794  SER795  GLU796  ALA797  LYS798  CYS799  TRP800  GLU811  SER814 

> <Gold.Protein.RotatedAtoms>
  151.2534  133.4338  159.2612 H   0  0  0  0  0  0  0  0  0  0  0  0  # atno 6907 bound_to 6896
  151.0596  134.9728  159.8264 H   0  0  0  0  0  0  0  0  0  0  0  0  # atno 6908 bound_to 6896
  152.5396  134.2485  159.8942 H   0  0  0  0  0  0  0  0  0  0  0  0  # atno 6909 bound_to 6896
  145.7585  139.2790  143.1390 H   0  0  0  0  0  0  0  0  0  0  0  0  # atno 7974 bound_to 7965
  154.4221  140.1136  156.5595 H   0  0  0  0  0  0  0  0  0  0  0  0  # atno 8008 bound_to 7997
  155.6326  140.3496  155.4669 H   0  0  0  0  0  0  0  0  0  0  0  0  # atno 8009 bound_to 7997
  155.9936  140.1184  157.0604 H   0  0  0  0  0  0  0  0  0  0  0  0  # atno 8010 bound_to 7997
  140.3231  144.2680  150.6179 H   0  0  0  0  0  0  0  0  0  0  0  0  # atno 10167 bound_to 10162
  156.9224  130.5796  149.5648 H   0  0  0  0  0  0  0  0  0  0  0  0  # atno 10718 bound_to 10713
  153.1336  135.6745  153.9139 H   0  0  0  0  0  0  0  0  0  0  0  0  # atno 10763 bound_to 10752
  153.8618  135.3080  155.3439 H   0  0  0  0  0  0  0  0  0  0  0  0  # atno 10764 bound_to 10752
  154.7728  135.4930  153.9766 H   0  0  0  0  0  0  0  0  0  0  0  0  # atno 10765 bound_to 10752
  139.8834  134.9412  156.5876 H   0  0  0  0  0  0  0  0  0  0  0  0  # atno 11005 bound_to 11000
  146.0287  140.8279  142.9887 LP  0  0  0  0  0  0  0  0  0  0  0  0  # atno 17320 bound_to 7965
  144.6835  140.2736  143.7302 LP  0  0  0  0  0  0  0  0  0  0  0  0  # atno 17321 bound_to 7965
  140.5465  143.2214  151.7998 LP  0  0  0  0  0  0  0  0  0  0  0  0  # atno 17342 bound_to 10162
  139.4870  144.4532  151.9629 LP  0  0  0  0  0  0  0  0  0  0  0  0  # atno 17343 bound_to 10162
  156.0485  130.5558  150.8935 LP  0  0  0  0  0  0  0  0  0  0  0  0  # atno 17370 bound_to 10713
  157.5899  131.0944  150.9136 LP  0  0  0  0  0  0  0  0  0  0  0  0  # atno 17371 bound_to 10713
  140.7980  133.8528  155.8702 LP  0  0  0  0  0  0  0  0  0  0  0  0  # atno 17394 bound_to 11000
  140.9618  134.1645  157.4648 LP  0  0  0  0  0  0  0  0  0  0  0  0  # atno 17395 bound_to 11000

$$$$
