AV-unprocessed.smi:484|AV-procd|sdf|2689|dock7
  -GOLD-   2262023123D 1   1.00000     0.00000
 Structure written by MMmdl.
 47 49  0  0  0  0  0  0  0  0  2 V2000
  147.4242  136.0037  162.7824 C   0  0  0  0  0  0  0  0  0  0  0  0
  147.6375  134.6103  162.1808 C   0  0  0  0  0  0  0  0  0  0  0  0
  147.6410  134.6336  160.6641 C   0  0  0  0  0  0  0  0  0  0  0  0
  147.7460  133.4318  159.9360 C   0  0  0  0  0  0  0  0  0  0  0  0
  147.7475  133.4561  158.5282 C   0  0  0  0  0  0  0  0  0  0  0  0
  147.6459  134.6746  157.8265 C   0  0  0  0  0  0  0  0  0  0  0  0
  147.6584  134.6054  156.4501 O   0  0  0  0  0  0  0  0  0  0  0  0
  147.1286  135.7008  155.7138 C   0  0  0  0  0  0  0  0  0  0  0  0
  146.1031  135.1898  154.6893 C   0  0  2  0  0  0  0  0  0  0  0  0
  145.3155  134.1793  155.2861 O   0  0  0  0  0  0  0  0  0  0  0  0
  146.7377  134.7184  153.3646 C   0  0  0  0  0  0  0  0  0  0  0  0
  145.8736  134.9662  152.1998 N   0  0  0  0  0  0  0  0  0  0  0  0
  145.4861  136.1449  151.6338 C   0  0  0  0  0  0  0  0  0  0  0  0
  145.8721  137.5167  152.0883 C   0  0  0  0  0  0  0  0  0  0  0  0
  146.3962  138.3217  151.0527 O   0  0  0  0  0  0  0  0  0  0  0  0
  144.6853  135.8374  150.5734 N   0  3  0  0  0  0  0  0  0  0  0  0
  144.5571  134.4528  150.4618 C   0  0  0  0  0  0  0  0  0  0  0  0
  143.8497  133.6743  149.5507 C   0  0  0  0  0  0  0  0  0  0  0  0
  143.9293  132.2762  149.7172 C   0  0  0  0  0  0  0  0  0  0  0  0
  144.6887  131.7031  150.7579 C   0  0  0  0  0  0  0  0  0  0  0  0
  145.4010  132.5029  151.6756 C   0  0  0  0  0  0  0  0  0  0  0  0
  145.3189  133.8849  151.5036 C   0  0  0  0  0  0  0  0  0  0  0  0
  147.5384  135.8806  158.5643 C   0  0  0  0  0  0  0  0  0  0  0  0
  147.5356  135.8570  159.9725 C   0  0  0  0  0  0  0  0  0  0  0  0
  147.4269  135.9607  163.8716 H   0  0  0  0  0  0  0  0  0  0  0  0
  146.4693  136.4261  162.4682 H   0  0  0  0  0  0  0  0  0  0  0  0
  148.2130  136.6907  162.4743 H   0  0  0  0  0  0  0  0  0  0  0  0
  148.5818  134.1952  162.5356 H   0  0  0  0  0  0  0  0  0  0  0  0
  146.8557  133.9337  162.5285 H   0  0  0  0  0  0  0  0  0  0  0  0
  147.8247  132.4875  160.4546 H   0  0  0  0  0  0  0  0  0  0  0  0
  147.8286  132.5286  157.9807 H   0  0  0  0  0  0  0  0  0  0  0  0
  146.6703  136.4361  156.3776 H   0  0  0  0  0  0  0  0  0  0  0  0
  147.9402  136.1959  155.1782 H   0  0  0  0  0  0  0  0  0  0  0  0
  145.4190  136.0102  154.4704 H   0  0  0  0  0  0  0  0  0  0  0  0
  145.4470  133.3761  154.8057 H   0  0  0  0  0  0  0  0  0  0  0  0
  147.6726  135.2528  153.1928 H   0  0  0  0  0  0  0  0  0  0  0  0
  146.9985  133.6606  153.3974 H   0  0  0  0  0  0  0  0  0  0  0  0
  144.9994  138.0140  152.5118 H   0  0  0  0  0  0  0  0  0  0  0  0
  146.6150  137.4331  152.8820 H   0  0  0  0  0  0  0  0  0  0  0  0
  145.6938  138.5442  150.4605 H   0  0  0  0  0  0  0  0  0  0  0  0
  143.2661  134.1119  148.7540 H   0  0  0  0  0  0  0  0  0  0  0  0
  143.3964  131.6306  149.0342 H   0  0  0  0  0  0  0  0  0  0  0  0
  144.7251  130.6278  150.8559 H   0  0  0  0  0  0  0  0  0  0  0  0
  145.9748  132.0514  152.4711 H   0  0  0  0  0  0  0  0  0  0  0  0
  147.4567  136.8385  158.0738 H   0  0  0  0  0  0  0  0  0  0  0  0
  147.4511  136.7838  160.5210 H   0  0  0  0  0  0  0  0  0  0  0  0
  144.2590  136.5321  149.9735 H   0  0  0  0  0  0  0  0  0  0  0  0
  1  2  1  0  0  0  0
  1 25  1  0  0  0  0
  1 26  1  0  0  0  0
  1 27  1  0  0  0  0
  2  3  1  0  0  0  0
  2 28  1  0  0  0  0
  2 29  1  0  0  0  0
  3 24  1  0  0  0  0
  3  4  2  0  0  0  0
  4  5  1  0  0  0  0
  4 30  1  0  0  0  0
  5  6  2  0  0  0  0
  5 31  1  0  0  0  0
  6  7  1  0  0  0  0
  6 23  1  0  0  0  0
  7  8  1  0  0  0  0
  8  9  1  0  0  0  0
  8 32  1  0  0  0  0
  8 33  1  0  0  0  0
  9 10  1  0  0  0  0
  9 11  1  0  0  0  0
  9 34  1  0  0  0  0
 10 35  1  0  0  0  0
 11 12  1  0  0  0  0
 11 36  1  0  0  0  0
 11 37  1  0  0  0  0
 12 22  1  0  0  0  0
 12 13  1  0  0  0  0
 13 14  1  0  0  0  0
 13 16  2  0  0  0  0
 14 15  1  0  0  0  0
 14 38  1  0  0  0  0
 14 39  1  0  0  0  0
 15 40  1  0  0  0  0
 16 17  1  0  0  0  0
 16 47  1  0  0  0  0
 17 22  2  0  0  0  0
 17 18  1  0  0  0  0
 18 19  2  0  0  0  0
 18 41  1  0  0  0  0
 19 20  1  0  0  0  0
 19 42  1  0  0  0  0
 20 21  2  0  0  0  0
 20 43  1  0  0  0  0
 21 22  1  0  0  0  0
 21 44  1  0  0  0  0
 23 24  2  0  0  0  0
 23 45  1  0  0  0  0
 24 46  1  0  0  0  0
M  CHG  1  16   1
M  END
> <s_m_source_file>
AV-unprocessed.smi

> <i_m_source_file_index>
484

> <i_lp_mmshare_version>
43012

> <i_f3d_flags>
0

> <s_epik_input>
W0NIM11bQ0gyXWMxW2NIXVtjSF1jKFtjSF1bY0hdMSlPW0NIMl1bQ0BIXShbT0hdKVtDSDJdbihjKG4yKVtDSDJdW09IXSljKGMyMylbY0hdW2NIXVtjSF1bY0hdMw==

> <s_epik_cmdline>
J2VwaWtfcHl0aG9uJywgJy1waCcsICc3LjAnLCAnLXRuJywgJzgnLCAnLW1hJywgJzIwMCcsICctbWV0YWxfYmluZGluZycsICctaW1hZScsICc8aW5maWxlLm1hZT4nLCAnLW9tYWUnLCAnPG91dGZpbGUubWFlPic=

> <r_lp_tautomer_probability>
1

> <r_epik_Ionization_Penalty>
1.43166

> <r_epik_Ionization_Penalty_Charging>
1.43081

> <r_epik_Ionization_Penalty_Neutral>
0.000858184

> <r_epik_State_Penalty>
1.51538

> <r_epik_Charging_Adjusted_Penalty>
2.94618

> <i_epik_Tot_Q>
1

> <i_epik_Tot_abs_Q>
1

> <r_epik_Metal_State_Penalty>
5.56039

> <b_epik_Metal_Only>
0

> <s_lp_Force_Field>
OPLS_2005

> <r_lp_Energy>
18.7475

> <b_lp_Chiralities_Consistent>
1

> <s_lp_Variant>
AV-unprocessed.smi:484-3

> <Gold.Version>
5.8.1

> <Gold.Id.Protein>
6NUR|6NUR_protein|mol2

> <Gold.PLP.Fitness>
45.0419

> <Gold.PLP.PLP>
-39.0361

> <Gold.PLP.part.hbond>
-3.2720

> <Gold.PLP.part.metal>
0.0000

> <Gold.PLP.part.buried>
-2.0830

> <Gold.PLP.part.nonpolar>
-33.8259

> <Gold.PLP.part.repulsive>
0.0576

> <Gold.PLP.ligand.clash>
0.0000

> <Gold.PLP.ligand.torsion>
1.3918

> <Gold.PLP.Chemscore.Hbond>
2.8708

> <Gold.PLP.Chemscore.CHOScore>
0.0000

> <Gold.PLP.Chemscore.Metal>
0.0000

> <Gold.Chemscore.Hbonds>
donor molecule, donor type, donor heavy atom, donor atom, acceptor molecule, acceptor atom, score
      L1  H    15    40       P1 10171  1.00
      L1  H    16    47       P1 10171  0.79
      P1  H  7954  7966       L1    15  0.68

> <Gold.PLP.Chemscore.Internal.Correction>
0.1771

> <Gold.Rescore>
     Score         DG    S(hbond)    S(metal)    S(lipo)     H(rot)  DE(clash)    DE(int)     intcor
     14.62     -16.48       2.29        0.00      98.39       3.18       0.44       1.42       ----

> <Gold.Chemscore.Fitness>
14.6219

> <Gold.Chemscore.DG>
-16.4848

> <Gold.Chemscore.ZeroCoef>
-5.4800

> <Gold.Chemscore.Hbond>
2.2857

> <Gold.Chemscore.Metal>
0.0000

> <Gold.Chemscore.Lipo>
98.3883

> <Gold.Chemscore.Internal_Hbond>
0.0000

> <Gold.Chemscore.DEClash>
0.4389

> <Gold.Chemscore.DEInternal>
1.4240

> <Gold.Chemscore.Rot>
3.1801

> <Gold.Chemscore.Internal.Correction>
   9.000000E+99

> <Gold.Chemscore.Hbonds>
donor molecule, donor type, donor heavy atom, donor atom, acceptor molecule, acceptor atom, score
      L1  H    15    40       P1 10171  0.99
      L1  H    16    47       P1 10171  0.74
      P1  H  7954  7966       L1    15  0.42

> <Gold.Chemscore.Hbond.Weighted>
-7.6344

> <Gold.Chemscore.Metal.Weighted>
-0.0000

> <Gold.Chemscore.Lipo.Weighted>
-11.5114

> <Gold.Chemscore.Internal_Hbond.Weighted>
0.0000

> <Gold.Chemscore.DEClash.Weighted>
0.4389

> <Gold.Chemscore.DEInternal.Weighted>
1.4240

> <Gold.Chemscore.Rot.Weighted>
8.1410

> <Gold.Chemscore.Internal.Correction.Weighted>
   9.000000E+99

> <Gold.Protein.RotatedTorsions>
[ 6907 6896 6895 6894 ] final -160.30 input  -60.11 | X-H torsion
[ 7974 7965 7964 7962 ] final  -59.70 input  175.53 | X-H torsion
[ 8008 7997 7996 7995 ] final  -74.23 input   59.86 | X-H torsion
[ 10167 10162 10161 10158 ] final -176.25 input  -65.29 | X-H torsion
[ 10718 10713 10712 10709 ] final  -75.88 input   66.30 | X-H torsion
[ 10763 10752 10751 10750 ] final   73.03 input  -60.55 | X-H torsion
[ 11005 11000 10999 10996 ] final -151.38 input  -57.11 | X-H torsion

> <Gold.Protein.ActiveResidues>
 VAL166  LYS551  ARG553  GLY616  TRP617  ASP618  TYR619  PRO620  LYS621  CYS622 
 ASP623  PHE694  ASN695  SER759  ASP760  ASP761  ALA762  ILE779  LEU786  VAL792 
 PHE793  MET794  SER795  GLU796  ALA797  LYS798  CYS799  TRP800  GLU811  SER814 

> <Gold.Protein.RotatedAtoms>
  151.3469  133.3940  159.2676 H   0  0  0  0  0  0  0  0  0  0  0  0  # atno 6907 bound_to 6896
  150.9832  134.9184  159.7867 H   0  0  0  0  0  0  0  0  0  0  0  0  # atno 6908 bound_to 6896
  152.5224  134.3433  159.9277 H   0  0  0  0  0  0  0  0  0  0  0  0  # atno 6909 bound_to 6896
  145.8244  140.8520  143.0116 H   0  0  0  0  0  0  0  0  0  0  0  0  # atno 7974 bound_to 7965
  154.5313  140.0765  156.8350 H   0  0  0  0  0  0  0  0  0  0  0  0  # atno 8008 bound_to 7997
  155.3368  140.3405  155.4221 H   0  0  0  0  0  0  0  0  0  0  0  0  # atno 8009 bound_to 7997
  156.1784  140.1644  156.8306 H   0  0  0  0  0  0  0  0  0  0  0  0  # atno 8010 bound_to 7997
  139.5539  144.2039  152.1125 H   0  0  0  0  0  0  0  0  0  0  0  0  # atno 10167 bound_to 10162
  156.0193  130.4451  150.3109 H   0  0  0  0  0  0  0  0  0  0  0  0  # atno 10718 bound_to 10713
  153.0495  135.5078  154.7832 H   0  0  0  0  0  0  0  0  0  0  0  0  # atno 10763 bound_to 10752
  154.6705  135.2952  154.9750 H   0  0  0  0  0  0  0  0  0  0  0  0  # atno 10764 bound_to 10752
  154.0570  135.6696  153.4860 H   0  0  0  0  0  0  0  0  0  0  0  0  # atno 10765 bound_to 10752
  140.7302  134.3629  157.5168 H   0  0  0  0  0  0  0  0  0  0  0  0  # atno 11005 bound_to 11000
  144.6745  140.0580  143.7477 LP  0  0  0  0  0  0  0  0  0  0  0  0  # atno 17320 bound_to 7965
  145.9640  139.2821  143.1138 LP  0  0  0  0  0  0  0  0  0  0  0  0  # atno 17321 bound_to 7965
  140.1539  144.5089  150.6671 LP  0  0  0  0  0  0  0  0  0  0  0  0  # atno 17342 bound_to 10162
  140.6808  143.2326  151.5389 LP  0  0  0  0  0  0  0  0  0  0  0  0  # atno 17343 bound_to 10162
  157.1211  131.0247  151.3009 LP  0  0  0  0  0  0  0  0  0  0  0  0  # atno 17370 bound_to 10713
  157.4628  130.7663  149.7251 LP  0  0  0  0  0  0  0  0  0  0  0  0  # atno 17371 bound_to 10713
  139.8828  134.9013  156.2808 LP  0  0  0  0  0  0  0  0  0  0  0  0  # atno 17394 bound_to 11000
  140.9927  133.7198  156.0839 LP  0  0  0  0  0  0  0  0  0  0  0  0  # atno 17395 bound_to 11000

$$$$
