AV-unprocessed.smi:72|AV-procd|sdf|677|dock6
  -GOLD-   2262016583D 1   1.00000     0.00000
 Structure written by MMmdl.
 29 30  0  0  0  0  0  0  0  0  1 V2000
  154.3057  138.4080  154.7271 N   0  0  0  0  0  0  0  0  0  0  0  0
  153.0242  138.5068  154.7435 C   0  0  0  0  0  0  0  0  0  0  0  0
  152.1314  137.5587  154.2219 N   0  0  0  0  0  0  0  0  0  0  0  0
  150.8571  137.7875  154.3088 C   0  0  0  0  0  0  0  0  0  0  0  0
  150.3265  138.9934  154.9299 N   0  0  0  0  0  0  0  0  0  0  0  0
  148.8363  139.2651  155.0393 C   0  0  2  0  0  0  0  0  0  0  0  0
  148.1134  138.1477  154.6055 O   0  0  0  0  0  0  0  0  0  0  0  0
  147.4855  138.4215  153.3556 C   0  0  1  0  0  0  0  0  0  0  0  0
  146.2653  137.5060  153.1758 C   0  0  0  0  0  0  0  0  0  0  0  0
  146.6835  136.1647  153.0388 O   0  0  0  0  0  0  0  0  0  0  0  0
  147.1291  139.8994  153.5076 C   0  0  2  0  0  0  0  0  0  0  0  0
  146.8207  140.5280  152.2775 O   0  0  0  0  0  0  0  0  0  0  0  0
  148.3667  140.4725  154.1923 C   0  0  2  0  0  0  0  0  0  0  0  0
  149.3345  140.9253  153.2569 O   0  0  0  0  0  0  0  0  0  0  0  0
  151.2155  139.9626  155.4545 C   0  0  0  0  0  0  0  0  0  0  0  0
  150.8194  141.0060  155.9735 O   0  0  0  0  0  0  0  0  0  0  0  0
  152.5299  139.6746  155.3400 N   0  0  0  0  0  0  0  0  0  0  0  0
  148.6388  139.3864  156.1058 H   0  0  0  0  0  0  0  0  0  0  0  0
  148.1983  138.2977  152.5380 H   0  0  0  0  0  0  0  0  0  0  0  0
  146.2740  139.9994  154.1784 H   0  0  0  0  0  0  0  0  0  0  0  0
  148.1095  141.3029  154.8506 H   0  0  0  0  0  0  0  0  0  0  0  0
  154.5900  137.5464  154.2848 H   0  0  0  0  0  0  0  0  0  0  0  0
  150.1129  137.0918  153.9218 H   0  0  0  0  0  0  0  0  0  0  0  0
  145.5684  137.6045  154.0085 H   0  0  0  0  0  0  0  0  0  0  0  0
  145.7251  137.7736  152.2672 H   0  0  0  0  0  0  0  0  0  0  0  0
  147.5465  136.1571  152.6535 H   0  0  0  0  0  0  0  0  0  0  0  0
  147.5359  140.3796  151.6777 H   0  0  0  0  0  0  0  0  0  0  0  0
  149.4328  140.2675  152.5857 H   0  0  0  0  0  0  0  0  0  0  0  0
  153.1872  140.3480  155.7051 H   0  0  0  0  0  0  0  0  0  0  0  0
  1  2  2  0  0  0  0
  1 22  1  0  0  0  0
  2 17  1  0  0  0  0
  2  3  1  0  0  0  0
  3  4  2  0  0  0  0
  4  5  1  0  0  0  0
  4 23  1  0  0  0  0
  5  6  1  0  0  0  0
  5 15  1  0  0  0  0
  6 18  1  0  0  0  0
  6 13  1  0  0  0  0
  6  7  1  0  0  0  0
  7  8  1  0  0  0  0
  8 19  1  0  0  0  0
  8  9  1  0  0  0  0
  8 11  1  0  0  0  0
  9 10  1  0  0  0  0
  9 24  1  0  0  0  0
  9 25  1  0  0  0  0
 10 26  1  0  0  0  0
 11 20  1  0  0  0  0
 11 12  1  0  0  0  0
 11 13  1  0  0  0  0
 12 27  1  0  0  0  0
 13 21  1  0  0  0  0
 13 14  1  0  0  0  0
 14 28  1  0  0  0  0
 15 16  2  0  0  0  0
 15 17  1  0  0  0  0
 17 29  1  0  0  0  0
M  END
> <s_m_source_file>
AV-unprocessed.smi

> <i_m_source_file_index>
72

> <i_lp_mmshare_version>
43012

> <i_f3d_flags>
0

> <s_epik_input>
W05IMl1jMW5bY0hdbihjKD1PKW4xKVtDQEBIXTJPW0NASF0oW0NIMl1bT0hdKVtDQEBIXShbT0hdKVtDQEhdMltPSF0=

> <s_epik_cmdline>
J2VwaWtfcHl0aG9uJywgJy1waCcsICc3LjAnLCAnLXRuJywgJzgnLCAnLW1hJywgJzIwMCcsICctbWV0YWxfYmluZGluZycsICctaW1hZScsICc8aW5maWxlLm1hZT4nLCAnLW9tYWUnLCAnPG91dGZpbGUubWFlPic=

> <r_lp_tautomer_probability>
7.17554e-07

> <r_epik_Ionization_Penalty>
0.0066451

> <r_epik_Ionization_Penalty_Charging>
0.00663793

> <r_epik_Ionization_Penalty_Neutral>
7.17052e-06

> <r_epik_State_Penalty>
0.419231

> <r_epik_Charging_Adjusted_Penalty>
0.425868

> <i_epik_Tot_Q>
0

> <i_epik_Tot_abs_Q>
0

> <r_epik_Metal_State_Penalty>
1.44144

> <b_epik_Metal_Only>
0

> <s_epik_Chemistry_Notes>
This compound contains an acetal/aminal-like group ( X-CH(R)-Y where X, Y are N, S, or O) that may be acid/base labile, releasing an aldehyde.

> <s_lp_Force_Field>
OPLS_2005

> <r_lp_Energy>
48.3326

> <b_lp_Chiralities_Consistent>
1

> <s_lp_Variant>
AV-unprocessed.smi:72-15

> <Gold.Version>
5.8.1

> <Gold.Id.Protein>
6NUR|6NUR_protein|mol2

> <Gold.PLP.Fitness>
45.4580

> <Gold.PLP.PLP>
-27.7440

> <Gold.PLP.part.hbond>
-7.2119

> <Gold.PLP.part.metal>
0.0000

> <Gold.PLP.part.buried>
-3.6498

> <Gold.PLP.part.nonpolar>
-18.4975

> <Gold.PLP.part.repulsive>
1.0619

> <Gold.PLP.ligand.clash>
0.0000

> <Gold.PLP.ligand.torsion>
0.0950

> <Gold.PLP.Chemscore.Hbond>
4.9261

> <Gold.PLP.Chemscore.CHOScore>
1.0179

> <Gold.PLP.Chemscore.Metal>
0.0000

> <Gold.Chemscore.Hbonds>
donor molecule, donor type, donor heavy atom, donor atom, acceptor molecule, acceptor atom, score
      L1  H    10    26       P1  7948  1.00
      L1  H    12    27       P1  7957  0.76
      L1  H    14    28       P1  7957  0.73
      P1  H  7989  7998       L1    14  0.03
      P1  H  7997  8010       L1     1  0.58
      P1  H  8011  8017       L1    14  1.00
      P1  H 10752 10765       L1     3  0.83
      L1  C     4    23       P1  7948  1.00
      L1  C     4    23       P1  7949  0.02

> <Gold.PLP.Chemscore.Internal.Correction>
0.0718

> <Gold.Rescore>
     Score         DG    S(hbond)    S(metal)    S(lipo)     H(rot)  DE(clash)    DE(int)     intcor
      9.01      -9.86       3.62        0.00      22.98       4.06       0.65       0.20       ----

> <Gold.Chemscore.Fitness>
9.0087

> <Gold.Chemscore.DG>
-9.8571

> <Gold.Chemscore.ZeroCoef>
-5.4800

> <Gold.Chemscore.Hbond>
3.6172

> <Gold.Chemscore.Metal>
0.0000

> <Gold.Chemscore.Lipo>
22.9846

> <Gold.Chemscore.Internal_Hbond>
0.0000

> <Gold.Chemscore.DEClash>
0.6501

> <Gold.Chemscore.DEInternal>
0.1983

> <Gold.Chemscore.Rot>
4.0600

> <Gold.Chemscore.Internal.Correction>
   9.000000E+99

> <Gold.Chemscore.Hbonds>
donor molecule, donor type, donor heavy atom, donor atom, acceptor molecule, acceptor atom, score
      L1  H    10    26       P1  7948  0.99
      L1  H    12    27       P1  7957  0.76
      L1  H    14    28       P1  7957  0.68
      P1  H  7997  8010       L1     1  0.16
      P1  H  8011  8017       L1    14  0.26
      P1  H 10752 10765       L1     3  0.59

> <Gold.Chemscore.Hbond.Weighted>
-12.0815

> <Gold.Chemscore.Metal.Weighted>
-0.0000

> <Gold.Chemscore.Lipo.Weighted>
-2.6892

> <Gold.Chemscore.Internal_Hbond.Weighted>
0.0000

> <Gold.Chemscore.DEClash.Weighted>
0.6501

> <Gold.Chemscore.DEInternal.Weighted>
0.1983

> <Gold.Chemscore.Rot.Weighted>
10.3936

> <Gold.Chemscore.Internal.Correction.Weighted>
   9.000000E+99

> <Gold.Protein.RotatedTorsions>
[ 6907 6896 6895 6894 ] final -149.05 input  -60.11 | X-H torsion
[ 7974 7965 7964 7962 ] final   -7.69 input  175.53 | X-H torsion
[ 8008 7997 7996 7995 ] final  135.96 input   59.86 | X-H torsion
[ 10167 10162 10161 10158 ] final -137.52 input  -65.29 | X-H torsion
[ 10718 10713 10712 10709 ] final   16.82 input   66.30 | X-H torsion
[ 10763 10752 10751 10750 ] final  153.98 input  -60.55 | X-H torsion
[ 11005 11000 10999 10996 ] final   67.89 input  -57.11 | X-H torsion

> <Gold.Protein.ActiveResidues>
 VAL166  LYS551  ARG553  GLY616  TRP617  ASP618  TYR619  PRO620  LYS621  CYS622 
 ASP623  PHE694  ASN695  SER759  ASP760  ASP761  ALA762  ILE779  LEU786  VAL792 
 PHE793  MET794  SER795  GLU796  ALA797  LYS798  CYS799  TRP800  GLU811  SER814 

> <Gold.Protein.RotatedAtoms>
  151.1786  133.4739  159.2593 H   0  0  0  0  0  0  0  0  0  0  0  0  # atno 6907 bound_to 6896
  151.1282  135.0116  159.8580 H   0  0  0  0  0  0  0  0  0  0  0  0  # atno 6908 bound_to 6896
  152.5459  134.1691  159.8642 H   0  0  0  0  0  0  0  0  0  0  0  0  # atno 6909 bound_to 6896
  146.2300  140.2356  142.8341 H   0  0  0  0  0  0  0  0  0  0  0  0  # atno 7974 bound_to 7965
  156.3004  140.2457  156.3666 H   0  0  0  0  0  0  0  0  0  0  0  0  # atno 8008 bound_to 7997
  154.8827  140.0412  157.1811 H   0  0  0  0  0  0  0  0  0  0  0  0  # atno 8009 bound_to 7997
  154.8679  140.2930  155.5503 H   0  0  0  0  0  0  0  0  0  0  0  0  # atno 8010 bound_to 7997
  139.8569  143.7127  152.2653 H   0  0  0  0  0  0  0  0  0  0  0  0  # atno 10167 bound_to 10162
  157.0733  130.6357  149.5810 H   0  0  0  0  0  0  0  0  0  0  0  0  # atno 10718 bound_to 10713
  154.1449  135.2818  155.3151 H   0  0  0  0  0  0  0  0  0  0  0  0  # atno 10763 bound_to 10752
  154.6260  135.5451  153.7631 H   0  0  0  0  0  0  0  0  0  0  0  0  # atno 10764 bound_to 10752
  153.0239  135.6451  154.1595 H   0  0  0  0  0  0  0  0  0  0  0  0  # atno 10765 bound_to 10752
  139.9744  134.6847  156.0383 H   0  0  0  0  0  0  0  0  0  0  0  0  # atno 11005 bound_to 11000
  144.9524  140.8192  143.5564 LP  0  0  0  0  0  0  0  0  0  0  0  0  # atno 17320 bound_to 7965
  145.2318  139.2111  143.5039 LP  0  0  0  0  0  0  0  0  0  0  0  0  # atno 17321 bound_to 7965
  139.7411  144.7559  151.0651 LP  0  0  0  0  0  0  0  0  0  0  0  0  # atno 17342 bound_to 10162
  140.7780  143.4971  150.9818 LP  0  0  0  0  0  0  0  0  0  0  0  0  # atno 17343 bound_to 10162
  155.9944  130.5008  150.7419 LP  0  0  0  0  0  0  0  0  0  0  0  0  # atno 17370 bound_to 10713
  157.4860  131.0906  151.0482 LP  0  0  0  0  0  0  0  0  0  0  0  0  # atno 17371 bound_to 10713
  141.1422  133.6562  156.3762 LP  0  0  0  0  0  0  0  0  0  0  0  0  # atno 17394 bound_to 11000
  140.5226  134.6290  157.5323 LP  0  0  0  0  0  0  0  0  0  0  0  0  # atno 17395 bound_to 11000

$$$$
