AV-unprocessed.smi:109|AV-procd|sdf|1039|dock6
  -GOLD-   2262018 63D 1   1.00000     0.00000
 Structure written by MMmdl.
 58 61  0  0  0  0  0  0  0  0  1 V2000
  153.2918  139.0682  156.4251 O   0  0  0  0  0  0  0  0  0  0  0  0
  152.2299  138.9526  155.5028 C   0  0  0  0  0  0  0  0  0  0  0  0
  151.1978  140.0662  155.7513 C   0  0  0  0  0  0  0  0  0  0  0  0
  150.5425  140.0216  157.1536 C   0  0  2  0  0  0  0  0  0  0  0  0
  149.0853  139.9986  157.0099 N   0  0  0  0  0  0  0  0  0  0  0  0
  148.4762  140.0597  155.8044 C   0  0  0  0  0  0  0  0  0  0  0  0
  148.6830  141.0980  154.9534 N   0  0  0  0  0  0  0  0  0  0  0  0
  148.0549  141.1327  153.7744 C   0  0  0  0  0  0  0  0  0  0  0  0
  147.1990  140.2474  153.2593 N   0  0  0  0  0  0  0  0  0  0  0  0
  146.9945  139.1972  154.1063 C   0  0  0  0  0  0  0  0  0  0  0  0
  147.5854  139.0364  155.3900 C   0  0  0  0  0  0  0  0  0  0  0  0
  147.1271  137.8638  155.9747 N   0  0  0  0  0  0  0  0  0  0  0  0
  146.3073  137.3687  155.0870 C   0  0  0  0  0  0  0  0  0  0  0  0
  146.1934  138.0900  153.9160 N   0  0  0  0  0  0  0  0  0  0  0  0
  145.3269  137.8179  152.7227 C   0  0  2  0  0  0  0  0  0  0  0  0
  144.1209  137.2671  153.1707 O   0  0  0  0  0  0  0  0  0  0  0  0
  144.0626  135.8656  152.9112 C   0  0  2  0  0  0  0  0  0  0  0  0
  144.6436  135.0708  154.1033 C   0  0  0  0  0  0  0  0  0  0  0  0
  144.6675  133.6947  153.7912 O   0  0  0  0  0  0  0  0  0  0  0  0
  144.8571  135.7614  151.6028 C   0  0  2  0  0  0  0  0  0  0  0  0
  145.3655  134.4632  151.3646 O   0  0  0  0  0  0  0  0  0  0  0  0
  145.9717  136.7852  151.7769 C   0  0  1  0  0  0  0  0  0  0  0  0
  146.2936  137.3515  150.5218 O   0  0  0  0  0  0  0  0  0  0  0  0
  150.9490  141.2106  158.0712 C   0  0  0  0  0  0  0  0  0  0  0  0
  150.8783  142.5853  157.3603 C   0  0  0  0  0  0  0  0  0  0  0  0
  151.3212  143.7415  158.2724 C   0  0  0  0  0  0  0  0  0  0  0  0
  152.7327  143.5116  158.8257 C   0  0  0  0  0  0  0  0  0  0  0  0
  152.8125  142.1665  159.5569 C   0  0  0  0  0  0  0  0  0  0  0  0
  152.3769  141.0114  158.6424 C   0  0  0  0  0  0  0  0  0  0  0  0
  145.1626  138.8008  152.2786 H   0  0  0  0  0  0  0  0  0  0  0  0
  143.0295  135.5593  152.7419 H   0  0  0  0  0  0  0  0  0  0  0  0
  144.2048  136.0485  150.7761 H   0  0  0  0  0  0  0  0  0  0  0  0
  146.8495  136.3359  152.2446 H   0  0  0  0  0  0  0  0  0  0  0  0
  152.9772  138.8129  157.2788 H   0  0  0  0  0  0  0  0  0  0  0  0
  152.6404  139.0101  154.4948 H   0  0  0  0  0  0  0  0  0  0  0  0
  151.7696  137.9705  155.6143 H   0  0  0  0  0  0  0  0  0  0  0  0
  151.7199  141.0120  155.6177 H   0  0  0  0  0  0  0  0  0  0  0  0
  150.4244  140.0298  154.9827 H   0  0  0  0  0  0  0  0  0  0  0  0
  150.8936  139.1173  157.6502 H   0  0  0  0  0  0  0  0  0  0  0  0
  148.5687  139.8830  157.8700 H   0  0  0  0  0  0  0  0  0  0  0  0
  148.2689  141.9914  153.1553 H   0  0  0  0  0  0  0  0  0  0  0  0
  145.7663  136.4513  155.2668 H   0  0  0  0  0  0  0  0  0  0  0  0
  145.6779  135.3593  154.2901 H   0  0  0  0  0  0  0  0  0  0  0  0
  144.1003  135.2449  155.0305 H   0  0  0  0  0  0  0  0  0  0  0  0
  143.9762  133.2658  154.2718 H   0  0  0  0  0  0  0  0  0  0  0  0
  145.1375  134.2077  150.4837 H   0  0  0  0  0  0  0  0  0  0  0  0
  145.5331  137.8045  150.1916 H   0  0  0  0  0  0  0  0  0  0  0  0
  150.2532  141.2393  158.9115 H   0  0  0  0  0  0  0  0  0  0  0  0
  151.5000  142.5690  156.4642 H   0  0  0  0  0  0  0  0  0  0  0  0
  149.8630  142.8014  157.0321 H   0  0  0  0  0  0  0  0  0  0  0  0
  151.2882  144.6817  157.7213 H   0  0  0  0  0  0  0  0  0  0  0  0
  150.6171  143.8439  159.0990 H   0  0  0  0  0  0  0  0  0  0  0  0
  153.4560  143.5307  158.0094 H   0  0  0  0  0  0  0  0  0  0  0  0
  153.0053  144.3218  159.5027 H   0  0  0  0  0  0  0  0  0  0  0  0
  153.8300  141.9961  159.9101 H   0  0  0  0  0  0  0  0  0  0  0  0
  152.1770  142.1914  160.4432 H   0  0  0  0  0  0  0  0  0  0  0  0
  152.4410  140.0843  159.2126 H   0  0  0  0  0  0  0  0  0  0  0  0
  153.0882  140.9120  157.8212 H   0  0  0  0  0  0  0  0  0  0  0  0
  1  2  1  0  0  0  0
  1 34  1  0  0  0  0
  2  3  1  0  0  0  0
  2 35  1  0  0  0  0
  2 36  1  0  0  0  0
  3  4  1  0  0  0  0
  3 37  1  0  0  0  0
  3 38  1  0  0  0  0
  4  5  1  0  0  0  0
  4 24  1  0  0  0  0
  4 39  1  0  0  0  0
  5  6  1  0  0  0  0
  5 40  1  0  0  0  0
  6 11  1  0  0  0  0
  6  7  2  0  0  0  0
  7  8  1  0  0  0  0
  8  9  2  0  0  0  0
  8 41  1  0  0  0  0
  9 10  1  0  0  0  0
 10 14  1  0  0  0  0
 10 11  2  0  0  0  0
 11 12  1  0  0  0  0
 12 13  2  0  0  0  0
 13 14  1  0  0  0  0
 13 42  1  0  0  0  0
 14 15  1  0  0  0  0
 15 30  1  0  0  0  0
 15 22  1  0  0  0  0
 15 16  1  0  0  0  0
 16 17  1  0  0  0  0
 17 31  1  0  0  0  0
 17 18  1  0  0  0  0
 17 20  1  0  0  0  0
 18 19  1  0  0  0  0
 18 43  1  0  0  0  0
 18 44  1  0  0  0  0
 19 45  1  0  0  0  0
 20 32  1  0  0  0  0
 20 21  1  0  0  0  0
 20 22  1  0  0  0  0
 21 46  1  0  0  0  0
 22 33  1  0  0  0  0
 22 23  1  0  0  0  0
 23 47  1  0  0  0  0
 24 29  1  0  0  0  0
 24 25  1  0  0  0  0
 24 48  1  0  0  0  0
 25 26  1  0  0  0  0
 25 49  1  0  0  0  0
 25 50  1  0  0  0  0
 26 27  1  0  0  0  0
 26 51  1  0  0  0  0
 26 52  1  0  0  0  0
 27 28  1  0  0  0  0
 27 53  1  0  0  0  0
 27 54  1  0  0  0  0
 28 29  1  0  0  0  0
 28 55  1  0  0  0  0
 28 56  1  0  0  0  0
 29 57  1  0  0  0  0
 29 58  1  0  0  0  0
M  END
> <s_m_source_file>
AV-unprocessed.smi

> <i_m_source_file_index>
109

> <i_lp_mmshare_version>
43012

> <i_f3d_flags>
0

> <s_epik_input>
W0NIMl0xW0NIMl1bQ0gyXVtDSDJdW0NIMl1bQ0hdMVtDQEhdKFtDSDJdW0NIMl1bT0hdKVtOSF1jKG5bY0hdbjIpYyhjMjMpbltjSF1uM1tDQEBIXTRPW0NASF0oW0NIMl1bT0hdKVtDQEBIXShbT0hdKVtDQEhdNFtPSF0=

> <s_epik_cmdline>
J2VwaWtfcHl0aG9uJywgJy1waCcsICc3LjAnLCAnLXRuJywgJzgnLCAnLW1hJywgJzIwMCcsICctbWV0YWxfYmluZGluZycsICctaW1hZScsICc8aW5maWxlLm1hZT4nLCAnLW9tYWUnLCAnPG91dGZpbGUubWFlPic=

> <r_lp_tautomer_probability>
1

> <r_epik_Ionization_Penalty>
0.000793976

> <r_epik_Ionization_Penalty_Charging>
0

> <r_epik_Ionization_Penalty_Neutral>
0.000793976

> <r_epik_State_Penalty>
-0

> <r_epik_Charging_Adjusted_Penalty>
0

> <i_epik_Tot_Q>
0

> <i_epik_Tot_abs_Q>
0

> <r_epik_Metal_State_Penalty>
-0

> <b_epik_Metal_Only>
0

> <s_epik_Chemistry_Notes>
This compound contains an acetal/aminal-like group ( X-CH(R)-Y where X, Y are N, S, or O) that may be acid/base labile, releasing an aldehyde.

> <s_lp_Force_Field>
OPLS_2005

> <r_lp_Energy>
51.6151

> <b_lp_Chiralities_Consistent>
1

> <s_lp_Variant>
AV-unprocessed.smi:109-9

> <Gold.Version>
5.8.1

> <Gold.Id.Protein>
6NUR|6NUR_protein|mol2

> <Gold.PLP.Fitness>
47.4346

> <Gold.PLP.PLP>
-40.8165

> <Gold.PLP.part.hbond>
-4.5915

> <Gold.PLP.part.metal>
0.0000

> <Gold.PLP.part.buried>
-4.9167

> <Gold.PLP.part.nonpolar>
-33.9967

> <Gold.PLP.part.repulsive>
0.6355

> <Gold.PLP.ligand.clash>
1.0101

> <Gold.PLP.ligand.torsion>
2.1302

> <Gold.PLP.Chemscore.Hbond>
3.8710

> <Gold.PLP.Chemscore.CHOScore>
0.0000

> <Gold.PLP.Chemscore.Metal>
0.0000

> <Gold.Chemscore.Hbonds>
donor molecule, donor type, donor heavy atom, donor atom, acceptor molecule, acceptor atom, score
      L1  H    19    45       P1 10957  0.94
      L1  H    23    47       P1 10171  1.00
      P1  H  7954  7966       L1    23  0.90
      P1  H  7997  8010       L1     1  0.86

> <Gold.PLP.Chemscore.Internal.Correction>
0.2756

> <Gold.Rescore>
     Score         DG    S(hbond)    S(metal)    S(lipo)     H(rot)  DE(clash)    DE(int)     intcor
      9.65     -14.40       3.63        0.00      92.34       5.47       0.26       4.49       ----

> <Gold.Chemscore.Fitness>
9.6507

> <Gold.Chemscore.DG>
-14.3983

> <Gold.Chemscore.ZeroCoef>
-5.4800

> <Gold.Chemscore.Hbond>
3.6253

> <Gold.Chemscore.Metal>
0.0000

> <Gold.Chemscore.Lipo>
92.3361

> <Gold.Chemscore.Internal_Hbond>
0.0000

> <Gold.Chemscore.DEClash>
0.2573

> <Gold.Chemscore.DEInternal>
4.4904

> <Gold.Chemscore.Rot>
5.4662

> <Gold.Chemscore.Internal.Correction>
   9.000000E+99

> <Gold.Chemscore.Hbonds>
donor molecule, donor type, donor heavy atom, donor atom, acceptor molecule, acceptor atom, score
      L1  H    19    45       P1 10957  0.89
      L1  H    23    47       P1 10171  1.00
      P1  H  7954  7966       L1    23  0.80
      P1  H  7997  8010       L1     1  0.78

> <Gold.Chemscore.Hbond.Weighted>
-12.1085

> <Gold.Chemscore.Metal.Weighted>
-0.0000

> <Gold.Chemscore.Lipo.Weighted>
-10.8033

> <Gold.Chemscore.Internal_Hbond.Weighted>
0.0000

> <Gold.Chemscore.DEClash.Weighted>
0.2573

> <Gold.Chemscore.DEInternal.Weighted>
4.4904

> <Gold.Chemscore.Rot.Weighted>
13.9935

> <Gold.Chemscore.Internal.Correction.Weighted>
   9.000000E+99

> <Gold.Protein.RotatedTorsions>
[ 6907 6896 6895 6894 ] final   76.21 input  -60.11 | X-H torsion
[ 7974 7965 7964 7962 ] final   41.38 input  175.53 | X-H torsion
[ 8008 7997 7996 7995 ] final   74.88 input   59.86 | X-H torsion
[ 10167 10162 10161 10158 ] final   42.03 input  -65.29 | X-H torsion
[ 10718 10713 10712 10709 ] final  -20.16 input   66.30 | X-H torsion
[ 10763 10752 10751 10750 ] final   50.72 input  -60.55 | X-H torsion
[ 11005 11000 10999 10996 ] final  -60.06 input  -57.11 | X-H torsion

> <Gold.Protein.ActiveResidues>
 VAL166  LYS551  ARG553  GLY616  TRP617  ASP618  TYR619  PRO620  LYS621  CYS622 
 ASP623  PHE694  ASN695  SER759  ASP760  ASP761  ALA762  ILE779  LEU786  VAL792 
 PHE793  MET794  SER795  GLU796  ALA797  LYS798  CYS799  TRP800  GLU811  SER814 

> <Gold.Protein.RotatedAtoms>
  152.5062  134.4003  159.9414 H   0  0  0  0  0  0  0  0  0  0  0  0  # atno 6907 bound_to 6896
  151.3967  133.3765  159.2735 H   0  0  0  0  0  0  0  0  0  0  0  0  # atno 6908 bound_to 6896
  150.9392  134.8823  159.7660 H   0  0  0  0  0  0  0  0  0  0  0  0  # atno 6909 bound_to 6896
  146.0828  139.5422  142.9526 H   0  0  0  0  0  0  0  0  0  0  0  0  # atno 7974 bound_to 7965
  155.8049  140.3475  155.5424 H   0  0  0  0  0  0  0  0  0  0  0  0  # atno 8008 bound_to 7997
  155.8500  140.0955  157.1701 H   0  0  0  0  0  0  0  0  0  0  0  0  # atno 8009 bound_to 7997
  154.4007  140.1378  156.3820 H   0  0  0  0  0  0  0  0  0  0  0  0  # atno 8010 bound_to 7997
  140.3584  144.2260  150.6140 H   0  0  0  0  0  0  0  0  0  0  0  0  # atno 10167 bound_to 10162
  156.5357  130.4666  149.6524 H   0  0  0  0  0  0  0  0  0  0  0  0  # atno 10718 bound_to 10713
  152.9784  135.5869  154.4299 H   0  0  0  0  0  0  0  0  0  0  0  0  # atno 10763 bound_to 10752
  154.3913  135.2768  155.2155 H   0  0  0  0  0  0  0  0  0  0  0  0  # atno 10764 bound_to 10752
  154.4026  135.6100  153.5960 H   0  0  0  0  0  0  0  0  0  0  0  0  # atno 10765 bound_to 10752
  141.1273  133.6620  156.5166 H   0  0  0  0  0  0  0  0  0  0  0  0  # atno 11005 bound_to 11000
  145.6186  141.0327  143.1927 LP  0  0  0  0  0  0  0  0  0  0  0  0  # atno 17320 bound_to 7965
  144.7305  139.7741  143.7349 LP  0  0  0  0  0  0  0  0  0  0  0  0  # atno 17321 bound_to 7965
  140.5151  143.2280  151.8476 LP  0  0  0  0  0  0  0  0  0  0  0  0  # atno 17342 bound_to 10162
  139.4817  144.4904  151.9192 LP  0  0  0  0  0  0  0  0  0  0  0  0  # atno 17343 bound_to 10162
  156.3018  130.7181  151.2054 LP  0  0  0  0  0  0  0  0  0  0  0  0  # atno 17370 bound_to 10713
  157.7414  131.0504  150.5099 LP  0  0  0  0  0  0  0  0  0  0  0  0  # atno 17371 bound_to 10713
  140.4326  134.7088  157.4950 LP  0  0  0  0  0  0  0  0  0  0  0  0  # atno 17394 bound_to 11000
  140.0284  134.6443  155.9141 LP  0  0  0  0  0  0  0  0  0  0  0  0  # atno 17395 bound_to 11000

$$$$
