AV-unprocessed.smi:920|AV-procd|sdf|4168|dock8
  -GOLD-   22720 2 73D 1   1.00000     0.00000
 Structure written by MMmdl.
 37 38  0  0  0  0  0  0  0  0  1 V2000
  148.3360  123.2479  154.0738 C   0  0  0  0  0  0  0  0  0  0  0  0
  148.8970  123.6851  152.8406 O   0  0  0  0  0  0  0  0  0  0  0  0
  148.6064  124.9619  152.4054 C   0  0  0  0  0  0  0  0  0  0  0  0
  149.0737  125.3655  151.1388 C   0  0  0  0  0  0  0  0  0  0  0  0
  148.7832  126.6675  150.6882 C   0  0  0  0  0  0  0  0  0  0  0  0
  148.0390  127.5307  151.5269 C   0  0  0  0  0  0  0  0  0  0  0  0
  147.6648  128.8561  151.1777 N   0  0  0  0  0  0  0  0  0  0  0  0
  146.5085  129.4916  151.4330 C   0  0  0  0  0  0  0  0  0  0  0  0
  145.5348  128.9929  151.9972 O   0  0  0  0  0  0  0  0  0  0  0  0
  146.5390  130.7500  150.9706 N   0  0  0  0  0  0  0  0  0  0  0  0
  145.4534  131.7232  151.0606 C   0  0  0  0  0  0  0  0  0  0  0  0
  145.0248  132.1589  149.6462 C   0  0  0  0  0  0  0  0  0  0  0  0
  143.9464  133.2537  149.6961 C   0  0  0  0  0  0  0  0  0  0  0  0
  144.4122  134.4589  150.5281 C   0  0  0  0  0  0  0  0  0  0  0  0
  144.8294  134.0266  151.9425 C   0  0  0  0  0  0  0  0  0  0  0  0
  145.9106  132.9346  151.8957 C   0  0  0  0  0  0  0  0  0  0  0  0
  147.6054  127.0256  152.7699 C   0  0  0  0  0  0  0  0  0  0  0  0
  147.8800  125.7788  153.2074 N   0  0  0  0  0  0  0  0  0  0  0  0
  148.6615  122.2278  154.2767 H   0  0  0  0  0  0  0  0  0  0  0  0
  147.2456  123.2462  154.0364 H   0  0  0  0  0  0  0  0  0  0  0  0
  148.6648  123.8714  154.9063 H   0  0  0  0  0  0  0  0  0  0  0  0
  149.6415  124.6861  150.5203 H   0  0  0  0  0  0  0  0  0  0  0  0
  149.1218  126.9700  149.7094 H   0  0  0  0  0  0  0  0  0  0  0  0
  148.3383  129.3642  150.6232 H   0  0  0  0  0  0  0  0  0  0  0  0
  147.3843  131.0627  150.5161 H   0  0  0  0  0  0  0  0  0  0  0  0
  144.5875  131.2813  151.5568 H   0  0  0  0  0  0  0  0  0  0  0  0
  145.8898  132.5314  149.0953 H   0  0  0  0  0  0  0  0  0  0  0  0
  144.6497  131.2998  149.0886 H   0  0  0  0  0  0  0  0  0  0  0  0
  143.6954  133.5748  148.6848 H   0  0  0  0  0  0  0  0  0  0  0  0
  143.0315  132.8448  150.1266 H   0  0  0  0  0  0  0  0  0  0  0  0
  145.2528  134.9447  150.0308 H   0  0  0  0  0  0  0  0  0  0  0  0
  143.6158  135.2014  150.5858 H   0  0  0  0  0  0  0  0  0  0  0  0
  145.1947  134.8879  152.5023 H   0  0  0  0  0  0  0  0  0  0  0  0
  143.9578  133.6543  152.4825 H   0  0  0  0  0  0  0  0  0  0  0  0
  146.1554  132.6174  152.9102 H   0  0  0  0  0  0  0  0  0  0  0  0
  146.8257  133.3522  151.4730 H   0  0  0  0  0  0  0  0  0  0  0  0
  147.0226  127.6419  153.4389 H   0  0  0  0  0  0  0  0  0  0  0  0
  1  2  1  0  0  0  0
  1 19  1  0  0  0  0
  1 20  1  0  0  0  0
  1 21  1  0  0  0  0
  2  3  1  0  0  0  0
  3 18  1  0  0  0  0
  3  4  2  0  0  0  0
  4  5  1  0  0  0  0
  4 22  1  0  0  0  0
  5  6  2  0  0  0  0
  5 23  1  0  0  0  0
  6  7  1  0  0  0  0
  6 17  1  0  0  0  0
  7  8  1  0  0  0  0
  7 24  1  0  0  0  0
  8  9  2  0  0  0  0
  8 10  1  0  0  0  0
 10 11  1  0  0  0  0
 10 25  1  0  0  0  0
 11 16  1  0  0  0  0
 11 12  1  0  0  0  0
 11 26  1  0  0  0  0
 12 13  1  0  0  0  0
 12 27  1  0  0  0  0
 12 28  1  0  0  0  0
 13 14  1  0  0  0  0
 13 29  1  0  0  0  0
 13 30  1  0  0  0  0
 14 15  1  0  0  0  0
 14 31  1  0  0  0  0
 14 32  1  0  0  0  0
 15 16  1  0  0  0  0
 15 33  1  0  0  0  0
 15 34  1  0  0  0  0
 16 35  1  0  0  0  0
 16 36  1  0  0  0  0
 17 18  2  0  0  0  0
 17 37  1  0  0  0  0
M  END
> <s_m_source_file>
AV-unprocessed.smi

> <i_m_source_file_index>
920

> <i_lp_mmshare_version>
43012

> <i_f3d_flags>
0

> <s_epik_input>
W0NIM11PYzFbY0hdW2NIXWMoW2NIXW4xKVtOSF1DKD1PKVtOSF1bQ0hdMltDSDJdW0NIMl1bQ0gyXVtDSDJdW0NIMl0y

> <s_epik_cmdline>
J2VwaWtfcHl0aG9uJywgJy1waCcsICc3LjAnLCAnLXRuJywgJzgnLCAnLW1hJywgJzIwMCcsICctbWV0YWxfYmluZGluZycsICctaW1hZScsICc8aW5maWxlLm1hZT4nLCAnLW9tYWUnLCAnPG91dGZpbGUubWFlPic=

> <r_lp_tautomer_probability>
1

> <r_epik_Ionization_Penalty>
9.99378e-05

> <r_epik_Ionization_Penalty_Charging>
0

> <r_epik_Ionization_Penalty_Neutral>
9.99378e-05

> <r_epik_State_Penalty>
-0

> <r_epik_Charging_Adjusted_Penalty>
0

> <i_epik_Tot_Q>
0

> <i_epik_Tot_abs_Q>
0

> <r_epik_Metal_State_Penalty>
-0

> <b_epik_Metal_Only>
0

> <s_lp_Force_Field>
OPLS_2005

> <r_lp_Energy>
12.0005

> <b_lp_Chiralities_Consistent>
1

> <s_lp_Variant>
AV-unprocessed.smi:920-1

> <Gold.Version>
5.8.1

> <Gold.Id.Protein>
6NUR|6NUR_protein|mol2

> <Gold.PLP.Fitness>
38.7518

> <Gold.PLP.PLP>
-34.1772

> <Gold.PLP.part.hbond>
-2.6949

> <Gold.PLP.part.metal>
0.0000

> <Gold.PLP.part.buried>
-4.1763

> <Gold.PLP.part.nonpolar>
-27.7579

> <Gold.PLP.part.repulsive>
0.3285

> <Gold.PLP.ligand.clash>
0.0000

> <Gold.PLP.ligand.torsion>
0.3063

> <Gold.PLP.Chemscore.Hbond>
1.7280

> <Gold.PLP.Chemscore.CHOScore>
0.0000

> <Gold.PLP.Chemscore.Metal>
0.0000

> <Gold.Chemscore.Hbonds>
donor molecule, donor type, donor heavy atom, donor atom, acceptor molecule, acceptor atom, score
      L1  H     7    24       P1 10747  0.77
      L1  H    10    25       P1 10747  0.96

> <Gold.PLP.Chemscore.Internal.Correction>
0.0031

> <Gold.Rescore>
     Score         DG    S(hbond)    S(metal)    S(lipo)     H(rot)  DE(clash)    DE(int)     intcor
     13.49     -15.36       1.07        0.00      80.81       1.23       0.32       1.55       ----

> <Gold.Chemscore.Fitness>
13.4867

> <Gold.Chemscore.DG>
-15.3591

> <Gold.Chemscore.ZeroCoef>
-5.4800

> <Gold.Chemscore.Hbond>
1.0658

> <Gold.Chemscore.Metal>
0.0000

> <Gold.Chemscore.Lipo>
80.8131

> <Gold.Chemscore.Internal_Hbond>
0.0000

> <Gold.Chemscore.DEClash>
0.3175

> <Gold.Chemscore.DEInternal>
1.5549

> <Gold.Chemscore.Rot>
1.2250

> <Gold.Chemscore.Internal.Correction>
   9.000000E+99

> <Gold.Chemscore.Hbonds>
donor molecule, donor type, donor heavy atom, donor atom, acceptor molecule, acceptor atom, score
      L1  H     7    24       P1 10747  0.11
      L1  H    10    25       P1 10747  0.91

> <Gold.Chemscore.Hbond.Weighted>
-3.5599

> <Gold.Chemscore.Metal.Weighted>
-0.0000

> <Gold.Chemscore.Lipo.Weighted>
-9.4551

> <Gold.Chemscore.Internal_Hbond.Weighted>
0.0000

> <Gold.Chemscore.DEClash.Weighted>
0.3175

> <Gold.Chemscore.DEInternal.Weighted>
1.5549

> <Gold.Chemscore.Rot.Weighted>
3.1360

> <Gold.Chemscore.Internal.Correction.Weighted>
   9.000000E+99

> <Gold.Protein.RotatedTorsions>
[ 6907 6896 6895 6894 ] final  -20.93 input  -60.11 | X-H torsion
[ 7974 7965 7964 7962 ] final  -80.26 input  175.53 | X-H torsion
[ 8008 7997 7996 7995 ] final    0.70 input   59.86 | X-H torsion
[ 10167 10162 10161 10158 ] final -116.03 input  -65.29 | X-H torsion
[ 10718 10713 10712 10709 ] final  172.20 input   66.30 | X-H torsion
[ 10763 10752 10751 10750 ] final -148.68 input  -60.55 | X-H torsion
[ 11005 11000 10999 10996 ] final  -50.24 input  -57.11 | X-H torsion

> <Gold.Protein.ActiveResidues>
 VAL166  LYS551  ARG553  GLY616  TRP617  ASP618  TYR619  PRO620  LYS621  CYS622 
 ASP623  PHE694  ASN695  SER759  ASP760  ASP761  ALA762  ILE779  LEU786  VAL792 
 PHE793  MET794  SER795  GLU796  ALA797  LYS798  CYS799  TRP800  GLU811  SER814 

> <Gold.Protein.RotatedAtoms>
  151.2408  135.0588  159.9023 H   0  0  0  0  0  0  0  0  0  0  0  0  # atno 6907 bound_to 6896
  152.5393  134.0436  159.8089 H   0  0  0  0  0  0  0  0  0  0  0  0  # atno 6908 bound_to 6896
  151.0630  133.5480  159.2664 H   0  0  0  0  0  0  0  0  0  0  0  0  # atno 6909 bound_to 6896
  145.5623  140.9480  143.1441 H   0  0  0  0  0  0  0  0  0  0  0  0  # atno 7974 bound_to 7965
  154.6712  140.2612  155.7006 H   0  0  0  0  0  0  0  0  0  0  0  0  # atno 8008 bound_to 7997
  156.2659  140.2829  156.1143 H   0  0  0  0  0  0  0  0  0  0  0  0  # atno 8009 bound_to 7997
  155.1166  140.0376  157.2729 H   0  0  0  0  0  0  0  0  0  0  0  0  # atno 8010 bound_to 7997
  140.0836  143.4765  152.1911 H   0  0  0  0  0  0  0  0  0  0  0  0  # atno 10167 bound_to 10162
  156.9824  131.0123  151.2878 H   0  0  0  0  0  0  0  0  0  0  0  0  # atno 10718 bound_to 10713
  154.8219  135.3328  154.7012 H   0  0  0  0  0  0  0  0  0  0  0  0  # atno 10763 bound_to 10752
  153.7643  135.6930  153.4923 H   0  0  0  0  0  0  0  0  0  0  0  0  # atno 10764 bound_to 10752
  153.2088  135.4489  155.0304 H   0  0  0  0  0  0  0  0  0  0  0  0  # atno 10765 bound_to 10752
  141.0804  133.6655  156.3702 H   0  0  0  0  0  0  0  0  0  0  0  0  # atno 11005 bound_to 11000
  144.7477  139.7276  143.7285 LP  0  0  0  0  0  0  0  0  0  0  0  0  # atno 17320 bound_to 7965
  146.1843  139.5050  142.9846 LP  0  0  0  0  0  0  0  0  0  0  0  0  # atno 17321 bound_to 7965
  139.5765  144.7490  151.3751 LP  0  0  0  0  0  0  0  0  0  0  0  0  # atno 17342 bound_to 10162
  140.7065  143.7500  150.7491 LP  0  0  0  0  0  0  0  0  0  0  0  0  # atno 17343 bound_to 10162
  157.5517  130.8186  149.8153 LP  0  0  0  0  0  0  0  0  0  0  0  0  # atno 17370 bound_to 10713
  156.0239  130.3786  150.1880 LP  0  0  0  0  0  0  0  0  0  0  0  0  # atno 17371 bound_to 10713
  140.5480  134.6055  157.5399 LP  0  0  0  0  0  0  0  0  0  0  0  0  # atno 17394 bound_to 11000
  139.9618  134.7439  156.0221 LP  0  0  0  0  0  0  0  0  0  0  0  0  # atno 17395 bound_to 11000

$$$$
