AV-unprocessed.smi:3285|AV-procd|sdf|12583|dock9
  -GOLD-   2272018503D 1   1.00000     0.00000
 Structure written by MMmdl.
 45 46  0  0  0  0  0  0  0  0  2 V2000
  153.1935  138.8433  154.3629 C   0  0  0  0  0  0  0  0  0  0  0  0
  151.8232  138.3211  154.6856 C   0  0  0  0  0  0  0  0  0  0  0  0
  151.6870  137.0563  155.0448 N   0  0  0  0  0  0  0  0  0  0  0  0
  150.3208  136.8662  155.2708 O   0  0  0  0  0  0  0  0  0  0  0  0
  149.6791  138.0382  155.0354 C   0  0  0  0  0  0  0  0  0  0  0  0
  148.1991  138.0308  155.2195 C   0  0  0  0  0  0  0  0  0  0  0  0
  150.5727  139.0050  154.6613 C   0  0  0  0  0  0  0  0  0  0  0  0
  150.3033  140.4419  154.3023 C   0  0  0  0  0  0  0  0  0  0  0  0
  149.5733  141.1744  155.4353 C   0  0  0  0  0  0  0  0  0  0  0  0
  150.3511  142.3389  155.9020 N   0  3  0  0  0  0  0  0  0  0  0  0
  150.6921  142.3205  157.3407 C   0  0  1  0  0  0  0  0  0  0  0  0
  151.7599  141.2525  157.6176 C   0  0  0  0  0  0  0  0  0  0  0  0
  152.1489  141.2402  159.1017 C   0  0  0  0  0  0  0  0  0  0  0  0
  152.6529  142.6175  159.5792 C   0  0  2  0  0  0  0  0  0  0  0  0
  153.0382  142.5422  161.0676 C   0  0  0  0  0  0  0  0  0  0  0  0
  151.6030  143.7215  159.2795 C   0  0  1  0  0  0  0  0  0  0  0  0
  152.0893  145.1293  159.6685 C   0  0  0  0  0  0  0  0  0  0  0  0
  151.1958  143.7024  157.7903 C   0  0  0  0  0  0  0  0  0  0  0  0
  153.1616  139.8830  154.0383 H   0  0  0  0  0  0  0  0  0  0  0  0
  153.6547  138.2636  153.5628 H   0  0  0  0  0  0  0  0  0  0  0  0
  153.8480  138.7888  155.2332 H   0  0  0  0  0  0  0  0  0  0  0  0
  147.7690  139.0079  155.0008 H   0  0  0  0  0  0  0  0  0  0  0  0
  147.9392  137.7699  156.2454 H   0  0  0  0  0  0  0  0  0  0  0  0
  147.7322  137.3016  154.5572 H   0  0  0  0  0  0  0  0  0  0  0  0
  151.2358  140.9619  154.0792 H   0  0  0  0  0  0  0  0  0  0  0  0
  149.7108  140.5053  153.3892 H   0  0  0  0  0  0  0  0  0  0  0  0
  148.5927  141.5100  155.0946 H   0  0  0  0  0  0  0  0  0  0  0  0
  149.4123  140.4951  156.2740 H   0  0  0  0  0  0  0  0  0  0  0  0
  151.2122  142.3722  155.3754 H   0  0  0  0  0  0  0  0  0  0  0  0
  149.8021  142.0715  157.9218 H   0  0  0  0  0  0  0  0  0  0  0  0
  151.3898  140.2682  157.3280 H   0  0  0  0  0  0  0  0  0  0  0  0
  152.6463  141.4422  157.0103 H   0  0  0  0  0  0  0  0  0  0  0  0
  151.2882  140.9355  159.6990 H   0  0  0  0  0  0  0  0  0  0  0  0
  152.9181  140.4846  159.2661 H   0  0  0  0  0  0  0  0  0  0  0  0
  153.5593  142.8502  159.0182 H   0  0  0  0  0  0  0  0  0  0  0  0
  152.1634  142.3737  161.6964 H   0  0  0  0  0  0  0  0  0  0  0  0
  153.5261  143.4549  161.4080 H   0  0  0  0  0  0  0  0  0  0  0  0
  153.7374  141.7254  161.2486 H   0  0  0  0  0  0  0  0  0  0  0  0
  150.7097  143.5088  159.8691 H   0  0  0  0  0  0  0  0  0  0  0  0
  153.0252  145.3791  159.1676 H   0  0  0  0  0  0  0  0  0  0  0  0
  152.2492  145.2209  160.7423 H   0  0  0  0  0  0  0  0  0  0  0  0
  151.3551  145.8870  159.3938 H   0  0  0  0  0  0  0  0  0  0  0  0
  152.0486  143.9983  157.1771 H   0  0  0  0  0  0  0  0  0  0  0  0
  150.4179  144.4469  157.6133 H   0  0  0  0  0  0  0  0  0  0  0  0
  149.8251  143.1792  155.7081 H   0  0  0  0  0  0  0  0  0  0  0  0
  1  2  1  0  0  0  0
  1 19  1  0  0  0  0
  1 20  1  0  0  0  0
  1 21  1  0  0  0  0
  2  7  1  0  0  0  0
  2  3  2  0  0  0  0
  3  4  1  0  0  0  0
  4  5  1  0  0  0  0
  5  6  1  0  0  0  0
  5  7  2  0  0  0  0
  6 22  1  0  0  0  0
  6 23  1  0  0  0  0
  6 24  1  0  0  0  0
  7  8  1  0  0  0  0
  8  9  1  0  0  0  0
  8 25  1  0  0  0  0
  8 26  1  0  0  0  0
  9 10  1  0  0  0  0
  9 27  1  0  0  0  0
  9 28  1  0  0  0  0
 10 11  1  0  0  0  0
 10 29  1  0  0  0  0
 10 45  1  0  0  0  0
 11 18  1  0  0  0  0
 11 12  1  0  0  0  0
 11 30  1  0  0  0  0
 12 13  1  0  0  0  0
 12 31  1  0  0  0  0
 12 32  1  0  0  0  0
 13 14  1  0  0  0  0
 13 33  1  0  0  0  0
 13 34  1  0  0  0  0
 14 15  1  0  0  0  0
 14 16  1  0  0  0  0
 14 35  1  0  0  0  0
 15 36  1  0  0  0  0
 15 37  1  0  0  0  0
 15 38  1  0  0  0  0
 16 17  1  0  0  0  0
 16 18  1  0  0  0  0
 16 39  1  0  0  0  0
 17 40  1  0  0  0  0
 17 41  1  0  0  0  0
 17 42  1  0  0  0  0
 18 43  1  0  0  0  0
 18 44  1  0  0  0  0
M  CHG  1  10   1
M  END
> <s_m_source_file>
AV-unprocessed.smi

> <i_m_source_file_index>
3285

> <i_lp_mmshare_version>
43012

> <i_f3d_flags>
0

> <s_epik_input>
W0NIM11jMW5vYyhbQ0gzXSljMVtDSDJdW0NIMl1bTkhdW0NAQEhdMltDSDJdW0NIMl1bQ0BASF0oW0NIM10pW0NAQEhdKFtDSDNdKVtDSDJdMg==

> <s_epik_cmdline>
J2VwaWtfcHl0aG9uJywgJy1waCcsICc3LjAnLCAnLXRuJywgJzgnLCAnLW1hJywgJzIwMCcsICctbWV0YWxfYmluZGluZycsICctaW1hZScsICc8aW5maWxlLm1hZT4nLCAnLW9tYWUnLCAnPG91dGZpbGUubWFlPic=

> <r_lp_tautomer_probability>
1

> <r_epik_Ionization_Penalty>
0.000204615

> <r_epik_Ionization_Penalty_Charging>
0.000204615

> <r_epik_Ionization_Penalty_Neutral>
9.28663e-11

> <r_epik_State_Penalty>
-0

> <r_epik_Charging_Adjusted_Penalty>
0.000204615

> <i_epik_Tot_Q>
1

> <i_epik_Tot_abs_Q>
1

> <r_epik_Metal_State_Penalty>
-0

> <b_epik_Metal_Only>
0

> <s_lp_Force_Field>
OPLS_2005

> <r_lp_Energy>
11.6607

> <b_lp_Chiralities_Consistent>
1

> <s_lp_Variant>
AV-unprocessed.smi:3285-4

> <Gold.Version>
5.8.1

> <Gold.Id.Protein>
6NUR|6NUR_protein|mol2

> <Gold.PLP.Fitness>
46.9989

> <Gold.PLP.PLP>
-39.6693

> <Gold.PLP.part.hbond>
-2.0000

> <Gold.PLP.part.metal>
0.0000

> <Gold.PLP.part.buried>
-2.2427

> <Gold.PLP.part.nonpolar>
-35.4076

> <Gold.PLP.part.repulsive>
0.3285

> <Gold.PLP.ligand.clash>
0.0000

> <Gold.PLP.ligand.torsion>
0.8387

> <Gold.PLP.Chemscore.Hbond>
3.0000

> <Gold.PLP.Chemscore.CHOScore>
0.0000

> <Gold.PLP.Chemscore.Metal>
0.0000

> <Gold.Chemscore.Hbonds>
donor molecule, donor type, donor heavy atom, donor atom, acceptor molecule, acceptor atom, score
      L1  H    10    45       P1  8028  2.00
      P1  H 10752 10763       L1     3  0.90

> <Gold.PLP.Chemscore.Internal.Correction>
0.0071

> <Gold.Rescore>
     Score         DG    S(hbond)    S(metal)    S(lipo)     H(rot)  DE(clash)    DE(int)     intcor
     20.72     -22.59       1.89        0.00     121.83       1.35       0.94       0.92       ----

> <Gold.Chemscore.Fitness>
20.7196

> <Gold.Chemscore.DG>
-22.5858

> <Gold.Chemscore.ZeroCoef>
-5.4800

> <Gold.Chemscore.Hbond>
1.8858

> <Gold.Chemscore.Metal>
0.0000

> <Gold.Chemscore.Lipo>
121.8307

> <Gold.Chemscore.Internal_Hbond>
0.0000

> <Gold.Chemscore.DEClash>
0.9428

> <Gold.Chemscore.DEInternal>
0.9234

> <Gold.Chemscore.Rot>
1.3465

> <Gold.Chemscore.Internal.Correction>
   9.000000E+99

> <Gold.Chemscore.Hbonds>
donor molecule, donor type, donor heavy atom, donor atom, acceptor molecule, acceptor atom, score
      L1  H    10    45       P1  8028  1.00
      P1  H 10752 10763       L1     3  0.83

> <Gold.Chemscore.Hbond.Weighted>
-6.2986

> <Gold.Chemscore.Metal.Weighted>
-0.0000

> <Gold.Chemscore.Lipo.Weighted>
-14.2542

> <Gold.Chemscore.Internal_Hbond.Weighted>
0.0000

> <Gold.Chemscore.DEClash.Weighted>
0.9428

> <Gold.Chemscore.DEInternal.Weighted>
0.9234

> <Gold.Chemscore.Rot.Weighted>
3.4470

> <Gold.Chemscore.Internal.Correction.Weighted>
   9.000000E+99

> <Gold.Protein.RotatedTorsions>
[ 6907 6896 6895 6894 ] final  125.29 input  -60.11 | X-H torsion
[ 7974 7965 7964 7962 ] final   91.04 input  175.53 | X-H torsion
[ 8008 7997 7996 7995 ] final   98.65 input   59.86 | X-H torsion
[ 10167 10162 10161 10158 ] final  -91.58 input  -65.29 | X-H torsion
[ 10718 10713 10712 10709 ] final  171.03 input   66.30 | X-H torsion
[ 10763 10752 10751 10750 ] final   76.86 input  -60.55 | X-H torsion
[ 11005 11000 10999 10996 ] final   93.06 input  -57.11 | X-H torsion

> <Gold.Protein.ActiveResidues>
 VAL166  LYS551  ARG553  GLY616  TRP617  ASP618  TYR619  PRO620  LYS621  CYS622 
 ASP623  PHE694  ASN695  SER759  ASP760  ASP761  ALA762  ILE779  LEU786  VAL792 
 PHE793  MET794  SER795  GLU796  ALA797  LYS798  CYS799  TRP800  GLU811  SER814 

> <Gold.Protein.RotatedAtoms>
  152.4005  133.6810  159.6311 H   0  0  0  0  0  0  0  0  0  0  0  0  # atno 6907 bound_to 6896
  150.7897  133.8800  159.3292 H   0  0  0  0  0  0  0  0  0  0  0  0  # atno 6908 bound_to 6896
  151.6567  135.0996  160.0223 H   0  0  0  0  0  0  0  0  0  0  0  0  # atno 6909 bound_to 6896
  145.5110  139.2277  143.2724 H   0  0  0  0  0  0  0  0  0  0  0  0  # atno 7974 bound_to 7965
  156.1025  140.3240  155.7962 H   0  0  0  0  0  0  0  0  0  0  0  0  # atno 8008 bound_to 7997
  155.4812  140.0554  157.2984 H   0  0  0  0  0  0  0  0  0  0  0  0  # atno 8009 bound_to 7997
  154.4706  140.2009  156.0019 H   0  0  0  0  0  0  0  0  0  0  0  0  # atno 8010 bound_to 7997
  140.3435  143.2929  151.9808 H   0  0  0  0  0  0  0  0  0  0  0  0  # atno 10167 bound_to 10162
  156.9996  131.0172  151.2834 H   0  0  0  0  0  0  0  0  0  0  0  0  # atno 10718 bound_to 10713
  153.0756  135.4935  154.8397 H   0  0  0  0  0  0  0  0  0  0  0  0  # atno 10763 bound_to 10752
  154.7083  135.3015  154.9239 H   0  0  0  0  0  0  0  0  0  0  0  0  # atno 10764 bound_to 10752
  153.9941  135.6774  153.4808 H   0  0  0  0  0  0  0  0  0  0  0  0  # atno 10765 bound_to 10752
  139.8815  134.8768  156.3662 H   0  0  0  0  0  0  0  0  0  0  0  0  # atno 11005 bound_to 11000
  146.2166  140.5917  142.9035 LP  0  0  0  0  0  0  0  0  0  0  0  0  # atno 17320 bound_to 7965
  144.7727  140.5673  143.6659 LP  0  0  0  0  0  0  0  0  0  0  0  0  # atno 17321 bound_to 7965
  139.4837  144.6137  151.7386 LP  0  0  0  0  0  0  0  0  0  0  0  0  # atno 17342 bound_to 10162
  140.5287  144.0765  150.6046 LP  0  0  0  0  0  0  0  0  0  0  0  0  # atno 17343 bound_to 10162
  157.5400  130.8114  149.8017 LP  0  0  0  0  0  0  0  0  0  0  0  0  # atno 17370 bound_to 10713
  156.0176  130.3807  150.2061 LP  0  0  0  0  0  0  0  0  0  0  0  0  # atno 17371 bound_to 10713
  140.9495  133.7460  156.0253 LP  0  0  0  0  0  0  0  0  0  0  0  0  # atno 17394 bound_to 11000
  140.8122  134.3386  157.5408 LP  0  0  0  0  0  0  0  0  0  0  0  0  # atno 17395 bound_to 11000

$$$$
