AV-unprocessed.smi:1240|AV-procd|sdf|5207|dock8
  -GOLD-   22720 4293D 1   1.00000     0.00000
 Structure written by MMmdl.
 49 51  0  0  0  0  0  0  0  0  3 V2000
  145.6451  137.8388  154.3329 O   0  0  0  0  0  0  0  0  0  0  0  0
  146.6582  137.4936  153.7261 C   0  0  0  0  0  0  0  0  0  0  0  0
  146.8113  136.2824  153.1745 N   0  0  0  0  0  0  0  0  0  0  0  0
  145.8031  135.2286  153.1732 C   0  0  0  0  0  0  0  0  0  0  0  0
  144.8650  135.3072  151.9386 C   0  0  2  0  0  0  0  0  0  0  0  0
  143.4183  135.7663  152.2805 C   0  0  2  0  0  0  0  0  0  0  0  0
  143.3417  137.1139  152.9807 C   0  0  0  0  0  0  0  0  0  0  0  0
  141.9376  137.0901  153.5699 C   0  0  0  0  0  0  0  0  0  0  0  0
  141.7261  135.7393  153.9554 O   0  0  0  0  0  0  0  0  0  0  0  0
  142.6541  134.8916  153.2853 C   0  0  0  0  0  0  0  0  0  0  0  0
  144.8220  134.0151  151.1889 N   0  3  0  0  0  0  0  0  0  0  0  0
  144.0266  134.0652  149.9377 C   0  0  0  0  0  0  0  0  0  0  0  0
  143.8796  132.6519  149.3479 C   0  0  0  0  0  0  0  0  0  0  0  0
  145.1661  132.0830  149.1337 O   0  0  0  0  0  0  0  0  0  0  0  0
  145.9051  131.9576  150.3430 C   0  0  0  0  0  0  0  0  0  0  0  0
  146.1295  133.3510  150.9531 C   0  0  0  0  0  0  0  0  0  0  0  0
  147.7507  138.2537  153.5369 N   0  0  0  0  0  0  0  0  0  0  0  0
  147.9713  139.6065  153.9148 C   0  0  0  0  0  0  0  0  0  0  0  0
  146.8802  140.4976  153.8095 C   0  0  0  0  0  0  0  0  0  0  0  0
  147.0422  141.8451  154.1909 C   0  0  0  0  0  0  0  0  0  0  0  0
  148.2334  142.2720  154.6615 N   0  3  0  0  0  0  0  0  0  0  0  0
  149.3013  141.4561  154.7924 C   0  0  0  0  0  0  0  0  0  0  0  0
  149.1996  140.0983  154.4268 C   0  0  0  0  0  0  0  0  0  0  0  0
  147.6826  136.0792  152.7066 H   0  0  0  0  0  0  0  0  0  0  0  0
  146.3312  134.2755  153.2000 H   0  0  0  0  0  0  0  0  0  0  0  0
  145.2131  135.2881  154.0891 H   0  0  0  0  0  0  0  0  0  0  0  0
  145.2768  136.0509  151.2540 H   0  0  0  0  0  0  0  0  0  0  0  0
  142.8240  135.8231  151.3674 H   0  0  0  0  0  0  0  0  0  0  0  0
  144.0817  137.1736  153.7803 H   0  0  0  0  0  0  0  0  0  0  0  0
  143.4947  137.9588  152.3086 H   0  0  0  0  0  0  0  0  0  0  0  0
  141.8223  137.7712  154.4131 H   0  0  0  0  0  0  0  0  0  0  0  0
  141.2008  137.3580  152.8114 H   0  0  0  0  0  0  0  0  0  0  0  0
  142.1323  134.0663  152.8006 H   0  0  0  0  0  0  0  0  0  0  0  0
  143.3279  134.4734  154.0338 H   0  0  0  0  0  0  0  0  0  0  0  0
  143.0379  134.4796  150.1378 H   0  0  0  0  0  0  0  0  0  0  0  0
  144.5084  134.7188  149.2101 H   0  0  0  0  0  0  0  0  0  0  0  0
  143.2928  132.0128  150.0097 H   0  0  0  0  0  0  0  0  0  0  0  0
  143.3499  132.6956  148.3960 H   0  0  0  0  0  0  0  0  0  0  0  0
  145.3774  131.3060  151.0414 H   0  0  0  0  0  0  0  0  0  0  0  0
  146.8620  131.4833  150.1250 H   0  0  0  0  0  0  0  0  0  0  0  0
  146.7403  133.9455  150.2727 H   0  0  0  0  0  0  0  0  0  0  0  0
  146.6846  133.2535  151.8855 H   0  0  0  0  0  0  0  0  0  0  0  0
  148.5350  137.7972  153.0943 H   0  0  0  0  0  0  0  0  0  0  0  0
  145.9252  140.1565  153.4365 H   0  0  0  0  0  0  0  0  0  0  0  0
  146.2593  142.5873  154.1366 H   0  0  0  0  0  0  0  0  0  0  0  0
  150.1979  141.9090  155.1896 H   0  0  0  0  0  0  0  0  0  0  0  0
  150.0610  139.4622  154.5600 H   0  0  0  0  0  0  0  0  0  0  0  0
  144.3084  133.3892  151.7930 H   0  0  0  0  0  0  0  0  0  0  0  0
  148.3295  143.2507  154.9340 H   0  0  0  0  0  0  0  0  0  0  0  0
  1  2  2  0  0  0  0
  2  3  1  0  0  0  0
  2 17  1  0  0  0  0
  3  4  1  0  0  0  0
  3 24  1  0  0  0  0
  4  5  1  0  0  0  0
  4 25  1  0  0  0  0
  4 26  1  0  0  0  0
  5  6  1  0  0  0  0
  5 11  1  0  0  0  0
  5 27  1  0  0  0  0
  6 10  1  0  0  0  0
  6  7  1  0  0  0  0
  6 28  1  0  0  0  0
  7  8  1  0  0  0  0
  7 29  1  0  0  0  0
  7 30  1  0  0  0  0
  8  9  1  0  0  0  0
  8 31  1  0  0  0  0
  8 32  1  0  0  0  0
  9 10  1  0  0  0  0
 10 33  1  0  0  0  0
 10 34  1  0  0  0  0
 11 16  1  0  0  0  0
 11 12  1  0  0  0  0
 11 48  1  0  0  0  0
 12 13  1  0  0  0  0
 12 35  1  0  0  0  0
 12 36  1  0  0  0  0
 13 14  1  0  0  0  0
 13 37  1  0  0  0  0
 13 38  1  0  0  0  0
 14 15  1  0  0  0  0
 15 16  1  0  0  0  0
 15 39  1  0  0  0  0
 15 40  1  0  0  0  0
 16 41  1  0  0  0  0
 16 42  1  0  0  0  0
 17 18  1  0  0  0  0
 17 43  1  0  0  0  0
 18 23  1  0  0  0  0
 18 19  2  0  0  0  0
 19 20  1  0  0  0  0
 19 44  1  0  0  0  0
 20 21  2  0  0  0  0
 20 45  1  0  0  0  0
 21 22  1  0  0  0  0
 21 49  1  0  0  0  0
 22 23  2  0  0  0  0
 22 46  1  0  0  0  0
 23 47  1  0  0  0  0
M  CHG  1  11   1
M  CHG  1  21   1
M  END
> <s_m_source_file>
AV-unprocessed.smi

> <i_m_source_file_index>
1240

> <i_lp_mmshare_version>
43012

> <i_f3d_flags>
0

> <s_epik_input>
W2NIXTFbY0hdbltjSF1bY0hdYzFbTkhdQyg9TylbTkhdW0NIMl1bQ0BIXShbQ0BASF0yW0NIMl1bQ0gyXU9bQ0gyXTIpTjNbQ0gyXVtDSDJdT1tDSDJdW0NIMl0z

> <s_epik_cmdline>
J2VwaWtfcHl0aG9uJywgJy1waCcsICc3LjAnLCAnLXRuJywgJzgnLCAnLW1hJywgJzIwMCcsICctbWV0YWxfYmluZGluZycsICctaW1hZScsICc8aW5maWxlLm1hZT4nLCAnLW9tYWUnLCAnPG91dGZpbGUubWFlPic=

> <r_epik_Ionization_Penalty>
2.08105

> <r_epik_Ionization_Penalty_Charging>
2.08103

> <r_epik_Ionization_Penalty_Neutral>
2.04144e-05

> <r_epik_State_Penalty>
2.15598

> <r_epik_Charging_Adjusted_Penalty>
4.23701

> <i_epik_Tot_Q>
2

> <i_epik_Tot_abs_Q>
2

> <r_epik_Metal_State_Penalty>
2.25158

> <b_epik_Metal_Only>
0

> <s_lp_Force_Field>
OPLS_2005

> <r_lp_Energy>
50.7828

> <b_lp_Chiralities_Consistent>
1

> <s_lp_Variant>
AV-unprocessed.smi:1240-13

> <Gold.Version>
5.8.1

> <Gold.Id.Protein>
6NUR|6NUR_protein|mol2

> <Gold.PLP.Fitness>
48.3204

> <Gold.PLP.PLP>
-39.1329

> <Gold.PLP.part.hbond>
-3.0243

> <Gold.PLP.part.metal>
0.0000

> <Gold.PLP.part.buried>
-5.0459

> <Gold.PLP.part.nonpolar>
-32.5837

> <Gold.PLP.part.repulsive>
0.6297

> <Gold.PLP.ligand.clash>
0.0000

> <Gold.PLP.ligand.torsion>
1.2884

> <Gold.PLP.Chemscore.Hbond>
3.8320

> <Gold.PLP.Chemscore.CHOScore>
0.0000

> <Gold.PLP.Chemscore.Metal>
0.0000

> <Gold.Chemscore.Hbonds>
donor molecule, donor type, donor heavy atom, donor atom, acceptor molecule, acceptor atom, score
      L1  H     3    24       P1  7948  0.99
      L1  H    17    43       P1  7948  0.83
      L1  H    21    49       P1  8028  2.00

> <Gold.PLP.Chemscore.Internal.Correction>
0.2684

> <Gold.Rescore>
     Score         DG    S(hbond)    S(metal)    S(lipo)     H(rot)  DE(clash)    DE(int)     intcor
     18.95     -21.63       2.95        0.00      92.07       1.74       0.26       2.42       ----

> <Gold.Chemscore.Fitness>
18.9545

> <Gold.Chemscore.DG>
-21.6338

> <Gold.Chemscore.ZeroCoef>
-5.4800

> <Gold.Chemscore.Hbond>
2.9463

> <Gold.Chemscore.Metal>
0.0000

> <Gold.Chemscore.Lipo>
92.0744

> <Gold.Chemscore.Internal_Hbond>
0.0000

> <Gold.Chemscore.DEClash>
0.2560

> <Gold.Chemscore.DEInternal>
2.4233

> <Gold.Chemscore.Rot>
1.7421

> <Gold.Chemscore.Internal.Correction>
   9.000000E+99

> <Gold.Chemscore.Hbonds>
donor molecule, donor type, donor heavy atom, donor atom, acceptor molecule, acceptor atom, score
      L1  H     3    24       P1  7948  0.92
      L1  H    17    43       P1  7948  0.79
      L1  H    21    49       P1  8028  0.99

> <Gold.Chemscore.Hbond.Weighted>
-9.8408

> <Gold.Chemscore.Metal.Weighted>
-0.0000

> <Gold.Chemscore.Lipo.Weighted>
-10.7727

> <Gold.Chemscore.Internal_Hbond.Weighted>
0.0000

> <Gold.Chemscore.DEClash.Weighted>
0.2560

> <Gold.Chemscore.DEInternal.Weighted>
2.4233

> <Gold.Chemscore.Rot.Weighted>
4.4597

> <Gold.Chemscore.Internal.Correction.Weighted>
   9.000000E+99

> <Gold.Protein.RotatedTorsions>
[ 6907 6896 6895 6894 ] final  101.41 input  -60.11 | X-H torsion
[ 7974 7965 7964 7962 ] final   92.70 input  175.53 | X-H torsion
[ 8008 7997 7996 7995 ] final   33.74 input   59.86 | X-H torsion
[ 10167 10162 10161 10158 ] final  174.54 input  -65.29 | X-H torsion
[ 10718 10713 10712 10709 ] final  100.75 input   66.30 | X-H torsion
[ 10763 10752 10751 10750 ] final  -56.04 input  -60.55 | X-H torsion
[ 11005 11000 10999 10996 ] final -103.47 input  -57.11 | X-H torsion

> <Gold.Protein.ActiveResidues>
 VAL166  LYS551  ARG553  GLY616  TRP617  ASP618  TYR619  PRO620  LYS621  CYS622 
 ASP623  PHE694  ASN695  SER759  ASP760  ASP761  ALA762  ILE779  LEU786  VAL792 
 PHE793  MET794  SER795  GLU796  ALA797  LYS798  CYS799  TRP800  GLU811  SER814 

> <Gold.Protein.RotatedAtoms>
  152.5350  134.0131  159.7947 H   0  0  0  0  0  0  0  0  0  0  0  0  # atno 6907 bound_to 6896
  151.0330  133.5766  159.2666 H   0  0  0  0  0  0  0  0  0  0  0  0  # atno 6908 bound_to 6896
  151.2764  135.0707  159.9206 H   0  0  0  0  0  0  0  0  0  0  0  0  # atno 6909 bound_to 6896
  145.4887  139.2277  143.2842 H   0  0  0  0  0  0  0  0  0  0  0  0  # atno 7974 bound_to 7965
  155.1435  140.3268  155.4447 H   0  0  0  0  0  0  0  0  0  0  0  0  # atno 8008 bound_to 7997
  156.2597  140.1989  156.6500 H   0  0  0  0  0  0  0  0  0  0  0  0  # atno 8009 bound_to 7997
  154.6525  140.0557  156.9958 H   0  0  0  0  0  0  0  0  0  0  0  0  # atno 8010 bound_to 7997
  139.5145  144.3134  152.0270 H   0  0  0  0  0  0  0  0  0  0  0  0  # atno 10167 bound_to 10162
  157.6846  131.0707  150.5148 H   0  0  0  0  0  0  0  0  0  0  0  0  # atno 10718 bound_to 10713
  154.2003  135.6412  153.5085 H   0  0  0  0  0  0  0  0  0  0  0  0  # atno 10763 bound_to 10752
  153.0013  135.5450  154.6322 H   0  0  0  0  0  0  0  0  0  0  0  0  # atno 10764 bound_to 10752
  154.5733  135.2919  155.0778 H   0  0  0  0  0  0  0  0  0  0  0  0  # atno 10765 bound_to 10752
  141.1144  133.8643  157.1490 H   0  0  0  0  0  0  0  0  0  0  0  0  # atno 11005 bound_to 11000
  146.2297  140.5680  142.8981 LP  0  0  0  0  0  0  0  0  0  0  0  0  # atno 17320 bound_to 7965
  144.7846  140.5910  143.6582 LP  0  0  0  0  0  0  0  0  0  0  0  0  # atno 17321 bound_to 7965
  140.2578  144.4100  150.6197 LP  0  0  0  0  0  0  0  0  0  0  0  0  # atno 17342 bound_to 10162
  140.6179  143.2174  151.6755 LP  0  0  0  0  0  0  0  0  0  0  0  0  # atno 17343 bound_to 10162
  156.5463  130.4220  149.6129 LP  0  0  0  0  0  0  0  0  0  0  0  0  # atno 17370 bound_to 10713
  156.2941  130.7140  151.1996 LP  0  0  0  0  0  0  0  0  0  0  0  0  # atno 17371 bound_to 10713
  140.0057  135.0009  157.0287 LP  0  0  0  0  0  0  0  0  0  0  0  0  # atno 17394 bound_to 11000
  140.4687  134.1409  155.7200 LP  0  0  0  0  0  0  0  0  0  0  0  0  # atno 17395 bound_to 11000

$$$$
