AV-unprocessed.smi:2492|AV-procd|sdf|9811|dock2
  -GOLD-   2272013443D 1   1.00000     0.00000
 Structure written by MMmdl.
 33 34  0  0  0  0  0  0  0  0  1 V2000
  151.9428  144.3652  157.8758 C   0  0  0  0  0  0  0  0  0  0  0  0
  151.8273  144.8846  159.6081 S   0  0  0  0  0  0  0  0  0  0  0  0
  152.1723  143.3080  160.4401 C   0  0  2  0  0  0  0  0  0  0  0  0
  152.5287  143.4909  161.9130 C   0  0  0  0  0  0  0  0  0  0  0  0
  153.2490  142.1959  162.2909 C   0  0  0  0  0  0  0  0  0  0  0  0
  153.9376  141.7022  161.0040 C   0  0  1  0  0  0  0  0  0  0  0  0
  153.6475  140.2891  160.7677 N   0  0  0  0  0  0  0  0  0  0  0  0
  154.1258  139.5491  159.7566 C   0  0  0  0  0  0  0  0  0  0  0  0
  154.8799  139.9853  158.8865 O   0  0  0  0  0  0  0  0  0  0  0  0
  153.6725  138.2859  159.8237 N   0  0  0  0  0  0  0  0  0  0  0  0
  153.9834  137.2066  158.9583 C   0  0  0  0  0  0  0  0  0  0  0  0
  153.9923  135.9117  159.2750 N   0  0  0  0  0  0  0  0  0  0  0  0
  154.3441  135.3583  158.0821 C   0  0  0  0  0  0  0  0  0  0  0  0
  154.4957  133.8875  157.8930 C   0  0  0  0  0  0  0  0  0  0  0  0
  154.5463  136.2101  157.0831 N   0  0  0  0  0  0  0  0  0  0  0  0
  154.3034  137.4617  157.6683 O   0  0  0  0  0  0  0  0  0  0  0  0
  153.3837  142.5713  159.8599 C   0  0  0  0  0  0  0  0  0  0  0  0
  151.7339  145.2088  157.2179 H   0  0  0  0  0  0  0  0  0  0  0  0
  151.2203  143.5764  157.6657 H   0  0  0  0  0  0  0  0  0  0  0  0
  152.9423  143.9929  157.6512 H   0  0  0  0  0  0  0  0  0  0  0  0
  151.2908  142.6690  160.3691 H   0  0  0  0  0  0  0  0  0  0  0  0
  153.2115  144.3339  162.0306 H   0  0  0  0  0  0  0  0  0  0  0  0
  151.6543  143.6808  162.5364 H   0  0  0  0  0  0  0  0  0  0  0  0
  153.9594  142.3487  163.1041 H   0  0  0  0  0  0  0  0  0  0  0  0
  152.5133  141.4691  162.6392 H   0  0  0  0  0  0  0  0  0  0  0  0
  155.0127  141.8731  161.0848 H   0  0  0  0  0  0  0  0  0  0  0  0
  153.0331  139.8402  161.4309 H   0  0  0  0  0  0  0  0  0  0  0  0
  153.0462  138.0671  160.5843 H   0  0  0  0  0  0  0  0  0  0  0  0
  154.7980  133.6536  156.8714 H   0  0  0  0  0  0  0  0  0  0  0  0
  153.5512  133.3829  158.0972 H   0  0  0  0  0  0  0  0  0  0  0  0
  155.2517  133.4966  158.5744 H   0  0  0  0  0  0  0  0  0  0  0  0
  153.1267  141.9965  158.9691 H   0  0  0  0  0  0  0  0  0  0  0  0
  154.1460  143.2931  159.5628 H   0  0  0  0  0  0  0  0  0  0  0  0
  1  2  1  0  0  0  0
  1 18  1  0  0  0  0
  1 19  1  0  0  0  0
  1 20  1  0  0  0  0
  2  3  1  0  0  0  0
  3 17  1  0  0  0  0
  3  4  1  0  0  0  0
  3 21  1  0  0  0  0
  4  5  1  0  0  0  0
  4 22  1  0  0  0  0
  4 23  1  0  0  0  0
  5  6  1  0  0  0  0
  5 24  1  0  0  0  0
  5 25  1  0  0  0  0
  6  7  1  0  0  0  0
  6 17  1  0  0  0  0
  6 26  1  0  0  0  0
  7  8  1  0  0  0  0
  7 27  1  0  0  0  0
  8  9  2  0  0  0  0
  8 10  1  0  0  0  0
 10 11  1  0  0  0  0
 10 28  1  0  0  0  0
 11 16  1  0  0  0  0
 11 12  2  0  0  0  0
 12 13  1  0  0  0  0
 13 14  1  0  0  0  0
 13 15  2  0  0  0  0
 14 29  1  0  0  0  0
 14 30  1  0  0  0  0
 14 31  1  0  0  0  0
 15 16  1  0  0  0  0
 17 32  1  0  0  0  0
 17 33  1  0  0  0  0
M  END
> <s_m_source_file>
AV-unprocessed.smi

> <i_m_source_file_index>
2492

> <i_lp_mmshare_version>
43012

> <i_f3d_flags>
0

> <s_epik_input>
W0NIM11TW0NAQEhdMVtDSDJdW0NIMl1bQ0BIXShbQ0gyXTEpW05IXUMoPU8pW05IXWMybmMoW0NIM10pbm8y

> <s_epik_cmdline>
J2VwaWtfcHl0aG9uJywgJy1waCcsICc3LjAnLCAnLXRuJywgJzgnLCAnLW1hJywgJzIwMCcsICctbWV0YWxfYmluZGluZycsICctaW1hZScsICc8aW5maWxlLm1hZT4nLCAnLW9tYWUnLCAnPG91dGZpbGUubWFlPic=

> <r_lp_tautomer_probability>
1

> <r_epik_Ionization_Penalty>
3.56659e-05

> <r_epik_Ionization_Penalty_Charging>
0

> <r_epik_Ionization_Penalty_Neutral>
3.56659e-05

> <r_epik_State_Penalty>
-0

> <r_epik_Charging_Adjusted_Penalty>
0

> <i_epik_Tot_Q>
0

> <i_epik_Tot_abs_Q>
0

> <r_epik_Metal_State_Penalty>
0.0146047

> <b_epik_Metal_Only>
0

> <s_lp_Force_Field>
OPLS_2005

> <r_lp_Energy>
14.5779

> <b_lp_Chiralities_Consistent>
1

> <s_lp_Variant>
AV-unprocessed.smi:2492-1

> <Gold.Version>
5.8.1

> <Gold.Id.Protein>
6NUR|6NUR_protein|mol2

> <Gold.PLP.Fitness>
43.9986

> <Gold.PLP.PLP>
-35.5733

> <Gold.PLP.part.hbond>
-2.9998

> <Gold.PLP.part.metal>
0.0000

> <Gold.PLP.part.buried>
-2.9749

> <Gold.PLP.part.nonpolar>
-29.8311

> <Gold.PLP.part.repulsive>
0.1242

> <Gold.PLP.ligand.clash>
0.0000

> <Gold.PLP.ligand.torsion>
0.2908

> <Gold.PLP.Chemscore.Hbond>
3.0000

> <Gold.PLP.Chemscore.CHOScore>
0.0000

> <Gold.PLP.Chemscore.Metal>
0.0000

> <Gold.Chemscore.Hbonds>
donor molecule, donor type, donor heavy atom, donor atom, acceptor molecule, acceptor atom, score
      P1  H  6896  6908       L1    12  0.81
      P1  H  7997  8010       L1     9  1.00
      P1  H 10752 10765       L1    15  1.00

> <Gold.PLP.Chemscore.Internal.Correction>
0.0070

> <Gold.Rescore>
     Score         DG    S(hbond)    S(metal)    S(lipo)     H(rot)  DE(clash)    DE(int)     intcor
     19.87     -21.50       2.69        0.00      88.21       1.28       0.05       1.58       ----

> <Gold.Chemscore.Fitness>
19.8740

> <Gold.Chemscore.DG>
-21.5013

> <Gold.Chemscore.ZeroCoef>
-5.4800

> <Gold.Chemscore.Hbond>
2.6890

> <Gold.Chemscore.Metal>
0.0000

> <Gold.Chemscore.Lipo>
88.2105

> <Gold.Chemscore.Internal_Hbond>
0.0000

> <Gold.Chemscore.DEClash>
0.0484

> <Gold.Chemscore.DEInternal>
1.5789

> <Gold.Chemscore.Rot>
1.2815

> <Gold.Chemscore.Internal.Correction>
   9.000000E+99

> <Gold.Chemscore.Hbonds>
donor molecule, donor type, donor heavy atom, donor atom, acceptor molecule, acceptor atom, score
      P1  H  6896  6908       L1    12  0.44
      P1  H  7997  8010       L1     9  0.92
      P1  H 10752 10765       L1    15  0.68

> <Gold.Chemscore.Hbond.Weighted>
-8.9814

> <Gold.Chemscore.Metal.Weighted>
-0.0000

> <Gold.Chemscore.Lipo.Weighted>
-10.3206

> <Gold.Chemscore.Internal_Hbond.Weighted>
0.0000

> <Gold.Chemscore.DEClash.Weighted>
0.0484

> <Gold.Chemscore.DEInternal.Weighted>
1.5789

> <Gold.Chemscore.Rot.Weighted>
3.2808

> <Gold.Chemscore.Internal.Correction.Weighted>
   9.000000E+99

> <Gold.Protein.RotatedTorsions>
[ 6907 6896 6895 6894 ] final  -66.19 input  -60.11 | X-H torsion
[ 7974 7965 7964 7962 ] final -141.59 input  175.53 | X-H torsion
[ 8008 7997 7996 7995 ] final  -10.16 input   59.86 | X-H torsion
[ 10167 10162 10161 10158 ] final   86.47 input  -65.29 | X-H torsion
[ 10718 10713 10712 10709 ] final -168.36 input   66.30 | X-H torsion
[ 10763 10752 10751 10750 ] final  -87.74 input  -60.55 | X-H torsion
[ 11005 11000 10999 10996 ] final   56.64 input  -57.11 | X-H torsion

> <Gold.Protein.ActiveResidues>
 VAL166  LYS551  ARG553  GLY616  TRP617  ASP618  TYR619  PRO620  LYS621  CYS622 
 ASP623  PHE694  ASN695  SER759  ASP760  ASP761  ALA762  ILE779  LEU786  VAL792 
 PHE793  MET794  SER795  GLU796  ALA797  LYS798  CYS799  TRP800  GLU811  SER814 

> <Gold.Protein.RotatedAtoms>
  150.7480  134.6055  159.6058 H   0  0  0  0  0  0  0  0  0  0  0  0  # atno 6907 bound_to 6896
  152.3404  134.7138  160.0274 H   0  0  0  0  0  0  0  0  0  0  0  0  # atno 6908 bound_to 6896
  151.7592  133.3296  159.3449 H   0  0  0  0  0  0  0  0  0  0  0  0  # atno 6909 bound_to 6896
  144.8508  140.6062  143.5391 H   0  0  0  0  0  0  0  0  0  0  0  0  # atno 7974 bound_to 7965
  154.5580  140.2336  155.8380 H   0  0  0  0  0  0  0  0  0  0  0  0  # atno 8008 bound_to 7997
  156.2005  140.3054  155.9476 H   0  0  0  0  0  0  0  0  0  0  0  0  # atno 8009 bound_to 7997
  155.2943  140.0428  157.3016 H   0  0  0  0  0  0  0  0  0  0  0  0  # atno 8010 bound_to 7997
  139.8872  144.6406  150.8778 H   0  0  0  0  0  0  0  0  0  0  0  0  # atno 10167 bound_to 10162
  156.6957  130.9177  151.3074 H   0  0  0  0  0  0  0  0  0  0  0  0  # atno 10718 bound_to 10713
  154.6370  135.5402  153.7745 H   0  0  0  0  0  0  0  0  0  0  0  0  # atno 10763 bound_to 10752
  153.0313  135.6450  154.1217 H   0  0  0  0  0  0  0  0  0  0  0  0  # atno 10764 bound_to 10752
  154.1143  135.2924  155.3203 H   0  0  0  0  0  0  0  0  0  0  0  0  # atno 10765 bound_to 10752
  140.0514  134.5732  155.9260 H   0  0  0  0  0  0  0  0  0  0  0  0  # atno 11005 bound_to 11000
  145.4504  139.1524  143.3921 LP  0  0  0  0  0  0  0  0  0  0  0  0  # atno 17320 bound_to 7965
  146.2783  140.4630  142.8786 LP  0  0  0  0  0  0  0  0  0  0  0  0  # atno 17321 bound_to 7965
  140.7733  143.3539  151.1960 LP  0  0  0  0  0  0  0  0  0  0  0  0  # atno 17342 bound_to 10162
  139.7142  143.9327  152.2960 LP  0  0  0  0  0  0  0  0  0  0  0  0  # atno 17343 bound_to 10162
  157.6992  130.9314  150.0734 LP  0  0  0  0  0  0  0  0  0  0  0  0  # atno 17370 bound_to 10713
  156.1765  130.3648  149.9093 LP  0  0  0  0  0  0  0  0  0  0  0  0  # atno 17371 bound_to 10713
  141.1932  133.6578  156.5536 LP  0  0  0  0  0  0  0  0  0  0  0  0  # atno 17394 bound_to 11000
  140.3912  134.7438  157.4723 LP  0  0  0  0  0  0  0  0  0  0  0  0  # atno 17395 bound_to 11000

$$$$
