AV-unprocessed.smi:1669|AV-procd|sdf|6689|dock9
  -GOLD-   22720 7413D 1   1.00000     0.00000
 Structure written by MMmdl.
 49 51  0  0  0  0  0  0  0  0  3 V2000
  149.1039  138.1618  154.7824 C   0  0  0  0  0  0  0  0  0  0  0  0
  149.0348  136.6834  154.7130 N   0  3  1  0  0  0  0  0  0  0  0  0
  150.3075  136.0315  155.1156 C   0  0  0  0  0  0  0  0  0  0  0  0
  150.1783  134.5203  155.1621 C   0  0  0  0  0  0  0  0  0  0  0  0
  149.5339  133.8371  154.1090 C   0  0  0  0  0  0  0  0  0  0  0  0
  149.4115  132.4345  154.1459 C   0  0  0  0  0  0  0  0  0  0  0  0
  149.9318  131.7103  155.2360 C   0  0  0  0  0  0  0  0  0  0  0  0
  150.5735  132.3890  156.2900 C   0  0  0  0  0  0  0  0  0  0  0  0
  150.6957  133.7918  156.2543 C   0  0  0  0  0  0  0  0  0  0  0  0
  147.8562  136.1438  155.4366 C   0  0  0  0  0  0  0  0  0  0  0  0
  146.5987  136.0937  154.5405 C   0  0  2  0  0  0  0  0  0  0  0  0
  145.4659  135.9194  155.3657 O   0  0  0  0  0  0  0  0  0  0  0  0
  146.6149  134.9422  153.5143 C   0  0  0  0  0  0  0  0  0  0  0  0
  145.9152  135.2765  152.2642 N   0  0  0  0  0  0  0  0  0  0  0  0
  145.7436  136.4749  151.6318 C   0  0  0  0  0  0  0  0  0  0  0  0
  146.2494  137.8107  152.0758 C   0  0  0  0  0  0  0  0  0  0  0  0
  147.1980  138.3598  151.1866 O   0  0  0  0  0  0  0  0  0  0  0  0
  145.0149  136.2325  150.5048 N   0  3  0  0  0  0  0  0  0  0  0  0
  144.7195  134.8724  150.4130 C   0  0  0  0  0  0  0  0  0  0  0  0
  144.0071  134.1565  149.4561 C   0  0  0  0  0  0  0  0  0  0  0  0
  143.8912  132.7660  149.6626 C   0  0  0  0  0  0  0  0  0  0  0  0
  144.4732  132.1392  150.7835 C   0  0  0  0  0  0  0  0  0  0  0  0
  145.1940  132.8758  151.7467 C   0  0  0  0  0  0  0  0  0  0  0  0
  145.2999  134.2507  151.5372 C   0  0  0  0  0  0  0  0  0  0  0  0
  149.2511  138.4981  155.8095 H   0  0  0  0  0  0  0  0  0  0  0  0
  148.1838  138.6093  154.4052 H   0  0  0  0  0  0  0  0  0  0  0  0
  149.9215  138.5488  154.1744 H   0  0  0  0  0  0  0  0  0  0  0  0
  151.1103  136.3270  154.4379 H   0  0  0  0  0  0  0  0  0  0  0  0
  150.6137  136.3636  156.1076 H   0  0  0  0  0  0  0  0  0  0  0  0
  149.1333  134.3864  153.2693 H   0  0  0  0  0  0  0  0  0  0  0  0
  148.9182  131.9135  153.3383 H   0  0  0  0  0  0  0  0  0  0  0  0
  149.8380  130.6346  155.2642 H   0  0  0  0  0  0  0  0  0  0  0  0
  150.9714  131.8335  157.1265 H   0  0  0  0  0  0  0  0  0  0  0  0
  151.1897  134.3047  157.0666 H   0  0  0  0  0  0  0  0  0  0  0  0
  148.1102  135.1560  155.8229 H   0  0  0  0  0  0  0  0  0  0  0  0
  147.6335  136.7597  156.3096 H   0  0  0  0  0  0  0  0  0  0  0  0
  146.4753  137.0356  154.0077 H   0  0  0  0  0  0  0  0  0  0  0  0
  144.9185  135.2444  154.9928 H   0  0  0  0  0  0  0  0  0  0  0  0
  147.6403  134.6709  153.2612 H   0  0  0  0  0  0  0  0  0  0  0  0
  146.1576  134.0429  153.9298 H   0  0  0  0  0  0  0  0  0  0  0  0
  145.4193  138.5109  152.1666 H   0  0  0  0  0  0  0  0  0  0  0  0
  146.7002  137.7103  153.0634 H   0  0  0  0  0  0  0  0  0  0  0  0
  147.7513  138.9571  151.6674 H   0  0  0  0  0  0  0  0  0  0  0  0
  143.5622  134.6338  148.5949 H   0  0  0  0  0  0  0  0  0  0  0  0
  143.3464  132.1684  148.9458 H   0  0  0  0  0  0  0  0  0  0  0  0
  144.3650  131.0711  150.9067 H   0  0  0  0  0  0  0  0  0  0  0  0
  145.6377  132.3843  152.6000 H   0  0  0  0  0  0  0  0  0  0  0  0
  148.8852  136.4555  153.7400 H   0  0  0  0  0  0  0  0  0  0  0  0
  144.7398  136.9529  149.8491 H   0  0  0  0  0  0  0  0  0  0  0  0
  1  2  1  0  0  0  0
  1 25  1  0  0  0  0
  1 26  1  0  0  0  0
  1 27  1  0  0  0  0
  2  3  1  0  0  0  0
  2 10  1  0  0  0  0
  2 48  1  0  0  0  0
  3  4  1  0  0  0  0
  3 28  1  0  0  0  0
  3 29  1  0  0  0  0
  4  9  1  0  0  0  0
  4  5  2  0  0  0  0
  5  6  1  0  0  0  0
  5 30  1  0  0  0  0
  6  7  2  0  0  0  0
  6 31  1  0  0  0  0
  7  8  1  0  0  0  0
  7 32  1  0  0  0  0
  8  9  2  0  0  0  0
  8 33  1  0  0  0  0
  9 34  1  0  0  0  0
 10 11  1  0  0  0  0
 10 35  1  0  0  0  0
 10 36  1  0  0  0  0
 11 12  1  0  0  0  0
 11 13  1  0  0  0  0
 11 37  1  0  0  0  0
 12 38  1  0  0  0  0
 13 14  1  0  0  0  0
 13 39  1  0  0  0  0
 13 40  1  0  0  0  0
 14 24  1  0  0  0  0
 14 15  1  0  0  0  0
 15 16  1  0  0  0  0
 15 18  2  0  0  0  0
 16 17  1  0  0  0  0
 16 41  1  0  0  0  0
 16 42  1  0  0  0  0
 17 43  1  0  0  0  0
 18 19  1  0  0  0  0
 18 49  1  0  0  0  0
 19 24  2  0  0  0  0
 19 20  1  0  0  0  0
 20 21  2  0  0  0  0
 20 44  1  0  0  0  0
 21 22  1  0  0  0  0
 21 45  1  0  0  0  0
 22 23  2  0  0  0  0
 22 46  1  0  0  0  0
 23 24  1  0  0  0  0
 23 47  1  0  0  0  0
M  CHG  1   2   1
M  CHG  1  18   1
M  END
> <s_m_source_file>
AV-unprocessed.smi

> <i_m_source_file_index>
1669

> <i_lp_mmshare_version>
43012

> <i_f3d_flags>
0

> <s_epik_input>
W2NIXTFbY0hdW2NIXVtjSF1bY0hdYzFbQ0gyXU4oW0NIM10pW0NIMl1bQ0BIXShbT0hdKVtDSDJdbihjKG4yKVtDSDJdW09IXSljKGMyMylbY0hdW2NIXVtjSF1bY0hdMw==

> <s_epik_cmdline>
J2VwaWtfcHl0aG9uJywgJy1waCcsICc3LjAnLCAnLXRuJywgJzgnLCAnLW1hJywgJzIwMCcsICctbWV0YWxfYmluZGluZycsICctaW1hZScsICc8aW5maWxlLm1hZT4nLCAnLW9tYWUnLCAnPG91dGZpbGUubWFlPic=

> <r_epik_Ionization_Penalty>
1.57484

> <r_epik_Ionization_Penalty_Charging>
1.57398

> <r_epik_Ionization_Penalty_Neutral>
0.000858917

> <r_epik_State_Penalty>
1.64997

> <r_epik_Charging_Adjusted_Penalty>
3.22395

> <i_epik_Tot_Q>
2

> <i_epik_Tot_abs_Q>
2

> <r_epik_Metal_State_Penalty>
5.70481

> <b_epik_Metal_Only>
0

> <s_lp_Force_Field>
OPLS_2005

> <r_lp_Energy>
24.1241

> <b_lp_Chiralities_Consistent>
1

> <s_lp_Variant>
AV-unprocessed.smi:1669-7

> <Gold.Version>
5.8.1

> <Gold.Id.Protein>
6NUR|6NUR_protein|mol2

> <Gold.PLP.Fitness>
51.5637

> <Gold.PLP.PLP>
-41.8552

> <Gold.PLP.part.hbond>
-5.0000

> <Gold.PLP.part.metal>
0.0000

> <Gold.PLP.part.buried>
0.7496

> <Gold.PLP.part.nonpolar>
-36.6882

> <Gold.PLP.part.repulsive>
0.0831

> <Gold.PLP.ligand.clash>
0.0000

> <Gold.PLP.ligand.torsion>
1.5580

> <Gold.PLP.Chemscore.Hbond>
4.2169

> <Gold.PLP.Chemscore.CHOScore>
0.0000

> <Gold.PLP.Chemscore.Metal>
0.0000

> <Gold.Chemscore.Hbonds>
donor molecule, donor type, donor heavy atom, donor atom, acceptor molecule, acceptor atom, score
      L1  H     2    48       P1  7948  2.00
      L1  H    17    43       P1  7957  0.42
      L1  H    18    49       P1 10171  0.83
      P1  H  7954  7966       L1    17  1.00

> <Gold.PLP.Chemscore.Internal.Correction>
0.1735

> <Gold.Rescore>
     Score         DG    S(hbond)    S(metal)    S(lipo)     H(rot)  DE(clash)    DE(int)     intcor
     14.19     -18.87       3.04        0.00      99.33       3.27       2.23       2.46       ----

> <Gold.Chemscore.Fitness>
14.1851

> <Gold.Chemscore.DG>
-18.8735

> <Gold.Chemscore.ZeroCoef>
-5.4800

> <Gold.Chemscore.Hbond>
3.0381

> <Gold.Chemscore.Metal>
0.0000

> <Gold.Chemscore.Lipo>
99.3347

> <Gold.Chemscore.Internal_Hbond>
0.0000

> <Gold.Chemscore.DEClash>
2.2319

> <Gold.Chemscore.DEInternal>
2.4565

> <Gold.Chemscore.Rot>
3.2718

> <Gold.Chemscore.Internal.Correction>
   9.000000E+99

> <Gold.Chemscore.Hbonds>
donor molecule, donor type, donor heavy atom, donor atom, acceptor molecule, acceptor atom, score
      L1  H     2    48       P1  7948  1.00
      L1  H    17    43       P1  7957  0.37
      L1  H    18    49       P1 10171  0.83
      P1  H  7954  7966       L1    17  0.39

> <Gold.Chemscore.Hbond.Weighted>
-10.1472

> <Gold.Chemscore.Metal.Weighted>
-0.0000

> <Gold.Chemscore.Lipo.Weighted>
-11.6222

> <Gold.Chemscore.Internal_Hbond.Weighted>
0.0000

> <Gold.Chemscore.DEClash.Weighted>
2.2319

> <Gold.Chemscore.DEInternal.Weighted>
2.4565

> <Gold.Chemscore.Rot.Weighted>
8.3759

> <Gold.Chemscore.Internal.Correction.Weighted>
   9.000000E+99

> <Gold.Protein.RotatedTorsions>
[ 6907 6896 6895 6894 ] final  124.30 input  -60.11 | X-H torsion
[ 7974 7965 7964 7962 ] final -127.85 input  175.53 | X-H torsion
[ 8008 7997 7996 7995 ] final  -86.68 input   59.86 | X-H torsion
[ 10167 10162 10161 10158 ] final  -39.67 input  -65.29 | X-H torsion
[ 10718 10713 10712 10709 ] final  -15.97 input   66.30 | X-H torsion
[ 10763 10752 10751 10750 ] final -124.54 input  -60.55 | X-H torsion
[ 11005 11000 10999 10996 ] final  -83.90 input  -57.11 | X-H torsion

> <Gold.Protein.ActiveResidues>
 VAL166  LYS551  ARG553  GLY616  TRP617  ASP618  TYR619  PRO620  LYS621  CYS622 
 ASP623  PHE694  ASN695  SER759  ASP760  ASP761  ALA762  ILE779  LEU786  VAL792 
 PHE793  MET794  SER795  GLU796  ALA797  LYS798  CYS799  TRP800  GLU811  SER814 

> <Gold.Protein.RotatedAtoms>
  152.4090  133.6933  159.6380 H   0  0  0  0  0  0  0  0  0  0  0  0  # atno 6907 bound_to 6896
  150.7972  133.8658  159.3253 H   0  0  0  0  0  0  0  0  0  0  0  0  # atno 6908 bound_to 6896
  151.6405  135.1015  160.0192 H   0  0  0  0  0  0  0  0  0  0  0  0  # atno 6909 bound_to 6896
  144.9729  140.7564  143.4659 H   0  0  0  0  0  0  0  0  0  0  0  0  # atno 7974 bound_to 7965
  154.6547  140.0575  156.9995 H   0  0  0  0  0  0  0  0  0  0  0  0  # atno 8008 bound_to 7997
  155.1319  140.3257  155.4453 H   0  0  0  0  0  0  0  0  0  0  0  0  # atno 8009 bound_to 7997
  156.2591  140.1979  156.6438 H   0  0  0  0  0  0  0  0  0  0  0  0  # atno 8010 bound_to 7997
  140.7057  143.3200  151.2815 H   0  0  0  0  0  0  0  0  0  0  0  0  # atno 10167 bound_to 10162
  156.5943  130.4807  149.6266 H   0  0  0  0  0  0  0  0  0  0  0  0  # atno 10718 bound_to 10713
  154.8724  135.4060  154.3123 H   0  0  0  0  0  0  0  0  0  0  0  0  # atno 10763 bound_to 10752
  153.3965  135.7016  153.6462 H   0  0  0  0  0  0  0  0  0  0  0  0  # atno 10764 bound_to 10752
  153.5223  135.3684  155.2609 H   0  0  0  0  0  0  0  0  0  0  0  0  # atno 10765 bound_to 10752
  141.1654  133.7318  156.8788 H   0  0  0  0  0  0  0  0  0  0  0  0  # atno 11005 bound_to 11000
  145.2532  139.2023  143.4931 LP  0  0  0  0  0  0  0  0  0  0  0  0  # atno 17320 bound_to 7965
  146.3387  140.2449  142.8597 LP  0  0  0  0  0  0  0  0  0  0  0  0  # atno 17321 bound_to 7965
  139.6651  144.0120  152.2717 LP  0  0  0  0  0  0  0  0  0  0  0  0  # atno 17342 bound_to 10162
  139.9700  144.6500  150.7998 LP  0  0  0  0  0  0  0  0  0  0  0  0  # atno 17343 bound_to 10162
  156.2523  130.6914  151.1656 LP  0  0  0  0  0  0  0  0  0  0  0  0  # atno 17370 bound_to 10713
  157.7296  131.0623  150.5767 LP  0  0  0  0  0  0  0  0  0  0  0  0  # atno 17371 bound_to 10713
  140.1729  134.9087  157.2855 LP  0  0  0  0  0  0  0  0  0  0  0  0  # atno 17394 bound_to 11000
  140.2481  134.3715  155.7453 LP  0  0  0  0  0  0  0  0  0  0  0  0  # atno 17395 bound_to 11000

$$$$
