AV-unprocessed.smi:1269|AV-procd|sdf|5329|dock10
  -GOLD-   22720 4463D 1   1.00000     0.00000
 Structure written by MMmdl.
 44 45  0  0  0  0  0  0  0  0  2 V2000
  151.2477  141.8738  157.6773 C   0  0  0  0  0  0  0  0  0  0  0  0
  150.8489  141.7145  156.3202 O   0  0  0  0  0  0  0  0  0  0  0  0
  150.5130  140.4506  155.8803 C   0  0  0  0  0  0  0  0  0  0  0  0
  150.2590  139.4488  156.8377 C   0  0  0  0  0  0  0  0  0  0  0  0
  149.9128  138.1568  156.3980 C   0  0  0  0  0  0  0  0  0  0  0  0
  149.8377  137.9033  155.0067 C   0  0  0  0  0  0  0  0  0  0  0  0
  149.4856  136.6536  154.4255 N   0  0  0  0  0  0  0  0  0  0  0  0
  149.3497  135.4517  155.0115 C   0  0  0  0  0  0  0  0  0  0  0  0
  149.5489  135.2082  156.2008 O   0  0  0  0  0  0  0  0  0  0  0  0
  148.9562  134.5242  154.1257 N   0  0  0  0  0  0  0  0  0  0  0  0
  148.7215  133.1069  154.4092 C   0  0  2  0  0  0  0  0  0  0  0  0
  149.9457  132.5323  155.1352 C   0  0  0  0  0  0  0  0  0  0  0  0
  148.4141  132.3172  153.1156 C   0  0  0  0  0  0  0  0  0  0  0  0
  147.0605  132.5952  152.5719 N   0  3  0  0  0  0  0  0  0  0  0  0
  147.0689  133.5660  151.4530 C   0  0  0  0  0  0  0  0  0  0  0  0
  145.6293  133.8685  151.0027 C   0  0  0  0  0  0  0  0  0  0  0  0
  144.9764  132.6584  150.6375 O   0  0  0  0  0  0  0  0  0  0  0  0
  144.8950  131.7450  151.7253 C   0  0  0  0  0  0  0  0  0  0  0  0
  146.3122  131.3731  152.1905 C   0  0  0  0  0  0  0  0  0  0  0  0
  150.1051  138.9774  154.1322 C   0  0  0  0  0  0  0  0  0  0  0  0
  150.4352  140.2183  154.5468 N   0  0  0  0  0  0  0  0  0  0  0  0
  151.4767  142.9228  157.8643 H   0  0  0  0  0  0  0  0  0  0  0  0
  152.1448  141.2943  157.9001 H   0  0  0  0  0  0  0  0  0  0  0  0
  150.4523  141.5811  158.3645 H   0  0  0  0  0  0  0  0  0  0  0  0
  150.3249  139.6689  157.8930 H   0  0  0  0  0  0  0  0  0  0  0  0
  149.7047  137.4016  157.1384 H   0  0  0  0  0  0  0  0  0  0  0  0
  149.3385  136.6755  153.4268 H   0  0  0  0  0  0  0  0  0  0  0  0
  148.8208  134.8185  153.1692 H   0  0  0  0  0  0  0  0  0  0  0  0
  147.8784  133.0139  155.0951 H   0  0  0  0  0  0  0  0  0  0  0  0
  149.7919  131.4844  155.3944 H   0  0  0  0  0  0  0  0  0  0  0  0
  150.1431  133.0728  156.0618 H   0  0  0  0  0  0  0  0  0  0  0  0
  150.8417  132.5933  154.5165 H   0  0  0  0  0  0  0  0  0  0  0  0
  149.1610  132.5900  152.3680 H   0  0  0  0  0  0  0  0  0  0  0  0
  148.5290  131.2445  153.2796 H   0  0  0  0  0  0  0  0  0  0  0  0
  147.5548  134.4909  151.7663 H   0  0  0  0  0  0  0  0  0  0  0  0
  147.6478  133.1627  150.6207 H   0  0  0  0  0  0  0  0  0  0  0  0
  145.0714  134.3713  151.7946 H   0  0  0  0  0  0  0  0  0  0  0  0
  145.6368  134.5395  150.1435 H   0  0  0  0  0  0  0  0  0  0  0  0
  144.3194  132.1822  152.5432 H   0  0  0  0  0  0  0  0  0  0  0  0
  144.3599  130.8527  151.3997 H   0  0  0  0  0  0  0  0  0  0  0  0
  146.8422  130.8502  151.3927 H   0  0  0  0  0  0  0  0  0  0  0  0
  146.2477  130.6861  153.0337 H   0  0  0  0  0  0  0  0  0  0  0  0
  150.0534  138.8379  153.0620 H   0  0  0  0  0  0  0  0  0  0  0  0
  146.5410  133.0336  153.3195 H   0  0  0  0  0  0  0  0  0  0  0  0
  1  2  1  0  0  0  0
  1 22  1  0  0  0  0
  1 23  1  0  0  0  0
  1 24  1  0  0  0  0
  2  3  1  0  0  0  0
  3 21  1  0  0  0  0
  3  4  2  0  0  0  0
  4  5  1  0  0  0  0
  4 25  1  0  0  0  0
  5  6  2  0  0  0  0
  5 26  1  0  0  0  0
  6  7  1  0  0  0  0
  6 20  1  0  0  0  0
  7  8  1  0  0  0  0
  7 27  1  0  0  0  0
  8  9  2  0  0  0  0
  8 10  1  0  0  0  0
 10 11  1  0  0  0  0
 10 28  1  0  0  0  0
 11 12  1  0  0  0  0
 11 13  1  0  0  0  0
 11 29  1  0  0  0  0
 12 30  1  0  0  0  0
 12 31  1  0  0  0  0
 12 32  1  0  0  0  0
 13 14  1  0  0  0  0
 13 33  1  0  0  0  0
 13 34  1  0  0  0  0
 14 19  1  0  0  0  0
 14 15  1  0  0  0  0
 14 44  1  0  0  0  0
 15 16  1  0  0  0  0
 15 35  1  0  0  0  0
 15 36  1  0  0  0  0
 16 17  1  0  0  0  0
 16 37  1  0  0  0  0
 16 38  1  0  0  0  0
 17 18  1  0  0  0  0
 18 19  1  0  0  0  0
 18 39  1  0  0  0  0
 18 40  1  0  0  0  0
 19 41  1  0  0  0  0
 19 42  1  0  0  0  0
 20 21  2  0  0  0  0
 20 43  1  0  0  0  0
M  CHG  1  14   1
M  END
> <s_m_source_file>
AV-unprocessed.smi

> <i_m_source_file_index>
1269

> <i_lp_mmshare_version>
43012

> <i_f3d_flags>
0

> <s_epik_input>
W0NIM11PYzFbY0hdW2NIXWMoW2NIXW4xKVtOSF1DKD1PKVtOSF1bQ0BIXShbQ0gzXSlbQ0gyXU4yW0NIMl1bQ0gyXU9bQ0gyXVtDSDJdMg==

> <s_epik_cmdline>
J2VwaWtfcHl0aG9uJywgJy1waCcsICc3LjAnLCAnLXRuJywgJzgnLCAnLW1hJywgJzIwMCcsICctbWV0YWxfYmluZGluZycsICctaW1hZScsICc8aW5maWxlLm1hZT4nLCAnLW9tYWUnLCAnPG91dGZpbGUubWFlPic=

> <r_lp_tautomer_probability>
1

> <r_epik_Ionization_Penalty>
0.602604

> <r_epik_Ionization_Penalty_Charging>
0.602531

> <r_epik_Ionization_Penalty_Neutral>
7.37831e-05

> <r_epik_State_Penalty>
0.617039

> <r_epik_Charging_Adjusted_Penalty>
1.21957

> <i_epik_Tot_Q>
1

> <i_epik_Tot_abs_Q>
1

> <r_epik_Metal_State_Penalty>
0.617045

> <b_epik_Metal_Only>
0

> <s_lp_Force_Field>
OPLS_2005

> <r_lp_Energy>
25.4267

> <b_lp_Chiralities_Consistent>
1

> <s_lp_Variant>
AV-unprocessed.smi:1269-3

> <Gold.Version>
5.8.1

> <Gold.Id.Protein>
6NUR|6NUR_protein|mol2

> <Gold.PLP.Fitness>
41.4298

> <Gold.PLP.PLP>
-31.5712

> <Gold.PLP.part.hbond>
-3.0000

> <Gold.PLP.part.metal>
0.0000

> <Gold.PLP.part.buried>
-4.4433

> <Gold.PLP.part.nonpolar>
-23.1348

> <Gold.PLP.part.repulsive>
0.3327

> <Gold.PLP.ligand.clash>
0.0000

> <Gold.PLP.ligand.torsion>
0.9765

> <Gold.PLP.Chemscore.Hbond>
2.9272

> <Gold.PLP.Chemscore.CHOScore>
1.0000

> <Gold.PLP.Chemscore.Metal>
0.0000

> <Gold.Chemscore.Hbonds>
donor molecule, donor type, donor heavy atom, donor atom, acceptor molecule, acceptor atom, score
      L1  H     7    27       P1  7948  1.00
      L1  H    10    28       P1  7948  0.98
      P1  H  7989  7998       L1    21  1.00
      L1  C    20    43       P1  7957  1.00

> <Gold.PLP.Chemscore.Internal.Correction>
0.0300

> <Gold.Rescore>
     Score         DG    S(hbond)    S(metal)    S(lipo)     H(rot)  DE(clash)    DE(int)     intcor
     13.32     -16.44       2.31        0.00      66.74       1.78       0.02       3.10       ----

> <Gold.Chemscore.Fitness>
13.3195

> <Gold.Chemscore.DG>
-16.4440

> <Gold.Chemscore.ZeroCoef>
-5.4800

> <Gold.Chemscore.Hbond>
2.3090

> <Gold.Chemscore.Metal>
0.0000

> <Gold.Chemscore.Lipo>
66.7438

> <Gold.Chemscore.Internal_Hbond>
0.0000

> <Gold.Chemscore.DEClash>
0.0243

> <Gold.Chemscore.DEInternal>
3.1001

> <Gold.Chemscore.Rot>
1.7801

> <Gold.Chemscore.Internal.Correction>
   9.000000E+99

> <Gold.Chemscore.Hbonds>
donor molecule, donor type, donor heavy atom, donor atom, acceptor molecule, acceptor atom, score
      L1  H     7    27       P1  7948  0.92
      L1  H    10    28       P1  7948  0.24
      P1  H  7989  7998       L1    21  0.68

> <Gold.Chemscore.Hbond.Weighted>
-7.7120

> <Gold.Chemscore.Metal.Weighted>
-0.0000

> <Gold.Chemscore.Lipo.Weighted>
-7.8090

> <Gold.Chemscore.Internal_Hbond.Weighted>
0.0000

> <Gold.Chemscore.DEClash.Weighted>
0.0243

> <Gold.Chemscore.DEInternal.Weighted>
3.1001

> <Gold.Chemscore.Rot.Weighted>
4.5570

> <Gold.Chemscore.Internal.Correction.Weighted>
   9.000000E+99

> <Gold.Protein.RotatedTorsions>
[ 6907 6896 6895 6894 ] final   55.04 input  -60.11 | X-H torsion
[ 7974 7965 7964 7962 ] final -148.59 input  175.53 | X-H torsion
[ 8008 7997 7996 7995 ] final   -5.41 input   59.86 | X-H torsion
[ 10167 10162 10161 10158 ] final   14.73 input  -65.29 | X-H torsion
[ 10718 10713 10712 10709 ] final   27.08 input   66.30 | X-H torsion
[ 10763 10752 10751 10750 ] final  151.98 input  -60.55 | X-H torsion
[ 11005 11000 10999 10996 ] final  128.63 input  -57.11 | X-H torsion

> <Gold.Protein.ActiveResidues>
 VAL166  LYS551  ARG553  GLY616  TRP617  ASP618  TYR619  PRO620  LYS621  CYS622 
 ASP623  PHE694  ASN695  SER759  ASP760  ASP761  ALA762  ILE779  LEU786  VAL792 
 PHE793  MET794  SER795  GLU796  ALA797  LYS798  CYS799  TRP800  GLU811  SER814 

> <Gold.Protein.RotatedAtoms>
  152.3500  134.7019  160.0238 H   0  0  0  0  0  0  0  0  0  0  0  0  # atno 6907 bound_to 6896
  151.7376  133.3315  159.3365 H   0  0  0  0  0  0  0  0  0  0  0  0  # atno 6908 bound_to 6896
  150.7534  134.6240  159.6195 H   0  0  0  0  0  0  0  0  0  0  0  0  # atno 6909 bound_to 6896
  144.8019  140.5176  143.5701 H   0  0  0  0  0  0  0  0  0  0  0  0  # atno 7974 bound_to 7965
  154.6042  140.2459  155.7752 H   0  0  0  0  0  0  0  0  0  0  0  0  # atno 8008 bound_to 7997
  156.2330  140.2960  156.0191 H   0  0  0  0  0  0  0  0  0  0  0  0  # atno 8009 bound_to 7997
  155.2159  140.0399  157.2931 H   0  0  0  0  0  0  0  0  0  0  0  0  # atno 8010 bound_to 7997
  140.5915  143.8785  150.6878 H   0  0  0  0  0  0  0  0  0  0  0  0  # atno 10167 bound_to 10162
  157.2155  130.6954  149.6247 H   0  0  0  0  0  0  0  0  0  0  0  0  # atno 10718 bound_to 10713
  154.1125  135.2838  155.3227 H   0  0  0  0  0  0  0  0  0  0  0  0  # atno 10763 bound_to 10752
  154.6479  135.5379  153.7870 H   0  0  0  0  0  0  0  0  0  0  0  0  # atno 10764 bound_to 10752
  153.0340  135.6503  154.1283 H   0  0  0  0  0  0  0  0  0  0  0  0  # atno 10765 bound_to 10752
  139.9571  134.9610  156.9030 H   0  0  0  0  0  0  0  0  0  0  0  0  # atno 11005 bound_to 11000
  145.5531  139.1477  143.3383 LP  0  0  0  0  0  0  0  0  0  0  0  0  # atno 17320 bound_to 7965
  146.2303  140.5669  142.8978 LP  0  0  0  0  0  0  0  0  0  0  0  0  # atno 17321 bound_to 7965
  140.2309  143.3736  152.1566 LP  0  0  0  0  0  0  0  0  0  0  0  0  # atno 17342 bound_to 10162
  139.5231  144.7067  151.5333 LP  0  0  0  0  0  0  0  0  0  0  0  0  # atno 17343 bound_to 10162
  155.9687  130.4537  150.5822 LP  0  0  0  0  0  0  0  0  0  0  0  0  # atno 17370 bound_to 10713
  157.3629  131.0753  151.1621 LP  0  0  0  0  0  0  0  0  0  0  0  0  # atno 17371 bound_to 10713
  140.5584  134.0558  155.7391 LP  0  0  0  0  0  0  0  0  0  0  0  0  # atno 17394 bound_to 11000
  141.1244  133.9408  157.2665 LP  0  0  0  0  0  0  0  0  0  0  0  0  # atno 17395 bound_to 11000

$$$$
