AV-unprocessed.smi:155|AV-procd|sdf|1270|dock2
  -GOLD-   2262018523D 1   1.00000     0.00000
 Structure written by MMmdl.
 63 66  0  0  0  0  0  0  0  0  2 V2000
  144.0812  132.9064  149.3395 C   0  0  0  0  0  0  0  0  0  0  0  0
  144.6077  132.8533  150.6969 N   0  0  0  0  0  0  0  0  0  0  0  0
  145.3436  131.6023  150.8488 C   0  0  0  0  0  0  0  0  0  0  0  0
  145.4666  134.0160  150.9239 C   0  0  0  0  0  0  0  0  0  0  0  0
  145.9494  134.1081  152.3865 C   0  0  0  0  0  0  0  0  0  0  0  0
  146.4651  135.4639  152.7111 N   0  3  1  0  0  0  0  0  0  0  0  0
  145.5799  136.5358  152.1908 C   0  0  0  0  0  0  0  0  0  0  0  0
  146.2102  137.9368  152.2638 C   0  0  0  0  0  0  0  0  0  0  0  0
  146.2380  138.5210  153.6846 C   0  0  0  0  0  0  0  0  0  0  0  0
  147.3618  138.0461  154.4945 N   0  0  0  0  0  0  0  0  0  0  0  0
  147.7465  138.7936  155.5636 C   0  0  0  0  0  0  0  0  0  0  0  0
  146.8355  139.0625  156.5368 N   0  0  0  0  0  0  0  0  0  0  0  0
  147.1763  139.7912  157.6032 C   0  0  0  0  0  0  0  0  0  0  0  0
  148.3555  140.3416  157.8938 N   0  0  0  0  0  0  0  0  0  0  0  0
  149.2762  140.0813  156.9224 C   0  0  0  0  0  0  0  0  0  0  0  0
  149.0572  139.3304  155.7317 C   0  0  0  0  0  0  0  0  0  0  0  0
  150.2206  139.3112  154.9696 N   0  0  0  0  0  0  0  0  0  0  0  0
  151.0774  139.9982  155.6741 C   0  0  0  0  0  0  0  0  0  0  0  0
  150.6001  140.4817  156.8709 N   0  0  0  0  0  0  0  0  0  0  0  0
  151.3367  141.2742  157.8428 C   0  0  0  0  0  0  0  0  0  0  0  0
  151.1814  142.8086  157.6896 C   0  0  1  0  0  0  0  0  0  0  0  0
  149.8205  143.1890  157.6817 O   0  0  0  0  0  0  0  0  0  0  0  0
  151.9361  143.7091  158.6960 C   0  0  2  0  0  0  0  0  0  0  0  0
  151.8580  143.2388  160.1475 C   0  0  0  0  0  0  0  0  0  0  0  0
  152.2719  144.4891  160.8911 C   0  0  0  0  0  0  0  0  0  0  0  0
  151.6483  145.5973  160.0438 C   0  0  0  0  0  0  0  0  0  0  0  0
  151.4425  145.0436  158.7456 O   0  0  0  0  0  0  0  0  0  0  0  0
  147.8840  136.6842  154.3726 C   0  0  0  0  0  0  0  0  0  0  0  0
  146.7942  135.6238  154.1513 C   0  0  0  0  0  0  0  0  0  0  0  0
  143.4934  133.8127  149.1896 H   0  0  0  0  0  0  0  0  0  0  0  0
  143.4262  132.0556  149.1472 H   0  0  0  0  0  0  0  0  0  0  0  0
  144.8838  132.8937  148.6002 H   0  0  0  0  0  0  0  0  0  0  0  0
  145.7108  131.4718  151.8658 H   0  0  0  0  0  0  0  0  0  0  0  0
  146.1952  131.5560  150.1685 H   0  0  0  0  0  0  0  0  0  0  0  0
  144.6948  130.7522  150.6342 H   0  0  0  0  0  0  0  0  0  0  0  0
  146.3226  133.9744  150.2483 H   0  0  0  0  0  0  0  0  0  0  0  0
  144.9228  134.9251  150.6660 H   0  0  0  0  0  0  0  0  0  0  0  0
  145.1428  133.8237  153.0614 H   0  0  0  0  0  0  0  0  0  0  0  0
  146.7384  133.3756  152.5641 H   0  0  0  0  0  0  0  0  0  0  0  0
  145.3685  136.3286  151.1408 H   0  0  0  0  0  0  0  0  0  0  0  0
  144.6199  136.5152  152.7090 H   0  0  0  0  0  0  0  0  0  0  0  0
  147.2029  137.9496  151.8114 H   0  0  0  0  0  0  0  0  0  0  0  0
  145.5988  138.5999  151.6509 H   0  0  0  0  0  0  0  0  0  0  0  0
  146.3179  139.6057  153.5961 H   0  0  0  0  0  0  0  0  0  0  0  0
  145.2981  138.3209  154.2006 H   0  0  0  0  0  0  0  0  0  0  0  0
  146.3924  139.9553  158.3278 H   0  0  0  0  0  0  0  0  0  0  0  0
  152.0925  140.1636  155.3434 H   0  0  0  0  0  0  0  0  0  0  0  0
  151.0286  140.9634  158.8410 H   0  0  0  0  0  0  0  0  0  0  0  0
  152.3904  141.0041  157.7628 H   0  0  0  0  0  0  0  0  0  0  0  0
  151.5498  143.0653  156.6958 H   0  0  0  0  0  0  0  0  0  0  0  0
  149.6552  143.7007  156.9046 H   0  0  0  0  0  0  0  0  0  0  0  0
  152.9910  143.7586  158.4185 H   0  0  0  0  0  0  0  0  0  0  0  0
  150.8379  142.9684  160.4208 H   0  0  0  0  0  0  0  0  0  0  0  0
  152.5058  142.3863  160.3541 H   0  0  0  0  0  0  0  0  0  0  0  0
  151.9344  144.5029  161.9279 H   0  0  0  0  0  0  0  0  0  0  0  0
  153.3589  144.5809  160.8853 H   0  0  0  0  0  0  0  0  0  0  0  0
  150.6820  145.8990  160.4489 H   0  0  0  0  0  0  0  0  0  0  0  0
  152.2859  146.4806  159.9973 H   0  0  0  0  0  0  0  0  0  0  0  0
  148.6357  136.6446  153.5835 H   0  0  0  0  0  0  0  0  0  0  0  0
  148.3977  136.4136  155.2955 H   0  0  0  0  0  0  0  0  0  0  0  0
  145.9010  135.8239  154.7457 H   0  0  0  0  0  0  0  0  0  0  0  0
  147.1916  134.6808  154.5258 H   0  0  0  0  0  0  0  0  0  0  0  0
  147.3333  135.5454  152.2010 H   0  0  0  0  0  0  0  0  0  0  0  0
  1  2  1  0  0  0  0
  1 30  1  0  0  0  0
  1 31  1  0  0  0  0
  1 32  1  0  0  0  0
  2  3  1  0  0  0  0
  2  4  1  0  0  0  0
  3 33  1  0  0  0  0
  3 34  1  0  0  0  0
  3 35  1  0  0  0  0
  4  5  1  0  0  0  0
  4 36  1  0  0  0  0
  4 37  1  0  0  0  0
  5  6  1  0  0  0  0
  5 38  1  0  0  0  0
  5 39  1  0  0  0  0
  6 29  1  0  0  0  0
  6  7  1  0  0  0  0
  6 63  1  0  0  0  0
  7  8  1  0  0  0  0
  7 40  1  0  0  0  0
  7 41  1  0  0  0  0
  8  9  1  0  0  0  0
  8 42  1  0  0  0  0
  8 43  1  0  0  0  0
  9 10  1  0  0  0  0
  9 44  1  0  0  0  0
  9 45  1  0  0  0  0
 10 11  1  0  0  0  0
 10 28  1  0  0  0  0
 11 16  1  0  0  0  0
 11 12  2  0  0  0  0
 12 13  1  0  0  0  0
 13 14  2  0  0  0  0
 13 46  1  0  0  0  0
 14 15  1  0  0  0  0
 15 19  1  0  0  0  0
 15 16  2  0  0  0  0
 16 17  1  0  0  0  0
 17 18  2  0  0  0  0
 18 19  1  0  0  0  0
 18 47  1  0  0  0  0
 19 20  1  0  0  0  0
 20 21  1  0  0  0  0
 20 48  1  0  0  0  0
 20 49  1  0  0  0  0
 21 22  1  0  0  0  0
 21 23  1  0  0  0  0
 21 50  1  0  0  0  0
 22 51  1  0  0  0  0
 23 27  1  0  0  0  0
 23 24  1  0  0  0  0
 23 52  1  0  0  0  0
 24 25  1  0  0  0  0
 24 53  1  0  0  0  0
 24 54  1  0  0  0  0
 25 26  1  0  0  0  0
 25 55  1  0  0  0  0
 25 56  1  0  0  0  0
 26 27  1  0  0  0  0
 26 57  1  0  0  0  0
 26 58  1  0  0  0  0
 28 29  1  0  0  0  0
 28 59  1  0  0  0  0
 28 60  1  0  0  0  0
 29 61  1  0  0  0  0
 29 62  1  0  0  0  0
M  CHG  1   6   1
M  END
> <s_m_source_file>
AV-unprocessed.smi

> <i_m_source_file_index>
155

> <i_lp_mmshare_version>
43012

> <i_f3d_flags>
0

> <s_epik_input>
W0NIM11OKFtDSDNdKVtDSDJdW0NIMl1OMVtDSDJdW0NIMl1bQ0gyXU4oW0NIMl1bQ0gyXTEpYyhuW2NIXW4yKWMoYzIzKW5bY0hdbjNbQ0gyXVtDQEhdKFtPSF0pW0NAQEhdNFtDSDJdW0NIMl1bQ0gyXU80

> <s_epik_cmdline>
J2VwaWtfcHl0aG9uJywgJy1waCcsICc3LjAnLCAnLXRuJywgJzgnLCAnLW1hJywgJzIwMCcsICctbWV0YWxfYmluZGluZycsICctaW1hZScsICc8aW5maWxlLm1hZT4nLCAnLW9tYWUnLCAnPG91dGZpbGUubWFlPic=

> <r_epik_Ionization_Penalty>
0.0619615

> <r_epik_Ionization_Penalty_Charging>
0.0161638

> <r_epik_Ionization_Penalty_Neutral>
0.0457976

> <r_epik_State_Penalty>
0.403408

> <r_epik_Charging_Adjusted_Penalty>
0.419572

> <i_epik_Tot_Q>
1

> <i_epik_Tot_abs_Q>
1

> <r_epik_Metal_State_Penalty>
0.404222

> <b_epik_Metal_Only>
0

> <s_lp_Force_Field>
OPLS_2005

> <r_lp_Energy>
53.2961

> <b_lp_Chiralities_Consistent>
1

> <s_lp_Variant>
AV-unprocessed.smi:155-4

> <Gold.Version>
5.8.1

> <Gold.Id.Protein>
6NUR|6NUR_protein|mol2

> <Gold.PLP.Fitness>
48.2761

> <Gold.PLP.PLP>
-43.2746

> <Gold.PLP.part.hbond>
-2.3781

> <Gold.PLP.part.metal>
0.0000

> <Gold.PLP.part.buried>
-4.9582

> <Gold.PLP.part.nonpolar>
-36.8478

> <Gold.PLP.part.repulsive>
0.3352

> <Gold.PLP.ligand.clash>
0.0000

> <Gold.PLP.ligand.torsion>
2.1396

> <Gold.PLP.Chemscore.Hbond>
3.0000

> <Gold.PLP.Chemscore.CHOScore>
0.0000

> <Gold.PLP.Chemscore.Metal>
0.0000

> <Gold.Chemscore.Hbonds>
donor molecule, donor type, donor heavy atom, donor atom, acceptor molecule, acceptor atom, score
      L1  H     6    63       P1  7948  2.00
      L1  H    22    51       P1  8028  1.00

> <Gold.PLP.Chemscore.Internal.Correction>
0.2807

> <Gold.Rescore>
     Score         DG    S(hbond)    S(metal)    S(lipo)     H(rot)  DE(clash)    DE(int)     intcor
     15.54     -18.46       1.97        0.00     112.26       2.63       0.81       2.10       ----

> <Gold.Chemscore.Fitness>
15.5444

> <Gold.Chemscore.DG>
-18.4598

> <Gold.Chemscore.ZeroCoef>
-5.4800

> <Gold.Chemscore.Hbond>
1.9712

> <Gold.Chemscore.Metal>
0.0000

> <Gold.Chemscore.Lipo>
112.2650

> <Gold.Chemscore.Internal_Hbond>
0.0000

> <Gold.Chemscore.DEClash>
0.8142

> <Gold.Chemscore.DEInternal>
2.1013

> <Gold.Chemscore.Rot>
2.6324

> <Gold.Chemscore.Internal.Correction>
   9.000000E+99

> <Gold.Chemscore.Hbonds>
donor molecule, donor type, donor heavy atom, donor atom, acceptor molecule, acceptor atom, score
      L1  H     6    63       P1  7948  0.99
      L1  H    22    51       P1  8028  0.96

> <Gold.Chemscore.Hbond.Weighted>
-6.5837

> <Gold.Chemscore.Metal.Weighted>
-0.0000

> <Gold.Chemscore.Lipo.Weighted>
-13.1350

> <Gold.Chemscore.Internal_Hbond.Weighted>
0.0000

> <Gold.Chemscore.DEClash.Weighted>
0.8142

> <Gold.Chemscore.DEInternal.Weighted>
2.1013

> <Gold.Chemscore.Rot.Weighted>
6.7389

> <Gold.Chemscore.Internal.Correction.Weighted>
   9.000000E+99

> <Gold.Protein.RotatedTorsions>
[ 6907 6896 6895 6894 ] final  -28.53 input  -60.11 | X-H torsion
[ 7974 7965 7964 7962 ] final  144.97 input  175.53 | X-H torsion
[ 8008 7997 7996 7995 ] final -105.72 input   59.86 | X-H torsion
[ 10167 10162 10161 10158 ] final  173.79 input  -65.29 | X-H torsion
[ 10718 10713 10712 10709 ] final  -94.53 input   66.30 | X-H torsion
[ 10763 10752 10751 10750 ] final  129.22 input  -60.55 | X-H torsion
[ 11005 11000 10999 10996 ] final  118.28 input  -57.11 | X-H torsion

> <Gold.Protein.ActiveResidues>
 VAL166  LYS551  ARG553  GLY616  TRP617  ASP618  TYR619  PRO620  LYS621  CYS622 
 ASP623  PHE694  ASN695  SER759  ASP760  ASP761  ALA762  ILE779  LEU786  VAL792 
 PHE793  MET794  SER795  GLU796  ALA797  LYS798  CYS799  TRP800  GLU811  SER814 

> <Gold.Protein.RotatedAtoms>
  151.1317  135.0133  159.8584 H   0  0  0  0  0  0  0  0  0  0  0  0  # atno 6907 bound_to 6896
  152.5451  134.1603  159.8565 H   0  0  0  0  0  0  0  0  0  0  0  0  # atno 6908 bound_to 6896
  151.1670  133.4763  159.2627 H   0  0  0  0  0  0  0  0  0  0  0  0  # atno 6909 bound_to 6896
  144.8791  139.5726  143.5851 H   0  0  0  0  0  0  0  0  0  0  0  0  # atno 7974 bound_to 7965
  154.9040  140.0412  157.1909 H   0  0  0  0  0  0  0  0  0  0  0  0  # atno 8008 bound_to 7997
  154.8415  140.2915  155.5635 H   0  0  0  0  0  0  0  0  0  0  0  0  # atno 8009 bound_to 7997
  156.2992  140.2482  156.3358 H   0  0  0  0  0  0  0  0  0  0  0  0  # atno 8010 bound_to 7997
  139.5120  144.3221  152.0193 H   0  0  0  0  0  0  0  0  0  0  0  0  # atno 10167 bound_to 10162
  156.0028  130.5071  150.5941 H   0  0  0  0  0  0  0  0  0  0  0  0  # atno 10718 bound_to 10713
  153.7383  135.3228  155.3299 H   0  0  0  0  0  0  0  0  0  0  0  0  # atno 10763 bound_to 10752
  154.8303  135.4538  154.1053 H   0  0  0  0  0  0  0  0  0  0  0  0  # atno 10764 bound_to 10752
  153.2220  135.6949  153.8071 H   0  0  0  0  0  0  0  0  0  0  0  0  # atno 10765 bound_to 10752
  139.9104  134.9619  156.7479 H   0  0  0  0  0  0  0  0  0  0  0  0  # atno 11005 bound_to 11000
  146.2983  139.7345  142.9110 LP  0  0  0  0  0  0  0  0  0  0  0  0  # atno 17320 bound_to 7965
  145.3987  141.0382  143.3083 LP  0  0  0  0  0  0  0  0  0  0  0  0  # atno 17321 bound_to 7965
  140.2662  144.4013  150.6167 LP  0  0  0  0  0  0  0  0  0  0  0  0  # atno 17342 bound_to 10162
  140.6121  143.2170  151.6865 LP  0  0  0  0  0  0  0  0  0  0  0  0  # atno 17343 bound_to 10162
  157.3800  131.0779  151.1484 LP  0  0  0  0  0  0  0  0  0  0  0  0  # atno 17370 bound_to 10713
  157.2210  130.6481  149.5811 LP  0  0  0  0  0  0  0  0  0  0  0  0  # atno 17371 bound_to 10713
  140.6797  133.9486  155.7903 LP  0  0  0  0  0  0  0  0  0  0  0  0  # atno 17394 bound_to 11000
  141.0519  134.0472  157.3772 LP  0  0  0  0  0  0  0  0  0  0  0  0  # atno 17395 bound_to 11000

$$$$
