AV-unprocessed.smi:1431|AV-procd|sdf|5829|dock4
  -GOLD-   22720 5493D 1   1.00000     0.00000
 Structure written by MMmdl.
 33 34  0  0  0  0  0  0  0  0  1 V2000
  150.4659  140.6207  156.0035 O   0  0  0  0  0  0  0  0  0  0  0  0
  150.0518  141.7801  155.9767 C   0  0  0  0  0  0  0  0  0  0  0  0
  149.0939  142.2016  155.1387 N   0  0  0  0  0  0  0  0  0  0  0  0
  148.3896  141.3550  154.1811 C   0  0  0  0  0  0  0  0  0  0  0  0
  146.8609  141.4136  154.3713 C   0  0  2  0  0  0  0  0  0  0  0  0
  146.2980  142.8386  154.2108 C   0  0  0  0  0  0  0  0  0  0  0  0
  144.8367  142.8403  154.6716 C   0  0  0  0  0  0  0  0  0  0  0  0
  144.7486  141.6244  156.0389 S   0  0  0  0  0  0  0  0  0  0  0  0
  144.7787  142.3309  157.3282 O   0  0  0  0  0  0  0  0  0  0  0  0
  143.6969  140.6413  155.7384 O   0  0  0  0  0  0  0  0  0  0  0  0
  146.3929  140.8755  155.7341 C   0  0  0  0  0  0  0  0  0  0  0  0
  150.4789  142.7783  156.7700 N   0  0  0  0  0  0  0  0  0  0  0  0
  151.4493  142.7215  157.8057 C   0  0  0  0  0  0  0  0  0  0  0  0
  151.6571  143.9355  158.4989 C   0  0  0  0  0  0  0  0  0  0  0  0
  152.5971  143.9829  159.5464 C   0  0  0  0  0  0  0  0  0  0  0  0
  153.3069  142.8140  159.8736 C   0  0  0  0  0  0  0  0  0  0  0  0
  153.0403  141.6474  159.1335 C   0  0  0  0  0  0  0  0  0  0  0  0
  152.1393  141.5996  158.1297 N   0  0  0  0  0  0  0  0  0  0  0  0
  148.8163  143.1714  155.1794 H   0  0  0  0  0  0  0  0  0  0  0  0
  148.6549  141.6892  153.1776 H   0  0  0  0  0  0  0  0  0  0  0  0
  148.7438  140.3263  154.2665 H   0  0  0  0  0  0  0  0  0  0  0  0
  146.3897  140.8014  153.6009 H   0  0  0  0  0  0  0  0  0  0  0  0
  146.8671  143.5231  154.8411 H   0  0  0  0  0  0  0  0  0  0  0  0
  146.3914  143.1973  153.1853 H   0  0  0  0  0  0  0  0  0  0  0  0
  144.4947  143.8183  155.0105 H   0  0  0  0  0  0  0  0  0  0  0  0
  144.1797  142.4968  153.8723 H   0  0  0  0  0  0  0  0  0  0  0  0
  146.3201  139.7881  155.7602 H   0  0  0  0  0  0  0  0  0  0  0  0
  147.0586  141.1990  156.5347 H   0  0  0  0  0  0  0  0  0  0  0  0
  150.0465  143.6792  156.6303 H   0  0  0  0  0  0  0  0  0  0  0  0
  151.1025  144.8243  158.2347 H   0  0  0  0  0  0  0  0  0  0  0  0
  152.7698  144.9004  160.0895 H   0  0  0  0  0  0  0  0  0  0  0  0
  154.0359  142.8108  160.6704 H   0  0  0  0  0  0  0  0  0  0  0  0
  153.5635  140.7284  159.3524 H   0  0  0  0  0  0  0  0  0  0  0  0
  1  2  2  0  0  0  0
  2  3  1  0  0  0  0
  2 12  1  0  0  0  0
  3  4  1  0  0  0  0
  3 19  1  0  0  0  0
  4  5  1  0  0  0  0
  4 20  1  0  0  0  0
  4 21  1  0  0  0  0
  5 11  1  0  0  0  0
  5  6  1  0  0  0  0
  5 22  1  0  0  0  0
  6  7  1  0  0  0  0
  6 23  1  0  0  0  0
  6 24  1  0  0  0  0
  7  8  1  0  0  0  0
  7 25  1  0  0  0  0
  7 26  1  0  0  0  0
  8  9  2  0  0  0  0
  8 10  2  0  0  0  0
  8 11  1  0  0  0  0
 11 27  1  0  0  0  0
 11 28  1  0  0  0  0
 12 13  1  0  0  0  0
 12 29  1  0  0  0  0
 13 18  1  0  0  0  0
 13 14  2  0  0  0  0
 14 15  1  0  0  0  0
 14 30  1  0  0  0  0
 15 16  2  0  0  0  0
 15 31  1  0  0  0  0
 16 17  1  0  0  0  0
 16 32  1  0  0  0  0
 17 18  2  0  0  0  0
 17 33  1  0  0  0  0
M  END
> <s_m_source_file>
AV-unprocessed.smi

> <i_m_source_file_index>
1431

> <i_lp_mmshare_version>
43012

> <i_f3d_flags>
0

> <s_epik_input>
bjFbY0hdW2NIXVtjSF1bY0hdYzFbTkhdQyg9TylbTkhdW0NIMl1bQ0BASF0oW0NIMl0yKVtDSDJdW0NIMl1TMig9Tyk9Tw==

> <s_epik_cmdline>
J2VwaWtfcHl0aG9uJywgJy1waCcsICc3LjAnLCAnLXRuJywgJzgnLCAnLW1hJywgJzIwMCcsICctbWV0YWxfYmluZGluZycsICctaW1hZScsICc8aW5maWxlLm1hZT4nLCAnLW9tYWUnLCAnPG91dGZpbGUubWFlPic=

> <r_lp_tautomer_probability>
1

> <r_epik_Ionization_Penalty>
4.47006e-05

> <r_epik_Ionization_Penalty_Charging>
0

> <r_epik_Ionization_Penalty_Neutral>
4.47006e-05

> <r_epik_State_Penalty>
-0

> <r_epik_Charging_Adjusted_Penalty>
0

> <i_epik_Tot_Q>
0

> <i_epik_Tot_abs_Q>
0

> <r_epik_Metal_State_Penalty>
-0

> <b_epik_Metal_Only>
0

> <s_lp_Force_Field>
OPLS_2005

> <r_lp_Energy>
3.66515

> <b_lp_Chiralities_Consistent>
1

> <s_lp_Variant>
AV-unprocessed.smi:1431-1

> <Gold.Version>
5.8.1

> <Gold.Id.Protein>
6NUR|6NUR_protein|mol2

> <Gold.PLP.Fitness>
42.3590

> <Gold.PLP.PLP>
-36.4542

> <Gold.PLP.part.hbond>
-2.0000

> <Gold.PLP.part.metal>
0.0000

> <Gold.PLP.part.buried>
-6.4320

> <Gold.PLP.part.nonpolar>
-29.7980

> <Gold.PLP.part.repulsive>
0.5068

> <Gold.PLP.ligand.clash>
0.0000

> <Gold.PLP.ligand.torsion>
0.0131

> <Gold.PLP.Chemscore.Hbond>
1.9760

> <Gold.PLP.Chemscore.CHOScore>
0.0000

> <Gold.PLP.Chemscore.Metal>
0.0000

> <Gold.Chemscore.Hbonds>
donor molecule, donor type, donor heavy atom, donor atom, acceptor molecule, acceptor atom, score
      L1  H     3    19       P1  8028  1.00
      L1  H    12    29       P1  8028  0.99

> <Gold.PLP.Chemscore.Internal.Correction>
0.0030

> <Gold.Rescore>
     Score         DG    S(hbond)    S(metal)    S(lipo)     H(rot)  DE(clash)    DE(int)     intcor
     16.02     -17.33       1.93        0.00      75.21       1.33       0.00       1.31       ----

> <Gold.Chemscore.Fitness>
16.0208

> <Gold.Chemscore.DG>
-17.3287

> <Gold.Chemscore.ZeroCoef>
-5.4800

> <Gold.Chemscore.Hbond>
1.9308

> <Gold.Chemscore.Metal>
0.0000

> <Gold.Chemscore.Lipo>
75.2082

> <Gold.Chemscore.Internal_Hbond>
0.0000

> <Gold.Chemscore.DEClash>
0.0004

> <Gold.Chemscore.DEInternal>
1.3075

> <Gold.Chemscore.Rot>
1.3280

> <Gold.Chemscore.Internal.Correction>
   9.000000E+99

> <Gold.Chemscore.Hbonds>
donor molecule, donor type, donor heavy atom, donor atom, acceptor molecule, acceptor atom, score
      L1  H     3    19       P1  8028  0.98
      L1  H    12    29       P1  8028  0.93

> <Gold.Chemscore.Hbond.Weighted>
-6.4489

> <Gold.Chemscore.Metal.Weighted>
-0.0000

> <Gold.Chemscore.Lipo.Weighted>
-8.7994

> <Gold.Chemscore.Internal_Hbond.Weighted>
0.0000

> <Gold.Chemscore.DEClash.Weighted>
0.0004

> <Gold.Chemscore.DEInternal.Weighted>
1.3075

> <Gold.Chemscore.Rot.Weighted>
3.3996

> <Gold.Chemscore.Internal.Correction.Weighted>
   9.000000E+99

> <Gold.Protein.RotatedTorsions>
[ 6907 6896 6895 6894 ] final  -50.67 input  -60.11 | X-H torsion
[ 7974 7965 7964 7962 ] final  131.24 input  175.53 | X-H torsion
[ 8008 7997 7996 7995 ] final  -42.49 input   59.86 | X-H torsion
[ 10167 10162 10161 10158 ] final  109.44 input  -65.29 | X-H torsion
[ 10718 10713 10712 10709 ] final  178.29 input   66.30 | X-H torsion
[ 10763 10752 10751 10750 ] final   23.20 input  -60.55 | X-H torsion
[ 11005 11000 10999 10996 ] final   34.31 input  -57.11 | X-H torsion

> <Gold.Protein.ActiveResidues>
 VAL166  LYS551  ARG553  GLY616  TRP617  ASP618  TYR619  PRO620  LYS621  CYS622 
 ASP623  PHE694  ASN695  SER759  ASP760  ASP761  ALA762  ILE779  LEU786  VAL792 
 PHE793  MET794  SER795  GLU796  ALA797  LYS798  CYS799  TRP800  GLU811  SER814 

> <Gold.Protein.RotatedAtoms>
  150.8684  134.8053  159.7136 H   0  0  0  0  0  0  0  0  0  0  0  0  # atno 6907 bound_to 6896
  152.4697  134.4986  159.9727 H   0  0  0  0  0  0  0  0  0  0  0  0  # atno 6908 bound_to 6896
  151.5078  133.3452  159.2915 H   0  0  0  0  0  0  0  0  0  0  0  0  # atno 6909 bound_to 6896
  145.0094  139.4235  143.5252 H   0  0  0  0  0  0  0  0  0  0  0  0  # atno 7974 bound_to 7965
  154.3999  140.1472  156.3363 H   0  0  0  0  0  0  0  0  0  0  0  0  # atno 8008 bound_to 7997
  155.8397  140.3462  155.5603 H   0  0  0  0  0  0  0  0  0  0  0  0  # atno 8009 bound_to 7997
  155.8100  140.0882  157.1899 H   0  0  0  0  0  0  0  0  0  0  0  0  # atno 8010 bound_to 7997
  139.6766  144.7121  151.1590 H   0  0  0  0  0  0  0  0  0  0  0  0  # atno 10167 bound_to 10162
  156.8928  130.9853  151.3047 H   0  0  0  0  0  0  0  0  0  0  0  0  # atno 10718 bound_to 10713
  153.0857  135.6632  153.9955 H   0  0  0  0  0  0  0  0  0  0  0  0  # atno 10763 bound_to 10752
  153.9565  135.2978  155.3437 H   0  0  0  0  0  0  0  0  0  0  0  0  # atno 10764 bound_to 10752
  154.7264  135.5142  153.8966 H   0  0  0  0  0  0  0  0  0  0  0  0  # atno 10765 bound_to 10752
  140.2542  134.3268  155.7880 H   0  0  0  0  0  0  0  0  0  0  0  0  # atno 11005 bound_to 11000
  146.3467  139.9529  142.8727 LP  0  0  0  0  0  0  0  0  0  0  0  0  # atno 17320 bound_to 7965
  145.2044  140.9868  143.4137 LP  0  0  0  0  0  0  0  0  0  0  0  0  # atno 17321 bound_to 7965
  140.7638  143.5762  150.8943 LP  0  0  0  0  0  0  0  0  0  0  0  0  # atno 17342 bound_to 10162
  139.9431  143.6359  152.3048 LP  0  0  0  0  0  0  0  0  0  0  0  0  # atno 17343 bound_to 10162
  157.6073  130.8557  149.8896 LP  0  0  0  0  0  0  0  0  0  0  0  0  # atno 17370 bound_to 10713
  156.0620  130.3698  150.0960 LP  0  0  0  0  0  0  0  0  0  0  0  0  # atno 17371 bound_to 10713
  141.2198  133.7371  156.9084 LP  0  0  0  0  0  0  0  0  0  0  0  0  # atno 17394 bound_to 11000
  140.1528  134.9218  157.2615 LP  0  0  0  0  0  0  0  0  0  0  0  0  # atno 17395 bound_to 11000

$$$$
