AV-unprocessed.smi:1101|AV-procd|sdf|4765|dock6
  -GOLD-   22720 3303D 1   1.00000     0.00000
 Structure written by MMmdl.
 41 42  0  0  0  0  0  0  0  0  1 V2000
  151.5936  145.6025  160.1150 C   0  0  0  0  0  0  0  0  0  0  0  0
  152.2151  145.2136  158.7677 C   0  0  0  0  0  0  0  0  0  0  0  0
  152.5058  143.7089  158.6537 C   0  0  2  0  0  0  0  0  0  0  0  0
  151.2455  142.8545  158.9028 C   0  0  0  0  0  0  0  0  0  0  0  0
  151.6241  141.4365  158.8127 N   0  0  0  0  0  0  0  0  0  0  0  0
  151.2940  140.5697  157.8232 C   0  0  0  0  0  0  0  0  0  0  0  0
  151.4304  139.3492  157.9185 O   0  0  0  0  0  0  0  0  0  0  0  0
  150.7669  141.1441  156.7313 N   0  0  0  0  0  0  0  0  0  0  0  0
  150.2866  140.4276  155.5567 C   0  0  0  0  0  0  0  0  0  0  0  0
  151.4346  139.6924  154.8458 C   0  0  0  0  0  0  0  0  0  0  0  0
  151.4369  138.2136  155.1324 C   0  0  0  0  0  0  0  0  0  0  0  0
  152.3361  137.4863  155.9633 C   0  0  0  0  0  0  0  0  0  0  0  0
  152.0570  136.1941  156.0164 N   0  0  0  0  0  0  0  0  0  0  0  0
  150.9754  136.0514  155.2233 N   0  0  0  0  0  0  0  0  0  0  0  0
  150.3887  134.7402  155.0473 C   0  0  0  0  0  0  0  0  0  0  0  0
  150.5802  137.2523  154.6745 C   0  0  0  0  0  0  0  0  0  0  0  0
  152.6143  141.1148  159.8425 C   0  0  0  0  0  0  0  0  0  0  0  0
  153.8600  141.9842  159.5999 C   0  0  0  0  0  0  0  0  0  0  0  0
  153.4927  143.3618  159.6261 O   0  0  0  0  0  0  0  0  0  0  0  0
  151.4115  146.6762  160.1621 H   0  0  0  0  0  0  0  0  0  0  0  0
  152.2519  145.3399  160.9432 H   0  0  0  0  0  0  0  0  0  0  0  0
  150.6399  145.0980  160.2715 H   0  0  0  0  0  0  0  0  0  0  0  0
  151.5536  145.5232  157.9579 H   0  0  0  0  0  0  0  0  0  0  0  0
  153.1425  145.7723  158.6370 H   0  0  0  0  0  0  0  0  0  0  0  0
  152.8948  143.4980  157.6555 H   0  0  0  0  0  0  0  0  0  0  0  0
  150.8461  143.0548  159.8982 H   0  0  0  0  0  0  0  0  0  0  0  0
  150.4574  143.1460  158.2085 H   0  0  0  0  0  0  0  0  0  0  0  0
  150.6712  142.1492  156.7234 H   0  0  0  0  0  0  0  0  0  0  0  0
  149.5110  139.7182  155.8490 H   0  0  0  0  0  0  0  0  0  0  0  0
  149.8264  141.1406  154.8708 H   0  0  0  0  0  0  0  0  0  0  0  0
  151.3548  139.8705  153.7727 H   0  0  0  0  0  0  0  0  0  0  0  0
  152.3818  140.1415  155.1459 H   0  0  0  0  0  0  0  0  0  0  0  0
  153.1760  137.8597  156.5305 H   0  0  0  0  0  0  0  0  0  0  0  0
  149.4872  134.8122  154.4378 H   0  0  0  0  0  0  0  0  0  0  0  0
  150.1268  134.3188  156.0184 H   0  0  0  0  0  0  0  0  0  0  0  0
  151.1017  134.0813  154.5503 H   0  0  0  0  0  0  0  0  0  0  0  0
  149.7283  137.3247  154.0145 H   0  0  0  0  0  0  0  0  0  0  0  0
  152.1949  141.3240  160.8276 H   0  0  0  0  0  0  0  0  0  0  0  0
  152.8907  140.0596  159.8513 H   0  0  0  0  0  0  0  0  0  0  0  0
  154.6050  141.8023  160.3748 H   0  0  0  0  0  0  0  0  0  0  0  0
  154.3257  141.7404  158.6437 H   0  0  0  0  0  0  0  0  0  0  0  0
  1  2  1  0  0  0  0
  1 20  1  0  0  0  0
  1 21  1  0  0  0  0
  1 22  1  0  0  0  0
  2  3  1  0  0  0  0
  2 23  1  0  0  0  0
  2 24  1  0  0  0  0
  3 19  1  0  0  0  0
  3  4  1  0  0  0  0
  3 25  1  0  0  0  0
  4  5  1  0  0  0  0
  4 26  1  0  0  0  0
  4 27  1  0  0  0  0
  5  6  1  0  0  0  0
  5 17  1  0  0  0  0
  6  7  2  0  0  0  0
  6  8  1  0  0  0  0
  8  9  1  0  0  0  0
  8 28  1  0  0  0  0
  9 10  1  0  0  0  0
  9 29  1  0  0  0  0
  9 30  1  0  0  0  0
 10 11  1  0  0  0  0
 10 31  1  0  0  0  0
 10 32  1  0  0  0  0
 11 16  2  0  0  0  0
 11 12  1  0  0  0  0
 12 13  2  0  0  0  0
 12 33  1  0  0  0  0
 13 14  1  0  0  0  0
 14 15  1  0  0  0  0
 14 16  1  0  0  0  0
 15 34  1  0  0  0  0
 15 35  1  0  0  0  0
 15 36  1  0  0  0  0
 16 37  1  0  0  0  0
 17 18  1  0  0  0  0
 17 38  1  0  0  0  0
 17 39  1  0  0  0  0
 18 19  1  0  0  0  0
 18 40  1  0  0  0  0
 18 41  1  0  0  0  0
M  END
> <s_m_source_file>
AV-unprocessed.smi

> <i_m_source_file_index>
1101

> <i_lp_mmshare_version>
43012

> <i_f3d_flags>
0

> <s_epik_input>
W0NIM11bQ0gyXVtDQEBIXTFbQ0gyXU4oW0NIMl1bQ0gyXU8xKUMoPU8pW05IXVtDSDJdW0NIMl1jMltjSF1ubihbQ0gzXSlbY0hdMg==

> <s_epik_cmdline>
J2VwaWtfcHl0aG9uJywgJy1waCcsICc3LjAnLCAnLXRuJywgJzgnLCAnLW1hJywgJzIwMCcsICctbWV0YWxfYmluZGluZycsICctaW1hZScsICc8aW5maWxlLm1hZT4nLCAnLW9tYWUnLCAnPG91dGZpbGUubWFlPic=

> <r_lp_tautomer_probability>
1

> <r_epik_Ionization_Penalty>
0.000536373

> <r_epik_Ionization_Penalty_Charging>
0

> <r_epik_Ionization_Penalty_Neutral>
0.000536373

> <r_epik_State_Penalty>
-0

> <r_epik_Charging_Adjusted_Penalty>
0

> <i_epik_Tot_Q>
0

> <i_epik_Tot_abs_Q>
0

> <r_epik_Metal_State_Penalty>
-0

> <b_epik_Metal_Only>
0

> <s_lp_Force_Field>
OPLS_2005

> <r_lp_Energy>
25.5817

> <b_lp_Chiralities_Consistent>
1

> <s_lp_Variant>
AV-unprocessed.smi:1101-1

> <Gold.Version>
5.8.1

> <Gold.Id.Protein>
6NUR|6NUR_protein|mol2

> <Gold.PLP.Fitness>
44.2630

> <Gold.PLP.PLP>
-39.4372

> <Gold.PLP.part.hbond>
-1.0000

> <Gold.PLP.part.metal>
0.0000

> <Gold.PLP.part.buried>
-3.5918

> <Gold.PLP.part.nonpolar>
-35.8701

> <Gold.PLP.part.repulsive>
0.0776

> <Gold.PLP.ligand.clash>
0.0000

> <Gold.PLP.ligand.torsion>
0.6235

> <Gold.PLP.Chemscore.Hbond>
1.0000

> <Gold.PLP.Chemscore.CHOScore>
1.0000

> <Gold.PLP.Chemscore.Metal>
0.0000

> <Gold.Chemscore.Hbonds>
donor molecule, donor type, donor heavy atom, donor atom, acceptor molecule, acceptor atom, score
      P1  H 10752 10765       L1    13  0.95
      L1  C    16    37       P1  7948  1.00

> <Gold.PLP.Chemscore.Internal.Correction>
0.0728

> <Gold.Rescore>
     Score         DG    S(hbond)    S(metal)    S(lipo)     H(rot)  DE(clash)    DE(int)     intcor
     14.03     -16.25       0.86        0.00     100.54       1.51       0.15       2.08       ----

> <Gold.Chemscore.Fitness>
14.0282

> <Gold.Chemscore.DG>
-16.2518

> <Gold.Chemscore.ZeroCoef>
-5.4800

> <Gold.Chemscore.Hbond>
0.8577

> <Gold.Chemscore.Metal>
0.0000

> <Gold.Chemscore.Lipo>
100.5363

> <Gold.Chemscore.Internal_Hbond>
0.0000

> <Gold.Chemscore.DEClash>
0.1468

> <Gold.Chemscore.DEInternal>
2.0768

> <Gold.Chemscore.Rot>
1.5062

> <Gold.Chemscore.Internal.Correction>
   9.000000E+99

> <Gold.Chemscore.Hbonds>
donor molecule, donor type, donor heavy atom, donor atom, acceptor molecule, acceptor atom, score
      P1  H 10752 10765       L1    13  0.11

> <Gold.Chemscore.Hbond.Weighted>
-2.8649

> <Gold.Chemscore.Metal.Weighted>
-0.0000

> <Gold.Chemscore.Lipo.Weighted>
-11.7627

> <Gold.Chemscore.Internal_Hbond.Weighted>
0.0000

> <Gold.Chemscore.DEClash.Weighted>
0.1468

> <Gold.Chemscore.DEInternal.Weighted>
2.0768

> <Gold.Chemscore.Rot.Weighted>
3.8558

> <Gold.Chemscore.Internal.Correction.Weighted>
   9.000000E+99

> <Gold.Protein.RotatedTorsions>
[ 6907 6896 6895 6894 ] final -140.26 input  -60.11 | X-H torsion
[ 7974 7965 7964 7962 ] final  103.63 input  175.53 | X-H torsion
[ 8008 7997 7996 7995 ] final   -8.52 input   59.86 | X-H torsion
[ 10167 10162 10161 10158 ] final -152.77 input  -65.29 | X-H torsion
[ 10718 10713 10712 10709 ] final -154.71 input   66.30 | X-H torsion
[ 10763 10752 10751 10750 ] final -149.33 input  -60.55 | X-H torsion
[ 11005 11000 10999 10996 ] final  -82.09 input  -57.11 | X-H torsion

> <Gold.Protein.ActiveResidues>
 VAL166  LYS551  ARG553  GLY616  TRP617  ASP618  TYR619  PRO620  LYS621  CYS622 
 ASP623  PHE694  ASN695  SER759  ASP760  ASP761  ALA762  ILE779  LEU786  VAL792 
 PHE793  MET794  SER795  GLU796  ALA797  LYS798  CYS799  TRP800  GLU811  SER814 

> <Gold.Protein.RotatedAtoms>
  151.0584  133.5565  159.2636 H   0  0  0  0  0  0  0  0  0  0  0  0  # atno 6907 bound_to 6896
  151.2549  135.0634  159.9086 H   0  0  0  0  0  0  0  0  0  0  0  0  # atno 6908 bound_to 6896
  152.5393  134.0339  159.8091 H   0  0  0  0  0  0  0  0  0  0  0  0  # atno 6909 bound_to 6896
  145.3434  139.2456  143.3597 H   0  0  0  0  0  0  0  0  0  0  0  0  # atno 7974 bound_to 7965
  154.5734  140.2379  155.8158 H   0  0  0  0  0  0  0  0  0  0  0  0  # atno 8008 bound_to 7997
  156.2124  140.3022  155.9720 H   0  0  0  0  0  0  0  0  0  0  0  0  # atno 8009 bound_to 7997
  155.2671  140.0417  157.2994 H   0  0  0  0  0  0  0  0  0  0  0  0  # atno 8010 bound_to 7997
  139.7153  143.9043  152.2484 H   0  0  0  0  0  0  0  0  0  0  0  0  # atno 10167 bound_to 10162
  156.5030  130.8400  151.2617 H   0  0  0  0  0  0  0  0  0  0  0  0  # atno 10718 bound_to 10713
  154.8183  135.3312  154.7112 H   0  0  0  0  0  0  0  0  0  0  0  0  # atno 10763 bound_to 10752
  153.7749  135.6923  153.4904 H   0  0  0  0  0  0  0  0  0  0  0  0  # atno 10764 bound_to 10752
  153.2020  135.4513  155.0225 H   0  0  0  0  0  0  0  0  0  0  0  0  # atno 10765 bound_to 10752
  141.1664  133.7227  156.8519 H   0  0  0  0  0  0  0  0  0  0  0  0  # atno 11005 bound_to 11000
  146.2998  140.4036  142.8708 LP  0  0  0  0  0  0  0  0  0  0  0  0  # atno 17320 bound_to 7965
  144.8772  140.7353  143.6009 LP  0  0  0  0  0  0  0  0  0  0  0  0  # atno 17321 bound_to 7965
  139.8923  144.6958  150.8756 LP  0  0  0  0  0  0  0  0  0  0  0  0  # atno 17342 bound_to 10162
  140.7742  143.3576  151.1890 LP  0  0  0  0  0  0  0  0  0  0  0  0  # atno 17343 bound_to 10162
  157.7460  130.9975  150.2819 LP  0  0  0  0  0  0  0  0  0  0  0  0  # atno 17370 bound_to 10713
  156.3314  130.3801  149.7488 LP  0  0  0  0  0  0  0  0  0  0  0  0  # atno 17371 bound_to 10713
  140.1909  134.8966  157.3060 LP  0  0  0  0  0  0  0  0  0  0  0  0  # atno 17394 bound_to 11000
  140.2291  134.3931  155.7530 LP  0  0  0  0  0  0  0  0  0  0  0  0  # atno 17395 bound_to 11000

$$$$
