AV-unprocessed.smi:1328|AV-procd|sdf|5481|dock5
  -GOLD-   22720 5 53D 1   1.00000     0.00000
 Structure written by MMmdl.
 38 39  0  0  0  0  0  0  0  0  1 V2000
  151.8653  138.1224  154.4317 C   0  0  0  0  0  0  0  0  0  0  0  0
  151.5147  137.5257  155.7646 C   0  0  0  0  0  0  0  0  0  0  0  0
  151.4743  136.2111  155.9043 N   0  0  0  0  0  0  0  0  0  0  0  0
  151.1212  135.9786  157.2371 O   0  0  0  0  0  0  0  0  0  0  0  0
  150.9605  137.1767  157.8542 C   0  0  0  0  0  0  0  0  0  0  0  0
  150.5719  137.1416  159.2934 C   0  0  0  0  0  0  0  0  0  0  0  0
  151.1998  138.2001  156.9786 C   0  0  0  0  0  0  0  0  0  0  0  0
  151.1424  139.6870  157.2269 C   0  0  0  0  0  0  0  0  0  0  0  0
  152.3538  140.1644  158.0361 C   0  0  0  0  0  0  0  0  0  0  0  0
  153.3949  139.5062  158.0628 O   0  0  0  0  0  0  0  0  0  0  0  0
  152.2032  141.3304  158.6837 N   0  0  0  0  0  0  0  0  0  0  0  0
  153.2222  141.9937  159.4944 C   0  0  2  0  0  0  0  0  0  0  0  0
  153.5521  141.0914  160.6934 C   0  0  0  0  0  0  0  0  0  0  0  0
  152.7242  143.3882  159.9310 C   0  0  1  0  0  0  0  0  0  0  0  0
  152.4289  144.3514  158.7827 C   0  0  0  0  0  0  0  0  0  0  0  0
  151.5092  145.3686  159.4305 C   0  0  0  0  0  0  0  0  0  0  0  0
  150.8487  144.5867  160.5692 C   0  0  0  0  0  0  0  0  0  0  0  0
  151.4561  143.2997  160.5653 O   0  0  0  0  0  0  0  0  0  0  0  0
  152.8161  138.6529  154.4814 H   0  0  0  0  0  0  0  0  0  0  0  0
  151.1042  138.8343  154.1117 H   0  0  0  0  0  0  0  0  0  0  0  0
  151.9514  137.3603  153.6561 H   0  0  0  0  0  0  0  0  0  0  0  0
  150.0272  138.0441  159.5712 H   0  0  0  0  0  0  0  0  0  0  0  0
  151.4544  137.0688  159.9289 H   0  0  0  0  0  0  0  0  0  0  0  0
  149.9303  136.2856  159.5032 H   0  0  0  0  0  0  0  0  0  0  0  0
  151.1219  140.2425  156.2888 H   0  0  0  0  0  0  0  0  0  0  0  0
  150.2275  139.9551  157.7570 H   0  0  0  0  0  0  0  0  0  0  0  0
  151.3151  141.8032  158.5994 H   0  0  0  0  0  0  0  0  0  0  0  0
  154.1357  142.1110  158.9085 H   0  0  0  0  0  0  0  0  0  0  0  0
  154.3610  141.5076  161.2938 H   0  0  0  0  0  0  0  0  0  0  0  0
  153.8709  140.1020  160.3637 H   0  0  0  0  0  0  0  0  0  0  0  0
  152.6866  140.9627  161.3441 H   0  0  0  0  0  0  0  0  0  0  0  0
  153.4317  143.8471  160.6246 H   0  0  0  0  0  0  0  0  0  0  0  0
  153.3271  144.8040  158.3619 H   0  0  0  0  0  0  0  0  0  0  0  0
  151.9008  143.8332  157.9811 H   0  0  0  0  0  0  0  0  0  0  0  0
  152.0882  146.1995  159.8353 H   0  0  0  0  0  0  0  0  0  0  0  0
  150.7841  145.7750  158.7248 H   0  0  0  0  0  0  0  0  0  0  0  0
  151.0234  145.0754  161.5284 H   0  0  0  0  0  0  0  0  0  0  0  0
  149.7719  144.4882  160.4290 H   0  0  0  0  0  0  0  0  0  0  0  0
  1  2  1  0  0  0  0
  1 19  1  0  0  0  0
  1 20  1  0  0  0  0
  1 21  1  0  0  0  0
  2  7  1  0  0  0  0
  2  3  2  0  0  0  0
  3  4  1  0  0  0  0
  4  5  1  0  0  0  0
  5  6  1  0  0  0  0
  5  7  2  0  0  0  0
  6 22  1  0  0  0  0
  6 23  1  0  0  0  0
  6 24  1  0  0  0  0
  7  8  1  0  0  0  0
  8  9  1  0  0  0  0
  8 25  1  0  0  0  0
  8 26  1  0  0  0  0
  9 10  2  0  0  0  0
  9 11  1  0  0  0  0
 11 12  1  0  0  0  0
 11 27  1  0  0  0  0
 12 13  1  0  0  0  0
 12 14  1  0  0  0  0
 12 28  1  0  0  0  0
 13 29  1  0  0  0  0
 13 30  1  0  0  0  0
 13 31  1  0  0  0  0
 14 18  1  0  0  0  0
 14 15  1  0  0  0  0
 14 32  1  0  0  0  0
 15 16  1  0  0  0  0
 15 33  1  0  0  0  0
 15 34  1  0  0  0  0
 16 17  1  0  0  0  0
 16 35  1  0  0  0  0
 16 36  1  0  0  0  0
 17 18  1  0  0  0  0
 17 37  1  0  0  0  0
 17 38  1  0  0  0  0
M  END
> <s_m_source_file>
AV-unprocessed.smi

> <i_m_source_file_index>
1328

> <i_lp_mmshare_version>
43012

> <i_f3d_flags>
0

> <s_epik_input>
W0NIM11jMW5vYyhbQ0gzXSljMVtDSDJdQyg9TylbTkhdW0NASF0oW0NIM10pW0NAQEhdMltDSDJdW0NIMl1bQ0gyXU8y

> <s_epik_cmdline>
J2VwaWtfcHl0aG9uJywgJy1waCcsICc3LjAnLCAnLXRuJywgJzgnLCAnLW1hJywgJzIwMCcsICctbWV0YWxfYmluZGluZycsICctaW1hZScsICc8aW5maWxlLm1hZT4nLCAnLW9tYWUnLCAnPG91dGZpbGUubWFlPic=

> <r_lp_tautomer_probability>
1

> <r_epik_Ionization_Penalty>
2.66156e-08

> <r_epik_Ionization_Penalty_Charging>
0

> <r_epik_Ionization_Penalty_Neutral>
2.66156e-08

> <r_epik_State_Penalty>
-0

> <r_epik_Charging_Adjusted_Penalty>
0

> <i_epik_Tot_Q>
0

> <i_epik_Tot_abs_Q>
0

> <r_epik_Metal_State_Penalty>
-0

> <b_epik_Metal_Only>
0

> <s_lp_Force_Field>
OPLS_2005

> <r_lp_Energy>
12.7116

> <b_lp_Chiralities_Consistent>
1

> <s_lp_Variant>
AV-unprocessed.smi:1328-3

> <Gold.Version>
5.8.1

> <Gold.Id.Protein>
6NUR|6NUR_protein|mol2

> <Gold.PLP.Fitness>
41.9798

> <Gold.PLP.PLP>
-37.0051

> <Gold.PLP.part.hbond>
-2.3068

> <Gold.PLP.part.metal>
0.0000

> <Gold.PLP.part.buried>
-4.8584

> <Gold.PLP.part.nonpolar>
-30.0701

> <Gold.PLP.part.repulsive>
0.2116

> <Gold.PLP.ligand.clash>
0.0000

> <Gold.PLP.ligand.torsion>
0.5420

> <Gold.PLP.Chemscore.Hbond>
2.0000

> <Gold.PLP.Chemscore.CHOScore>
0.0000

> <Gold.PLP.Chemscore.Metal>
0.0000

> <Gold.Chemscore.Hbonds>
donor molecule, donor type, donor heavy atom, donor atom, acceptor molecule, acceptor atom, score
      P1  H  7997  8010       L1    10  1.00
      P1  H 10752 10763       L1     3  1.00

> <Gold.PLP.Chemscore.Internal.Correction>
0.0586

> <Gold.Rescore>
     Score         DG    S(hbond)    S(metal)    S(lipo)     H(rot)  DE(clash)    DE(int)     intcor
     19.15     -19.74       1.93        0.00      99.91       1.52       0.07       0.52       ----

> <Gold.Chemscore.Fitness>
19.1536

> <Gold.Chemscore.DG>
-19.7402

> <Gold.Chemscore.ZeroCoef>
-5.4800

> <Gold.Chemscore.Hbond>
1.9314

> <Gold.Chemscore.Metal>
0.0000

> <Gold.Chemscore.Lipo>
99.9147

> <Gold.Chemscore.Internal_Hbond>
0.0000

> <Gold.Chemscore.DEClash>
0.0692

> <Gold.Chemscore.DEInternal>
0.5174

> <Gold.Chemscore.Rot>
1.5159

> <Gold.Chemscore.Internal.Correction>
   9.000000E+99

> <Gold.Chemscore.Hbonds>
donor molecule, donor type, donor heavy atom, donor atom, acceptor molecule, acceptor atom, score
      P1  H  7997  8010       L1    10  0.82
      P1  H 10752 10763       L1     3  0.48

> <Gold.Chemscore.Hbond.Weighted>
-6.4510

> <Gold.Chemscore.Metal.Weighted>
-0.0000

> <Gold.Chemscore.Lipo.Weighted>
-11.6900

> <Gold.Chemscore.Internal_Hbond.Weighted>
0.0000

> <Gold.Chemscore.DEClash.Weighted>
0.0692

> <Gold.Chemscore.DEInternal.Weighted>
0.5174

> <Gold.Chemscore.Rot.Weighted>
3.8807

> <Gold.Chemscore.Internal.Correction.Weighted>
   9.000000E+99

> <Gold.Protein.RotatedTorsions>
[ 6907 6896 6895 6894 ] final  125.23 input  -60.11 | X-H torsion
[ 7974 7965 7964 7962 ] final  111.42 input  175.53 | X-H torsion
[ 8008 7997 7996 7995 ] final   41.56 input   59.86 | X-H torsion
[ 10167 10162 10161 10158 ] final -145.95 input  -65.29 | X-H torsion
[ 10718 10713 10712 10709 ] final   70.15 input   66.30 | X-H torsion
[ 10763 10752 10751 10750 ] final   70.99 input  -60.55 | X-H torsion
[ 11005 11000 10999 10996 ] final   65.96 input  -57.11 | X-H torsion

> <Gold.Protein.ActiveResidues>
 VAL166  LYS551  ARG553  GLY616  TRP617  ASP618  TYR619  PRO620  LYS621  CYS622 
 ASP623  PHE694  ASN695  SER759  ASP760  ASP761  ALA762  ILE779  LEU786  VAL792 
 PHE793  MET794  SER795  GLU796  ALA797  LYS798  CYS799  TRP800  GLU811  SER814 

> <Gold.Protein.RotatedAtoms>
  152.4010  133.6818  159.6316 H   0  0  0  0  0  0  0  0  0  0  0  0  # atno 6907 bound_to 6896
  150.7901  133.8791  159.3289 H   0  0  0  0  0  0  0  0  0  0  0  0  # atno 6908 bound_to 6896
  151.6557  135.0997  160.0221 H   0  0  0  0  0  0  0  0  0  0  0  0  # atno 6909 bound_to 6896
  145.2424  139.2773  143.4110 H   0  0  0  0  0  0  0  0  0  0  0  0  # atno 7974 bound_to 7965
  155.2717  140.3366  155.4265 H   0  0  0  0  0  0  0  0  0  0  0  0  # atno 8008 bound_to 7997
  156.2130  140.1777  156.7695 H   0  0  0  0  0  0  0  0  0  0  0  0  # atno 8009 bound_to 7997
  154.5713  140.0669  156.8952 H   0  0  0  0  0  0  0  0  0  0  0  0  # atno 8010 bound_to 7997
  139.7758  143.8171  152.2631 H   0  0  0  0  0  0  0  0  0  0  0  0  # atno 10167 bound_to 10162
  157.6384  130.9462  150.0611 H   0  0  0  0  0  0  0  0  0  0  0  0  # atno 10718 bound_to 10713
  153.0373  135.5153  154.7526 H   0  0  0  0  0  0  0  0  0  0  0  0  # atno 10763 bound_to 10752
  154.6492  135.2922  155.0011 H   0  0  0  0  0  0  0  0  0  0  0  0  # atno 10764 bound_to 10752
  154.0901  135.6651  153.4904 H   0  0  0  0  0  0  0  0  0  0  0  0  # atno 10765 bound_to 10752
  139.9861  134.6665  156.0173 H   0  0  0  0  0  0  0  0  0  0  0  0  # atno 11005 bound_to 11000
  146.3325  140.2792  142.8609 LP  0  0  0  0  0  0  0  0  0  0  0  0  # atno 17320 bound_to 7965
  144.9576  140.8243  143.5533 LP  0  0  0  0  0  0  0  0  0  0  0  0  # atno 17321 bound_to 7965
  139.8219  144.7292  150.9561 LP  0  0  0  0  0  0  0  0  0  0  0  0  # atno 17342 bound_to 10162
  140.7816  143.4151  151.0931 LP  0  0  0  0  0  0  0  0  0  0  0  0  # atno 17343 bound_to 10162
  156.1644  130.3644  149.9254 LP  0  0  0  0  0  0  0  0  0  0  0  0  # atno 17370 bound_to 10713
  156.7244  130.9019  151.3621 LP  0  0  0  0  0  0  0  0  0  0  0  0  # atno 17371 bound_to 10713
  141.1526  133.6546  156.4061 LP  0  0  0  0  0  0  0  0  0  0  0  0  # atno 17394 bound_to 11000
  140.4999  134.6496  157.5244 LP  0  0  0  0  0  0  0  0  0  0  0  0  # atno 17395 bound_to 11000

$$$$
