AV-unprocessed.smi:155|AV-procd|sdf|1280|dock7
  -GOLD-   2262018553D 1   1.00000     0.00000
 Structure written by MMmdl.
 64 67  0  0  0  0  0  0  0  0  3 V2000
  146.3736  130.6024  152.7806 C   0  0  0  0  0  0  0  0  0  0  0  0
  147.6762  131.3041  152.8371 N   0  3  0  0  0  0  0  0  0  0  0  0
  148.5874  130.6588  153.8105 C   0  0  0  0  0  0  0  0  0  0  0  0
  147.5078  132.7679  153.0475 C   0  0  0  0  0  0  0  0  0  0  0  0
  146.6929  133.4695  151.9353 C   0  0  0  0  0  0  0  0  0  0  0  0
  146.2736  134.8567  152.2736 N   0  3  1  0  0  0  0  0  0  0  0  0
  145.7271  135.6106  151.1136 C   0  0  0  0  0  0  0  0  0  0  0  0
  146.3208  137.0296  151.0703 C   0  0  0  0  0  0  0  0  0  0  0  0
  145.8064  137.9636  152.1819 C   0  0  0  0  0  0  0  0  0  0  0  0
  145.9594  137.3991  153.5222 N   0  0  0  0  0  0  0  0  0  0  0  0
  147.1404  137.4715  154.2091 C   0  0  0  0  0  0  0  0  0  0  0  0
  147.5893  136.3374  154.8128 N   0  0  0  0  0  0  0  0  0  0  0  0
  148.7408  136.3201  155.4867 C   0  0  0  0  0  0  0  0  0  0  0  0
  149.6057  137.3141  155.6760 N   0  0  0  0  0  0  0  0  0  0  0  0
  149.1713  138.4639  155.0881 C   0  0  0  0  0  0  0  0  0  0  0  0
  147.9674  138.6327  154.3398 C   0  0  0  0  0  0  0  0  0  0  0  0
  147.8999  139.9452  153.8829 N   0  0  0  0  0  0  0  0  0  0  0  0
  148.9813  140.5139  154.3373 C   0  0  0  0  0  0  0  0  0  0  0  0
  149.7981  139.6975  155.0823 N   0  0  0  0  0  0  0  0  0  0  0  0
  151.0573  140.0685  155.7090 C   0  0  0  0  0  0  0  0  0  0  0  0
  150.9428  141.1983  156.7590 C   0  0  2  0  0  0  0  0  0  0  0  0
  150.5923  142.4269  156.1522 O   0  0  0  0  0  0  0  0  0  0  0  0
  152.1769  141.3838  157.6715 C   0  0  2  0  0  0  0  0  0  0  0  0
  152.4313  140.2616  158.6827 C   0  0  0  0  0  0  0  0  0  0  0  0
  153.2486  140.9805  159.7320 C   0  0  0  0  0  0  0  0  0  0  0  0
  152.5733  142.3480  159.7626 C   0  0  0  0  0  0  0  0  0  0  0  0
  152.1361  142.5912  158.4293 O   0  0  0  0  0  0  0  0  0  0  0  0
  144.9836  136.3652  153.8822 C   0  0  0  0  0  0  0  0  0  0  0  0
  145.4114  134.9331  153.4870 C   0  0  0  0  0  0  0  0  0  0  0  0
  145.8404  130.6912  153.7281 H   0  0  0  0  0  0  0  0  0  0  0  0
  146.5134  129.5423  152.5656 H   0  0  0  0  0  0  0  0  0  0  0  0
  145.7424  131.0137  151.9919 H   0  0  0  0  0  0  0  0  0  0  0  0
  148.2474  130.8235  154.8334 H   0  0  0  0  0  0  0  0  0  0  0  0
  149.6033  131.0372  153.7177 H   0  0  0  0  0  0  0  0  0  0  0  0
  148.6372  129.5825  153.6417 H   0  0  0  0  0  0  0  0  0  0  0  0
  146.9420  132.9034  153.9705 H   0  0  0  0  0  0  0  0  0  0  0  0
  148.4721  133.2402  153.2316 H   0  0  0  0  0  0  0  0  0  0  0  0
  147.2979  133.4590  151.0278 H   0  0  0  0  0  0  0  0  0  0  0  0
  145.7995  132.8869  151.7059 H   0  0  0  0  0  0  0  0  0  0  0  0
  145.9927  135.1203  150.1768 H   0  0  0  0  0  0  0  0  0  0  0  0
  144.6364  135.6325  151.1343 H   0  0  0  0  0  0  0  0  0  0  0  0
  147.4083  136.9657  151.1010 H   0  0  0  0  0  0  0  0  0  0  0  0
  146.0805  137.4830  150.1083 H   0  0  0  0  0  0  0  0  0  0  0  0
  146.2676  138.9477  152.1174 H   0  0  0  0  0  0  0  0  0  0  0  0
  144.7455  138.1524  152.0136 H   0  0  0  0  0  0  0  0  0  0  0  0
  149.0091  135.3742  155.9341 H   0  0  0  0  0  0  0  0  0  0  0  0
  149.2075  141.5542  154.1523 H   0  0  0  0  0  0  0  0  0  0  0  0
  151.4840  139.1758  156.1679 H   0  0  0  0  0  0  0  0  0  0  0  0
  151.7539  140.3670  154.9247 H   0  0  0  0  0  0  0  0  0  0  0  0
  150.1042  140.9413  157.4069 H   0  0  0  0  0  0  0  0  0  0  0  0
  151.3720  142.8178  155.7890 H   0  0  0  0  0  0  0  0  0  0  0  0
  153.0608  141.4612  157.0366 H   0  0  0  0  0  0  0  0  0  0  0  0
  151.5017  139.9044  159.1273 H   0  0  0  0  0  0  0  0  0  0  0  0
  152.9499  139.4068  158.2478 H   0  0  0  0  0  0  0  0  0  0  0  0
  153.2420  140.4801  160.7007 H   0  0  0  0  0  0  0  0  0  0  0  0
  154.2835  141.0776  159.4017 H   0  0  0  0  0  0  0  0  0  0  0  0
  151.6987  142.3250  160.4138 H   0  0  0  0  0  0  0  0  0  0  0  0
  153.2381  143.1366  160.1155 H   0  0  0  0  0  0  0  0  0  0  0  0
  144.7371  136.4126  154.9436 H   0  0  0  0  0  0  0  0  0  0  0  0
  144.0472  136.5960  153.3732 H   0  0  0  0  0  0  0  0  0  0  0  0
  144.5242  134.3118  153.3579 H   0  0  0  0  0  0  0  0  0  0  0  0
  145.9576  134.5109  154.3287 H   0  0  0  0  0  0  0  0  0  0  0  0
  148.0899  131.1849  151.9231 H   0  0  0  0  0  0  0  0  0  0  0  0
  147.1272  135.3425  152.5076 H   0  0  0  0  0  0  0  0  0  0  0  0
  1  2  1  0  0  0  0
  1 30  1  0  0  0  0
  1 31  1  0  0  0  0
  1 32  1  0  0  0  0
  2  3  1  0  0  0  0
  2  4  1  0  0  0  0
  2 63  1  0  0  0  0
  3 33  1  0  0  0  0
  3 34  1  0  0  0  0
  3 35  1  0  0  0  0
  4  5  1  0  0  0  0
  4 36  1  0  0  0  0
  4 37  1  0  0  0  0
  5  6  1  0  0  0  0
  5 38  1  0  0  0  0
  5 39  1  0  0  0  0
  6 29  1  0  0  0  0
  6  7  1  0  0  0  0
  6 64  1  0  0  0  0
  7  8  1  0  0  0  0
  7 40  1  0  0  0  0
  7 41  1  0  0  0  0
  8  9  1  0  0  0  0
  8 42  1  0  0  0  0
  8 43  1  0  0  0  0
  9 10  1  0  0  0  0
  9 44  1  0  0  0  0
  9 45  1  0  0  0  0
 10 11  1  0  0  0  0
 10 28  1  0  0  0  0
 11 16  1  0  0  0  0
 11 12  2  0  0  0  0
 12 13  1  0  0  0  0
 13 14  2  0  0  0  0
 13 46  1  0  0  0  0
 14 15  1  0  0  0  0
 15 19  1  0  0  0  0
 15 16  2  0  0  0  0
 16 17  1  0  0  0  0
 17 18  2  0  0  0  0
 18 19  1  0  0  0  0
 18 47  1  0  0  0  0
 19 20  1  0  0  0  0
 20 21  1  0  0  0  0
 20 48  1  0  0  0  0
 20 49  1  0  0  0  0
 21 22  1  0  0  0  0
 21 23  1  0  0  0  0
 21 50  1  0  0  0  0
 22 51  1  0  0  0  0
 23 27  1  0  0  0  0
 23 24  1  0  0  0  0
 23 52  1  0  0  0  0
 24 25  1  0  0  0  0
 24 53  1  0  0  0  0
 24 54  1  0  0  0  0
 25 26  1  0  0  0  0
 25 55  1  0  0  0  0
 25 56  1  0  0  0  0
 26 27  1  0  0  0  0
 26 57  1  0  0  0  0
 26 58  1  0  0  0  0
 28 29  1  0  0  0  0
 28 59  1  0  0  0  0
 28 60  1  0  0  0  0
 29 61  1  0  0  0  0
 29 62  1  0  0  0  0
M  CHG  1   2   1
M  CHG  1   6   1
M  END
> <s_m_source_file>
AV-unprocessed.smi

> <i_m_source_file_index>
155

> <i_lp_mmshare_version>
43012

> <i_f3d_flags>
0

> <s_epik_input>
W0NIM11OKFtDSDNdKVtDSDJdW0NIMl1OMVtDSDJdW0NIMl1bQ0gyXU4oW0NIMl1bQ0gyXTEpYyhuW2NIXW4yKWMoYzIzKW5bY0hdbjNbQ0gyXVtDQEhdKFtPSF0pW0NAQEhdNFtDSDJdW0NIMl1bQ0gyXU80

> <s_epik_cmdline>
J2VwaWtfcHl0aG9uJywgJy1waCcsICc3LjAnLCAnLXRuJywgJzgnLCAnLW1hJywgJzIwMCcsICctbWV0YWxfYmluZGluZycsICctaW1hZScsICc8aW5maWxlLm1hZT4nLCAnLW9tYWUnLCAnPG91dGZpbGUubWFlPic=

> <r_lp_tautomer_probability>
1

> <r_epik_Ionization_Penalty>
3.0333

> <r_epik_Ionization_Penalty_Charging>
3.03317

> <r_epik_Ionization_Penalty_Neutral>
0.000131872

> <r_epik_State_Penalty>
1.99939

> <r_epik_Charging_Adjusted_Penalty>
5.03256

> <i_epik_Tot_Q>
2

> <i_epik_Tot_abs_Q>
2

> <r_epik_Metal_State_Penalty>
2.00021

> <b_epik_Metal_Only>
0

> <s_lp_Force_Field>
OPLS_2005

> <r_lp_Energy>
60.5665

> <b_lp_Chiralities_Consistent>
1

> <s_lp_Variant>
AV-unprocessed.smi:155-14

> <Gold.Version>
5.8.1

> <Gold.Id.Protein>
6NUR|6NUR_protein|mol2

> <Gold.PLP.Fitness>
46.6384

> <Gold.PLP.PLP>
-39.4795

> <Gold.PLP.part.hbond>
-3.0000

> <Gold.PLP.part.metal>
0.0000

> <Gold.PLP.part.buried>
-1.3351

> <Gold.PLP.part.nonpolar>
-35.3439

> <Gold.PLP.part.repulsive>
0.3401

> <Gold.PLP.ligand.clash>
0.0000

> <Gold.PLP.ligand.torsion>
0.8644

> <Gold.PLP.Chemscore.Hbond>
2.8560

> <Gold.PLP.Chemscore.CHOScore>
0.0000

> <Gold.PLP.Chemscore.Metal>
0.0000

> <Gold.Chemscore.Hbonds>
donor molecule, donor type, donor heavy atom, donor atom, acceptor molecule, acceptor atom, score
      L1  H     2    63       P1 10747  1.00
      L1  H     6    64       P1  7948  1.53

> <Gold.PLP.Chemscore.Internal.Correction>
0.3198

> <Gold.Rescore>
     Score         DG    S(hbond)    S(metal)    S(lipo)     H(rot)  DE(clash)    DE(int)     intcor
     12.92     -16.57       1.94        0.00      99.70       2.75       1.54       2.11       ----

> <Gold.Chemscore.Fitness>
12.9231

> <Gold.Chemscore.DG>
-16.5704

> <Gold.Chemscore.ZeroCoef>
-5.4800

> <Gold.Chemscore.Hbond>
1.9352

> <Gold.Chemscore.Metal>
0.0000

> <Gold.Chemscore.Lipo>
99.7029

> <Gold.Chemscore.Internal_Hbond>
0.0000

> <Gold.Chemscore.DEClash>
1.5393

> <Gold.Chemscore.DEInternal>
2.1080

> <Gold.Chemscore.Rot>
2.7493

> <Gold.Chemscore.Internal.Correction>
   9.000000E+99

> <Gold.Chemscore.Hbonds>
donor molecule, donor type, donor heavy atom, donor atom, acceptor molecule, acceptor atom, score
      L1  H     2    63       P1 10747  1.00
      L1  H     6    64       P1  7948  0.72

> <Gold.Chemscore.Hbond.Weighted>
-6.4634

> <Gold.Chemscore.Metal.Weighted>
-0.0000

> <Gold.Chemscore.Lipo.Weighted>
-11.6652

> <Gold.Chemscore.Internal_Hbond.Weighted>
0.0000

> <Gold.Chemscore.DEClash.Weighted>
1.5393

> <Gold.Chemscore.DEInternal.Weighted>
2.1080

> <Gold.Chemscore.Rot.Weighted>
7.0383

> <Gold.Chemscore.Internal.Correction.Weighted>
   9.000000E+99

> <Gold.Protein.RotatedTorsions>
[ 6907 6896 6895 6894 ] final  -34.73 input  -60.11 | X-H torsion
[ 7974 7965 7964 7962 ] final   53.36 input  175.53 | X-H torsion
[ 8008 7997 7996 7995 ] final  -96.93 input   59.86 | X-H torsion
[ 10167 10162 10161 10158 ] final  -96.49 input  -65.29 | X-H torsion
[ 10718 10713 10712 10709 ] final -137.07 input   66.30 | X-H torsion
[ 10763 10752 10751 10750 ] final   68.73 input  -60.55 | X-H torsion
[ 11005 11000 10999 10996 ] final  -53.61 input  -57.11 | X-H torsion

> <Gold.Protein.ActiveResidues>
 VAL166  LYS551  ARG553  GLY616  TRP617  ASP618  TYR619  PRO620  LYS621  CYS622 
 ASP623  PHE694  ASN695  SER759  ASP760  ASP761  ALA762  ILE779  LEU786  VAL792 
 PHE793  MET794  SER795  GLU796  ALA797  LYS798  CYS799  TRP800  GLU811  SER814 

> <Gold.Protein.RotatedAtoms>
  151.0489  134.9659  159.8200 H   0  0  0  0  0  0  0  0  0  0  0  0  # atno 6907 bound_to 6896
  152.5377  134.2563  159.8928 H   0  0  0  0  0  0  0  0  0  0  0  0  # atno 6908 bound_to 6896
  151.2578  133.4274  159.2648 H   0  0  0  0  0  0  0  0  0  0  0  0  # atno 6909 bound_to 6896
  145.9720  139.4158  143.0184 H   0  0  0  0  0  0  0  0  0  0  0  0  # atno 7974 bound_to 7965
  154.7810  140.0467  157.1127 H   0  0  0  0  0  0  0  0  0  0  0  0  # atno 8008 bound_to 7997
  154.9705  140.3089  155.4970 H   0  0  0  0  0  0  0  0  0  0  0  0  # atno 8009 bound_to 7997
  156.2936  140.2254  156.4797 H   0  0  0  0  0  0  0  0  0  0  0  0  # atno 8010 bound_to 7997
  140.2932  143.3208  152.0324 H   0  0  0  0  0  0  0  0  0  0  0  0  # atno 10167 bound_to 10162
  156.2841  130.7337  151.1343 H   0  0  0  0  0  0  0  0  0  0  0  0  # atno 10718 bound_to 10713
  153.0250  135.5236  154.7180 H   0  0  0  0  0  0  0  0  0  0  0  0  # atno 10763 bound_to 10752
  154.6243  135.2892  155.0292 H   0  0  0  0  0  0  0  0  0  0  0  0  # atno 10764 bound_to 10752
  154.1267  135.6599  153.4966 H   0  0  0  0  0  0  0  0  0  0  0  0  # atno 10765 bound_to 10752
  141.0984  133.6621  156.4197 H   0  0  0  0  0  0  0  0  0  0  0  0  # atno 11005 bound_to 11000
  145.7892  140.9822  143.1058 LP  0  0  0  0  0  0  0  0  0  0  0  0  # atno 17320 bound_to 7965
  144.6839  139.9662  143.7481 LP  0  0  0  0  0  0  0  0  0  0  0  0  # atno 17321 bound_to 7965
  139.4933  144.6509  151.6676 LP  0  0  0  0  0  0  0  0  0  0  0  0  # atno 17342 bound_to 10162
  140.5714  144.0102  150.6219 LP  0  0  0  0  0  0  0  0  0  0  0  0  # atno 17343 bound_to 10162
  157.7323  131.0601  150.5634 LP  0  0  0  0  0  0  0  0  0  0  0  0  # atno 17370 bound_to 10713
  156.5743  130.4288  149.6005 LP  0  0  0  0  0  0  0  0  0  0  0  0  # atno 17371 bound_to 10713
  140.5082  134.6420  157.5274 LP  0  0  0  0  0  0  0  0  0  0  0  0  # atno 17394 bound_to 11000
  139.9828  134.7110  155.9828 LP  0  0  0  0  0  0  0  0  0  0  0  0  # atno 17395 bound_to 11000

$$$$
