AV-unprocessed.smi:2353|AV-procd|sdf|9381|dock3
  -GOLD-   2272013 13D 1   1.00000     0.00000
 Structure written by MMmdl.
 45 47  0  0  0  0  0  0  0  0  1 V2000
  147.2515  128.7542  152.5919 C   0  0  0  0  0  0  0  0  0  0  0  0
  148.4063  129.3010  153.4058 C   0  0  0  0  0  0  0  0  0  0  0  0
  149.3925  128.4331  153.9127 C   0  0  0  0  0  0  0  0  0  0  0  0
  150.4598  128.9489  154.6693 C   0  0  0  0  0  0  0  0  0  0  0  0
  150.5481  130.3332  154.9241 C   0  0  0  0  0  0  0  0  0  0  0  0
  151.7079  130.8713  155.7405 C   0  0  0  0  0  0  0  0  0  0  0  0
  149.5648  131.2165  154.4209 C   0  0  0  0  0  0  0  0  0  0  0  0
  149.7121  132.5587  154.7050 O   0  0  0  0  0  0  0  0  0  0  0  0
  148.7649  133.4755  154.1730 C   0  0  0  0  0  0  0  0  0  0  0  0
  148.8605  134.7951  154.9582 C   0  0  1  0  0  0  0  0  0  0  0  0
  148.0357  134.6539  156.0984 O   0  0  0  0  0  0  0  0  0  0  0  0
  150.3015  135.0790  155.4376 C   0  0  0  0  0  0  0  0  0  0  0  0
  150.5829  136.5185  155.5048 N   0  0  0  0  0  0  0  0  0  0  0  0
  149.5946  137.3138  154.9489 N   0  0  0  0  0  0  0  0  0  0  0  0
  149.7049  138.6033  154.9512 C   0  0  0  0  0  0  0  0  0  0  0  0
  148.7108  139.4947  154.3879 N   0  0  0  0  0  0  0  0  0  0  0  0
  147.6492  138.9670  153.6555 C   0  0  0  0  0  0  0  0  0  0  0  0
  146.8907  140.0463  153.2591 C   0  0  0  0  0  0  0  0  0  0  0  0
  147.4608  141.2281  153.7318 N   0  0  0  0  0  0  0  0  0  0  0  0
  148.5382  140.8245  154.3935 C   0  0  0  0  0  0  0  0  0  0  0  0
  150.8745  139.2320  155.5410 C   0  0  0  0  0  0  0  0  0  0  0  0
  151.8322  138.4482  156.0812 C   0  0  0  0  0  0  0  0  0  0  0  0
  151.7234  136.9902  156.0901 C   0  0  0  0  0  0  0  0  0  0  0  0
  152.5780  136.2557  156.5842 O   0  0  0  0  0  0  0  0  0  0  0  0
  148.4919  130.6847  153.6604 C   0  0  0  0  0  0  0  0  0  0  0  0
  147.4351  127.7241  152.2849 H   0  0  0  0  0  0  0  0  0  0  0  0
  147.1014  129.3530  151.6931 H   0  0  0  0  0  0  0  0  0  0  0  0
  146.3333  128.7787  153.1790 H   0  0  0  0  0  0  0  0  0  0  0  0
  149.3352  127.3710  153.7248 H   0  0  0  0  0  0  0  0  0  0  0  0
  151.2123  128.2758  155.0532 H   0  0  0  0  0  0  0  0  0  0  0  0
  152.3345  131.5162  155.1242 H   0  0  0  0  0  0  0  0  0  0  0  0
  152.3302  130.0654  156.1308 H   0  0  0  0  0  0  0  0  0  0  0  0
  151.3404  131.4538  156.5858 H   0  0  0  0  0  0  0  0  0  0  0  0
  148.9200  133.6468  153.1060 H   0  0  0  0  0  0  0  0  0  0  0  0
  147.7705  133.0446  154.3008 H   0  0  0  0  0  0  0  0  0  0  0  0
  148.5032  135.6167  154.3353 H   0  0  0  0  0  0  0  0  0  0  0  0
  148.5784  134.4141  156.8344 H   0  0  0  0  0  0  0  0  0  0  0  0
  150.5089  134.5754  156.3840 H   0  0  0  0  0  0  0  0  0  0  0  0
  151.0100  134.6408  154.7323 H   0  0  0  0  0  0  0  0  0  0  0  0
  147.5098  137.9111  153.4724 H   0  0  0  0  0  0  0  0  0  0  0  0
  145.9837  140.0637  152.6730 H   0  0  0  0  0  0  0  0  0  0  0  0
  149.2053  141.5165  154.8858 H   0  0  0  0  0  0  0  0  0  0  0  0
  150.9847  140.3055  155.5514 H   0  0  0  0  0  0  0  0  0  0  0  0
  152.7040  138.9098  156.5215 H   0  0  0  0  0  0  0  0  0  0  0  0
  147.7183  131.3218  153.2596 H   0  0  0  0  0  0  0  0  0  0  0  0
  1  2  1  0  0  0  0
  1 26  1  0  0  0  0
  1 27  1  0  0  0  0
  1 28  1  0  0  0  0
  2 25  1  0  0  0  0
  2  3  2  0  0  0  0
  3  4  1  0  0  0  0
  3 29  1  0  0  0  0
  4  5  2  0  0  0  0
  4 30  1  0  0  0  0
  5  6  1  0  0  0  0
  5  7  1  0  0  0  0
  6 31  1  0  0  0  0
  6 32  1  0  0  0  0
  6 33  1  0  0  0  0
  7  8  1  0  0  0  0
  7 25  2  0  0  0  0
  8  9  1  0  0  0  0
  9 10  1  0  0  0  0
  9 34  1  0  0  0  0
  9 35  1  0  0  0  0
 10 11  1  0  0  0  0
 10 12  1  0  0  0  0
 10 36  1  0  0  0  0
 11 37  1  0  0  0  0
 12 13  1  0  0  0  0
 12 38  1  0  0  0  0
 12 39  1  0  0  0  0
 13 23  1  0  0  0  0
 13 14  1  0  0  0  0
 14 15  2  0  0  0  0
 15 16  1  0  0  0  0
 15 21  1  0  0  0  0
 16 20  1  0  0  0  0
 16 17  1  0  0  0  0
 17 18  2  0  0  0  0
 17 40  1  0  0  0  0
 18 19  1  0  0  0  0
 18 41  1  0  0  0  0
 19 20  2  0  0  0  0
 20 42  1  0  0  0  0
 21 22  2  0  0  0  0
 21 43  1  0  0  0  0
 22 23  1  0  0  0  0
 22 44  1  0  0  0  0
 23 24  2  0  0  0  0
 25 45  1  0  0  0  0
M  END
> <s_m_source_file>
AV-unprocessed.smi

> <i_m_source_file_index>
2353

> <i_lp_mmshare_version>
43012

> <i_f3d_flags>
0

> <s_epik_input>
W0NIM11jMVtjSF1bY0hdYyhbQ0gzXSljKFtjSF0xKU9bQ0gyXVtDQEhdKFtPSF0pW0NIMl1uMm5jKFtjSF1bY0hdYzI9TyktbjNbY0hdW2NIXW5bY0hdMw==

> <s_epik_cmdline>
J2VwaWtfcHl0aG9uJywgJy1waCcsICc3LjAnLCAnLXRuJywgJzgnLCAnLW1hJywgJzIwMCcsICctbWV0YWxfYmluZGluZycsICctaW1hZScsICc8aW5maWxlLm1hZT4nLCAnLW9tYWUnLCAnPG91dGZpbGUubWFlPic=

> <r_lp_tautomer_probability>
1

> <r_epik_Ionization_Penalty>
0.03707

> <r_epik_Ionization_Penalty_Charging>
0.0370699

> <r_epik_Ionization_Penalty_Neutral>
1.17174e-07

> <r_epik_State_Penalty>
0.0310055

> <r_epik_Charging_Adjusted_Penalty>
0.0680754

> <i_epik_Tot_Q>
0

> <i_epik_Tot_abs_Q>
0

> <r_epik_Metal_State_Penalty>
0.0291724

> <b_epik_Metal_Only>
0

> <s_lp_Force_Field>
OPLS_2005

> <r_lp_Energy>
35.5456

> <b_lp_Chiralities_Consistent>
1

> <s_lp_Variant>
AV-unprocessed.smi:2353-2

> <Gold.Version>
5.8.1

> <Gold.Id.Protein>
6NUR|6NUR_protein|mol2

> <Gold.PLP.Fitness>
46.8768

> <Gold.PLP.PLP>
-39.5959

> <Gold.PLP.part.hbond>
-1.0000

> <Gold.PLP.part.metal>
0.0000

> <Gold.PLP.part.buried>
-0.0757

> <Gold.PLP.part.nonpolar>
-38.2023

> <Gold.PLP.part.repulsive>
0.3993

> <Gold.PLP.ligand.clash>
0.0000

> <Gold.PLP.ligand.torsion>
0.9206

> <Gold.PLP.Chemscore.Hbond>
1.0000

> <Gold.PLP.Chemscore.CHOScore>
1.9958

> <Gold.PLP.Chemscore.Metal>
0.0000

> <Gold.Chemscore.Hbonds>
donor molecule, donor type, donor heavy atom, donor atom, acceptor molecule, acceptor atom, score
      P1  H 10752 10763       L1    24  1.00
      L1  C    17    40       P1  7948  0.48
      L1  C    18    41       P1 10175  1.00

> <Gold.PLP.Chemscore.Internal.Correction>
0.1347

> <Gold.Rescore>
     Score         DG    S(hbond)    S(metal)    S(lipo)     H(rot)  DE(clash)    DE(int)     intcor
     10.91     -11.89       0.93        0.00      85.14       2.60       0.12       0.87       ----

> <Gold.Chemscore.Fitness>
10.9081

> <Gold.Chemscore.DG>
-11.8938

> <Gold.Chemscore.ZeroCoef>
-5.4800

> <Gold.Chemscore.Hbond>
0.9296

> <Gold.Chemscore.Metal>
0.0000

> <Gold.Chemscore.Lipo>
85.1385

> <Gold.Chemscore.Internal_Hbond>
0.0000

> <Gold.Chemscore.DEClash>
0.1162

> <Gold.Chemscore.DEInternal>
0.8695

> <Gold.Chemscore.Rot>
2.5986

> <Gold.Chemscore.Internal.Correction>
   9.000000E+99

> <Gold.Chemscore.Hbonds>
donor molecule, donor type, donor heavy atom, donor atom, acceptor molecule, acceptor atom, score
      P1  H 10752 10763       L1    24  0.78

> <Gold.Chemscore.Hbond.Weighted>
-3.1049

> <Gold.Chemscore.Metal.Weighted>
-0.0000

> <Gold.Chemscore.Lipo.Weighted>
-9.9612

> <Gold.Chemscore.Internal_Hbond.Weighted>
0.0000

> <Gold.Chemscore.DEClash.Weighted>
0.1162

> <Gold.Chemscore.DEInternal.Weighted>
0.8695

> <Gold.Chemscore.Rot.Weighted>
6.6524

> <Gold.Chemscore.Internal.Correction.Weighted>
   9.000000E+99

> <Gold.Protein.RotatedTorsions>
[ 6907 6896 6895 6894 ] final  103.44 input  -60.11 | X-H torsion
[ 7974 7965 7964 7962 ] final  -19.04 input  175.53 | X-H torsion
[ 8008 7997 7996 7995 ] final    3.18 input   59.86 | X-H torsion
[ 10167 10162 10161 10158 ] final  -30.26 input  -65.29 | X-H torsion
[ 10718 10713 10712 10709 ] final  -85.64 input   66.30 | X-H torsion
[ 10763 10752 10751 10750 ] final  115.96 input  -60.55 | X-H torsion
[ 11005 11000 10999 10996 ] final -109.38 input  -57.11 | X-H torsion

> <Gold.Protein.ActiveResidues>
 VAL166  LYS551  ARG553  GLY616  TRP617  ASP618  TYR619  PRO620  LYS621  CYS622 
 ASP623  PHE694  ASN695  SER759  ASP760  ASP761  ALA762  ILE779  LEU786  VAL792 
 PHE793  MET794  SER795  GLU796  ALA797  LYS798  CYS799  TRP800  GLU811  SER814 

> <Gold.Protein.RotatedAtoms>
  152.5295  133.9825  159.7812 H   0  0  0  0  0  0  0  0  0  0  0  0  # atno 6907 bound_to 6896
  151.0076  133.5988  159.2694 H   0  0  0  0  0  0  0  0  0  0  0  0  # atno 6908 bound_to 6896
  151.3074  135.0791  159.9313 H   0  0  0  0  0  0  0  0  0  0  0  0  # atno 6909 bound_to 6896
  146.1862  140.4006  142.8475 H   0  0  0  0  0  0  0  0  0  0  0  0  # atno 7974 bound_to 7965
  154.7006  140.2672  155.6723 H   0  0  0  0  0  0  0  0  0  0  0  0  # atno 8008 bound_to 7997
  156.2763  140.2773  156.1539 H   0  0  0  0  0  0  0  0  0  0  0  0  # atno 8009 bound_to 7997
  155.0770  140.0372  157.2617 H   0  0  0  0  0  0  0  0  0  0  0  0  # atno 8010 bound_to 7997
  140.7251  143.3863  151.1510 H   0  0  0  0  0  0  0  0  0  0  0  0  # atno 10167 bound_to 10162
  155.9995  130.4738  150.4594 H   0  0  0  0  0  0  0  0  0  0  0  0  # atno 10718 bound_to 10713
  153.5300  135.3580  155.2671 H   0  0  0  0  0  0  0  0  0  0  0  0  # atno 10763 bound_to 10752
  154.8727  135.4066  154.3162 H   0  0  0  0  0  0  0  0  0  0  0  0  # atno 10764 bound_to 10752
  153.3849  135.7069  153.6605 H   0  0  0  0  0  0  0  0  0  0  0  0  # atno 10765 bound_to 10752
  141.0851  133.9153  157.2204 H   0  0  0  0  0  0  0  0  0  0  0  0  # atno 11005 bound_to 11000
  144.8401  140.6844  143.6235 LP  0  0  0  0  0  0  0  0  0  0  0  0  # atno 17320 bound_to 7965
  145.3932  139.1612  143.4217 LP  0  0  0  0  0  0  0  0  0  0  0  0  # atno 17321 bound_to 7965
  139.7460  143.8851  152.3063 LP  0  0  0  0  0  0  0  0  0  0  0  0  # atno 17342 bound_to 10162
  139.8688  144.7079  150.9011 LP  0  0  0  0  0  0  0  0  0  0  0  0  # atno 17343 bound_to 10162
  157.2619  131.0569  151.2315 LP  0  0  0  0  0  0  0  0  0  0  0  0  # atno 17370 bound_to 10713
  157.3426  130.7041  149.6391 LP  0  0  0  0  0  0  0  0  0  0  0  0  # atno 17371 bound_to 10713
  139.9668  135.0139  156.9408 LP  0  0  0  0  0  0  0  0  0  0  0  0  # atno 17394 bound_to 11000
  140.5382  134.0746  155.7334 LP  0  0  0  0  0  0  0  0  0  0  0  0  # atno 17395 bound_to 11000

$$$$
