AV-unprocessed.smi:229|AV-procd|sdf|1752|dock7
  -GOLD-   2262020273D 1   1.00000     0.00000
 Structure written by MMmdl.
 58 62  0  0  0  0  0  0  0  0  1 V2000
  147.6254  135.3741  159.7420 C   0  0  0  0  0  0  0  0  0  0  0  0
  147.9578  134.2500  158.7493 C   0  0  0  0  0  0  0  0  0  0  0  0
  148.3107  134.7338  157.3317 C   0  0  1  0  0  0  0  0  0  0  0  0
  149.4411  135.7795  157.3019 C   0  0  0  0  0  0  0  0  0  0  0  0
  149.7665  136.1080  155.9196 N   0  0  0  0  0  0  0  0  0  0  0  0
  150.5024  137.2193  155.6726 C   0  0  0  0  0  0  0  0  0  0  0  0
  151.5307  137.1748  154.7840 N   0  0  0  0  0  0  0  0  0  0  0  0
  152.2483  138.2731  154.5286 C   0  0  0  0  0  0  0  0  0  0  0  0
  152.1129  139.4973  155.0428 N   0  0  0  0  0  0  0  0  0  0  0  0
  151.0904  139.5447  155.9435 C   0  0  0  0  0  0  0  0  0  0  0  0
  150.2431  138.4627  156.3139 C   0  0  0  0  0  0  0  0  0  0  0  0
  149.3232  138.8855  157.2667 N   0  0  0  0  0  0  0  0  0  0  0  0
  149.6048  140.1473  157.4430 C   0  0  0  0  0  0  0  0  0  0  0  0
  150.6491  140.6263  156.6856 N   0  0  0  0  0  0  0  0  0  0  0  0
  151.1644  141.9841  156.6870 C   0  0  0  0  0  0  0  0  0  0  0  0
  150.9765  142.6797  158.0490 C   0  0  2  0  0  0  0  0  0  0  0  0
  150.6617  144.0424  157.8343 O   0  0  0  0  0  0  0  0  0  0  0  0
  152.2370  142.5884  158.9279 C   0  0  1  0  0  0  0  0  0  0  0  0
  152.1251  143.3018  160.2760 C   0  0  0  0  0  0  0  0  0  0  0  0
  153.1380  142.5768  161.1477 C   0  0  0  0  0  0  0  0  0  0  0  0
  153.4097  141.2712  160.3954 C   0  0  0  0  0  0  0  0  0  0  0  0
  152.4666  141.2474  159.3328 O   0  0  0  0  0  0  0  0  0  0  0  0
  150.1373  134.9369  155.1352 C   0  0  0  0  0  0  0  0  0  0  0  0
  149.0138  133.8812  155.1729 C   0  0  1  0  0  0  0  0  0  0  0  0
  147.8014  134.2337  154.3163 C   0  0  0  0  0  0  0  0  0  0  0  0
  147.1987  132.8653  154.0392 C   0  0  0  0  0  0  0  0  0  0  0  0
  148.3289  132.0347  153.8218 O   0  0  0  0  0  0  0  0  0  0  0  0
  149.4455  132.5446  154.5477 C   0  0  0  0  0  0  0  0  0  0  0  0
  148.6601  133.6006  156.5336 O   0  0  0  0  0  0  0  0  0  0  0  0
  147.4504  134.9667  160.7378 H   0  0  0  0  0  0  0  0  0  0  0  0
  146.7268  135.9173  159.4507 H   0  0  0  0  0  0  0  0  0  0  0  0
  148.4431  136.0911  159.8189 H   0  0  0  0  0  0  0  0  0  0  0  0
  148.7970  133.6749  159.1420 H   0  0  0  0  0  0  0  0  0  0  0  0
  147.1175  133.5573  158.6971 H   0  0  0  0  0  0  0  0  0  0  0  0
  147.4113  135.1919  156.9216 H   0  0  0  0  0  0  0  0  0  0  0  0
  149.1289  136.6751  157.8410 H   0  0  0  0  0  0  0  0  0  0  0  0
  150.3370  135.3973  157.7921 H   0  0  0  0  0  0  0  0  0  0  0  0
  153.0442  138.1540  153.8082 H   0  0  0  0  0  0  0  0  0  0  0  0
  149.0536  140.7687  158.1337 H   0  0  0  0  0  0  0  0  0  0  0  0
  152.2226  141.9411  156.4271 H   0  0  0  0  0  0  0  0  0  0  0  0
  150.6732  142.5511  155.8952 H   0  0  0  0  0  0  0  0  0  0  0  0
  150.1385  142.2209  158.5755 H   0  0  0  0  0  0  0  0  0  0  0  0
  150.1512  144.1105  157.0419 H   0  0  0  0  0  0  0  0  0  0  0  0
  153.1127  142.9499  158.3848 H   0  0  0  0  0  0  0  0  0  0  0  0
  152.3180  144.3725  160.2035 H   0  0  0  0  0  0  0  0  0  0  0  0
  151.1254  143.1680  160.6912 H   0  0  0  0  0  0  0  0  0  0  0  0
  154.0570  143.1545  161.2511 H   0  0  0  0  0  0  0  0  0  0  0  0
  152.7392  142.3969  162.1463 H   0  0  0  0  0  0  0  0  0  0  0  0
  154.4188  141.2710  159.9812 H   0  0  0  0  0  0  0  0  0  0  0  0
  153.3029  140.3921  161.0311 H   0  0  0  0  0  0  0  0  0  0  0  0
  150.3711  135.1968  154.1032 H   0  0  0  0  0  0  0  0  0  0  0  0
  151.0497  134.5174  155.5616 H   0  0  0  0  0  0  0  0  0  0  0  0
  147.0967  134.9239  154.7768 H   0  0  0  0  0  0  0  0  0  0  0  0
  148.1248  134.6807  153.3751 H   0  0  0  0  0  0  0  0  0  0  0  0
  146.6459  132.5050  154.9078 H   0  0  0  0  0  0  0  0  0  0  0  0
  146.5285  132.8639  153.1795 H   0  0  0  0  0  0  0  0  0  0  0  0
  150.2630  132.6847  153.8393 H   0  0  0  0  0  0  0  0  0  0  0  0
  149.7832  131.8288  155.2980 H   0  0  0  0  0  0  0  0  0  0  0  0
  1  2  1  0  0  0  0
  1 30  1  0  0  0  0
  1 31  1  0  0  0  0
  1 32  1  0  0  0  0
  2  3  1  0  0  0  0
  2 33  1  0  0  0  0
  2 34  1  0  0  0  0
  3 29  1  0  0  0  0
  3  4  1  0  0  0  0
  3 35  1  0  0  0  0
  4  5  1  0  0  0  0
  4 36  1  0  0  0  0
  4 37  1  0  0  0  0
  5  6  1  0  0  0  0
  5 23  1  0  0  0  0
  6 11  1  0  0  0  0
  6  7  2  0  0  0  0
  7  8  1  0  0  0  0
  8  9  2  0  0  0  0
  8 38  1  0  0  0  0
  9 10  1  0  0  0  0
 10 14  1  0  0  0  0
 10 11  2  0  0  0  0
 11 12  1  0  0  0  0
 12 13  2  0  0  0  0
 13 14  1  0  0  0  0
 13 39  1  0  0  0  0
 14 15  1  0  0  0  0
 15 16  1  0  0  0  0
 15 40  1  0  0  0  0
 15 41  1  0  0  0  0
 16 17  1  0  0  0  0
 16 18  1  0  0  0  0
 16 42  1  0  0  0  0
 17 43  1  0  0  0  0
 18 22  1  0  0  0  0
 18 19  1  0  0  0  0
 18 44  1  0  0  0  0
 19 20  1  0  0  0  0
 19 45  1  0  0  0  0
 19 46  1  0  0  0  0
 20 21  1  0  0  0  0
 20 47  1  0  0  0  0
 20 48  1  0  0  0  0
 21 22  1  0  0  0  0
 21 49  1  0  0  0  0
 21 50  1  0  0  0  0
 23 24  1  0  0  0  0
 23 51  1  0  0  0  0
 23 52  1  0  0  0  0
 24 28  1  0  0  0  0
 24 25  1  0  0  0  0
 24 29  1  0  0  0  0
 25 26  1  0  0  0  0
 25 53  1  0  0  0  0
 25 54  1  0  0  0  0
 26 27  1  0  0  0  0
 26 55  1  0  0  0  0
 26 56  1  0  0  0  0
 27 28  1  0  0  0  0
 28 57  1  0  0  0  0
 28 58  1  0  0  0  0
M  END
> <s_m_source_file>
AV-unprocessed.smi

> <i_m_source_file_index>
229

> <i_lp_mmshare_version>
43012

> <i_f3d_flags>
0

> <s_epik_input>
W0NIMl0xT1tDSDJdW0NIMl1bQ0BdMTJbQ0gyXU4oW0NIMl1bQ0BIXShPMilbQ0gyXVtDSDNdKWMobltjSF1uMyljKGMzNCluW2NIXW40W0NIMl1bQ0BIXShbT0hdKVtDQEBIXTVbQ0gyXVtDSDJdW0NIMl1PNQ==

> <s_epik_cmdline>
J2VwaWtfcHl0aG9uJywgJy1waCcsICc3LjAnLCAnLXRuJywgJzgnLCAnLW1hJywgJzIwMCcsICctbWV0YWxfYmluZGluZycsICctaW1hZScsICc8aW5maWxlLm1hZT4nLCAnLW9tYWUnLCAnPG91dGZpbGUubWFlPic=

> <r_lp_tautomer_probability>
1

> <r_epik_Ionization_Penalty>
0.00318402

> <r_epik_Ionization_Penalty_Charging>
0

> <r_epik_Ionization_Penalty_Neutral>
0.00318402

> <r_epik_State_Penalty>
0.00215642

> <r_epik_Charging_Adjusted_Penalty>
0.00215642

> <i_epik_Tot_Q>
0

> <i_epik_Tot_abs_Q>
0

> <r_epik_Metal_State_Penalty>
-0

> <b_epik_Metal_Only>
0

> <s_lp_Force_Field>
OPLS_2005

> <r_lp_Energy>
54.3536

> <b_lp_Chiralities_Consistent>
1

> <s_lp_Variant>
AV-unprocessed.smi:229-6

> <Gold.Version>
5.8.1

> <Gold.Id.Protein>
6NUR|6NUR_protein|mol2

> <Gold.PLP.Fitness>
51.8010

> <Gold.PLP.PLP>
-45.2997

> <Gold.PLP.part.hbond>
-3.0000

> <Gold.PLP.part.metal>
0.0000

> <Gold.PLP.part.buried>
-8.7779

> <Gold.PLP.part.nonpolar>
-34.0541

> <Gold.PLP.part.repulsive>
0.3282

> <Gold.PLP.ligand.clash>
0.0000

> <Gold.PLP.ligand.torsion>
1.1280

> <Gold.PLP.Chemscore.Hbond>
2.7908

> <Gold.PLP.Chemscore.CHOScore>
0.0000

> <Gold.PLP.Chemscore.Metal>
0.0000

> <Gold.Chemscore.Hbonds>
donor molecule, donor type, donor heavy atom, donor atom, acceptor molecule, acceptor atom, score
      L1  H    17    43       P1  8028  1.00
      P1  H  7989  7998       L1     9  0.71
      P1  H 10752 10763       L1     7  0.80

> <Gold.PLP.Chemscore.Internal.Correction>
0.3851

> <Gold.Rescore>
     Score         DG    S(hbond)    S(metal)    S(lipo)     H(rot)  DE(clash)    DE(int)     intcor
     16.94     -18.07       2.11        0.00     101.18       2.46       0.05       1.07       ----

> <Gold.Chemscore.Fitness>
16.9420

> <Gold.Chemscore.DG>
-18.0671

> <Gold.Chemscore.ZeroCoef>
-5.4800

> <Gold.Chemscore.Hbond>
2.1091

> <Gold.Chemscore.Metal>
0.0000

> <Gold.Chemscore.Lipo>
101.1781

> <Gold.Chemscore.Internal_Hbond>
0.0000

> <Gold.Chemscore.DEClash>
0.0515

> <Gold.Chemscore.DEInternal>
1.0735

> <Gold.Chemscore.Rot>
2.4591

> <Gold.Chemscore.Internal.Correction>
   9.000000E+99

> <Gold.Chemscore.Hbonds>
donor molecule, donor type, donor heavy atom, donor atom, acceptor molecule, acceptor atom, score
      L1  H    17    43       P1  8028  0.89
      P1  H  7989  7998       L1     9  0.32
      P1  H 10752 10763       L1     7  0.27

> <Gold.Chemscore.Hbond.Weighted>
-7.0446

> <Gold.Chemscore.Metal.Weighted>
-0.0000

> <Gold.Chemscore.Lipo.Weighted>
-11.8378

> <Gold.Chemscore.Internal_Hbond.Weighted>
0.0000

> <Gold.Chemscore.DEClash.Weighted>
0.0515

> <Gold.Chemscore.DEInternal.Weighted>
1.0735

> <Gold.Chemscore.Rot.Weighted>
6.2953

> <Gold.Chemscore.Internal.Correction.Weighted>
   9.000000E+99

> <Gold.Protein.RotatedTorsions>
[ 6907 6896 6895 6894 ] final  134.28 input  -60.11 | X-H torsion
[ 7974 7965 7964 7962 ] final  123.91 input  175.53 | X-H torsion
[ 8008 7997 7996 7995 ] final  164.75 input   59.86 | X-H torsion
[ 10167 10162 10161 10158 ] final  155.56 input  -65.29 | X-H torsion
[ 10718 10713 10712 10709 ] final  -96.26 input   66.30 | X-H torsion
[ 10763 10752 10751 10750 ] final   47.27 input  -60.55 | X-H torsion
[ 11005 11000 10999 10996 ] final    7.10 input  -57.11 | X-H torsion

> <Gold.Protein.ActiveResidues>
 VAL166  LYS551  ARG553  GLY616  TRP617  ASP618  TYR619  PRO620  LYS621  CYS622 
 ASP623  PHE694  ASN695  SER759  ASP760  ASP761  ALA762  ILE779  LEU786  VAL792 
 PHE793  MET794  SER795  GLU796  ALA797  LYS798  CYS799  TRP800  GLU811  SER814 

> <Gold.Protein.RotatedAtoms>
  152.3130  133.5773  159.5693 H   0  0  0  0  0  0  0  0  0  0  0  0  # atno 6907 bound_to 6896
  150.7332  134.0124  159.3683 H   0  0  0  0  0  0  0  0  0  0  0  0  # atno 6908 bound_to 6896
  151.8015  135.0708  160.0452 H   0  0  0  0  0  0  0  0  0  0  0  0  # atno 6909 bound_to 6896
  145.0904  139.3591  143.4863 H   0  0  0  0  0  0  0  0  0  0  0  0  # atno 7974 bound_to 7965
  156.1855  140.1688  156.8193 H   0  0  0  0  0  0  0  0  0  0  0  0  # atno 8008 bound_to 7997
  154.5409  140.0737  156.8541 H   0  0  0  0  0  0  0  0  0  0  0  0  # atno 8009 bound_to 7997
  155.3216  140.3374  155.4243 H   0  0  0  0  0  0  0  0  0  0  0  0  # atno 8010 bound_to 7997
  139.4821  144.5087  151.8058 H   0  0  0  0  0  0  0  0  0  0  0  0  # atno 10167 bound_to 10162
  156.0059  130.5144  150.6200 H   0  0  0  0  0  0  0  0  0  0  0  0  # atno 10718 bound_to 10713
  152.9801  135.5981  154.3736 H   0  0  0  0  0  0  0  0  0  0  0  0  # atno 10763 bound_to 10752
  154.3407  135.2767  155.2426 H   0  0  0  0  0  0  0  0  0  0  0  0  # atno 10764 bound_to 10752
  154.4509  135.5990  153.6246 H   0  0  0  0  0  0  0  0  0  0  0  0  # atno 10765 bound_to 10752
  140.5520  134.0274  155.7940 H   0  0  0  0  0  0  0  0  0  0  0  0  # atno 11005 bound_to 11000
  146.3531  140.0736  142.8622 LP  0  0  0  0  0  0  0  0  0  0  0  0  # atno 17320 bound_to 7965
  145.1072  140.9383  143.4678 LP  0  0  0  0  0  0  0  0  0  0  0  0  # atno 17321 bound_to 7965
  140.4588  144.1752  150.5904 LP  0  0  0  0  0  0  0  0  0  0  0  0  # atno 17342 bound_to 10162
  140.4507  143.2488  151.9352 LP  0  0  0  0  0  0  0  0  0  0  0  0  # atno 17343 bound_to 10162
  157.4017  131.0811  151.1302 LP  0  0  0  0  0  0  0  0  0  0  0  0  # atno 17370 bound_to 10713
  157.1962  130.6374  149.5722 LP  0  0  0  0  0  0  0  0  0  0  0  0  # atno 17371 bound_to 10713
  141.1166  133.9530  157.2811 LP  0  0  0  0  0  0  0  0  0  0  0  0  # atno 17394 bound_to 11000
  139.9450  135.0185  156.8825 LP  0  0  0  0  0  0  0  0  0  0  0  0  # atno 17395 bound_to 11000

$$$$
