AV-unprocessed.smi:3315|AV-procd|sdf|12750|dock3
  -GOLD-   2272019 83D 1   1.00000     0.00000
 Structure written by MMmdl.
 37 38  0  0  0  0  0  0  0  0  1 V2000
  148.1287  129.4193  155.2679 C   0  0  0  0  0  0  0  0  0  0  0  0
  147.6109  130.7424  155.2009 O   0  0  0  0  0  0  0  0  0  0  0  0
  147.7608  131.4469  153.9603 C   0  0  2  0  0  0  0  0  0  0  0  0
  147.2365  130.5995  152.7943 C   0  0  0  0  0  0  0  0  0  0  0  0
  149.1659  132.0738  153.8694 C   0  0  0  0  0  0  0  0  0  0  0  0
  148.6192  133.2325  154.7012 C   0  0  1  0  0  0  0  0  0  0  0  0
  149.1538  134.5262  154.2896 N   0  0  0  0  0  0  0  0  0  0  0  0
  150.0646  135.2212  154.9845 C   0  0  0  0  0  0  0  0  0  0  0  0
  150.5413  134.8339  156.0513 O   0  0  0  0  0  0  0  0  0  0  0  0
  150.3700  136.3753  154.3680 N   0  0  0  0  0  0  0  0  0  0  0  0
  151.2964  137.3715  154.7709 C   0  0  0  0  0  0  0  0  0  0  0  0
  151.1938  138.7711  154.5203 C   0  0  0  0  0  0  0  0  0  0  0  0
  152.3180  139.2673  155.1159 C   0  0  0  0  0  0  0  0  0  0  0  0
  153.0442  138.2669  155.6809 O   0  0  0  0  0  0  0  0  0  0  0  0
  152.3809  137.0547  155.4558 N   0  0  0  0  0  0  0  0  0  0  0  0
  147.2099  132.8987  154.1477 C   0  0  0  0  0  0  0  0  0  0  0  0
  146.7808  133.6292  152.8609 C   0  0  0  0  0  0  0  0  0  0  0  0
  146.0454  133.0671  155.1297 C   0  0  0  0  0  0  0  0  0  0  0  0
  148.0918  129.0757  156.3014 H   0  0  0  0  0  0  0  0  0  0  0  0
  149.1652  129.3604  154.9377 H   0  0  0  0  0  0  0  0  0  0  0  0
  147.5321  128.7244  154.6773 H   0  0  0  0  0  0  0  0  0  0  0  0
  147.2476  131.1516  151.8552 H   0  0  0  0  0  0  0  0  0  0  0  0
  146.2106  130.2760  152.9712 H   0  0  0  0  0  0  0  0  0  0  0  0
  147.8447  129.7106  152.6288 H   0  0  0  0  0  0  0  0  0  0  0  0
  149.9720  131.5207  154.3499 H   0  0  0  0  0  0  0  0  0  0  0  0
  149.4390  132.3564  152.8512 H   0  0  0  0  0  0  0  0  0  0  0  0
  148.7133  133.0364  155.7720 H   0  0  0  0  0  0  0  0  0  0  0  0
  148.8102  134.9119  153.4224 H   0  0  0  0  0  0  0  0  0  0  0  0
  149.8827  136.5645  153.5046 H   0  0  0  0  0  0  0  0  0  0  0  0
  150.4337  139.3322  153.9985 H   0  0  0  0  0  0  0  0  0  0  0  0
  152.7228  140.2631  155.2206 H   0  0  0  0  0  0  0  0  0  0  0  0
  146.5763  134.6845  153.0454 H   0  0  0  0  0  0  0  0  0  0  0  0
  145.8735  133.1955  152.4390 H   0  0  0  0  0  0  0  0  0  0  0  0
  147.5469  133.5859  152.0867 H   0  0  0  0  0  0  0  0  0  0  0  0
  145.7633  134.1143  155.2437 H   0  0  0  0  0  0  0  0  0  0  0  0
  146.2960  132.7028  156.1260 H   0  0  0  0  0  0  0  0  0  0  0  0
  145.1625  132.5209  154.7968 H   0  0  0  0  0  0  0  0  0  0  0  0
  1  2  1  0  0  0  0
  1 19  1  0  0  0  0
  1 20  1  0  0  0  0
  1 21  1  0  0  0  0
  2  3  1  0  0  0  0
  3 16  1  0  0  0  0
  3  4  1  0  0  0  0
  3  5  1  0  0  0  0
  4 22  1  0  0  0  0
  4 23  1  0  0  0  0
  4 24  1  0  0  0  0
  5  6  1  0  0  0  0
  5 25  1  0  0  0  0
  5 26  1  0  0  0  0
  6  7  1  0  0  0  0
  6 16  1  0  0  0  0
  6 27  1  0  0  0  0
  7  8  1  0  0  0  0
  7 28  1  0  0  0  0
  8  9  2  0  0  0  0
  8 10  1  0  0  0  0
 10 11  1  0  0  0  0
 10 29  1  0  0  0  0
 11 15  2  0  0  0  0
 11 12  1  0  0  0  0
 12 13  2  0  0  0  0
 12 30  1  0  0  0  0
 13 14  1  0  0  0  0
 13 31  1  0  0  0  0
 14 15  1  0  0  0  0
 16 17  1  0  0  0  0
 16 18  1  0  0  0  0
 17 32  1  0  0  0  0
 17 33  1  0  0  0  0
 17 34  1  0  0  0  0
 18 35  1  0  0  0  0
 18 36  1  0  0  0  0
 18 37  1  0  0  0  0
M  END
> <s_m_source_file>
AV-unprocessed.smi

> <i_m_source_file_index>
3315

> <i_lp_mmshare_version>
43012

> <i_f3d_flags>
0

> <s_epik_input>
W0NIM11PW0NAQF0xKFtDSDNdKVtDSDJdW0NASF0oQzEoW0NIM10pW0NIM10pW05IXUMoPU8pW05IXWMyW2NIXVtjSF1vbjI=

> <s_epik_cmdline>
J2VwaWtfcHl0aG9uJywgJy1waCcsICc3LjAnLCAnLXRuJywgJzgnLCAnLW1hJywgJzIwMCcsICctbWV0YWxfYmluZGluZycsICctaW1hZScsICc8aW5maWxlLm1hZT4nLCAnLW9tYWUnLCAnPG91dGZpbGUubWFlPic=

> <r_lp_tautomer_probability>
1

> <r_epik_Ionization_Penalty>
2.28875e-05

> <r_epik_Ionization_Penalty_Charging>
0

> <r_epik_Ionization_Penalty_Neutral>
2.28875e-05

> <r_epik_State_Penalty>
-0

> <r_epik_Charging_Adjusted_Penalty>
0

> <i_epik_Tot_Q>
0

> <i_epik_Tot_abs_Q>
0

> <r_epik_Metal_State_Penalty>
-0

> <b_epik_Metal_Only>
0

> <s_lp_Force_Field>
OPLS_2005

> <r_lp_Energy>
24.1983

> <b_lp_Chiralities_Consistent>
1

> <s_lp_Variant>
AV-unprocessed.smi:3315-2

> <Gold.Version>
5.8.1

> <Gold.Id.Protein>
6NUR|6NUR_protein|mol2

> <Gold.PLP.Fitness>
32.9840

> <Gold.PLP.PLP>
-25.4376

> <Gold.PLP.part.hbond>
-4.3707

> <Gold.PLP.part.metal>
0.0000

> <Gold.PLP.part.buried>
-2.4728

> <Gold.PLP.part.nonpolar>
-19.5665

> <Gold.PLP.part.repulsive>
0.1658

> <Gold.PLP.ligand.clash>
0.0000

> <Gold.PLP.ligand.torsion>
0.5920

> <Gold.PLP.Chemscore.Hbond>
2.7840

> <Gold.PLP.Chemscore.CHOScore>
0.0000

> <Gold.PLP.Chemscore.Metal>
0.0000

> <Gold.Chemscore.Hbonds>
donor molecule, donor type, donor heavy atom, donor atom, acceptor molecule, acceptor atom, score
      L1  H     7    28       P1  7948  1.00
      L1  H    10    29       P1  7948  0.95
      P1  H 10752 10764       L1    15  0.78

> <Gold.PLP.Chemscore.Internal.Correction>
0.3784

> <Gold.Rescore>
     Score         DG    S(hbond)    S(metal)    S(lipo)     H(rot)  DE(clash)    DE(int)     intcor
     12.00     -13.77       1.83        0.00      47.06       1.30       0.05       1.72       ----

> <Gold.Chemscore.Fitness>
11.9983

> <Gold.Chemscore.DG>
-13.7730

> <Gold.Chemscore.ZeroCoef>
-5.4800

> <Gold.Chemscore.Hbond>
1.8336

> <Gold.Chemscore.Metal>
0.0000

> <Gold.Chemscore.Lipo>
47.0632

> <Gold.Chemscore.Internal_Hbond>
0.0000

> <Gold.Chemscore.DEClash>
0.0544

> <Gold.Chemscore.DEInternal>
1.7203

> <Gold.Chemscore.Rot>
1.3038

> <Gold.Chemscore.Internal.Correction>
   9.000000E+99

> <Gold.Chemscore.Hbonds>
donor molecule, donor type, donor heavy atom, donor atom, acceptor molecule, acceptor atom, score
      L1  H     7    28       P1  7948  0.41
      L1  H    10    29       P1  7948  0.21
      P1  H 10752 10764       L1    15  0.43

> <Gold.Chemscore.Hbond.Weighted>
-6.1244

> <Gold.Chemscore.Metal.Weighted>
-0.0000

> <Gold.Chemscore.Lipo.Weighted>
-5.5064

> <Gold.Chemscore.Internal_Hbond.Weighted>
0.0000

> <Gold.Chemscore.DEClash.Weighted>
0.0544

> <Gold.Chemscore.DEInternal.Weighted>
1.7203

> <Gold.Chemscore.Rot.Weighted>
3.3377

> <Gold.Chemscore.Internal.Correction.Weighted>
   9.000000E+99

> <Gold.Protein.RotatedTorsions>
[ 6907 6896 6895 6894 ] final  146.14 input  -60.11 | X-H torsion
[ 7974 7965 7964 7962 ] final   22.70 input  175.53 | X-H torsion
[ 8008 7997 7996 7995 ] final -150.83 input   59.86 | X-H torsion
[ 10167 10162 10161 10158 ] final -125.98 input  -65.29 | X-H torsion
[ 10718 10713 10712 10709 ] final   89.69 input   66.30 | X-H torsion
[ 10763 10752 10751 10750 ] final  -51.22 input  -60.55 | X-H torsion
[ 11005 11000 10999 10996 ] final   48.40 input  -57.11 | X-H torsion

> <Gold.Protein.ActiveResidues>
 VAL166  LYS551  ARG553  GLY616  TRP617  ASP618  TYR619  PRO620  LYS621  CYS622 
 ASP623  PHE694  ASN695  SER759  ASP760  ASP761  ALA762  ILE779  LEU786  VAL792 
 PHE793  MET794  SER795  GLU796  ALA797  LYS798  CYS799  TRP800  GLU811  SER814 

> <Gold.Protein.RotatedAtoms>
  152.1717  133.4648  159.4912 H   0  0  0  0  0  0  0  0  0  0  0  0  # atno 6907 bound_to 6896
  150.6921  134.1944  159.4307 H   0  0  0  0  0  0  0  0  0  0  0  0  # atno 6908 bound_to 6896
  151.9852  135.0008  160.0610 H   0  0  0  0  0  0  0  0  0  0  0  0  # atno 6909 bound_to 6896
  146.2017  139.7849  142.8756 H   0  0  0  0  0  0  0  0  0  0  0  0  # atno 7974 bound_to 7965
  155.6298  140.0690  157.2652 H   0  0  0  0  0  0  0  0  0  0  0  0  # atno 8008 bound_to 7997
  154.4209  140.1769  156.1509 H   0  0  0  0  0  0  0  0  0  0  0  0  # atno 8009 bound_to 7997
  155.9942  140.3342  155.6786 H   0  0  0  0  0  0  0  0  0  0  0  0  # atno 8010 bound_to 7997
  139.9764  143.5790  152.2394 H   0  0  0  0  0  0  0  0  0  0  0  0  # atno 10167 bound_to 10162
  157.6956  131.0343  150.3465 H   0  0  0  0  0  0  0  0  0  0  0  0  # atno 10718 bound_to 10713
  154.1231  135.6531  153.4907 H   0  0  0  0  0  0  0  0  0  0  0  0  # atno 10763 bound_to 10752
  153.0219  135.5275  154.7077 H   0  0  0  0  0  0  0  0  0  0  0  0  # atno 10764 bound_to 10752
  154.6290  135.2974  155.0208 H   0  0  0  0  0  0  0  0  0  0  0  0  # atno 10765 bound_to 10752
  140.1194  134.4850  155.8610 H   0  0  0  0  0  0  0  0  0  0  0  0  # atno 11005 bound_to 11000
  145.3460  141.0297  143.3365 LP  0  0  0  0  0  0  0  0  0  0  0  0  # atno 17320 bound_to 7965
  144.8699  139.5053  143.6772 LP  0  0  0  0  0  0  0  0  0  0  0  0  # atno 17321 bound_to 7965
  139.6443  144.7657  151.2276 LP  0  0  0  0  0  0  0  0  0  0  0  0  # atno 17342 bound_to 10162
  140.7504  143.6266  150.8463 LP  0  0  0  0  0  0  0  0  0  0  0  0  # atno 17343 bound_to 10162
  156.3919  130.3899  149.7024 LP  0  0  0  0  0  0  0  0  0  0  0  0  # atno 17370 bound_to 10713
  156.4371  130.7843  151.2864 LP  0  0  0  0  0  0  0  0  0  0  0  0  # atno 17371 bound_to 10713
  141.2148  133.6755  156.6859 LP  0  0  0  0  0  0  0  0  0  0  0  0  # atno 17394 bound_to 11000
  140.2985  134.8182  157.4078 LP  0  0  0  0  0  0  0  0  0  0  0  0  # atno 17395 bound_to 11000

$$$$
