AV-unprocessed.smi:370|AV-procd|sdf|2437|dock9
  -GOLD-   2262022373D 1   1.00000     0.00000
 Structure written by MMmdl.
 43 44  0  0  0  0  0  0  0  0  2 V2000
  153.7376  142.0415  160.8542 C   0  0  0  0  0  0  0  0  0  0  0  0
  152.8081  142.5310  159.7974 C   0  0  0  0  0  0  0  0  0  0  0  0
  151.7714  141.9466  159.1259 C   0  0  0  0  0  0  0  0  0  0  0  0
  151.3273  142.9815  158.2608 C   0  0  0  0  0  0  0  0  0  0  0  0
  150.2362  142.7748  157.3785 N   0  0  0  0  0  0  0  0  0  0  0  0
  149.6401  141.6095  157.0743 C   0  0  0  0  0  0  0  0  0  0  0  0
  149.9381  140.5141  157.5511 O   0  0  0  0  0  0  0  0  0  0  0  0
  148.6657  141.7815  156.1686 N   0  0  0  0  0  0  0  0  0  0  0  0
  147.8150  140.7231  155.6224 C   0  0  0  0  0  0  0  0  0  0  0  0
  146.7172  141.2259  154.6337 C   0  0  0  0  0  0  0  0  0  0  0  0
  145.5803  141.8617  155.4773 C   0  0  0  0  0  0  0  0  0  0  0  0
  147.2767  142.3231  153.6946 C   0  0  0  0  0  0  0  0  0  0  0  0
  146.2118  140.0428  153.8426 N   0  3  0  0  0  0  0  0  0  0  0  0
  147.1077  139.5364  152.7628 C   0  0  0  0  0  0  0  0  0  0  0  0
  146.4133  138.4325  151.9452 C   0  0  0  0  0  0  0  0  0  0  0  0
  145.9916  137.3799  152.7996 O   0  0  0  0  0  0  0  0  0  0  0  0
  145.0558  137.8360  153.7649 C   0  0  0  0  0  0  0  0  0  0  0  0
  145.7247  138.8922  154.6577 C   0  0  0  0  0  0  0  0  0  0  0  0
  152.0285  144.0969  158.3926 N   0  0  0  0  0  0  0  0  0  0  0  0
  152.9814  143.8139  159.3783 O   0  0  0  0  0  0  0  0  0  0  0  0
  153.5526  140.9911  161.0794 H   0  0  0  0  0  0  0  0  0  0  0  0
  153.6114  142.6125  161.7741 H   0  0  0  0  0  0  0  0  0  0  0  0
  154.7745  142.1414  160.5328 H   0  0  0  0  0  0  0  0  0  0  0  0
  151.3946  140.9407  159.2381 H   0  0  0  0  0  0  0  0  0  0  0  0
  149.8796  143.6019  156.9231 H   0  0  0  0  0  0  0  0  0  0  0  0
  148.4933  142.7182  155.8332 H   0  0  0  0  0  0  0  0  0  0  0  0
  148.4547  139.9681  155.1684 H   0  0  0  0  0  0  0  0  0  0  0  0
  147.3391  140.2273  156.4692 H   0  0  0  0  0  0  0  0  0  0  0  0
  145.9481  142.6501  156.1340 H   0  0  0  0  0  0  0  0  0  0  0  0
  145.0871  141.1207  156.1076 H   0  0  0  0  0  0  0  0  0  0  0  0
  144.8219  142.3367  154.8544 H   0  0  0  0  0  0  0  0  0  0  0  0
  147.5145  143.2350  154.2427 H   0  0  0  0  0  0  0  0  0  0  0  0
  146.5580  142.6002  152.9234 H   0  0  0  0  0  0  0  0  0  0  0  0
  148.1946  142.0086  153.1975 H   0  0  0  0  0  0  0  0  0  0  0  0
  147.3754  140.3234  152.0601 H   0  0  0  0  0  0  0  0  0  0  0  0
  148.0341  139.1553  153.1941 H   0  0  0  0  0  0  0  0  0  0  0  0
  145.5588  138.8350  151.3984 H   0  0  0  0  0  0  0  0  0  0  0  0
  147.1016  138.0280  151.2029 H   0  0  0  0  0  0  0  0  0  0  0  0
  144.1676  138.2394  153.2758 H   0  0  0  0  0  0  0  0  0  0  0  0
  144.7307  136.9870  154.3665 H   0  0  0  0  0  0  0  0  0  0  0  0
  146.5571  138.4263  155.1864 H   0  0  0  0  0  0  0  0  0  0  0  0
  145.0069  139.2060  155.4123 H   0  0  0  0  0  0  0  0  0  0  0  0
  145.3990  140.3926  153.3554 H   0  0  0  0  0  0  0  0  0  0  0  0
  1  2  1  0  0  0  0
  1 21  1  0  0  0  0
  1 22  1  0  0  0  0
  1 23  1  0  0  0  0
  2 20  1  0  0  0  0
  2  3  2  0  0  0  0
  3  4  1  0  0  0  0
  3 24  1  0  0  0  0
  4  5  1  0  0  0  0
  4 19  2  0  0  0  0
  5  6  1  0  0  0  0
  5 25  1  0  0  0  0
  6  7  2  0  0  0  0
  6  8  1  0  0  0  0
  8  9  1  0  0  0  0
  8 26  1  0  0  0  0
  9 10  1  0  0  0  0
  9 27  1  0  0  0  0
  9 28  1  0  0  0  0
 10 11  1  0  0  0  0
 10 12  1  0  0  0  0
 10 13  1  0  0  0  0
 11 29  1  0  0  0  0
 11 30  1  0  0  0  0
 11 31  1  0  0  0  0
 12 32  1  0  0  0  0
 12 33  1  0  0  0  0
 12 34  1  0  0  0  0
 13 18  1  0  0  0  0
 13 14  1  0  0  0  0
 13 43  1  0  0  0  0
 14 15  1  0  0  0  0
 14 35  1  0  0  0  0
 14 36  1  0  0  0  0
 15 16  1  0  0  0  0
 15 37  1  0  0  0  0
 15 38  1  0  0  0  0
 16 17  1  0  0  0  0
 17 18  1  0  0  0  0
 17 39  1  0  0  0  0
 17 40  1  0  0  0  0
 18 41  1  0  0  0  0
 18 42  1  0  0  0  0
 19 20  1  0  0  0  0
M  CHG  1  13   1
M  END
> <s_m_source_file>
AV-unprocessed.smi

> <i_m_source_file_index>
370

> <i_lp_mmshare_version>
43012

> <i_f3d_flags>
0

> <s_epik_input>
W0NIM11jMVtjSF1jKG5vMSlbTkhdQyg9TylbTkhdW0NIMl1DKFtDSDNdKShbQ0gzXSlOMltDSDJdW0NIMl1PW0NIMl1bQ0gyXTI=

> <s_epik_cmdline>
J2VwaWtfcHl0aG9uJywgJy1waCcsICc3LjAnLCAnLXRuJywgJzgnLCAnLW1hJywgJzIwMCcsICctbWV0YWxfYmluZGluZycsICctaW1hZScsICc8aW5maWxlLm1hZT4nLCAnLW9tYWUnLCAnPG91dGZpbGUubWFlPic=

> <r_epik_Ionization_Penalty>
0.707076

> <r_epik_Ionization_Penalty_Charging>
0.707039

> <r_epik_Ionization_Penalty_Neutral>
3.67886e-05

> <r_epik_State_Penalty>
0.730276

> <r_epik_Charging_Adjusted_Penalty>
1.43732

> <i_epik_Tot_Q>
1

> <i_epik_Tot_abs_Q>
1

> <r_epik_Metal_State_Penalty>
0.743216

> <b_epik_Metal_Only>
0

> <s_lp_Force_Field>
OPLS_2005

> <r_lp_Energy>
23.7539

> <b_lp_Chiralities_Consistent>
1

> <s_lp_Variant>
AV-unprocessed.smi:370-2

> <Gold.Version>
5.8.1

> <Gold.Id.Protein>
6NUR|6NUR_protein|mol2

> <Gold.PLP.Fitness>
42.0450

> <Gold.PLP.PLP>
-30.7899

> <Gold.PLP.part.hbond>
-3.0000

> <Gold.PLP.part.metal>
0.0000

> <Gold.PLP.part.buried>
-5.0828

> <Gold.PLP.part.nonpolar>
-23.7137

> <Gold.PLP.part.repulsive>
0.3274

> <Gold.PLP.ligand.clash>
0.0000

> <Gold.PLP.ligand.torsion>
0.4183

> <Gold.PLP.Chemscore.Hbond>
4.0000

> <Gold.PLP.Chemscore.CHOScore>
0.0000

> <Gold.PLP.Chemscore.Metal>
0.0000

> <Gold.Chemscore.Hbonds>
donor molecule, donor type, donor heavy atom, donor atom, acceptor molecule, acceptor atom, score
      L1  H     5    25       P1  8028  1.00
      L1  H     8    26       P1  8028  0.98
      L1  H    13    43       P1 10175  2.00

> <Gold.PLP.Chemscore.Internal.Correction>
0.0917

> <Gold.Rescore>
     Score         DG    S(hbond)    S(metal)    S(lipo)     H(rot)  DE(clash)    DE(int)     intcor
     17.02     -18.96       2.83        0.00      69.40       1.60       0.26       1.68       ----

> <Gold.Chemscore.Fitness>
17.0180

> <Gold.Chemscore.DG>
-18.9568

> <Gold.Chemscore.ZeroCoef>
-5.4800

> <Gold.Chemscore.Hbond>
2.8285

> <Gold.Chemscore.Metal>
0.0000

> <Gold.Chemscore.Lipo>
69.4037

> <Gold.Chemscore.Internal_Hbond>
0.0000

> <Gold.Chemscore.DEClash>
0.2571

> <Gold.Chemscore.DEInternal>
1.6817

> <Gold.Chemscore.Rot>
1.5979

> <Gold.Chemscore.Internal.Correction>
   9.000000E+99

> <Gold.Chemscore.Hbonds>
donor molecule, donor type, donor heavy atom, donor atom, acceptor molecule, acceptor atom, score
      L1  H     5    25       P1  8028  0.98
      L1  H     8    26       P1  8028  0.90
      L1  H    13    43       P1 10175  0.98

> <Gold.Chemscore.Hbond.Weighted>
-9.4472

> <Gold.Chemscore.Metal.Weighted>
-0.0000

> <Gold.Chemscore.Lipo.Weighted>
-8.1202

> <Gold.Chemscore.Internal_Hbond.Weighted>
0.0000

> <Gold.Chemscore.DEClash.Weighted>
0.2571

> <Gold.Chemscore.DEInternal.Weighted>
1.6817

> <Gold.Chemscore.Rot.Weighted>
4.0906

> <Gold.Chemscore.Internal.Correction.Weighted>
   9.000000E+99

> <Gold.Protein.RotatedTorsions>
[ 6907 6896 6895 6894 ] final -159.38 input  -60.11 | X-H torsion
[ 7974 7965 7964 7962 ] final  -37.88 input  175.53 | X-H torsion
[ 8008 7997 7996 7995 ] final   30.87 input   59.86 | X-H torsion
[ 10167 10162 10161 10158 ] final -170.01 input  -65.29 | X-H torsion
[ 10718 10713 10712 10709 ] final -163.67 input   66.30 | X-H torsion
[ 10763 10752 10751 10750 ] final  171.87 input  -60.55 | X-H torsion
[ 11005 11000 10999 10996 ] final -155.12 input  -57.11 | X-H torsion

> <Gold.Protein.ActiveResidues>
 VAL166  LYS551  ARG553  GLY616  TRP617  ASP618  TYR619  PRO620  LYS621  CYS622 
 ASP623  PHE694  ASN695  SER759  ASP760  ASP761  ALA762  ILE779  LEU786  VAL792 
 PHE793  MET794  SER795  GLU796  ALA797  LYS798  CYS799  TRP800  GLU811  SER814 

> <Gold.Protein.RotatedAtoms>
  151.3326  133.3994  159.2663 H   0  0  0  0  0  0  0  0  0  0  0  0  # atno 6907 bound_to 6896
  150.9943  134.9271  159.7928 H   0  0  0  0  0  0  0  0  0  0  0  0  # atno 6908 bound_to 6896
  152.5256  134.3291  159.9229 H   0  0  0  0  0  0  0  0  0  0  0  0  # atno 6909 bound_to 6896
  146.0536  140.6448  142.9030 H   0  0  0  0  0  0  0  0  0  0  0  0  # atno 7974 bound_to 7965
  155.0973  140.3226  155.4557 H   0  0  0  0  0  0  0  0  0  0  0  0  # atno 8008 bound_to 7997
  156.2726  140.2067  156.6046 H   0  0  0  0  0  0  0  0  0  0  0  0  # atno 8009 bound_to 7997
  154.6857  140.0521  157.0299 H   0  0  0  0  0  0  0  0  0  0  0  0  # atno 8010 bound_to 7997
  139.5887  144.1260  152.1608 H   0  0  0  0  0  0  0  0  0  0  0  0  # atno 10167 bound_to 10162
  156.6281  130.8918  151.2972 H   0  0  0  0  0  0  0  0  0  0  0  0  # atno 10718 bound_to 10713
  154.4180  135.2757  155.1994 H   0  0  0  0  0  0  0  0  0  0  0  0  # atno 10763 bound_to 10752
  154.3951  135.6057  153.5869 H   0  0  0  0  0  0  0  0  0  0  0  0  # atno 10764 bound_to 10752
  152.9832  135.5913  154.4472 H   0  0  0  0  0  0  0  0  0  0  0  0  # atno 10765 bound_to 10752
  140.6900  134.4052  157.5220 H   0  0  0  0  0  0  0  0  0  0  0  0  # atno 11005 bound_to 11000
  144.7135  140.4127  143.7062 LP  0  0  0  0  0  0  0  0  0  0  0  0  # atno 17320 bound_to 7965
  145.6683  139.1594  143.2769 LP  0  0  0  0  0  0  0  0  0  0  0  0  # atno 17321 bound_to 7965
  140.0830  144.5685  150.7109 LP  0  0  0  0  0  0  0  0  0  0  0  0  # atno 17342 bound_to 10162
  140.7154  143.2540  151.4449 LP  0  0  0  0  0  0  0  0  0  0  0  0  # atno 17343 bound_to 10162
  157.7208  130.9556  150.1432 LP  0  0  0  0  0  0  0  0  0  0  0  0  # atno 17370 bound_to 10713
  156.2257  130.3677  149.8503 LP  0  0  0  0  0  0  0  0  0  0  0  0  # atno 17371 bound_to 10713
  139.8926  134.8750  156.2262 LP  0  0  0  0  0  0  0  0  0  0  0  0  # atno 17394 bound_to 11000
  141.0249  133.7020  156.1331 LP  0  0  0  0  0  0  0  0  0  0  0  0  # atno 17395 bound_to 11000

$$$$
