AV-unprocessed.smi:3108|AV-procd|sdf|11826|dock6
  -GOLD-   2272017203D 1   1.00000     0.00000
 Structure written by MMmdl.
 37 38  0  0  0  0  0  0  0  0  2 V2000
  151.1686  136.4229  155.8042 C   0  0  0  0  0  0  0  0  0  0  0  0
  150.8539  137.8381  155.4131 C   0  0  0  0  0  0  0  0  0  0  0  0
  150.7165  138.3738  154.1009 C   0  0  0  0  0  0  0  0  0  0  0  0
  150.4338  139.6666  154.1004 N   0  0  0  0  0  0  0  0  0  0  0  0
  150.3784  139.9999  155.4070 N   0  0  0  0  0  0  0  0  0  0  0  0
  150.0855  141.3677  155.7886 C   0  0  0  0  0  0  0  0  0  0  0  0
  151.1937  141.9620  156.6698 C   0  0  0  0  0  0  0  0  0  0  0  0
  150.7191  143.1647  157.3802 N   0  3  0  0  0  0  0  0  0  0  0  0
  151.7428  144.2182  157.5254 C   0  0  0  0  0  0  0  0  0  0  0  0
  152.4085  144.1633  158.9100 C   0  0  0  0  0  0  0  0  0  0  0  0
  152.7453  142.7476  159.3913 C   0  0  0  0  0  0  0  0  0  0  0  0
  152.8726  142.8574  160.9156 C   0  0  0  0  0  0  0  0  0  0  0  0
  152.1252  144.1369  161.3210 C   0  0  0  0  0  0  0  0  0  0  0  0
  151.5204  144.7035  160.0330 C   0  0  0  0  0  0  0  0  0  0  0  0
  150.6311  138.9167  156.2215 C   0  0  0  0  0  0  0  0  0  0  0  0
  151.4937  135.8287  154.9498 H   0  0  0  0  0  0  0  0  0  0  0  0
  150.2999  135.9221  156.2320 H   0  0  0  0  0  0  0  0  0  0  0  0
  151.9651  136.3779  156.5473 H   0  0  0  0  0  0  0  0  0  0  0  0
  150.8136  137.8637  153.1537 H   0  0  0  0  0  0  0  0  0  0  0  0
  149.9621  141.9611  154.8816 H   0  0  0  0  0  0  0  0  0  0  0  0
  149.1280  141.3840  156.3116 H   0  0  0  0  0  0  0  0  0  0  0  0
  151.5298  141.2248  157.4007 H   0  0  0  0  0  0  0  0  0  0  0  0
  152.0563  142.2256  156.0562 H   0  0  0  0  0  0  0  0  0  0  0  0
  149.9346  143.5485  156.8726 H   0  0  0  0  0  0  0  0  0  0  0  0
  152.4973  144.0801  156.7499 H   0  0  0  0  0  0  0  0  0  0  0  0
  151.2898  145.1967  157.3592 H   0  0  0  0  0  0  0  0  0  0  0  0
  153.3262  144.7543  158.8936 H   0  0  0  0  0  0  0  0  0  0  0  0
  151.9280  142.0674  159.1467 H   0  0  0  0  0  0  0  0  0  0  0  0
  153.6502  142.3521  158.9286 H   0  0  0  0  0  0  0  0  0  0  0  0
  152.4630  141.9750  161.4088 H   0  0  0  0  0  0  0  0  0  0  0  0
  153.9215  142.9339  161.2051 H   0  0  0  0  0  0  0  0  0  0  0  0
  151.3590  143.9450  162.0730 H   0  0  0  0  0  0  0  0  0  0  0  0
  152.8286  144.8526  161.7484 H   0  0  0  0  0  0  0  0  0  0  0  0
  151.4713  145.7930  160.0411 H   0  0  0  0  0  0  0  0  0  0  0  0
  150.5025  144.3289  159.9154 H   0  0  0  0  0  0  0  0  0  0  0  0
  150.6308  139.0001  157.2986 H   0  0  0  0  0  0  0  0  0  0  0  0
  150.4066  142.8926  158.3013 H   0  0  0  0  0  0  0  0  0  0  0  0
  1  2  1  0  0  0  0
  1 16  1  0  0  0  0
  1 17  1  0  0  0  0
  1 18  1  0  0  0  0
  2 15  2  0  0  0  0
  2  3  1  0  0  0  0
  3  4  2  0  0  0  0
  3 19  1  0  0  0  0
  4  5  1  0  0  0  0
  5  6  1  0  0  0  0
  5 15  1  0  0  0  0
  6  7  1  0  0  0  0
  6 20  1  0  0  0  0
  6 21  1  0  0  0  0
  7  8  1  0  0  0  0
  7 22  1  0  0  0  0
  7 23  1  0  0  0  0
  8  9  1  0  0  0  0
  8 24  1  0  0  0  0
  8 37  1  0  0  0  0
  9 10  1  0  0  0  0
  9 25  1  0  0  0  0
  9 26  1  0  0  0  0
 10 14  1  0  0  0  0
 10 11  1  0  0  0  0
 10 27  1  0  0  0  0
 11 12  1  0  0  0  0
 11 28  1  0  0  0  0
 11 29  1  0  0  0  0
 12 13  1  0  0  0  0
 12 30  1  0  0  0  0
 12 31  1  0  0  0  0
 13 14  1  0  0  0  0
 13 32  1  0  0  0  0
 13 33  1  0  0  0  0
 14 34  1  0  0  0  0
 14 35  1  0  0  0  0
 15 36  1  0  0  0  0
M  CHG  1   8   1
M  END
> <s_m_source_file>
AV-unprocessed.smi

> <i_m_source_file_index>
3108

> <i_lp_mmshare_version>
43012

> <i_f3d_flags>
0

> <s_epik_input>
W0NIM11jMVtjSF1ubihbY0hdMSlbQ0gyXVtDSDJdW05IXVtDSDJdW0NIXTJbQ0gyXVtDSDJdW0NIMl1bQ0gyXTI=

> <s_epik_cmdline>
J2VwaWtfcHl0aG9uJywgJy1waCcsICc3LjAnLCAnLXRuJywgJzgnLCAnLW1hJywgJzIwMCcsICctbWV0YWxfYmluZGluZycsICctaW1hZScsICc8aW5maWxlLm1hZT4nLCAnLW9tYWUnLCAnPG91dGZpbGUubWFlPic=

> <r_lp_tautomer_probability>
1

> <r_epik_Ionization_Penalty>
0.00170215

> <r_epik_Ionization_Penalty_Charging>
0.00169627

> <r_epik_Ionization_Penalty_Neutral>
5.87243e-06

> <r_epik_State_Penalty>
-0

> <r_epik_Charging_Adjusted_Penalty>
0.00169627

> <i_epik_Tot_Q>
1

> <i_epik_Tot_abs_Q>
1

> <r_epik_Metal_State_Penalty>
-0

> <b_epik_Metal_Only>
0

> <s_lp_Force_Field>
OPLS_2005

> <r_lp_Energy>
23.864

> <b_lp_Chiralities_Consistent>
1

> <s_lp_Variant>
AV-unprocessed.smi:3108-1

> <Gold.Version>
5.8.1

> <Gold.Id.Protein>
6NUR|6NUR_protein|mol2

> <Gold.PLP.Fitness>
50.9719

> <Gold.PLP.PLP>
-40.2610

> <Gold.PLP.part.hbond>
-2.0000

> <Gold.PLP.part.metal>
0.0000

> <Gold.PLP.part.buried>
-5.9156

> <Gold.PLP.part.nonpolar>
-32.8874

> <Gold.PLP.part.repulsive>
0.6738

> <Gold.PLP.ligand.clash>
0.0000

> <Gold.PLP.ligand.torsion>
0.7207

> <Gold.PLP.Chemscore.Hbond>
3.0000

> <Gold.PLP.Chemscore.CHOScore>
1.0417

> <Gold.PLP.Chemscore.Metal>
0.0000

> <Gold.Chemscore.Hbonds>
donor molecule, donor type, donor heavy atom, donor atom, acceptor molecule, acceptor atom, score
      L1  H     8    24       P1  8028  2.00
      P1  H  7989  7998       L1     4  1.00
      L1  C     3    19       P1  7948  0.20
      L1  C     3    19       P1  7949  0.86

> <Gold.PLP.Chemscore.Internal.Correction>
0.0271

> <Gold.Rescore>
     Score         DG    S(hbond)    S(metal)    S(lipo)     H(rot)  DE(clash)    DE(int)     intcor
     20.10     -20.70       1.82        0.00     111.42       1.52       0.03       0.56       ----

> <Gold.Chemscore.Fitness>
20.1026

> <Gold.Chemscore.DG>
-20.6951

> <Gold.Chemscore.ZeroCoef>
-5.4800

> <Gold.Chemscore.Hbond>
1.8190

> <Gold.Chemscore.Metal>
0.0000

> <Gold.Chemscore.Lipo>
111.4221

> <Gold.Chemscore.Internal_Hbond>
0.0000

> <Gold.Chemscore.DEClash>
0.0294

> <Gold.Chemscore.DEInternal>
0.5631

> <Gold.Chemscore.Rot>
1.5222

> <Gold.Chemscore.Internal.Correction>
   9.000000E+99

> <Gold.Chemscore.Hbonds>
donor molecule, donor type, donor heavy atom, donor atom, acceptor molecule, acceptor atom, score
      L1  H     8    24       P1  8028  0.97
      P1  H  7989  7998       L1     4  0.34

> <Gold.Chemscore.Hbond.Weighted>
-6.0756

> <Gold.Chemscore.Metal.Weighted>
-0.0000

> <Gold.Chemscore.Lipo.Weighted>
-13.0364

> <Gold.Chemscore.Internal_Hbond.Weighted>
0.0000

> <Gold.Chemscore.DEClash.Weighted>
0.0294

> <Gold.Chemscore.DEInternal.Weighted>
0.5631

> <Gold.Chemscore.Rot.Weighted>
3.8969

> <Gold.Chemscore.Internal.Correction.Weighted>
   9.000000E+99

> <Gold.Protein.RotatedTorsions>
[ 6907 6896 6895 6894 ] final   16.65 input  -60.11 | X-H torsion
[ 7974 7965 7964 7962 ] final    6.60 input  175.53 | X-H torsion
[ 8008 7997 7996 7995 ] final  129.08 input   59.86 | X-H torsion
[ 10167 10162 10161 10158 ] final  170.52 input  -65.29 | X-H torsion
[ 10718 10713 10712 10709 ] final  -81.80 input   66.30 | X-H torsion
[ 10763 10752 10751 10750 ] final  142.62 input  -60.55 | X-H torsion
[ 11005 11000 10999 10996 ] final -152.10 input  -57.11 | X-H torsion

> <Gold.Protein.ActiveResidues>
 VAL166  LYS551  ARG553  GLY616  TRP617  ASP618  TYR619  PRO620  LYS621  CYS622 
 ASP623  PHE694  ASN695  SER759  ASP760  ASP761  ALA762  ILE779  LEU786  VAL792 
 PHE793  MET794  SER795  GLU796  ALA797  LYS798  CYS799  TRP800  GLU811  SER814 

> <Gold.Protein.RotatedAtoms>
  151.8373  135.0602  160.0443 H   0  0  0  0  0  0  0  0  0  0  0  0  # atno 6907 bound_to 6896
  152.2835  133.5489  159.5521 H   0  0  0  0  0  0  0  0  0  0  0  0  # atno 6908 bound_to 6896
  150.7199  134.0446  159.3819 H   0  0  0  0  0  0  0  0  0  0  0  0  # atno 6909 bound_to 6896
  146.2433  140.0209  142.8398 H   0  0  0  0  0  0  0  0  0  0  0  0  # atno 7974 bound_to 7965
  156.2929  140.2629  156.2541 H   0  0  0  0  0  0  0  0  0  0  0  0  # atno 8008 bound_to 7997
  154.9853  140.0389  157.2314 H   0  0  0  0  0  0  0  0  0  0  0  0  # atno 8009 bound_to 7997
  154.7734  140.2782  155.6124 H   0  0  0  0  0  0  0  0  0  0  0  0  # atno 8010 bound_to 7997
  139.5021  144.3588  151.9847 H   0  0  0  0  0  0  0  0  0  0  0  0  # atno 10167 bound_to 10162
  156.0044  130.4615  150.4008 H   0  0  0  0  0  0  0  0  0  0  0  0  # atno 10718 bound_to 10713
  153.9589  135.2962  155.3434 H   0  0  0  0  0  0  0  0  0  0  0  0  # atno 10763 bound_to 10752
  154.7386  135.5035  153.9086 H   0  0  0  0  0  0  0  0  0  0  0  0  # atno 10764 bound_to 10752
  153.0956  135.6720  153.9879 H   0  0  0  0  0  0  0  0  0  0  0  0  # atno 10765 bound_to 10752
  140.7225  134.3712  157.5181 H   0  0  0  0  0  0  0  0  0  0  0  0  # atno 11005 bound_to 11000
  145.1242  140.9480  143.4582 LP  0  0  0  0  0  0  0  0  0  0  0  0  # atno 17320 bound_to 7965
  145.0451  139.3227  143.5957 LP  0  0  0  0  0  0  0  0  0  0  0  0  # atno 17321 bound_to 7965
  140.3024  144.3631  150.6056 LP  0  0  0  0  0  0  0  0  0  0  0  0  # atno 17342 bound_to 10162
  140.5863  143.2170  151.7336 LP  0  0  0  0  0  0  0  0  0  0  0  0  # atno 17343 bound_to 10162
  157.2077  131.0453  151.2616 LP  0  0  0  0  0  0  0  0  0  0  0  0  # atno 17370 bound_to 10713
  157.3917  130.7286  149.6702 LP  0  0  0  0  0  0  0  0  0  0  0  0  # atno 17371 bound_to 10713
  139.8845  134.8964  156.2701 LP  0  0  0  0  0  0  0  0  0  0  0  0  # atno 17394 bound_to 11000
  140.9991  133.7162  156.0933 LP  0  0  0  0  0  0  0  0  0  0  0  0  # atno 17395 bound_to 11000

$$$$
