AV-unprocessed.smi:3287|AV-procd|sdf|12591|dock3
  -GOLD-   2272018513D 1   1.00000     0.00000
 Structure written by MMmdl.
 43 44  0  0  0  0  0  0  0  0  2 V2000
  153.0943  144.3416  158.6277 C   0  0  0  0  0  0  0  0  0  0  0  0
  152.1855  143.6740  159.6797 C   0  0  1  0  0  0  0  0  0  0  0  0
  150.8157  144.3763  159.7759 C   0  0  0  0  0  0  0  0  0  0  0  0
  149.9184  144.0758  158.5633 C   0  0  0  0  0  0  0  0  0  0  0  0
  149.7226  142.5619  158.3662 C   0  0  1  0  0  0  0  0  0  0  0  0
  148.8832  142.3162  157.1729 N   0  3  0  0  0  0  0  0  0  0  0  0
  149.0912  141.0090  156.5128 C   0  0  0  0  0  0  0  0  0  0  0  0
  150.1260  141.1095  155.3789 C   0  0  2  0  0  0  0  0  0  0  0  0
  149.4696  141.5312  154.1987 O   0  0  0  0  0  0  0  0  0  0  0  0
  150.8509  139.7872  155.1813 C   0  0  0  0  0  0  0  0  0  0  0  0
  150.1981  138.6994  154.5643 C   0  0  0  0  0  0  0  0  0  0  0  0
  150.9100  137.4949  154.3935 C   0  0  0  0  0  0  0  0  0  0  0  0
  152.1897  137.3274  154.7897 N   0  0  0  0  0  0  0  0  0  0  0  0
  152.8111  138.3720  155.3773 C   0  0  0  0  0  0  0  0  0  0  0  0
  152.1908  139.6185  155.5940 C   0  0  0  0  0  0  0  0  0  0  0  0
  151.0875  141.8497  158.2566 C   0  0  0  0  0  0  0  0  0  0  0  0
  151.9873  142.1505  159.4730 C   0  0  1  0  0  0  0  0  0  0  0  0
  153.3094  141.3678  159.4133 C   0  0  0  0  0  0  0  0  0  0  0  0
  152.7219  144.2034  157.6133 H   0  0  0  0  0  0  0  0  0  0  0  0
  154.1082  143.9433  158.6657 H   0  0  0  0  0  0  0  0  0  0  0  0
  153.1703  145.4147  158.8055 H   0  0  0  0  0  0  0  0  0  0  0  0
  152.6802  143.8120  160.6425 H   0  0  0  0  0  0  0  0  0  0  0  0
  150.3073  144.0465  160.6829 H   0  0  0  0  0  0  0  0  0  0  0  0
  150.9497  145.4534  159.8827 H   0  0  0  0  0  0  0  0  0  0  0  0
  148.9506  144.5593  158.7025 H   0  0  0  0  0  0  0  0  0  0  0  0
  150.3520  144.5173  157.6652 H   0  0  0  0  0  0  0  0  0  0  0  0
  149.1917  142.1801  159.2397 H   0  0  0  0  0  0  0  0  0  0  0  0
  147.9173  142.3434  157.4676 H   0  0  0  0  0  0  0  0  0  0  0  0
  149.4361  140.2860  157.2524 H   0  0  0  0  0  0  0  0  0  0  0  0
  148.1412  140.6401  156.1231 H   0  0  0  0  0  0  0  0  0  0  0  0
  150.8644  141.8725  155.6300 H   0  0  0  0  0  0  0  0  0  0  0  0
  148.6847  141.0150  154.0919 H   0  0  0  0  0  0  0  0  0  0  0  0
  149.1753  138.7801  154.2270 H   0  0  0  0  0  0  0  0  0  0  0  0
  150.4390  136.6436  153.9249 H   0  0  0  0  0  0  0  0  0  0  0  0
  153.8345  138.2114  155.6827 H   0  0  0  0  0  0  0  0  0  0  0  0
  152.7359  140.4229  156.0659 H   0  0  0  0  0  0  0  0  0  0  0  0
  150.9414  140.7718  158.1856 H   0  0  0  0  0  0  0  0  0  0  0  0
  151.5910  142.1485  157.3362 H   0  0  0  0  0  0  0  0  0  0  0  0
  151.4586  141.7827  160.3540 H   0  0  0  0  0  0  0  0  0  0  0  0
  153.8789  141.6023  158.5139 H   0  0  0  0  0  0  0  0  0  0  0  0
  153.1257  140.2930  159.4101 H   0  0  0  0  0  0  0  0  0  0  0  0
  153.9373  141.5896  160.2765 H   0  0  0  0  0  0  0  0  0  0  0  0
  149.0336  143.0584  156.5049 H   0  0  0  0  0  0  0  0  0  0  0  0
  1  2  1  0  0  0  0
  1 19  1  0  0  0  0
  1 20  1  0  0  0  0
  1 21  1  0  0  0  0
  2 17  1  0  0  0  0
  2  3  1  0  0  0  0
  2 22  1  0  0  0  0
  3  4  1  0  0  0  0
  3 23  1  0  0  0  0
  3 24  1  0  0  0  0
  4  5  1  0  0  0  0
  4 25  1  0  0  0  0
  4 26  1  0  0  0  0
  5  6  1  0  0  0  0
  5 16  1  0  0  0  0
  5 27  1  0  0  0  0
  6  7  1  0  0  0  0
  6 28  1  0  0  0  0
  6 43  1  0  0  0  0
  7  8  1  0  0  0  0
  7 29  1  0  0  0  0
  7 30  1  0  0  0  0
  8  9  1  0  0  0  0
  8 10  1  0  0  0  0
  8 31  1  0  0  0  0
  9 32  1  0  0  0  0
 10 15  1  0  0  0  0
 10 11  2  0  0  0  0
 11 12  1  0  0  0  0
 11 33  1  0  0  0  0
 12 13  2  0  0  0  0
 12 34  1  0  0  0  0
 13 14  1  0  0  0  0
 14 15  2  0  0  0  0
 14 35  1  0  0  0  0
 15 36  1  0  0  0  0
 16 17  1  0  0  0  0
 16 37  1  0  0  0  0
 16 38  1  0  0  0  0
 17 18  1  0  0  0  0
 17 39  1  0  0  0  0
 18 40  1  0  0  0  0
 18 41  1  0  0  0  0
 18 42  1  0  0  0  0
M  CHG  1   6   1
M  END
> <s_m_source_file>
AV-unprocessed.smi

> <i_m_source_file_index>
3287

> <i_lp_mmshare_version>
43012

> <i_f3d_flags>
0

> <s_epik_input>
W0NIM11bQ0BASF0xW0NIMl1bQ0gyXVtDQEhdKFtDSDJdW0NASF0xW0NIM10pW05IXVtDSDJdW0NASF0oW09IXSljMltjSF1bY0hdbltjSF1bY0hdMg==

> <s_epik_cmdline>
J2VwaWtfcHl0aG9uJywgJy1waCcsICc3LjAnLCAnLXRuJywgJzgnLCAnLW1hJywgJzIwMCcsICctbWV0YWxfYmluZGluZycsICctaW1hZScsICc8aW5maWxlLm1hZT4nLCAnLW9tYWUnLCAnPG91dGZpbGUubWFlPic=

> <r_lp_tautomer_probability>
1

> <r_epik_Ionization_Penalty>
0.00537262

> <r_epik_Ionization_Penalty_Charging>
0.00321624

> <r_epik_Ionization_Penalty_Neutral>
0.00215638

> <r_epik_State_Penalty>
-0

> <r_epik_Charging_Adjusted_Penalty>
0.00321624

> <i_epik_Tot_Q>
1

> <i_epik_Tot_abs_Q>
1

> <r_epik_Metal_State_Penalty>
-0

> <b_epik_Metal_Only>
0

> <s_lp_Force_Field>
OPLS_2005

> <r_lp_Energy>
17.4427

> <b_lp_Chiralities_Consistent>
1

> <s_lp_Variant>
AV-unprocessed.smi:3287-2

> <Gold.Version>
5.8.1

> <Gold.Id.Protein>
6NUR|6NUR_protein|mol2

> <Gold.PLP.Fitness>
49.8775

> <Gold.PLP.PLP>
-39.3818

> <Gold.PLP.part.hbond>
-4.0000

> <Gold.PLP.part.metal>
0.0000

> <Gold.PLP.part.buried>
0.1279

> <Gold.PLP.part.nonpolar>
-34.3676

> <Gold.PLP.part.repulsive>
0.1280

> <Gold.PLP.ligand.clash>
0.0000

> <Gold.PLP.ligand.torsion>
1.1508

> <Gold.PLP.Chemscore.Hbond>
3.3335

> <Gold.PLP.Chemscore.CHOScore>
0.9174

> <Gold.PLP.Chemscore.Metal>
0.0000

> <Gold.Chemscore.Hbonds>
donor molecule, donor type, donor heavy atom, donor atom, acceptor molecule, acceptor atom, score
      L1  H     6    43       P1  8028  2.00
      P1  H  8011  8017       L1     9  0.52
      P1  H 10752 10765       L1    13  0.80
      L1  C    12    34       P1  7948  0.65
      L1  C    12    34       P1  7949  0.26

> <Gold.PLP.Chemscore.Internal.Correction>
0.0443

> <Gold.Rescore>
     Score         DG    S(hbond)    S(metal)    S(lipo)     H(rot)  DE(clash)    DE(int)     intcor
     19.84     -22.86       2.17        0.00     128.38       1.90       1.45       1.57       ----

> <Gold.Chemscore.Fitness>
19.8400

> <Gold.Chemscore.DG>
-22.8611

> <Gold.Chemscore.ZeroCoef>
-5.4800

> <Gold.Chemscore.Hbond>
2.1657

> <Gold.Chemscore.Metal>
0.0000

> <Gold.Chemscore.Lipo>
128.3817

> <Gold.Chemscore.Internal_Hbond>
0.0000

> <Gold.Chemscore.DEClash>
1.4471

> <Gold.Chemscore.DEInternal>
1.5739

> <Gold.Chemscore.Rot>
1.9035

> <Gold.Chemscore.Internal.Correction>
   9.000000E+99

> <Gold.Chemscore.Hbonds>
donor molecule, donor type, donor heavy atom, donor atom, acceptor molecule, acceptor atom, score
      L1  H     6    43       P1  8028  0.99
      P1  H  8011  8017       L1     9  0.28
      P1  H 10752 10765       L1    13  0.74

> <Gold.Chemscore.Hbond.Weighted>
-7.2333

> <Gold.Chemscore.Metal.Weighted>
-0.0000

> <Gold.Chemscore.Lipo.Weighted>
-15.0207

> <Gold.Chemscore.Internal_Hbond.Weighted>
0.0000

> <Gold.Chemscore.DEClash.Weighted>
1.4471

> <Gold.Chemscore.DEInternal.Weighted>
1.5739

> <Gold.Chemscore.Rot.Weighted>
4.8729

> <Gold.Chemscore.Internal.Correction.Weighted>
   9.000000E+99

> <Gold.Protein.RotatedTorsions>
[ 6907 6896 6895 6894 ] final  138.23 input  -60.11 | X-H torsion
[ 7974 7965 7964 7962 ] final   48.05 input  175.53 | X-H torsion
[ 8008 7997 7996 7995 ] final   92.98 input   59.86 | X-H torsion
[ 10167 10162 10161 10158 ] final   63.97 input  -65.29 | X-H torsion
[ 10718 10713 10712 10709 ] final  174.41 input   66.30 | X-H torsion
[ 10763 10752 10751 10750 ] final  168.88 input  -60.55 | X-H torsion
[ 11005 11000 10999 10996 ] final   92.10 input  -57.11 | X-H torsion

> <Gold.Protein.ActiveResidues>
 VAL166  LYS551  ARG553  GLY616  TRP617  ASP618  TYR619  PRO620  LYS621  CYS622 
 ASP623  PHE694  ASN695  SER759  ASP760  ASP761  ALA762  ILE779  LEU786  VAL792 
 PHE793  MET794  SER795  GLU796  ALA797  LYS798  CYS799  TRP800  GLU811  SER814 

> <Gold.Protein.RotatedAtoms>
  152.2690  133.5365  159.5427 H   0  0  0  0  0  0  0  0  0  0  0  0  # atno 6907 bound_to 6896
  150.7152  134.0724  159.3878 H   0  0  0  0  0  0  0  0  0  0  0  0  # atno 6908 bound_to 6896
  151.8639  135.0514  160.0523 H   0  0  0  0  0  0  0  0  0  0  0  0  # atno 6909 bound_to 6896
  146.0240  139.4685  142.9879 H   0  0  0  0  0  0  0  0  0  0  0  0  # atno 7974 bound_to 7965
  156.0416  140.3318  155.7250 H   0  0  0  0  0  0  0  0  0  0  0  0  # atno 8008 bound_to 7997
  155.5736  140.0630  157.2818 H   0  0  0  0  0  0  0  0  0  0  0  0  # atno 8009 bound_to 7997
  154.4395  140.1856  156.0892 H   0  0  0  0  0  0  0  0  0  0  0  0  # atno 8010 bound_to 7997
  140.1272  144.4676  150.6886 H   0  0  0  0  0  0  0  0  0  0  0  0  # atno 10167 bound_to 10162
  156.9501  131.0028  151.2950 H   0  0  0  0  0  0  0  0  0  0  0  0  # atno 10718 bound_to 10713
  154.3750  135.2753  155.2244 H   0  0  0  0  0  0  0  0  0  0  0  0  # atno 10763 bound_to 10752
  154.4376  135.5962  153.6112 H   0  0  0  0  0  0  0  0  0  0  0  0  # atno 10764 bound_to 10752
  152.9837  135.6011  154.3986 H   0  0  0  0  0  0  0  0  0  0  0  0  # atno 10765 bound_to 10752
  139.8828  134.8713  156.3524 H   0  0  0  0  0  0  0  0  0  0  0  0  # atno 11005 bound_to 11000
  145.7147  141.0094  143.1434 LP  0  0  0  0  0  0  0  0  0  0  0  0  # atno 17320 bound_to 7965
  144.7002  139.8799  143.7446 LP  0  0  0  0  0  0  0  0  0  0  0  0  # atno 17321 bound_to 7965
  140.6838  143.2339  151.5315 LP  0  0  0  0  0  0  0  0  0  0  0  0  # atno 17342 bound_to 10162
  139.5538  144.2328  152.1577 LP  0  0  0  0  0  0  0  0  0  0  0  0  # atno 17343 bound_to 10162
  157.5728  130.8322  149.8414 LP  0  0  0  0  0  0  0  0  0  0  0  0  # atno 17370 bound_to 10713
  156.0366  130.3749  150.1543 LP  0  0  0  0  0  0  0  0  0  0  0  0  # atno 17371 bound_to 10713
  140.9585  133.7404  156.0369 LP  0  0  0  0  0  0  0  0  0  0  0  0  # atno 17394 bound_to 11000
  140.8018  134.3500  157.5437 LP  0  0  0  0  0  0  0  0  0  0  0  0  # atno 17395 bound_to 11000

$$$$
