AV-unprocessed.smi:829|AV-procd|sdf|3868|dock10
  -GOLD-   22720 1323D 1   1.00000     0.00000
 Structure written by MMmdl.
 50 52  0  0  0  0  0  0  0  0  3 V2000
  150.8491  136.6121  156.0667 O   0  0  0  0  0  0  0  0  0  0  0  0
  150.3084  136.5594  154.9624 C   0  0  0  0  0  0  0  0  0  0  0  0
  149.9943  135.4303  154.3038 N   0  0  0  0  0  0  0  0  0  0  0  0
  150.2092  134.0837  154.7059 C   0  0  0  0  0  0  0  0  0  0  0  0
  149.7851  133.0629  153.8261 C   0  0  0  0  0  0  0  0  0  0  0  0
  149.9667  131.7125  154.1881 C   0  0  0  0  0  0  0  0  0  0  0  0
  150.5333  131.4047  155.3744 N   0  3  0  0  0  0  0  0  0  0  0  0
  150.9401  132.3444  156.2545 C   0  0  0  0  0  0  0  0  0  0  0  0
  150.7849  133.7117  155.9476 C   0  0  0  0  0  0  0  0  0  0  0  0
  149.9749  137.6472  154.2524 N   0  0  0  0  0  0  0  0  0  0  0  0
  150.2207  139.0258  154.6662 C   0  0  2  0  0  0  0  0  0  0  0  0
  151.5938  139.1628  155.3492 C   0  0  0  0  0  0  0  0  0  0  0  0
  151.8140  140.5921  155.8741 C   0  0  0  0  0  0  0  0  0  0  0  0
  150.7231  141.0009  156.7963 N   0  3  1  0  0  0  0  0  0  0  0  0
  150.9674  142.3200  157.4355 C   0  0  0  0  0  0  0  0  0  0  0  0
  151.5796  142.1728  158.8415 C   0  0  0  0  0  0  0  0  0  0  0  0
  152.0664  143.4766  159.4814 C   0  0  0  0  0  0  0  0  0  0  0  0
  153.0430  143.0408  160.5781 C   0  0  0  0  0  0  0  0  0  0  0  0
  153.5547  141.6518  160.1690 C   0  0  0  0  0  0  0  0  0  0  0  0
  152.8365  141.2983  158.8619 C   0  0  0  0  0  0  0  0  0  0  0  0
  149.3923  140.9117  156.1400 C   0  0  0  0  0  0  0  0  0  0  0  0
  149.1189  139.4864  155.6333 C   0  0  0  0  0  0  0  0  0  0  0  0
  149.6248  135.5497  153.3718 H   0  0  0  0  0  0  0  0  0  0  0  0
  149.3300  133.3086  152.8773 H   0  0  0  0  0  0  0  0  0  0  0  0
  149.6760  130.8758  153.5696 H   0  0  0  0  0  0  0  0  0  0  0  0
  151.3698  131.9775  157.1753 H   0  0  0  0  0  0  0  0  0  0  0  0
  151.0993  134.4448  156.6745 H   0  0  0  0  0  0  0  0  0  0  0  0
  149.5357  137.5134  153.3530 H   0  0  0  0  0  0  0  0  0  0  0  0
  150.1943  139.6727  153.7868 H   0  0  0  0  0  0  0  0  0  0  0  0
  151.6683  138.4570  156.1781 H   0  0  0  0  0  0  0  0  0  0  0  0
  152.3910  138.9041  154.6510 H   0  0  0  0  0  0  0  0  0  0  0  0
  152.7712  140.6354  156.3954 H   0  0  0  0  0  0  0  0  0  0  0  0
  151.8720  141.2952  155.0414 H   0  0  0  0  0  0  0  0  0  0  0  0
  151.6691  142.8949  156.8292 H   0  0  0  0  0  0  0  0  0  0  0  0
  150.0523  142.9137  157.4643 H   0  0  0  0  0  0  0  0  0  0  0  0
  150.8434  141.7148  159.5048 H   0  0  0  0  0  0  0  0  0  0  0  0
  152.5986  144.0778  158.7429 H   0  0  0  0  0  0  0  0  0  0  0  0
  151.2498  144.0813  159.8769 H   0  0  0  0  0  0  0  0  0  0  0  0
  153.8554  143.7582  160.6986 H   0  0  0  0  0  0  0  0  0  0  0  0
  152.5245  142.9729  161.5352 H   0  0  0  0  0  0  0  0  0  0  0  0
  154.6376  141.6383  160.0415 H   0  0  0  0  0  0  0  0  0  0  0  0
  153.3091  140.9249  160.9442 H   0  0  0  0  0  0  0  0  0  0  0  0
  152.6068  140.2348  158.7894 H   0  0  0  0  0  0  0  0  0  0  0  0
  153.4791  141.5532  158.0177 H   0  0  0  0  0  0  0  0  0  0  0  0
  148.6079  141.1999  156.8387 H   0  0  0  0  0  0  0  0  0  0  0  0
  149.3471  141.6180  155.3093 H   0  0  0  0  0  0  0  0  0  0  0  0
  148.1476  139.4524  155.1381 H   0  0  0  0  0  0  0  0  0  0  0  0
  149.0578  138.8052  156.4835 H   0  0  0  0  0  0  0  0  0  0  0  0
  150.7262  140.3236  157.5455 H   0  0  0  0  0  0  0  0  0  0  0  0
  150.6547  130.4213  155.6182 H   0  0  0  0  0  0  0  0  0  0  0  0
  1  2  2  0  0  0  0
  2  3  1  0  0  0  0
  2 10  1  0  0  0  0
  3  4  1  0  0  0  0
  3 23  1  0  0  0  0
  4  9  1  0  0  0  0
  4  5  2  0  0  0  0
  5  6  1  0  0  0  0
  5 24  1  0  0  0  0
  6  7  2  0  0  0  0
  6 25  1  0  0  0  0
  7  8  1  0  0  0  0
  7 50  1  0  0  0  0
  8  9  2  0  0  0  0
  8 26  1  0  0  0  0
  9 27  1  0  0  0  0
 10 11  1  0  0  0  0
 10 28  1  0  0  0  0
 11 22  1  0  0  0  0
 11 12  1  0  0  0  0
 11 29  1  0  0  0  0
 12 13  1  0  0  0  0
 12 30  1  0  0  0  0
 12 31  1  0  0  0  0
 13 14  1  0  0  0  0
 13 32  1  0  0  0  0
 13 33  1  0  0  0  0
 14 15  1  0  0  0  0
 14 21  1  0  0  0  0
 14 49  1  0  0  0  0
 15 16  1  0  0  0  0
 15 34  1  0  0  0  0
 15 35  1  0  0  0  0
 16 20  1  0  0  0  0
 16 17  1  0  0  0  0
 16 36  1  0  0  0  0
 17 18  1  0  0  0  0
 17 37  1  0  0  0  0
 17 38  1  0  0  0  0
 18 19  1  0  0  0  0
 18 39  1  0  0  0  0
 18 40  1  0  0  0  0
 19 20  1  0  0  0  0
 19 41  1  0  0  0  0
 19 42  1  0  0  0  0
 20 43  1  0  0  0  0
 20 44  1  0  0  0  0
 21 22  1  0  0  0  0
 21 45  1  0  0  0  0
 21 46  1  0  0  0  0
 22 47  1  0  0  0  0
 22 48  1  0  0  0  0
M  CHG  1   7   1
M  CHG  1  14   1
M  END
> <s_m_source_file>
AV-unprocessed.smi

> <i_m_source_file_index>
829

> <i_lp_mmshare_version>
43012

> <i_f3d_flags>
0

> <s_epik_input>
W2NIXTFbY0hdbltjSF1bY0hdYzFbTkhdQyg9TylbTkhdW0NIXTJbQ0gyXVtDSDJdTihbQ0gyXVtDSDJdMilbQ0gyXVtDSF0zW0NIMl1bQ0gyXVtDSDJdW0NIMl0z

> <s_epik_cmdline>
J2VwaWtfcHl0aG9uJywgJy1waCcsICc3LjAnLCAnLXRuJywgJzgnLCAnLW1hJywgJzIwMCcsICctbWV0YWxfYmluZGluZycsICctaW1hZScsICc8aW5maWxlLm1hZT4nLCAnLW9tYWUnLCAnPG91dGZpbGUubWFlPic=

> <r_epik_Ionization_Penalty>
1.10644

> <r_epik_Ionization_Penalty_Charging>
1.10642

> <r_epik_Ionization_Penalty_Neutral>
1.84455e-05

> <r_epik_State_Penalty>
1.14949

> <r_epik_Charging_Adjusted_Penalty>
2.25592

> <i_epik_Tot_Q>
2

> <i_epik_Tot_abs_Q>
2

> <r_epik_Metal_State_Penalty>
1.23448

> <b_epik_Metal_Only>
0

> <s_lp_Force_Field>
OPLS_2005

> <r_lp_Energy>
49.76

> <b_lp_Chiralities_Consistent>
1

> <s_lp_Variant>
AV-unprocessed.smi:829-3

> <Gold.Version>
5.8.1

> <Gold.Id.Protein>
6NUR|6NUR_protein|mol2

> <Gold.PLP.Fitness>
46.7513

> <Gold.PLP.PLP>
-42.6520

> <Gold.PLP.part.hbond>
-2.1987

> <Gold.PLP.part.metal>
0.0000

> <Gold.PLP.part.buried>
-5.4019

> <Gold.PLP.part.nonpolar>
-35.4104

> <Gold.PLP.part.repulsive>
0.1667

> <Gold.PLP.ligand.clash>
0.0000

> <Gold.PLP.ligand.torsion>
0.9082

> <Gold.PLP.Chemscore.Hbond>
1.9600

> <Gold.PLP.Chemscore.CHOScore>
0.0000

> <Gold.PLP.Chemscore.Metal>
0.0000

> <Gold.Chemscore.Hbonds>
donor molecule, donor type, donor heavy atom, donor atom, acceptor molecule, acceptor atom, score
      L1  H     3    23       P1  7948  0.65
      L1  H    10    28       P1  7948  0.98

> <Gold.PLP.Chemscore.Internal.Correction>
0.0358

> <Gold.Rescore>
     Score         DG    S(hbond)    S(metal)    S(lipo)     H(rot)  DE(clash)    DE(int)     intcor
     16.98     -20.59       1.61        0.00     113.15       1.37       0.08       3.52       ----

> <Gold.Chemscore.Fitness>
16.9809

> <Gold.Chemscore.DG>
-20.5864

> <Gold.Chemscore.ZeroCoef>
-5.4800

> <Gold.Chemscore.Hbond>
1.6099

> <Gold.Chemscore.Metal>
0.0000

> <Gold.Chemscore.Lipo>
113.1471

> <Gold.Chemscore.Internal_Hbond>
0.0000

> <Gold.Chemscore.DEClash>
0.0839

> <Gold.Chemscore.DEInternal>
3.5216

> <Gold.Chemscore.Rot>
1.3707

> <Gold.Chemscore.Internal.Correction>
   9.000000E+99

> <Gold.Chemscore.Hbonds>
donor molecule, donor type, donor heavy atom, donor atom, acceptor molecule, acceptor atom, score
      L1  H     3    23       P1  7948  0.06
      L1  H    10    28       P1  7948  0.78

> <Gold.Chemscore.Hbond.Weighted>
-5.3771

> <Gold.Chemscore.Metal.Weighted>
-0.0000

> <Gold.Chemscore.Lipo.Weighted>
-13.2382

> <Gold.Chemscore.Internal_Hbond.Weighted>
0.0000

> <Gold.Chemscore.DEClash.Weighted>
0.0839

> <Gold.Chemscore.DEInternal.Weighted>
3.5216

> <Gold.Chemscore.Rot.Weighted>
3.5089

> <Gold.Chemscore.Internal.Correction.Weighted>
   9.000000E+99

> <Gold.Protein.RotatedTorsions>
[ 6907 6896 6895 6894 ] final -138.72 input  -60.11 | X-H torsion
[ 7974 7965 7964 7962 ] final  109.65 input  175.53 | X-H torsion
[ 8008 7997 7996 7995 ] final -130.68 input   59.86 | X-H torsion
[ 10167 10162 10161 10158 ] final  -29.44 input  -65.29 | X-H torsion
[ 10718 10713 10712 10709 ] final   -5.45 input   66.30 | X-H torsion
[ 10763 10752 10751 10750 ] final   48.39 input  -60.55 | X-H torsion
[ 11005 11000 10999 10996 ] final  -53.65 input  -57.11 | X-H torsion

> <Gold.Protein.ActiveResidues>
 VAL166  LYS551  ARG553  GLY616  TRP617  ASP618  TYR619  PRO620  LYS621  CYS622 
 ASP623  PHE694  ASN695  SER759  ASP760  ASP761  ALA762  ILE779  LEU786  VAL792 
 PHE793  MET794  SER795  GLU796  ALA797  LYS798  CYS799  TRP800  GLU811  SER814 

> <Gold.Protein.RotatedAtoms>
  151.0386  133.5726  159.2653 H   0  0  0  0  0  0  0  0  0  0  0  0  # atno 6907 bound_to 6896
  151.2781  135.0704  159.9169 H   0  0  0  0  0  0  0  0  0  0  0  0  # atno 6908 bound_to 6896
  152.5359  134.0105  159.7990 H   0  0  0  0  0  0  0  0  0  0  0  0  # atno 6909 bound_to 6896
  145.2651  139.2687  143.3996 H   0  0  0  0  0  0  0  0  0  0  0  0  # atno 7974 bound_to 7965
  155.2998  140.0452  157.3028 H   0  0  0  0  0  0  0  0  0  0  0  0  # atno 8008 bound_to 7997
  154.5493  140.2312  155.8478 H   0  0  0  0  0  0  0  0  0  0  0  0  # atno 8009 bound_to 7997
  156.1952  140.3040  155.9420 H   0  0  0  0  0  0  0  0  0  0  0  0  # atno 8010 bound_to 7997
  140.7260  143.3928  151.1399 H   0  0  0  0  0  0  0  0  0  0  0  0  # atno 10167 bound_to 10162
  156.7463  130.5225  149.5813 H   0  0  0  0  0  0  0  0  0  0  0  0  # atno 10718 bound_to 10713
  152.9792  135.5946  154.3917 H   0  0  0  0  0  0  0  0  0  0  0  0  # atno 10763 bound_to 10752
  154.3572  135.2767  155.2342 H   0  0  0  0  0  0  0  0  0  0  0  0  # atno 10764 bound_to 10752
  154.4355  135.6026  153.6151 H   0  0  0  0  0  0  0  0  0  0  0  0  # atno 10765 bound_to 10752
  141.0987  133.6621  156.4204 H   0  0  0  0  0  0  0  0  0  0  0  0  # atno 11005 bound_to 11000
  146.3263  140.3079  142.8625 LP  0  0  0  0  0  0  0  0  0  0  0  0  # atno 17320 bound_to 7965
  144.9384  140.8051  143.5646 LP  0  0  0  0  0  0  0  0  0  0  0  0  # atno 17321 bound_to 7965
  139.7536  143.8741  152.3083 LP  0  0  0  0  0  0  0  0  0  0  0  0  # atno 17342 bound_to 10162
  139.8603  144.7120  150.9107 LP  0  0  0  0  0  0  0  0  0  0  0  0  # atno 17343 bound_to 10162
  156.1431  130.6258  151.0494 LP  0  0  0  0  0  0  0  0  0  0  0  0  # atno 17370 bound_to 10713
  157.6796  131.0841  150.7404 LP  0  0  0  0  0  0  0  0  0  0  0  0  # atno 17371 bound_to 10713
  140.5077  134.6425  157.5272 LP  0  0  0  0  0  0  0  0  0  0  0  0  # atno 17394 bound_to 11000
  139.9831  134.7105  155.9823 LP  0  0  0  0  0  0  0  0  0  0  0  0  # atno 17395 bound_to 11000

$$$$
