AV-unprocessed.smi:2959|AV-procd|sdf|11310|dock8
  -GOLD-   2272016213D 1   1.00000     0.00000
 Structure written by MMmdl.
 46 48  0  0  0  0  0  0  0  0  2 V2000
  150.1638  138.6972  154.0569 C   0  0  0  0  0  0  0  0  0  0  0  0
  148.6531  138.8545  154.1925 C   0  0  0  0  0  0  0  0  0  0  0  0
  148.1826  139.8237  154.7868 O   0  0  0  0  0  0  0  0  0  0  0  0
  147.9032  137.8934  153.6356 N   0  0  0  0  0  0  0  0  0  0  0  0
  146.4472  137.8760  153.6556 C   0  0  0  0  0  0  0  0  0  0  0  0
  145.8873  137.7630  152.2318 C   0  0  0  0  0  0  0  0  0  0  0  0
  145.5921  136.3431  151.8708 C   0  0  0  0  0  0  0  0  0  0  0  0
  146.4946  135.4332  151.4062 N   0  3  0  0  0  0  0  0  0  0  0  0
  145.8602  134.2109  151.1798 C   0  0  0  0  0  0  0  0  0  0  0  0
  146.3560  132.9997  150.7071 C   0  0  0  0  0  0  0  0  0  0  0  0
  145.4325  131.9400  150.5905 C   0  0  0  0  0  0  0  0  0  0  0  0
  144.0757  132.1068  150.9368 C   0  0  0  0  0  0  0  0  0  0  0  0
  143.5846  133.3398  151.4148 C   0  0  0  0  0  0  0  0  0  0  0  0
  144.5049  134.3813  151.5285 C   0  0  0  0  0  0  0  0  0  0  0  0
  144.3866  135.7087  151.9536 N   0  0  0  0  0  0  0  0  0  0  0  0
  143.0726  136.2095  152.3826 C   0  0  0  0  0  0  0  0  0  0  0  0
  142.6403  135.6165  153.7310 C   0  0  0  0  0  0  0  0  0  0  0  0
  141.2214  135.5375  153.7658 O   0  0  0  0  0  0  0  0  0  0  0  0
  140.4989  136.7099  153.7895 C   0  0  0  0  0  0  0  0  0  0  0  0
  139.0954  136.5924  153.8585 C   0  0  0  0  0  0  0  0  0  0  0  0
  138.2770  137.7377  153.8887 C   0  0  0  0  0  0  0  0  0  0  0  0
  138.8583  139.0184  153.8485 C   0  0  0  0  0  0  0  0  0  0  0  0
  140.2575  139.1502  153.7782 C   0  0  0  0  0  0  0  0  0  0  0  0
  141.0764  138.0043  153.7484 C   0  0  0  0  0  0  0  0  0  0  0  0
  150.4922  137.7610  154.5093 H   0  0  0  0  0  0  0  0  0  0  0  0
  150.6848  139.5167  154.5525 H   0  0  0  0  0  0  0  0  0  0  0  0
  150.4539  138.6945  153.0059 H   0  0  0  0  0  0  0  0  0  0  0  0
  148.3701  137.1330  153.1628 H   0  0  0  0  0  0  0  0  0  0  0  0
  146.1004  137.0373  154.2616 H   0  0  0  0  0  0  0  0  0  0  0  0
  146.0863  138.7888  154.1320 H   0  0  0  0  0  0  0  0  0  0  0  0
  144.9756  138.3535  152.1352 H   0  0  0  0  0  0  0  0  0  0  0  0
  146.5997  138.1702  151.5133 H   0  0  0  0  0  0  0  0  0  0  0  0
  147.3945  132.8694  150.4398 H   0  0  0  0  0  0  0  0  0  0  0  0
  145.7710  130.9805  150.2272 H   0  0  0  0  0  0  0  0  0  0  0  0
  143.3973  131.2723  150.8335 H   0  0  0  0  0  0  0  0  0  0  0  0
  142.5433  133.4583  151.6754 H   0  0  0  0  0  0  0  0  0  0  0  0
  143.1019  137.2988  152.4214 H   0  0  0  0  0  0  0  0  0  0  0  0
  142.3473  135.9483  151.6117 H   0  0  0  0  0  0  0  0  0  0  0  0
  143.0771  134.6240  153.8525 H   0  0  0  0  0  0  0  0  0  0  0  0
  143.0052  136.2482  154.5420 H   0  0  0  0  0  0  0  0  0  0  0  0
  138.6411  135.6128  153.8895 H   0  0  0  0  0  0  0  0  0  0  0  0
  137.2034  137.6335  153.9424 H   0  0  0  0  0  0  0  0  0  0  0  0
  138.2319  139.8979  153.8716 H   0  0  0  0  0  0  0  0  0  0  0  0
  140.7047  140.1329  153.7464 H   0  0  0  0  0  0  0  0  0  0  0  0
  142.1449  138.1451  153.6921 H   0  0  0  0  0  0  0  0  0  0  0  0
  147.4735  135.6381  151.2515 H   0  0  0  0  0  0  0  0  0  0  0  0
  1  2  1  0  0  0  0
  1 25  1  0  0  0  0
  1 26  1  0  0  0  0
  1 27  1  0  0  0  0
  2  3  2  0  0  0  0
  2  4  1  0  0  0  0
  4  5  1  0  0  0  0
  4 28  1  0  0  0  0
  5  6  1  0  0  0  0
  5 29  1  0  0  0  0
  5 30  1  0  0  0  0
  6  7  1  0  0  0  0
  6 31  1  0  0  0  0
  6 32  1  0  0  0  0
  7 15  1  0  0  0  0
  7  8  2  0  0  0  0
  8  9  1  0  0  0  0
  8 46  1  0  0  0  0
  9 14  2  0  0  0  0
  9 10  1  0  0  0  0
 10 11  2  0  0  0  0
 10 33  1  0  0  0  0
 11 12  1  0  0  0  0
 11 34  1  0  0  0  0
 12 13  2  0  0  0  0
 12 35  1  0  0  0  0
 13 14  1  0  0  0  0
 13 36  1  0  0  0  0
 14 15  1  0  0  0  0
 15 16  1  0  0  0  0
 16 17  1  0  0  0  0
 16 37  1  0  0  0  0
 16 38  1  0  0  0  0
 17 18  1  0  0  0  0
 17 39  1  0  0  0  0
 17 40  1  0  0  0  0
 18 19  1  0  0  0  0
 19 24  1  0  0  0  0
 19 20  2  0  0  0  0
 20 21  1  0  0  0  0
 20 41  1  0  0  0  0
 21 22  2  0  0  0  0
 21 42  1  0  0  0  0
 22 23  1  0  0  0  0
 22 43  1  0  0  0  0
 23 24  2  0  0  0  0
 23 44  1  0  0  0  0
 24 45  1  0  0  0  0
M  CHG  1   8   1
M  END
> <s_m_source_file>
AV-unprocessed.smi

> <i_m_source_file_index>
2959

> <i_lp_mmshare_version>
43012

> <i_f3d_flags>
0

> <s_epik_input>
W0NIM11DKD1PKVtOSF1bQ0gyXVtDSDJdYyhuMSluKGMoYzEyKVtjSF1bY0hdW2NIXVtjSF0yKVtDSDJdW0NIMl1PYzNbY0hdW2NIXVtjSF1bY0hdW2NIXTM=

> <s_epik_cmdline>
J2VwaWtfcHl0aG9uJywgJy1waCcsICc3LjAnLCAnLXRuJywgJzgnLCAnLW1hJywgJzIwMCcsICctbWV0YWxfYmluZGluZycsICctaW1hZScsICc8aW5maWxlLm1hZT4nLCAnLW9tYWUnLCAnPG91dGZpbGUubWFlPic=

> <r_lp_tautomer_probability>
1

> <r_epik_Ionization_Penalty>
1.04698

> <r_epik_Ionization_Penalty_Charging>
1.04698

> <r_epik_Ionization_Penalty_Neutral>
3.05925e-07

> <r_epik_State_Penalty>
1.0995

> <r_epik_Charging_Adjusted_Penalty>
2.14648

> <i_epik_Tot_Q>
1

> <i_epik_Tot_abs_Q>
1

> <r_epik_Metal_State_Penalty>
1.19436

> <b_epik_Metal_Only>
0

> <s_lp_Force_Field>
OPLS_2005

> <r_lp_Energy>
17.9669

> <b_lp_Chiralities_Consistent>
1

> <s_lp_Variant>
AV-unprocessed.smi:2959-2

> <Gold.Version>
5.8.1

> <Gold.Id.Protein>
6NUR|6NUR_protein|mol2

> <Gold.PLP.Fitness>
54.9303

> <Gold.PLP.PLP>
-47.6169

> <Gold.PLP.part.hbond>
-2.0000

> <Gold.PLP.part.metal>
0.0000

> <Gold.PLP.part.buried>
-7.4140

> <Gold.PLP.part.nonpolar>
-38.6221

> <Gold.PLP.part.repulsive>
0.3349

> <Gold.PLP.ligand.clash>
0.0000

> <Gold.PLP.ligand.torsion>
0.8926

> <Gold.PLP.Chemscore.Hbond>
3.0000

> <Gold.PLP.Chemscore.CHOScore>
0.0000

> <Gold.PLP.Chemscore.Metal>
0.0000

> <Gold.Chemscore.Hbonds>
donor molecule, donor type, donor heavy atom, donor atom, acceptor molecule, acceptor atom, score
      L1  H     4    28       P1  7948  1.00
      L1  H     8    46       P1  7948  2.00

> <Gold.PLP.Chemscore.Internal.Correction>
0.0985

> <Gold.Rescore>
     Score         DG    S(hbond)    S(metal)    S(lipo)     H(rot)  DE(clash)    DE(int)     intcor
     18.45     -19.56       1.90        0.00     114.36       2.21       0.14       0.97       ----

> <Gold.Chemscore.Fitness>
18.4462

> <Gold.Chemscore.DG>
-19.5555

> <Gold.Chemscore.ZeroCoef>
-5.4800

> <Gold.Chemscore.Hbond>
1.9018

> <Gold.Chemscore.Metal>
0.0000

> <Gold.Chemscore.Lipo>
114.3551

> <Gold.Chemscore.Internal_Hbond>
0.0000

> <Gold.Chemscore.DEClash>
0.1362

> <Gold.Chemscore.DEInternal>
0.9731

> <Gold.Chemscore.Rot>
2.2093

> <Gold.Chemscore.Internal.Correction>
   9.000000E+99

> <Gold.Chemscore.Hbonds>
donor molecule, donor type, donor heavy atom, donor atom, acceptor molecule, acceptor atom, score
      L1  H     4    28       P1  7948  0.99
      L1  H     8    46       P1  7948  0.81

> <Gold.Chemscore.Hbond.Weighted>
-6.3519

> <Gold.Chemscore.Metal.Weighted>
-0.0000

> <Gold.Chemscore.Lipo.Weighted>
-13.3796

> <Gold.Chemscore.Internal_Hbond.Weighted>
0.0000

> <Gold.Chemscore.DEClash.Weighted>
0.1362

> <Gold.Chemscore.DEInternal.Weighted>
0.9731

> <Gold.Chemscore.Rot.Weighted>
5.6559

> <Gold.Chemscore.Internal.Correction.Weighted>
   9.000000E+99

> <Gold.Protein.RotatedTorsions>
[ 6907 6896 6895 6894 ] final  -51.28 input  -60.11 | X-H torsion
[ 7974 7965 7964 7962 ] final -135.95 input  175.53 | X-H torsion
[ 8008 7997 7996 7995 ] final    4.88 input   59.86 | X-H torsion
[ 10167 10162 10161 10158 ] final   30.99 input  -65.29 | X-H torsion
[ 10718 10713 10712 10709 ] final  -29.66 input   66.30 | X-H torsion
[ 10763 10752 10751 10750 ] final  -66.92 input  -60.55 | X-H torsion
[ 11005 11000 10999 10996 ] final -132.69 input  -57.11 | X-H torsion

> <Gold.Protein.ActiveResidues>
 VAL166  LYS551  ARG553  GLY616  TRP617  ASP618  TYR619  PRO620  LYS621  CYS622 
 ASP623  PHE694  ASN695  SER759  ASP760  ASP761  ALA762  ILE779  LEU786  VAL792 
 PHE793  MET794  SER795  GLU796  ALA797  LYS798  CYS799  TRP800  GLU811  SER814 

> <Gold.Protein.RotatedAtoms>
  150.8626  134.7982  159.7094 H   0  0  0  0  0  0  0  0  0  0  0  0  # atno 6907 bound_to 6896
  152.4658  134.5075  159.9753 H   0  0  0  0  0  0  0  0  0  0  0  0  # atno 6908 bound_to 6896
  151.5176  133.3434  159.2931 H   0  0  0  0  0  0  0  0  0  0  0  0  # atno 6909 bound_to 6896
  144.8969  140.6719  143.5109 H   0  0  0  0  0  0  0  0  0  0  0  0  # atno 7974 bound_to 7965
  154.7214  140.2712  155.6538 H   0  0  0  0  0  0  0  0  0  0  0  0  # atno 8008 bound_to 7997
  156.2824  140.2734  156.1811 H   0  0  0  0  0  0  0  0  0  0  0  0  # atno 8009 bound_to 7997
  155.0502  140.0371  157.2531 H   0  0  0  0  0  0  0  0  0  0  0  0  # atno 8010 bound_to 7997
  140.4628  144.0880  150.6217 H   0  0  0  0  0  0  0  0  0  0  0  0  # atno 10167 bound_to 10162
  156.4097  130.4405  149.7261 H   0  0  0  0  0  0  0  0  0  0  0  0  # atno 10718 bound_to 10713
  154.3669  135.6104  153.5719 H   0  0  0  0  0  0  0  0  0  0  0  0  # atno 10763 bound_to 10752
  152.9791  135.5828  154.4568 H   0  0  0  0  0  0  0  0  0  0  0  0  # atno 10764 bound_to 10752
  154.4315  135.2848  155.1887 H   0  0  0  0  0  0  0  0  0  0  0  0  # atno 10765 bound_to 10752
  140.9148  134.1521  157.4361 H   0  0  0  0  0  0  0  0  0  0  0  0  # atno 11005 bound_to 11000
  145.3684  139.1664  143.4345 LP  0  0  0  0  0  0  0  0  0  0  0  0  # atno 17320 bound_to 7965
  146.3086  140.3753  142.8678 LP  0  0  0  0  0  0  0  0  0  0  0  0  # atno 17321 bound_to 7965
  140.4072  143.2674  151.9876 LP  0  0  0  0  0  0  0  0  0  0  0  0  # atno 17342 bound_to 10162
  139.4808  144.5947  151.7711 LP  0  0  0  0  0  0  0  0  0  0  0  0  # atno 17343 bound_to 10162
  156.4245  130.7785  151.2803 LP  0  0  0  0  0  0  0  0  0  0  0  0  # atno 17370 bound_to 10713
  157.7506  131.0173  150.3578 LP  0  0  0  0  0  0  0  0  0  0  0  0  # atno 17371 bound_to 10713
  139.8764  134.9949  156.5718 LP  0  0  0  0  0  0  0  0  0  0  0  0  # atno 17394 bound_to 11000
  140.8064  133.8464  155.8771 LP  0  0  0  0  0  0  0  0  0  0  0  0  # atno 17395 bound_to 11000

$$$$
