AV-unprocessed.smi:1982|AV-procd|sdf|8024|dock9
  -GOLD-   2272010213D 1   1.00000     0.00000
 Structure written by MMmdl.
 36 37  0  0  0  0  0  0  0  0  1 V2000
  152.0686  143.9785  161.3331 C   0  0  0  0  0  0  0  0  0  0  0  0
  152.7869  143.8512  159.9738 C   0  0  2  0  0  0  0  0  0  0  0  0
  152.1953  144.8168  158.9268 C   0  0  0  0  0  0  0  0  0  0  0  0
  150.8133  144.3616  158.4325 C   0  0  0  0  0  0  0  0  0  0  0  0
  150.8682  142.9320  157.8770 C   0  0  0  0  0  0  0  0  0  0  0  0
  151.4469  141.9375  158.9018 C   0  0  1  0  0  0  0  0  0  0  0  0
  151.5354  140.6200  158.2721 N   0  0  0  0  0  0  0  0  0  0  0  0
  150.5284  139.9588  157.6797 C   0  0  0  0  0  0  0  0  0  0  0  0
  149.3789  140.3964  157.6104 O   0  0  0  0  0  0  0  0  0  0  0  0
  150.8946  138.5937  157.0851 C   0  0  0  0  0  0  0  0  0  0  0  0
  151.9264  138.6800  156.0660 N   0  0  0  0  0  0  0  0  0  0  0  0
  152.4037  139.7252  155.3869 C   0  0  0  0  0  0  0  0  0  0  0  0
  153.3579  139.3650  154.5421 N   0  0  0  0  0  0  0  0  0  0  0  0
  153.4519  137.9974  154.7386 N   0  0  0  0  0  0  0  0  0  0  0  0
  152.6047  137.5850  155.6412 N   0  0  0  0  0  0  0  0  0  0  0  0
  152.8361  142.4042  159.4126 C   0  0  2  0  0  0  0  0  0  0  0  0
  153.4815  141.4144  160.4029 C   0  0  0  0  0  0  0  0  0  0  0  0
  151.0346  143.6384  161.2873 H   0  0  0  0  0  0  0  0  0  0  0  0
  152.0571  145.0155  161.6695 H   0  0  0  0  0  0  0  0  0  0  0  0
  152.5721  143.4015  162.1084 H   0  0  0  0  0  0  0  0  0  0  0  0
  153.8167  144.1680  160.1448 H   0  0  0  0  0  0  0  0  0  0  0  0
  152.1311  145.8257  159.3355 H   0  0  0  0  0  0  0  0  0  0  0  0
  152.8734  144.8811  158.0747 H   0  0  0  0  0  0  0  0  0  0  0  0
  150.0883  144.4134  159.2451 H   0  0  0  0  0  0  0  0  0  0  0  0
  150.4545  145.0430  157.6606 H   0  0  0  0  0  0  0  0  0  0  0  0
  149.8675  142.6182  157.5774 H   0  0  0  0  0  0  0  0  0  0  0  0
  151.4767  142.9245  156.9715 H   0  0  0  0  0  0  0  0  0  0  0  0
  150.7616  141.8969  159.7497 H   0  0  0  0  0  0  0  0  0  0  0  0
  152.4435  140.1786  158.2814 H   0  0  0  0  0  0  0  0  0  0  0  0
  151.2327  137.9274  157.8805 H   0  0  0  0  0  0  0  0  0  0  0  0
  150.0072  138.1424  156.6396 H   0  0  0  0  0  0  0  0  0  0  0  0
  152.0564  140.7401  155.5127 H   0  0  0  0  0  0  0  0  0  0  0  0
  153.4983  142.4362  158.5455 H   0  0  0  0  0  0  0  0  0  0  0  0
  152.8263  141.2096  161.2497 H   0  0  0  0  0  0  0  0  0  0  0  0
  154.4220  141.8051  160.7921 H   0  0  0  0  0  0  0  0  0  0  0  0
  153.7046  140.4603  159.9255 H   0  0  0  0  0  0  0  0  0  0  0  0
  1  2  1  0  0  0  0
  1 18  1  0  0  0  0
  1 19  1  0  0  0  0
  1 20  1  0  0  0  0
  2 16  1  0  0  0  0
  2  3  1  0  0  0  0
  2 21  1  0  0  0  0
  3  4  1  0  0  0  0
  3 22  1  0  0  0  0
  3 23  1  0  0  0  0
  4  5  1  0  0  0  0
  4 24  1  0  0  0  0
  4 25  1  0  0  0  0
  5  6  1  0  0  0  0
  5 26  1  0  0  0  0
  5 27  1  0  0  0  0
  6  7  1  0  0  0  0
  6 16  1  0  0  0  0
  6 28  1  0  0  0  0
  7  8  1  0  0  0  0
  7 29  1  0  0  0  0
  8  9  2  0  0  0  0
  8 10  1  0  0  0  0
 10 11  1  0  0  0  0
 10 30  1  0  0  0  0
 10 31  1  0  0  0  0
 11 15  1  0  0  0  0
 11 12  1  0  0  0  0
 12 13  2  0  0  0  0
 12 32  1  0  0  0  0
 13 14  1  0  0  0  0
 14 15  2  0  0  0  0
 16 17  1  0  0  0  0
 16 33  1  0  0  0  0
 17 34  1  0  0  0  0
 17 35  1  0  0  0  0
 17 36  1  0  0  0  0
M  END
> <s_m_source_file>
AV-unprocessed.smi

> <i_m_source_file_index>
1982

> <i_lp_mmshare_version>
43012

> <i_f3d_flags>
0

> <s_epik_input>
W0NIM11bQ0BASF0xW0NIMl1bQ0gyXVtDSDJdW0NASF0oW0NASF0xW0NIM10pW05IXUMoPU8pW0NIMl1uMltjSF1ubm4y

> <s_epik_cmdline>
J2VwaWtfcHl0aG9uJywgJy1waCcsICc3LjAnLCAnLXRuJywgJzgnLCAnLW1hJywgJzIwMCcsICctbWV0YWxfYmluZGluZycsICctaW1hZScsICc8aW5maWxlLm1hZT4nLCAnLW9tYWUnLCAnPG91dGZpbGUubWFlPic=

> <r_lp_tautomer_probability>
1

> <r_epik_Ionization_Penalty>
5.03816e-07

> <r_epik_Ionization_Penalty_Charging>
0

> <r_epik_Ionization_Penalty_Neutral>
5.03816e-07

> <r_epik_State_Penalty>
-0

> <r_epik_Charging_Adjusted_Penalty>
0

> <i_epik_Tot_Q>
0

> <i_epik_Tot_abs_Q>
0

> <r_epik_Metal_State_Penalty>
-0

> <b_epik_Metal_Only>
0

> <s_lp_Force_Field>
OPLS_2005

> <r_lp_Energy>
16.2726

> <b_lp_Chiralities_Consistent>
1

> <s_lp_Variant>
AV-unprocessed.smi:1982-5

> <Gold.Version>
5.8.1

> <Gold.Id.Protein>
6NUR|6NUR_protein|mol2

> <Gold.PLP.Fitness>
38.5367

> <Gold.PLP.PLP>
-36.3396

> <Gold.PLP.part.hbond>
-4.0000

> <Gold.PLP.part.metal>
0.0000

> <Gold.PLP.part.buried>
-3.1305

> <Gold.PLP.part.nonpolar>
-30.1150

> <Gold.PLP.part.repulsive>
0.1861

> <Gold.PLP.ligand.clash>
0.0000

> <Gold.PLP.ligand.torsion>
0.2134

> <Gold.PLP.Chemscore.Hbond>
0.8735

> <Gold.PLP.Chemscore.CHOScore>
0.0000

> <Gold.PLP.Chemscore.Metal>
0.0000

> <Gold.Chemscore.Hbonds>
donor molecule, donor type, donor heavy atom, donor atom, acceptor molecule, acceptor atom, score
      P1  H  7997  8009       L1    13  0.79
      P1  H 10752 10765       L1    15  0.08

> <Gold.PLP.Chemscore.Internal.Correction>
0.0033

> <Gold.Rescore>
     Score         DG    S(hbond)    S(metal)    S(lipo)     H(rot)  DE(clash)    DE(int)     intcor
     14.05     -14.45       0.70        0.00      98.26       1.91       0.19       0.21       ----

> <Gold.Chemscore.Fitness>
14.0539

> <Gold.Chemscore.DG>
-14.4524

> <Gold.Chemscore.ZeroCoef>
-5.4800

> <Gold.Chemscore.Hbond>
0.7049

> <Gold.Chemscore.Metal>
0.0000

> <Gold.Chemscore.Lipo>
98.2647

> <Gold.Chemscore.Internal_Hbond>
0.0000

> <Gold.Chemscore.DEClash>
0.1862

> <Gold.Chemscore.DEInternal>
0.2122

> <Gold.Chemscore.Rot>
1.9058

> <Gold.Chemscore.Internal.Correction>
   9.000000E+99

> <Gold.Chemscore.Hbonds>
donor molecule, donor type, donor heavy atom, donor atom, acceptor molecule, acceptor atom, score
      P1  H  7997  8009       L1    13  0.10

> <Gold.Chemscore.Hbond.Weighted>
-2.3542

> <Gold.Chemscore.Metal.Weighted>
-0.0000

> <Gold.Chemscore.Lipo.Weighted>
-11.4970

> <Gold.Chemscore.Internal_Hbond.Weighted>
0.0000

> <Gold.Chemscore.DEClash.Weighted>
0.1862

> <Gold.Chemscore.DEInternal.Weighted>
0.2122

> <Gold.Chemscore.Rot.Weighted>
4.8788

> <Gold.Chemscore.Internal.Correction.Weighted>
   9.000000E+99

> <Gold.Protein.RotatedTorsions>
[ 6907 6896 6895 6894 ] final   56.63 input  -60.11 | X-H torsion
[ 7974 7965 7964 7962 ] final  -65.28 input  175.53 | X-H torsion
[ 8008 7997 7996 7995 ] final  -98.48 input   59.86 | X-H torsion
[ 10167 10162 10161 10158 ] final  159.70 input  -65.29 | X-H torsion
[ 10718 10713 10712 10709 ] final   60.38 input   66.30 | X-H torsion
[ 10763 10752 10751 10750 ] final -164.50 input  -60.55 | X-H torsion
[ 11005 11000 10999 10996 ] final  174.99 input  -57.11 | X-H torsion

> <Gold.Protein.ActiveResidues>
 VAL166  LYS551  ARG553  GLY616  TRP617  ASP618  TYR619  PRO620  LYS621  CYS622 
 ASP623  PHE694  ASN695  SER759  ASP760  ASP761  ALA762  ILE779  LEU786  VAL792 
 PHE793  MET794  SER795  GLU796  ALA797  LYS798  CYS799  TRP800  GLU811  SER814 

> <Gold.Protein.RotatedAtoms>
  152.3654  134.6812  160.0193 H   0  0  0  0  0  0  0  0  0  0  0  0  # atno 6907 bound_to 6896
  151.7121  133.3307  159.3301 H   0  0  0  0  0  0  0  0  0  0  0  0  # atno 6908 bound_to 6896
  150.7634  134.6457  159.6305 H   0  0  0  0  0  0  0  0  0  0  0  0  # atno 6909 bound_to 6896
  145.7562  140.8884  143.0454 H   0  0  0  0  0  0  0  0  0  0  0  0  # atno 7974 bound_to 7965
  154.8018  140.0455  157.1278 H   0  0  0  0  0  0  0  0  0  0  0  0  # atno 8008 bound_to 7997
  154.9469  140.3060  155.5073 H   0  0  0  0  0  0  0  0  0  0  0  0  # atno 8009 bound_to 7997
  156.2962  140.2295  156.4544 H   0  0  0  0  0  0  0  0  0  0  0  0  # atno 8010 bound_to 7997
  139.4834  144.4705  151.8583 H   0  0  0  0  0  0  0  0  0  0  0  0  # atno 10167 bound_to 10162
  157.5748  130.8935  149.9329 H   0  0  0  0  0  0  0  0  0  0  0  0  # atno 10718 bound_to 10713
  154.7023  135.2990  154.9323 H   0  0  0  0  0  0  0  0  0  0  0  0  # atno 10763 bound_to 10752
  154.0251  135.6677  153.4780 H   0  0  0  0  0  0  0  0  0  0  0  0  # atno 10764 bound_to 10752
  153.0690  135.5071  154.8173 H   0  0  0  0  0  0  0  0  0  0  0  0  # atno 10765 bound_to 10752
  140.3574  134.7143  157.4308 H   0  0  0  0  0  0  0  0  0  0  0  0  # atno 11005 bound_to 11000
  144.6839  139.9659  143.7481 LP  0  0  0  0  0  0  0  0  0  0  0  0  # atno 17320 bound_to 7965
  146.0309  139.3334  143.0756 LP  0  0  0  0  0  0  0  0  0  0  0  0  # atno 17321 bound_to 7965
  140.4173  144.2289  150.5887 LP  0  0  0  0  0  0  0  0  0  0  0  0  # atno 17342 bound_to 10162
  140.4908  143.2348  151.8822 LP  0  0  0  0  0  0  0  0  0  0  0  0  # atno 17343 bound_to 10162
  156.0793  130.3675  150.0613 LP  0  0  0  0  0  0  0  0  0  0  0  0  # atno 17370 bound_to 10713
  156.8761  130.9540  151.3604 LP  0  0  0  0  0  0  0  0  0  0  0  0  # atno 17371 bound_to 10713
  140.0654  134.5936  155.8701 LP  0  0  0  0  0  0  0  0  0  0  0  0  # atno 17394 bound_to 11000
  141.1994  133.6607  156.5844 LP  0  0  0  0  0  0  0  0  0  0  0  0  # atno 17395 bound_to 11000

$$$$
