AV-unprocessed.smi:2324|AV-procd|sdf|9291|dock4
  -GOLD-   2272012513D 1   1.00000     0.00000
 Structure written by MMmdl.
 37 39  0  0  0  0  0  0  0  0  1 V2000
  150.3565  135.6800  156.1130 O   0  0  0  0  0  0  0  0  0  0  0  0
  149.8455  135.7658  154.9976 C   0  0  0  0  0  0  0  0  0  0  0  0
  149.5951  134.6613  154.2628 N   0  0  0  0  0  0  0  0  0  0  0  0
  149.8154  133.2779  154.5281 C   0  0  0  0  0  0  0  0  0  0  0  0
  149.1727  132.3962  153.6327 C   0  0  0  0  0  0  0  0  0  0  0  0
  149.3372  131.0132  153.8200 C   0  0  0  0  0  0  0  0  0  0  0  0
  150.1392  130.6010  154.8975 C   0  0  0  0  0  0  0  0  0  0  0  0
  150.7371  131.4784  155.7317 N   0  0  0  0  0  0  0  0  0  0  0  0
  150.5750  132.7925  155.5461 N   0  0  0  0  0  0  0  0  0  0  0  0
  149.5098  136.9422  154.4424 N   0  0  0  0  0  0  0  0  0  0  0  0
  149.6941  138.2525  155.0580 C   0  0  2  0  0  0  0  0  0  0  0  0
  149.1162  139.3424  154.1459 C   0  0  0  0  0  0  0  0  0  0  0  0
  149.4013  140.7377  154.7218 C   0  0  0  0  0  0  0  0  0  0  0  0
  150.8020  140.9194  154.9201 O   0  0  0  0  0  0  0  0  0  0  0  0
  151.4227  139.9780  155.7979 C   0  0  1  0  0  0  0  0  0  0  0  0
  151.0060  140.1904  157.2472 C   0  0  0  0  0  0  0  0  0  0  0  0
  151.4582  141.4153  158.0069 C   0  0  0  0  0  0  0  0  0  0  0  0
  152.0132  140.0574  158.3652 C   0  0  0  0  0  0  0  0  0  0  0  0
  151.1861  138.5383  155.3014 C   0  0  0  0  0  0  0  0  0  0  0  0
  149.1769  134.8491  153.3633 H   0  0  0  0  0  0  0  0  0  0  0  0
  148.5669  132.7679  152.8189 H   0  0  0  0  0  0  0  0  0  0  0  0
  148.8675  130.2964  153.1629 H   0  0  0  0  0  0  0  0  0  0  0  0
  150.3057  129.5522  155.0940 H   0  0  0  0  0  0  0  0  0  0  0  0
  149.0960  136.9264  153.5208 H   0  0  0  0  0  0  0  0  0  0  0  0
  149.1569  138.2764  156.0077 H   0  0  0  0  0  0  0  0  0  0  0  0
  149.5577  139.2681  153.1510 H   0  0  0  0  0  0  0  0  0  0  0  0
  148.0416  139.2028  154.0218 H   0  0  0  0  0  0  0  0  0  0  0  0
  149.0490  141.5023  154.0295 H   0  0  0  0  0  0  0  0  0  0  0  0
  148.8572  140.8919  155.6537 H   0  0  0  0  0  0  0  0  0  0  0  0
  152.4940  140.1743  155.7409 H   0  0  0  0  0  0  0  0  0  0  0  0
  150.0060  139.8347  157.4849 H   0  0  0  0  0  0  0  0  0  0  0  0
  152.1229  142.1110  157.4986 H   0  0  0  0  0  0  0  0  0  0  0  0
  150.7486  141.8678  158.6965 H   0  0  0  0  0  0  0  0  0  0  0  0
  151.6732  139.6025  159.2931 H   0  0  0  0  0  0  0  0  0  0  0  0
  153.0466  139.8491  158.0953 H   0  0  0  0  0  0  0  0  0  0  0  0
  151.6047  137.8242  156.0116 H   0  0  0  0  0  0  0  0  0  0  0  0
  151.7340  138.3976  154.3684 H   0  0  0  0  0  0  0  0  0  0  0  0
  1  2  2  0  0  0  0
  2  3  1  0  0  0  0
  2 10  1  0  0  0  0
  3  4  1  0  0  0  0
  3 20  1  0  0  0  0
  4  9  1  0  0  0  0
  4  5  2  0  0  0  0
  5  6  1  0  0  0  0
  5 21  1  0  0  0  0
  6  7  2  0  0  0  0
  6 22  1  0  0  0  0
  7  8  1  0  0  0  0
  7 23  1  0  0  0  0
  8  9  2  0  0  0  0
 10 11  1  0  0  0  0
 10 24  1  0  0  0  0
 11 19  1  0  0  0  0
 11 12  1  0  0  0  0
 11 25  1  0  0  0  0
 12 13  1  0  0  0  0
 12 26  1  0  0  0  0
 12 27  1  0  0  0  0
 13 14  1  0  0  0  0
 13 28  1  0  0  0  0
 13 29  1  0  0  0  0
 14 15  1  0  0  0  0
 15 16  1  0  0  0  0
 15 19  1  0  0  0  0
 15 30  1  0  0  0  0
 16 18  1  0  0  0  0
 16 17  1  0  0  0  0
 16 31  1  0  0  0  0
 17 18  1  0  0  0  0
 17 32  1  0  0  0  0
 17 33  1  0  0  0  0
 18 34  1  0  0  0  0
 18 35  1  0  0  0  0
 19 36  1  0  0  0  0
 19 37  1  0  0  0  0
M  END
> <s_m_source_file>
AV-unprocessed.smi

> <i_m_source_file_index>
2324

> <i_lp_mmshare_version>
43012

> <i_f3d_flags>
0

> <s_epik_input>
bjFuW2NIXVtjSF1bY0hdYzFbTkhdQyg9TylbTkhdW0NAQEhdMltDSDJdW0NIMl1PW0NASF0oW0NIMl0yKVtDSF0zW0NIMl1bQ0gyXTM=

> <s_epik_cmdline>
J2VwaWtfcHl0aG9uJywgJy1waCcsICc3LjAnLCAnLXRuJywgJzgnLCAnLW1hJywgJzIwMCcsICctbWV0YWxfYmluZGluZycsICctaW1hZScsICc8aW5maWxlLm1hZT4nLCAnLW9tYWUnLCAnPG91dGZpbGUubWFlPic=

> <r_lp_tautomer_probability>
1

> <r_epik_Ionization_Penalty>
0.00521499

> <r_epik_Ionization_Penalty_Charging>
0

> <r_epik_Ionization_Penalty_Neutral>
0.00521499

> <r_epik_State_Penalty>
-0

> <r_epik_Charging_Adjusted_Penalty>
0

> <i_epik_Tot_Q>
0

> <i_epik_Tot_abs_Q>
0

> <r_epik_Metal_State_Penalty>
-0

> <b_epik_Metal_Only>
0

> <s_lp_Force_Field>
OPLS_2005

> <r_lp_Energy>
28.1305

> <b_lp_Chiralities_Consistent>
1

> <s_lp_Variant>
AV-unprocessed.smi:2324-1

> <Gold.Version>
5.8.1

> <Gold.Id.Protein>
6NUR|6NUR_protein|mol2

> <Gold.PLP.Fitness>
38.3575

> <Gold.PLP.PLP>
-30.9186

> <Gold.PLP.part.hbond>
-2.8287

> <Gold.PLP.part.metal>
0.0000

> <Gold.PLP.part.buried>
-2.1160

> <Gold.PLP.part.nonpolar>
-25.6778

> <Gold.PLP.part.repulsive>
0.1763

> <Gold.PLP.ligand.clash>
0.0000

> <Gold.PLP.ligand.torsion>
0.6260

> <Gold.PLP.Chemscore.Hbond>
2.5376

> <Gold.PLP.Chemscore.CHOScore>
0.0000

> <Gold.PLP.Chemscore.Metal>
0.0000

> <Gold.Chemscore.Hbonds>
donor molecule, donor type, donor heavy atom, donor atom, acceptor molecule, acceptor atom, score
      L1  H     3    20       P1  7948  0.68
      L1  H    10    24       P1  7948  1.00
      P1  H  7989  7998       L1    14  0.77

> <Gold.PLP.Chemscore.Internal.Correction>
1.0781

> <Gold.Rescore>
     Score         DG    S(hbond)    S(metal)    S(lipo)     H(rot)  DE(clash)    DE(int)     intcor
     13.34     -15.29       1.85        0.00      58.27       1.25       0.00       1.95       ----

> <Gold.Chemscore.Fitness>
13.3395

> <Gold.Chemscore.DG>
-15.2945

> <Gold.Chemscore.ZeroCoef>
-5.4800

> <Gold.Chemscore.Hbond>
1.8537

> <Gold.Chemscore.Metal>
0.0000

> <Gold.Chemscore.Lipo>
58.2653

> <Gold.Chemscore.Internal_Hbond>
0.0000

> <Gold.Chemscore.DEClash>
0.0038

> <Gold.Chemscore.DEInternal>
1.9513

> <Gold.Chemscore.Rot>
1.2476

> <Gold.Chemscore.Internal.Correction>
   9.000000E+99

> <Gold.Chemscore.Hbonds>
donor molecule, donor type, donor heavy atom, donor atom, acceptor molecule, acceptor atom, score
      L1  H     3    20       P1  7948  0.08
      L1  H    10    24       P1  7948  0.94
      P1  H  7989  7998       L1    14  0.40

> <Gold.Chemscore.Hbond.Weighted>
-6.1913

> <Gold.Chemscore.Metal.Weighted>
-0.0000

> <Gold.Chemscore.Lipo.Weighted>
-6.8170

> <Gold.Chemscore.Internal_Hbond.Weighted>
0.0000

> <Gold.Chemscore.DEClash.Weighted>
0.0038

> <Gold.Chemscore.DEInternal.Weighted>
1.9513

> <Gold.Chemscore.Rot.Weighted>
3.1938

> <Gold.Chemscore.Internal.Correction.Weighted>
   9.000000E+99

> <Gold.Protein.RotatedTorsions>
[ 6907 6896 6895 6894 ] final -120.84 input  -60.11 | X-H torsion
[ 7974 7965 7964 7962 ] final  115.99 input  175.53 | X-H torsion
[ 8008 7997 7996 7995 ] final  113.28 input   59.86 | X-H torsion
[ 10167 10162 10161 10158 ] final  -55.75 input  -65.29 | X-H torsion
[ 10718 10713 10712 10709 ] final  -34.60 input   66.30 | X-H torsion
[ 10763 10752 10751 10750 ] final -157.25 input  -60.55 | X-H torsion
[ 11005 11000 10999 10996 ] final  -52.87 input  -57.11 | X-H torsion

> <Gold.Protein.ActiveResidues>
 VAL166  LYS551  ARG553  GLY616  TRP617  ASP618  TYR619  PRO620  LYS621  CYS622 
 ASP623  PHE694  ASN695  SER759  ASP760  ASP761  ALA762  ILE779  LEU786  VAL792 
 PHE793  MET794  SER795  GLU796  ALA797  LYS798  CYS799  TRP800  GLU811  SER814 

> <Gold.Protein.RotatedAtoms>
  150.8429  133.7907  159.3053 H   0  0  0  0  0  0  0  0  0  0  0  0  # atno 6907 bound_to 6896
  151.5603  135.1064  159.9980 H   0  0  0  0  0  0  0  0  0  0  0  0  # atno 6908 bound_to 6896
  152.4489  133.7547  159.6770 H   0  0  0  0  0  0  0  0  0  0  0  0  # atno 6909 bound_to 6896
  145.1852  139.3029  143.4397 H   0  0  0  0  0  0  0  0  0  0  0  0  # atno 7974 bound_to 7965
  156.2247  140.2983  156.0038 H   0  0  0  0  0  0  0  0  0  0  0  0  # atno 8008 bound_to 7997
  155.2387  140.0421  157.2989 H   0  0  0  0  0  0  0  0  0  0  0  0  # atno 8009 bound_to 7997
  154.5897  140.2398  155.7946 H   0  0  0  0  0  0  0  0  0  0  0  0  # atno 8010 bound_to 7997
  140.6357  143.2481  151.5125 H   0  0  0  0  0  0  0  0  0  0  0  0  # atno 10167 bound_to 10162
  156.3486  130.4305  149.7724 H   0  0  0  0  0  0  0  0  0  0  0  0  # atno 10718 bound_to 10713
  154.7651  135.3129  154.8302 H   0  0  0  0  0  0  0  0  0  0  0  0  # atno 10763 bound_to 10752
  153.9053  135.6811  153.4757 H   0  0  0  0  0  0  0  0  0  0  0  0  # atno 10764 bound_to 10752
  153.1256  135.4803  154.9199 H   0  0  0  0  0  0  0  0  0  0  0  0  # atno 10765 bound_to 10752
  141.0947  133.6626  156.4088 H   0  0  0  0  0  0  0  0  0  0  0  0  # atno 11005 bound_to 11000
  146.3446  140.2045  142.8589 LP  0  0  0  0  0  0  0  0  0  0  0  0  # atno 17320 bound_to 7965
  145.0096  140.8703  143.5232 LP  0  0  0  0  0  0  0  0  0  0  0  0  # atno 17321 bound_to 7965
  139.5567  144.2257  152.1624 LP  0  0  0  0  0  0  0  0  0  0  0  0  # atno 17342 bound_to 10162
  140.1513  144.5112  150.6686 LP  0  0  0  0  0  0  0  0  0  0  0  0  # atno 17343 bound_to 10162
  156.4933  130.8095  151.3103 LP  0  0  0  0  0  0  0  0  0  0  0  0  # atno 17370 bound_to 10713
  157.7458  130.9968  150.2794 LP  0  0  0  0  0  0  0  0  0  0  0  0  # atno 17371 bound_to 10713
  140.5169  134.6341  157.5304 LP  0  0  0  0  0  0  0  0  0  0  0  0  # atno 17394 bound_to 11000
  139.9780  134.7183  155.9912 LP  0  0  0  0  0  0  0  0  0  0  0  0  # atno 17395 bound_to 11000

$$$$
