AV-unprocessed.smi:160|AV-procd|sdf|1366|dock9
  -GOLD-   2262019 83D 1   1.00000     0.00000
 Structure written by MMmdl.
 28 29  0  0  0  0  0  0  0  0  2 V2000
  148.2306  137.3998  160.3654 N   0  5  0  0  0  0  0  0  0  0  0  0
  148.2873  137.4929  159.0187 C   0  0  0  0  0  0  0  0  0  0  0  0
  147.5140  136.9663  158.2191 O   0  0  0  0  0  0  0  0  0  0  0  0
  149.4251  138.3376  158.4970 C   0  0  0  0  0  0  0  0  0  0  0  0
  150.5651  138.5062  159.2334 N   0  0  0  0  0  0  0  0  0  0  0  0
  151.2450  139.2789  158.3969 C   0  0  0  0  0  0  0  0  0  0  0  0
  150.5952  139.5709  157.2662 N   0  0  0  0  0  0  0  0  0  0  0  0
  151.0449  140.3831  156.0861 C   0  0  1  0  0  0  0  0  0  0  0  0
  150.8837  139.5954  154.9475 O   0  0  0  0  0  0  0  0  0  0  0  0
  149.7583  140.0183  154.1744 C   0  0  1  0  0  0  0  0  0  0  0  0
  148.8309  138.8236  153.8944 C   0  0  0  0  0  0  0  0  0  0  0  0
  148.2249  138.9635  152.6269 O   0  0  0  0  0  0  0  0  0  0  0  0
  149.0818  141.1420  154.9794 C   0  0  2  0  0  0  0  0  0  0  0  0
  148.6342  142.1663  154.1130 O   0  0  0  0  0  0  0  0  0  0  0  0
  150.2015  141.6507  155.8759 C   0  0  1  0  0  0  0  0  0  0  0  0
  149.7016  142.2150  157.0747 O   0  0  0  0  0  0  0  0  0  0  0  0
  149.3908  138.9500  157.3100 N   0  0  0  0  0  0  0  0  0  0  0  0
  152.0974  140.5869  156.2860 H   0  0  0  0  0  0  0  0  0  0  0  0
  150.1458  140.4271  153.2391 H   0  0  0  0  0  0  0  0  0  0  0  0
  148.2492  140.7556  155.5695 H   0  0  0  0  0  0  0  0  0  0  0  0
  150.8221  142.3758  155.3470 H   0  0  0  0  0  0  0  0  0  0  0  0
  147.6904  136.6308  160.7795 H   0  0  0  0  0  0  0  0  0  0  0  0
  152.2398  139.6389  158.6135 H   0  0  0  0  0  0  0  0  0  0  0  0
  149.3666  137.8762  153.9545 H   0  0  0  0  0  0  0  0  0  0  0  0
  148.0306  138.7884  154.6342 H   0  0  0  0  0  0  0  0  0  0  0  0
  148.1820  138.1110  152.2215 H   0  0  0  0  0  0  0  0  0  0  0  0
  148.7611  142.9985  154.5421 H   0  0  0  0  0  0  0  0  0  0  0  0
  149.3256  143.0589  156.8776 H   0  0  0  0  0  0  0  0  0  0  0  0
  1  2  1  0  0  0  0
  1 22  1  0  0  0  0
  2  3  2  0  0  0  0
  2  4  1  0  0  0  0
  4 17  2  0  0  0  0
  4  5  1  0  0  0  0
  5  6  2  0  0  0  0
  6  7  1  0  0  0  0
  6 23  1  0  0  0  0
  7  8  1  0  0  0  0
  7 17  1  0  0  0  0
  8 18  1  0  0  0  0
  8 15  1  0  0  0  0
  8  9  1  0  0  0  0
  9 10  1  0  0  0  0
 10 19  1  0  0  0  0
 10 11  1  0  0  0  0
 10 13  1  0  0  0  0
 11 12  1  0  0  0  0
 11 24  1  0  0  0  0
 11 25  1  0  0  0  0
 12 26  1  0  0  0  0
 13 20  1  0  0  0  0
 13 14  1  0  0  0  0
 13 15  1  0  0  0  0
 14 27  1  0  0  0  0
 15 21  1  0  0  0  0
 15 16  1  0  0  0  0
 16 28  1  0  0  0  0
M  CHG  1   1  -1
M  END
> <s_m_source_file>
AV-unprocessed.smi

> <i_m_source_file_index>
160

> <i_lp_mmshare_version>
43012

> <i_f3d_flags>
0

> <s_epik_input>
W05IMl1DKD1PKWMxbltjSF1uKG4xKVtDQEBIXTJPW0NASF0oW0NIMl1bT0hdKVtDQEBIXShbT0hdKVtDQEhdMltPSF0=

> <s_epik_cmdline>
J2VwaWtfcHl0aG9uJywgJy1waCcsICc3LjAnLCAnLXRuJywgJzgnLCAnLW1hJywgJzIwMCcsICctbWV0YWxfYmluZGluZycsICctaW1hZScsICc8aW5maWxlLm1hZT4nLCAnLW9tYWUnLCAnPG91dGZpbGUubWFlPic=

> <r_lp_tautomer_probability>
1

> <r_epik_Ionization_Penalty>
6.6993

> <r_epik_Ionization_Penalty_Charging>
6.6993

> <r_epik_Ionization_Penalty_Neutral>
6.01698e-06

> <r_epik_State_Penalty>
6.69929

> <r_epik_Charging_Adjusted_Penalty>
13.3986

> <i_epik_Tot_Q>
-1

> <i_epik_Tot_abs_Q>
1

> <r_epik_Metal_State_Penalty>
2.62798

> <b_epik_Metal_Only>
1

> <s_epik_Chemistry_Notes>
This compound contains an acetal/aminal-like group ( X-CH(R)-Y where X, Y are N, S, or O) that may be acid/base labile, releasing an aldehyde.

> <s_lp_Force_Field>
OPLS_2005

> <r_lp_Energy>
43.6415

> <b_lp_Chiralities_Consistent>
1

> <s_lp_Variant>
AV-unprocessed.smi:160-24

> <Gold.Version>
5.8.1

> <Gold.Id.Protein>
6NUR|6NUR_protein|mol2

> <Gold.PLP.Fitness>
38.1822

> <Gold.PLP.PLP>
-23.2654

> <Gold.PLP.part.hbond>
-7.9448

> <Gold.PLP.part.metal>
0.0000

> <Gold.PLP.part.buried>
1.1424

> <Gold.PLP.part.nonpolar>
-16.1951

> <Gold.PLP.part.repulsive>
0.0526

> <Gold.PLP.ligand.clash>
0.0000

> <Gold.PLP.ligand.torsion>
0.8083

> <Gold.PLP.Chemscore.Hbond>
5.5070

> <Gold.PLP.Chemscore.CHOScore>
0.0000

> <Gold.PLP.Chemscore.Metal>
0.0000

> <Gold.Chemscore.Hbonds>
donor molecule, donor type, donor heavy atom, donor atom, acceptor molecule, acceptor atom, score
      L1  H    12    26       P1  7948  0.99
      L1  H    14    27       P1  8028  1.00
      L1  H    16    28       P1  8028  0.83
      P1  H  6931  6943       L1     1  1.22
      P1  H  6934  6947       L1     1  1.18
      P1  H  8011  8017       L1    14  0.24

> <Gold.PLP.Chemscore.Internal.Correction>
0.0126

> <Gold.Rescore>
     Score         DG    S(hbond)    S(metal)    S(lipo)     H(rot)  DE(clash)    DE(int)     intcor
      7.76      -9.37       3.25        0.00      28.82       4.04       0.99       0.62       ----

> <Gold.Chemscore.Fitness>
7.7554

> <Gold.Chemscore.DG>
-9.3673

> <Gold.Chemscore.ZeroCoef>
-5.4800

> <Gold.Chemscore.Hbond>
3.2509

> <Gold.Chemscore.Metal>
0.0000

> <Gold.Chemscore.Lipo>
28.8236

> <Gold.Chemscore.Internal_Hbond>
0.0000

> <Gold.Chemscore.DEClash>
0.9916

> <Gold.Chemscore.DEInternal>
0.6202

> <Gold.Chemscore.Rot>
4.0403

> <Gold.Chemscore.Internal.Correction>
   9.000000E+99

> <Gold.Chemscore.Hbonds>
donor molecule, donor type, donor heavy atom, donor atom, acceptor molecule, acceptor atom, score
      L1  H    12    26       P1  7948  0.89
      L1  H    14    27       P1  8028  0.93
      L1  H    16    28       P1  8028  0.78
      P1  H  6931  6943       L1     1  0.28
      P1  H  6934  6947       L1     1  0.12
      P1  H  8011  8017       L1    14  0.07

> <Gold.Chemscore.Hbond.Weighted>
-10.8580

> <Gold.Chemscore.Metal.Weighted>
-0.0000

> <Gold.Chemscore.Lipo.Weighted>
-3.3724

> <Gold.Chemscore.Internal_Hbond.Weighted>
0.0000

> <Gold.Chemscore.DEClash.Weighted>
0.9916

> <Gold.Chemscore.DEInternal.Weighted>
0.6202

> <Gold.Chemscore.Rot.Weighted>
10.3431

> <Gold.Chemscore.Internal.Correction.Weighted>
   9.000000E+99

> <Gold.Protein.RotatedTorsions>
[ 6907 6896 6895 6894 ] final  -73.70 input  -60.11 | X-H torsion
[ 7974 7965 7964 7962 ] final   11.90 input  175.53 | X-H torsion
[ 8008 7997 7996 7995 ] final  -81.01 input   59.86 | X-H torsion
[ 10167 10162 10161 10158 ] final  143.07 input  -65.29 | X-H torsion
[ 10718 10713 10712 10709 ] final   94.95 input   66.30 | X-H torsion
[ 10763 10752 10751 10750 ] final   66.58 input  -60.55 | X-H torsion
[ 11005 11000 10999 10996 ] final   98.41 input  -57.11 | X-H torsion

> <Gold.Protein.ActiveResidues>
 VAL166  LYS551  ARG553  GLY616  TRP617  ASP618  TYR619  PRO620  LYS621  CYS622 
 ASP623  PHE694  ASN695  SER759  ASP760  ASP761  ALA762  ILE779  LEU786  VAL792 
 PHE793  MET794  SER795  GLU796  ALA797  LYS798  CYS799  TRP800  GLU811  SER814 

> <Gold.Protein.RotatedAtoms>
  150.7120  134.4978  159.5546 H   0  0  0  0  0  0  0  0  0  0  0  0  # atno 6907 bound_to 6896
  152.2582  134.8059  160.0444 H   0  0  0  0  0  0  0  0  0  0  0  0  # atno 6908 bound_to 6896
  151.8782  133.3454  159.3794 H   0  0  0  0  0  0  0  0  0  0  0  0  # atno 6909 bound_to 6896
  146.2362  139.9417  142.8482 H   0  0  0  0  0  0  0  0  0  0  0  0  # atno 7974 bound_to 7965
  154.5940  140.0654  156.9278 H   0  0  0  0  0  0  0  0  0  0  0  0  # atno 8008 bound_to 7997
  155.2246  140.3333  155.4293 H   0  0  0  0  0  0  0  0  0  0  0  0  # atno 8009 bound_to 7997
  156.2275  140.1825  156.7311 H   0  0  0  0  0  0  0  0  0  0  0  0  # atno 8010 bound_to 7997
  139.4978  144.6065  151.6366 H   0  0  0  0  0  0  0  0  0  0  0  0  # atno 10167 bound_to 10162
  157.6943  131.0529  150.4265 H   0  0  0  0  0  0  0  0  0  0  0  0  # atno 10718 bound_to 10713
  153.0146  135.5315  154.6846 H   0  0  0  0  0  0  0  0  0  0  0  0  # atno 10763 bound_to 10752
  154.5997  135.2867  155.0551 H   0  0  0  0  0  0  0  0  0  0  0  0  # atno 10764 bound_to 10752
  154.1612  135.6547  153.5039 H   0  0  0  0  0  0  0  0  0  0  0  0  # atno 10765 bound_to 10752
  139.8772  134.9047  156.4452 H   0  0  0  0  0  0  0  0  0  0  0  0  # atno 11005 bound_to 11000
  145.1946  140.9827  143.4191 LP  0  0  0  0  0  0  0  0  0  0  0  0  # atno 17320 bound_to 7965
  144.9827  139.3768  143.6254 LP  0  0  0  0  0  0  0  0  0  0  0  0  # atno 17321 bound_to 7965
  140.5728  144.0079  150.6226 LP  0  0  0  0  0  0  0  0  0  0  0  0  # atno 17342 bound_to 10162
  140.3202  143.3142  152.0791 LP  0  0  0  0  0  0  0  0  0  0  0  0  # atno 17343 bound_to 10162
  156.4635  130.4037  149.6561 LP  0  0  0  0  0  0  0  0  0  0  0  0  # atno 17370 bound_to 10713
  156.3668  130.7510  151.2488 LP  0  0  0  0  0  0  0  0  0  0  0  0  # atno 17371 bound_to 10713
  140.8971  133.7806  155.9638 LP  0  0  0  0  0  0  0  0  0  0  0  0  # atno 17394 bound_to 11000
  140.8691  134.2748  157.5199 LP  0  0  0  0  0  0  0  0  0  0  0  0  # atno 17395 bound_to 11000

$$$$
