AV-unprocessed.smi:1198|AV-procd|sdf|5012|dock4
  -GOLD-   22720 4 23D 1   1.00000     0.00000
 Structure written by MMmdl.
 40 41  0  0  0  0  0  0  0  0  2 V2000
  150.6602  142.4047  157.3501 C   0  0  0  0  0  0  0  0  0  0  0  0
  151.2839  141.6596  156.3099 O   0  0  0  0  0  0  0  0  0  0  0  0
  150.5108  140.7814  155.5787 C   0  0  0  0  0  0  0  0  0  0  0  0
  149.1087  140.8956  155.6526 C   0  0  0  0  0  0  0  0  0  0  0  0
  148.3160  140.0033  154.9070 C   0  0  0  0  0  0  0  0  0  0  0  0
  148.9429  139.0195  154.1163 C   0  0  0  0  0  0  0  0  0  0  0  0
  148.1100  138.1468  153.3643 N   0  0  0  0  0  0  0  0  0  0  0  0
  146.7711  138.0311  153.3851 C   0  0  0  0  0  0  0  0  0  0  0  0
  146.0047  138.7005  154.0770 O   0  0  0  0  0  0  0  0  0  0  0  0
  146.3558  137.0840  152.5323 N   0  0  0  0  0  0  0  0  0  0  0  0
  144.9633  136.7099  152.3091 C   0  0  0  0  0  0  0  0  0  0  0  0
  144.8205  135.2408  151.8660 C   0  0  2  0  0  0  0  0  0  0  0  0
  146.0863  134.3977  152.0114 C   0  0  0  0  0  0  0  0  0  0  0  0
  145.8070  133.2202  151.0811 C   0  0  0  0  0  0  0  0  0  0  0  0
  145.0494  133.7868  149.9442 N   0  3  1  0  0  0  0  0  0  0  0  0
  144.0866  132.8475  149.3317 C   0  0  0  0  0  0  0  0  0  0  0  0
  144.4550  135.0712  150.3850 C   0  0  0  0  0  0  0  0  0  0  0  0
  150.3591  138.9919  154.1013 C   0  0  0  0  0  0  0  0  0  0  0  0
  151.1252  139.8460  154.8133 N   0  0  0  0  0  0  0  0  0  0  0  0
  151.4024  143.0397  157.8335 H   0  0  0  0  0  0  0  0  0  0  0  0
  150.2392  141.7492  158.1138 H   0  0  0  0  0  0  0  0  0  0  0  0
  149.8740  143.0526  156.9600 H   0  0  0  0  0  0  0  0  0  0  0  0
  148.6499  141.6550  156.2683 H   0  0  0  0  0  0  0  0  0  0  0  0
  147.2387  140.0746  154.9463 H   0  0  0  0  0  0  0  0  0  0  0  0
  148.5922  137.5684  152.6923 H   0  0  0  0  0  0  0  0  0  0  0  0
  147.0528  136.5877  151.9963 H   0  0  0  0  0  0  0  0  0  0  0  0
  144.3816  136.8898  153.2149 H   0  0  0  0  0  0  0  0  0  0  0  0
  144.5562  137.3729  151.5455 H   0  0  0  0  0  0  0  0  0  0  0  0
  144.0347  134.7653  152.4560 H   0  0  0  0  0  0  0  0  0  0  0  0
  146.9568  134.9538  151.6604 H   0  0  0  0  0  0  0  0  0  0  0  0
  146.2745  134.0859  153.0395 H   0  0  0  0  0  0  0  0  0  0  0  0
  146.7182  132.7231  150.7471 H   0  0  0  0  0  0  0  0  0  0  0  0
  145.1963  132.4832  151.6058 H   0  0  0  0  0  0  0  0  0  0  0  0
  143.3025  132.5726  150.0385 H   0  0  0  0  0  0  0  0  0  0  0  0
  144.5935  131.9374  149.0086 H   0  0  0  0  0  0  0  0  0  0  0  0
  143.6173  133.3001  148.4577 H   0  0  0  0  0  0  0  0  0  0  0  0
  143.3748  135.1106  150.2355 H   0  0  0  0  0  0  0  0  0  0  0  0
  144.8967  135.8656  149.7822 H   0  0  0  0  0  0  0  0  0  0  0  0
  150.9146  138.2917  153.4978 H   0  0  0  0  0  0  0  0  0  0  0  0
  145.7284  134.0221  149.2340 H   0  0  0  0  0  0  0  0  0  0  0  0
  1  2  1  0  0  0  0
  1 20  1  0  0  0  0
  1 21  1  0  0  0  0
  1 22  1  0  0  0  0
  2  3  1  0  0  0  0
  3 19  1  0  0  0  0
  3  4  2  0  0  0  0
  4  5  1  0  0  0  0
  4 23  1  0  0  0  0
  5  6  2  0  0  0  0
  5 24  1  0  0  0  0
  6  7  1  0  0  0  0
  6 18  1  0  0  0  0
  7  8  1  0  0  0  0
  7 25  1  0  0  0  0
  8  9  2  0  0  0  0
  8 10  1  0  0  0  0
 10 11  1  0  0  0  0
 10 26  1  0  0  0  0
 11 12  1  0  0  0  0
 11 27  1  0  0  0  0
 11 28  1  0  0  0  0
 12 17  1  0  0  0  0
 12 13  1  0  0  0  0
 12 29  1  0  0  0  0
 13 14  1  0  0  0  0
 13 30  1  0  0  0  0
 13 31  1  0  0  0  0
 14 15  1  0  0  0  0
 14 32  1  0  0  0  0
 14 33  1  0  0  0  0
 15 16  1  0  0  0  0
 15 17  1  0  0  0  0
 15 40  1  0  0  0  0
 16 34  1  0  0  0  0
 16 35  1  0  0  0  0
 16 36  1  0  0  0  0
 17 37  1  0  0  0  0
 17 38  1  0  0  0  0
 18 19  2  0  0  0  0
 18 39  1  0  0  0  0
M  CHG  1  15   1
M  END
> <s_m_source_file>
AV-unprocessed.smi

> <i_m_source_file_index>
1198

> <i_lp_mmshare_version>
43012

> <i_f3d_flags>
0

> <s_epik_input>
W0NIM11PYzFbY0hdW2NIXWMoW2NIXW4xKVtOSF1DKD1PKVtOSF1bQ0gyXVtDQEBIXTJbQ0gyXVtDSDJdTihbQ0gzXSlbQ0gyXTI=

> <s_epik_cmdline>
J2VwaWtfcHl0aG9uJywgJy1waCcsICc3LjAnLCAnLXRuJywgJzgnLCAnLW1hJywgJzIwMCcsICctbWV0YWxfYmluZGluZycsICctaW1hZScsICc8aW5maWxlLm1hZT4nLCAnLW9tYWUnLCAnPG91dGZpbGUubWFlPic=

> <r_lp_tautomer_probability>
1

> <r_epik_Ionization_Penalty>
0.00131396

> <r_epik_Ionization_Penalty_Charging>
0.0012301

> <r_epik_Ionization_Penalty_Neutral>
8.38549e-05

> <r_epik_State_Penalty>
0.00081314

> <r_epik_Charging_Adjusted_Penalty>
0.00204324

> <i_epik_Tot_Q>
1

> <i_epik_Tot_abs_Q>
1

> <r_epik_Metal_State_Penalty>
-0

> <b_epik_Metal_Only>
0

> <s_lp_Force_Field>
OPLS_2005

> <r_lp_Energy>
29.8617

> <b_lp_Chiralities_Consistent>
1

> <s_lp_Variant>
AV-unprocessed.smi:1198-3

> <Gold.Version>
5.8.1

> <Gold.Id.Protein>
6NUR|6NUR_protein|mol2

> <Gold.PLP.Fitness>
41.3391

> <Gold.PLP.PLP>
-32.0871

> <Gold.PLP.part.hbond>
-4.2871

> <Gold.PLP.part.metal>
0.0000

> <Gold.PLP.part.buried>
-2.0908

> <Gold.PLP.part.nonpolar>
-24.5668

> <Gold.PLP.part.repulsive>
0.4096

> <Gold.PLP.ligand.clash>
0.0151

> <Gold.PLP.ligand.torsion>
1.0705

> <Gold.PLP.Chemscore.Hbond>
3.7960

> <Gold.PLP.Chemscore.CHOScore>
0.0000

> <Gold.PLP.Chemscore.Metal>
0.0000

> <Gold.Chemscore.Hbonds>
donor molecule, donor type, donor heavy atom, donor atom, acceptor molecule, acceptor atom, score
      L1  H     7    25       P1  7948  1.00
      L1  H    10    26       P1  7948  0.90
      L1  H    15    40       P1  7921  1.00
      P1  H  7989  7998       L1    19  0.86

> <Gold.PLP.Chemscore.Internal.Correction>
0.0201

> <Gold.Rescore>
     Score         DG    S(hbond)    S(metal)    S(lipo)     H(rot)  DE(clash)    DE(int)     intcor
     16.84     -19.49       2.89        0.00      70.38       1.51       0.11       2.55       ----

> <Gold.Chemscore.Fitness>
16.8356

> <Gold.Chemscore.DG>
-19.4941

> <Gold.Chemscore.ZeroCoef>
-5.4800

> <Gold.Chemscore.Hbond>
2.8917

> <Gold.Chemscore.Metal>
0.0000

> <Gold.Chemscore.Lipo>
70.3757

> <Gold.Chemscore.Internal_Hbond>
0.0000

> <Gold.Chemscore.DEClash>
0.1086

> <Gold.Chemscore.DEInternal>
2.5499

> <Gold.Chemscore.Rot>
1.5149

> <Gold.Chemscore.Internal.Correction>
   9.000000E+99

> <Gold.Chemscore.Hbonds>
donor molecule, donor type, donor heavy atom, donor atom, acceptor molecule, acceptor atom, score
      L1  H     7    25       P1  7948  0.98
      L1  H    10    26       P1  7948  0.88
      L1  H    15    40       P1  7921  0.48
      P1  H  7989  7998       L1    19  0.04

> <Gold.Chemscore.Hbond.Weighted>
-9.6583

> <Gold.Chemscore.Metal.Weighted>
-0.0000

> <Gold.Chemscore.Lipo.Weighted>
-8.2340

> <Gold.Chemscore.Internal_Hbond.Weighted>
0.0000

> <Gold.Chemscore.DEClash.Weighted>
0.1086

> <Gold.Chemscore.DEInternal.Weighted>
2.5499

> <Gold.Chemscore.Rot.Weighted>
3.8781

> <Gold.Chemscore.Internal.Correction.Weighted>
   9.000000E+99

> <Gold.Protein.RotatedTorsions>
[ 6907 6896 6895 6894 ] final -127.44 input  -60.11 | X-H torsion
[ 7974 7965 7964 7962 ] final -118.32 input  175.53 | X-H torsion
[ 8008 7997 7996 7995 ] final -138.01 input   59.86 | X-H torsion
[ 10167 10162 10161 10158 ] final  -49.68 input  -65.29 | X-H torsion
[ 10718 10713 10712 10709 ] final   54.70 input   66.30 | X-H torsion
[ 10763 10752 10751 10750 ] final  -34.10 input  -60.55 | X-H torsion
[ 11005 11000 10999 10996 ] final   87.09 input  -57.11 | X-H torsion

> <Gold.Protein.ActiveResidues>
 VAL166  LYS551  ARG553  GLY616  TRP617  ASP618  TYR619  PRO620  LYS621  CYS622 
 ASP623  PHE694  ASN695  SER759  ASP760  ASP761  ALA762  ILE779  LEU786  VAL792 
 PHE793  MET794  SER795  GLU796  ALA797  LYS798  CYS799  TRP800  GLU811  SER814 

> <Gold.Protein.RotatedAtoms>
  150.9073  133.7042  159.2863 H   0  0  0  0  0  0  0  0  0  0  0  0  # atno 6907 bound_to 6896
  151.4540  135.1031  159.9715 H   0  0  0  0  0  0  0  0  0  0  0  0  # atno 6908 bound_to 6896
  152.4910  133.8452  159.7228 H   0  0  0  0  0  0  0  0  0  0  0  0  # atno 6909 bound_to 6896
  145.0752  140.8387  143.4072 H   0  0  0  0  0  0  0  0  0  0  0  0  # atno 7974 bound_to 7965
  155.4213  140.0519  157.3025 H   0  0  0  0  0  0  0  0  0  0  0  0  # atno 8008 bound_to 7997
  154.4901  140.2116  155.9526 H   0  0  0  0  0  0  0  0  0  0  0  0  # atno 8009 bound_to 7997
  156.1330  140.3168  155.8383 H   0  0  0  0  0  0  0  0  0  0  0  0  # atno 8010 bound_to 7997
  140.6674  143.2688  151.4250 H   0  0  0  0  0  0  0  0  0  0  0  0  # atno 10167 bound_to 10162
  157.5280  130.8611  149.8648 H   0  0  0  0  0  0  0  0  0  0  0  0  # atno 10718 bound_to 10713
  153.8411  135.6857  153.4803 H   0  0  0  0  0  0  0  0  0  0  0  0  # atno 10763 bound_to 10752
  153.1453  135.4640  154.9555 H   0  0  0  0  0  0  0  0  0  0  0  0  # atno 10764 bound_to 10752
  154.7845  135.3280  154.7864 H   0  0  0  0  0  0  0  0  0  0  0  0  # atno 10765 bound_to 10752
  139.8928  134.8399  156.2812 H   0  0  0  0  0  0  0  0  0  0  0  0  # atno 11005 bound_to 11000
  145.1244  139.2672  143.5571 LP  0  0  0  0  0  0  0  0  0  0  0  0  # atno 17320 bound_to 7965
  146.3530  140.0877  142.8614 LP  0  0  0  0  0  0  0  0  0  0  0  0  # atno 17321 bound_to 7965
  139.5928  144.1463  152.2108 LP  0  0  0  0  0  0  0  0  0  0  0  0  # atno 17342 bound_to 10162
  140.0823  144.5690  150.7114 LP  0  0  0  0  0  0  0  0  0  0  0  0  # atno 17343 bound_to 10162
  156.0401  130.3741  150.1457 LP  0  0  0  0  0  0  0  0  0  0  0  0  # atno 17370 bound_to 10713
  156.9643  130.9814  151.3472 LP  0  0  0  0  0  0  0  0  0  0  0  0  # atno 17371 bound_to 10713
  141.0038  133.7136  156.1002 LP  0  0  0  0  0  0  0  0  0  0  0  0  # atno 17394 bound_to 11000
  140.7462  134.4095  157.5548 LP  0  0  0  0  0  0  0  0  0  0  0  0  # atno 17395 bound_to 11000

$$$$
