AV-unprocessed.smi:614|AV-procd|sdf|3068|dock7
  -GOLD-   2262023593D 1   1.00000     0.00000
 Structure written by MMmdl.
 44 45  0  0  0  0  0  0  0  0  1 V2000
  147.2150  136.9596  163.2810 C   0  0  0  0  0  0  0  0  0  0  0  0
  147.5624  136.3995  161.9927 N   0  0  0  0  0  0  0  0  0  0  0  0
  147.4417  135.0942  161.5602 C   0  0  0  0  0  0  0  0  0  0  0  0
  147.8926  135.0469  160.2713 C   0  0  0  0  0  0  0  0  0  0  0  0
  148.2702  136.3925  160.0068 C   0  0  0  0  0  0  0  0  0  0  0  0
  148.7928  136.7622  158.7411 N   0  0  0  0  0  0  0  0  0  0  0  0
  150.0654  137.0702  158.4373 C   0  0  0  0  0  0  0  0  0  0  0  0
  151.0069  137.0373  159.2297 O   0  0  0  0  0  0  0  0  0  0  0  0
  150.1785  137.4203  157.1449 N   0  0  0  0  0  0  0  0  0  0  0  0
  151.3763  137.8421  156.4018 C   0  0  1  0  0  0  0  0  0  0  0  0
  152.5758  136.9348  156.7785 C   0  0  0  0  0  0  0  0  0  0  0  0
  151.1089  137.6996  154.8745 C   0  0  0  0  0  0  0  0  0  0  0  0
  151.1040  136.3499  154.4542 O   0  0  0  0  0  0  0  0  0  0  0  0
  151.6753  139.3306  156.8028 C   0  0  0  0  0  0  0  0  0  0  0  0
  151.8672  139.5343  158.3309 C   0  0  0  0  0  0  0  0  0  0  0  0
  152.2154  140.9886  158.6859 C   0  0  0  0  0  0  0  0  0  0  0  0
  151.1501  141.9598  158.1633 C   0  0  0  0  0  0  0  0  0  0  0  0
  150.9583  141.7898  156.6514 C   0  0  0  0  0  0  0  0  0  0  0  0
  150.6091  140.3367  156.2913 C   0  0  0  0  0  0  0  0  0  0  0  0
  148.0730  137.2039  161.0369 N   0  0  0  0  0  0  0  0  0  0  0  0
  146.9770  136.1613  163.9846 H   0  0  0  0  0  0  0  0  0  0  0  0
  146.3474  137.6114  163.1758 H   0  0  0  0  0  0  0  0  0  0  0  0
  148.0525  137.5380  163.6727 H   0  0  0  0  0  0  0  0  0  0  0  0
  147.0484  134.3163  162.1980 H   0  0  0  0  0  0  0  0  0  0  0  0
  147.9415  134.1851  159.6220 H   0  0  0  0  0  0  0  0  0  0  0  0
  148.1217  136.8156  157.9893 H   0  0  0  0  0  0  0  0  0  0  0  0
  149.3282  137.4028  156.6017 H   0  0  0  0  0  0  0  0  0  0  0  0
  153.5151  137.3492  156.4111 H   0  0  0  0  0  0  0  0  0  0  0  0
  152.4825  135.9368  156.3502 H   0  0  0  0  0  0  0  0  0  0  0  0
  152.6709  136.8040  157.8560 H   0  0  0  0  0  0  0  0  0  0  0  0
  150.1447  138.1287  154.6022 H   0  0  0  0  0  0  0  0  0  0  0  0
  151.8511  138.2422  154.2890 H   0  0  0  0  0  0  0  0  0  0  0  0
  151.0061  136.3293  153.5145 H   0  0  0  0  0  0  0  0  0  0  0  0
  152.6215  139.6102  156.3368 H   0  0  0  0  0  0  0  0  0  0  0  0
  150.9636  139.2449  158.8685 H   0  0  0  0  0  0  0  0  0  0  0  0
  152.6665  138.8989  158.7093 H   0  0  0  0  0  0  0  0  0  0  0  0
  152.3131  141.0935  159.7668 H   0  0  0  0  0  0  0  0  0  0  0  0
  153.1867  141.2460  158.2616 H   0  0  0  0  0  0  0  0  0  0  0  0
  150.2047  141.7802  158.6765 H   0  0  0  0  0  0  0  0  0  0  0  0
  151.4371  142.9869  158.3905 H   0  0  0  0  0  0  0  0  0  0  0  0
  150.1717  142.4584  156.3006 H   0  0  0  0  0  0  0  0  0  0  0  0
  151.8700  142.0858  156.1309 H   0  0  0  0  0  0  0  0  0  0  0  0
  150.5092  140.2776  155.2083 H   0  0  0  0  0  0  0  0  0  0  0  0
  149.6301  140.0923  156.7047 H   0  0  0  0  0  0  0  0  0  0  0  0
  1  2  1  0  0  0  0
  1 21  1  0  0  0  0
  1 22  1  0  0  0  0
  1 23  1  0  0  0  0
  2 20  1  0  0  0  0
  2  3  1  0  0  0  0
  3  4  2  0  0  0  0
  3 24  1  0  0  0  0
  4  5  1  0  0  0  0
  4 25  1  0  0  0  0
  5  6  1  0  0  0  0
  5 20  2  0  0  0  0
  6  7  1  0  0  0  0
  6 26  1  0  0  0  0
  7  8  2  0  0  0  0
  7  9  1  0  0  0  0
  9 10  1  0  0  0  0
  9 27  1  0  0  0  0
 10 11  1  0  0  0  0
 10 12  1  0  0  0  0
 10 14  1  0  0  0  0
 11 28  1  0  0  0  0
 11 29  1  0  0  0  0
 11 30  1  0  0  0  0
 12 13  1  0  0  0  0
 12 31  1  0  0  0  0
 12 32  1  0  0  0  0
 13 33  1  0  0  0  0
 14 19  1  0  0  0  0
 14 15  1  0  0  0  0
 14 34  1  0  0  0  0
 15 16  1  0  0  0  0
 15 35  1  0  0  0  0
 15 36  1  0  0  0  0
 16 17  1  0  0  0  0
 16 37  1  0  0  0  0
 16 38  1  0  0  0  0
 17 18  1  0  0  0  0
 17 39  1  0  0  0  0
 17 40  1  0  0  0  0
 18 19  1  0  0  0  0
 18 41  1  0  0  0  0
 18 42  1  0  0  0  0
 19 43  1  0  0  0  0
 19 44  1  0  0  0  0
M  END
> <s_m_source_file>
AV-unprocessed.smi

> <i_m_source_file_index>
614

> <i_lp_mmshare_version>
43012

> <i_f3d_flags>
0

> <s_epik_input>
W0NIM11uMVtjSF1bY0hdYyhuMSlbTkhdQyg9TylbTkhdW0NAQF0oW0NIM10pKFtDSDJdW09IXSlbQ0hdMltDSDJdW0NIMl1bQ0gyXVtDSDJdW0NIMl0y

> <s_epik_cmdline>
J2VwaWtfcHl0aG9uJywgJy1waCcsICc3LjAnLCAnLXRuJywgJzgnLCAnLW1hJywgJzIwMCcsICctbWV0YWxfYmluZGluZycsICctaW1hZScsICc8aW5maWxlLm1hZT4nLCAnLW9tYWUnLCAnPG91dGZpbGUubWFlPic=

> <r_lp_tautomer_probability>
1

> <r_epik_Ionization_Penalty>
3.66621e-05

> <r_epik_Ionization_Penalty_Charging>
0

> <r_epik_Ionization_Penalty_Neutral>
3.66621e-05

> <r_epik_State_Penalty>
-0

> <r_epik_Charging_Adjusted_Penalty>
0

> <i_epik_Tot_Q>
0

> <i_epik_Tot_abs_Q>
0

> <r_epik_Metal_State_Penalty>
-0

> <b_epik_Metal_Only>
0

> <s_lp_Force_Field>
OPLS_2005

> <r_lp_Energy>
18.5246

> <b_lp_Chiralities_Consistent>
1

> <s_lp_Variant>
AV-unprocessed.smi:614-1

> <Gold.Version>
5.8.1

> <Gold.Id.Protein>
6NUR|6NUR_protein|mol2

> <Gold.PLP.Fitness>
45.7126

> <Gold.PLP.PLP>
-34.3557

> <Gold.PLP.part.hbond>
-5.0846

> <Gold.PLP.part.metal>
0.0000

> <Gold.PLP.part.buried>
-4.1379

> <Gold.PLP.part.nonpolar>
-26.0457

> <Gold.PLP.part.repulsive>
0.1664

> <Gold.PLP.ligand.clash>
0.0000

> <Gold.PLP.ligand.torsion>
1.2148

> <Gold.PLP.Chemscore.Hbond>
4.5875

> <Gold.PLP.Chemscore.CHOScore>
0.0000

> <Gold.PLP.Chemscore.Metal>
0.0000

> <Gold.Chemscore.Hbonds>
donor molecule, donor type, donor heavy atom, donor atom, acceptor molecule, acceptor atom, score
      L1  H    13    33       P1  7949  0.90
      P1  H  6896  6907       L1     8  0.99
      P1  H  6931  6943       L1    20  0.96
      P1  H  6934  6947       L1    20  0.69
      P1  H 10752 10765       L1    13  1.00

> <Gold.PLP.Chemscore.Internal.Correction>
0.0240

> <Gold.Rescore>
     Score         DG    S(hbond)    S(metal)    S(lipo)     H(rot)  DE(clash)    DE(int)     intcor
     16.15     -20.40       3.39        0.00      76.04       2.07       0.00       4.25       ----

> <Gold.Chemscore.Fitness>
16.1516

> <Gold.Chemscore.DG>
-20.4007

> <Gold.Chemscore.ZeroCoef>
-5.4800

> <Gold.Chemscore.Hbond>
3.3908

> <Gold.Chemscore.Metal>
0.0000

> <Gold.Chemscore.Lipo>
76.0434

> <Gold.Chemscore.Internal_Hbond>
0.0000

> <Gold.Chemscore.DEClash>
0.0038

> <Gold.Chemscore.DEInternal>
4.2453

> <Gold.Chemscore.Rot>
2.0710

> <Gold.Chemscore.Internal.Correction>
   9.000000E+99

> <Gold.Chemscore.Hbonds>
donor molecule, donor type, donor heavy atom, donor atom, acceptor molecule, acceptor atom, score
      L1  H    13    33       P1  7949  0.19
      P1  H  6896  6907       L1     8  0.69
      P1  H  6931  6943       L1    20  0.37
      P1  H  6934  6947       L1    20  0.58
      P1  H 10752 10765       L1    13  0.18

> <Gold.Chemscore.Hbond.Weighted>
-11.3253

> <Gold.Chemscore.Metal.Weighted>
-0.0000

> <Gold.Chemscore.Lipo.Weighted>
-8.8971

> <Gold.Chemscore.Internal_Hbond.Weighted>
0.0000

> <Gold.Chemscore.DEClash.Weighted>
0.0038

> <Gold.Chemscore.DEInternal.Weighted>
4.2453

> <Gold.Chemscore.Rot.Weighted>
5.3017

> <Gold.Chemscore.Internal.Correction.Weighted>
   9.000000E+99

> <Gold.Protein.RotatedTorsions>
[ 6907 6896 6895 6894 ] final  -17.29 input  -60.11 | X-H torsion
[ 7974 7965 7964 7962 ] final  -15.61 input  175.53 | X-H torsion
[ 8008 7997 7996 7995 ] final  -85.02 input   59.86 | X-H torsion
[ 10167 10162 10161 10158 ] final -126.02 input  -65.29 | X-H torsion
[ 10718 10713 10712 10709 ] final  -44.18 input   66.30 | X-H torsion
[ 10763 10752 10751 10750 ] final -176.45 input  -60.55 | X-H torsion
[ 11005 11000 10999 10996 ] final -117.86 input  -57.11 | X-H torsion

> <Gold.Protein.ActiveResidues>
 VAL166  LYS551  ARG553  GLY616  TRP617  ASP618  TYR619  PRO620  LYS621  CYS622 
 ASP623  PHE694  ASN695  SER759  ASP760  ASP761  ALA762  ILE779  LEU786  VAL792 
 PHE793  MET794  SER795  GLU796  ALA797  LYS798  CYS799  TRP800  GLU811  SER814 

> <Gold.Protein.RotatedAtoms>
  151.2956  135.0754  159.9219 H   0  0  0  0  0  0  0  0  0  0  0  0  # atno 6907 bound_to 6896
  152.5308  133.9886  159.7850 H   0  0  0  0  0  0  0  0  0  0  0  0  # atno 6908 bound_to 6896
  151.0164  133.5866  159.2707 H   0  0  0  0  0  0  0  0  0  0  0  0  # atno 6909 bound_to 6896
  146.2024  140.3517  142.8418 H   0  0  0  0  0  0  0  0  0  0  0  0  # atno 7974 bound_to 7965
  154.6362  140.0597  156.9791 H   0  0  0  0  0  0  0  0  0  0  0  0  # atno 8008 bound_to 7997
  155.1589  140.3281  155.4397 H   0  0  0  0  0  0  0  0  0  0  0  0  # atno 8009 bound_to 7997
  156.2508  140.1934  156.6697 H   0  0  0  0  0  0  0  0  0  0  0  0  # atno 8010 bound_to 7997
  139.9759  143.5795  152.2396 H   0  0  0  0  0  0  0  0  0  0  0  0  # atno 10167 bound_to 10162
  156.2412  130.4180  149.8758 H   0  0  0  0  0  0  0  0  0  0  0  0  # atno 10718 bound_to 10713
  154.5722  135.2829  155.0816 H   0  0  0  0  0  0  0  0  0  0  0  0  # atno 10763 bound_to 10752
  154.2184  135.6395  153.5141 H   0  0  0  0  0  0  0  0  0  0  0  0  # atno 10764 bound_to 10752
  153.0061  135.5508  154.6349 H   0  0  0  0  0  0  0  0  0  0  0  0  # atno 10765 bound_to 10752
  141.0326  133.9958  157.3120 H   0  0  0  0  0  0  0  0  0  0  0  0  # atno 11005 bound_to 11000
  144.8714  140.7278  143.6044 LP  0  0  0  0  0  0  0  0  0  0  0  0  # atno 17320 bound_to 7965
  145.3437  139.1725  143.4472 LP  0  0  0  0  0  0  0  0  0  0  0  0  # atno 17321 bound_to 7965
  139.6446  144.7657  151.2270 LP  0  0  0  0  0  0  0  0  0  0  0  0  # atno 17342 bound_to 10162
  140.7506  143.6261  150.8467 LP  0  0  0  0  0  0  0  0  0  0  0  0  # atno 17343 bound_to 10162
  156.6339  130.8677  151.3501 LP  0  0  0  0  0  0  0  0  0  0  0  0  # atno 17370 bound_to 10713
  157.7176  130.9517  150.1314 LP  0  0  0  0  0  0  0  0  0  0  0  0  # atno 17371 bound_to 10713
  139.9218  135.0200  156.8092 LP  0  0  0  0  0  0  0  0  0  0  0  0  # atno 17394 bound_to 11000
  140.6380  133.9844  155.7693 LP  0  0  0  0  0  0  0  0  0  0  0  0  # atno 17395 bound_to 11000

$$$$
