AV-unprocessed.smi:3270|AV-procd|sdf|12514|dock9
  -GOLD-   2272018423D 1   1.00000     0.00000
 Structure written by MMmdl.
 39 40  0  0  0  0  0  0  0  0  2 V2000
  154.0495  141.7662  161.1157 C   0  0  0  0  0  0  0  0  0  0  0  0
  152.7266  141.8362  160.3255 C   0  0  2  0  0  0  0  0  0  0  0  0
  152.7134  140.9203  159.0880 C   0  0  0  0  0  0  0  0  0  0  0  0
  153.6636  140.1763  158.8413 O   0  0  0  0  0  0  0  0  0  0  0  0
  151.6128  140.9707  158.3198 N   0  0  0  0  0  0  0  0  0  0  0  0
  151.3991  140.1834  157.1116 C   0  0  0  0  0  0  0  0  0  0  0  0
  150.8052  141.0430  155.9794 C   0  0  0  0  0  0  0  0  0  0  0  0
  149.4678  140.5696  155.5429 N   0  3  0  0  0  0  0  0  0  0  0  0
  148.7179  141.6140  154.8041 C   0  0  0  0  0  0  0  0  0  0  0  0
  147.3213  141.1032  154.4122 C   0  0  0  0  0  0  0  0  0  0  0  0
  147.4490  139.9186  153.6363 O   0  0  0  0  0  0  0  0  0  0  0  0
  148.0853  138.8749  154.3626 C   0  0  0  0  0  0  0  0  0  0  0  0
  149.5071  139.3095  154.7589 C   0  0  0  0  0  0  0  0  0  0  0  0
  152.3870  143.2083  159.9636 N   0  0  0  0  0  0  0  0  0  0  0  0
  152.0965  144.2618  160.8070 C   0  0  0  0  0  0  0  0  0  0  0  0
  151.8138  145.3464  160.0273 C   0  0  0  0  0  0  0  0  0  0  0  0
  151.9519  144.8533  158.7002 C   0  0  0  0  0  0  0  0  0  0  0  0
  152.2885  143.5745  158.6645 N   0  0  0  0  0  0  0  0  0  0  0  0
  154.2578  140.7483  161.4471 H   0  0  0  0  0  0  0  0  0  0  0  0
  154.0039  142.3944  162.0057 H   0  0  0  0  0  0  0  0  0  0  0  0
  154.8993  142.1009  160.5191 H   0  0  0  0  0  0  0  0  0  0  0  0
  151.9383  141.4750  160.9876 H   0  0  0  0  0  0  0  0  0  0  0  0
  150.8770  141.6087  158.5874 H   0  0  0  0  0  0  0  0  0  0  0  0
  152.3654  139.7723  156.8220 H   0  0  0  0  0  0  0  0  0  0  0  0
  150.7513  139.3321  157.3284 H   0  0  0  0  0  0  0  0  0  0  0  0
  150.7103  142.0688  156.3391 H   0  0  0  0  0  0  0  0  0  0  0  0
  151.4823  141.0779  155.1245 H   0  0  0  0  0  0  0  0  0  0  0  0
  148.6194  142.5077  155.4216 H   0  0  0  0  0  0  0  0  0  0  0  0
  149.2746  141.9010  153.9106 H   0  0  0  0  0  0  0  0  0  0  0  0
  146.7127  140.9111  155.2974 H   0  0  0  0  0  0  0  0  0  0  0  0
  146.7976  141.8562  153.8229 H   0  0  0  0  0  0  0  0  0  0  0  0
  147.4962  138.6169  155.2442 H   0  0  0  0  0  0  0  0  0  0  0  0
  148.1264  137.9840  153.7356 H   0  0  0  0  0  0  0  0  0  0  0  0
  150.1145  139.4531  153.8638 H   0  0  0  0  0  0  0  0  0  0  0  0
  149.9734  138.5128  155.3372 H   0  0  0  0  0  0  0  0  0  0  0  0
  152.1152  144.1538  161.8815 H   0  0  0  0  0  0  0  0  0  0  0  0
  151.5472  146.3402  160.3548 H   0  0  0  0  0  0  0  0  0  0  0  0
  151.8156  145.3816  157.7681 H   0  0  0  0  0  0  0  0  0  0  0  0
  148.9384  140.3815  156.3825 H   0  0  0  0  0  0  0  0  0  0  0  0
  1  2  1  0  0  0  0
  1 19  1  0  0  0  0
  1 20  1  0  0  0  0
  1 21  1  0  0  0  0
  2  3  1  0  0  0  0
  2 14  1  0  0  0  0
  2 22  1  0  0  0  0
  3  4  2  0  0  0  0
  3  5  1  0  0  0  0
  5  6  1  0  0  0  0
  5 23  1  0  0  0  0
  6  7  1  0  0  0  0
  6 24  1  0  0  0  0
  6 25  1  0  0  0  0
  7  8  1  0  0  0  0
  7 26  1  0  0  0  0
  7 27  1  0  0  0  0
  8 13  1  0  0  0  0
  8  9  1  0  0  0  0
  8 39  1  0  0  0  0
  9 10  1  0  0  0  0
  9 28  1  0  0  0  0
  9 29  1  0  0  0  0
 10 11  1  0  0  0  0
 10 30  1  0  0  0  0
 10 31  1  0  0  0  0
 11 12  1  0  0  0  0
 12 13  1  0  0  0  0
 12 32  1  0  0  0  0
 12 33  1  0  0  0  0
 13 34  1  0  0  0  0
 13 35  1  0  0  0  0
 14 18  1  0  0  0  0
 14 15  1  0  0  0  0
 15 16  2  0  0  0  0
 15 36  1  0  0  0  0
 16 17  1  0  0  0  0
 16 37  1  0  0  0  0
 17 18  2  0  0  0  0
 17 38  1  0  0  0  0
M  CHG  1   8   1
M  END
> <s_m_source_file>
AV-unprocessed.smi

> <i_m_source_file_index>
3270

> <i_lp_mmshare_version>
43012

> <i_f3d_flags>
0

> <s_epik_input>
bjFbY0hdW2NIXVtjSF1uMVtDQEhdKFtDSDNdKUMoPU8pW05IXVtDSDJdW0NIMl1OMltDSDJdW0NIMl1PW0NIMl1bQ0gyXTI=

> <s_epik_cmdline>
J2VwaWtfcHl0aG9uJywgJy1waCcsICc3LjAnLCAnLXRuJywgJzgnLCAnLW1hJywgJzIwMCcsICctbWV0YWxfYmluZGluZycsICctaW1hZScsICc8aW5maWxlLm1hZT4nLCAnLW9tYWUnLCAnPG91dGZpbGUubWFlPic=

> <r_lp_tautomer_probability>
1

> <r_epik_Ionization_Penalty>
0.73255

> <r_epik_Ionization_Penalty_Charging>
0.732531

> <r_epik_Ionization_Penalty_Neutral>
1.96965e-05

> <r_epik_State_Penalty>
0.757939

> <r_epik_Charging_Adjusted_Penalty>
1.49047

> <i_epik_Tot_Q>
1

> <i_epik_Tot_abs_Q>
1

> <r_epik_Metal_State_Penalty>
0.757952

> <b_epik_Metal_Only>
0

> <s_lp_Force_Field>
OPLS_2005

> <r_lp_Energy>
19.6504

> <b_lp_Chiralities_Consistent>
1

> <s_lp_Variant>
AV-unprocessed.smi:3270-3

> <Gold.Version>
5.8.1

> <Gold.Id.Protein>
6NUR|6NUR_protein|mol2

> <Gold.PLP.Fitness>
43.8669

> <Gold.PLP.PLP>
-42.3633

> <Gold.PLP.part.hbond>
-1.0000

> <Gold.PLP.part.metal>
0.0000

> <Gold.PLP.part.buried>
-4.7166

> <Gold.PLP.part.nonpolar>
-37.1872

> <Gold.PLP.part.repulsive>
1.6049

> <Gold.PLP.ligand.clash>
0.0000

> <Gold.PLP.ligand.torsion>
0.7995

> <Gold.PLP.Chemscore.Hbond>
0.9920

> <Gold.PLP.Chemscore.CHOScore>
0.0000

> <Gold.PLP.Chemscore.Metal>
0.0000

> <Gold.Chemscore.Hbonds>
donor molecule, donor type, donor heavy atom, donor atom, acceptor molecule, acceptor atom, score
      P1  H  7997  8009       L1     4  0.96

> <Gold.PLP.Chemscore.Internal.Correction>
0.1265

> <Gold.Rescore>
     Score         DG    S(hbond)    S(metal)    S(lipo)     H(rot)  DE(clash)    DE(int)     intcor
     12.83     -15.14       0.98        0.00      96.31       1.91       0.06       2.26       ----

> <Gold.Chemscore.Fitness>
12.8255

> <Gold.Chemscore.DG>
-15.1435

> <Gold.Chemscore.ZeroCoef>
-5.4800

> <Gold.Chemscore.Hbond>
0.9841

> <Gold.Chemscore.Metal>
0.0000

> <Gold.Chemscore.Lipo>
96.3126

> <Gold.Chemscore.Internal_Hbond>
0.0000

> <Gold.Chemscore.DEClash>
0.0628

> <Gold.Chemscore.DEInternal>
2.2552

> <Gold.Chemscore.Rot>
1.9109

> <Gold.Chemscore.Internal.Correction>
   9.000000E+99

> <Gold.Chemscore.Hbonds>
donor molecule, donor type, donor heavy atom, donor atom, acceptor molecule, acceptor atom, score
      P1  H  7997  8009       L1     4  0.89

> <Gold.Chemscore.Hbond.Weighted>
-3.2868

> <Gold.Chemscore.Metal.Weighted>
-0.0000

> <Gold.Chemscore.Lipo.Weighted>
-11.2686

> <Gold.Chemscore.Internal_Hbond.Weighted>
0.0000

> <Gold.Chemscore.DEClash.Weighted>
0.0628

> <Gold.Chemscore.DEInternal.Weighted>
2.2552

> <Gold.Chemscore.Rot.Weighted>
4.8919

> <Gold.Chemscore.Internal.Correction.Weighted>
   9.000000E+99

> <Gold.Protein.RotatedTorsions>
[ 6907 6896 6895 6894 ] final  154.75 input  -60.11 | X-H torsion
[ 7974 7965 7964 7962 ] final   -1.05 input  175.53 | X-H torsion
[ 8008 7997 7996 7995 ] final  138.16 input   59.86 | X-H torsion
[ 10167 10162 10161 10158 ] final -140.50 input  -65.29 | X-H torsion
[ 10718 10713 10712 10709 ] final  141.50 input   66.30 | X-H torsion
[ 10763 10752 10751 10750 ] final -170.14 input  -60.55 | X-H torsion
[ 11005 11000 10999 10996 ] final   25.01 input  -57.11 | X-H torsion

> <Gold.Protein.ActiveResidues>
 VAL166  LYS551  ARG553  GLY616  TRP617  ASP618  TYR619  PRO620  LYS621  CYS622 
 ASP623  PHE694  ASN695  SER759  ASP760  ASP761  ALA762  ILE779  LEU786  VAL792 
 PHE793  MET794  SER795  GLU796  ALA797  LYS798  CYS799  TRP800  GLU811  SER814 

> <Gold.Protein.RotatedAtoms>
  152.0541  133.4032  159.4389 H   0  0  0  0  0  0  0  0  0  0  0  0  # atno 6907 bound_to 6896
  150.6869  134.3275  159.4822 H   0  0  0  0  0  0  0  0  0  0  0  0  # atno 6908 bound_to 6896
  152.1088  134.9289  160.0618 H   0  0  0  0  0  0  0  0  0  0  0  0  # atno 6909 bound_to 6896
  146.2421  140.1362  142.8336 H   0  0  0  0  0  0  0  0  0  0  0  0  # atno 7974 bound_to 7965
  156.2999  140.2401  156.4027 H   0  0  0  0  0  0  0  0  0  0  0  0  # atno 8008 bound_to 7997
  154.8512  140.0424  157.1625 H   0  0  0  0  0  0  0  0  0  0  0  0  # atno 8009 bound_to 7997
  154.8996  140.2975  155.5328 H   0  0  0  0  0  0  0  0  0  0  0  0  # atno 8010 bound_to 7997
  139.8276  143.7490  152.2666 H   0  0  0  0  0  0  0  0  0  0  0  0  # atno 10167 bound_to 10162
  157.3913  131.1005  151.0644 H   0  0  0  0  0  0  0  0  0  0  0  0  # atno 10718 bound_to 10713
  154.6448  135.2903  155.0060 H   0  0  0  0  0  0  0  0  0  0  0  0  # atno 10763 bound_to 10752
  154.1174  135.6553  153.4900 H   0  0  0  0  0  0  0  0  0  0  0  0  # atno 10764 bound_to 10752
  153.0345  135.5279  154.7330 H   0  0  0  0  0  0  0  0  0  0  0  0  # atno 10765 bound_to 10752
  140.3525  134.2213  155.7679 H   0  0  0  0  0  0  0  0  0  0  0  0  # atno 11005 bound_to 11000
  145.0285  140.8851  143.5124 LP  0  0  0  0  0  0  0  0  0  0  0  0  # atno 17320 bound_to 7965
  145.1422  139.2565  143.5484 LP  0  0  0  0  0  0  0  0  0  0  0  0  # atno 17321 bound_to 7965
  139.7688  144.7483  151.0255 LP  0  0  0  0  0  0  0  0  0  0  0  0  # atno 17342 bound_to 10162
  140.7809  143.4668  151.0201 LP  0  0  0  0  0  0  0  0  0  0  0  0  # atno 17343 bound_to 10162
  157.1677  130.6253  149.5630 LP  0  0  0  0  0  0  0  0  0  0  0  0  # atno 17370 bound_to 10713
  155.9799  130.4796  150.6741 LP  0  0  0  0  0  0  0  0  0  0  0  0  # atno 17371 bound_to 10713
  141.2008  133.7978  157.0472 LP  0  0  0  0  0  0  0  0  0  0  0  0  # atno 17394 bound_to 11000
  140.0692  134.9712  157.1438 LP  0  0  0  0  0  0  0  0  0  0  0  0  # atno 17395 bound_to 11000

$$$$
