AV-unprocessed.smi:229|AV-procd|sdf|1751|dock8
  -GOLD-   2262020273D 1   1.00000     0.00000
 Structure written by MMmdl.
 58 62  0  0  0  0  0  0  0  0  1 V2000
  147.4040  135.0039  159.8419 C   0  0  0  0  0  0  0  0  0  0  0  0
  146.9204  134.5599  158.4548 C   0  0  0  0  0  0  0  0  0  0  0  0
  147.9917  134.6773  157.3578 C   0  0  2  0  0  0  0  0  0  0  0  0
  148.3237  136.1372  156.9959 C   0  0  0  0  0  0  0  0  0  0  0  0
  149.2470  136.1742  155.8690 N   0  0  0  0  0  0  0  0  0  0  0  0
  149.8648  137.3659  155.6689 C   0  0  0  0  0  0  0  0  0  0  0  0
  150.0059  137.8552  154.4075 N   0  0  0  0  0  0  0  0  0  0  0  0
  150.6053  139.0314  154.2017 C   0  0  0  0  0  0  0  0  0  0  0  0
  151.1315  139.8680  155.0979 N   0  0  0  0  0  0  0  0  0  0  0  0
  151.0025  139.3790  156.3643 C   0  0  0  0  0  0  0  0  0  0  0  0
  150.3891  138.1491  156.7361 C   0  0  0  0  0  0  0  0  0  0  0  0
  150.4588  137.9851  158.1152 N   0  0  0  0  0  0  0  0  0  0  0  0
  151.0666  139.0613  158.5348 C   0  0  0  0  0  0  0  0  0  0  0  0
  151.4269  139.9520  157.5499 N   0  0  0  0  0  0  0  0  0  0  0  0
  152.1073  141.2216  157.7349 C   0  0  0  0  0  0  0  0  0  0  0  0
  151.1236  142.4101  157.7906 C   0  0  2  0  0  0  0  0  0  0  0  0
  150.7520  142.8147  156.4876 O   0  0  0  0  0  0  0  0  0  0  0  0
  151.6519  143.6403  158.5568 C   0  0  1  0  0  0  0  0  0  0  0  0
  150.6134  144.7415  158.7729 C   0  0  0  0  0  0  0  0  0  0  0  0
  151.2096  145.4917  159.9418 C   0  0  0  0  0  0  0  0  0  0  0  0
  151.7920  144.3578  160.7816 C   0  0  0  0  0  0  0  0  0  0  0  0
  152.0854  143.2997  159.8719 O   0  0  0  0  0  0  0  0  0  0  0  0
  148.7464  135.4538  154.7027 C   0  0  0  0  0  0  0  0  0  0  0  0
  148.3741  134.0007  155.0751 C   0  0  1  0  0  0  0  0  0  0  0  0
  147.6566  133.3082  153.9216 C   0  0  0  0  0  0  0  0  0  0  0  0
  148.7833  132.5910  153.1939 C   0  0  0  0  0  0  0  0  0  0  0  0
  149.5703  132.1005  154.2631 O   0  0  0  0  0  0  0  0  0  0  0  0
  149.6082  133.0918  155.2842 C   0  0  0  0  0  0  0  0  0  0  0  0
  147.4888  134.0090  156.1990 O   0  0  0  0  0  0  0  0  0  0  0  0
  146.6292  134.8387  160.5908 H   0  0  0  0  0  0  0  0  0  0  0  0
  147.6543  136.0644  159.8594 H   0  0  0  0  0  0  0  0  0  0  0  0
  148.2875  134.4440  160.1495 H   0  0  0  0  0  0  0  0  0  0  0  0
  146.5972  133.5204  158.5204 H   0  0  0  0  0  0  0  0  0  0  0  0
  146.0370  135.1340  158.1732 H   0  0  0  0  0  0  0  0  0  0  0  0
  148.8965  134.1767  157.7041 H   0  0  0  0  0  0  0  0  0  0  0  0
  147.4135  136.6735  156.7237 H   0  0  0  0  0  0  0  0  0  0  0  0
  148.7423  136.6471  157.8620 H   0  0  0  0  0  0  0  0  0  0  0  0
  150.6725  139.3476  153.1712 H   0  0  0  0  0  0  0  0  0  0  0  0
  151.2700  139.2371  159.5813 H   0  0  0  0  0  0  0  0  0  0  0  0
  152.6893  141.1611  158.6545 H   0  0  0  0  0  0  0  0  0  0  0  0
  152.8236  141.3518  156.9229 H   0  0  0  0  0  0  0  0  0  0  0  0
  150.2022  142.0808  158.2730 H   0  0  0  0  0  0  0  0  0  0  0  0
  150.2930  143.6388  156.5507 H   0  0  0  0  0  0  0  0  0  0  0  0
  152.4982  144.0797  158.0255 H   0  0  0  0  0  0  0  0  0  0  0  0
  150.4697  145.3685  157.8925 H   0  0  0  0  0  0  0  0  0  0  0  0
  149.6469  144.3236  159.0557 H   0  0  0  0  0  0  0  0  0  0  0  0
  152.0074  146.1497  159.5946 H   0  0  0  0  0  0  0  0  0  0  0  0
  150.4807  146.0943  160.4845 H   0  0  0  0  0  0  0  0  0  0  0  0
  152.6816  144.6677  161.3302 H   0  0  0  0  0  0  0  0  0  0  0  0
  151.0572  143.9986  161.5028 H   0  0  0  0  0  0  0  0  0  0  0  0
  147.8668  135.9766  154.3236 H   0  0  0  0  0  0  0  0  0  0  0  0
  149.4909  135.4574  153.9052 H   0  0  0  0  0  0  0  0  0  0  0  0
  146.9547  132.5665  154.3063 H   0  0  0  0  0  0  0  0  0  0  0  0
  147.0980  133.9892  153.2787 H   0  0  0  0  0  0  0  0  0  0  0  0
  148.4280  131.7851  152.5515 H   0  0  0  0  0  0  0  0  0  0  0  0
  149.3688  133.2860  152.5898 H   0  0  0  0  0  0  0  0  0  0  0  0
  150.5389  133.6557  155.2084 H   0  0  0  0  0  0  0  0  0  0  0  0
  149.6040  132.5899  156.2515 H   0  0  0  0  0  0  0  0  0  0  0  0
  1  2  1  0  0  0  0
  1 30  1  0  0  0  0
  1 31  1  0  0  0  0
  1 32  1  0  0  0  0
  2  3  1  0  0  0  0
  2 33  1  0  0  0  0
  2 34  1  0  0  0  0
  3 29  1  0  0  0  0
  3  4  1  0  0  0  0
  3 35  1  0  0  0  0
  4  5  1  0  0  0  0
  4 36  1  0  0  0  0
  4 37  1  0  0  0  0
  5  6  1  0  0  0  0
  5 23  1  0  0  0  0
  6 11  1  0  0  0  0
  6  7  2  0  0  0  0
  7  8  1  0  0  0  0
  8  9  2  0  0  0  0
  8 38  1  0  0  0  0
  9 10  1  0  0  0  0
 10 14  1  0  0  0  0
 10 11  2  0  0  0  0
 11 12  1  0  0  0  0
 12 13  2  0  0  0  0
 13 14  1  0  0  0  0
 13 39  1  0  0  0  0
 14 15  1  0  0  0  0
 15 16  1  0  0  0  0
 15 40  1  0  0  0  0
 15 41  1  0  0  0  0
 16 17  1  0  0  0  0
 16 18  1  0  0  0  0
 16 42  1  0  0  0  0
 17 43  1  0  0  0  0
 18 22  1  0  0  0  0
 18 19  1  0  0  0  0
 18 44  1  0  0  0  0
 19 20  1  0  0  0  0
 19 45  1  0  0  0  0
 19 46  1  0  0  0  0
 20 21  1  0  0  0  0
 20 47  1  0  0  0  0
 20 48  1  0  0  0  0
 21 22  1  0  0  0  0
 21 49  1  0  0  0  0
 21 50  1  0  0  0  0
 23 24  1  0  0  0  0
 23 51  1  0  0  0  0
 23 52  1  0  0  0  0
 24 28  1  0  0  0  0
 24 25  1  0  0  0  0
 24 29  1  0  0  0  0
 25 26  1  0  0  0  0
 25 53  1  0  0  0  0
 25 54  1  0  0  0  0
 26 27  1  0  0  0  0
 26 55  1  0  0  0  0
 26 56  1  0  0  0  0
 27 28  1  0  0  0  0
 28 57  1  0  0  0  0
 28 58  1  0  0  0  0
M  END
> <s_m_source_file>
AV-unprocessed.smi

> <i_m_source_file_index>
229

> <i_lp_mmshare_version>
43012

> <i_f3d_flags>
0

> <s_epik_input>
W0NIMl0xT1tDSDJdW0NIMl1bQ0BdMTJbQ0gyXU4oW0NIMl1bQ0BIXShPMilbQ0gyXVtDSDNdKWMobltjSF1uMyljKGMzNCluW2NIXW40W0NIMl1bQ0BIXShbT0hdKVtDQEBIXTVbQ0gyXVtDSDJdW0NIMl1PNQ==

> <s_epik_cmdline>
J2VwaWtfcHl0aG9uJywgJy1waCcsICc3LjAnLCAnLXRuJywgJzgnLCAnLW1hJywgJzIwMCcsICctbWV0YWxfYmluZGluZycsICctaW1hZScsICc8aW5maWxlLm1hZT4nLCAnLW9tYWUnLCAnPG91dGZpbGUubWFlPic=

> <r_lp_tautomer_probability>
1

> <r_epik_Ionization_Penalty>
0.00318402

> <r_epik_Ionization_Penalty_Charging>
0

> <r_epik_Ionization_Penalty_Neutral>
0.00318402

> <r_epik_State_Penalty>
0.00215642

> <r_epik_Charging_Adjusted_Penalty>
0.00215642

> <i_epik_Tot_Q>
0

> <i_epik_Tot_abs_Q>
0

> <r_epik_Metal_State_Penalty>
-0

> <b_epik_Metal_Only>
0

> <s_lp_Force_Field>
OPLS_2005

> <r_lp_Energy>
54.9877

> <b_lp_Chiralities_Consistent>
1

> <s_lp_Variant>
AV-unprocessed.smi:229-5

> <Gold.Version>
5.8.1

> <Gold.Id.Protein>
6NUR|6NUR_protein|mol2

> <Gold.PLP.Fitness>
44.2020

> <Gold.PLP.PLP>
-39.0052

> <Gold.PLP.part.hbond>
-2.0000

> <Gold.PLP.part.metal>
0.0000

> <Gold.PLP.part.buried>
-8.3347

> <Gold.PLP.part.nonpolar>
-29.0525

> <Gold.PLP.part.repulsive>
0.3083

> <Gold.PLP.ligand.clash>
0.0000

> <Gold.PLP.ligand.torsion>
0.9009

> <Gold.PLP.Chemscore.Hbond>
1.2140

> <Gold.PLP.Chemscore.CHOScore>
1.0000

> <Gold.PLP.Chemscore.Metal>
0.0000

> <Gold.Chemscore.Hbonds>
donor molecule, donor type, donor heavy atom, donor atom, acceptor molecule, acceptor atom, score
      L1  H    17    43       P1  8028  0.86
      P1  H  7989  7998       L1     9  0.15
      L1  C     8    38       P1  7957  1.00

> <Gold.PLP.Chemscore.Internal.Correction>
0.3566

> <Gold.Rescore>
     Score         DG    S(hbond)    S(metal)    S(lipo)     H(rot)  DE(clash)    DE(int)     intcor
     11.95     -13.78       0.92        0.00      98.60       2.46       0.07       1.76       ----

> <Gold.Chemscore.Fitness>
11.9496

> <Gold.Chemscore.DG>
-13.7813

> <Gold.Chemscore.ZeroCoef>
-5.4800

> <Gold.Chemscore.Hbond>
0.9163

> <Gold.Chemscore.Metal>
0.0000

> <Gold.Chemscore.Lipo>
98.6012

> <Gold.Chemscore.Internal_Hbond>
0.0000

> <Gold.Chemscore.DEClash>
0.0697

> <Gold.Chemscore.DEInternal>
1.7620

> <Gold.Chemscore.Rot>
2.4591

> <Gold.Chemscore.Internal.Correction>
   9.000000E+99

> <Gold.Chemscore.Hbonds>
donor molecule, donor type, donor heavy atom, donor atom, acceptor molecule, acceptor atom, score
      L1  H    17    43       P1  8028  0.83

> <Gold.Chemscore.Hbond.Weighted>
-3.0603

> <Gold.Chemscore.Metal.Weighted>
-0.0000

> <Gold.Chemscore.Lipo.Weighted>
-11.5363

> <Gold.Chemscore.Internal_Hbond.Weighted>
0.0000

> <Gold.Chemscore.DEClash.Weighted>
0.0697

> <Gold.Chemscore.DEInternal.Weighted>
1.7620

> <Gold.Chemscore.Rot.Weighted>
6.2953

> <Gold.Chemscore.Internal.Correction.Weighted>
   9.000000E+99

> <Gold.Protein.RotatedTorsions>
[ 6907 6896 6895 6894 ] final -104.98 input  -60.11 | X-H torsion
[ 7974 7965 7964 7962 ] final  -80.54 input  175.53 | X-H torsion
[ 8008 7997 7996 7995 ] final -175.93 input   59.86 | X-H torsion
[ 10167 10162 10161 10158 ] final  159.57 input  -65.29 | X-H torsion
[ 10718 10713 10712 10709 ] final  175.52 input   66.30 | X-H torsion
[ 10763 10752 10751 10750 ] final  102.52 input  -60.55 | X-H torsion
[ 11005 11000 10999 10996 ] final   36.09 input  -57.11 | X-H torsion

> <Gold.Protein.ActiveResidues>
 VAL166  LYS551  ARG553  GLY616  TRP617  ASP618  TYR619  PRO620  LYS621  CYS622 
 ASP623  PHE694  ASN695  SER759  ASP760  ASP761  ALA762  ILE779  LEU786  VAL792 
 PHE793  MET794  SER795  GLU796  ALA797  LYS798  CYS799  TRP800  GLU811  SER814 

> <Gold.Protein.RotatedAtoms>
  150.7314  134.0196  159.3696 H   0  0  0  0  0  0  0  0  0  0  0  0  # atno 6907 bound_to 6896
  151.8160  135.0664  160.0428 H   0  0  0  0  0  0  0  0  0  0  0  0  # atno 6908 bound_to 6896
  152.3038  133.5646  159.5672 H   0  0  0  0  0  0  0  0  0  0  0  0  # atno 6909 bound_to 6896
  145.5585  140.9486  143.1460 H   0  0  0  0  0  0  0  0  0  0  0  0  # atno 7974 bound_to 7965
  155.9886  140.1196  157.0660 H   0  0  0  0  0  0  0  0  0  0  0  0  # atno 8008 bound_to 7997
  154.4204  140.1130  156.5602 H   0  0  0  0  0  0  0  0  0  0  0  0  # atno 8009 bound_to 7997
  155.6374  140.3473  155.4705 H   0  0  0  0  0  0  0  0  0  0  0  0  # atno 8010 bound_to 7997
  139.4833  144.4717  151.8566 H   0  0  0  0  0  0  0  0  0  0  0  0  # atno 10167 bound_to 10162
  156.9337  130.9979  151.2982 H   0  0  0  0  0  0  0  0  0  0  0  0  # atno 10718 bound_to 10713
  153.3407  135.4007  155.1569 H   0  0  0  0  0  0  0  0  0  0  0  0  # atno 10763 bound_to 10752
  154.8643  135.3633  154.5350 H   0  0  0  0  0  0  0  0  0  0  0  0  # atno 10764 bound_to 10752
  153.5794  135.7077  153.5529 H   0  0  0  0  0  0  0  0  0  0  0  0  # atno 10765 bound_to 10752
  140.2360  134.3471  155.7944 H   0  0  0  0  0  0  0  0  0  0  0  0  # atno 11005 bound_to 11000
  144.7494  139.7233  143.7279 LP  0  0  0  0  0  0  0  0  0  0  0  0  # atno 17320 bound_to 7965
  146.1867  139.5087  142.9831 LP  0  0  0  0  0  0  0  0  0  0  0  0  # atno 17321 bound_to 7965
  140.4187  144.2273  150.5887 LP  0  0  0  0  0  0  0  0  0  0  0  0  # atno 17342 bound_to 10162
  140.4895  143.2352  151.8839 LP  0  0  0  0  0  0  0  0  0  0  0  0  # atno 17343 bound_to 10162
  157.5830  130.8390  149.8550 LP  0  0  0  0  0  0  0  0  0  0  0  0  # atno 17370 bound_to 10713
  156.0435  130.3733  150.1374 LP  0  0  0  0  0  0  0  0  0  0  0  0  # atno 17371 bound_to 10713
  141.2214  133.7272  156.8809 LP  0  0  0  0  0  0  0  0  0  0  0  0  # atno 17394 bound_to 11000
  140.1701  134.9105  157.2823 LP  0  0  0  0  0  0  0  0  0  0  0  0  # atno 17395 bound_to 11000

$$$$
