AV-unprocessed.smi:2832|AV-procd|sdf|10912|dock6
  -GOLD-   2272015363D 1   1.00000     0.00000
 Structure written by MMmdl.
 33 33  0  0  0  0  0  0  0  0  2 V2000
  149.9570  135.0190  155.9907 C   0  0  0  0  0  0  0  0  0  0  0  0
  150.8743  136.2441  156.0668 C   0  0  0  0  0  0  0  0  0  0  0  0
  150.2076  137.5123  155.4862 C   0  0  0  0  0  0  0  0  0  0  0  0
  151.0422  138.8330  155.5053 C   0  0  1  0  0  0  0  0  0  0  0  0
  150.2169  139.9625  154.8473 C   0  0  0  0  0  0  0  0  0  0  0  0
  151.4300  139.3064  156.8460 N   0  0  0  0  0  0  0  0  0  0  0  0
  150.8219  140.1516  157.6987 C   0  0  0  0  0  0  0  0  0  0  0  0
  149.8131  140.8056  157.4376 O   0  0  0  0  0  0  0  0  0  0  0  0
  151.4739  140.2940  159.0751 C   0  0  0  0  0  0  0  0  0  0  0  0
  152.0192  141.6270  159.2674 N   0  0  0  0  0  0  0  0  0  0  0  0
  151.9342  142.7181  158.4271 C   0  0  0  0  0  0  0  0  0  0  0  0
  152.6007  143.7473  159.0278 C   0  0  0  0  0  0  0  0  0  0  0  0
  153.0630  143.1828  160.2495 C   0  0  0  0  0  0  0  0  0  0  0  0
  152.7114  141.9152  160.3915 N   0  0  0  0  0  0  0  0  0  0  0  0
  152.3439  138.5837  154.7022 C   0  0  0  0  0  0  0  0  0  0  0  0
  152.4888  137.4694  154.1513 O   0  0  0  0  0  0  0  0  0  0  0  0
  153.1899  139.5061  154.6565 O   0  5  0  0  0  0  0  0  0  0  0  0
  150.4562  134.1357  156.3892 H   0  0  0  0  0  0  0  0  0  0  0  0
  149.6715  134.8043  154.9606 H   0  0  0  0  0  0  0  0  0  0  0  0
  149.0452  135.1750  156.5679 H   0  0  0  0  0  0  0  0  0  0  0  0
  151.1638  136.4007  157.1049 H   0  0  0  0  0  0  0  0  0  0  0  0
  151.7938  136.0210  155.5258 H   0  0  0  0  0  0  0  0  0  0  0  0
  149.9295  137.2938  154.4537 H   0  0  0  0  0  0  0  0  0  0  0  0
  149.2540  137.6775  155.9874 H   0  0  0  0  0  0  0  0  0  0  0  0
  149.8707  139.6876  153.8501 H   0  0  0  0  0  0  0  0  0  0  0  0
  150.7965  140.8824  154.7550 H   0  0  0  0  0  0  0  0  0  0  0  0
  149.3313  140.1954  155.4396 H   0  0  0  0  0  0  0  0  0  0  0  0
  152.2591  138.8565  157.2076 H   0  0  0  0  0  0  0  0  0  0  0  0
  150.7402  140.1023  159.8591 H   0  0  0  0  0  0  0  0  0  0  0  0
  152.2654  139.5509  159.1860 H   0  0  0  0  0  0  0  0  0  0  0  0
  151.4152  142.6685  157.4811 H   0  0  0  0  0  0  0  0  0  0  0  0
  152.7383  144.7501  158.6517 H   0  0  0  0  0  0  0  0  0  0  0  0
  153.6390  143.6531  161.0328 H   0  0  0  0  0  0  0  0  0  0  0  0
  1  2  1  0  0  0  0
  1 18  1  0  0  0  0
  1 19  1  0  0  0  0
  1 20  1  0  0  0  0
  2  3  1  0  0  0  0
  2 21  1  0  0  0  0
  2 22  1  0  0  0  0
  3  4  1  0  0  0  0
  3 23  1  0  0  0  0
  3 24  1  0  0  0  0
  4  5  1  0  0  0  0
  4  6  1  0  0  0  0
  4 15  1  0  0  0  0
  5 25  1  0  0  0  0
  5 26  1  0  0  0  0
  5 27  1  0  0  0  0
  6  7  1  0  0  0  0
  6 28  1  0  0  0  0
  7  8  2  0  0  0  0
  7  9  1  0  0  0  0
  9 10  1  0  0  0  0
  9 29  1  0  0  0  0
  9 30  1  0  0  0  0
 10 14  1  0  0  0  0
 10 11  1  0  0  0  0
 11 12  2  0  0  0  0
 11 31  1  0  0  0  0
 12 13  1  0  0  0  0
 12 32  1  0  0  0  0
 13 14  2  0  0  0  0
 13 33  1  0  0  0  0
 15 16  2  0  0  0  0
 15 17  1  0  0  0  0
M  CHG  1  17  -1
M  END
> <s_m_source_file>
AV-unprocessed.smi

> <i_m_source_file_index>
2832

> <i_lp_mmshare_version>
43012

> <i_f3d_flags>
0

> <s_epik_input>
W0NIM11bQ0gyXVtDSDJdW0NAXShbQ0gzXSkoQyg9TylbT0hdKVtOSF1DKD1PKVtDSDJdbjFbY0hdW2NIXVtjSF1uMQ==

> <s_epik_cmdline>
J2VwaWtfcHl0aG9uJywgJy1waCcsICc3LjAnLCAnLXRuJywgJzgnLCAnLW1hJywgJzIwMCcsICctbWV0YWxfYmluZGluZycsICctaW1hZScsICc8aW5maWxlLm1hZT4nLCAnLW9tYWUnLCAnPG91dGZpbGUubWFlPic=

> <r_lp_tautomer_probability>
1

> <r_epik_Ionization_Penalty>
0.000287256

> <r_epik_Ionization_Penalty_Charging>
0.00026921

> <r_epik_Ionization_Penalty_Neutral>
1.80463e-05

> <r_epik_State_Penalty>
-0

> <r_epik_Charging_Adjusted_Penalty>
0.00026921

> <i_epik_Tot_Q>
-1

> <i_epik_Tot_abs_Q>
1

> <r_epik_Metal_State_Penalty>
-0

> <b_epik_Metal_Only>
0

> <s_lp_Force_Field>
OPLS_2005

> <r_lp_Energy>
4.0175

> <b_lp_Chiralities_Consistent>
1

> <s_lp_Variant>
AV-unprocessed.smi:2832-1

> <Gold.Version>
5.8.1

> <Gold.Id.Protein>
6NUR|6NUR_protein|mol2

> <Gold.PLP.Fitness>
40.1079

> <Gold.PLP.PLP>
-30.9655

> <Gold.PLP.part.hbond>
-3.0000

> <Gold.PLP.part.metal>
0.0000

> <Gold.PLP.part.buried>
-4.9722

> <Gold.PLP.part.nonpolar>
-24.0151

> <Gold.PLP.part.repulsive>
0.2591

> <Gold.PLP.ligand.clash>
0.0000

> <Gold.PLP.ligand.torsion>
0.7105

> <Gold.PLP.Chemscore.Hbond>
3.5016

> <Gold.PLP.Chemscore.CHOScore>
0.0000

> <Gold.PLP.Chemscore.Metal>
0.0000

> <Gold.Chemscore.Hbonds>
donor molecule, donor type, donor heavy atom, donor atom, acceptor molecule, acceptor atom, score
      P1  H  7989  7998       L1    17  0.05
      P1  H  7997  8008       L1    17  2.00
      P1  H 10752 10765       L1    16  1.38

> <Gold.PLP.Chemscore.Internal.Correction>
0.0586

> <Gold.Rescore>
     Score         DG    S(hbond)    S(metal)    S(lipo)     H(rot)  DE(clash)    DE(int)     intcor
      9.16     -12.60       1.73        0.00      65.60       2.47       0.02       3.42       ----

> <Gold.Chemscore.Fitness>
9.1625

> <Gold.Chemscore.DG>
-12.5993

> <Gold.Chemscore.ZeroCoef>
-5.4800

> <Gold.Chemscore.Hbond>
1.7286

> <Gold.Chemscore.Metal>
0.0000

> <Gold.Chemscore.Lipo>
65.6023

> <Gold.Chemscore.Internal_Hbond>
0.0000

> <Gold.Chemscore.DEClash>
0.0186

> <Gold.Chemscore.DEInternal>
3.4182

> <Gold.Chemscore.Rot>
2.4726

> <Gold.Chemscore.Internal.Correction>
   9.000000E+99

> <Gold.Chemscore.Hbonds>
donor molecule, donor type, donor heavy atom, donor atom, acceptor molecule, acceptor atom, score
      P1  H  7997  8008       L1    17  1.00
      P1  H 10752 10765       L1    16  0.70

> <Gold.Chemscore.Hbond.Weighted>
-5.7736

> <Gold.Chemscore.Metal.Weighted>
-0.0000

> <Gold.Chemscore.Lipo.Weighted>
-7.6755

> <Gold.Chemscore.Internal_Hbond.Weighted>
0.0000

> <Gold.Chemscore.DEClash.Weighted>
0.0186

> <Gold.Chemscore.DEInternal.Weighted>
3.4182

> <Gold.Chemscore.Rot.Weighted>
6.3297

> <Gold.Chemscore.Internal.Correction.Weighted>
   9.000000E+99

> <Gold.Protein.RotatedTorsions>
[ 6907 6896 6895 6894 ] final  119.46 input  -60.11 | X-H torsion
[ 7974 7965 7964 7962 ] final   64.04 input  175.53 | X-H torsion
[ 8008 7997 7996 7995 ] final  -13.24 input   59.86 | X-H torsion
[ 10167 10162 10161 10158 ] final -166.18 input  -65.29 | X-H torsion
[ 10718 10713 10712 10709 ] final   35.12 input   66.30 | X-H torsion
[ 10763 10752 10751 10750 ] final  147.25 input  -60.55 | X-H torsion
[ 11005 11000 10999 10996 ] final   66.79 input  -57.11 | X-H torsion

> <Gold.Protein.ActiveResidues>
 VAL166  LYS551  ARG553  GLY616  TRP617  ASP618  TYR619  PRO620  LYS621  CYS622 
 ASP623  PHE694  ASN695  SER759  ASP760  ASP761  ALA762  ILE779  LEU786  VAL792 
 PHE793  MET794  SER795  GLU796  ALA797  LYS798  CYS799  TRP800  GLU811  SER814 

> <Gold.Protein.RotatedAtoms>
  152.4470  133.7556  159.6717 H   0  0  0  0  0  0  0  0  0  0  0  0  # atno 6907 bound_to 6896
  150.8372  133.7983  159.3081 H   0  0  0  0  0  0  0  0  0  0  0  0  # atno 6908 bound_to 6896
  151.5619  135.1068  160.0026 H   0  0  0  0  0  0  0  0  0  0  0  0  # atno 6909 bound_to 6896
  145.8548  139.3277  143.0854 H   0  0  0  0  0  0  0  0  0  0  0  0  # atno 7974 bound_to 7965
  154.5309  140.2255  155.8806 H   0  0  0  0  0  0  0  0  0  0  0  0  # atno 8008 bound_to 7997
  156.1763  140.3110  155.9029 H   0  0  0  0  0  0  0  0  0  0  0  0  # atno 8009 bound_to 7997
  155.3453  140.0452  157.3036 H   0  0  0  0  0  0  0  0  0  0  0  0  # atno 8010 bound_to 7997
  139.6132  144.0773  152.1862 H   0  0  0  0  0  0  0  0  0  0  0  0  # atno 10167 bound_to 10162
  157.3187  130.7437  149.6771 H   0  0  0  0  0  0  0  0  0  0  0  0  # atno 10718 bound_to 10713
  154.0352  135.2894  155.3363 H   0  0  0  0  0  0  0  0  0  0  0  0  # atno 10763 bound_to 10752
  154.6963  135.5206  153.8467 H   0  0  0  0  0  0  0  0  0  0  0  0  # atno 10764 bound_to 10752
  153.0623  135.6618  154.0561 H   0  0  0  0  0  0  0  0  0  0  0  0  # atno 10765 bound_to 10752
  139.9810  134.6744  156.0262 H   0  0  0  0  0  0  0  0  0  0  0  0  # atno 11005 bound_to 11000
  145.9316  140.9044  143.0353 LP  0  0  0  0  0  0  0  0  0  0  0  0  # atno 17320 bound_to 7965
  144.6728  140.1425  143.7436 LP  0  0  0  0  0  0  0  0  0  0  0  0  # atno 17321 bound_to 7965
  140.0397  144.6017  150.7421 LP  0  0  0  0  0  0  0  0  0  0  0  0  # atno 17342 bound_to 10162
  140.7333  143.2715  151.3872 LP  0  0  0  0  0  0  0  0  0  0  0  0  # atno 17343 bound_to 10162
  155.9684  130.4229  150.4540 LP  0  0  0  0  0  0  0  0  0  0  0  0  # atno 17370 bound_to 10713
  157.2551  131.0555  151.2355 LP  0  0  0  0  0  0  0  0  0  0  0  0  # atno 17371 bound_to 10713
  141.1482  133.6552  156.3932 LP  0  0  0  0  0  0  0  0  0  0  0  0  # atno 17394 bound_to 11000
  140.5096  134.6407  157.5279 LP  0  0  0  0  0  0  0  0  0  0  0  0  # atno 17395 bound_to 11000

$$$$
