AV-unprocessed.smi:1433|AV-procd|sdf|5841|dock6
  -GOLD-   22720 5503D 1   1.00000     0.00000
 Structure written by MMmdl.
 45 46  0  0  0  0  0  0  0  0  2 V2000
  145.8282  140.6416  157.3716 C   0  0  0  0  0  0  0  0  0  0  0  0
  145.8838  140.8725  155.8574 C   0  0  2  0  0  0  0  0  0  0  0  0
  146.2338  139.5832  155.0915 C   0  0  0  0  0  0  0  0  0  0  0  0
  146.3719  139.8500  153.6346 N   0  3  2  0  0  0  0  0  0  0  0  0
  146.6251  138.6559  152.7635 C   0  0  2  0  0  0  0  0  0  0  0  0
  146.7344  139.1017  151.2886 C   0  0  0  0  0  0  0  0  0  0  0  0
  145.5683  137.5246  152.9108 C   0  0  0  0  0  0  0  0  0  0  0  0
  146.1230  136.1885  152.7142 N   0  0  0  0  0  0  0  0  0  0  0  0
  145.5102  135.0415  153.0475 C   0  0  0  0  0  0  0  0  0  0  0  0
  144.4045  134.9952  153.5864 O   0  0  0  0  0  0  0  0  0  0  0  0
  146.2556  133.7483  152.7171 C   0  0  0  0  0  0  0  0  0  0  0  0
  145.5951  133.0295  151.6430 N   0  0  0  0  0  0  0  0  0  0  0  0
  146.1578  132.4667  150.5162 C   0  0  0  0  0  0  0  0  0  0  0  0
  145.1471  131.8897  149.8020 C   0  0  0  0  0  0  0  0  0  0  0  0
  143.9875  132.1542  150.5831 C   0  0  0  0  0  0  0  0  0  0  0  0
  144.2581  132.8363  151.6845 N   0  0  0  0  0  0  0  0  0  0  0  0
  147.3782  140.9249  153.4221 C   0  0  0  0  0  0  0  0  0  0  0  0
  147.0389  142.1943  154.2260 C   0  0  1  0  0  0  0  0  0  0  0  0
  145.8498  142.9874  153.6550 C   0  0  0  0  0  0  0  0  0  0  0  0
  146.8681  141.8686  155.6033 O   0  0  0  0  0  0  0  0  0  0  0  0
  145.0781  139.8929  157.6277 H   0  0  0  0  0  0  0  0  0  0  0  0
  145.5706  141.5617  157.8967 H   0  0  0  0  0  0  0  0  0  0  0  0
  146.7893  140.2975  157.7548 H   0  0  0  0  0  0  0  0  0  0  0  0
  144.9057  141.2328  155.5380 H   0  0  0  0  0  0  0  0  0  0  0  0
  147.1595  139.1492  155.4737 H   0  0  0  0  0  0  0  0  0  0  0  0
  145.4324  138.8695  155.2794 H   0  0  0  0  0  0  0  0  0  0  0  0
  147.5858  138.2350  153.0641 H   0  0  0  0  0  0  0  0  0  0  0  0
  146.9918  138.2699  150.6329 H   0  0  0  0  0  0  0  0  0  0  0  0
  147.5042  139.8565  151.1370 H   0  0  0  0  0  0  0  0  0  0  0  0
  145.7913  139.5194  150.9349 H   0  0  0  0  0  0  0  0  0  0  0  0
  145.1038  137.5393  153.8980 H   0  0  0  0  0  0  0  0  0  0  0  0
  144.7676  137.6615  152.1831 H   0  0  0  0  0  0  0  0  0  0  0  0
  147.0277  136.1288  152.2686 H   0  0  0  0  0  0  0  0  0  0  0  0
  147.2872  133.9620  152.4323 H   0  0  0  0  0  0  0  0  0  0  0  0
  146.2929  133.1071  153.5989 H   0  0  0  0  0  0  0  0  0  0  0  0
  147.2188  132.5220  150.3206 H   0  0  0  0  0  0  0  0  0  0  0  0
  145.2243  131.3583  148.8650 H   0  0  0  0  0  0  0  0  0  0  0  0
  142.9642  131.8718  150.3841 H   0  0  0  0  0  0  0  0  0  0  0  0
  148.3576  140.5560  153.7317 H   0  0  0  0  0  0  0  0  0  0  0  0
  147.4662  141.1827  152.3678 H   0  0  0  0  0  0  0  0  0  0  0  0
  147.9057  142.8546  154.1809 H   0  0  0  0  0  0  0  0  0  0  0  0
  146.0685  143.3374  152.6459 H   0  0  0  0  0  0  0  0  0  0  0  0
  145.6379  143.8641  154.2674 H   0  0  0  0  0  0  0  0  0  0  0  0
  144.9402  142.3903  153.5986 H   0  0  0  0  0  0  0  0  0  0  0  0
  145.4791  140.2214  153.3427 H   0  0  0  0  0  0  0  0  0  0  0  0
  1  2  1  0  0  0  0
  1 21  1  0  0  0  0
  1 22  1  0  0  0  0
  1 23  1  0  0  0  0
  2 20  1  0  0  0  0
  2  3  1  0  0  0  0
  2 24  1  0  0  0  0
  3  4  1  0  0  0  0
  3 25  1  0  0  0  0
  3 26  1  0  0  0  0
  4  5  1  0  0  0  0
  4 17  1  0  0  0  0
  4 45  1  0  0  0  0
  5  6  1  0  0  0  0
  5  7  1  0  0  0  0
  5 27  1  0  0  0  0
  6 28  1  0  0  0  0
  6 29  1  0  0  0  0
  6 30  1  0  0  0  0
  7  8  1  0  0  0  0
  7 31  1  0  0  0  0
  7 32  1  0  0  0  0
  8  9  1  0  0  0  0
  8 33  1  0  0  0  0
  9 10  2  0  0  0  0
  9 11  1  0  0  0  0
 11 12  1  0  0  0  0
 11 34  1  0  0  0  0
 11 35  1  0  0  0  0
 12 16  1  0  0  0  0
 12 13  1  0  0  0  0
 13 14  2  0  0  0  0
 13 36  1  0  0  0  0
 14 15  1  0  0  0  0
 14 37  1  0  0  0  0
 15 16  2  0  0  0  0
 15 38  1  0  0  0  0
 17 18  1  0  0  0  0
 17 39  1  0  0  0  0
 17 40  1  0  0  0  0
 18 19  1  0  0  0  0
 18 20  1  0  0  0  0
 18 41  1  0  0  0  0
 19 42  1  0  0  0  0
 19 43  1  0  0  0  0
 19 44  1  0  0  0  0
M  CHG  1   4   1
M  END
> <s_m_source_file>
AV-unprocessed.smi

> <i_m_source_file_index>
1433

> <i_lp_mmshare_version>
43012

> <i_f3d_flags>
0

> <s_epik_input>
W0NIM11bQ0BASF0xW0NIMl1OKFtDSDJdW0NASF0oTzEpW0NIM10pW0NASF0oW0NIM10pW0NIMl1bTkhdQyg9TylbQ0gyXW4yW2NIXVtjSF1bY0hdbjI=

> <s_epik_cmdline>
J2VwaWtfcHl0aG9uJywgJy1waCcsICc3LjAnLCAnLXRuJywgJzgnLCAnLW1hJywgJzIwMCcsICctbWV0YWxfYmluZGluZycsICctaW1hZScsICc8aW5maWxlLm1hZT4nLCAnLW9tYWUnLCAnPG91dGZpbGUubWFlPic=

> <r_lp_tautomer_probability>
1

> <r_epik_Ionization_Penalty>
0.748405

> <r_epik_Ionization_Penalty_Charging>
0.748396

> <r_epik_Ionization_Penalty_Neutral>
8.54426e-06

> <r_epik_State_Penalty>
0.775162

> <r_epik_Charging_Adjusted_Penalty>
1.52356

> <i_epik_Tot_Q>
1

> <i_epik_Tot_abs_Q>
1

> <r_epik_Metal_State_Penalty>
0.775167

> <b_epik_Metal_Only>
0

> <s_lp_Force_Field>
OPLS_2005

> <r_lp_Energy>
22.7015

> <b_lp_Chiralities_Consistent>
1

> <s_lp_Variant>
AV-unprocessed.smi:1433-7

> <Gold.Version>
5.8.1

> <Gold.Id.Protein>
6NUR|6NUR_protein|mol2

> <Gold.PLP.Fitness>
46.6770

> <Gold.PLP.PLP>
-34.6869

> <Gold.PLP.part.hbond>
-2.0000

> <Gold.PLP.part.metal>
0.0000

> <Gold.PLP.part.buried>
-3.5195

> <Gold.PLP.part.nonpolar>
-30.8670

> <Gold.PLP.part.repulsive>
0.3288

> <Gold.PLP.ligand.clash>
0.0000

> <Gold.PLP.ligand.torsion>
0.7107

> <Gold.PLP.Chemscore.Hbond>
3.0000

> <Gold.PLP.Chemscore.CHOScore>
1.4420

> <Gold.PLP.Chemscore.Metal>
0.0000

> <Gold.Chemscore.Hbonds>
donor molecule, donor type, donor heavy atom, donor atom, acceptor molecule, acceptor atom, score
      L1  H     4    45       P1 10175  2.00
      L1  H     8    33       P1  7948  1.00
      L1  C    13    36       P1 10747  1.00
      L1  C    15    38       P1 10952  0.45

> <Gold.PLP.Chemscore.Internal.Correction>
0.0854

> <Gold.Rescore>
     Score         DG    S(hbond)    S(metal)    S(lipo)     H(rot)  DE(clash)    DE(int)     intcor
     15.46     -17.69       1.99        0.00      88.48       1.87       0.44       1.80       ----

> <Gold.Chemscore.Fitness>
15.4560

> <Gold.Chemscore.DG>
-17.6914

> <Gold.Chemscore.ZeroCoef>
-5.4800

> <Gold.Chemscore.Hbond>
1.9868

> <Gold.Chemscore.Metal>
0.0000

> <Gold.Chemscore.Lipo>
88.4764

> <Gold.Chemscore.Internal_Hbond>
0.0000

> <Gold.Chemscore.DEClash>
0.4358

> <Gold.Chemscore.DEInternal>
1.7997

> <Gold.Chemscore.Rot>
1.8657

> <Gold.Chemscore.Internal.Correction>
   9.000000E+99

> <Gold.Chemscore.Hbonds>
donor molecule, donor type, donor heavy atom, donor atom, acceptor molecule, acceptor atom, score
      L1  H     4    45       P1 10175  0.95
      L1  H     8    33       P1  7948  0.99

> <Gold.Chemscore.Hbond.Weighted>
-6.6358

> <Gold.Chemscore.Metal.Weighted>
-0.0000

> <Gold.Chemscore.Lipo.Weighted>
-10.3517

> <Gold.Chemscore.Internal_Hbond.Weighted>
0.0000

> <Gold.Chemscore.DEClash.Weighted>
0.4358

> <Gold.Chemscore.DEInternal.Weighted>
1.7997

> <Gold.Chemscore.Rot.Weighted>
4.7761

> <Gold.Chemscore.Internal.Correction.Weighted>
   9.000000E+99

> <Gold.Protein.RotatedTorsions>
[ 6907 6896 6895 6894 ] final   39.90 input  -60.11 | X-H torsion
[ 7974 7965 7964 7962 ] final -119.62 input  175.53 | X-H torsion
[ 8008 7997 7996 7995 ] final  -30.94 input   59.86 | X-H torsion
[ 10167 10162 10161 10158 ] final  -65.04 input  -65.29 | X-H torsion
[ 10718 10713 10712 10709 ] final   61.15 input   66.30 | X-H torsion
[ 10763 10752 10751 10750 ] final   62.71 input  -60.55 | X-H torsion
[ 11005 11000 10999 10996 ] final -146.94 input  -57.11 | X-H torsion

> <Gold.Protein.ActiveResidues>
 VAL166  LYS551  ARG553  GLY616  TRP617  ASP618  TYR619  PRO620  LYS621  CYS622 
 ASP623  PHE694  ASN695  SER759  ASP760  ASP761  ALA762  ILE779  LEU786  VAL792 
 PHE793  MET794  SER795  GLU796  ALA797  LYS798  CYS799  TRP800  GLU811  SER814 

> <Gold.Protein.RotatedAtoms>
  152.1755  134.8798  160.0530 H   0  0  0  0  0  0  0  0  0  0  0  0  # atno 6907 bound_to 6896
  151.9742  133.3731  159.4091 H   0  0  0  0  0  0  0  0  0  0  0  0  # atno 6908 bound_to 6896
  150.6908  134.4031  159.5171 H   0  0  0  0  0  0  0  0  0  0  0  0  # atno 6909 bound_to 6896
  145.0605  140.8286  143.4155 H   0  0  0  0  0  0  0  0  0  0  0  0  # atno 7974 bound_to 7965
  154.4232  140.1778  156.1487 H   0  0  0  0  0  0  0  0  0  0  0  0  # atno 8008 bound_to 7997
  155.9933  140.3367  155.6749 H   0  0  0  0  0  0  0  0  0  0  0  0  # atno 8009 bound_to 7997
  155.6343  140.0673  157.2629 H   0  0  0  0  0  0  0  0  0  0  0  0  # atno 8010 bound_to 7997
  140.5758  143.2322  151.6445 H   0  0  0  0  0  0  0  0  0  0  0  0  # atno 10167 bound_to 10162
  157.5806  130.8978  149.9424 H   0  0  0  0  0  0  0  0  0  0  0  0  # atno 10718 bound_to 10713
  152.9992  135.5455  154.6236 H   0  0  0  0  0  0  0  0  0  0  0  0  # atno 10763 bound_to 10752
  154.5529  135.2828  155.0993 H   0  0  0  0  0  0  0  0  0  0  0  0  # atno 10764 bound_to 10752
  154.2226  135.6448  153.5202 H   0  0  0  0  0  0  0  0  0  0  0  0  # atno 10765 bound_to 10752
  140.7768  134.3126  157.5058 H   0  0  0  0  0  0  0  0  0  0  0  0  # atno 11005 bound_to 11000
  145.1415  139.2569  143.5488 LP  0  0  0  0  0  0  0  0  0  0  0  0  # atno 17320 bound_to 7965
  146.3524  140.1093  142.8604 LP  0  0  0  0  0  0  0  0  0  0  0  0  # atno 17321 bound_to 7965
  139.5142  144.3418  152.0733 LP  0  0  0  0  0  0  0  0  0  0  0  0  # atno 17342 bound_to 10162
  140.2562  144.4116  150.6203 LP  0  0  0  0  0  0  0  0  0  0  0  0  # atno 17343 bound_to 10162
  156.0852  130.3669  150.0502 LP  0  0  0  0  0  0  0  0  0  0  0  0  # atno 17370 bound_to 10713
  156.8641  130.9502  151.3615 LP  0  0  0  0  0  0  0  0  0  0  0  0  # atno 17371 bound_to 10713
  139.8748  134.9294  156.3476 LP  0  0  0  0  0  0  0  0  0  0  0  0  # atno 17394 bound_to 11000
  140.9521  133.7444  156.0286 LP  0  0  0  0  0  0  0  0  0  0  0  0  # atno 17395 bound_to 11000

$$$$
