AV-unprocessed.smi:2711|AV-procd|sdf|10473|dock6
  -GOLD-   2272014513D 1   1.00000     0.00000
 Structure written by MMmdl.
 33 34  0  0  0  0  0  0  0  0  2 V2000
  145.5183  134.3063  162.1049 C   0  0  0  0  0  0  0  0  0  0  0  0
  146.5323  135.1398  161.3974 C   0  0  0  0  0  0  0  0  0  0  0  0
  146.7465  136.4874  161.5287 C   0  0  0  0  0  0  0  0  0  0  0  0
  147.7774  136.9734  160.7230 N   0  0  0  0  0  0  0  0  0  0  0  0
  148.3639  136.0268  159.9826 C   0  0  0  0  0  0  0  0  0  0  0  0
  149.3716  136.2826  159.1323 N   0  5  0  0  0  0  0  0  0  0  0  0
  149.5439  137.5313  158.6421 C   0  0  0  0  0  0  0  0  0  0  0  0
  148.6887  138.4180  158.5823 O   0  0  0  0  0  0  0  0  0  0  0  0
  150.7851  137.7675  158.1918 N   0  0  0  0  0  0  0  0  0  0  0  0
  151.2629  139.0203  157.6089 C   0  0  0  0  0  0  0  0  0  0  0  0
  152.5230  139.5775  158.2969 C   0  0  0  0  0  0  0  0  0  0  0  0
  153.5737  138.9337  158.2755 O   0  0  0  0  0  0  0  0  0  0  0  0
  152.4381  140.7833  158.8966 N   0  0  0  0  0  0  0  0  0  0  0  0
  151.2469  141.6301  158.9483 C   0  0  0  0  0  0  0  0  0  0  0  0
  151.7204  142.9760  159.4981 C   0  0  0  0  0  0  0  0  0  0  0  0
  152.9615  142.6313  160.3093 C   0  0  0  0  0  0  0  0  0  0  0  0
  153.5568  141.4230  159.5861 C   0  0  0  0  0  0  0  0  0  0  0  0
  147.6359  134.4398  160.2438 S   0  0  0  0  0  0  0  0  0  0  0  0
  145.8511  134.0709  163.1157 H   0  0  0  0  0  0  0  0  0  0  0  0
  145.3449  133.3671  161.5792 H   0  0  0  0  0  0  0  0  0  0  0  0
  144.5657  134.8313  162.1757 H   0  0  0  0  0  0  0  0  0  0  0  0
  146.2140  137.1758  162.1682 H   0  0  0  0  0  0  0  0  0  0  0  0
  151.4544  137.0159  158.2673 H   0  0  0  0  0  0  0  0  0  0  0  0
  151.4927  138.8351  156.5595 H   0  0  0  0  0  0  0  0  0  0  0  0
  150.4610  139.7599  157.6298 H   0  0  0  0  0  0  0  0  0  0  0  0
  150.7789  141.7494  157.9702 H   0  0  0  0  0  0  0  0  0  0  0  0
  150.5187  141.1785  159.6236 H   0  0  0  0  0  0  0  0  0  0  0  0
  151.9966  143.6319  158.6713 H   0  0  0  0  0  0  0  0  0  0  0  0
  150.9566  143.4847  160.0872 H   0  0  0  0  0  0  0  0  0  0  0  0
  153.6611  143.4636  160.3890 H   0  0  0  0  0  0  0  0  0  0  0  0
  152.6673  142.3439  161.3198 H   0  0  0  0  0  0  0  0  0  0  0  0
  154.0496  140.7453  160.2850 H   0  0  0  0  0  0  0  0  0  0  0  0
  154.2929  141.7422  158.8467 H   0  0  0  0  0  0  0  0  0  0  0  0
  1  2  1  0  0  0  0
  1 19  1  0  0  0  0
  1 20  1  0  0  0  0
  1 21  1  0  0  0  0
  2 18  1  0  0  0  0
  2  3  2  0  0  0  0
  3  4  1  0  0  0  0
  3 22  1  0  0  0  0
  4  5  2  0  0  0  0
  5  6  1  0  0  0  0
  5 18  1  0  0  0  0
  6  7  1  0  0  0  0
  7  8  2  0  0  0  0
  7  9  1  0  0  0  0
  9 10  1  0  0  0  0
  9 23  1  0  0  0  0
 10 11  1  0  0  0  0
 10 24  1  0  0  0  0
 10 25  1  0  0  0  0
 11 12  2  0  0  0  0
 11 13  1  0  0  0  0
 13 17  1  0  0  0  0
 13 14  1  0  0  0  0
 14 15  1  0  0  0  0
 14 26  1  0  0  0  0
 14 27  1  0  0  0  0
 15 16  1  0  0  0  0
 15 28  1  0  0  0  0
 15 29  1  0  0  0  0
 16 17  1  0  0  0  0
 16 30  1  0  0  0  0
 16 31  1  0  0  0  0
 17 32  1  0  0  0  0
 17 33  1  0  0  0  0
M  CHG  1   6  -1
M  END
> <s_m_source_file>
AV-unprocessed.smi

> <i_m_source_file_index>
2711

> <i_lp_mmshare_version>
43012

> <i_f3d_flags>
0

> <s_epik_input>
W0NIM11jMVtjSF1uYyhzMSlbTkhdQyg9TylbTkhdW0NIMl1DKD1PKU4yW0NIMl1bQ0gyXVtDSDJdW0NIMl0y

> <s_epik_cmdline>
J2VwaWtfcHl0aG9uJywgJy1waCcsICc3LjAnLCAnLXRuJywgJzgnLCAnLW1hJywgJzIwMCcsICctbWV0YWxfYmluZGluZycsICctaW1hZScsICc8aW5maWxlLm1hZT4nLCAnLW9tYWUnLCAnPG91dGZpbGUubWFlPic=

> <r_lp_tautomer_probability>
1

> <r_epik_Ionization_Penalty>
6.8506

> <r_epik_Ionization_Penalty_Charging>
5.74941

> <r_epik_Ionization_Penalty_Neutral>
1.10119

> <r_epik_State_Penalty>
5.74937

> <r_epik_Charging_Adjusted_Penalty>
11.4988

> <i_epik_Tot_Q>
-1

> <i_epik_Tot_abs_Q>
1

> <r_epik_Metal_State_Penalty>
1.72493

> <b_epik_Metal_Only>
1

> <s_lp_Force_Field>
OPLS_2005

> <r_lp_Energy>
20.4432

> <b_lp_Chiralities_Consistent>
1

> <s_lp_Variant>
AV-unprocessed.smi:2711-2

> <Gold.Version>
5.8.1

> <Gold.Id.Protein>
6NUR|6NUR_protein|mol2

> <Gold.PLP.Fitness>
48.2002

> <Gold.PLP.PLP>
-35.1249

> <Gold.PLP.part.hbond>
-5.0548

> <Gold.PLP.part.metal>
0.0000

> <Gold.PLP.part.buried>
-4.3579

> <Gold.PLP.part.nonpolar>
-26.2818

> <Gold.PLP.part.repulsive>
0.1050

> <Gold.PLP.ligand.clash>
0.0000

> <Gold.PLP.ligand.torsion>
0.2379

> <Gold.PLP.Chemscore.Hbond>
4.5054

> <Gold.PLP.Chemscore.CHOScore>
0.0000

> <Gold.PLP.Chemscore.Metal>
0.0000

> <Gold.Chemscore.Hbonds>
donor molecule, donor type, donor heavy atom, donor atom, acceptor molecule, acceptor atom, score
      P1  H  6896  6908       L1     6  1.59
      P1  H  6931  6943       L1     4  0.65
      P1  H  6934  6947       L1     4  0.50
      P1  H  7997  8009       L1    12  1.00

> <Gold.PLP.Chemscore.Internal.Correction>
0.0348

> <Gold.Rescore>
     Score         DG    S(hbond)    S(metal)    S(lipo)     H(rot)  DE(clash)    DE(int)     intcor
     18.24     -20.00       2.78        0.00      73.23       1.31       0.02       1.74       ----

> <Gold.Chemscore.Fitness>
18.2364

> <Gold.Chemscore.DG>
-19.9953

> <Gold.Chemscore.ZeroCoef>
-5.4800

> <Gold.Chemscore.Hbond>
2.7813

> <Gold.Chemscore.Metal>
0.0000

> <Gold.Chemscore.Lipo>
73.2293

> <Gold.Chemscore.Internal_Hbond>
0.0000

> <Gold.Chemscore.DEClash>
0.0183

> <Gold.Chemscore.DEInternal>
1.7406

> <Gold.Chemscore.Rot>
1.3056

> <Gold.Chemscore.Internal.Correction>
   9.000000E+99

> <Gold.Chemscore.Hbonds>
donor molecule, donor type, donor heavy atom, donor atom, acceptor molecule, acceptor atom, score
      P1  H  6896  6908       L1     6  0.27
      P1  H  6931  6943       L1     4  0.43
      P1  H  6934  6947       L1     4  0.06
      P1  H  7997  8009       L1    12  0.25

> <Gold.Chemscore.Hbond.Weighted>
-9.2897

> <Gold.Chemscore.Metal.Weighted>
-0.0000

> <Gold.Chemscore.Lipo.Weighted>
-8.5678

> <Gold.Chemscore.Internal_Hbond.Weighted>
0.0000

> <Gold.Chemscore.DEClash.Weighted>
0.0183

> <Gold.Chemscore.DEInternal.Weighted>
1.7406

> <Gold.Chemscore.Rot.Weighted>
3.3422

> <Gold.Chemscore.Internal.Correction.Weighted>
   9.000000E+99

> <Gold.Protein.RotatedTorsions>
[ 6907 6896 6895 6894 ] final -176.20 input  -60.11 | X-H torsion
[ 7974 7965 7964 7962 ] final   88.73 input  175.53 | X-H torsion
[ 8008 7997 7996 7995 ] final  153.45 input   59.86 | X-H torsion
[ 10167 10162 10161 10158 ] final  104.54 input  -65.29 | X-H torsion
[ 10718 10713 10712 10709 ] final   49.48 input   66.30 | X-H torsion
[ 10763 10752 10751 10750 ] final  115.75 input  -60.55 | X-H torsion
[ 11005 11000 10999 10996 ] final -114.72 input  -57.11 | X-H torsion

> <Gold.Protein.ActiveResidues>
 VAL166  LYS551  ARG553  GLY616  TRP617  ASP618  TYR619  PRO620  LYS621  CYS622 
 ASP623  PHE694  ASN695  SER759  ASP760  ASP761  ALA762  ILE779  LEU786  VAL792 
 PHE793  MET794  SER795  GLU796  ALA797  LYS798  CYS799  TRP800  GLU811  SER814 

> <Gold.Protein.RotatedAtoms>
  151.6010  133.3356  159.3047 H   0  0  0  0  0  0  0  0  0  0  0  0  # atno 6907 bound_to 6896
  150.8208  134.7417  159.6782 H   0  0  0  0  0  0  0  0  0  0  0  0  # atno 6908 bound_to 6896
  152.4301  134.5799  159.9996 H   0  0  0  0  0  0  0  0  0  0  0  0  # atno 6909 bound_to 6896
  145.5417  139.2289  143.2562 H   0  0  0  0  0  0  0  0  0  0  0  0  # atno 7974 bound_to 7965
  156.2581  140.1993  156.6492 H   0  0  0  0  0  0  0  0  0  0  0  0  # atno 8008 bound_to 7997
  154.6550  140.0567  157.0023 H   0  0  0  0  0  0  0  0  0  0  0  0  # atno 8009 bound_to 7997
  155.1361  140.3238  155.4465 H   0  0  0  0  0  0  0  0  0  0  0  0  # atno 8010 bound_to 7997
  139.7168  144.7066  151.0937 H   0  0  0  0  0  0  0  0  0  0  0  0  # atno 10167 bound_to 10162
  157.4791  130.8304  149.8073 H   0  0  0  0  0  0  0  0  0  0  0  0  # atno 10718 bound_to 10713
  153.5268  135.3586  155.2657 H   0  0  0  0  0  0  0  0  0  0  0  0  # atno 10763 bound_to 10752
  154.8730  135.4059  154.3196 H   0  0  0  0  0  0  0  0  0  0  0  0  # atno 10764 bound_to 10752
  153.3877  135.7070  153.6585 H   0  0  0  0  0  0  0  0  0  0  0  0  # atno 10765 bound_to 10752
  141.0534  133.9651  157.2797 H   0  0  0  0  0  0  0  0  0  0  0  0  # atno 11005 bound_to 11000
  146.1976  140.6237  142.9117 LP  0  0  0  0  0  0  0  0  0  0  0  0  # atno 17320 bound_to 7965
  144.7573  140.5339  143.6760 LP  0  0  0  0  0  0  0  0  0  0  0  0  # atno 17321 bound_to 7965
  140.7745  143.5219  150.9526 LP  0  0  0  0  0  0  0  0  0  0  0  0  # atno 17342 bound_to 10162
  139.8905  143.6959  152.3146 LP  0  0  0  0  0  0  0  0  0  0  0  0  # atno 17343 bound_to 10162
  156.0112  130.3832  150.2259 LP  0  0  0  0  0  0  0  0  0  0  0  0  # atno 17370 bound_to 10713
  157.0444  131.0044  151.3273 LP  0  0  0  0  0  0  0  0  0  0  0  0  # atno 17371 bound_to 10713
  139.9369  135.0195  156.8585 LP  0  0  0  0  0  0  0  0  0  0  0  0  # atno 17394 bound_to 11000
  140.6011  134.0170  155.7538 LP  0  0  0  0  0  0  0  0  0  0  0  0  # atno 17395 bound_to 11000

$$$$
