AV-unprocessed.smi:3278|AV-procd|sdf|12546|dock5
  -GOLD-   2272018463D 1   1.00000     0.00000
 Structure written by MMmdl.
 38 39  0  0  0  0  0  0  0  0  1 V2000
  145.3333  142.8424  155.4797 C   0  0  0  0  0  0  0  0  0  0  0  0
  146.5755  142.1971  155.1127 N   0  0  0  0  0  0  0  0  0  0  0  0
  147.6559  141.8927  155.9120 C   0  0  0  0  0  0  0  0  0  0  0  0
  148.5954  141.2848  155.1253 C   0  0  0  0  0  0  0  0  0  0  0  0
  149.9607  140.7497  155.5030 C   0  0  1  0  0  0  0  0  0  0  0  0
  149.8115  139.6779  156.5960 C   0  0  0  0  0  0  0  0  0  0  0  0
  150.6011  140.1006  154.4197 O   0  0  0  0  0  0  0  0  0  0  0  0
  150.9056  141.8715  155.9891 C   0  0  0  0  0  0  0  0  0  0  0  0
  150.3299  142.6347  157.1005 N   0  0  0  0  0  0  0  0  0  0  0  0
  151.2890  143.2768  158.0041 C   0  0  1  0  0  0  0  0  0  0  0  0
  150.6441  144.4317  158.8064 C   0  0  0  0  0  0  0  0  0  0  0  0
  151.6415  145.1472  159.7328 C   0  0  0  0  0  0  0  0  0  0  0  0
  152.2528  144.2095  160.7812 C   0  0  0  0  0  0  0  0  0  0  0  0
  153.1946  142.8797  159.9909 S   0  0  0  0  0  0  0  0  0  0  0  0
  151.8735  142.2083  158.9463 C   0  0  0  0  0  0  0  0  0  0  0  0
  147.9780  141.2682  153.8402 C   0  0  0  0  0  0  0  0  0  0  0  0
  146.7725  141.8127  153.8357 N   0  0  0  0  0  0  0  0  0  0  0  0
  145.3870  143.1986  156.5087 H   0  0  0  0  0  0  0  0  0  0  0  0
  144.5100  142.1330  155.3915 H   0  0  0  0  0  0  0  0  0  0  0  0
  145.1476  143.6915  154.8210 H   0  0  0  0  0  0  0  0  0  0  0  0
  147.6678  142.1296  156.9657 H   0  0  0  0  0  0  0  0  0  0  0  0
  149.3539  140.0903  157.4959 H   0  0  0  0  0  0  0  0  0  0  0  0
  150.7779  139.2621  156.8834 H   0  0  0  0  0  0  0  0  0  0  0  0
  149.1841  138.8519  156.2587 H   0  0  0  0  0  0  0  0  0  0  0  0
  149.9581  139.5862  153.9564 H   0  0  0  0  0  0  0  0  0  0  0  0
  151.8490  141.4299  156.3129 H   0  0  0  0  0  0  0  0  0  0  0  0
  151.1442  142.5239  155.1497 H   0  0  0  0  0  0  0  0  0  0  0  0
  149.6798  143.3244  156.7371 H   0  0  0  0  0  0  0  0  0  0  0  0
  152.1081  143.6835  157.4096 H   0  0  0  0  0  0  0  0  0  0  0  0
  150.2311  145.1809  158.1326 H   0  0  0  0  0  0  0  0  0  0  0  0
  149.8063  144.0533  159.3936 H   0  0  0  0  0  0  0  0  0  0  0  0
  152.4349  145.6018  159.1387 H   0  0  0  0  0  0  0  0  0  0  0  0
  151.1333  145.9676  160.2400 H   0  0  0  0  0  0  0  0  0  0  0  0
  152.9187  144.7641  161.4427 H   0  0  0  0  0  0  0  0  0  0  0  0
  151.4718  143.7729  161.4042 H   0  0  0  0  0  0  0  0  0  0  0  0
  151.0948  141.7914  159.5866 H   0  0  0  0  0  0  0  0  0  0  0  0
  152.2880  141.3806  158.3701 H   0  0  0  0  0  0  0  0  0  0  0  0
  148.3709  140.8752  152.9141 H   0  0  0  0  0  0  0  0  0  0  0  0
  1  2  1  0  0  0  0
  1 18  1  0  0  0  0
  1 19  1  0  0  0  0
  1 20  1  0  0  0  0
  2 17  1  0  0  0  0
  2  3  1  0  0  0  0
  3  4  2  0  0  0  0
  3 21  1  0  0  0  0
  4  5  1  0  0  0  0
  4 16  1  0  0  0  0
  5  6  1  0  0  0  0
  5  7  1  0  0  0  0
  5  8  1  0  0  0  0
  6 22  1  0  0  0  0
  6 23  1  0  0  0  0
  6 24  1  0  0  0  0
  7 25  1  0  0  0  0
  8  9  1  0  0  0  0
  8 26  1  0  0  0  0
  8 27  1  0  0  0  0
  9 10  1  0  0  0  0
  9 28  1  0  0  0  0
 10 15  1  0  0  0  0
 10 11  1  0  0  0  0
 10 29  1  0  0  0  0
 11 12  1  0  0  0  0
 11 30  1  0  0  0  0
 11 31  1  0  0  0  0
 12 13  1  0  0  0  0
 12 32  1  0  0  0  0
 12 33  1  0  0  0  0
 13 14  1  0  0  0  0
 13 34  1  0  0  0  0
 13 35  1  0  0  0  0
 14 15  1  0  0  0  0
 15 36  1  0  0  0  0
 15 37  1  0  0  0  0
 16 17  2  0  0  0  0
 16 38  1  0  0  0  0
M  END
> <s_m_source_file>
AV-unprocessed.smi

> <i_m_source_file_index>
3278

> <i_lp_mmshare_version>
43012

> <i_f3d_flags>
0

> <s_epik_input>
W0NIM11uMVtjSF1jKFtjSF1uMSlbQ0BAXShbQ0gzXSkoW09IXSlbQ0gyXVtOSF1bQ0BASF0yW0NIMl1bQ0gyXVtDSDJdU1tDSDJdMg==

> <s_epik_cmdline>
J2VwaWtfcHl0aG9uJywgJy1waCcsICc3LjAnLCAnLXRuJywgJzgnLCAnLW1hJywgJzIwMCcsICctbWV0YWxfYmluZGluZycsICctaW1hZScsICc8aW5maWxlLm1hZT4nLCAnLW9tYWUnLCAnPG91dGZpbGUubWFlPic=

> <r_lp_tautomer_probability>
1

> <r_epik_Ionization_Penalty>
2.06123

> <r_epik_Ionization_Penalty_Charging>
0

> <r_epik_Ionization_Penalty_Neutral>
2.06123

> <r_epik_State_Penalty>
2.1944

> <r_epik_Charging_Adjusted_Penalty>
2.1944

> <i_epik_Tot_Q>
0

> <i_epik_Tot_abs_Q>
0

> <r_epik_Metal_State_Penalty>
2.19434

> <b_epik_Metal_Only>
0

> <s_lp_Force_Field>
OPLS_2005

> <r_lp_Energy>
12.2085

> <b_lp_Chiralities_Consistent>
1

> <s_lp_Variant>
AV-unprocessed.smi:3278-7

> <Gold.Version>
5.8.1

> <Gold.Id.Protein>
6NUR|6NUR_protein|mol2

> <Gold.PLP.Fitness>
45.7964

> <Gold.PLP.PLP>
-37.5014

> <Gold.PLP.part.hbond>
-2.0000

> <Gold.PLP.part.metal>
0.0000

> <Gold.PLP.part.buried>
-5.3449

> <Gold.PLP.part.nonpolar>
-30.1983

> <Gold.PLP.part.repulsive>
0.1906

> <Gold.PLP.ligand.clash>
0.0000

> <Gold.PLP.ligand.torsion>
0.3689

> <Gold.PLP.Chemscore.Hbond>
2.0000

> <Gold.PLP.Chemscore.CHOScore>
1.0000

> <Gold.PLP.Chemscore.Metal>
0.0000

> <Gold.Chemscore.Hbonds>
donor molecule, donor type, donor heavy atom, donor atom, acceptor molecule, acceptor atom, score
      L1  H     9    28       P1  8028  1.00
      P1  H  7989  7998       L1     7  1.00
      L1  C    16    38       P1  7957  1.00

> <Gold.PLP.Chemscore.Internal.Correction>
0.0328

> <Gold.Rescore>
     Score         DG    S(hbond)    S(metal)    S(lipo)     H(rot)  DE(clash)    DE(int)     intcor
     18.69     -19.33       1.94        0.00     105.32       1.93       0.03       0.61       ----

> <Gold.Chemscore.Fitness>
18.6913

> <Gold.Chemscore.DG>
-19.3332

> <Gold.Chemscore.ZeroCoef>
-5.4800

> <Gold.Chemscore.Hbond>
1.9400

> <Gold.Chemscore.Metal>
0.0000

> <Gold.Chemscore.Lipo>
105.3153

> <Gold.Chemscore.Internal_Hbond>
0.0000

> <Gold.Chemscore.DEClash>
0.0332

> <Gold.Chemscore.DEInternal>
0.6087

> <Gold.Chemscore.Rot>
1.9329

> <Gold.Chemscore.Internal.Correction>
   9.000000E+99

> <Gold.Chemscore.Hbonds>
donor molecule, donor type, donor heavy atom, donor atom, acceptor molecule, acceptor atom, score
      L1  H     9    28       P1  8028  0.99
      P1  H  7989  7998       L1     7  0.84

> <Gold.Chemscore.Hbond.Weighted>
-6.4795

> <Gold.Chemscore.Metal.Weighted>
-0.0000

> <Gold.Chemscore.Lipo.Weighted>
-12.3219

> <Gold.Chemscore.Internal_Hbond.Weighted>
0.0000

> <Gold.Chemscore.DEClash.Weighted>
0.0332

> <Gold.Chemscore.DEInternal.Weighted>
0.6087

> <Gold.Chemscore.Rot.Weighted>
4.9483

> <Gold.Chemscore.Internal.Correction.Weighted>
   9.000000E+99

> <Gold.Protein.RotatedTorsions>
[ 6907 6896 6895 6894 ] final   -7.00 input  -60.11 | X-H torsion
[ 7974 7965 7964 7962 ] final -140.32 input  175.53 | X-H torsion
[ 8008 7997 7996 7995 ] final  105.86 input   59.86 | X-H torsion
[ 10167 10162 10161 10158 ] final -102.26 input  -65.29 | X-H torsion
[ 10718 10713 10712 10709 ] final  175.00 input   66.30 | X-H torsion
[ 10763 10752 10751 10750 ] final  -78.13 input  -60.55 | X-H torsion
[ 11005 11000 10999 10996 ] final -119.44 input  -57.11 | X-H torsion

> <Gold.Protein.ActiveResidues>
 VAL166  LYS551  ARG553  GLY616  TRP617  ASP618  TYR619  PRO620  LYS621  CYS622 
 ASP623  PHE694  ASN695  SER759  ASP760  ASP761  ALA762  ILE779  LEU786  VAL792 
 PHE793  MET794  SER795  GLU796  ALA797  LYS798  CYS799  TRP800  GLU811  SER814 

> <Gold.Protein.RotatedAtoms>
  151.4566  135.1034  159.9712 H   0  0  0  0  0  0  0  0  0  0  0  0  # atno 6907 bound_to 6896
  152.4868  133.8391  159.7154 H   0  0  0  0  0  0  0  0  0  0  0  0  # atno 6908 bound_to 6896
  150.8985  133.7089  159.2912 H   0  0  0  0  0  0  0  0  0  0  0  0  # atno 6909 bound_to 6896
  144.8606  140.6213  143.5331 H   0  0  0  0  0  0  0  0  0  0  0  0  # atno 7974 bound_to 7965
  156.1694  140.3123  155.8947 H   0  0  0  0  0  0  0  0  0  0  0  0  # atno 8008 bound_to 7997
  155.3618  140.0477  157.3063 H   0  0  0  0  0  0  0  0  0  0  0  0  # atno 8009 bound_to 7997
  154.5226  140.2203  155.8959 H   0  0  0  0  0  0  0  0  0  0  0  0  # atno 8010 bound_to 7997
  140.2326  143.3596  152.0873 H   0  0  0  0  0  0  0  0  0  0  0  0  # atno 10167 bound_to 10162
  156.9413  131.0002  151.2968 H   0  0  0  0  0  0  0  0  0  0  0  0  # atno 10718 bound_to 10713
  154.5219  135.5740  153.6688 H   0  0  0  0  0  0  0  0  0  0  0  0  # atno 10763 bound_to 10752
  152.9919  135.6184  154.2742 H   0  0  0  0  0  0  0  0  0  0  0  0  # atno 10764 bound_to 10752
  154.2664  135.2854  155.2736 H   0  0  0  0  0  0  0  0  0  0  0  0  # atno 10765 bound_to 10752
  141.0215  134.0117  157.3275 H   0  0  0  0  0  0  0  0  0  0  0  0  # atno 11005 bound_to 11000
  145.4319  139.1548  143.4017 LP  0  0  0  0  0  0  0  0  0  0  0  0  # atno 17320 bound_to 7965
  146.2857  140.4436  142.8759 LP  0  0  0  0  0  0  0  0  0  0  0  0  # atno 17321 bound_to 7965
  139.5105  144.6885  151.5824 LP  0  0  0  0  0  0  0  0  0  0  0  0  # atno 17342 bound_to 10162
  140.6174  143.9323  150.6499 LP  0  0  0  0  0  0  0  0  0  0  0  0  # atno 17343 bound_to 10162
  157.5783  130.8358  149.8486 LP  0  0  0  0  0  0  0  0  0  0  0  0  # atno 17370 bound_to 10713
  156.0403  130.3740  150.1453 LP  0  0  0  0  0  0  0  0  0  0  0  0  # atno 17371 bound_to 10713
  139.9149  135.0195  156.7842 LP  0  0  0  0  0  0  0  0  0  0  0  0  # atno 17394 bound_to 11000
  140.6564  133.9685  155.7782 LP  0  0  0  0  0  0  0  0  0  0  0  0  # atno 17395 bound_to 11000

$$$$
