AV-unprocessed.smi:1824|AV-procd|sdf|7401|dock4
  -GOLD-   22720 9 73D 1   1.00000     0.00000
 Structure written by MMmdl.
 45 47  0  0  0  0  0  0  0  0  2 V2000
  143.7992  144.5002  155.7306 C   0  0  0  0  0  0  0  0  0  0  0  0
  145.1164  143.8158  156.1119 C   0  0  2  0  0  0  0  0  0  0  0  0
  145.7397  143.0605  154.9243 C   0  0  0  0  0  0  0  0  0  0  0  0
  146.9660  142.3474  155.3551 N   0  3  2  0  0  0  0  0  0  0  0  0
  147.6896  141.6748  154.2458 C   0  0  0  0  0  0  0  0  0  0  0  0
  149.0681  141.1338  154.6760 C   0  0  1  0  0  0  0  0  0  0  0  0
  149.8636  140.9424  153.5210 O   0  0  0  0  0  0  0  0  0  0  0  0
  149.7850  142.1031  155.6359 C   0  0  0  0  0  0  0  0  0  0  0  0
  150.7982  141.4453  156.4421 N   0  0  0  0  0  0  0  0  0  0  0  0
  151.4803  140.3242  156.1370 C   0  0  0  0  0  0  0  0  0  0  0  0
  152.3723  139.8930  157.0239 N   0  0  0  0  0  0  0  0  0  0  0  0
  152.2599  140.8471  158.0203 C   0  0  0  0  0  0  0  0  0  0  0  0
  152.9433  140.9731  159.2507 C   0  0  0  0  0  0  0  0  0  0  0  0
  152.6584  142.0464  160.1202 C   0  0  0  0  0  0  0  0  0  0  0  0
  153.3242  142.1533  161.2945 F   0  0  0  0  0  0  0  0  0  0  0  0
  151.6855  143.0077  159.7734 C   0  0  0  0  0  0  0  0  0  0  0  0
  151.4172  144.0351  160.6137 F   0  0  0  0  0  0  0  0  0  0  0  0
  150.9916  142.9032  158.5525 C   0  0  0  0  0  0  0  0  0  0  0  0
  151.2812  141.8318  157.6876 C   0  0  0  0  0  0  0  0  0  0  0  0
  146.6570  141.4250  156.4734 C   0  0  0  0  0  0  0  0  0  0  0  0
  145.9790  142.1713  157.6395 C   0  0  1  0  0  0  0  0  0  0  0  0
  146.9439  143.0591  158.4457 C   0  0  0  0  0  0  0  0  0  0  0  0
  144.8438  142.8969  157.1668 O   0  0  0  0  0  0  0  0  0  0  0  0
  143.9501  145.2235  154.9287 H   0  0  0  0  0  0  0  0  0  0  0  0
  143.3765  145.0335  156.5825 H   0  0  0  0  0  0  0  0  0  0  0  0
  143.0596  143.7741  155.3922 H   0  0  0  0  0  0  0  0  0  0  0  0
  145.8063  144.5844  156.4608 H   0  0  0  0  0  0  0  0  0  0  0  0
  145.0254  142.3442  154.5152 H   0  0  0  0  0  0  0  0  0  0  0  0
  145.9697  143.7691  154.1295 H   0  0  0  0  0  0  0  0  0  0  0  0
  147.0932  140.8403  153.8733 H   0  0  0  0  0  0  0  0  0  0  0  0
  147.7938  142.3694  153.4109 H   0  0  0  0  0  0  0  0  0  0  0  0
  148.9587  140.1717  155.1755 H   0  0  0  0  0  0  0  0  0  0  0  0
  149.4401  140.3084  152.9620 H   0  0  0  0  0  0  0  0  0  0  0  0
  150.2558  142.9156  155.0803 H   0  0  0  0  0  0  0  0  0  0  0  0
  149.0632  142.5665  156.3095 H   0  0  0  0  0  0  0  0  0  0  0  0
  151.3115  139.7929  155.2116 H   0  0  0  0  0  0  0  0  0  0  0  0
  153.6895  140.2429  159.5263 H   0  0  0  0  0  0  0  0  0  0  0  0
  150.2484  143.6389  158.2842 H   0  0  0  0  0  0  0  0  0  0  0  0
  145.9975  140.6352  156.1099 H   0  0  0  0  0  0  0  0  0  0  0  0
  147.5680  140.9387  156.8251 H   0  0  0  0  0  0  0  0  0  0  0  0
  145.5907  141.4226  158.3309 H   0  0  0  0  0  0  0  0  0  0  0  0
  147.7251  142.4575  158.9110 H   0  0  0  0  0  0  0  0  0  0  0  0
  146.4150  143.5831  159.2420 H   0  0  0  0  0  0  0  0  0  0  0  0
  147.4382  143.8057  157.8249 H   0  0  0  0  0  0  0  0  0  0  0  0
  147.5992  143.0415  155.7272 H   0  0  0  0  0  0  0  0  0  0  0  0
  1  2  1  0  0  0  0
  1 24  1  0  0  0  0
  1 25  1  0  0  0  0
  1 26  1  0  0  0  0
  2 23  1  0  0  0  0
  2  3  1  0  0  0  0
  2 27  1  0  0  0  0
  3  4  1  0  0  0  0
  3 28  1  0  0  0  0
  3 29  1  0  0  0  0
  4  5  1  0  0  0  0
  4 20  1  0  0  0  0
  4 45  1  0  0  0  0
  5  6  1  0  0  0  0
  5 30  1  0  0  0  0
  5 31  1  0  0  0  0
  6  7  1  0  0  0  0
  6  8  1  0  0  0  0
  6 32  1  0  0  0  0
  7 33  1  0  0  0  0
  8  9  1  0  0  0  0
  8 34  1  0  0  0  0
  8 35  1  0  0  0  0
  9 19  1  0  0  0  0
  9 10  1  0  0  0  0
 10 11  2  0  0  0  0
 10 36  1  0  0  0  0
 11 12  1  0  0  0  0
 12 19  2  0  0  0  0
 12 13  1  0  0  0  0
 13 14  2  0  0  0  0
 13 37  1  0  0  0  0
 14 15  1  0  0  0  0
 14 16  1  0  0  0  0
 16 17  1  0  0  0  0
 16 18  2  0  0  0  0
 18 19  1  0  0  0  0
 18 38  1  0  0  0  0
 20 21  1  0  0  0  0
 20 39  1  0  0  0  0
 20 40  1  0  0  0  0
 21 22  1  0  0  0  0
 21 23  1  0  0  0  0
 21 41  1  0  0  0  0
 22 42  1  0  0  0  0
 22 43  1  0  0  0  0
 22 44  1  0  0  0  0
M  CHG  1   4   1
M  END
> <s_m_source_file>
AV-unprocessed.smi

> <i_m_source_file_index>
1824

> <i_lp_mmshare_version>
43012

> <i_f3d_flags>
0

> <s_epik_input>
W0NIM11bQ0BASF0xW0NIMl1OKFtDSDJdW0NASF0oTzEpW0NIM10pW0NIMl1bQ0BIXShbT0hdKVtDSDJdbihbY0hdbjIpYyhjMjMpW2NIXWMoRiljKEYpW2NIXTM=

> <s_epik_cmdline>
J2VwaWtfcHl0aG9uJywgJy1waCcsICc3LjAnLCAnLXRuJywgJzgnLCAnLW1hJywgJzIwMCcsICctbWV0YWxfYmluZGluZycsICctaW1hZScsICc8aW5maWxlLm1hZT4nLCAnLW9tYWUnLCAnPG91dGZpbGUubWFlPic=

> <r_epik_Ionization_Penalty>
0.61967

> <r_epik_Ionization_Penalty_Charging>
0.608065

> <r_epik_Ionization_Penalty_Neutral>
0.0116057

> <r_epik_State_Penalty>
0.664205

> <r_epik_Charging_Adjusted_Penalty>
1.27227

> <i_epik_Tot_Q>
1

> <i_epik_Tot_abs_Q>
1

> <r_epik_Metal_State_Penalty>
0.654947

> <b_epik_Metal_Only>
0

> <s_lp_Force_Field>
OPLS_2005

> <r_lp_Energy>
23.0579

> <b_lp_Chiralities_Consistent>
1

> <s_lp_Variant>
AV-unprocessed.smi:1824-9

> <Gold.Version>
5.8.1

> <Gold.Id.Protein>
6NUR|6NUR_protein|mol2

> <Gold.PLP.Fitness>
58.1398

> <Gold.PLP.PLP>
-45.1976

> <Gold.PLP.part.hbond>
-4.3818

> <Gold.PLP.part.metal>
0.0000

> <Gold.PLP.part.buried>
-1.3777

> <Gold.PLP.part.nonpolar>
-38.7754

> <Gold.PLP.part.repulsive>
0.1299

> <Gold.PLP.ligand.clash>
0.0000

> <Gold.PLP.ligand.torsion>
0.7926

> <Gold.PLP.Chemscore.Hbond>
4.8233

> <Gold.PLP.Chemscore.CHOScore>
0.0000

> <Gold.PLP.Chemscore.Metal>
0.0000

> <Gold.Chemscore.Hbonds>
donor molecule, donor type, donor heavy atom, donor atom, acceptor molecule, acceptor atom, score
      L1  H     4    45       P1  8028  1.72
      L1  H     7    33       P1  7957  0.59
      P1  H  7989  7998       L1     7  0.29
      P1  H  7997  8008       L1    11  0.96
      P1  H  8011  8017       L1     7  0.90

> <Gold.PLP.Chemscore.Internal.Correction>
0.0575

> <Gold.Rescore>
     Score         DG    S(hbond)    S(metal)    S(lipo)     H(rot)  DE(clash)    DE(int)     intcor
     14.93     -17.27       2.21        0.00      88.40       2.33       1.51       0.83       ----

> <Gold.Chemscore.Fitness>
14.9272

> <Gold.Chemscore.DG>
-17.2678

> <Gold.Chemscore.ZeroCoef>
-5.4800

> <Gold.Chemscore.Hbond>
2.2147

> <Gold.Chemscore.Metal>
0.0000

> <Gold.Chemscore.Lipo>
88.4033

> <Gold.Chemscore.Internal_Hbond>
0.0000

> <Gold.Chemscore.DEClash>
1.5086

> <Gold.Chemscore.DEInternal>
0.8321

> <Gold.Chemscore.Rot>
2.3251

> <Gold.Chemscore.Internal.Correction>
   9.000000E+99

> <Gold.Chemscore.Hbonds>
donor molecule, donor type, donor heavy atom, donor atom, acceptor molecule, acceptor atom, score
      L1  H     4    45       P1  8028  0.21
      L1  H     7    33       P1  7957  0.58
      P1  H  7989  7998       L1     7  0.26
      P1  H  7997  8008       L1    11  0.25
      P1  H  8011  8017       L1     7  0.15

> <Gold.Chemscore.Hbond.Weighted>
-7.3970

> <Gold.Chemscore.Metal.Weighted>
-0.0000

> <Gold.Chemscore.Lipo.Weighted>
-10.3432

> <Gold.Chemscore.Internal_Hbond.Weighted>
0.0000

> <Gold.Chemscore.DEClash.Weighted>
1.5086

> <Gold.Chemscore.DEInternal.Weighted>
0.8321

> <Gold.Chemscore.Rot.Weighted>
5.9523

> <Gold.Chemscore.Internal.Correction.Weighted>
   9.000000E+99

> <Gold.Protein.RotatedTorsions>
[ 6907 6896 6895 6894 ] final  128.04 input  -60.11 | X-H torsion
[ 7974 7965 7964 7962 ] final -126.38 input  175.53 | X-H torsion
[ 8008 7997 7996 7995 ] final  -51.60 input   59.86 | X-H torsion
[ 10167 10162 10161 10158 ] final   17.17 input  -65.29 | X-H torsion
[ 10718 10713 10712 10709 ] final  173.57 input   66.30 | X-H torsion
[ 10763 10752 10751 10750 ] final  -36.77 input  -60.55 | X-H torsion
[ 11005 11000 10999 10996 ] final  130.02 input  -57.11 | X-H torsion

> <Gold.Protein.ActiveResidues>
 VAL166  LYS551  ARG553  GLY616  TRP617  ASP618  TYR619  PRO620  LYS621  CYS622 
 ASP623  PHE694  ASN695  SER759  ASP760  ASP761  ALA762  ILE779  LEU786  VAL792 
 PHE793  MET794  SER795  GLU796  ALA797  LYS798  CYS799  TRP800  GLU811  SER814 

> <Gold.Protein.RotatedAtoms>
  152.3756  133.6477  159.6120 H   0  0  0  0  0  0  0  0  0  0  0  0  # atno 6907 bound_to 6896
  150.7701  133.9198  159.3403 H   0  0  0  0  0  0  0  0  0  0  0  0  # atno 6908 bound_to 6896
  151.7013  135.0931  160.0302 H   0  0  0  0  0  0  0  0  0  0  0  0  # atno 6909 bound_to 6896
  144.9878  140.7703  143.4572 H   0  0  0  0  0  0  0  0  0  0  0  0  # atno 7974 bound_to 7965
  154.4086  140.1244  156.4855 H   0  0  0  0  0  0  0  0  0  0  0  0  # atno 8008 bound_to 7997
  155.7043  140.3494  155.4926 H   0  0  0  0  0  0  0  0  0  0  0  0  # atno 8009 bound_to 7997
  155.9358  140.1078  157.1086 H   0  0  0  0  0  0  0  0  0  0  0  0  # atno 8010 bound_to 7997
  140.5745  143.9099  150.6739 H   0  0  0  0  0  0  0  0  0  0  0  0  # atno 10167 bound_to 10162
  156.9624  131.0065  151.2924 H   0  0  0  0  0  0  0  0  0  0  0  0  # atno 10718 bound_to 10713
  153.8853  135.6817  153.4764 H   0  0  0  0  0  0  0  0  0  0  0  0  # atno 10763 bound_to 10752
  153.1211  135.4739  154.9194 H   0  0  0  0  0  0  0  0  0  0  0  0  # atno 10764 bound_to 10752
  154.7649  135.3221  154.8258 H   0  0  0  0  0  0  0  0  0  0  0  0  # atno 10765 bound_to 10752
  139.9648  134.9593  156.9233 H   0  0  0  0  0  0  0  0  0  0  0  0  # atno 11005 bound_to 11000
  145.2328  139.2107  143.5033 LP  0  0  0  0  0  0  0  0  0  0  0  0  # atno 17320 bound_to 7965
  146.3424  140.2209  142.8591 LP  0  0  0  0  0  0  0  0  0  0  0  0  # atno 17321 bound_to 7965
  140.2583  143.3543  152.1346 LP  0  0  0  0  0  0  0  0  0  0  0  0  # atno 17342 bound_to 10162
  139.5135  144.6933  151.5699 LP  0  0  0  0  0  0  0  0  0  0  0  0  # atno 17343 bound_to 10162
  157.5649  130.8271  149.8314 LP  0  0  0  0  0  0  0  0  0  0  0  0  # atno 17370 bound_to 10713
  156.0317  130.3763  150.1671 LP  0  0  0  0  0  0  0  0  0  0  0  0  # atno 17371 bound_to 10713
  140.5420  134.0711  155.7344 LP  0  0  0  0  0  0  0  0  0  0  0  0  # atno 17394 bound_to 11000
  141.1327  133.9274  157.2500 LP  0  0  0  0  0  0  0  0  0  0  0  0  # atno 17395 bound_to 11000

$$$$
