AV-unprocessed.smi:165|AV-procd|sdf|1387|dock4
  -GOLD-   2262019123D 1   1.00000     0.00000
 Structure written by MMmdl.
 55 59  0  0  0  0  0  0  0  0  1 V2000
  146.6933  131.4096  149.0201 O   0  0  0  0  0  0  0  0  0  0  0  0
  145.7854  131.3253  150.0992 C   0  0  0  0  0  0  0  0  0  0  0  0
  145.2283  132.7040  150.4960 C   0  0  0  0  0  0  0  0  0  0  0  0
  144.1706  133.1458  149.4627 C   0  0  0  0  0  0  0  0  0  0  0  0
  143.0797  132.2507  149.3936 O   0  0  0  0  0  0  0  0  0  0  0  0
  144.7410  132.7932  151.9607 C   0  0  0  0  0  0  0  0  0  0  0  0
  145.3743  134.1804  152.0793 C   0  0  0  0  0  0  0  0  0  0  0  0
  145.9235  134.6474  153.3219 N   0  0  0  0  0  0  0  0  0  0  0  0
  145.6536  135.8530  153.9306 C   0  0  0  0  0  0  0  0  0  0  0  0
  146.2703  136.0582  155.0618 N   0  0  0  0  0  0  0  0  0  0  0  0
  147.0206  134.9042  155.2532 C   0  0  0  0  0  0  0  0  0  0  0  0
  147.9159  134.4652  156.2690 C   0  0  0  0  0  0  0  0  0  0  0  0
  148.1900  135.2092  157.3696 N   0  0  0  0  0  0  0  0  0  0  0  0
  149.4497  135.9421  157.4146 C   0  0  0  0  0  0  0  0  0  0  0  0
  149.4151  136.9651  158.5586 C   0  0  0  0  0  0  0  0  0  0  0  0
  149.0761  136.3203  159.7854 O   0  0  0  0  0  0  0  0  0  0  0  0
  147.8355  135.5999  159.7907 C   0  0  1  0  0  0  0  0  0  0  0  0
  147.7600  134.8610  161.1398 C   0  0  0  0  0  0  0  0  0  0  0  0
  147.5749  135.8476  162.2988 C   0  0  0  0  0  0  0  0  0  0  0  0
  146.3738  136.7647  162.0321 C   0  0  0  0  0  0  0  0  0  0  0  0
  146.5479  137.4356  160.7903 O   0  0  0  0  0  0  0  0  0  0  0  0
  146.6141  136.5504  159.6763 C   0  0  0  0  0  0  0  0  0  0  0  0
  147.8613  134.5700  158.6389 C   0  0  0  0  0  0  0  0  0  0  0  0
  148.5014  133.2489  156.1055 N   0  0  0  0  0  0  0  0  0  0  0  0
  148.2217  132.5059  155.0308 C   0  0  0  0  0  0  0  0  0  0  0  0
  147.4029  132.7838  154.0149 N   0  0  0  0  0  0  0  0  0  0  0  0
  146.8198  134.0081  154.1651 C   0  0  0  0  0  0  0  0  0  0  0  0
  146.2710  133.7684  150.9111 C   0  0  0  0  0  0  0  0  0  0  0  0
  147.5725  131.4084  149.3662 H   0  0  0  0  0  0  0  0  0  0  0  0
  144.9842  130.6341  149.8358 H   0  0  0  0  0  0  0  0  0  0  0  0
  146.3190  130.8703  150.9344 H   0  0  0  0  0  0  0  0  0  0  0  0
  143.7912  134.1423  149.6912 H   0  0  0  0  0  0  0  0  0  0  0  0
  144.6019  133.2099  148.4634 H   0  0  0  0  0  0  0  0  0  0  0  0
  142.2791  132.7522  149.3828 H   0  0  0  0  0  0  0  0  0  0  0  0
  143.6577  132.7821  152.0852 H   0  0  0  0  0  0  0  0  0  0  0  0
  145.2106  132.0580  152.6157 H   0  0  0  0  0  0  0  0  0  0  0  0
  144.6655  134.9417  151.7482 H   0  0  0  0  0  0  0  0  0  0  0  0
  144.9796  136.5840  153.5081 H   0  0  0  0  0  0  0  0  0  0  0  0
  150.2714  135.2409  157.5665 H   0  0  0  0  0  0  0  0  0  0  0  0
  149.6267  136.4547  156.4681 H   0  0  0  0  0  0  0  0  0  0  0  0
  150.3948  137.4296  158.6696 H   0  0  0  0  0  0  0  0  0  0  0  0
  148.7178  137.7732  158.3395 H   0  0  0  0  0  0  0  0  0  0  0  0
  146.9204  134.1647  161.1300 H   0  0  0  0  0  0  0  0  0  0  0  0
  148.6568  134.2606  161.2977 H   0  0  0  0  0  0  0  0  0  0  0  0
  147.4328  135.3052  163.2337 H   0  0  0  0  0  0  0  0  0  0  0  0
  148.4757  136.4504  162.4204 H   0  0  0  0  0  0  0  0  0  0  0  0
  145.4427  136.1961  162.0234 H   0  0  0  0  0  0  0  0  0  0  0  0
  146.2863  137.5077  162.8248 H   0  0  0  0  0  0  0  0  0  0  0  0
  146.6397  137.1379  158.7597 H   0  0  0  0  0  0  0  0  0  0  0  0
  145.6908  135.9709  159.6277 H   0  0  0  0  0  0  0  0  0  0  0  0
  146.9059  134.0482  158.5909 H   0  0  0  0  0  0  0  0  0  0  0  0
  148.6169  133.8088  158.8387 H   0  0  0  0  0  0  0  0  0  0  0  0
  148.7253  131.5520  154.9781 H   0  0  0  0  0  0  0  0  0  0  0  0
  147.2168  133.3284  151.2307 H   0  0  0  0  0  0  0  0  0  0  0  0
  146.4420  134.5572  150.1780 H   0  0  0  0  0  0  0  0  0  0  0  0
  1  2  1  0  0  0  0
  1 29  1  0  0  0  0
  2  3  1  0  0  0  0
  2 30  1  0  0  0  0
  2 31  1  0  0  0  0
  3 28  1  0  0  0  0
  3  4  1  0  0  0  0
  3  6  1  0  0  0  0
  4  5  1  0  0  0  0
  4 32  1  0  0  0  0
  4 33  1  0  0  0  0
  5 34  1  0  0  0  0
  6  7  1  0  0  0  0
  6 35  1  0  0  0  0
  6 36  1  0  0  0  0
  7  8  1  0  0  0  0
  7 28  1  0  0  0  0
  7 37  1  0  0  0  0
  8 27  1  0  0  0  0
  8  9  1  0  0  0  0
  9 10  2  0  0  0  0
  9 38  1  0  0  0  0
 10 11  1  0  0  0  0
 11 27  2  0  0  0  0
 11 12  1  0  0  0  0
 12 13  1  0  0  0  0
 12 24  2  0  0  0  0
 13 23  1  0  0  0  0
 13 14  1  0  0  0  0
 14 15  1  0  0  0  0
 14 39  1  0  0  0  0
 14 40  1  0  0  0  0
 15 16  1  0  0  0  0
 15 41  1  0  0  0  0
 15 42  1  0  0  0  0
 16 17  1  0  0  0  0
 17 22  1  0  0  0  0
 17 18  1  0  0  0  0
 17 23  1  0  0  0  0
 18 19  1  0  0  0  0
 18 43  1  0  0  0  0
 18 44  1  0  0  0  0
 19 20  1  0  0  0  0
 19 45  1  0  0  0  0
 19 46  1  0  0  0  0
 20 21  1  0  0  0  0
 20 47  1  0  0  0  0
 20 48  1  0  0  0  0
 21 22  1  0  0  0  0
 22 49  1  0  0  0  0
 22 50  1  0  0  0  0
 23 51  1  0  0  0  0
 23 52  1  0  0  0  0
 24 25  1  0  0  0  0
 25 26  2  0  0  0  0
 25 53  1  0  0  0  0
 26 27  1  0  0  0  0
 28 54  1  0  0  0  0
 28 55  1  0  0  0  0
M  END
> <s_m_source_file>
AV-unprocessed.smi

> <i_m_source_file_index>
165

> <i_lp_mmshare_version>
43012

> <i_f3d_flags>
0

> <s_epik_input>
W09IXVtDSDJdQzEoW0NIMl1bT0hdKVtDSDJdW0NIXShbQ0gyXTEpbihbY0hdbjIpYyhjMjMpbltjSF1uYzNOKFtDSDJdNClbQ0gyXVtDSDJdT1tDQEBdNDVbQ0gyXVtDSDJdW0NIMl1PW0NIMl01

> <s_epik_cmdline>
J2VwaWtfcHl0aG9uJywgJy1waCcsICc3LjAnLCAnLXRuJywgJzgnLCAnLW1hJywgJzIwMCcsICctbWV0YWxfYmluZGluZycsICctaW1hZScsICc8aW5maWxlLm1hZT4nLCAnLW9tYWUnLCAnPG91dGZpbGUubWFlPic=

> <r_lp_tautomer_probability>
1

> <r_epik_Ionization_Penalty>
0.00466923

> <r_epik_Ionization_Penalty_Charging>
0

> <r_epik_Ionization_Penalty_Neutral>
0.00466923

> <r_epik_State_Penalty>
0.0032353

> <r_epik_Charging_Adjusted_Penalty>
0.0032353

> <i_epik_Tot_Q>
0

> <i_epik_Tot_abs_Q>
0

> <r_epik_Metal_State_Penalty>
-0

> <b_epik_Metal_Only>
0

> <s_lp_Force_Field>
OPLS_2005

> <r_lp_Energy>
53.1571

> <b_lp_Chiralities_Consistent>
1

> <s_lp_Variant>
AV-unprocessed.smi:165-2

> <Gold.Version>
5.8.1

> <Gold.Id.Protein>
6NUR|6NUR_protein|mol2

> <Gold.PLP.Fitness>
45.5105

> <Gold.PLP.PLP>
-35.9524

> <Gold.PLP.part.hbond>
-5.0692

> <Gold.PLP.part.metal>
0.0000

> <Gold.PLP.part.buried>
-7.0875

> <Gold.PLP.part.nonpolar>
-23.9692

> <Gold.PLP.part.repulsive>
0.1040

> <Gold.PLP.ligand.clash>
0.0000

> <Gold.PLP.ligand.torsion>
0.6158

> <Gold.PLP.Chemscore.Hbond>
3.3488

> <Gold.PLP.Chemscore.CHOScore>
0.0000

> <Gold.PLP.Chemscore.Metal>
0.0000

> <Gold.Chemscore.Hbonds>
donor molecule, donor type, donor heavy atom, donor atom, acceptor molecule, acceptor atom, score
      L1  H     1    29       P1 10747  1.00
      L1  H     5    34       P1 10186  0.84
      P1  H  6934  6947       L1    21  1.00
      P1  H 10785 10796       L1     5  0.55

> <Gold.PLP.Chemscore.Internal.Correction>
0.7435

> <Gold.Rescore>
     Score         DG    S(hbond)    S(metal)    S(lipo)     H(rot)  DE(clash)    DE(int)     intcor
     17.95     -18.56       3.36        0.00      84.47       3.14       0.00       0.60       ----

> <Gold.Chemscore.Fitness>
17.9490

> <Gold.Chemscore.DG>
-18.5569

> <Gold.Chemscore.ZeroCoef>
-5.4800

> <Gold.Chemscore.Hbond>
3.3592

> <Gold.Chemscore.Metal>
0.0000

> <Gold.Chemscore.Lipo>
84.4722

> <Gold.Chemscore.Internal_Hbond>
0.0000

> <Gold.Chemscore.DEClash>
0.0033

> <Gold.Chemscore.DEInternal>
0.6046

> <Gold.Chemscore.Rot>
3.1351

> <Gold.Chemscore.Internal.Correction>
   9.000000E+99

> <Gold.Chemscore.Hbonds>
donor molecule, donor type, donor heavy atom, donor atom, acceptor molecule, acceptor atom, score
      L1  H     1    29       P1 10747  0.99
      L1  H     5    34       P1 10186  0.82
      P1  H  6934  6947       L1    21  0.88
      P1  H 10785 10796       L1     5  0.53

> <Gold.Chemscore.Hbond.Weighted>
-11.2196

> <Gold.Chemscore.Metal.Weighted>
-0.0000

> <Gold.Chemscore.Lipo.Weighted>
-9.8833

> <Gold.Chemscore.Internal_Hbond.Weighted>
0.0000

> <Gold.Chemscore.DEClash.Weighted>
0.0033

> <Gold.Chemscore.DEInternal.Weighted>
0.6046

> <Gold.Chemscore.Rot.Weighted>
8.0260

> <Gold.Chemscore.Internal.Correction.Weighted>
   9.000000E+99

> <Gold.Protein.RotatedTorsions>
[ 6907 6896 6895 6894 ] final    0.67 input  -60.11 | X-H torsion
[ 7974 7965 7964 7962 ] final -163.12 input  175.53 | X-H torsion
[ 8008 7997 7996 7995 ] final   46.85 input   59.86 | X-H torsion
[ 10167 10162 10161 10158 ] final  116.39 input  -65.29 | X-H torsion
[ 10718 10713 10712 10709 ] final  -32.80 input   66.30 | X-H torsion
[ 10763 10752 10751 10750 ] final   59.63 input  -60.55 | X-H torsion
[ 11005 11000 10999 10996 ] final   60.94 input  -57.11 | X-H torsion

> <Gold.Protein.ActiveResidues>
 VAL166  LYS551  ARG553  GLY616  TRP617  ASP618  TYR619  PRO620  LYS621  CYS622 
 ASP623  PHE694  ASN695  SER759  ASP760  ASP761  ALA762  ILE779  LEU786  VAL792 
 PHE793  MET794  SER795  GLU796  ALA797  LYS798  CYS799  TRP800  GLU811  SER814 

> <Gold.Protein.RotatedAtoms>
  151.5802  135.1059  160.0015 H   0  0  0  0  0  0  0  0  0  0  0  0  # atno 6907 bound_to 6896
  152.4358  133.7353  159.6621 H   0  0  0  0  0  0  0  0  0  0  0  0  # atno 6908 bound_to 6896
  150.8255  133.8109  159.3143 H   0  0  0  0  0  0  0  0  0  0  0  0  # atno 6909 bound_to 6896
  144.7336  140.3154  143.6180 H   0  0  0  0  0  0  0  0  0  0  0  0  # atno 7974 bound_to 7965
  155.3594  140.3418  155.4240 H   0  0  0  0  0  0  0  0  0  0  0  0  # atno 8008 bound_to 7997
  156.1722  140.1635  156.8462 H   0  0  0  0  0  0  0  0  0  0  0  0  # atno 8009 bound_to 7997
  154.5244  140.0759  156.8215 H   0  0  0  0  0  0  0  0  0  0  0  0  # atno 8010 bound_to 7997
  139.6251  144.7107  151.2552 H   0  0  0  0  0  0  0  0  0  0  0  0  # atno 10167 bound_to 10162
  156.3704  130.4338  149.7550 H   0  0  0  0  0  0  0  0  0  0  0  0  # atno 10718 bound_to 10713
  152.9899  135.5565  154.5744 H   0  0  0  0  0  0  0  0  0  0  0  0  # atno 10763 bound_to 10752
  154.5137  135.2804  155.1323 H   0  0  0  0  0  0  0  0  0  0  0  0  # atno 10764 bound_to 10752
  154.2704  135.6364  153.5361 H   0  0  0  0  0  0  0  0  0  0  0  0  # atno 10765 bound_to 10752
  140.0196  134.6172  155.9658 H   0  0  0  0  0  0  0  0  0  0  0  0  # atno 11005 bound_to 11000
  145.7623  139.1829  143.2260 LP  0  0  0  0  0  0  0  0  0  0  0  0  # atno 17320 bound_to 7965
  146.0977  140.7581  142.9564 LP  0  0  0  0  0  0  0  0  0  0  0  0  # atno 17321 bound_to 7965
  140.7406  143.6584  150.8186 LP  0  0  0  0  0  0  0  0  0  0  0  0  # atno 17342 bound_to 10162
  140.0200  143.5552  152.2804 LP  0  0  0  0  0  0  0  0  0  0  0  0  # atno 17343 bound_to 10162
  156.4679  130.7983  151.3001 LP  0  0  0  0  0  0  0  0  0  0  0  0  # atno 17370 bound_to 10713
  157.7483  131.0045  150.3078 LP  0  0  0  0  0  0  0  0  0  0  0  0  # atno 17371 bound_to 10713
  141.1765  133.6541  156.4850 LP  0  0  0  0  0  0  0  0  0  0  0  0  # atno 17394 bound_to 11000
  140.4410  134.7016  157.4991 LP  0  0  0  0  0  0  0  0  0  0  0  0  # atno 17395 bound_to 11000

$$$$
