AV-unprocessed.smi:1851|AV-procd|sdf|7524|dock7
  -GOLD-   22720 9233D 1   1.00000     0.00000
 Structure written by MMmdl.
 40 42  0  0  0  0  0  0  0  0  2 V2000
  146.7328  140.0588  153.6563 O   0  0  0  0  0  0  0  0  0  0  0  0
  147.4792  139.1680  153.2536 C   0  0  0  0  0  0  0  0  0  0  0  0
  147.0611  137.9656  152.8333 N   0  0  0  0  0  0  0  0  0  0  0  0
  145.6639  137.5525  152.7394 C   0  0  0  0  0  0  0  0  0  0  0  0
  145.4612  136.1716  152.1897 C   0  0  0  0  0  0  0  0  0  0  0  0
  146.4204  135.3291  151.7062 N   0  3  0  0  0  0  0  0  0  0  0  0
  145.8355  134.1354  151.2824 C   0  0  0  0  0  0  0  0  0  0  0  0
  146.3974  132.9920  150.7228 C   0  0  0  0  0  0  0  0  0  0  0  0
  145.5097  131.9450  150.3980 C   0  0  0  0  0  0  0  0  0  0  0  0
  144.1234  132.0585  150.6312 C   0  0  0  0  0  0  0  0  0  0  0  0
  143.5661  133.2223  151.2011 C   0  0  0  0  0  0  0  0  0  0  0  0
  144.4514  134.2513  151.5202 C   0  0  0  0  0  0  0  0  0  0  0  0
  144.2686  135.5179  152.0848 N   0  0  0  0  0  0  0  0  0  0  0  0
  142.9154  135.9460  152.4607 C   0  0  0  0  0  0  0  0  0  0  0  0
  142.6277  135.7022  153.9469 C   0  0  0  0  0  0  0  0  0  0  0  0
  141.2223  135.5926  154.1182 O   0  0  0  0  0  0  0  0  0  0  0  0
  140.4505  136.7163  153.9157 C   0  0  0  0  0  0  0  0  0  0  0  0
  139.0602  136.5796  154.1085 C   0  0  0  0  0  0  0  0  0  0  0  0
  138.1952  137.6752  153.9233 C   0  0  0  0  0  0  0  0  0  0  0  0
  138.7158  138.9255  153.5411 C   0  0  0  0  0  0  0  0  0  0  0  0
  137.6584  140.2696  153.3135 Cl  0  0  0  0  0  0  0  0  0  0  0  0
  140.1014  139.0764  153.3455 C   0  0  0  0  0  0  0  0  0  0  0  0
  140.9663  137.9803  153.5313 C   0  0  0  0  0  0  0  0  0  0  0  0
  148.5755  139.2474  153.1930 H   0  0  0  0  0  0  0  0  0  0  0  0
  147.7569  137.3012  152.5260 H   0  0  0  0  0  0  0  0  0  0  0  0
  145.1829  137.6207  153.7164 H   0  0  0  0  0  0  0  0  0  0  0  0
  145.1493  138.2630  152.0921 H   0  0  0  0  0  0  0  0  0  0  0  0
  147.4588  132.9033  150.5429 H   0  0  0  0  0  0  0  0  0  0  0  0
  145.8995  131.0371  149.9607 H   0  0  0  0  0  0  0  0  0  0  0  0
  143.4737  131.2364  150.3680 H   0  0  0  0  0  0  0  0  0  0  0  0
  142.5031  133.3003  151.3752 H   0  0  0  0  0  0  0  0  0  0  0  0
  142.7941  136.9988  152.2031 H   0  0  0  0  0  0  0  0  0  0  0  0
  142.2056  135.3934  151.8445 H   0  0  0  0  0  0  0  0  0  0  0  0
  143.1206  134.7848  154.2726 H   0  0  0  0  0  0  0  0  0  0  0  0
  143.0165  136.5297  154.5424 H   0  0  0  0  0  0  0  0  0  0  0  0
  138.6519  135.6235  154.4016 H   0  0  0  0  0  0  0  0  0  0  0  0
  137.1326  137.5537  154.0752 H   0  0  0  0  0  0  0  0  0  0  0  0
  140.5040  140.0350  153.0526 H   0  0  0  0  0  0  0  0  0  0  0  0
  142.0224  138.1359  153.3722 H   0  0  0  0  0  0  0  0  0  0  0  0
  147.4055  135.5584  151.6751 H   0  0  0  0  0  0  0  0  0  0  0  0
  1  2  2  0  0  0  0
  2  3  1  0  0  0  0
  2 24  1  0  0  0  0
  3  4  1  0  0  0  0
  3 25  1  0  0  0  0
  4  5  1  0  0  0  0
  4 26  1  0  0  0  0
  4 27  1  0  0  0  0
  5 13  1  0  0  0  0
  5  6  2  0  0  0  0
  6  7  1  0  0  0  0
  6 40  1  0  0  0  0
  7 12  2  0  0  0  0
  7  8  1  0  0  0  0
  8  9  2  0  0  0  0
  8 28  1  0  0  0  0
  9 10  1  0  0  0  0
  9 29  1  0  0  0  0
 10 11  2  0  0  0  0
 10 30  1  0  0  0  0
 11 12  1  0  0  0  0
 11 31  1  0  0  0  0
 12 13  1  0  0  0  0
 13 14  1  0  0  0  0
 14 15  1  0  0  0  0
 14 32  1  0  0  0  0
 14 33  1  0  0  0  0
 15 16  1  0  0  0  0
 15 34  1  0  0  0  0
 15 35  1  0  0  0  0
 16 17  1  0  0  0  0
 17 23  1  0  0  0  0
 17 18  2  0  0  0  0
 18 19  1  0  0  0  0
 18 36  1  0  0  0  0
 19 20  2  0  0  0  0
 19 37  1  0  0  0  0
 20 21  1  0  0  0  0
 20 22  1  0  0  0  0
 22 23  2  0  0  0  0
 22 38  1  0  0  0  0
 23 39  1  0  0  0  0
M  CHG  1   6   1
M  END
> <s_m_source_file>
AV-unprocessed.smi

> <i_m_source_file_index>
1851

> <i_lp_mmshare_version>
43012

> <i_f3d_flags>
0

> <s_epik_input>
Tz1bQ0hdW05IXVtDSDJdYyhuMSluKGMoYzEyKVtjSF1bY0hdW2NIXVtjSF0yKVtDSDJdW0NIMl1PYzNbY0hdW2NIXWMoQ2wpW2NIXVtjSF0z

> <s_epik_cmdline>
J2VwaWtfcHl0aG9uJywgJy1waCcsICc3LjAnLCAnLXRuJywgJzgnLCAnLW1hJywgJzIwMCcsICctbWV0YWxfYmluZGluZycsICctaW1hZScsICc8aW5maWxlLm1hZT4nLCAnLW9tYWUnLCAnPG91dGZpbGUubWFlPic=

> <r_lp_tautomer_probability>
1

> <r_epik_Ionization_Penalty>
1.32442

> <r_epik_Ionization_Penalty_Charging>
1.32442

> <r_epik_Ionization_Penalty_Neutral>
7.38905e-08

> <r_epik_State_Penalty>
1.4003

> <r_epik_Charging_Adjusted_Penalty>
2.72472

> <i_epik_Tot_Q>
1

> <i_epik_Tot_abs_Q>
1

> <r_epik_Metal_State_Penalty>
1.46133

> <b_epik_Metal_Only>
0

> <s_lp_Force_Field>
OPLS_2005

> <r_lp_Energy>
15.621

> <b_lp_Chiralities_Consistent>
1

> <s_lp_Variant>
AV-unprocessed.smi:1851-2

> <Gold.Version>
5.8.1

> <Gold.Id.Protein>
6NUR|6NUR_protein|mol2

> <Gold.PLP.Fitness>
55.6038

> <Gold.PLP.PLP>
-46.3246

> <Gold.PLP.part.hbond>
-2.9096

> <Gold.PLP.part.metal>
0.0000

> <Gold.PLP.part.buried>
-6.3122

> <Gold.PLP.part.nonpolar>
-38.7567

> <Gold.PLP.part.repulsive>
0.3871

> <Gold.PLP.ligand.clash>
0.0000

> <Gold.PLP.ligand.torsion>
0.5059

> <Gold.PLP.Chemscore.Hbond>
3.4147

> <Gold.PLP.Chemscore.CHOScore>
0.0000

> <Gold.PLP.Chemscore.Metal>
0.0000

> <Gold.Chemscore.Hbonds>
donor molecule, donor type, donor heavy atom, donor atom, acceptor molecule, acceptor atom, score
      L1  H     3    25       P1  7948  1.00
      L1  H     6    40       P1  7948  2.00
      P1  H 11000 11005       L1    16  0.41

> <Gold.PLP.Chemscore.Internal.Correction>
0.0470

> <Gold.Rescore>
     Score         DG    S(hbond)    S(metal)    S(lipo)     H(rot)  DE(clash)    DE(int)     intcor
     19.35     -19.92       2.44        0.00     108.11       2.49       0.03       0.54       ----

> <Gold.Chemscore.Fitness>
19.3548

> <Gold.Chemscore.DG>
-19.9238

> <Gold.Chemscore.ZeroCoef>
-5.4800

> <Gold.Chemscore.Hbond>
2.4424

> <Gold.Chemscore.Metal>
0.0000

> <Gold.Chemscore.Lipo>
108.1115

> <Gold.Chemscore.Internal_Hbond>
0.0000

> <Gold.Chemscore.DEClash>
0.0308

> <Gold.Chemscore.DEInternal>
0.5382

> <Gold.Chemscore.Rot>
2.4854

> <Gold.Chemscore.Internal.Correction>
   9.000000E+99

> <Gold.Chemscore.Hbonds>
donor molecule, donor type, donor heavy atom, donor atom, acceptor molecule, acceptor atom, score
      L1  H     3    25       P1  7948  1.00
      L1  H     6    40       P1  7948  0.99
      P1  H 11000 11005       L1    16  0.31

> <Gold.Chemscore.Hbond.Weighted>
-8.1575

> <Gold.Chemscore.Metal.Weighted>
-0.0000

> <Gold.Chemscore.Lipo.Weighted>
-12.6491

> <Gold.Chemscore.Internal_Hbond.Weighted>
0.0000

> <Gold.Chemscore.DEClash.Weighted>
0.0308

> <Gold.Chemscore.DEInternal.Weighted>
0.5382

> <Gold.Chemscore.Rot.Weighted>
6.3627

> <Gold.Chemscore.Internal.Correction.Weighted>
   9.000000E+99

> <Gold.Protein.RotatedTorsions>
[ 6907 6896 6895 6894 ] final   97.00 input  -60.11 | X-H torsion
[ 7974 7965 7964 7962 ] final  138.88 input  175.53 | X-H torsion
[ 8008 7997 7996 7995 ] final  119.99 input   59.86 | X-H torsion
[ 10167 10162 10161 10158 ] final  -37.23 input  -65.29 | X-H torsion
[ 10718 10713 10712 10709 ] final   12.54 input   66.30 | X-H torsion
[ 10763 10752 10751 10750 ] final  -69.13 input  -60.55 | X-H torsion
[ 11005 11000 10999 10996 ] final   28.33 input  -57.11 | X-H torsion

> <Gold.Protein.ActiveResidues>
 VAL166  LYS551  ARG553  GLY616  TRP617  ASP618  TYR619  PRO620  LYS621  CYS622 
 ASP623  PHE694  ASN695  SER759  ASP760  ASP761  ALA762  ILE779  LEU786  VAL792 
 PHE793  MET794  SER795  GLU796  ALA797  LYS798  CYS799  TRP800  GLU811  SER814 

> <Gold.Protein.RotatedAtoms>
  152.5429  134.0801  159.8231 H   0  0  0  0  0  0  0  0  0  0  0  0  # atno 6907 bound_to 6896
  151.0904  133.5313  159.2622 H   0  0  0  0  0  0  0  0  0  0  0  0  # atno 6908 bound_to 6896
  151.2107  135.0488  159.8964 H   0  0  0  0  0  0  0  0  0  0  0  0  # atno 6909 bound_to 6896
  144.9331  139.5022  143.5608 H   0  0  0  0  0  0  0  0  0  0  0  0  # atno 7974 bound_to 7965
  156.2622  140.2840  156.1079 H   0  0  0  0  0  0  0  0  0  0  0  0  # atno 8008 bound_to 7997
  155.1289  140.0393  157.2787 H   0  0  0  0  0  0  0  0  0  0  0  0  # atno 8009 bound_to 7997
  154.6614  140.2567  155.7111 H   0  0  0  0  0  0  0  0  0  0  0  0  # atno 8010 bound_to 7997
  140.7123  143.3356  151.2471 H   0  0  0  0  0  0  0  0  0  0  0  0  # atno 10167 bound_to 10162
  157.0116  130.6119  149.5709 H   0  0  0  0  0  0  0  0  0  0  0  0  # atno 10718 bound_to 10713
  154.3991  135.6035  153.5886 H   0  0  0  0  0  0  0  0  0  0  0  0  # atno 10763 bound_to 10752
  152.9788  135.5902  154.4206 H   0  0  0  0  0  0  0  0  0  0  0  0  # atno 10764 bound_to 10752
  154.4002  135.2843  155.2079 H   0  0  0  0  0  0  0  0  0  0  0  0  # atno 10765 bound_to 10752
  140.3167  134.2588  155.7724 H   0  0  0  0  0  0  0  0  0  0  0  0  # atno 11005 bound_to 11000
  146.3255  139.8296  142.8911 LP  0  0  0  0  0  0  0  0  0  0  0  0  # atno 17320 bound_to 7965
  145.3110  141.0220  143.3554 LP  0  0  0  0  0  0  0  0  0  0  0  0  # atno 17321 bound_to 7965
  139.6849  143.9790  152.2829 LP  0  0  0  0  0  0  0  0  0  0  0  0  # atno 17342 bound_to 10162
  139.9432  144.6668  150.8245 LP  0  0  0  0  0  0  0  0  0  0  0  0  # atno 17343 bound_to 10162
  156.0134  130.5227  150.8060 LP  0  0  0  0  0  0  0  0  0  0  0  0  # atno 17370 bound_to 10713
  157.5316  131.0937  150.9947 LP  0  0  0  0  0  0  0  0  0  0  0  0  # atno 17371 bound_to 10713
  141.2096  133.7744  156.9987 LP  0  0  0  0  0  0  0  0  0  0  0  0  # atno 17394 bound_to 11000
  140.0977  134.9554  157.1875 LP  0  0  0  0  0  0  0  0  0  0  0  0  # atno 17395 bound_to 11000

$$$$
