AV-unprocessed.smi:1040|AV-procd|sdf|4527|dock4
  -GOLD-   22720 2543D 1   1.00000     0.00000
 Structure written by MMmdl.
 55 56  0  0  0  0  0  0  0  0  2 V2000
  148.3442  134.9899  157.9344 C   0  0  0  0  0  0  0  0  0  0  0  0
  148.8998  136.0388  158.9117 C   0  0  1  0  0  0  0  0  0  0  0  0
  148.9645  137.3523  158.2746 N   0  0  0  0  0  0  0  0  0  0  0  0
  149.8717  138.3058  158.5259 C   0  0  0  0  0  0  0  0  0  0  0  0
  150.8093  138.1703  159.3117 O   0  0  0  0  0  0  0  0  0  0  0  0
  149.6025  139.4203  157.8273 N   0  0  0  0  0  0  0  0  0  0  0  0
  150.2869  140.6677  157.8641 C   0  0  0  0  0  0  0  0  0  0  0  0
  151.3967  140.8956  158.7168 C   0  0  0  0  0  0  0  0  0  0  0  0
  152.0371  142.1503  158.7091 C   0  0  0  0  0  0  0  0  0  0  0  0
  151.5624  143.1551  157.8466 C   0  0  0  0  0  0  0  0  0  0  0  0
  150.5125  142.9023  157.0376 N   0  3  0  0  0  0  0  0  0  0  0  0
  149.8625  141.7130  157.0005 C   0  0  0  0  0  0  0  0  0  0  0  0
  148.7862  141.5595  156.1050 N   0  0  0  0  0  0  0  0  0  0  0  0
  147.5333  142.2274  156.4553 C   0  0  0  0  0  0  0  0  0  0  0  0
  146.3757  141.6958  155.5928 C   0  0  0  0  0  0  0  0  0  0  0  0
  146.7070  141.8088  154.0957 C   0  0  0  0  0  0  0  0  0  0  0  0
  148.0477  141.1205  153.7913 C   0  0  0  0  0  0  0  0  0  0  0  0
  149.1654  141.6643  154.6974 C   0  0  0  0  0  0  0  0  0  0  0  0
  148.1203  136.1143  160.2300 C   0  0  0  0  0  0  0  0  0  0  0  0
  147.7967  137.2076  160.6966 O   0  0  0  0  0  0  0  0  0  0  0  0
  147.8167  134.9367  160.8049 N   0  0  0  0  0  0  0  0  0  0  0  0
  147.0863  134.6935  162.0549 C   0  0  0  0  0  0  0  0  0  0  0  0
  147.6811  135.6407  163.1118 C   0  0  0  0  0  0  0  0  0  0  0  0
  147.2791  133.2355  162.5231 C   0  0  0  0  0  0  0  0  0  0  0  0
  145.5870  135.0163  161.8811 C   0  0  0  0  0  0  0  0  0  0  0  0
  148.3094  134.0017  158.3947 H   0  0  0  0  0  0  0  0  0  0  0  0
  148.9658  134.9114  157.0422 H   0  0  0  0  0  0  0  0  0  0  0  0
  147.3325  135.2422  157.6143 H   0  0  0  0  0  0  0  0  0  0  0  0
  149.9189  135.7438  159.1712 H   0  0  0  0  0  0  0  0  0  0  0  0
  148.2300  137.5581  157.6130 H   0  0  0  0  0  0  0  0  0  0  0  0
  148.7445  139.4108  157.2957 H   0  0  0  0  0  0  0  0  0  0  0  0
  151.7737  140.1233  159.3700 H   0  0  0  0  0  0  0  0  0  0  0  0
  152.8827  142.3372  159.3549 H   0  0  0  0  0  0  0  0  0  0  0  0
  151.9921  144.1439  157.7738 H   0  0  0  0  0  0  0  0  0  0  0  0
  147.3090  142.0669  157.5107 H   0  0  0  0  0  0  0  0  0  0  0  0
  147.6410  143.3030  156.3072 H   0  0  0  0  0  0  0  0  0  0  0  0
  146.1820  140.6523  155.8458 H   0  0  0  0  0  0  0  0  0  0  0  0
  145.4604  142.2441  155.8171 H   0  0  0  0  0  0  0  0  0  0  0  0
  145.9107  141.3638  153.4984 H   0  0  0  0  0  0  0  0  0  0  0  0
  146.7612  142.8600  153.8101 H   0  0  0  0  0  0  0  0  0  0  0  0
  147.9486  140.0444  153.9409 H   0  0  0  0  0  0  0  0  0  0  0  0
  148.3126  141.2646  152.7435 H   0  0  0  0  0  0  0  0  0  0  0  0
  149.3569  142.7120  154.4625 H   0  0  0  0  0  0  0  0  0  0  0  0
  150.0927  141.1255  154.5011 H   0  0  0  0  0  0  0  0  0  0  0  0
  148.1292  134.1079  160.3200 H   0  0  0  0  0  0  0  0  0  0  0  0
  147.1868  135.5196  164.0765 H   0  0  0  0  0  0  0  0  0  0  0  0
  147.5719  136.6853  162.8175 H   0  0  0  0  0  0  0  0  0  0  0  0
  148.7446  135.4513  163.2637 H   0  0  0  0  0  0  0  0  0  0  0  0
  148.3364  132.9839  162.6143 H   0  0  0  0  0  0  0  0  0  0  0  0
  146.8282  132.5196  161.8360 H   0  0  0  0  0  0  0  0  0  0  0  0
  146.8194  133.0725  163.4985 H   0  0  0  0  0  0  0  0  0  0  0  0
  145.0552  134.9286  162.8290 H   0  0  0  0  0  0  0  0  0  0  0  0
  145.0985  134.3405  161.1792 H   0  0  0  0  0  0  0  0  0  0  0  0
  145.4395  136.0335  161.5160 H   0  0  0  0  0  0  0  0  0  0  0  0
  150.1945  143.6458  156.4158 H   0  0  0  0  0  0  0  0  0  0  0  0
  1  2  1  0  0  0  0
  1 26  1  0  0  0  0
  1 27  1  0  0  0  0
  1 28  1  0  0  0  0
  2  3  1  0  0  0  0
  2 19  1  0  0  0  0
  2 29  1  0  0  0  0
  3  4  1  0  0  0  0
  3 30  1  0  0  0  0
  4  5  2  0  0  0  0
  4  6  1  0  0  0  0
  6  7  1  0  0  0  0
  6 31  1  0  0  0  0
  7 12  1  0  0  0  0
  7  8  2  0  0  0  0
  8  9  1  0  0  0  0
  8 32  1  0  0  0  0
  9 10  2  0  0  0  0
  9 33  1  0  0  0  0
 10 11  1  0  0  0  0
 10 34  1  0  0  0  0
 11 12  2  0  0  0  0
 11 55  1  0  0  0  0
 12 13  1  0  0  0  0
 13 18  1  0  0  0  0
 13 14  1  0  0  0  0
 14 15  1  0  0  0  0
 14 35  1  0  0  0  0
 14 36  1  0  0  0  0
 15 16  1  0  0  0  0
 15 37  1  0  0  0  0
 15 38  1  0  0  0  0
 16 17  1  0  0  0  0
 16 39  1  0  0  0  0
 16 40  1  0  0  0  0
 17 18  1  0  0  0  0
 17 41  1  0  0  0  0
 17 42  1  0  0  0  0
 18 43  1  0  0  0  0
 18 44  1  0  0  0  0
 19 20  2  0  0  0  0
 19 21  1  0  0  0  0
 21 22  1  0  0  0  0
 21 45  1  0  0  0  0
 22 23  1  0  0  0  0
 22 24  1  0  0  0  0
 22 25  1  0  0  0  0
 23 46  1  0  0  0  0
 23 47  1  0  0  0  0
 23 48  1  0  0  0  0
 24 49  1  0  0  0  0
 24 50  1  0  0  0  0
 24 51  1  0  0  0  0
 25 52  1  0  0  0  0
 25 53  1  0  0  0  0
 25 54  1  0  0  0  0
M  CHG  1  11   1
M  END
> <s_m_source_file>
AV-unprocessed.smi

> <i_m_source_file_index>
1040

> <i_lp_mmshare_version>
43012

> <i_f3d_flags>
0

> <s_epik_input>
W0NIM11DKFtDSDNdKShbQ0gzXSlbTkhdQyg9TylbQ0BIXShbQ0gzXSlbTkhdQyg9TylbTkhdYzFbY0hdW2NIXVtjSF1uYzFOMltDSDJdW0NIMl1bQ0gyXVtDSDJdW0NIMl0y

> <s_epik_cmdline>
J2VwaWtfcHl0aG9uJywgJy1waCcsICc3LjAnLCAnLXRuJywgJzgnLCAnLW1hJywgJzIwMCcsICctbWV0YWxfYmluZGluZycsICctaW1hZScsICc8aW5maWxlLm1hZT4nLCAnLW9tYWUnLCAnPG91dGZpbGUubWFlPic=

> <r_lp_tautomer_probability>
0.999994

> <r_epik_Ionization_Penalty>
1.20468

> <r_epik_Ionization_Penalty_Charging>
1.20466

> <r_epik_Ionization_Penalty_Neutral>
1.88859e-05

> <r_epik_State_Penalty>
1.27057

> <r_epik_Charging_Adjusted_Penalty>
2.47523

> <i_epik_Tot_Q>
1

> <i_epik_Tot_abs_Q>
1

> <r_epik_Metal_State_Penalty>
1.34448

> <b_epik_Metal_Only>
0

> <s_lp_Force_Field>
OPLS_2005

> <r_lp_Energy>
27.4215

> <b_lp_Chiralities_Consistent>
1

> <s_lp_Variant>
AV-unprocessed.smi:1040-4

> <Gold.Version>
5.8.1

> <Gold.Id.Protein>
6NUR|6NUR_protein|mol2

> <Gold.PLP.Fitness>
49.8936

> <Gold.PLP.PLP>
-40.5293

> <Gold.PLP.part.hbond>
-3.6037

> <Gold.PLP.part.metal>
0.0000

> <Gold.PLP.part.buried>
-3.7323

> <Gold.PLP.part.nonpolar>
-33.2672

> <Gold.PLP.part.repulsive>
0.4539

> <Gold.PLP.ligand.clash>
0.0000

> <Gold.PLP.ligand.torsion>
1.0394

> <Gold.PLP.Chemscore.Hbond>
3.6889

> <Gold.PLP.Chemscore.CHOScore>
0.0000

> <Gold.PLP.Chemscore.Metal>
0.0000

> <Gold.Chemscore.Hbonds>
donor molecule, donor type, donor heavy atom, donor atom, acceptor molecule, acceptor atom, score
      L1  H    11    55       P1  8028  2.00
      P1  H  6931  6943       L1    20  0.80
      P1  H  6934  6947       L1    20  0.86

> <Gold.PLP.Chemscore.Internal.Correction>
0.3764

> <Gold.Rescore>
     Score         DG    S(hbond)    S(metal)    S(lipo)     H(rot)  DE(clash)    DE(int)     intcor
     17.43     -21.51       2.62        0.00      98.11       1.64       0.45       3.62       ----

> <Gold.Chemscore.Fitness>
17.4317

> <Gold.Chemscore.DG>
-21.5094

> <Gold.Chemscore.ZeroCoef>
-5.4800

> <Gold.Chemscore.Hbond>
2.6215

> <Gold.Chemscore.Metal>
0.0000

> <Gold.Chemscore.Lipo>
98.1118

> <Gold.Chemscore.Internal_Hbond>
0.0000

> <Gold.Chemscore.DEClash>
0.4531

> <Gold.Chemscore.DEInternal>
3.6246

> <Gold.Chemscore.Rot>
1.6428

> <Gold.Chemscore.Internal.Correction>
   9.000000E+99

> <Gold.Chemscore.Hbonds>
donor molecule, donor type, donor heavy atom, donor atom, acceptor molecule, acceptor atom, score
      L1  H    11    55       P1  8028  0.98
      P1  H  6931  6943       L1    20  0.74
      P1  H  6934  6947       L1    20  0.84

> <Gold.Chemscore.Hbond.Weighted>
-8.7558

> <Gold.Chemscore.Metal.Weighted>
-0.0000

> <Gold.Chemscore.Lipo.Weighted>
-11.4791

> <Gold.Chemscore.Internal_Hbond.Weighted>
0.0000

> <Gold.Chemscore.DEClash.Weighted>
0.4531

> <Gold.Chemscore.DEInternal.Weighted>
3.6246

> <Gold.Chemscore.Rot.Weighted>
4.2055

> <Gold.Chemscore.Internal.Correction.Weighted>
   9.000000E+99

> <Gold.Protein.RotatedTorsions>
[ 6907 6896 6895 6894 ] final -110.61 input  -60.11 | X-H torsion
[ 7974 7965 7964 7962 ] final  158.71 input  175.53 | X-H torsion
[ 8008 7997 7996 7995 ] final   35.66 input   59.86 | X-H torsion
[ 10167 10162 10161 10158 ] final   -1.30 input  -65.29 | X-H torsion
[ 10718 10713 10712 10709 ] final   22.05 input   66.30 | X-H torsion
[ 10763 10752 10751 10750 ] final  -71.33 input  -60.55 | X-H torsion
[ 11005 11000 10999 10996 ] final   83.96 input  -57.11 | X-H torsion

> <Gold.Protein.ActiveResidues>
 VAL166  LYS551  ARG553  GLY616  TRP617  ASP618  TYR619  PRO620  LYS621  CYS622 
 ASP623  PHE694  ASN695  SER759  ASP760  ASP761  ALA762  ILE779  LEU786  VAL792 
 PHE793  MET794  SER795  GLU796  ALA797  LYS798  CYS799  TRP800  GLU811  SER814 

> <Gold.Protein.RotatedAtoms>
  150.7636  133.9357  159.3440 H   0  0  0  0  0  0  0  0  0  0  0  0  # atno 6907 bound_to 6896
  151.7260  135.0883  160.0301 H   0  0  0  0  0  0  0  0  0  0  0  0  # atno 6908 bound_to 6896
  152.3620  133.6271  159.6058 H   0  0  0  0  0  0  0  0  0  0  0  0  # atno 6909 bound_to 6896
  144.7830  139.7516  143.6252 H   0  0  0  0  0  0  0  0  0  0  0  0  # atno 7974 bound_to 7965
  155.1747  140.3295  155.4386 H   0  0  0  0  0  0  0  0  0  0  0  0  # atno 8008 bound_to 7997
  156.2498  140.1937  156.6798 H   0  0  0  0  0  0  0  0  0  0  0  0  # atno 8009 bound_to 7997
  154.6313  140.0582  156.9721 H   0  0  0  0  0  0  0  0  0  0  0  0  # atno 8010 bound_to 7997
  140.6804  143.6791  150.8120 H   0  0  0  0  0  0  0  0  0  0  0  0  # atno 10167 bound_to 10162
  157.1470  130.6657  149.5999 H   0  0  0  0  0  0  0  0  0  0  0  0  # atno 10718 bound_to 10713
  154.4302  135.5966  153.6064 H   0  0  0  0  0  0  0  0  0  0  0  0  # atno 10763 bound_to 10752
  152.9798  135.5973  154.3849 H   0  0  0  0  0  0  0  0  0  0  0  0  # atno 10764 bound_to 10752
  154.3685  135.2841  155.2258 H   0  0  0  0  0  0  0  0  0  0  0  0  # atno 10765 bound_to 10752
  139.9015  134.8182  156.2380 H   0  0  0  0  0  0  0  0  0  0  0  0  # atno 11005 bound_to 11000
  146.2048  139.5366  142.9719 LP  0  0  0  0  0  0  0  0  0  0  0  0  # atno 17320 bound_to 7965
  145.5997  141.0357  143.2025 LP  0  0  0  0  0  0  0  0  0  0  0  0  # atno 17321 bound_to 7965
  140.0491  143.5268  152.2682 LP  0  0  0  0  0  0  0  0  0  0  0  0  # atno 17342 bound_to 10162
  139.6123  144.7611  151.2924 LP  0  0  0  0  0  0  0  0  0  0  0  0  # atno 17343 bound_to 10162
  155.9777  130.4758  150.6613 LP  0  0  0  0  0  0  0  0  0  0  0  0  # atno 17370 bound_to 10713
  157.4255  131.0842  151.1089 LP  0  0  0  0  0  0  0  0  0  0  0  0  # atno 17371 bound_to 10713
  141.0303  133.6992  156.1418 LP  0  0  0  0  0  0  0  0  0  0  0  0  # atno 17394 bound_to 11000
  140.7106  134.4465  157.5582 LP  0  0  0  0  0  0  0  0  0  0  0  0  # atno 17395 bound_to 11000

$$$$
