AV-unprocessed.smi:392|AV-procd|sdf|2480|dock8
  -GOLD-   2262022423D 1   1.00000     0.00000
 Structure written by MMmdl.
 32 34  0  0  0  0  0  0  0  0  1 V2000
  151.4653  144.3270  157.1052 O   0  0  0  0  0  0  0  0  0  0  0  0
  151.5230  143.0739  157.7567 C   0  0  2  0  0  0  0  0  0  0  0  0
  150.1608  142.3762  157.5767 C   0  0  0  0  0  0  0  0  0  0  0  0
  150.0910  141.6216  156.3386 N   0  0  0  0  0  0  0  0  0  0  0  0
  149.2591  141.8353  155.3008 C   0  0  0  0  0  0  0  0  0  0  0  0
  149.3582  141.0122  154.2608 N   0  0  0  0  0  0  0  0  0  0  0  0
  150.3756  140.1670  154.6697 C   0  0  0  0  0  0  0  0  0  0  0  0
  150.9694  139.0629  154.0172 C   0  0  0  0  0  0  0  0  0  0  0  0
  152.0085  138.3396  154.6392 C   0  0  0  0  0  0  0  0  0  0  0  0
  152.4689  138.7076  155.9203 C   0  0  0  0  0  0  0  0  0  0  0  0
  151.8920  139.8034  156.5907 C   0  0  0  0  0  0  0  0  0  0  0  0
  150.8565  140.5227  155.9660 C   0  0  0  0  0  0  0  0  0  0  0  0
  151.9144  143.2024  159.2248 C   0  0  0  0  0  0  0  0  0  0  0  0
  152.5334  142.1223  159.8929 C   0  0  0  0  0  0  0  0  0  0  0  0
  152.9145  142.2435  161.2429 C   0  0  0  0  0  0  0  0  0  0  0  0
  152.6816  143.4468  161.9348 C   0  0  0  0  0  0  0  0  0  0  0  0
  152.0690  144.5288  161.2748 C   0  0  0  0  0  0  0  0  0  0  0  0
  151.6871  144.4101  159.9241 C   0  0  0  0  0  0  0  0  0  0  0  0
  151.1093  145.4659  159.3022 F   0  0  0  0  0  0  0  0  0  0  0  0
  150.5584  144.5811  157.0258 H   0  0  0  0  0  0  0  0  0  0  0  0
  152.2871  142.4993  157.2322 H   0  0  0  0  0  0  0  0  0  0  0  0
  149.9543  141.7062  158.4127 H   0  0  0  0  0  0  0  0  0  0  0  0
  149.3575  143.1142  157.5622 H   0  0  0  0  0  0  0  0  0  0  0  0
  148.5342  142.6362  155.3132 H   0  0  0  0  0  0  0  0  0  0  0  0
  150.6249  138.7722  153.0359 H   0  0  0  0  0  0  0  0  0  0  0  0
  152.4549  137.4977  154.1308 H   0  0  0  0  0  0  0  0  0  0  0  0
  153.2651  138.1477  156.3885 H   0  0  0  0  0  0  0  0  0  0  0  0
  152.2403  140.0876  157.5725 H   0  0  0  0  0  0  0  0  0  0  0  0
  152.7231  141.1964  159.3699 H   0  0  0  0  0  0  0  0  0  0  0  0
  153.3876  141.4134  161.7468 H   0  0  0  0  0  0  0  0  0  0  0  0
  152.9750  143.5406  162.9700 H   0  0  0  0  0  0  0  0  0  0  0  0
  151.8939  145.4535  161.8049 H   0  0  0  0  0  0  0  0  0  0  0  0
  1  2  1  0  0  0  0
  1 20  1  0  0  0  0
  2  3  1  0  0  0  0
  2 13  1  0  0  0  0
  2 21  1  0  0  0  0
  3  4  1  0  0  0  0
  3 22  1  0  0  0  0
  3 23  1  0  0  0  0
  4 12  1  0  0  0  0
  4  5  1  0  0  0  0
  5  6  2  0  0  0  0
  5 24  1  0  0  0  0
  6  7  1  0  0  0  0
  7 12  2  0  0  0  0
  7  8  1  0  0  0  0
  8  9  2  0  0  0  0
  8 25  1  0  0  0  0
  9 10  1  0  0  0  0
  9 26  1  0  0  0  0
 10 11  2  0  0  0  0
 10 27  1  0  0  0  0
 11 12  1  0  0  0  0
 11 28  1  0  0  0  0
 13 18  1  0  0  0  0
 13 14  2  0  0  0  0
 14 15  1  0  0  0  0
 14 29  1  0  0  0  0
 15 16  2  0  0  0  0
 15 30  1  0  0  0  0
 16 17  1  0  0  0  0
 16 31  1  0  0  0  0
 17 18  2  0  0  0  0
 17 32  1  0  0  0  0
 18 19  1  0  0  0  0
M  END
> <s_m_source_file>
AV-unprocessed.smi

> <i_m_source_file_index>
392

> <i_lp_mmshare_version>
43012

> <i_f3d_flags>
0

> <s_epik_input>
RmMxW2NIXVtjSF1bY0hdW2NIXWMxW0NASF0oW09IXSlbQ0gyXW4oW2NIXW4yKWMoYzIzKVtjSF1bY0hdW2NIXVtjSF0z

> <s_epik_cmdline>
J2VwaWtfcHl0aG9uJywgJy1waCcsICc3LjAnLCAnLXRuJywgJzgnLCAnLW1hJywgJzIwMCcsICctbWV0YWxfYmluZGluZycsICctaW1hZScsICc8aW5maWxlLm1hZT4nLCAnLW9tYWUnLCAnPG91dGZpbGUubWFlPic=

> <r_epik_Ionization_Penalty>
0.0696512

> <r_epik_Ionization_Penalty_Charging>
0

> <r_epik_Ionization_Penalty_Neutral>
0.0696512

> <r_epik_State_Penalty>
0.0610247

> <r_epik_Charging_Adjusted_Penalty>
0.0610247

> <i_epik_Tot_Q>
0

> <i_epik_Tot_abs_Q>
0

> <r_epik_Metal_State_Penalty>
6.42746e-05

> <b_epik_Metal_Only>
0

> <s_lp_Force_Field>
OPLS_2005

> <r_lp_Energy>
12.7977

> <b_lp_Chiralities_Consistent>
1

> <s_lp_Variant>
AV-unprocessed.smi:392-1

> <Gold.Version>
5.8.1

> <Gold.Id.Protein>
6NUR|6NUR_protein|mol2

> <Gold.PLP.Fitness>
52.6546

> <Gold.PLP.PLP>
-48.7775

> <Gold.PLP.part.hbond>
-1.8863

> <Gold.PLP.part.metal>
0.0000

> <Gold.PLP.part.buried>
-4.1898

> <Gold.PLP.part.nonpolar>
-44.2013

> <Gold.PLP.part.repulsive>
0.3783

> <Gold.PLP.ligand.clash>
0.0000

> <Gold.PLP.ligand.torsion>
1.0309

> <Gold.PLP.Chemscore.Hbond>
1.0000

> <Gold.PLP.Chemscore.CHOScore>
0.9728

> <Gold.PLP.Chemscore.Metal>
0.0000

> <Gold.Chemscore.Hbonds>
donor molecule, donor type, donor heavy atom, donor atom, acceptor molecule, acceptor atom, score
      L1  H     1    20       P1  8028  0.68
      P1  H  8011  8017       L1     6  0.01
      L1  C     5    24       P1  8028  0.97

> <Gold.PLP.Chemscore.Internal.Correction>
0.0203

> <Gold.Rescore>
     Score         DG    S(hbond)    S(metal)    S(lipo)     H(rot)  DE(clash)    DE(int)     intcor
     16.02     -18.79       1.00        0.00     127.17       1.91       0.14       2.64       ----

> <Gold.Chemscore.Fitness>
16.0185

> <Gold.Chemscore.DG>
-18.7905

> <Gold.Chemscore.ZeroCoef>
-5.4800

> <Gold.Chemscore.Hbond>
0.9957

> <Gold.Chemscore.Metal>
0.0000

> <Gold.Chemscore.Lipo>
127.1684

> <Gold.Chemscore.Internal_Hbond>
0.0000

> <Gold.Chemscore.DEClash>
0.1356

> <Gold.Chemscore.DEInternal>
2.6364

> <Gold.Chemscore.Rot>
1.9116

> <Gold.Chemscore.Internal.Correction>
   9.000000E+99

> <Gold.Chemscore.Hbonds>
donor molecule, donor type, donor heavy atom, donor atom, acceptor molecule, acceptor atom, score
      L1  H     1    20       P1  8028  0.52
      P1  H  8011  8017       L1     6  0.03

> <Gold.Chemscore.Hbond.Weighted>
-3.3255

> <Gold.Chemscore.Metal.Weighted>
-0.0000

> <Gold.Chemscore.Lipo.Weighted>
-14.8787

> <Gold.Chemscore.Internal_Hbond.Weighted>
0.0000

> <Gold.Chemscore.DEClash.Weighted>
0.1356

> <Gold.Chemscore.DEInternal.Weighted>
2.6364

> <Gold.Chemscore.Rot.Weighted>
4.8937

> <Gold.Chemscore.Internal.Correction.Weighted>
   9.000000E+99

> <Gold.Protein.RotatedTorsions>
[ 6907 6896 6895 6894 ] final   60.63 input  -60.11 | X-H torsion
[ 7974 7965 7964 7962 ] final -149.70 input  175.53 | X-H torsion
[ 8008 7997 7996 7995 ] final   77.39 input   59.86 | X-H torsion
[ 10167 10162 10161 10158 ] final -153.71 input  -65.29 | X-H torsion
[ 10718 10713 10712 10709 ] final -165.92 input   66.30 | X-H torsion
[ 10763 10752 10751 10750 ] final   92.94 input  -60.55 | X-H torsion
[ 11005 11000 10999 10996 ] final   38.73 input  -57.11 | X-H torsion

> <Gold.Protein.ActiveResidues>
 VAL166  LYS551  ARG553  GLY616  TRP617  ASP618  TYR619  PRO620  LYS621  CYS622 
 ASP623  PHE694  ASN695  SER759  ASP760  ASP761  ALA762  ILE779  LEU786  VAL792 
 PHE793  MET794  SER795  GLU796  ALA797  LYS798  CYS799  TRP800  GLU811  SER814 

> <Gold.Protein.RotatedAtoms>
  152.4019  134.6271  160.0065 H   0  0  0  0  0  0  0  0  0  0  0  0  # atno 6907 bound_to 6896
  151.6474  133.3317  159.3152 H   0  0  0  0  0  0  0  0  0  0  0  0  # atno 6908 bound_to 6896
  150.7919  134.6991  159.6584 H   0  0  0  0  0  0  0  0  0  0  0  0  # atno 6909 bound_to 6896
  144.7952  140.5030  143.5745 H   0  0  0  0  0  0  0  0  0  0  0  0  # atno 7974 bound_to 7965
  155.8410  140.3462  155.5632 H   0  0  0  0  0  0  0  0  0  0  0  0  # atno 8008 bound_to 7997
  155.8141  140.0903  157.1907 H   0  0  0  0  0  0  0  0  0  0  0  0  # atno 8009 bound_to 7997
  154.4005  140.1442  156.3409 H   0  0  0  0  0  0  0  0  0  0  0  0  # atno 8010 bound_to 7997
  139.7074  143.9164  152.2454 H   0  0  0  0  0  0  0  0  0  0  0  0  # atno 10167 bound_to 10162
  156.6604  130.9043  151.3028 H   0  0  0  0  0  0  0  0  0  0  0  0  # atno 10718 bound_to 10713
  153.2247  135.4343  155.0529 H   0  0  0  0  0  0  0  0  0  0  0  0  # atno 10763 bound_to 10752
  154.8268  135.3365  154.6875 H   0  0  0  0  0  0  0  0  0  0  0  0  # atno 10764 bound_to 10752
  153.7305  135.7011  153.5046 H   0  0  0  0  0  0  0  0  0  0  0  0  # atno 10765 bound_to 10752
  140.2098  134.3769  155.8055 H   0  0  0  0  0  0  0  0  0  0  0  0  # atno 11005 bound_to 11000
  145.5692  139.1482  143.3298 LP  0  0  0  0  0  0  0  0  0  0  0  0  # atno 17320 bound_to 7965
  146.2217  140.5826  142.9014 LP  0  0  0  0  0  0  0  0  0  0  0  0  # atno 17321 bound_to 7965
  139.9024  144.6904  150.8651 LP  0  0  0  0  0  0  0  0  0  0  0  0  # atno 17342 bound_to 10162
  140.7725  143.3504  151.2026 LP  0  0  0  0  0  0  0  0  0  0  0  0  # atno 17343 bound_to 10162
  157.7111  130.9442  150.1094 LP  0  0  0  0  0  0  0  0  0  0  0  0  # atno 17370 bound_to 10713
  156.2016  130.3660  149.8782 LP  0  0  0  0  0  0  0  0  0  0  0  0  # atno 17371 bound_to 10713
  141.2226  133.7137  156.8398 LP  0  0  0  0  0  0  0  0  0  0  0  0  # atno 17394 bound_to 11000
  140.1963  134.8929  157.3119 LP  0  0  0  0  0  0  0  0  0  0  0  0  # atno 17395 bound_to 11000

$$$$
