AV-unprocessed.smi:54|AV-procd|sdf|552|dock7
  -GOLD-   2262016453D 1   1.00000     0.00000
 Structure written by MMmdl.
 43 45  0  0  0  0  0  0  0  0  2 V2000
  145.7416  135.8445  159.5466 C   0  0  0  0  0  0  0  0  0  0  0  0
  146.9477  135.3714  160.3747 C   0  0  0  0  0  0  0  0  0  0  0  0
  146.5766  135.2018  161.8575 C   0  0  0  0  0  0  0  0  0  0  0  0
  148.1284  136.3399  160.2177 C   0  0  0  0  0  0  0  0  0  0  0  0
  148.5336  136.9579  161.2051 O   0  0  0  0  0  0  0  0  0  0  0  0
  148.6362  136.4351  158.9684 N   0  0  0  0  0  0  0  0  0  0  0  0
  149.7019  137.2158  158.5065 C   0  0  0  0  0  0  0  0  0  0  0  0
  149.5803  137.9198  157.4029 N   0  0  0  0  0  0  0  0  0  0  0  0
  150.7246  138.6332  157.1065 C   0  0  0  0  0  0  0  0  0  0  0  0
  151.8966  138.6717  157.8100 C   0  0  0  0  0  0  0  0  0  0  0  0
  152.8293  139.5013  157.1981 N   0  0  0  0  0  0  0  0  0  0  0  0
  152.1590  139.9335  156.1304 C   0  0  0  0  0  0  0  0  0  0  0  0
  150.9008  139.4631  156.0079 N   0  0  0  0  0  0  0  0  0  0  0  0
  149.9050  139.7569  154.9335 C   0  0  1  0  0  0  0  0  0  0  0  0
  148.6978  139.1427  155.2442 O   0  0  0  0  0  0  0  0  0  0  0  0
  147.6337  139.8399  154.6010 C   0  0  1  0  0  0  0  0  0  0  0  0
  146.4675  139.9380  155.5963 C   0  0  0  0  0  0  0  0  0  0  0  0
  145.3056  140.4111  154.9482 O   0  0  0  0  0  0  0  0  0  0  0  0
  148.2082  141.2094  154.1766 C   0  0  2  0  0  0  0  0  0  0  0  0
  148.3126  141.2556  152.7664 O   0  0  0  0  0  0  0  0  0  0  0  0
  149.5972  141.2490  154.7997 C   0  0  1  0  0  0  0  0  0  0  0  0
  149.5723  141.9236  156.0449 O   0  0  0  0  0  0  0  0  0  0  0  0
  151.9598  137.8558  159.0461 C   0  0  0  0  0  0  0  0  0  0  0  0
  152.9927  137.8582  159.7132 O   0  0  0  0  0  0  0  0  0  0  0  0
  150.8263  137.1514  159.3445 N   0  5  0  0  0  0  0  0  0  0  0  0
  150.3212  139.3222  154.0232 H   0  0  0  0  0  0  0  0  0  0  0  0
  147.3267  139.2541  153.7324 H   0  0  0  0  0  0  0  0  0  0  0  0
  147.5888  142.0486  154.4967 H   0  0  0  0  0  0  0  0  0  0  0  0
  150.3419  141.7281  154.1620 H   0  0  0  0  0  0  0  0  0  0  0  0
  146.0065  135.9682  158.4956 H   0  0  0  0  0  0  0  0  0  0  0  0
  145.3549  136.7984  159.9077 H   0  0  0  0  0  0  0  0  0  0  0  0
  144.9287  135.1197  159.5946 H   0  0  0  0  0  0  0  0  0  0  0  0
  147.2513  134.3946  159.9942 H   0  0  0  0  0  0  0  0  0  0  0  0
  147.4379  134.8864  162.4479 H   0  0  0  0  0  0  0  0  0  0  0  0
  145.8014  134.4450  161.9805 H   0  0  0  0  0  0  0  0  0  0  0  0
  146.2010  136.1316  162.2869 H   0  0  0  0  0  0  0  0  0  0  0  0
  148.1630  135.8792  158.2716 H   0  0  0  0  0  0  0  0  0  0  0  0
  152.5989  140.6123  155.4147 H   0  0  0  0  0  0  0  0  0  0  0  0
  146.2478  138.9550  156.0136 H   0  0  0  0  0  0  0  0  0  0  0  0
  146.7191  140.5941  156.4303 H   0  0  0  0  0  0  0  0  0  0  0  0
  145.3318  140.1352  154.0447 H   0  0  0  0  0  0  0  0  0  0  0  0
  148.6637  140.4316  152.4655 H   0  0  0  0  0  0  0  0  0  0  0  0
  149.3420  142.8268  155.8910 H   0  0  0  0  0  0  0  0  0  0  0  0
  1  2  1  0  0  0  0
  1 30  1  0  0  0  0
  1 31  1  0  0  0  0
  1 32  1  0  0  0  0
  2  3  1  0  0  0  0
  2  4  1  0  0  0  0
  2 33  1  0  0  0  0
  3 34  1  0  0  0  0
  3 35  1  0  0  0  0
  3 36  1  0  0  0  0
  4  5  2  0  0  0  0
  4  6  1  0  0  0  0
  6 37  1  0  0  0  0
  6  7  1  0  0  0  0
  7 25  1  0  0  0  0
  7  8  2  0  0  0  0
  8  9  1  0  0  0  0
  9 13  1  0  0  0  0
  9 10  2  0  0  0  0
 10 11  1  0  0  0  0
 10 23  1  0  0  0  0
 11 12  2  0  0  0  0
 12 13  1  0  0  0  0
 12 38  1  0  0  0  0
 13 14  1  0  0  0  0
 14 26  1  0  0  0  0
 14 21  1  0  0  0  0
 14 15  1  0  0  0  0
 15 16  1  0  0  0  0
 16 27  1  0  0  0  0
 16 17  1  0  0  0  0
 16 19  1  0  0  0  0
 17 18  1  0  0  0  0
 17 39  1  0  0  0  0
 17 40  1  0  0  0  0
 18 41  1  0  0  0  0
 19 28  1  0  0  0  0
 19 20  1  0  0  0  0
 19 21  1  0  0  0  0
 20 42  1  0  0  0  0
 21 29  1  0  0  0  0
 21 22  1  0  0  0  0
 22 43  1  0  0  0  0
 23 24  2  0  0  0  0
 23 25  1  0  0  0  0
M  CHG  1  25  -1
M  END
> <s_m_source_file>
AV-unprocessed.smi

> <i_m_source_file_index>
54

> <i_lp_mmshare_version>
43012

> <i_f3d_flags>
0

> <s_epik_input>
W0NIM11bQ0hdKFtDSDNdKUMoPU8pW05IXWMobjEpW25IXWMoPU8pYyhjMTIpbltjSF1uMltDQEBIXTNPW0NASF0oW0NIMl1bT0hdKVtDQEBIXShbT0hdKVtDQEhdM1tPSF0=

> <s_epik_cmdline>
J2VwaWtfcHl0aG9uJywgJy1waCcsICc3LjAnLCAnLXRuJywgJzgnLCAnLW1hJywgJzIwMCcsICctbWV0YWxfYmluZGluZycsICctaW1hZScsICc8aW5maWxlLm1hZT4nLCAnLW9tYWUnLCAnPG91dGZpbGUubWFlPic=

> <r_lp_tautomer_probability>
0.85571

> <r_epik_Ionization_Penalty>
1.75936

> <r_epik_Ionization_Penalty_Charging>
4.55893e-11

> <r_epik_Ionization_Penalty_Neutral>
1.75936

> <r_epik_State_Penalty>
1.72072

> <r_epik_Charging_Adjusted_Penalty>
1.72072

> <i_epik_Tot_Q>
-1

> <i_epik_Tot_abs_Q>
1

> <r_epik_Metal_State_Penalty>
0.400338

> <b_epik_Metal_Only>
1

> <s_epik_Chemistry_Notes>
This compound contains an acetal/aminal-like group ( X-CH(R)-Y where X, Y are N, S, or O) that may be acid/base labile, releasing an aldehyde.

> <s_lp_Force_Field>
OPLS_2005

> <r_lp_Energy>
59.2625

> <b_lp_Chiralities_Consistent>
1

> <s_lp_Variant>
AV-unprocessed.smi:54-24

> <Gold.Version>
5.8.1

> <Gold.Id.Protein>
6NUR|6NUR_protein|mol2

> <Gold.PLP.Fitness>
47.3227

> <Gold.PLP.PLP>
-28.6462

> <Gold.PLP.part.hbond>
-6.8495

> <Gold.PLP.part.metal>
0.0000

> <Gold.PLP.part.buried>
-2.1309

> <Gold.PLP.part.nonpolar>
-20.4827

> <Gold.PLP.part.repulsive>
0.2005

> <Gold.PLP.ligand.clash>
0.0000

> <Gold.PLP.ligand.torsion>
0.5475

> <Gold.PLP.Chemscore.Hbond>
6.5749

> <Gold.PLP.Chemscore.CHOScore>
0.0000

> <Gold.PLP.Chemscore.Metal>
0.0000

> <Gold.Chemscore.Hbonds>
donor molecule, donor type, donor heavy atom, donor atom, acceptor molecule, acceptor atom, score
      L1  H    18    41       P1 10175  0.17
      L1  H    20    42       P1  7957  0.62
      L1  H    22    43       P1  8028  1.00
      P1  H  6896  6908       L1    25  1.46
      P1  H  6931  6943       L1     5  1.00
      P1  H  7997  8009       L1    11  0.90
      P1  H  8011  8017       L1    20  0.85

> <Gold.PLP.Chemscore.Internal.Correction>
0.0470

> <Gold.Rescore>
     Score         DG    S(hbond)    S(metal)    S(lipo)     H(rot)  DE(clash)    DE(int)     intcor
     11.57     -16.42       5.10        0.00      35.81       4.02       1.66       3.18       ----

> <Gold.Chemscore.Fitness>
11.5710

> <Gold.Chemscore.DG>
-16.4152

> <Gold.Chemscore.ZeroCoef>
-5.4800

> <Gold.Chemscore.Hbond>
5.1004

> <Gold.Chemscore.Metal>
0.0000

> <Gold.Chemscore.Lipo>
35.8058

> <Gold.Chemscore.Internal_Hbond>
0.0000

> <Gold.Chemscore.DEClash>
1.6616

> <Gold.Chemscore.DEInternal>
3.1826

> <Gold.Chemscore.Rot>
4.0192

> <Gold.Chemscore.Internal.Correction>
   9.000000E+99

> <Gold.Chemscore.Hbonds>
donor molecule, donor type, donor heavy atom, donor atom, acceptor molecule, acceptor atom, score
      L1  H    18    41       P1 10175  0.17
      L1  H    20    42       P1  7957  0.62
      L1  H    22    43       P1  8028  0.99
      P1  H  6896  6908       L1    25  0.45
      P1  H  6931  6943       L1     5  0.95
      P1  H  7997  8009       L1    11  0.18
      P1  H  8011  8017       L1    20  0.14

> <Gold.Chemscore.Hbond.Weighted>
-17.0352

> <Gold.Chemscore.Metal.Weighted>
-0.0000

> <Gold.Chemscore.Lipo.Weighted>
-4.1893

> <Gold.Chemscore.Internal_Hbond.Weighted>
0.0000

> <Gold.Chemscore.DEClash.Weighted>
1.6616

> <Gold.Chemscore.DEInternal.Weighted>
3.1826

> <Gold.Chemscore.Rot.Weighted>
10.2893

> <Gold.Chemscore.Internal.Correction.Weighted>
   9.000000E+99

> <Gold.Protein.RotatedTorsions>
[ 6907 6896 6895 6894 ] final -143.05 input  -60.11 | X-H torsion
[ 7974 7965 7964 7962 ] final  179.25 input  175.53 | X-H torsion
[ 8008 7997 7996 7995 ] final  173.03 input   59.86 | X-H torsion
[ 10167 10162 10161 10158 ] final  -87.72 input  -65.29 | X-H torsion
[ 10718 10713 10712 10709 ] final   50.46 input   66.30 | X-H torsion
[ 10763 10752 10751 10750 ] final -172.16 input  -60.55 | X-H torsion
[ 11005 11000 10999 10996 ] final    5.52 input  -57.11 | X-H torsion

> <Gold.Protein.ActiveResidues>
 VAL166  LYS551  ARG553  GLY616  TRP617  ASP618  TYR619  PRO620  LYS621  CYS622 
 ASP623  PHE694  ASN695  SER759  ASP760  ASP761  ALA762  ILE779  LEU786  VAL792 
 PHE793  MET794  SER795  GLU796  ALA797  LYS798  CYS799  TRP800  GLU811  SER814 

> <Gold.Protein.RotatedAtoms>
  151.0952  133.5285  159.2612 H   0  0  0  0  0  0  0  0  0  0  0  0  # atno 6907 bound_to 6896
  151.2137  135.0491  159.8931 H   0  0  0  0  0  0  0  0  0  0  0  0  # atno 6908 bound_to 6896
  152.5438  134.0764  159.8270 H   0  0  0  0  0  0  0  0  0  0  0  0  # atno 6909 bound_to 6896
  144.7147  140.0520  143.6435 H   0  0  0  0  0  0  0  0  0  0  0  0  # atno 7974 bound_to 7965
  156.1115  140.1470  156.9331 H   0  0  0  0  0  0  0  0  0  0  0  0  # atno 8008 bound_to 7997
  154.4771  140.0891  156.7330 H   0  0  0  0  0  0  0  0  0  0  0  0  # atno 8009 bound_to 7997
  155.4587  140.3437  155.4312 H   0  0  0  0  0  0  0  0  0  0  0  0  # atno 8010 bound_to 7997
  140.3817  143.2746  151.9376 H   0  0  0  0  0  0  0  0  0  0  0  0  # atno 10167 bound_to 10162
  157.4887  130.8362  149.8177 H   0  0  0  0  0  0  0  0  0  0  0  0  # atno 10718 bound_to 10713
  154.6224  135.2877  155.0310 H   0  0  0  0  0  0  0  0  0  0  0  0  # atno 10763 bound_to 10752
  154.1501  135.6505  153.4965 H   0  0  0  0  0  0  0  0  0  0  0  0  # atno 10764 bound_to 10752
  153.0242  135.5353  154.7019 H   0  0  0  0  0  0  0  0  0  0  0  0  # atno 10765 bound_to 10752
  140.5698  134.0113  155.8004 H   0  0  0  0  0  0  0  0  0  0  0  0  # atno 11005 bound_to 11000
  145.9936  139.3034  143.0970 LP  0  0  0  0  0  0  0  0  0  0  0  0  # atno 17320 bound_to 7965
  145.8875  140.9325  143.0569 LP  0  0  0  0  0  0  0  0  0  0  0  0  # atno 17321 bound_to 7965
  139.4795  144.5812  151.7929 LP  0  0  0  0  0  0  0  0  0  0  0  0  # atno 17342 bound_to 10162
  140.4931  144.1281  150.5954 LP  0  0  0  0  0  0  0  0  0  0  0  0  # atno 17343 bound_to 10162
  156.0161  130.3813  150.2106 LP  0  0  0  0  0  0  0  0  0  0  0  0  # atno 17370 bound_to 10713
  157.0294  131.0003  151.3316 LP  0  0  0  0  0  0  0  0  0  0  0  0  # atno 17371 bound_to 10713
  141.1063  133.9688  157.2990 LP  0  0  0  0  0  0  0  0  0  0  0  0  # atno 17394 bound_to 11000
  139.9367  135.0195  156.8579 LP  0  0  0  0  0  0  0  0  0  0  0  0  # atno 17395 bound_to 11000

$$$$
