AV-unprocessed.smi:742|AV-procd|sdf|3558|dock7
  -GOLD-   22720 0553D 1   1.00000     0.00000
 Structure written by MMmdl.
 25 25  0  0  0  0  0  0  0  0  2 V2000
  147.4421  138.4303  151.6925 N   0  3  0  0  0  0  0  0  0  0  0  0
  147.1938  138.9817  153.0346 C   0  0  0  0  0  0  0  0  0  0  0  0
  148.4865  139.5246  153.6611 C   0  0  0  0  0  0  0  0  0  0  0  0
  149.5812  138.5670  153.5021 N   0  0  0  0  0  0  0  0  0  0  0  0
  150.7676  138.3214  154.7342 S   0  0  0  0  0  0  0  0  0  0  0  0
  151.5998  137.1735  154.3407 O   0  0  0  0  0  0  0  0  0  0  0  0
  151.3815  139.6310  154.9990 O   0  0  0  0  0  0  0  0  0  0  0  0
  149.7381  137.8676  156.2003 C   0  0  0  0  0  0  0  0  0  0  0  0
  150.5921  137.7097  157.4272 C   0  0  0  0  0  0  0  0  0  0  0  0
  151.3850  138.6940  158.0805 C   0  0  0  0  0  0  0  0  0  0  0  0
  151.9466  138.0120  159.1213 C   0  0  0  0  0  0  0  0  0  0  0  0
  151.5409  136.7175  159.1148 O   0  0  0  0  0  0  0  0  0  0  0  0
  150.6812  136.5326  158.0262 N   0  0  0  0  0  0  0  0  0  0  0  0
  147.8422  137.5068  151.7772 H   0  0  0  0  0  0  0  0  0  0  0  0
  148.0830  139.0300  151.1930 H   0  0  0  0  0  0  0  0  0  0  0  0
  146.4440  139.7679  152.9454 H   0  0  0  0  0  0  0  0  0  0  0  0
  146.7651  138.2007  153.6632 H   0  0  0  0  0  0  0  0  0  0  0  0
  148.7718  140.4646  153.1881 H   0  0  0  0  0  0  0  0  0  0  0  0
  148.3415  139.7316  154.7218 H   0  0  0  0  0  0  0  0  0  0  0  0
  149.4178  137.7724  152.8837 H   0  0  0  0  0  0  0  0  0  0  0  0
  149.0008  138.6576  156.3472 H   0  0  0  0  0  0  0  0  0  0  0  0
  149.1922  136.9524  155.9718 H   0  0  0  0  0  0  0  0  0  0  0  0
  151.5196  139.7349  157.8263 H   0  0  0  0  0  0  0  0  0  0  0  0
  152.6236  138.2935  159.9142 H   0  0  0  0  0  0  0  0  0  0  0  0
  146.5698  138.3721  151.1864 H   0  0  0  0  0  0  0  0  0  0  0  0
  1  2  1  0  0  0  0
  1 14  1  0  0  0  0
  1 15  1  0  0  0  0
  1 25  1  0  0  0  0
  2  3  1  0  0  0  0
  2 16  1  0  0  0  0
  2 17  1  0  0  0  0
  3  4  1  0  0  0  0
  3 18  1  0  0  0  0
  3 19  1  0  0  0  0
  4  5  1  0  0  0  0
  4 20  1  0  0  0  0
  5  6  2  0  0  0  0
  5  7  2  0  0  0  0
  5  8  1  0  0  0  0
  8  9  1  0  0  0  0
  8 21  1  0  0  0  0
  8 22  1  0  0  0  0
  9 13  2  0  0  0  0
  9 10  1  0  0  0  0
 10 11  2  0  0  0  0
 10 23  1  0  0  0  0
 11 12  1  0  0  0  0
 11 24  1  0  0  0  0
 12 13  1  0  0  0  0
M  CHG  1   1   1
M  END
> <s_m_source_file>
AV-unprocessed.smi

> <i_m_source_file_index>
742

> <i_lp_mmshare_version>
43012

> <i_f3d_flags>
0

> <s_epik_input>
W05IMl1bQ0gyXVtDSDJdW05IXVMoPU8pKD1PKVtDSDJdYzFbY0hdW2NIXW9uMQ==

> <s_epik_cmdline>
J2VwaWtfcHl0aG9uJywgJy1waCcsICc3LjAnLCAnLXRuJywgJzgnLCAnLW1hJywgJzIwMCcsICctbWV0YWxfYmluZGluZycsICctaW1hZScsICc8aW5maWxlLm1hZT4nLCAnLW9tYWUnLCAnPG91dGZpbGUubWFlPic=

> <r_lp_tautomer_probability>
1

> <r_epik_Ionization_Penalty>
0.00734165

> <r_epik_Ionization_Penalty_Charging>
0.00580839

> <r_epik_Ionization_Penalty_Neutral>
0.00153326

> <r_epik_State_Penalty>
-0

> <r_epik_Charging_Adjusted_Penalty>
0.00580839

> <i_epik_Tot_Q>
1

> <i_epik_Tot_abs_Q>
1

> <r_epik_Metal_State_Penalty>
0.322493

> <b_epik_Metal_Only>
0

> <s_lp_Force_Field>
OPLS_2005

> <r_lp_Energy>
-3.29025

> <b_lp_Chiralities_Consistent>
1

> <s_lp_Variant>
AV-unprocessed.smi:742-1

> <Gold.Version>
5.8.1

> <Gold.Id.Protein>
6NUR|6NUR_protein|mol2

> <Gold.PLP.Fitness>
39.5167

> <Gold.PLP.PLP>
-19.0259

> <Gold.PLP.part.hbond>
-7.4313

> <Gold.PLP.part.metal>
0.0000

> <Gold.PLP.part.buried>
-2.4984

> <Gold.PLP.part.nonpolar>
-9.6915

> <Gold.PLP.part.repulsive>
1.2514

> <Gold.PLP.ligand.clash>
0.0000

> <Gold.PLP.ligand.torsion>
0.8042

> <Gold.PLP.Chemscore.Hbond>
7.0000

> <Gold.PLP.Chemscore.CHOScore>
0.0000

> <Gold.PLP.Chemscore.Metal>
0.0000

> <Gold.Chemscore.Hbonds>
donor molecule, donor type, donor heavy atom, donor atom, acceptor molecule, acceptor atom, score
      L1  H     1    14       P1  7948  2.00
      L1  H     1    15       P1  7957  1.00
      L1  H     4    20       P1  7948  1.00
      P1  H  6896  6908       L1    12  1.00
      P1  H  7989  7998       L1     7  1.00
      P1  H 10752 10765       L1     6  1.00

> <Gold.PLP.Chemscore.Internal.Correction>
1.0992

> <Gold.Rescore>
     Score         DG    S(hbond)    S(metal)    S(lipo)     H(rot)  DE(clash)    DE(int)     intcor
     18.10     -19.45       5.01        0.00      26.33       2.28       0.58       0.77       ----

> <Gold.Chemscore.Fitness>
18.0999

> <Gold.Chemscore.DG>
-19.4530

> <Gold.Chemscore.ZeroCoef>
-5.4800

> <Gold.Chemscore.Hbond>
5.0086

> <Gold.Chemscore.Metal>
0.0000

> <Gold.Chemscore.Lipo>
26.3281

> <Gold.Chemscore.Internal_Hbond>
0.0000

> <Gold.Chemscore.DEClash>
0.5842

> <Gold.Chemscore.DEInternal>
0.7689

> <Gold.Chemscore.Rot>
2.2798

> <Gold.Chemscore.Internal.Correction>
   9.000000E+99

> <Gold.Chemscore.Hbonds>
donor molecule, donor type, donor heavy atom, donor atom, acceptor molecule, acceptor atom, score
      L1  H     1    14       P1  7948  1.00
      L1  H     1    15       P1  7957  0.43
      L1  H     4    20       P1  7948  0.88
      P1  H  6896  6908       L1    12  0.29
      P1  H  7989  7998       L1     7  0.95
      P1  H 10752 10765       L1     6  0.94

> <Gold.Chemscore.Hbond.Weighted>
-16.7288

> <Gold.Chemscore.Metal.Weighted>
-0.0000

> <Gold.Chemscore.Lipo.Weighted>
-3.0804

> <Gold.Chemscore.Internal_Hbond.Weighted>
0.0000

> <Gold.Chemscore.DEClash.Weighted>
0.5842

> <Gold.Chemscore.DEInternal.Weighted>
0.7689

> <Gold.Chemscore.Rot.Weighted>
5.8362

> <Gold.Chemscore.Internal.Correction.Weighted>
   9.000000E+99

> <Gold.Protein.RotatedTorsions>
[ 6907 6896 6895 6894 ] final -130.14 input  -60.11 | X-H torsion
[ 7974 7965 7964 7962 ] final -109.88 input  175.53 | X-H torsion
[ 8008 7997 7996 7995 ] final  -15.32 input   59.86 | X-H torsion
[ 10167 10162 10161 10158 ] final -136.78 input  -65.29 | X-H torsion
[ 10718 10713 10712 10709 ] final   75.86 input   66.30 | X-H torsion
[ 10763 10752 10751 10750 ] final  157.84 input  -60.55 | X-H torsion
[ 11005 11000 10999 10996 ] final  -84.91 input  -57.11 | X-H torsion

> <Gold.Protein.ActiveResidues>
 VAL166  LYS551  ARG553  GLY616  TRP617  ASP618  TYR619  PRO620  LYS621  CYS622 
 ASP623  PHE694  ASN695  SER759  ASP760  ASP761  ALA762  ILE779  LEU786  VAL792 
 PHE793  MET794  SER795  GLU796  ALA797  LYS798  CYS799  TRP800  GLU811  SER814 

> <Gold.Protein.RotatedAtoms>
  150.9364  133.6707  159.2799 H   0  0  0  0  0  0  0  0  0  0  0  0  # atno 6907 bound_to 6896
  151.4111  135.0984  159.9595 H   0  0  0  0  0  0  0  0  0  0  0  0  # atno 6908 bound_to 6896
  152.5049  133.8837  159.7414 H   0  0  0  0  0  0  0  0  0  0  0  0  # atno 6909 bound_to 6896
  145.1751  140.8944  143.3513 H   0  0  0  0  0  0  0  0  0  0  0  0  # atno 7974 bound_to 7965
  154.5139  140.2199  155.9102 H   0  0  0  0  0  0  0  0  0  0  0  0  # atno 8008 bound_to 7997
  156.1585  140.3147  155.8733 H   0  0  0  0  0  0  0  0  0  0  0  0  # atno 8009 bound_to 7997
  155.3798  140.0471  157.3034 H   0  0  0  0  0  0  0  0  0  0  0  0  # atno 8010 bound_to 7997
  139.8644  143.7037  152.2647 H   0  0  0  0  0  0  0  0  0  0  0  0  # atno 10167 bound_to 10162
  157.6651  130.9747  150.1415 H   0  0  0  0  0  0  0  0  0  0  0  0  # atno 10718 bound_to 10713
  154.2067  135.2788  155.2972 H   0  0  0  0  0  0  0  0  0  0  0  0  # atno 10763 bound_to 10752
  154.5811  135.5589  153.7190 H   0  0  0  0  0  0  0  0  0  0  0  0  # atno 10764 bound_to 10752
  153.0074  135.6345  154.2205 H   0  0  0  0  0  0  0  0  0  0  0  0  # atno 10765 bound_to 10752
  141.1646  133.7371  156.8937 H   0  0  0  0  0  0  0  0  0  0  0  0  # atno 11005 bound_to 11000
  145.0193  139.3438  143.6080 LP  0  0  0  0  0  0  0  0  0  0  0  0  # atno 17320 bound_to 7965
  146.3462  139.9487  142.8731 LP  0  0  0  0  0  0  0  0  0  0  0  0  # atno 17321 bound_to 7965
  139.7343  144.7575  151.0752 LP  0  0  0  0  0  0  0  0  0  0  0  0  # atno 17342 bound_to 10162
  140.7770  143.5049  150.9724 LP  0  0  0  0  0  0  0  0  0  0  0  0  # atno 17343 bound_to 10162
  156.2236  130.3676  149.8527 LP  0  0  0  0  0  0  0  0  0  0  0  0  # atno 17370 bound_to 10713
  156.6373  130.8690  151.3507 LP  0  0  0  0  0  0  0  0  0  0  0  0  # atno 17371 bound_to 10713
  140.1630  134.9152  157.2739 LP  0  0  0  0  0  0  0  0  0  0  0  0  # atno 17394 bound_to 11000
  140.2589  134.3595  155.7414 LP  0  0  0  0  0  0  0  0  0  0  0  0  # atno 17395 bound_to 11000

$$$$
