AV-unprocessed.smi:2008|AV-procd|sdf|8144|dock8
  -GOLD-   2272010383D 1   1.00000     0.00000
 Structure written by MMmdl.
 46 47  0  0  0  0  0  0  0  0  2 V2000
  150.6727  140.4025  156.4449 C   0  0  0  0  0  0  0  0  0  0  0  0
  149.9126  141.2530  155.5937 O   0  0  0  0  0  0  0  0  0  0  0  0
  148.8868  140.6956  154.8579 C   0  0  0  0  0  0  0  0  0  0  0  0
  147.8485  141.5339  154.4066 C   0  0  0  0  0  0  0  0  0  0  0  0
  146.7981  140.9738  153.6545 C   0  0  0  0  0  0  0  0  0  0  0  0
  146.8240  139.5874  153.3695 C   0  0  0  0  0  0  0  0  0  0  0  0
  145.8200  138.8978  152.6363 N   0  0  0  0  0  0  0  0  0  0  0  0
  145.5377  137.5839  152.6305 C   0  0  0  0  0  0  0  0  0  0  0  0
  146.1133  136.7261  153.2996 O   0  0  0  0  0  0  0  0  0  0  0  0
  144.5211  137.3080  151.8008 N   0  0  0  0  0  0  0  0  0  0  0  0
  143.9612  135.9785  151.5830 C   0  0  0  0  0  0  0  0  0  0  0  0
  144.4058  135.3917  150.2274 C   0  0  0  0  0  0  0  0  0  0  0  0
  145.2483  134.1705  150.3770 N   0  3  1  0  0  0  0  0  0  0  0  0
  146.0978  134.2472  151.6016 C   0  0  0  0  0  0  0  0  0  0  0  0
  147.0666  133.0622  151.7106 C   0  0  0  0  0  0  0  0  0  0  0  0
  146.2957  131.7431  151.7051 C   0  0  0  0  0  0  0  0  0  0  0  0
  145.4352  131.6693  150.4421 C   0  0  0  0  0  0  0  0  0  0  0  0
  144.4841  132.8803  150.3089 C   0  0  2  0  0  0  0  0  0  0  0  0
  143.6773  132.7172  149.0022 C   0  0  0  0  0  0  0  0  0  0  0  0
  147.9017  138.8340  153.8794 C   0  0  0  0  0  0  0  0  0  0  0  0
  148.9116  139.3647  154.6002 N   0  0  0  0  0  0  0  0  0  0  0  0
  151.4364  140.9905  156.9536 H   0  0  0  0  0  0  0  0  0  0  0  0
  151.1804  139.6210  155.8776 H   0  0  0  0  0  0  0  0  0  0  0  0
  150.0468  139.9409  157.2099 H   0  0  0  0  0  0  0  0  0  0  0  0
  147.8548  142.5891  154.6372 H   0  0  0  0  0  0  0  0  0  0  0  0
  145.9947  141.6149  153.3274 H   0  0  0  0  0  0  0  0  0  0  0  0
  145.2072  139.4856  152.0900 H   0  0  0  0  0  0  0  0  0  0  0  0
  144.0991  138.0718  151.2927 H   0  0  0  0  0  0  0  0  0  0  0  0
  144.2513  135.3157  152.4002 H   0  0  0  0  0  0  0  0  0  0  0  0
  142.8783  136.0796  151.6345 H   0  0  0  0  0  0  0  0  0  0  0  0
  143.5412  135.1685  149.6004 H   0  0  0  0  0  0  0  0  0  0  0  0
  144.9517  136.1767  149.7123 H   0  0  0  0  0  0  0  0  0  0  0  0
  146.6865  135.1630  151.6052 H   0  0  0  0  0  0  0  0  0  0  0  0
  145.4585  134.2844  152.4852 H   0  0  0  0  0  0  0  0  0  0  0  0
  147.7737  133.0835  150.8801 H   0  0  0  0  0  0  0  0  0  0  0  0
  147.6568  133.1444  152.6240 H   0  0  0  0  0  0  0  0  0  0  0  0
  146.9864  130.9001  151.7421 H   0  0  0  0  0  0  0  0  0  0  0  0
  145.6646  131.6736  152.5922 H   0  0  0  0  0  0  0  0  0  0  0  0
  146.0843  131.6132  149.5668 H   0  0  0  0  0  0  0  0  0  0  0  0
  144.8609  130.7421  150.4556 H   0  0  0  0  0  0  0  0  0  0  0  0
  143.7850  132.8590  151.1467 H   0  0  0  0  0  0  0  0  0  0  0  0
  143.2993  131.6992  148.9025 H   0  0  0  0  0  0  0  0  0  0  0  0
  144.2918  132.9237  148.1252 H   0  0  0  0  0  0  0  0  0  0  0  0
  142.8001  133.3616  148.9659 H   0  0  0  0  0  0  0  0  0  0  0  0
  147.9598  137.7701  153.7009 H   0  0  0  0  0  0  0  0  0  0  0  0
  145.8760  134.1603  149.5856 H   0  0  0  0  0  0  0  0  0  0  0  0
  1  2  1  0  0  0  0
  1 22  1  0  0  0  0
  1 23  1  0  0  0  0
  1 24  1  0  0  0  0
  2  3  1  0  0  0  0
  3 21  1  0  0  0  0
  3  4  2  0  0  0  0
  4  5  1  0  0  0  0
  4 25  1  0  0  0  0
  5  6  2  0  0  0  0
  5 26  1  0  0  0  0
  6  7  1  0  0  0  0
  6 20  1  0  0  0  0
  7  8  1  0  0  0  0
  7 27  1  0  0  0  0
  8  9  2  0  0  0  0
  8 10  1  0  0  0  0
 10 11  1  0  0  0  0
 10 28  1  0  0  0  0
 11 12  1  0  0  0  0
 11 29  1  0  0  0  0
 11 30  1  0  0  0  0
 12 13  1  0  0  0  0
 12 31  1  0  0  0  0
 12 32  1  0  0  0  0
 13 18  1  0  0  0  0
 13 14  1  0  0  0  0
 13 46  1  0  0  0  0
 14 15  1  0  0  0  0
 14 33  1  0  0  0  0
 14 34  1  0  0  0  0
 15 16  1  0  0  0  0
 15 35  1  0  0  0  0
 15 36  1  0  0  0  0
 16 17  1  0  0  0  0
 16 37  1  0  0  0  0
 16 38  1  0  0  0  0
 17 18  1  0  0  0  0
 17 39  1  0  0  0  0
 17 40  1  0  0  0  0
 18 19  1  0  0  0  0
 18 41  1  0  0  0  0
 19 42  1  0  0  0  0
 19 43  1  0  0  0  0
 19 44  1  0  0  0  0
 20 21  2  0  0  0  0
 20 45  1  0  0  0  0
M  CHG  1  13   1
M  END
> <s_m_source_file>
AV-unprocessed.smi

> <i_m_source_file_index>
2008

> <i_lp_mmshare_version>
43012

> <i_f3d_flags>
0

> <s_epik_input>
W0NIM11PYzFbY0hdW2NIXWMoW2NIXW4xKVtOSF1DKD1PKVtOSF1bQ0gyXVtDSDJdTjJbQ0gyXVtDSDJdW0NIMl1bQ0gyXVtDQEhdMltDSDNd

> <s_epik_cmdline>
J2VwaWtfcHl0aG9uJywgJy1waCcsICc3LjAnLCAnLXRuJywgJzgnLCAnLW1hJywgJzIwMCcsICctbWV0YWxfYmluZGluZycsICctaW1hZScsICc8aW5maWxlLm1hZT4nLCAnLW9tYWUnLCAnPG91dGZpbGUubWFlPic=

> <r_lp_tautomer_probability>
1

> <r_epik_Ionization_Penalty>
0.00219526

> <r_epik_Ionization_Penalty_Charging>
0.00211816

> <r_epik_Ionization_Penalty_Neutral>
7.71003e-05

> <r_epik_State_Penalty>
0.00145254

> <r_epik_Charging_Adjusted_Penalty>
0.0035707

> <i_epik_Tot_Q>
1

> <i_epik_Tot_abs_Q>
1

> <r_epik_Metal_State_Penalty>
-0

> <b_epik_Metal_Only>
0

> <s_lp_Force_Field>
OPLS_2005

> <r_lp_Energy>
23.0726

> <b_lp_Chiralities_Consistent>
1

> <s_lp_Variant>
AV-unprocessed.smi:2008-4

> <Gold.Version>
5.8.1

> <Gold.Id.Protein>
6NUR|6NUR_protein|mol2

> <Gold.PLP.Fitness>
48.8855

> <Gold.PLP.PLP>
-40.4182

> <Gold.PLP.part.hbond>
-3.7802

> <Gold.PLP.part.metal>
0.0000

> <Gold.PLP.part.buried>
0.2939

> <Gold.PLP.part.nonpolar>
-36.5623

> <Gold.PLP.part.repulsive>
1.3781

> <Gold.PLP.ligand.clash>
0.0000

> <Gold.PLP.ligand.torsion>
1.2543

> <Gold.PLP.Chemscore.Hbond>
2.6504

> <Gold.PLP.Chemscore.CHOScore>
1.0000

> <Gold.PLP.Chemscore.Metal>
0.0000

> <Gold.Chemscore.Hbonds>
donor molecule, donor type, donor heavy atom, donor atom, acceptor molecule, acceptor atom, score
      L1  H     7    27       P1 10175  0.70
      L1  H    10    28       P1 10171  0.83
      L1  H    13    46       P1  7921  0.82
      L1  C    20    45       P1  7948  0.85

> <Gold.PLP.Chemscore.Internal.Correction>
0.0250

> <Gold.Rescore>
     Score         DG    S(hbond)    S(metal)    S(lipo)     H(rot)  DE(clash)    DE(int)     intcor
     16.68     -19.24       2.15        0.00      93.65       1.71       0.16       2.39       ----

> <Gold.Chemscore.Fitness>
16.6841

> <Gold.Chemscore.DG>
-19.2366

> <Gold.Chemscore.ZeroCoef>
-5.4800

> <Gold.Chemscore.Hbond>
2.1493

> <Gold.Chemscore.Metal>
0.0000

> <Gold.Chemscore.Lipo>
93.6515

> <Gold.Chemscore.Internal_Hbond>
0.0000

> <Gold.Chemscore.DEClash>
0.1596

> <Gold.Chemscore.DEInternal>
2.3929

> <Gold.Chemscore.Rot>
1.7107

> <Gold.Chemscore.Internal.Correction>
   9.000000E+99

> <Gold.Chemscore.Hbonds>
donor molecule, donor type, donor heavy atom, donor atom, acceptor molecule, acceptor atom, score
      L1  H     7    27       P1 10175  0.68
      L1  H    10    28       P1 10171  0.81
      L1  H    13    46       P1  7921  0.34

> <Gold.Chemscore.Hbond.Weighted>
-7.1788

> <Gold.Chemscore.Metal.Weighted>
-0.0000

> <Gold.Chemscore.Lipo.Weighted>
-10.9572

> <Gold.Chemscore.Internal_Hbond.Weighted>
0.0000

> <Gold.Chemscore.DEClash.Weighted>
0.1596

> <Gold.Chemscore.DEInternal.Weighted>
2.3929

> <Gold.Chemscore.Rot.Weighted>
4.3794

> <Gold.Chemscore.Internal.Correction.Weighted>
   9.000000E+99

> <Gold.Protein.RotatedTorsions>
[ 6907 6896 6895 6894 ] final -138.39 input  -60.11 | X-H torsion
[ 7974 7965 7964 7962 ] final  172.60 input  175.53 | X-H torsion
[ 8008 7997 7996 7995 ] final  -60.40 input   59.86 | X-H torsion
[ 10167 10162 10161 10158 ] final   74.81 input  -65.29 | X-H torsion
[ 10718 10713 10712 10709 ] final  -84.88 input   66.30 | X-H torsion
[ 10763 10752 10751 10750 ] final   76.23 input  -60.55 | X-H torsion
[ 11005 11000 10999 10996 ] final   94.24 input  -57.11 | X-H torsion

> <Gold.Protein.ActiveResidues>
 VAL166  LYS551  ARG553  GLY616  TRP617  ASP618  TYR619  PRO620  LYS621  CYS622 
 ASP623  PHE694  ASN695  SER759  ASP760  ASP761  ALA762  ILE779  LEU786  VAL792 
 PHE793  MET794  SER795  GLU796  ALA797  LYS798  CYS799  TRP800  GLU811  SER814 

> <Gold.Protein.RotatedAtoms>
  151.0344  133.5762  159.2657 H   0  0  0  0  0  0  0  0  0  0  0  0  # atno 6907 bound_to 6896
  151.2831  135.0719  159.9186 H   0  0  0  0  0  0  0  0  0  0  0  0  # atno 6908 bound_to 6896
  152.5351  134.0055  159.7968 H   0  0  0  0  0  0  0  0  0  0  0  0  # atno 6909 bound_to 6896
  144.7264  139.9523  143.6432 H   0  0  0  0  0  0  0  0  0  0  0  0  # atno 7974 bound_to 7965
  154.4397  140.1040  156.6268 H   0  0  0  0  0  0  0  0  0  0  0  0  # atno 8008 bound_to 7997
  155.5648  140.3488  155.4481 H   0  0  0  0  0  0  0  0  0  0  0  0  # atno 8009 bound_to 7997
  156.0433  140.1287  157.0120 H   0  0  0  0  0  0  0  0  0  0  0  0  # atno 8010 bound_to 7997
  140.0097  144.5623  150.7668 H   0  0  0  0  0  0  0  0  0  0  0  0  # atno 10167 bound_to 10162
  156.0002  130.4712  150.4477 H   0  0  0  0  0  0  0  0  0  0  0  0  # atno 10718 bound_to 10713
  153.0710  135.4959  154.8305 H   0  0  0  0  0  0  0  0  0  0  0  0  # atno 10763 bound_to 10752
  154.7023  135.3004  154.9325 H   0  0  0  0  0  0  0  0  0  0  0  0  # atno 10764 bound_to 10752
  154.0045  135.6762  153.4814 H   0  0  0  0  0  0  0  0  0  0  0  0  # atno 10765 bound_to 10752
  139.8801  134.8834  156.3836 H   0  0  0  0  0  0  0  0  0  0  0  0  # atno 11005 bound_to 11000
  146.0702  139.3691  143.0528 LP  0  0  0  0  0  0  0  0  0  0  0  0  # atno 17320 bound_to 7965
  145.7978  140.9785  143.1015 LP  0  0  0  0  0  0  0  0  0  0  0  0  # atno 17321 bound_to 7965
  140.7386  143.2780  151.3682 LP  0  0  0  0  0  0  0  0  0  0  0  0  # atno 17342 bound_to 10162
  139.6213  144.0901  152.2394 LP  0  0  0  0  0  0  0  0  0  0  0  0  # atno 17343 bound_to 10162
  157.2513  131.0547  151.2377 LP  0  0  0  0  0  0  0  0  0  0  0  0  # atno 17370 bound_to 10713
  157.3525  130.7089  149.6450 LP  0  0  0  0  0  0  0  0  0  0  0  0  # atno 17371 bound_to 10713
  140.9382  133.7533  156.0112 LP  0  0  0  0  0  0  0  0  0  0  0  0  # atno 17394 bound_to 11000
  140.8251  134.3244  157.5368 LP  0  0  0  0  0  0  0  0  0  0  0  0  # atno 17395 bound_to 11000

$$$$
