AV-unprocessed.smi:2026|AV-procd|sdf|8206|dock10
  -GOLD-   2272010463D 1   1.00000     0.00000
 Structure written by MMmdl.
 45 47  0  0  0  0  0  0  0  0  2 V2000
  152.7244  143.7828  160.5786 C   0  0  0  0  0  0  0  0  0  0  0  0
  152.3051  142.5592  159.7830 C   0  0  0  0  0  0  0  0  0  0  0  0
  151.2823  142.6844  158.8158 C   0  0  0  0  0  0  0  0  0  0  0  0
  150.8633  141.5704  158.0558 C   0  0  0  0  0  0  0  0  0  0  0  0
  149.8953  141.4671  157.0711 N   0  0  0  0  0  0  0  0  0  0  0  0
  149.9778  140.1791  156.7493 C   0  0  0  0  0  0  0  0  0  0  0  0
  150.8834  139.4345  157.4120 N   0  0  0  0  0  0  0  0  0  0  0  0
  151.1466  138.0175  157.2335 C   0  0  0  0  0  0  0  0  0  0  0  0
  150.4916  137.1498  158.3257 C   0  0  1  0  0  0  0  0  0  0  0  0
  151.3260  137.1551  159.4685 O   0  0  0  0  0  0  0  0  0  0  0  0
  149.1037  137.6951  158.7202 C   0  0  0  0  0  0  0  0  0  0  0  0
  148.2102  136.6349  159.1996 N   0  0  0  0  0  0  0  0  0  0  0  0
  147.9705  135.4744  158.5605 C   0  0  0  0  0  0  0  0  0  0  0  0
  148.5020  135.1919  157.4871 O   0  0  0  0  0  0  0  0  0  0  0  0
  147.0965  134.7085  159.2557 N   0  5  0  0  0  0  0  0  0  0  0  0
  146.7099  135.4155  160.4604 C   0  0  0  0  0  0  0  0  0  0  0  0
  145.1944  135.6907  160.4503 C   0  0  0  0  0  0  0  0  0  0  0  0
  147.1322  134.6134  161.7059 C   0  0  0  0  0  0  0  0  0  0  0  0
  147.5068  136.7014  160.3348 C   0  0  0  0  0  0  0  0  0  0  0  0
  147.4828  137.6236  161.1515 O   0  0  0  0  0  0  0  0  0  0  0  0
  151.4995  140.3170  158.2929 C   0  0  0  0  0  0  0  0  0  0  0  0
  152.5191  140.1800  159.2518 C   0  0  0  0  0  0  0  0  0  0  0  0
  152.9260  141.3032  160.0017 C   0  0  0  0  0  0  0  0  0  0  0  0
  154.0296  141.1446  161.0325 C   0  0  0  0  0  0  0  0  0  0  0  0
  152.1759  144.6709  160.2636 H   0  0  0  0  0  0  0  0  0  0  0  0
  153.7878  143.9818  160.4437 H   0  0  0  0  0  0  0  0  0  0  0  0
  152.5323  143.6297  161.6408 H   0  0  0  0  0  0  0  0  0  0  0  0
  150.8096  143.6411  158.6484 H   0  0  0  0  0  0  0  0  0  0  0  0
  149.3436  139.7501  155.9871 H   0  0  0  0  0  0  0  0  0  0  0  0
  150.7974  137.7167  156.2449 H   0  0  0  0  0  0  0  0  0  0  0  0
  152.2277  137.8721  157.2375 H   0  0  0  0  0  0  0  0  0  0  0  0
  150.4073  136.1259  157.9590 H   0  0  0  0  0  0  0  0  0  0  0  0
  152.1744  137.4887  159.2208 H   0  0  0  0  0  0  0  0  0  0  0  0
  149.1953  138.5008  159.4507 H   0  0  0  0  0  0  0  0  0  0  0  0
  148.6347  138.1558  157.8491 H   0  0  0  0  0  0  0  0  0  0  0  0
  144.8862  136.2373  161.3424 H   0  0  0  0  0  0  0  0  0  0  0  0
  144.6256  134.7606  160.4245 H   0  0  0  0  0  0  0  0  0  0  0  0
  144.8958  136.2816  159.5829 H   0  0  0  0  0  0  0  0  0  0  0  0
  146.8514  135.1321  162.6233 H   0  0  0  0  0  0  0  0  0  0  0  0
  148.2108  134.4510  161.7370 H   0  0  0  0  0  0  0  0  0  0  0  0
  146.6530  133.6338  161.7251 H   0  0  0  0  0  0  0  0  0  0  0  0
  152.9856  139.2184  159.4064 H   0  0  0  0  0  0  0  0  0  0  0  0
  154.3651  140.1094  161.0997 H   0  0  0  0  0  0  0  0  0  0  0  0
  153.6796  141.4467  162.0197 H   0  0  0  0  0  0  0  0  0  0  0  0
  154.8901  141.7587  160.7662 H   0  0  0  0  0  0  0  0  0  0  0  0
  1  2  1  0  0  0  0
  1 25  1  0  0  0  0
  1 26  1  0  0  0  0
  1 27  1  0  0  0  0
  2 23  1  0  0  0  0
  2  3  2  0  0  0  0
  3  4  1  0  0  0  0
  3 28  1  0  0  0  0
  4 21  2  0  0  0  0
  4  5  1  0  0  0  0
  5  6  2  0  0  0  0
  6  7  1  0  0  0  0
  6 29  1  0  0  0  0
  7  8  1  0  0  0  0
  7 21  1  0  0  0  0
  8  9  1  0  0  0  0
  8 30  1  0  0  0  0
  8 31  1  0  0  0  0
  9 10  1  0  0  0  0
  9 11  1  0  0  0  0
  9 32  1  0  0  0  0
 10 33  1  0  0  0  0
 11 12  1  0  0  0  0
 11 34  1  0  0  0  0
 11 35  1  0  0  0  0
 12 19  1  0  0  0  0
 12 13  1  0  0  0  0
 13 14  2  0  0  0  0
 13 15  1  0  0  0  0
 15 16  1  0  0  0  0
 16 17  1  0  0  0  0
 16 18  1  0  0  0  0
 16 19  1  0  0  0  0
 17 36  1  0  0  0  0
 17 37  1  0  0  0  0
 17 38  1  0  0  0  0
 18 39  1  0  0  0  0
 18 40  1  0  0  0  0
 18 41  1  0  0  0  0
 19 20  2  0  0  0  0
 21 22  1  0  0  0  0
 22 23  2  0  0  0  0
 22 42  1  0  0  0  0
 23 24  1  0  0  0  0
 24 43  1  0  0  0  0
 24 44  1  0  0  0  0
 24 45  1  0  0  0  0
M  CHG  1  15  -1
M  END
> <s_m_source_file>
AV-unprocessed.smi

> <i_m_source_file_index>
2026

> <i_lp_mmshare_version>
43012

> <i_f3d_flags>
0

> <s_epik_input>
W0NIM11jKFtjSF0xKWMoW0NIM10pW2NIXWMoYzEyKW4oW2NIXW4yKVtDSDJdW0NASF0oW09IXSlbQ0gyXU4oQzM9TylDKD1PKVtOSF1DMyhbQ0gzXSlbQ0gzXQ==

> <s_epik_cmdline>
J2VwaWtfcHl0aG9uJywgJy1waCcsICc3LjAnLCAnLXRuJywgJzgnLCAnLW1hJywgJzIwMCcsICctbWV0YWxfYmluZGluZycsICctaW1hZScsICc8aW5maWxlLm1hZT4nLCAnLW9tYWUnLCAnPG91dGZpbGUubWFlPic=

> <r_lp_tautomer_probability>
1

> <r_epik_Ionization_Penalty>
5.78785

> <r_epik_Ionization_Penalty_Charging>
5.68049

> <r_epik_Ionization_Penalty_Neutral>
0.107354

> <r_epik_State_Penalty>
5.7743

> <r_epik_Charging_Adjusted_Penalty>
11.4548

> <i_epik_Tot_Q>
-1

> <i_epik_Tot_abs_Q>
1

> <r_epik_Metal_State_Penalty>
1.83778

> <b_epik_Metal_Only>
1

> <s_lp_Force_Field>
OPLS_2005

> <r_lp_Energy>
18.252

> <b_lp_Chiralities_Consistent>
1

> <s_lp_Variant>
AV-unprocessed.smi:2026-6

> <Gold.Version>
5.8.1

> <Gold.Id.Protein>
6NUR|6NUR_protein|mol2

> <Gold.PLP.Fitness>
44.4485

> <Gold.PLP.PLP>
-38.0112

> <Gold.PLP.part.hbond>
-3.0000

> <Gold.PLP.part.metal>
0.0000

> <Gold.PLP.part.buried>
-5.6224

> <Gold.PLP.part.nonpolar>
-29.2494

> <Gold.PLP.part.repulsive>
0.0599

> <Gold.PLP.ligand.clash>
0.0000

> <Gold.PLP.ligand.torsion>
0.9226

> <Gold.PLP.Chemscore.Hbond>
2.7600

> <Gold.PLP.Chemscore.CHOScore>
0.0000

> <Gold.PLP.Chemscore.Metal>
0.0000

> <Gold.Chemscore.Hbonds>
donor molecule, donor type, donor heavy atom, donor atom, acceptor molecule, acceptor atom, score
      P1  H  6896  6909       L1    10  0.88
      P1  H  6931  6943       L1    20  0.66
      P1  H  6934  6947       L1    20  0.71

> <Gold.PLP.Chemscore.Internal.Correction>
0.0025

> <Gold.Rescore>
     Score         DG    S(hbond)    S(metal)    S(lipo)     H(rot)  DE(clash)    DE(int)     intcor
     15.99     -18.31       2.40        0.00      93.07       2.38       0.03       2.29       ----

> <Gold.Chemscore.Fitness>
15.9911

> <Gold.Chemscore.DG>
-18.3101

> <Gold.Chemscore.ZeroCoef>
-5.4800

> <Gold.Chemscore.Hbond>
2.4041

> <Gold.Chemscore.Metal>
0.0000

> <Gold.Chemscore.Lipo>
93.0654

> <Gold.Chemscore.Internal_Hbond>
0.0000

> <Gold.Chemscore.DEClash>
0.0324

> <Gold.Chemscore.DEInternal>
2.2866

> <Gold.Chemscore.Rot>
2.3783

> <Gold.Chemscore.Internal.Correction>
   9.000000E+99

> <Gold.Chemscore.Hbonds>
donor molecule, donor type, donor heavy atom, donor atom, acceptor molecule, acceptor atom, score
      P1  H  6896  6909       L1    10  0.28
      P1  H  6931  6943       L1    20  0.65
      P1  H  6934  6947       L1    20  0.69

> <Gold.Chemscore.Hbond.Weighted>
-8.0298

> <Gold.Chemscore.Metal.Weighted>
-0.0000

> <Gold.Chemscore.Lipo.Weighted>
-10.8887

> <Gold.Chemscore.Internal_Hbond.Weighted>
0.0000

> <Gold.Chemscore.DEClash.Weighted>
0.0324

> <Gold.Chemscore.DEInternal.Weighted>
2.2866

> <Gold.Chemscore.Rot.Weighted>
6.0884

> <Gold.Chemscore.Internal.Correction.Weighted>
   9.000000E+99

> <Gold.Protein.RotatedTorsions>
[ 6907 6896 6895 6894 ] final  123.71 input  -60.11 | X-H torsion
[ 7974 7965 7964 7962 ] final    7.97 input  175.53 | X-H torsion
[ 8008 7997 7996 7995 ] final  -29.26 input   59.86 | X-H torsion
[ 10167 10162 10161 10158 ] final -116.23 input  -65.29 | X-H torsion
[ 10718 10713 10712 10709 ] final -171.26 input   66.30 | X-H torsion
[ 10763 10752 10751 10750 ] final   94.12 input  -60.55 | X-H torsion
[ 11005 11000 10999 10996 ] final  -29.99 input  -57.11 | X-H torsion

> <Gold.Protein.ActiveResidues>
 VAL166  LYS551  ARG553  GLY616  TRP617  ASP618  TYR619  PRO620  LYS621  CYS622 
 ASP623  PHE694  ASN695  SER759  ASP760  ASP761  ALA762  ILE779  LEU786  VAL792 
 PHE793  MET794  SER795  GLU796  ALA797  LYS798  CYS799  TRP800  GLU811  SER814 

> <Gold.Protein.RotatedAtoms>
  152.4139  133.7007  159.6421 H   0  0  0  0  0  0  0  0  0  0  0  0  # atno 6907 bound_to 6896
  150.8017  133.8575  159.3231 H   0  0  0  0  0  0  0  0  0  0  0  0  # atno 6908 bound_to 6896
  151.6310  135.1025  160.0173 H   0  0  0  0  0  0  0  0  0  0  0  0  # atno 6909 bound_to 6896
  146.2421  140.0003  142.8416 H   0  0  0  0  0  0  0  0  0  0  0  0  # atno 7974 bound_to 7965
  154.4297  140.1823  156.1220 H   0  0  0  0  0  0  0  0  0  0  0  0  # atno 8008 bound_to 7997
  156.0136  140.3348  155.6940 H   0  0  0  0  0  0  0  0  0  0  0  0  # atno 8009 bound_to 7997
  155.6076  140.0647  157.2706 H   0  0  0  0  0  0  0  0  0  0  0  0  # atno 8010 bound_to 7997
  140.0815  143.4783  152.1923 H   0  0  0  0  0  0  0  0  0  0  0  0  # atno 10167 bound_to 10162
  156.7383  130.9332  151.3108 H   0  0  0  0  0  0  0  0  0  0  0  0  # atno 10718 bound_to 10713
  153.2381  135.4301  155.0668 H   0  0  0  0  0  0  0  0  0  0  0  0  # atno 10763 bound_to 10752
  154.8328  135.3396  154.6689 H   0  0  0  0  0  0  0  0  0  0  0  0  # atno 10764 bound_to 10752
  153.7114  135.7022  153.5093 H   0  0  0  0  0  0  0  0  0  0  0  0  # atno 10765 bound_to 10752
  140.9344  133.7318  156.0983 H   0  0  0  0  0  0  0  0  0  0  0  0  # atno 11005 bound_to 11000
  145.1422  140.9577  143.4482 LP  0  0  0  0  0  0  0  0  0  0  0  0  # atno 17320 bound_to 7965
  145.0285  139.3361  143.6036 LP  0  0  0  0  0  0  0  0  0  0  0  0  # atno 17321 bound_to 7965
  139.5777  144.7495  151.3722 LP  0  0  0  0  0  0  0  0  0  0  0  0  # atno 17342 bound_to 10162
  140.7075  143.7476  150.7508 LP  0  0  0  0  0  0  0  0  0  0  0  0  # atno 17343 bound_to 10162
  157.6829  130.9157  150.0313 LP  0  0  0  0  0  0  0  0  0  0  0  0  # atno 17370 bound_to 10713
  156.1482  130.3642  149.9478 LP  0  0  0  0  0  0  0  0  0  0  0  0  # atno 17371 bound_to 10713
  140.7819  134.3716  157.5485 LP  0  0  0  0  0  0  0  0  0  0  0  0  # atno 17394 bound_to 11000
  139.8804  134.9087  156.2973 LP  0  0  0  0  0  0  0  0  0  0  0  0  # atno 17395 bound_to 11000

$$$$
