AV-unprocessed.smi:2451|AV-procd|sdf|9675|dock5
  -GOLD-   2272013313D 1   1.00000     0.00000
 Structure written by MMmdl.
 38 39  0  0  0  0  0  0  0  0  1 V2000
  152.7228  143.7805  160.5588 C   0  0  0  0  0  0  0  0  0  0  0  0
  151.9231  142.6626  159.8698 C   0  0  2  0  0  0  0  0  0  0  0  0
  152.8495  141.6049  159.2320 C   0  0  0  0  0  0  0  0  0  0  0  0
  152.0502  140.4364  158.6304 C   0  0  0  0  0  0  0  0  0  0  0  0
  150.9833  140.9266  157.6391 C   0  0  0  0  0  0  0  0  0  0  0  0
  150.0735  141.9809  158.2942 C   0  0  2  0  0  0  0  0  0  0  0  0
  149.0353  142.4177  157.3567 N   0  0  0  0  0  0  0  0  0  0  0  0
  148.2161  141.2283  156.4158 S   0  0  0  0  0  0  0  0  0  0  0  0
  148.5006  139.9173  157.0189 O   0  0  0  0  0  0  0  0  0  0  0  0
  146.8236  141.6738  156.2516 O   0  0  0  0  0  0  0  0  0  0  0  0
  149.0690  141.3475  154.7877 C   0  0  0  0  0  0  0  0  0  0  0  0
  149.8889  140.1104  154.5568 C   0  0  0  0  0  0  0  0  0  0  0  0
  149.4536  138.8289  154.1186 C   0  0  0  0  0  0  0  0  0  0  0  0
  150.6044  138.0954  154.0853 C   0  0  0  0  0  0  0  0  0  0  0  0
  151.6629  138.8550  154.4644 O   0  0  0  0  0  0  0  0  0  0  0  0
  151.1963  140.1403  154.7619 N   0  0  0  0  0  0  0  0  0  0  0  0
  150.8708  143.1851  158.8551 C   0  0  2  0  0  0  0  0  0  0  0  0
  151.4806  144.0779  157.7488 C   0  0  0  0  0  0  0  0  0  0  0  0
  153.3934  144.2880  159.8653 H   0  0  0  0  0  0  0  0  0  0  0  0
  153.3363  143.3766  161.3647 H   0  0  0  0  0  0  0  0  0  0  0  0
  152.0598  144.5277  160.9955 H   0  0  0  0  0  0  0  0  0  0  0  0
  151.3692  142.1596  160.6641 H   0  0  0  0  0  0  0  0  0  0  0  0
  153.4686  142.0625  158.4598 H   0  0  0  0  0  0  0  0  0  0  0  0
  153.5402  141.2179  159.9818 H   0  0  0  0  0  0  0  0  0  0  0  0
  152.7264  139.7392  158.1350 H   0  0  0  0  0  0  0  0  0  0  0  0
  151.5667  139.8786  159.4333 H   0  0  0  0  0  0  0  0  0  0  0  0
  151.4652  141.3386  156.7520 H   0  0  0  0  0  0  0  0  0  0  0  0
  150.3872  140.0795  157.2980 H   0  0  0  0  0  0  0  0  0  0  0  0
  149.5761  141.4960  159.1360 H   0  0  0  0  0  0  0  0  0  0  0  0
  149.3621  143.1902  156.7766 H   0  0  0  0  0  0  0  0  0  0  0  0
  148.3144  141.4701  154.0111 H   0  0  0  0  0  0  0  0  0  0  0  0
  149.6916  142.2426  154.7917 H   0  0  0  0  0  0  0  0  0  0  0  0
  148.4547  138.4999  153.8736 H   0  0  0  0  0  0  0  0  0  0  0  0
  150.8243  137.0704  153.8260 H   0  0  0  0  0  0  0  0  0  0  0  0
  150.1666  143.8094  159.4075 H   0  0  0  0  0  0  0  0  0  0  0  0
  152.2186  143.5468  157.1488 H   0  0  0  0  0  0  0  0  0  0  0  0
  151.9687  144.9566  158.1693 H   0  0  0  0  0  0  0  0  0  0  0  0
  150.7144  144.4505  157.0690 H   0  0  0  0  0  0  0  0  0  0  0  0
  1  2  1  0  0  0  0
  1 19  1  0  0  0  0
  1 20  1  0  0  0  0
  1 21  1  0  0  0  0
  2 17  1  0  0  0  0
  2  3  1  0  0  0  0
  2 22  1  0  0  0  0
  3  4  1  0  0  0  0
  3 23  1  0  0  0  0
  3 24  1  0  0  0  0
  4  5  1  0  0  0  0
  4 25  1  0  0  0  0
  4 26  1  0  0  0  0
  5  6  1  0  0  0  0
  5 27  1  0  0  0  0
  5 28  1  0  0  0  0
  6  7  1  0  0  0  0
  6 17  1  0  0  0  0
  6 29  1  0  0  0  0
  7  8  1  0  0  0  0
  7 30  1  0  0  0  0
  8  9  2  0  0  0  0
  8 10  2  0  0  0  0
  8 11  1  0  0  0  0
 11 12  1  0  0  0  0
 11 31  1  0  0  0  0
 11 32  1  0  0  0  0
 12 16  2  0  0  0  0
 12 13  1  0  0  0  0
 13 14  2  0  0  0  0
 13 33  1  0  0  0  0
 14 15  1  0  0  0  0
 14 34  1  0  0  0  0
 15 16  1  0  0  0  0
 17 18  1  0  0  0  0
 17 35  1  0  0  0  0
 18 36  1  0  0  0  0
 18 37  1  0  0  0  0
 18 38  1  0  0  0  0
M  END
> <s_m_source_file>
AV-unprocessed.smi

> <i_m_source_file_index>
2451

> <i_lp_mmshare_version>
43012

> <i_f3d_flags>
0

> <s_epik_input>
W0NIM11bQ0BASF0xW0NIMl1bQ0gyXVtDSDJdW0NASF0oW0NASF0xW0NIM10pW05IXVMoPU8pKD1PKVtDSDJdYzJbY0hdW2NIXW9uMg==

> <s_epik_cmdline>
J2VwaWtfcHl0aG9uJywgJy1waCcsICc3LjAnLCAnLXRuJywgJzgnLCAnLW1hJywgJzIwMCcsICctbWV0YWxfYmluZGluZycsICctaW1hZScsICc8aW5maWxlLm1hZT4nLCAnLW9tYWUnLCAnPG91dGZpbGUubWFlPic=

> <r_lp_tautomer_probability>
1

> <r_epik_Ionization_Penalty>
8.73668e-05

> <r_epik_Ionization_Penalty_Charging>
0

> <r_epik_Ionization_Penalty_Neutral>
8.73668e-05

> <r_epik_State_Penalty>
-0

> <r_epik_Charging_Adjusted_Penalty>
0

> <i_epik_Tot_Q>
0

> <i_epik_Tot_abs_Q>
0

> <r_epik_Metal_State_Penalty>
0.0716439

> <b_epik_Metal_Only>
0

> <s_lp_Force_Field>
OPLS_2005

> <r_lp_Energy>
8.89421

> <b_lp_Chiralities_Consistent>
1

> <s_lp_Variant>
AV-unprocessed.smi:2451-7

> <Gold.Version>
5.8.1

> <Gold.Id.Protein>
6NUR|6NUR_protein|mol2

> <Gold.PLP.Fitness>
39.7640

> <Gold.PLP.PLP>
-33.2049

> <Gold.PLP.part.hbond>
-2.5640

> <Gold.PLP.part.metal>
0.0000

> <Gold.PLP.part.buried>
-2.7496

> <Gold.PLP.part.nonpolar>
-28.2751

> <Gold.PLP.part.repulsive>
0.2850

> <Gold.PLP.ligand.clash>
0.0000

> <Gold.PLP.ligand.torsion>
0.9206

> <Gold.PLP.Chemscore.Hbond>
1.9190

> <Gold.PLP.Chemscore.CHOScore>
0.8293

> <Gold.PLP.Chemscore.Metal>
0.0000

> <Gold.Chemscore.Hbonds>
donor molecule, donor type, donor heavy atom, donor atom, acceptor molecule, acceptor atom, score
      L1  H     7    30       P1  8028  0.94
      P1  H  7989  7998       L1    16  0.98
      L1  C    14    34       P1  7948  0.09
      L1  C    14    34       P1  7949  0.74

> <Gold.PLP.Chemscore.Internal.Correction>
0.1553

> <Gold.Rescore>
     Score         DG    S(hbond)    S(metal)    S(lipo)     H(rot)  DE(clash)    DE(int)     intcor
     16.27     -18.43       1.75        0.00      96.97       1.66       0.17       1.99       ----

> <Gold.Chemscore.Fitness>
16.2658

> <Gold.Chemscore.DG>
-18.4326

> <Gold.Chemscore.ZeroCoef>
-5.4800

> <Gold.Chemscore.Hbond>
1.7526

> <Gold.Chemscore.Metal>
0.0000

> <Gold.Chemscore.Lipo>
96.9691

> <Gold.Chemscore.Internal_Hbond>
0.0000

> <Gold.Chemscore.DEClash>
0.1729

> <Gold.Chemscore.DEInternal>
1.9938

> <Gold.Chemscore.Rot>
1.6588

> <Gold.Chemscore.Internal.Correction>
   9.000000E+99

> <Gold.Chemscore.Hbonds>
donor molecule, donor type, donor heavy atom, donor atom, acceptor molecule, acceptor atom, score
      L1  H     7    30       P1  8028  0.89
      P1  H  7989  7998       L1    16  0.06

> <Gold.Chemscore.Hbond.Weighted>
-5.8538

> <Gold.Chemscore.Metal.Weighted>
-0.0000

> <Gold.Chemscore.Lipo.Weighted>
-11.3454

> <Gold.Chemscore.Internal_Hbond.Weighted>
0.0000

> <Gold.Chemscore.DEClash.Weighted>
0.1729

> <Gold.Chemscore.DEInternal.Weighted>
1.9938

> <Gold.Chemscore.Rot.Weighted>
4.2466

> <Gold.Chemscore.Internal.Correction.Weighted>
   9.000000E+99

> <Gold.Protein.RotatedTorsions>
[ 6907 6896 6895 6894 ] final  131.71 input  -60.11 | X-H torsion
[ 7974 7965 7964 7962 ] final   -6.61 input  175.53 | X-H torsion
[ 8008 7997 7996 7995 ] final -104.89 input   59.86 | X-H torsion
[ 10167 10162 10161 10158 ] final  132.93 input  -65.29 | X-H torsion
[ 10718 10713 10712 10709 ] final -111.07 input   66.30 | X-H torsion
[ 10763 10752 10751 10750 ] final  -42.10 input  -60.55 | X-H torsion
[ 11005 11000 10999 10996 ] final  131.85 input  -57.11 | X-H torsion

> <Gold.Protein.ActiveResidues>
 VAL166  LYS551  ARG553  GLY616  TRP617  ASP618  TYR619  PRO620  LYS621  CYS622 
 ASP623  PHE694  ASN695  SER759  ASP760  ASP761  ALA762  ILE779  LEU786  VAL792 
 PHE793  MET794  SER795  GLU796  ALA797  LYS798  CYS799  TRP800  GLU811  SER814 

> <Gold.Protein.RotatedAtoms>
  152.3399  133.6054  159.5868 H   0  0  0  0  0  0  0  0  0  0  0  0  # atno 6907 bound_to 6896
  150.7472  133.9739  159.3563 H   0  0  0  0  0  0  0  0  0  0  0  0  # atno 6908 bound_to 6896
  151.7604  135.0812  160.0396 H   0  0  0  0  0  0  0  0  0  0  0  0  # atno 6909 bound_to 6896
  146.2327  140.2196  142.8337 H   0  0  0  0  0  0  0  0  0  0  0  0  # atno 7974 bound_to 7965
  154.8919  140.0415  157.1843 H   0  0  0  0  0  0  0  0  0  0  0  0  # atno 8008 bound_to 7997
  154.8532  140.2932  155.5564 H   0  0  0  0  0  0  0  0  0  0  0  0  # atno 8009 bound_to 7997
  156.2996  140.2461  156.3494 H   0  0  0  0  0  0  0  0  0  0  0  0  # atno 8010 bound_to 7997
  139.5318  144.6639  151.4923 H   0  0  0  0  0  0  0  0  0  0  0  0  # atno 10167 bound_to 10162
  156.0626  130.5848  150.8324 H   0  0  0  0  0  0  0  0  0  0  0  0  # atno 10718 bound_to 10713
  153.9735  135.6725  153.4748 H   0  0  0  0  0  0  0  0  0  0  0  0  # atno 10763 bound_to 10752
  153.0782  135.4937  154.8444 H   0  0  0  0  0  0  0  0  0  0  0  0  # atno 10764 bound_to 10752
  154.7206  135.3116  154.9015 H   0  0  0  0  0  0  0  0  0  0  0  0  # atno 10765 bound_to 10752
  139.9755  134.9565  156.9498 H   0  0  0  0  0  0  0  0  0  0  0  0  # atno 11005 bound_to 11000
  144.9642  140.8305  143.5495 LP  0  0  0  0  0  0  0  0  0  0  0  0  # atno 17320 bound_to 7965
  145.2170  139.2177  143.5113 LP  0  0  0  0  0  0  0  0  0  0  0  0  # atno 17321 bound_to 7965
  140.6501  143.8714  150.6777 LP  0  0  0  0  0  0  0  0  0  0  0  0  # atno 17342 bound_to 10162
  140.2076  143.3909  152.1743 LP  0  0  0  0  0  0  0  0  0  0  0  0  # atno 17343 bound_to 10162
  157.5646  131.0946  150.9509 LP  0  0  0  0  0  0  0  0  0  0  0  0  # atno 17370 bound_to 10713
  156.9738  130.5501  149.5292 LP  0  0  0  0  0  0  0  0  0  0  0  0  # atno 17371 bound_to 10713
  140.5204  134.0913  155.7290 LP  0  0  0  0  0  0  0  0  0  0  0  0  # atno 17394 bound_to 11000
  141.1432  133.9101  157.2277 LP  0  0  0  0  0  0  0  0  0  0  0  0  # atno 17395 bound_to 11000

$$$$
