AV-unprocessed.smi:2499|AV-procd|sdf|9836|dock4
  -GOLD-   2272013463D 1   1.00000     0.00000
 Structure written by MMmdl.
 27 28  0  0  0  0  0  0  0  0  1 V2000
  151.1325  141.4176  158.2042 C   0  0  0  0  0  0  0  0  0  0  0  0
  151.3021  142.5894  157.2274 C   0  0  1  0  0  0  0  0  0  0  0  0
  150.2216  142.5387  156.2472 N   0  0  0  0  0  0  0  0  0  0  0  0
  150.0153  141.5582  155.3546 C   0  0  0  0  0  0  0  0  0  0  0  0
  150.7465  140.5644  155.2992 O   0  0  0  0  0  0  0  0  0  0  0  0
  148.8937  141.8363  154.5891 N   0  0  0  0  0  0  0  0  0  0  0  0
  148.2615  140.8560  154.0220 C   0  0  0  0  0  0  0  0  0  0  0  0
  147.1430  140.9272  153.2070 N   0  0  0  0  0  0  0  0  0  0  0  0
  146.8029  139.6547  152.8394 C   0  0  0  0  0  0  0  0  0  0  0  0
  147.6692  138.8159  153.4004 C   0  0  0  0  0  0  0  0  0  0  0  0
  148.5761  139.5207  154.1329 O   0  0  0  0  0  0  0  0  0  0  0  0
  151.3781  143.9103  157.9752 C   0  0  0  0  0  0  0  0  0  0  0  0
  152.6725  144.6816  158.0834 C   0  0  0  0  0  0  0  0  0  0  0  0
  152.0878  144.0108  159.3048 C   0  0  0  0  0  0  0  0  0  0  0  0
  151.9507  141.3846  158.9241 H   0  0  0  0  0  0  0  0  0  0  0  0
  151.1227  140.4632  157.6765 H   0  0  0  0  0  0  0  0  0  0  0  0
  150.2002  141.4990  158.7642 H   0  0  0  0  0  0  0  0  0  0  0  0
  152.2506  142.4400  156.7077 H   0  0  0  0  0  0  0  0  0  0  0  0
  149.5783  143.3172  156.2431 H   0  0  0  0  0  0  0  0  0  0  0  0
  146.6361  141.7490  152.9112 H   0  0  0  0  0  0  0  0  0  0  0  0
  145.9520  139.4801  152.1973 H   0  0  0  0  0  0  0  0  0  0  0  0
  147.7708  137.7410  153.3770 H   0  0  0  0  0  0  0  0  0  0  0  0
  150.4749  144.5110  157.8841 H   0  0  0  0  0  0  0  0  0  0  0  0
  153.5677  144.2393  157.6509 H   0  0  0  0  0  0  0  0  0  0  0  0
  152.6148  145.7666  158.0264 H   0  0  0  0  0  0  0  0  0  0  0  0
  151.6414  144.6488  160.0648 H   0  0  0  0  0  0  0  0  0  0  0  0
  152.5944  143.1234  159.6789 H   0  0  0  0  0  0  0  0  0  0  0  0
  1  2  1  0  0  0  0
  1 15  1  0  0  0  0
  1 16  1  0  0  0  0
  1 17  1  0  0  0  0
  2  3  1  0  0  0  0
  2 12  1  0  0  0  0
  2 18  1  0  0  0  0
  3 19  1  0  0  0  0
  3  4  1  0  0  0  0
  4  6  1  0  0  0  0
  4  5  2  0  0  0  0
  6  7  2  0  0  0  0
  7 11  1  0  0  0  0
  7  8  1  0  0  0  0
  8 20  1  0  0  0  0
  8  9  1  0  0  0  0
  9 21  1  0  0  0  0
  9 10  2  0  0  0  0
 10 22  1  0  0  0  0
 10 11  1  0  0  0  0
 12 14  1  0  0  0  0
 12 13  1  0  0  0  0
 12 23  1  0  0  0  0
 13 14  1  0  0  0  0
 13 24  1  0  0  0  0
 13 25  1  0  0  0  0
 14 26  1  0  0  0  0
 14 27  1  0  0  0  0
M  END
> <s_m_source_file>
AV-unprocessed.smi

> <i_m_source_file_index>
2499

> <i_lp_mmshare_version>
43012

> <i_f3d_flags>
0

> <s_epik_input>
W0NIMl0xW0NIMl1bQ0hdMVtDQEhdKFtDSDNdKVtOSF1DKD1PKVtOSF1jMm5bY0hdW2NIXW8y

> <s_epik_cmdline>
J2VwaWtfcHl0aG9uJywgJy1waCcsICc3LjAnLCAnLXRuJywgJzgnLCAnLW1hJywgJzIwMCcsICctbWV0YWxfYmluZGluZycsICctaW1hZScsICc8aW5maWxlLm1hZT4nLCAnLW9tYWUnLCAnPG91dGZpbGUubWFlPic=

> <r_lp_tautomer_probability>
0.107061

> <r_epik_Ionization_Penalty>
1.51515

> <r_epik_Ionization_Penalty_Charging>
1.51478

> <r_epik_Ionization_Penalty_Neutral>
0.000369309

> <r_epik_State_Penalty>
2.62718

> <r_epik_Charging_Adjusted_Penalty>
4.14196

> <i_epik_Tot_Q>
0

> <i_epik_Tot_abs_Q>
0

> <r_epik_Metal_State_Penalty>
3.5378

> <b_epik_Metal_Only>
0

> <s_lp_Force_Field>
OPLS_2005

> <r_lp_Energy>
35.9469

> <b_lp_Chiralities_Consistent>
1

> <s_lp_Variant>
AV-unprocessed.smi:2499-6

> <Gold.Version>
5.8.1

> <Gold.Id.Protein>
6NUR|6NUR_protein|mol2

> <Gold.PLP.Fitness>
39.6709

> <Gold.PLP.PLP>
-29.0348

> <Gold.PLP.part.hbond>
-2.6657

> <Gold.PLP.part.metal>
0.0000

> <Gold.PLP.part.buried>
-3.3388

> <Gold.PLP.part.nonpolar>
-24.3168

> <Gold.PLP.part.repulsive>
0.9580

> <Gold.PLP.ligand.clash>
0.0000

> <Gold.PLP.ligand.torsion>
1.0673

> <Gold.PLP.Chemscore.Hbond>
1.9600

> <Gold.PLP.Chemscore.CHOScore>
1.9430

> <Gold.PLP.Chemscore.Metal>
0.0000

> <Gold.Chemscore.Hbonds>
donor molecule, donor type, donor heavy atom, donor atom, acceptor molecule, acceptor atom, score
      L1  H     3    19       P1  8028  1.00
      P1  H  7989  7998       L1     5  0.96
      L1  C     9    21       P1 10175  0.93
      L1  C    10    22       P1  7948  1.00

> <Gold.PLP.Chemscore.Internal.Correction>
1.0619

> <Gold.Rescore>
     Score         DG    S(hbond)    S(metal)    S(lipo)     H(rot)  DE(clash)    DE(int)     intcor
     11.94     -14.93       1.35        0.00      70.54       1.29       0.26       2.72       ----

> <Gold.Chemscore.Fitness>
11.9431

> <Gold.Chemscore.DG>
-14.9269

> <Gold.Chemscore.ZeroCoef>
-5.4800

> <Gold.Chemscore.Hbond>
1.3474

> <Gold.Chemscore.Metal>
0.0000

> <Gold.Chemscore.Lipo>
70.5368

> <Gold.Chemscore.Internal_Hbond>
0.0000

> <Gold.Chemscore.DEClash>
0.2631

> <Gold.Chemscore.DEInternal>
2.7207

> <Gold.Chemscore.Rot>
1.2915

> <Gold.Chemscore.Internal.Correction>
   9.000000E+99

> <Gold.Chemscore.Hbonds>
donor molecule, donor type, donor heavy atom, donor atom, acceptor molecule, acceptor atom, score
      L1  H     3    19       P1  8028  0.98
      P1  H  7989  7998       L1     5  0.22

> <Gold.Chemscore.Hbond.Weighted>
-4.5003

> <Gold.Chemscore.Metal.Weighted>
-0.0000

> <Gold.Chemscore.Lipo.Weighted>
-8.2528

> <Gold.Chemscore.Internal_Hbond.Weighted>
0.0000

> <Gold.Chemscore.DEClash.Weighted>
0.2631

> <Gold.Chemscore.DEInternal.Weighted>
2.7207

> <Gold.Chemscore.Rot.Weighted>
3.3062

> <Gold.Chemscore.Internal.Correction.Weighted>
   9.000000E+99

> <Gold.Protein.RotatedTorsions>
[ 6907 6896 6895 6894 ] final  -78.53 input  -60.11 | X-H torsion
[ 7974 7965 7964 7962 ] final  -58.52 input  175.53 | X-H torsion
[ 8008 7997 7996 7995 ] final  -52.71 input   59.86 | X-H torsion
[ 10167 10162 10161 10158 ] final  155.18 input  -65.29 | X-H torsion
[ 10718 10713 10712 10709 ] final   33.11 input   66.30 | X-H torsion
[ 10763 10752 10751 10750 ] final   61.98 input  -60.55 | X-H torsion
[ 11005 11000 10999 10996 ] final  119.00 input  -57.11 | X-H torsion

> <Gold.Protein.ActiveResidues>
 VAL166  LYS551  ARG553  GLY616  TRP617  ASP618  TYR619  PRO620  LYS621  CYS622 
 ASP623  PHE694  ASN695  SER759  ASP760  ASP761  ALA762  ILE779  LEU786  VAL792 
 PHE793  MET794  SER795  GLU796  ALA797  LYS798  CYS799  TRP800  GLU811  SER814 

> <Gold.Protein.RotatedAtoms>
  150.6971  134.4259  159.5225 H   0  0  0  0  0  0  0  0  0  0  0  0  # atno 6907 bound_to 6896
  152.1994  134.8599  160.0518 H   0  0  0  0  0  0  0  0  0  0  0  0  # atno 6908 bound_to 6896
  151.9525  133.3635  159.4042 H   0  0  0  0  0  0  0  0  0  0  0  0  # atno 6909 bound_to 6896
  145.8384  140.8434  143.0047 H   0  0  0  0  0  0  0  0  0  0  0  0  # atno 7974 bound_to 7965
  154.4114  140.1217  156.5036 H   0  0  0  0  0  0  0  0  0  0  0  0  # atno 8008 bound_to 7997
  155.6870  140.3495  155.4858 H   0  0  0  0  0  0  0  0  0  0  0  0  # atno 8009 bound_to 7997
  155.9502  140.1103  157.0973 H   0  0  0  0  0  0  0  0  0  0  0  0  # atno 8010 bound_to 7997
  139.4821  144.5121  151.8008 H   0  0  0  0  0  0  0  0  0  0  0  0  # atno 10167 bound_to 10162
  157.2937  130.7315  149.6625 H   0  0  0  0  0  0  0  0  0  0  0  0  # atno 10718 bound_to 10713
  152.9968  135.5481  154.6120 H   0  0  0  0  0  0  0  0  0  0  0  0  # atno 10763 bound_to 10752
  154.5439  135.2822  155.1073 H   0  0  0  0  0  0  0  0  0  0  0  0  # atno 10764 bound_to 10752
  154.2339  135.6428  153.5237 H   0  0  0  0  0  0  0  0  0  0  0  0  # atno 10765 bound_to 10752
  139.9130  134.9625  156.7588 H   0  0  0  0  0  0  0  0  0  0  0  0  # atno 11005 bound_to 11000
  144.6735  140.0775  143.7470 LP  0  0  0  0  0  0  0  0  0  0  0  0  # atno 17320 bound_to 7965
  145.9493  139.2722  143.1222 LP  0  0  0  0  0  0  0  0  0  0  0  0  # atno 17321 bound_to 7965
  140.4625  144.1702  150.5908 LP  0  0  0  0  0  0  0  0  0  0  0  0  # atno 17342 bound_to 10162
  140.4469  143.2503  151.9399 LP  0  0  0  0  0  0  0  0  0  0  0  0  # atno 17343 bound_to 10162
  155.9668  130.4301  150.4862 LP  0  0  0  0  0  0  0  0  0  0  0  0  # atno 17370 bound_to 10713
  157.2829  131.0610  151.2185 LP  0  0  0  0  0  0  0  0  0  0  0  0  # atno 17371 bound_to 10713
  140.6714  133.9556  155.7859 LP  0  0  0  0  0  0  0  0  0  0  0  0  # atno 17394 bound_to 11000
  141.0575  134.0395  157.3703 LP  0  0  0  0  0  0  0  0  0  0  0  0  # atno 17395 bound_to 11000

$$$$
