AV-unprocessed.smi:1966|AV-procd|sdf|7951|dock8
  -GOLD-   2272010123D 1   1.00000     0.00000
 Structure written by MMmdl.
 53 54  0  0  0  0  0  0  0  0  1 V2000
  145.9550  134.8010  153.4836 C   0  0  0  0  0  0  0  0  0  0  0  0
  147.1772  134.4014  154.3029 C   0  0  0  0  0  0  0  0  0  0  0  0
  147.0421  133.9820  155.4520 O   0  0  0  0  0  0  0  0  0  0  0  0
  148.3673  134.5383  153.6972 N   0  0  0  0  0  0  0  0  0  0  0  0
  149.6662  134.2055  154.2878 C   0  0  1  0  0  0  0  0  0  0  0  0
  150.0606  135.3131  155.2858 C   0  0  0  0  0  0  0  0  0  0  0  0
  150.3208  135.0219  156.4537 O   0  0  0  0  0  0  0  0  0  0  0  0
  150.0948  136.5606  154.7808 N   0  0  0  0  0  0  0  0  0  0  0  0
  150.4253  137.7847  155.4239 C   0  0  0  0  0  0  0  0  0  0  0  0
  150.3431  139.0622  154.8220 C   0  0  0  0  0  0  0  0  0  0  0  0
  150.6883  140.1977  155.5803 C   0  0  0  0  0  0  0  0  0  0  0  0
  151.0987  140.0361  156.9246 C   0  0  0  0  0  0  0  0  0  0  0  0
  151.4505  141.1619  157.7010 N   0  0  0  0  0  0  0  0  0  0  0  0
  152.1331  140.9359  158.9721 C   0  0  0  0  0  0  0  0  0  0  0  0
  152.7445  142.2483  159.4936 C   0  0  2  0  0  0  0  0  0  0  0  0
  153.3544  142.0792  160.8891 C   0  0  0  0  0  0  0  0  0  0  0  0
  151.7318  143.2507  159.5721 O   0  0  0  0  0  0  0  0  0  0  0  0
  151.0599  143.5211  158.3398 C   0  0  1  0  0  0  0  0  0  0  0  0
  151.9577  144.2703  157.3390 C   0  0  0  0  0  0  0  0  0  0  0  0
  150.4519  142.2254  157.7669 C   0  0  0  0  0  0  0  0  0  0  0  0
  151.1702  138.8107  157.4995 N   0  0  0  0  0  0  0  0  0  0  0  0
  150.8388  137.7256  156.7695 C   0  0  0  0  0  0  0  0  0  0  0  0
  149.5483  132.8393  155.0265 C   0  0  0  0  0  0  0  0  0  0  0  0
  150.8675  132.3956  155.6926 C   0  0  0  0  0  0  0  0  0  0  0  0
  149.0589  131.7185  154.0879 C   0  0  0  0  0  0  0  0  0  0  0  0
  145.9195  134.2369  152.5511 H   0  0  0  0  0  0  0  0  0  0  0  0
  145.9891  135.8640  153.2440 H   0  0  0  0  0  0  0  0  0  0  0  0
  145.0359  134.6039  154.0363 H   0  0  0  0  0  0  0  0  0  0  0  0
  148.3775  134.8840  152.7488 H   0  0  0  0  0  0  0  0  0  0  0  0
  150.4177  134.1272  153.4991 H   0  0  0  0  0  0  0  0  0  0  0  0
  149.8013  136.6483  153.8186 H   0  0  0  0  0  0  0  0  0  0  0  0
  150.0171  139.2021  153.8038 H   0  0  0  0  0  0  0  0  0  0  0  0
  150.6454  141.1730  155.1191 H   0  0  0  0  0  0  0  0  0  0  0  0
  151.4199  140.5376  159.6952 H   0  0  0  0  0  0  0  0  0  0  0  0
  152.9236  140.1942  158.8502 H   0  0  0  0  0  0  0  0  0  0  0  0
  153.5350  142.5770  158.8186 H   0  0  0  0  0  0  0  0  0  0  0  0
  154.1423  141.3260  160.8845 H   0  0  0  0  0  0  0  0  0  0  0  0
  152.6008  141.7712  161.6146 H   0  0  0  0  0  0  0  0  0  0  0  0
  153.7910  143.0149  161.2391 H   0  0  0  0  0  0  0  0  0  0  0  0
  150.2361  144.1918  158.5853 H   0  0  0  0  0  0  0  0  0  0  0  0
  151.3857  144.5769  156.4629 H   0  0  0  0  0  0  0  0  0  0  0  0
  152.7850  143.6563  156.9841 H   0  0  0  0  0  0  0  0  0  0  0  0
  152.3765  145.1699  157.7902 H   0  0  0  0  0  0  0  0  0  0  0  0
  150.0082  142.4342  156.7945 H   0  0  0  0  0  0  0  0  0  0  0  0
  149.6400  141.8877  158.4123 H   0  0  0  0  0  0  0  0  0  0  0  0
  150.9100  136.7763  157.2797 H   0  0  0  0  0  0  0  0  0  0  0  0
  148.8044  132.9379  155.8193 H   0  0  0  0  0  0  0  0  0  0  0  0
  151.6747  132.3292  154.9624 H   0  0  0  0  0  0  0  0  0  0  0  0
  150.7615  131.4149  156.1571 H   0  0  0  0  0  0  0  0  0  0  0  0
  151.1834  133.0813  156.4787 H   0  0  0  0  0  0  0  0  0  0  0  0
  149.7375  131.5867  153.2445 H   0  0  0  0  0  0  0  0  0  0  0  0
  148.0660  131.9240  153.6877 H   0  0  0  0  0  0  0  0  0  0  0  0
  148.9961  130.7654  154.6138 H   0  0  0  0  0  0  0  0  0  0  0  0
  1  2  1  0  0  0  0
  1 26  1  0  0  0  0
  1 27  1  0  0  0  0
  1 28  1  0  0  0  0
  2  3  2  0  0  0  0
  2  4  1  0  0  0  0
  4  5  1  0  0  0  0
  4 29  1  0  0  0  0
  5  6  1  0  0  0  0
  5 23  1  0  0  0  0
  5 30  1  0  0  0  0
  6  7  2  0  0  0  0
  6  8  1  0  0  0  0
  8  9  1  0  0  0  0
  8 31  1  0  0  0  0
  9 22  1  0  0  0  0
  9 10  2  0  0  0  0
 10 11  1  0  0  0  0
 10 32  1  0  0  0  0
 11 12  2  0  0  0  0
 11 33  1  0  0  0  0
 12 13  1  0  0  0  0
 12 21  1  0  0  0  0
 13 20  1  0  0  0  0
 13 14  1  0  0  0  0
 14 15  1  0  0  0  0
 14 34  1  0  0  0  0
 14 35  1  0  0  0  0
 15 16  1  0  0  0  0
 15 17  1  0  0  0  0
 15 36  1  0  0  0  0
 16 37  1  0  0  0  0
 16 38  1  0  0  0  0
 16 39  1  0  0  0  0
 17 18  1  0  0  0  0
 18 19  1  0  0  0  0
 18 20  1  0  0  0  0
 18 40  1  0  0  0  0
 19 41  1  0  0  0  0
 19 42  1  0  0  0  0
 19 43  1  0  0  0  0
 20 44  1  0  0  0  0
 20 45  1  0  0  0  0
 21 22  2  0  0  0  0
 22 46  1  0  0  0  0
 23 24  1  0  0  0  0
 23 25  1  0  0  0  0
 23 47  1  0  0  0  0
 24 48  1  0  0  0  0
 24 49  1  0  0  0  0
 24 50  1  0  0  0  0
 25 51  1  0  0  0  0
 25 52  1  0  0  0  0
 25 53  1  0  0  0  0
M  END
> <s_m_source_file>
AV-unprocessed.smi

> <i_m_source_file_index>
1966

> <i_lp_mmshare_version>
43012

> <i_f3d_flags>
0

> <s_epik_input>
W0NIM11DKD1PKVtOSF1bQ0BASF0oW0NIXShbQ0gzXSlbQ0gzXSlDKD1PKVtOSF1jMVtjSF1bY0hdYyhuW2NIXTEpTjJbQ0gyXVtDQEBIXShbQ0gzXSlPW0NAQEhdKFtDSDNdKVtDSDJdMg==

> <s_epik_cmdline>
J2VwaWtfcHl0aG9uJywgJy1waCcsICc3LjAnLCAnLXRuJywgJzgnLCAnLW1hJywgJzIwMCcsICctbWV0YWxfYmluZGluZycsICctaW1hZScsICc8aW5maWxlLm1hZT4nLCAnLW9tYWUnLCAnPG91dGZpbGUubWFlPic=

> <r_lp_tautomer_probability>
1

> <r_epik_Ionization_Penalty>
0.000679699

> <r_epik_Ionization_Penalty_Charging>
0

> <r_epik_Ionization_Penalty_Neutral>
0.000679699

> <r_epik_State_Penalty>
0.000430485

> <r_epik_Charging_Adjusted_Penalty>
0.000430485

> <i_epik_Tot_Q>
0

> <i_epik_Tot_abs_Q>
0

> <r_epik_Metal_State_Penalty>
-0

> <b_epik_Metal_Only>
0

> <s_lp_Force_Field>
OPLS_2005

> <r_lp_Energy>
28.9115

> <b_lp_Chiralities_Consistent>
1

> <s_lp_Variant>
AV-unprocessed.smi:1966-4

> <Gold.Version>
5.8.1

> <Gold.Id.Protein>
6NUR|6NUR_protein|mol2

> <Gold.PLP.Fitness>
44.2744

> <Gold.PLP.PLP>
-40.1667

> <Gold.PLP.part.hbond>
-1.7048

> <Gold.PLP.part.metal>
0.0000

> <Gold.PLP.part.buried>
-5.5307

> <Gold.PLP.part.nonpolar>
-32.6118

> <Gold.PLP.part.repulsive>
0.0770

> <Gold.PLP.ligand.clash>
0.0000

> <Gold.PLP.ligand.torsion>
0.4485

> <Gold.PLP.Chemscore.Hbond>
1.5473

> <Gold.PLP.Chemscore.CHOScore>
0.0000

> <Gold.PLP.Chemscore.Metal>
0.0000

> <Gold.Chemscore.Hbonds>
donor molecule, donor type, donor heavy atom, donor atom, acceptor molecule, acceptor atom, score
      L1  H     4    29       P1  7948  0.82
      L1  H     8    31       P1  7948  0.73

> <Gold.PLP.Chemscore.Internal.Correction>
0.3630

> <Gold.Rescore>
     Score         DG    S(hbond)    S(metal)    S(lipo)     H(rot)  DE(clash)    DE(int)     intcor
     13.46     -18.29       1.44        0.00     105.06       1.68       0.12       4.71       ----

> <Gold.Chemscore.Fitness>
13.4596

> <Gold.Chemscore.DG>
-18.2882

> <Gold.Chemscore.ZeroCoef>
-5.4800

> <Gold.Chemscore.Hbond>
1.4391

> <Gold.Chemscore.Metal>
0.0000

> <Gold.Chemscore.Lipo>
105.0593

> <Gold.Chemscore.Internal_Hbond>
0.0000

> <Gold.Chemscore.DEClash>
0.1213

> <Gold.Chemscore.DEInternal>
4.7073

> <Gold.Chemscore.Rot>
1.6759

> <Gold.Chemscore.Internal.Correction>
   9.000000E+99

> <Gold.Chemscore.Hbonds>
donor molecule, donor type, donor heavy atom, donor atom, acceptor molecule, acceptor atom, score
      L1  H     4    29       P1  7948  0.44
      L1  H     8    31       P1  7948  0.36

> <Gold.Chemscore.Hbond.Weighted>
-4.8065

> <Gold.Chemscore.Metal.Weighted>
-0.0000

> <Gold.Chemscore.Lipo.Weighted>
-12.2919

> <Gold.Chemscore.Internal_Hbond.Weighted>
0.0000

> <Gold.Chemscore.DEClash.Weighted>
0.1213

> <Gold.Chemscore.DEInternal.Weighted>
4.7073

> <Gold.Chemscore.Rot.Weighted>
4.2902

> <Gold.Chemscore.Internal.Correction.Weighted>
   9.000000E+99

> <Gold.Protein.RotatedTorsions>
[ 6907 6896 6895 6894 ] final  -99.60 input  -60.11 | X-H torsion
[ 7974 7965 7964 7962 ] final  -69.66 input  175.53 | X-H torsion
[ 8008 7997 7996 7995 ] final -169.42 input   59.86 | X-H torsion
[ 10167 10162 10161 10158 ] final  -56.44 input  -65.29 | X-H torsion
[ 10718 10713 10712 10709 ] final -176.71 input   66.30 | X-H torsion
[ 10763 10752 10751 10750 ] final   83.08 input  -60.55 | X-H torsion
[ 11005 11000 10999 10996 ] final -125.75 input  -57.11 | X-H torsion

> <Gold.Protein.ActiveResidues>
 VAL166  LYS551  ARG553  GLY616  TRP617  ASP618  TYR619  PRO620  LYS621  CYS622 
 ASP623  PHE694  ASN695  SER759  ASP760  ASP761  ALA762  ILE779  LEU786  VAL792 
 PHE793  MET794  SER795  GLU796  ALA797  LYS798  CYS799  TRP800  GLU811  SER814 

> <Gold.Protein.RotatedAtoms>
  150.7085  134.1016  159.3967 H   0  0  0  0  0  0  0  0  0  0  0  0  # atno 6907 bound_to 6896
  151.9002  135.0379  160.0515 H   0  0  0  0  0  0  0  0  0  0  0  0  # atno 6908 bound_to 6896
  152.2420  133.5108  159.5312 H   0  0  0  0  0  0  0  0  0  0  0  0  # atno 6909 bound_to 6896
  145.7009  140.9117  143.0732 H   0  0  0  0  0  0  0  0  0  0  0  0  # atno 7974 bound_to 7965
  155.9047  140.1047  157.1324 H   0  0  0  0  0  0  0  0  0  0  0  0  # atno 8008 bound_to 7997
  154.4031  140.1286  156.4545 H   0  0  0  0  0  0  0  0  0  0  0  0  # atno 8009 bound_to 7997
  155.7381  140.3467  155.5093 H   0  0  0  0  0  0  0  0  0  0  0  0  # atno 8010 bound_to 7997
  140.6317  143.2462  151.5224 H   0  0  0  0  0  0  0  0  0  0  0  0  # atno 10167 bound_to 10162
  156.8187  130.9612  151.3113 H   0  0  0  0  0  0  0  0  0  0  0  0  # atno 10718 bound_to 10713
  153.1259  135.4704  154.9272 H   0  0  0  0  0  0  0  0  0  0  0  0  # atno 10763 bound_to 10752
  154.7620  135.3134  154.8362 H   0  0  0  0  0  0  0  0  0  0  0  0  # atno 10764 bound_to 10752
  153.8916  135.6884  153.4814 H   0  0  0  0  0  0  0  0  0  0  0  0  # atno 10765 bound_to 10752
  140.9736  134.0770  157.3842 H   0  0  0  0  0  0  0  0  0  0  0  0  # atno 11005 bound_to 11000
  144.6969  139.8946  143.7455 LP  0  0  0  0  0  0  0  0  0  0  0  0  # atno 17320 bound_to 7965
  146.0799  139.3787  143.0471 LP  0  0  0  0  0  0  0  0  0  0  0  0  # atno 17321 bound_to 7965
  139.5530  144.2346  152.1564 LP  0  0  0  0  0  0  0  0  0  0  0  0  # atno 17342 bound_to 10162
  140.1592  144.5042  150.6642 LP  0  0  0  0  0  0  0  0  0  0  0  0  # atno 17343 bound_to 10162
  157.6468  130.8851  149.9554 LP  0  0  0  0  0  0  0  0  0  0  0  0  # atno 17370 bound_to 10713
  156.1002  130.3656  150.0233 LP  0  0  0  0  0  0  0  0  0  0  0  0  # atno 17371 bound_to 10713
  139.8922  135.0123  156.6832 LP  0  0  0  0  0  0  0  0  0  0  0  0  # atno 17394 bound_to 11000
  140.7291  133.9074  155.8199 LP  0  0  0  0  0  0  0  0  0  0  0  0  # atno 17395 bound_to 11000

$$$$
