AV-unprocessed.smi:3345|AV-procd|sdf|12901|dock9
  -GOLD-   2272019313D 1   1.00000     0.00000
 Structure written by MMmdl.
 40 41  0  0  0  0  0  0  0  0  1 V2000
  149.3562  140.7488  155.6932 C   0  0  0  0  0  0  0  0  0  0  0  0
  149.8497  141.7820  156.7180 C   0  0  2  0  0  0  0  0  0  0  0  0
  150.4772  141.1002  157.9536 C   0  0  0  0  0  0  0  0  0  0  0  0
  151.7000  141.7266  158.4569 N   0  0  0  0  0  0  0  0  0  0  0  0
  151.4587  143.0376  159.0557 C   0  0  0  0  0  0  0  0  0  0  0  0
  152.7521  143.6670  159.6018 C   0  0  0  0  0  0  0  0  0  0  0  0
  153.3567  142.7826  160.5395 O   0  0  0  0  0  0  0  0  0  0  0  0
  153.6537  141.5083  159.9784 C   0  0  0  0  0  0  0  0  0  0  0  0
  152.3622  140.8717  159.4367 C   0  0  0  0  0  0  0  0  0  0  0  0
  148.7172  142.6091  157.1284 N   0  0  0  0  0  0  0  0  0  0  0  0
  147.7327  142.2295  157.9586 C   0  0  0  0  0  0  0  0  0  0  0  0
  147.6710  141.1096  158.4669 O   0  0  0  0  0  0  0  0  0  0  0  0
  146.6606  143.2835  158.2690 C   0  0  1  0  0  0  0  0  0  0  0  0
  145.2709  142.8599  157.7515 C   0  0  0  0  0  0  0  0  0  0  0  0
  146.6626  143.5890  159.6953 N   0  0  0  0  0  0  0  0  0  0  0  0
  147.0029  144.7143  160.3277 C   0  0  0  0  0  0  0  0  0  0  0  0
  146.9392  144.6315  161.6494 N   0  0  0  0  0  0  0  0  0  0  0  0
  146.5392  143.3317  161.7767 C   0  0  0  0  0  0  0  0  0  0  0  0
  146.3712  142.6585  160.6389 N   0  0  0  0  0  0  0  0  0  0  0  0
  150.1770  140.1249  155.3385 H   0  0  0  0  0  0  0  0  0  0  0  0
  148.9178  141.2367  154.8220 H   0  0  0  0  0  0  0  0  0  0  0  0
  148.5996  140.0914  156.1231 H   0  0  0  0  0  0  0  0  0  0  0  0
  150.6129  142.3902  156.2284 H   0  0  0  0  0  0  0  0  0  0  0  0
  149.7413  141.0047  158.7542 H   0  0  0  0  0  0  0  0  0  0  0  0
  150.7260  140.0762  157.6717 H   0  0  0  0  0  0  0  0  0  0  0  0
  151.0286  143.7152  158.3191 H   0  0  0  0  0  0  0  0  0  0  0  0
  150.7309  142.9473  159.8636 H   0  0  0  0  0  0  0  0  0  0  0  0
  153.4500  143.8796  158.7903 H   0  0  0  0  0  0  0  0  0  0  0  0
  152.5347  144.6152  160.0936 H   0  0  0  0  0  0  0  0  0  0  0  0
  154.3952  141.6149  159.1851 H   0  0  0  0  0  0  0  0  0  0  0  0
  154.0951  140.8743  160.7473 H   0  0  0  0  0  0  0  0  0  0  0  0
  151.6855  140.6690  160.2683 H   0  0  0  0  0  0  0  0  0  0  0  0
  152.6002  139.9075  158.9863 H   0  0  0  0  0  0  0  0  0  0  0  0
  148.6844  143.5469  156.7560 H   0  0  0  0  0  0  0  0  0  0  0  0
  146.9297  144.2049  157.7492 H   0  0  0  0  0  0  0  0  0  0  0  0
  145.2884  142.6991  156.6729 H   0  0  0  0  0  0  0  0  0  0  0  0
  144.5288  143.6325  157.9541 H   0  0  0  0  0  0  0  0  0  0  0  0
  144.9215  141.9364  158.2151 H   0  0  0  0  0  0  0  0  0  0  0  0
  147.3084  145.6116  159.8102 H   0  0  0  0  0  0  0  0  0  0  0  0
  146.3732  142.8655  162.7368 H   0  0  0  0  0  0  0  0  0  0  0  0
  1  2  1  0  0  0  0
  1 20  1  0  0  0  0
  1 21  1  0  0  0  0
  1 22  1  0  0  0  0
  2  3  1  0  0  0  0
  2 10  1  0  0  0  0
  2 23  1  0  0  0  0
  3  4  1  0  0  0  0
  3 24  1  0  0  0  0
  3 25  1  0  0  0  0
  4  9  1  0  0  0  0
  4  5  1  0  0  0  0
  5  6  1  0  0  0  0
  5 26  1  0  0  0  0
  5 27  1  0  0  0  0
  6  7  1  0  0  0  0
  6 28  1  0  0  0  0
  6 29  1  0  0  0  0
  7  8  1  0  0  0  0
  8  9  1  0  0  0  0
  8 30  1  0  0  0  0
  8 31  1  0  0  0  0
  9 32  1  0  0  0  0
  9 33  1  0  0  0  0
 10 11  1  0  0  0  0
 10 34  1  0  0  0  0
 11 12  2  0  0  0  0
 11 13  1  0  0  0  0
 13 14  1  0  0  0  0
 13 15  1  0  0  0  0
 13 35  1  0  0  0  0
 14 36  1  0  0  0  0
 14 37  1  0  0  0  0
 14 38  1  0  0  0  0
 15 19  1  0  0  0  0
 15 16  1  0  0  0  0
 16 17  2  0  0  0  0
 16 39  1  0  0  0  0
 17 18  1  0  0  0  0
 18 19  2  0  0  0  0
 18 40  1  0  0  0  0
M  END
> <s_m_source_file>
AV-unprocessed.smi

> <i_m_source_file_index>
3345

> <i_lp_mmshare_version>
43012

> <i_f3d_flags>
0

> <s_epik_input>
W0NIMl0xW0NIMl1PW0NIMl1bQ0gyXU4xW0NIMl1bQ0BASF0oW0NIM10pW05IXUMoPU8pW0NASF0oW0NIM10pbjJbY0hdbltjSF1uMg==

> <s_epik_cmdline>
J2VwaWtfcHl0aG9uJywgJy1waCcsICc3LjAnLCAnLXRuJywgJzgnLCAnLW1hJywgJzIwMCcsICctbWV0YWxfYmluZGluZycsICctaW1hZScsICc8aW5maWxlLm1hZT4nLCAnLW9tYWUnLCAnPG91dGZpbGUubWFlPic=

> <r_lp_tautomer_probability>
1

> <r_epik_Ionization_Penalty>
0.211373

> <r_epik_Ionization_Penalty_Charging>
0

> <r_epik_Ionization_Penalty_Neutral>
0.211373

> <r_epik_State_Penalty>
0.201459

> <r_epik_Charging_Adjusted_Penalty>
0.201459

> <i_epik_Tot_Q>
0

> <i_epik_Tot_abs_Q>
0

> <r_epik_Metal_State_Penalty>
0.201458

> <b_epik_Metal_Only>
0

> <s_lp_Force_Field>
OPLS_2005

> <r_lp_Energy>
31.9389

> <b_lp_Chiralities_Consistent>
1

> <s_lp_Variant>
AV-unprocessed.smi:3345-3

> <Gold.Version>
5.8.1

> <Gold.Id.Protein>
6NUR|6NUR_protein|mol2

> <Gold.PLP.Fitness>
37.8496

> <Gold.PLP.PLP>
-30.4325

> <Gold.PLP.part.hbond>
-3.0000

> <Gold.PLP.part.metal>
0.0000

> <Gold.PLP.part.buried>
-4.6827

> <Gold.PLP.part.nonpolar>
-22.0593

> <Gold.PLP.part.repulsive>
0.1387

> <Gold.PLP.ligand.clash>
0.0000

> <Gold.PLP.ligand.torsion>
0.8633

> <Gold.PLP.Chemscore.Hbond>
2.0000

> <Gold.PLP.Chemscore.CHOScore>
1.0000

> <Gold.PLP.Chemscore.Metal>
0.0000

> <Gold.Chemscore.Hbonds>
donor molecule, donor type, donor heavy atom, donor atom, acceptor molecule, acceptor atom, score
      L1  H    10    34       P1  8028  1.00
      P1  H  6934  6946       L1    19  1.00
      L1  C    16    39       P1  8029  0.81

> <Gold.PLP.Chemscore.Internal.Correction>
0.1436

> <Gold.Rescore>
     Score         DG    S(hbond)    S(metal)    S(lipo)     H(rot)  DE(clash)    DE(int)     intcor
      8.12     -11.77       1.76        0.00      58.89       2.54       0.09       3.55       ----

> <Gold.Chemscore.Fitness>
8.1199

> <Gold.Chemscore.DG>
-11.7653

> <Gold.Chemscore.ZeroCoef>
-5.4800

> <Gold.Chemscore.Hbond>
1.7622

> <Gold.Chemscore.Metal>
0.0000

> <Gold.Chemscore.Lipo>
58.8883

> <Gold.Chemscore.Internal_Hbond>
0.0000

> <Gold.Chemscore.DEClash>
0.0930

> <Gold.Chemscore.DEInternal>
3.5523

> <Gold.Chemscore.Rot>
2.5353

> <Gold.Chemscore.Internal.Correction>
   9.000000E+99

> <Gold.Chemscore.Hbonds>
donor molecule, donor type, donor heavy atom, donor atom, acceptor molecule, acceptor atom, score
      L1  H    10    34       P1  8028  0.44
      P1  H  6934  6946       L1    19  0.86

> <Gold.Chemscore.Hbond.Weighted>
-5.8858

> <Gold.Chemscore.Metal.Weighted>
-0.0000

> <Gold.Chemscore.Lipo.Weighted>
-6.8899

> <Gold.Chemscore.Internal_Hbond.Weighted>
0.0000

> <Gold.Chemscore.DEClash.Weighted>
0.0930

> <Gold.Chemscore.DEInternal.Weighted>
3.5523

> <Gold.Chemscore.Rot.Weighted>
6.4905

> <Gold.Chemscore.Internal.Correction.Weighted>
   9.000000E+99

> <Gold.Protein.RotatedTorsions>
[ 6907 6896 6895 6894 ] final  -29.21 input  -60.11 | X-H torsion
[ 7974 7965 7964 7962 ] final  117.76 input  175.53 | X-H torsion
[ 8008 7997 7996 7995 ] final   94.61 input   59.86 | X-H torsion
[ 10167 10162 10161 10158 ] final  128.11 input  -65.29 | X-H torsion
[ 10718 10713 10712 10709 ] final  155.87 input   66.30 | X-H torsion
[ 10763 10752 10751 10750 ] final   47.82 input  -60.55 | X-H torsion
[ 11005 11000 10999 10996 ] final    5.29 input  -57.11 | X-H torsion

> <Gold.Protein.ActiveResidues>
 VAL166  LYS551  ARG553  GLY616  TRP617  ASP618  TYR619  PRO620  LYS621  CYS622 
 ASP623  PHE694  ASN695  SER759  ASP760  ASP761  ALA762  ILE779  LEU786  VAL792 
 PHE793  MET794  SER795  GLU796  ALA797  LYS798  CYS799  TRP800  GLU811  SER814 

> <Gold.Protein.RotatedAtoms>
  151.1223  135.0086  159.8544 H   0  0  0  0  0  0  0  0  0  0  0  0  # atno 6907 bound_to 6896
  152.5448  134.1708  159.8606 H   0  0  0  0  0  0  0  0  0  0  0  0  # atno 6908 bound_to 6896
  151.1767  133.4705  159.2627 H   0  0  0  0  0  0  0  0  0  0  0  0  # atno 6909 bound_to 6896
  145.1634  139.3142  143.4505 H   0  0  0  0  0  0  0  0  0  0  0  0  # atno 7974 bound_to 7965
  156.0598  140.3297  155.7449 H   0  0  0  0  0  0  0  0  0  0  0  0  # atno 8008 bound_to 7997
  155.5472  140.0607  157.2875 H   0  0  0  0  0  0  0  0  0  0  0  0  # atno 8009 bound_to 7997
  154.4476  140.1900  156.0638 H   0  0  0  0  0  0  0  0  0  0  0  0  # atno 8010 bound_to 7997
  139.5544  144.6837  151.4227 H   0  0  0  0  0  0  0  0  0  0  0  0  # atno 10167 bound_to 10162
  157.2125  131.0701  151.1961 H   0  0  0  0  0  0  0  0  0  0  0  0  # atno 10718 bound_to 10713
  152.9796  135.5964  154.3824 H   0  0  0  0  0  0  0  0  0  0  0  0  # atno 10763 bound_to 10752
  154.3488  135.2767  155.2385 H   0  0  0  0  0  0  0  0  0  0  0  0  # atno 10764 bound_to 10752
  154.4434  135.6007  153.6199 H   0  0  0  0  0  0  0  0  0  0  0  0  # atno 10765 bound_to 10752
  140.5724  134.0090  155.8014 H   0  0  0  0  0  0  0  0  0  0  0  0  # atno 11005 bound_to 11000
  146.3479  140.1753  142.8589 LP  0  0  0  0  0  0  0  0  0  0  0  0  # atno 17320 bound_to 7965
  145.0307  140.8868  143.5111 LP  0  0  0  0  0  0  0  0  0  0  0  0  # atno 17321 bound_to 7965
  140.6813  143.8074  150.7126 LP  0  0  0  0  0  0  0  0  0  0  0  0  # atno 17342 bound_to 10162
  140.1528  143.4342  152.2119 LP  0  0  0  0  0  0  0  0  0  0  0  0  # atno 17343 bound_to 10162
  157.3658  130.7155  149.6532 LP  0  0  0  0  0  0  0  0  0  0  0  0  # atno 17370 bound_to 10713
  155.9689  130.4213  150.4462 LP  0  0  0  0  0  0  0  0  0  0  0  0  # atno 17371 bound_to 10713
  141.1048  133.9711  157.3017 LP  0  0  0  0  0  0  0  0  0  0  0  0  # atno 17394 bound_to 11000
  139.9355  135.0197  156.8543 LP  0  0  0  0  0  0  0  0  0  0  0  0  # atno 17395 bound_to 11000

$$$$
