AV-unprocessed.smi:2845|AV-procd|sdf|10949|dock7
  -GOLD-   2272015403D 1   1.00000     0.00000
 Structure written by MMmdl.
 43 45  0  0  0  0  0  0  0  0  2 V2000
  152.7906  142.9143  161.4740 C   0  0  0  0  0  0  0  0  0  0  0  0
  152.2499  142.5074  160.1139 C   0  0  0  0  0  0  0  0  0  0  0  0
  152.5836  141.2299  159.6100 C   0  0  0  0  0  0  0  0  0  0  0  0
  152.0754  140.8875  158.3624 C   0  0  0  0  0  0  0  0  0  0  0  0
  152.2228  139.7248  157.6032 N   0  3  0  0  0  0  0  0  0  0  0  0
  151.5338  139.8538  156.4357 C   0  0  0  0  0  0  0  0  0  0  0  0
  150.9469  141.0812  156.4385 N   0  0  0  0  0  0  0  0  0  0  0  0
  150.0934  141.7157  155.4233 C   0  0  0  0  0  0  0  0  0  0  0  0
  149.3190  140.6965  154.5651 C   0  0  2  0  0  0  0  0  0  0  0  0
  150.2057  140.0335  153.6833 O   0  0  0  0  0  0  0  0  0  0  0  0
  148.1886  141.3682  153.7618 C   0  0  0  0  0  0  0  0  0  0  0  0
  147.0701  141.7649  154.5982 N   0  0  0  0  0  0  0  0  0  0  0  0
  145.9659  142.4560  154.2999 C   0  0  0  0  0  0  0  0  0  0  0  0
  145.1531  142.6455  155.3310 N   0  0  0  0  0  0  0  0  0  0  0  0
  145.8721  141.9949  156.2908 C   0  0  0  0  0  0  0  0  0  0  0  0
  145.2868  141.8957  158.0114 S   0  0  2  0  0  0  0  0  0  0  0  0
  145.0260  143.7203  158.2172 C   0  0  0  0  0  0  0  0  0  0  0  0
  146.5096  141.5214  158.8514 O   0  0  0  0  0  0  0  0  0  0  0  0
  147.0267  141.4488  155.9141 N   0  0  0  0  0  0  0  0  0  0  0  0
  151.2587  141.7632  157.6211 C   0  0  0  0  0  0  0  0  0  0  0  0
  150.9213  143.0259  158.1033 C   0  0  0  0  0  0  0  0  0  0  0  0
  151.4305  143.3945  159.3689 C   0  0  0  0  0  0  0  0  0  0  0  0
  151.0823  144.7679  159.9173 C   0  0  0  0  0  0  0  0  0  0  0  0
  153.3808  142.1157  161.9243 H   0  0  0  0  0  0  0  0  0  0  0  0
  151.9738  143.1493  162.1567 H   0  0  0  0  0  0  0  0  0  0  0  0
  153.4310  143.7922  161.3840 H   0  0  0  0  0  0  0  0  0  0  0  0
  153.2084  140.5500  160.1705 H   0  0  0  0  0  0  0  0  0  0  0  0
  151.4649  139.1152  155.6502 H   0  0  0  0  0  0  0  0  0  0  0  0
  149.3914  142.3596  155.9546 H   0  0  0  0  0  0  0  0  0  0  0  0
  150.7012  142.3757  154.8040 H   0  0  0  0  0  0  0  0  0  0  0  0
  148.8842  139.9418  155.2218 H   0  0  0  0  0  0  0  0  0  0  0  0
  149.8567  140.0923  152.8065 H   0  0  0  0  0  0  0  0  0  0  0  0
  148.5657  142.2601  153.2598 H   0  0  0  0  0  0  0  0  0  0  0  0
  147.8250  140.7006  152.9788 H   0  0  0  0  0  0  0  0  0  0  0  0
  145.7551  142.8314  153.3091 H   0  0  0  0  0  0  0  0  0  0  0  0
  144.7226  144.1800  157.2764 H   0  0  0  0  0  0  0  0  0  0  0  0
  145.9460  144.1966  158.5556 H   0  0  0  0  0  0  0  0  0  0  0  0
  144.2474  143.9055  158.9568 H   0  0  0  0  0  0  0  0  0  0  0  0
  150.3030  143.7043  157.5344 H   0  0  0  0  0  0  0  0  0  0  0  0
  150.4647  145.3325  159.2179 H   0  0  0  0  0  0  0  0  0  0  0  0
  151.9871  145.3468  160.1035 H   0  0  0  0  0  0  0  0  0  0  0  0
  150.5292  144.6777  160.8524 H   0  0  0  0  0  0  0  0  0  0  0  0
  152.7545  138.9029  157.8602 H   0  0  0  0  0  0  0  0  0  0  0  0
  1  2  1  0  0  0  0
  1 24  1  0  0  0  0
  1 25  1  0  0  0  0
  1 26  1  0  0  0  0
  2 22  1  0  0  0  0
  2  3  2  0  0  0  0
  3  4  1  0  0  0  0
  3 27  1  0  0  0  0
  4 20  2  0  0  0  0
  4  5  1  0  0  0  0
  5  6  2  0  0  0  0
  5 43  1  0  0  0  0
  6  7  1  0  0  0  0
  6 28  1  0  0  0  0
  7  8  1  0  0  0  0
  7 20  1  0  0  0  0
  8  9  1  0  0  0  0
  8 29  1  0  0  0  0
  8 30  1  0  0  0  0
  9 10  1  0  0  0  0
  9 11  1  0  0  0  0
  9 31  1  0  0  0  0
 10 32  1  0  0  0  0
 11 12  1  0  0  0  0
 11 33  1  0  0  0  0
 11 34  1  0  0  0  0
 12 19  1  0  0  0  0
 12 13  1  0  0  0  0
 13 14  2  0  0  0  0
 13 35  1  0  0  0  0
 14 15  1  0  0  0  0
 15 16  1  0  0  0  0
 15 19  2  0  0  0  0
 16 17  1  0  0  0  0
 16 18  2  0  0  0  0
 17 36  1  0  0  0  0
 17 37  1  0  0  0  0
 17 38  1  0  0  0  0
 20 21  1  0  0  0  0
 21 22  2  0  0  0  0
 21 39  1  0  0  0  0
 22 23  1  0  0  0  0
 23 40  1  0  0  0  0
 23 41  1  0  0  0  0
 23 42  1  0  0  0  0
M  CHG  1   5   1
M  END
> <s_m_source_file>
AV-unprocessed.smi

> <i_m_source_file_index>
2845

> <i_lp_mmshare_version>
43012

> <i_f3d_flags>
0

> <s_epik_input>
W0NIM11jKFtjSF0xKWMoW0NIM10pW2NIXWMoYzEyKW4oW2NIXW4yKVtDSDJdW0NASF0oW09IXSlbQ0gyXW4zW2NIXW5jKG4zKVtTQF0oPU8pW0NIM10=

> <s_epik_cmdline>
J2VwaWtfcHl0aG9uJywgJy1waCcsICc3LjAnLCAnLXRuJywgJzgnLCAnLW1hJywgJzIwMCcsICctbWV0YWxfYmluZGluZycsICctaW1hZScsICc8aW5maWxlLm1hZT4nLCAnLW9tYWUnLCAnPG91dGZpbGUubWFlPic=

> <r_lp_tautomer_probability>
1

> <r_epik_Ionization_Penalty>
1.12076

> <r_epik_Ionization_Penalty_Charging>
1.12075

> <r_epik_Ionization_Penalty_Neutral>
1.54566e-06

> <r_epik_State_Penalty>
1.17957

> <r_epik_Charging_Adjusted_Penalty>
2.30033

> <i_epik_Tot_Q>
1

> <i_epik_Tot_abs_Q>
1

> <r_epik_Metal_State_Penalty>
1.26402

> <b_epik_Metal_Only>
0

> <s_lp_Force_Field>
OPLS_2005

> <r_lp_Energy>
14.9183

> <b_lp_Chiralities_Consistent>
1

> <s_lp_Variant>
AV-unprocessed.smi:2845-7

> <Gold.Version>
5.8.1

> <Gold.Id.Protein>
6NUR|6NUR_protein|mol2

> <Gold.PLP.Fitness>
54.4447

> <Gold.PLP.PLP>
-47.8749

> <Gold.PLP.part.hbond>
-3.0000

> <Gold.PLP.part.metal>
0.0000

> <Gold.PLP.part.buried>
-5.8904

> <Gold.PLP.part.nonpolar>
-38.7968

> <Gold.PLP.part.repulsive>
0.3768

> <Gold.PLP.ligand.clash>
0.0000

> <Gold.PLP.ligand.torsion>
1.1242

> <Gold.PLP.Chemscore.Hbond>
2.6000

> <Gold.PLP.Chemscore.CHOScore>
0.0000

> <Gold.PLP.Chemscore.Metal>
0.0000

> <Gold.Chemscore.Hbonds>
donor molecule, donor type, donor heavy atom, donor atom, acceptor molecule, acceptor atom, score
      L1  H    10    32       P1  7957  1.00
      P1  H  6934  6946       L1    18  0.66
      P1  H  7989  7998       L1    10  0.76

> <Gold.PLP.Chemscore.Internal.Correction>
1.0183

> <Gold.Rescore>
     Score         DG    S(hbond)    S(metal)    S(lipo)     H(rot)  DE(clash)    DE(int)     intcor
     14.34     -16.45       1.81        0.00     102.54       2.77       0.21       1.91       ----

> <Gold.Chemscore.Fitness>
14.3376

> <Gold.Chemscore.DG>
-16.4501

> <Gold.Chemscore.ZeroCoef>
-5.4800

> <Gold.Chemscore.Hbond>
1.8141

> <Gold.Chemscore.Metal>
0.0000

> <Gold.Chemscore.Lipo>
102.5400

> <Gold.Chemscore.Internal_Hbond>
0.0000

> <Gold.Chemscore.DEClash>
0.2059

> <Gold.Chemscore.DEInternal>
1.9066

> <Gold.Chemscore.Rot>
2.7681

> <Gold.Chemscore.Internal.Correction>
   9.000000E+99

> <Gold.Chemscore.Hbonds>
donor molecule, donor type, donor heavy atom, donor atom, acceptor molecule, acceptor atom, score
      L1  H    10    32       P1  7957  1.00
      P1  H  6934  6946       L1    18  0.63
      P1  H  7989  7998       L1    10  0.14

> <Gold.Chemscore.Hbond.Weighted>
-6.0592

> <Gold.Chemscore.Metal.Weighted>
-0.0000

> <Gold.Chemscore.Lipo.Weighted>
-11.9972

> <Gold.Chemscore.Internal_Hbond.Weighted>
0.0000

> <Gold.Chemscore.DEClash.Weighted>
0.2059

> <Gold.Chemscore.DEInternal.Weighted>
1.9066

> <Gold.Chemscore.Rot.Weighted>
7.0863

> <Gold.Chemscore.Internal.Correction.Weighted>
   9.000000E+99

> <Gold.Protein.RotatedTorsions>
[ 6907 6896 6895 6894 ] final -134.95 input  -60.11 | X-H torsion
[ 7974 7965 7964 7962 ] final   -0.43 input  175.53 | X-H torsion
[ 8008 7997 7996 7995 ] final    4.06 input   59.86 | X-H torsion
[ 10167 10162 10161 10158 ] final  -28.76 input  -65.29 | X-H torsion
[ 10718 10713 10712 10709 ] final -112.93 input   66.30 | X-H torsion
[ 10763 10752 10751 10750 ] final  -27.02 input  -60.55 | X-H torsion
[ 11005 11000 10999 10996 ] final   -2.39 input  -57.11 | X-H torsion

> <Gold.Protein.ActiveResidues>
 VAL166  LYS551  ARG553  GLY616  TRP617  ASP618  TYR619  PRO620  LYS621  CYS622 
 ASP623  PHE694  ASN695  SER759  ASP760  ASP761  ALA762  ILE779  LEU786  VAL792 
 PHE793  MET794  SER795  GLU796  ALA797  LYS798  CYS799  TRP800  GLU811  SER814 

> <Gold.Protein.RotatedAtoms>
  150.9920  133.6140  159.2706 H   0  0  0  0  0  0  0  0  0  0  0  0  # atno 6907 bound_to 6896
  151.3357  135.0851  159.9364 H   0  0  0  0  0  0  0  0  0  0  0  0  # atno 6908 bound_to 6896
  152.5248  133.9541  159.7740 H   0  0  0  0  0  0  0  0  0  0  0  0  # atno 6909 bound_to 6896
  146.2427  140.1268  142.8339 H   0  0  0  0  0  0  0  0  0  0  0  0  # atno 7974 bound_to 7965
  154.7113  140.2693  155.6627 H   0  0  0  0  0  0  0  0  0  0  0  0  # atno 8008 bound_to 7997
  156.2796  140.2753  156.1679 H   0  0  0  0  0  0  0  0  0  0  0  0  # atno 8009 bound_to 7997
  155.0631  140.0371  157.2573 H   0  0  0  0  0  0  0  0  0  0  0  0  # atno 8010 bound_to 7997
  140.7267  143.3983  151.1308 H   0  0  0  0  0  0  0  0  0  0  0  0  # atno 10167 bound_to 10162
  156.0735  130.5946  150.8575 H   0  0  0  0  0  0  0  0  0  0  0  0  # atno 10718 bound_to 10713
  153.7253  135.6942  153.5002 H   0  0  0  0  0  0  0  0  0  0  0  0  # atno 10763 bound_to 10752
  153.2174  135.4381  155.0449 H   0  0  0  0  0  0  0  0  0  0  0  0  # atno 10764 bound_to 10752
  154.8271  135.3452  154.6785 H   0  0  0  0  0  0  0  0  0  0  0  0  # atno 10765 bound_to 10752
  140.6578  133.9347  155.8418 H   0  0  0  0  0  0  0  0  0  0  0  0  # atno 11005 bound_to 11000
  145.0359  140.8908  143.5081 LP  0  0  0  0  0  0  0  0  0  0  0  0  # atno 17320 bound_to 7965
  145.1340  139.2613  143.5524 LP  0  0  0  0  0  0  0  0  0  0  0  0  # atno 17321 bound_to 7965
  139.7599  143.8651  152.3098 LP  0  0  0  0  0  0  0  0  0  0  0  0  # atno 17342 bound_to 10162
  139.8533  144.7153  150.9187 LP  0  0  0  0  0  0  0  0  0  0  0  0  # atno 17343 bound_to 10162
  157.5819  131.0946  150.9257 LP  0  0  0  0  0  0  0  0  0  0  0  0  # atno 17370 bound_to 10713
  156.9451  130.5399  149.5281 LP  0  0  0  0  0  0  0  0  0  0  0  0  # atno 17371 bound_to 10713
  141.0488  134.0514  157.3810 LP  0  0  0  0  0  0  0  0  0  0  0  0  # atno 17394 bound_to 11000
  139.9023  135.0169  156.7328 LP  0  0  0  0  0  0  0  0  0  0  0  0  # atno 17395 bound_to 11000

$$$$
