AV-unprocessed.smi:2708|AV-procd|sdf|10458|dock10
  -GOLD-   2272014493D 1   1.00000     0.00000
 Structure written by MMmdl.
 35 35  0  0  0  0  0  0  0  0  2 V2000
  147.0560  133.7069  162.2262 C   0  0  0  0  0  0  0  0  0  0  0  0
  146.2655  135.0091  162.4378 C   0  0  2  0  0  0  0  0  0  0  0  0
  144.9748  134.9493  161.7583 N   0  0  0  0  0  0  0  0  0  0  0  0
  143.7757  134.8357  162.3507 C   0  0  0  0  0  0  0  0  0  0  0  0
  143.6218  134.7675  163.5702 O   0  0  0  0  0  0  0  0  0  0  0  0
  142.5609  134.7922  161.4224 C   0  0  0  0  0  0  0  0  0  0  0  0
  142.6294  133.5838  160.5341 C   0  0  0  0  0  0  0  0  0  0  0  0
  143.1521  133.5218  159.2667 C   0  0  0  0  0  0  0  0  0  0  0  0
  143.0392  131.9195  158.5964 S   0  0  0  0  0  0  0  0  0  0  0  0
  142.2618  131.3719  160.0864 C   0  0  0  0  0  0  0  0  0  0  0  0
  141.7978  129.9599  160.3529 C   0  0  0  0  0  0  0  0  0  0  0  0
  142.4944  129.4090  161.6122 C   0  0  0  0  0  0  0  0  0  0  0  0
  142.1018  129.0710  159.1313 C   0  0  0  0  0  0  0  0  0  0  0  0
  140.2746  129.9070  160.6010 C   0  0  0  0  0  0  0  0  0  0  0  0
  142.1232  132.3587  160.9792 N   0  0  0  0  0  0  0  0  0  0  0  0
  147.0277  136.2673  162.0116 C   0  0  0  0  0  0  0  0  0  0  0  0
  148.1965  136.4008  162.4380 O   0  0  0  0  0  0  0  0  0  0  0  0
  146.4320  137.0753  161.2658 O   0  5  0  0  0  0  0  0  0  0  0  0
  146.0774  135.1076  163.5090 H   0  0  0  0  0  0  0  0  0  0  0  0
  148.0239  133.7502  162.7269 H   0  0  0  0  0  0  0  0  0  0  0  0
  147.2372  133.5190  161.1675 H   0  0  0  0  0  0  0  0  0  0  0  0
  146.5179  132.8483  162.6287 H   0  0  0  0  0  0  0  0  0  0  0  0
  145.0037  135.0060  160.7504 H   0  0  0  0  0  0  0  0  0  0  0  0
  141.6486  134.7829  162.0206 H   0  0  0  0  0  0  0  0  0  0  0  0
  142.5297  135.7065  160.8284 H   0  0  0  0  0  0  0  0  0  0  0  0
  143.6032  134.3178  158.6927 H   0  0  0  0  0  0  0  0  0  0  0  0
  142.1656  128.3939  161.8375 H   0  0  0  0  0  0  0  0  0  0  0  0
  142.2812  130.0267  162.4855 H   0  0  0  0  0  0  0  0  0  0  0  0
  143.5775  129.3782  161.4886 H   0  0  0  0  0  0  0  0  0  0  0  0
  143.1715  129.0303  158.9231 H   0  0  0  0  0  0  0  0  0  0  0  0
  141.6071  129.4466  158.2346 H   0  0  0  0  0  0  0  0  0  0  0  0
  141.7636  128.0463  159.2902 H   0  0  0  0  0  0  0  0  0  0  0  0
  139.9407  128.8868  160.7939 H   0  0  0  0  0  0  0  0  0  0  0  0
  139.7134  130.2707  159.7395 H   0  0  0  0  0  0  0  0  0  0  0  0
  139.9860  130.5074  161.4647 H   0  0  0  0  0  0  0  0  0  0  0  0
  1  2  1  0  0  0  0
  1 20  1  0  0  0  0
  1 21  1  0  0  0  0
  1 22  1  0  0  0  0
  2 19  1  0  0  0  0
  2  3  1  0  0  0  0
  2 16  1  0  0  0  0
  3  4  1  0  0  0  0
  3 23  1  0  0  0  0
  4  5  2  0  0  0  0
  4  6  1  0  0  0  0
  6  7  1  0  0  0  0
  6 24  1  0  0  0  0
  6 25  1  0  0  0  0
  7 15  1  0  0  0  0
  7  8  2  0  0  0  0
  8  9  1  0  0  0  0
  8 26  1  0  0  0  0
  9 10  1  0  0  0  0
 10 11  1  0  0  0  0
 10 15  2  0  0  0  0
 11 12  1  0  0  0  0
 11 13  1  0  0  0  0
 11 14  1  0  0  0  0
 12 27  1  0  0  0  0
 12 28  1  0  0  0  0
 12 29  1  0  0  0  0
 13 30  1  0  0  0  0
 13 31  1  0  0  0  0
 13 32  1  0  0  0  0
 14 33  1  0  0  0  0
 14 34  1  0  0  0  0
 14 35  1  0  0  0  0
 16 17  2  0  0  0  0
 16 18  1  0  0  0  0
M  CHG  1  18  -1
M  END
> <s_m_source_file>
AV-unprocessed.smi

> <i_m_source_file_index>
2708

> <i_lp_mmshare_version>
43012

> <i_f3d_flags>
0

> <s_epik_input>
Tz1DKFtPSF0pW0NASF0oW0NIM10pW05IXUMoPU8pW0NIMl1jMVtjSF1zYyhuMSlDKFtDSDNdKShbQ0gzXSlbQ0gzXQ==

> <s_epik_cmdline>
J2VwaWtfcHl0aG9uJywgJy1waCcsICc3LjAnLCAnLXRuJywgJzgnLCAnLW1hJywgJzIwMCcsICctbWV0YWxfYmluZGluZycsICctaW1hZScsICc8aW5maWxlLm1hZT4nLCAnLW9tYWUnLCAnPG91dGZpbGUubWFlPic=

> <r_lp_tautomer_probability>
1

> <r_epik_Ionization_Penalty>
0.000214174

> <r_epik_Ionization_Penalty_Charging>
0.000167453

> <r_epik_Ionization_Penalty_Neutral>
4.67216e-05

> <r_epik_State_Penalty>
-0

> <r_epik_Charging_Adjusted_Penalty>
0.000167453

> <i_epik_Tot_Q>
-1

> <i_epik_Tot_abs_Q>
1

> <r_epik_Metal_State_Penalty>
-0

> <b_epik_Metal_Only>
0

> <s_lp_Force_Field>
OPLS_2005

> <r_lp_Energy>
-5.26793

> <b_lp_Chiralities_Consistent>
1

> <s_lp_Variant>
AV-unprocessed.smi:2708-1

> <Gold.Version>
5.8.1

> <Gold.Id.Protein>
6NUR|6NUR_protein|mol2

> <Gold.PLP.Fitness>
40.8802

> <Gold.PLP.PLP>
-29.9375

> <Gold.PLP.part.hbond>
-2.0000

> <Gold.PLP.part.metal>
0.0000

> <Gold.PLP.part.buried>
-5.4788

> <Gold.PLP.part.nonpolar>
-22.3926

> <Gold.PLP.part.repulsive>
0.2088

> <Gold.PLP.ligand.clash>
0.0000

> <Gold.PLP.ligand.torsion>
0.5662

> <Gold.PLP.Chemscore.Hbond>
4.0000

> <Gold.PLP.Chemscore.CHOScore>
0.0000

> <Gold.PLP.Chemscore.Metal>
0.0000

> <Gold.Chemscore.Hbonds>
donor molecule, donor type, donor heavy atom, donor atom, acceptor molecule, acceptor atom, score
      P1  H  6931  6943       L1    17  1.72
      P1  H  6934  6947       L1    18  1.62

> <Gold.PLP.Chemscore.Internal.Correction>
0.0752

> <Gold.Rescore>
     Score         DG    S(hbond)    S(metal)    S(lipo)     H(rot)  DE(clash)    DE(int)     intcor
     12.13     -12.80       1.91        0.00      57.24       2.25       0.06       0.61       ----

> <Gold.Chemscore.Fitness>
12.1296

> <Gold.Chemscore.DG>
-12.7998

> <Gold.Chemscore.ZeroCoef>
-5.4800

> <Gold.Chemscore.Hbond>
1.9094

> <Gold.Chemscore.Metal>
0.0000

> <Gold.Chemscore.Lipo>
57.2379

> <Gold.Chemscore.Internal_Hbond>
0.0000

> <Gold.Chemscore.DEClash>
0.0580

> <Gold.Chemscore.DEInternal>
0.6122

> <Gold.Chemscore.Rot>
2.2478

> <Gold.Chemscore.Internal.Correction>
   9.000000E+99

> <Gold.Chemscore.Hbonds>
donor molecule, donor type, donor heavy atom, donor atom, acceptor molecule, acceptor atom, score
      P1  H  6931  6943       L1    17  0.71
      P1  H  6934  6947       L1    18  0.79

> <Gold.Chemscore.Hbond.Weighted>
-6.3774

> <Gold.Chemscore.Metal.Weighted>
-0.0000

> <Gold.Chemscore.Lipo.Weighted>
-6.6968

> <Gold.Chemscore.Internal_Hbond.Weighted>
0.0000

> <Gold.Chemscore.DEClash.Weighted>
0.0580

> <Gold.Chemscore.DEInternal.Weighted>
0.6122

> <Gold.Chemscore.Rot.Weighted>
5.7544

> <Gold.Chemscore.Internal.Correction.Weighted>
   9.000000E+99

> <Gold.Protein.RotatedTorsions>
[ 6907 6896 6895 6894 ] final   46.77 input  -60.11 | X-H torsion
[ 7974 7965 7964 7962 ] final  -72.67 input  175.53 | X-H torsion
[ 8008 7997 7996 7995 ] final  155.57 input   59.86 | X-H torsion
[ 10167 10162 10161 10158 ] final    8.66 input  -65.29 | X-H torsion
[ 10718 10713 10712 10709 ] final   15.93 input   66.30 | X-H torsion
[ 10763 10752 10751 10750 ] final -143.18 input  -60.55 | X-H torsion
[ 11005 11000 10999 10996 ] final  -84.64 input  -57.11 | X-H torsion

> <Gold.Protein.ActiveResidues>
 VAL166  LYS551  ARG553  GLY616  TRP617  ASP618  TYR619  PRO620  LYS621  CYS622 
 ASP623  PHE694  ASN695  SER759  ASP760  ASP761  ALA762  ILE779  LEU786  VAL792 
 PHE793  MET794  SER795  GLU796  ALA797  LYS798  CYS799  TRP800  GLU811  SER814 

> <Gold.Protein.RotatedAtoms>
  152.2603  134.8041  160.0431 H   0  0  0  0  0  0  0  0  0  0  0  0  # atno 6907 bound_to 6896
  151.8689  133.3466  159.3736 H   0  0  0  0  0  0  0  0  0  0  0  0  # atno 6908 bound_to 6896
  150.7114  134.5059  159.5628 H   0  0  0  0  0  0  0  0  0  0  0  0  # atno 6909 bound_to 6896
  145.6621  140.9249  143.0928 H   0  0  0  0  0  0  0  0  0  0  0  0  # atno 7974 bound_to 7965
  156.2471  140.1936  156.6822 H   0  0  0  0  0  0  0  0  0  0  0  0  # atno 8008 bound_to 7997
  154.6314  140.0595  156.9762 H   0  0  0  0  0  0  0  0  0  0  0  0  # atno 8009 bound_to 7997
  155.1705  140.3268  155.4396 H   0  0  0  0  0  0  0  0  0  0  0  0  # atno 8010 bound_to 7997
  140.6301  143.8013  150.7284 H   0  0  0  0  0  0  0  0  0  0  0  0  # atno 10167 bound_to 10162
  157.0605  130.6307  149.5785 H   0  0  0  0  0  0  0  0  0  0  0  0  # atno 10718 bound_to 10713
  154.8480  135.3475  154.6147 H   0  0  0  0  0  0  0  0  0  0  0  0  # atno 10763 bound_to 10752
  153.6755  135.6983  153.5138 H   0  0  0  0  0  0  0  0  0  0  0  0  # atno 10764 bound_to 10752
  153.2709  135.4293  155.0943 H   0  0  0  0  0  0  0  0  0  0  0  0  # atno 10765 bound_to 10752
  141.1648  133.7357  156.8898 H   0  0  0  0  0  0  0  0  0  0  0  0  # atno 11005 bound_to 11000
  144.7085  139.8462  143.7422 LP  0  0  0  0  0  0  0  0  0  0  0  0  # atno 17320 bound_to 7965
  146.1117  139.4122  143.0284 LP  0  0  0  0  0  0  0  0  0  0  0  0  # atno 17321 bound_to 7965
  140.1622  143.4266  152.2059 LP  0  0  0  0  0  0  0  0  0  0  0  0  # atno 17342 bound_to 10162
  139.5516  144.7342  151.4417 LP  0  0  0  0  0  0  0  0  0  0  0  0  # atno 17343 bound_to 10162
  155.9980  130.5052  150.7554 LP  0  0  0  0  0  0  0  0  0  0  0  0  # atno 17370 bound_to 10713
  157.4958  131.0914  151.0373 LP  0  0  0  0  0  0  0  0  0  0  0  0  # atno 17371 bound_to 10713
  140.1656  134.9135  157.2770 LP  0  0  0  0  0  0  0  0  0  0  0  0  # atno 17394 bound_to 11000
  140.2560  134.3626  155.7424 LP  0  0  0  0  0  0  0  0  0  0  0  0  # atno 17395 bound_to 11000

$$$$
