AV-unprocessed.smi:1836|AV-procd|sdf|7479|dock1
  -GOLD-   22720 9173D 1   1.00000     0.00000
 Structure written by MMmdl.
 32 33  0  0  0  0  0  0  0  0  2 V2000
  148.0849  136.7175  156.3231 C   0  0  0  0  0  0  0  0  0  0  0  0
  148.4353  138.0343  157.0293 C   0  0  2  0  0  0  0  0  0  0  0  0
  149.9625  138.2768  157.0279 C   0  0  0  0  0  0  0  0  0  0  0  0
  150.3096  139.6771  157.2670 N   0  0  0  0  0  0  0  0  0  0  0  0
  150.2302  140.2446  158.6034 C   0  0  0  0  0  0  0  0  0  0  0  0
  150.3376  141.7603  158.3914 C   0  0  0  0  0  0  0  0  0  0  0  0
  150.9108  141.9370  156.9814 C   0  0  0  0  0  0  0  0  0  0  0  0
  150.7157  140.5671  156.3533 C   0  0  0  0  0  0  0  0  0  0  0  0
  150.9064  140.3467  155.1581 O   0  0  0  0  0  0  0  0  0  0  0  0
  147.9293  137.9737  158.4008 N   0  0  0  0  0  0  0  0  0  0  0  0
  148.2724  137.0761  159.3370 C   0  0  0  0  0  0  0  0  0  0  0  0
  149.1261  136.2209  159.0907 O   0  0  0  0  0  0  0  0  0  0  0  0
  147.5878  137.2093  160.4953 N   0  5  0  0  0  0  0  0  0  0  0  0
  146.9542  136.1480  161.0209 C   0  0  0  0  0  0  0  0  0  0  0  0
  146.2365  135.2953  160.2726 N   0  0  0  0  0  0  0  0  0  0  0  0
  145.6651  134.2683  161.0122 N   0  0  0  0  0  0  0  0  0  0  0  0
  145.9750  134.3695  162.3044 C   0  0  0  0  0  0  0  0  0  0  0  0
  146.9951  135.7256  162.7356 S   0  0  0  0  0  0  0  0  0  0  0  0
  148.4192  136.7285  155.2855 H   0  0  0  0  0  0  0  0  0  0  0  0
  147.0074  136.5492  156.3187 H   0  0  0  0  0  0  0  0  0  0  0  0
  148.5540  135.8647  156.8152 H   0  0  0  0  0  0  0  0  0  0  0  0
  147.9354  138.8329  156.4786 H   0  0  0  0  0  0  0  0  0  0  0  0
  150.4481  137.6431  157.7718 H   0  0  0  0  0  0  0  0  0  0  0  0
  150.3824  137.9844  156.0642 H   0  0  0  0  0  0  0  0  0  0  0  0
  149.3021  139.9717  159.1072 H   0  0  0  0  0  0  0  0  0  0  0  0
  151.0643  139.8726  159.1995 H   0  0  0  0  0  0  0  0  0  0  0  0
  149.3457  142.2120  158.4439 H   0  0  0  0  0  0  0  0  0  0  0  0
  150.9575  142.2347  159.1528 H   0  0  0  0  0  0  0  0  0  0  0  0
  150.3906  142.7129  156.4189 H   0  0  0  0  0  0  0  0  0  0  0  0
  151.9745  142.1742  157.0099 H   0  0  0  0  0  0  0  0  0  0  0  0
  147.2294  138.6554  158.6549 H   0  0  0  0  0  0  0  0  0  0  0  0
  145.6030  133.6395  163.0077 H   0  0  0  0  0  0  0  0  0  0  0  0
  1  2  1  0  0  0  0
  1 19  1  0  0  0  0
  1 20  1  0  0  0  0
  1 21  1  0  0  0  0
  2  3  1  0  0  0  0
  2 10  1  0  0  0  0
  2 22  1  0  0  0  0
  3  4  1  0  0  0  0
  3 23  1  0  0  0  0
  3 24  1  0  0  0  0
  4  8  1  0  0  0  0
  4  5  1  0  0  0  0
  5  6  1  0  0  0  0
  5 25  1  0  0  0  0
  5 26  1  0  0  0  0
  6  7  1  0  0  0  0
  6 27  1  0  0  0  0
  6 28  1  0  0  0  0
  7  8  1  0  0  0  0
  7 29  1  0  0  0  0
  7 30  1  0  0  0  0
  8  9  2  0  0  0  0
 10 11  1  0  0  0  0
 10 31  1  0  0  0  0
 11 12  2  0  0  0  0
 11 13  1  0  0  0  0
 13 14  1  0  0  0  0
 14 18  1  0  0  0  0
 14 15  2  0  0  0  0
 15 16  1  0  0  0  0
 16 17  2  0  0  0  0
 17 18  1  0  0  0  0
 17 32  1  0  0  0  0
M  CHG  1  13  -1
M  END
> <s_m_source_file>
AV-unprocessed.smi

> <i_m_source_file_index>
1836

> <i_lp_mmshare_version>
43012

> <i_f3d_flags>
0

> <s_epik_input>
Tz1DMVtDSDJdW0NIMl1bQ0gyXU4xW0NIMl1bQ0BASF0oW0NIM10pW05IXUMoPU8pW05IXWMybm5bY0hdczI=

> <s_epik_cmdline>
J2VwaWtfcHl0aG9uJywgJy1waCcsICc3LjAnLCAnLXRuJywgJzgnLCAnLW1hJywgJzIwMCcsICctbWV0YWxfYmluZGluZycsICctaW1hZScsICc8aW5maWxlLm1hZT4nLCAnLW9tYWUnLCAnPG91dGZpbGUubWFlPic=

> <r_lp_tautomer_probability>
1

> <r_epik_Ionization_Penalty>
3.44722

> <r_epik_Ionization_Penalty_Charging>
3.40341

> <r_epik_Ionization_Penalty_Neutral>
0.0438099

> <r_epik_State_Penalty>
3.40151

> <r_epik_Charging_Adjusted_Penalty>
6.80491

> <i_epik_Tot_Q>
-1

> <i_epik_Tot_abs_Q>
1

> <r_epik_Metal_State_Penalty>
0.49534

> <b_epik_Metal_Only>
1

> <s_lp_Force_Field>
OPLS_2005

> <r_lp_Energy>
15.5322

> <b_lp_Chiralities_Consistent>
1

> <s_lp_Variant>
AV-unprocessed.smi:1836-3

> <Gold.Version>
5.8.1

> <Gold.Id.Protein>
6NUR|6NUR_protein|mol2

> <Gold.PLP.Fitness>
40.7555

> <Gold.PLP.PLP>
-28.1349

> <Gold.PLP.part.hbond>
-4.0000

> <Gold.PLP.part.metal>
0.0000

> <Gold.PLP.part.buried>
-5.4330

> <Gold.PLP.part.nonpolar>
-20.5222

> <Gold.PLP.part.repulsive>
0.1920

> <Gold.PLP.ligand.clash>
0.0000

> <Gold.PLP.ligand.torsion>
1.2092

> <Gold.PLP.Chemscore.Hbond>
4.9624

> <Gold.PLP.Chemscore.CHOScore>
0.0000

> <Gold.PLP.Chemscore.Metal>
0.0000

> <Gold.Chemscore.Hbonds>
donor molecule, donor type, donor heavy atom, donor atom, acceptor molecule, acceptor atom, score
      P1  H  6896  6909       L1    12  0.32
      P1  H  6931  6943       L1    13  0.60
      P1  H  6934  6947       L1    13  1.95
      P1  H  7989  7998       L1     9  1.00

> <Gold.PLP.Chemscore.Internal.Correction>
0.1518

> <Gold.Rescore>
     Score         DG    S(hbond)    S(metal)    S(lipo)     H(rot)  DE(clash)    DE(int)     intcor
     14.10     -16.45       3.23        0.00      39.41       1.73       0.00       2.35       ----

> <Gold.Chemscore.Fitness>
14.0992

> <Gold.Chemscore.DG>
-16.4505

> <Gold.Chemscore.ZeroCoef>
-5.4800

> <Gold.Chemscore.Hbond>
3.2301

> <Gold.Chemscore.Metal>
0.0000

> <Gold.Chemscore.Lipo>
39.4138

> <Gold.Chemscore.Internal_Hbond>
0.0000

> <Gold.Chemscore.DEClash>
0.0000

> <Gold.Chemscore.DEInternal>
2.3513

> <Gold.Chemscore.Rot>
1.7302

> <Gold.Chemscore.Internal.Correction>
   9.000000E+99

> <Gold.Chemscore.Hbonds>
donor molecule, donor type, donor heavy atom, donor atom, acceptor molecule, acceptor atom, score
      P1  H  6896  6909       L1    12  0.33
      P1  H  6931  6943       L1    13  0.12
      P1  H  6934  6947       L1    13  0.79
      P1  H  7989  7998       L1     9  0.97

> <Gold.Chemscore.Hbond.Weighted>
-10.7885

> <Gold.Chemscore.Metal.Weighted>
-0.0000

> <Gold.Chemscore.Lipo.Weighted>
-4.6114

> <Gold.Chemscore.Internal_Hbond.Weighted>
0.0000

> <Gold.Chemscore.DEClash.Weighted>
0.0000

> <Gold.Chemscore.DEInternal.Weighted>
2.3513

> <Gold.Chemscore.Rot.Weighted>
4.4294

> <Gold.Chemscore.Internal.Correction.Weighted>
   9.000000E+99

> <Gold.Protein.RotatedTorsions>
[ 6907 6896 6895 6894 ] final   48.47 input  -60.11 | X-H torsion
[ 7974 7965 7964 7962 ] final  125.44 input  175.53 | X-H torsion
[ 8008 7997 7996 7995 ] final   12.74 input   59.86 | X-H torsion
[ 10167 10162 10161 10158 ] final  114.49 input  -65.29 | X-H torsion
[ 10718 10713 10712 10709 ] final   18.71 input   66.30 | X-H torsion
[ 10763 10752 10751 10750 ] final   90.42 input  -60.55 | X-H torsion
[ 11005 11000 10999 10996 ] final  126.58 input  -57.11 | X-H torsion

> <Gold.Protein.ActiveResidues>
 VAL166  LYS551  ARG553  GLY616  TRP617  ASP618  TYR619  PRO620  LYS621  CYS622 
 ASP623  PHE694  ASN695  SER759  ASP760  ASP761  ALA762  ILE779  LEU786  VAL792 
 PHE793  MET794  SER795  GLU796  ALA797  LYS798  CYS799  TRP800  GLU811  SER814 

> <Gold.Protein.RotatedAtoms>
  152.2799  134.7840  160.0398 H   0  0  0  0  0  0  0  0  0  0  0  0  # atno 6907 bound_to 6896
  151.8423  133.3420  159.3655 H   0  0  0  0  0  0  0  0  0  0  0  0  # atno 6908 bound_to 6896
  150.7185  134.5307  159.5743 H   0  0  0  0  0  0  0  0  0  0  0  0  # atno 6909 bound_to 6896
  145.0730  139.3715  143.4948 H   0  0  0  0  0  0  0  0  0  0  0  0  # atno 7974 bound_to 7965
  154.8248  140.2890  155.5762 H   0  0  0  0  0  0  0  0  0  0  0  0  # atno 8008 bound_to 7997
  156.3001  140.2543  156.3093 H   0  0  0  0  0  0  0  0  0  0  0  0  # atno 8009 bound_to 7997
  154.9297  140.0384  157.2031 H   0  0  0  0  0  0  0  0  0  0  0  0  # atno 8010 bound_to 7997
  139.6385  144.7122  151.2286 H   0  0  0  0  0  0  0  0  0  0  0  0  # atno 10167 bound_to 10162
  157.1001  130.6464  149.5870 H   0  0  0  0  0  0  0  0  0  0  0  0  # atno 10718 bound_to 10713
  153.1974  135.4434  155.0224 H   0  0  0  0  0  0  0  0  0  0  0  0  # atno 10763 bound_to 10752
  154.8126  135.3301  154.7265 H   0  0  0  0  0  0  0  0  0  0  0  0  # atno 10764 bound_to 10752
  153.7713  135.6984  153.4961 H   0  0  0  0  0  0  0  0  0  0  0  0  # atno 10765 bound_to 10752
  139.9463  134.9629  156.8727 H   0  0  0  0  0  0  0  0  0  0  0  0  # atno 11005 bound_to 11000
  146.3529  140.0484  142.8637 LP  0  0  0  0  0  0  0  0  0  0  0  0  # atno 17320 bound_to 7965
  145.1270  140.9495  143.4567 LP  0  0  0  0  0  0  0  0  0  0  0  0  # atno 17321 bound_to 7965
  140.7478  143.6354  150.8384 LP  0  0  0  0  0  0  0  0  0  0  0  0  # atno 17342 bound_to 10162
  139.9988  143.5766  152.2883 LP  0  0  0  0  0  0  0  0  0  0  0  0  # atno 17343 bound_to 10162
  155.9876  130.4915  150.7131 LP  0  0  0  0  0  0  0  0  0  0  0  0  # atno 17370 bound_to 10713
  157.4648  131.0887  151.0707 LP  0  0  0  0  0  0  0  0  0  0  0  0  # atno 17371 bound_to 10713
  140.5827  134.0337  155.7470 LP  0  0  0  0  0  0  0  0  0  0  0  0  # atno 17394 bound_to 11000
  141.1114  133.9610  157.2903 LP  0  0  0  0  0  0  0  0  0  0  0  0  # atno 17395 bound_to 11000

$$$$
