AV-unprocessed.smi:2655|AV-procd|sdf|10304|dock1
  -GOLD-   2272014323D 1   1.00000     0.00000
 Structure written by MMmdl.
 33 34  0  0  0  0  0  0  0  0  2 V2000
  150.7427  141.0880  156.2025 C   0  0  0  0  0  0  0  0  0  0  0  0
  151.3290  139.8448  155.5971 C   0  0  0  0  0  0  0  0  0  0  0  0
  152.6437  139.7787  155.4088 N   0  0  0  0  0  0  0  0  0  0  0  0
  152.8426  138.5660  154.8589 N   0  0  0  0  0  0  0  0  0  0  0  0
  151.6645  137.8805  154.7072 C   0  0  0  0  0  0  0  0  0  0  0  0
  151.6432  136.6328  154.1657 O   0  0  0  0  0  0  0  0  0  0  0  0
  150.6474  138.6608  155.1744 C   0  0  0  0  0  0  0  0  0  0  0  0
  149.1737  138.3591  155.2296 C   0  0  0  0  0  0  0  0  0  0  0  0
  148.8880  137.0867  156.0378 C   0  0  0  0  0  0  0  0  0  0  0  0
  148.8801  137.3769  157.4657 N   0  0  0  0  0  0  0  0  0  0  0  0
  149.1069  136.4823  158.4369 C   0  0  0  0  0  0  0  0  0  0  0  0
  149.3509  135.3091  158.1451 O   0  0  0  0  0  0  0  0  0  0  0  0
  149.0372  137.0018  159.6847 N   0  5  0  0  0  0  0  0  0  0  0  0
  148.2245  136.4536  160.6011 C   0  0  0  0  0  0  0  0  0  0  0  0
  147.9054  135.0730  160.7184 C   0  0  0  0  0  0  0  0  0  0  0  0
  147.0699  135.0361  161.7984 C   0  0  0  0  0  0  0  0  0  0  0  0
  146.3524  133.9245  162.4853 C   0  0  0  0  0  0  0  0  0  0  0  0
  146.8989  136.2865  162.3056 O   0  0  0  0  0  0  0  0  0  0  0  0
  147.6461  137.1872  161.5373 N   0  0  0  0  0  0  0  0  0  0  0  0
  149.6772  141.1700  155.9878 H   0  0  0  0  0  0  0  0  0  0  0  0
  151.2246  141.9846  155.8117 H   0  0  0  0  0  0  0  0  0  0  0  0
  150.8638  141.0885  157.2858 H   0  0  0  0  0  0  0  0  0  0  0  0
  153.7629  138.2371  154.6036 H   0  0  0  0  0  0  0  0  0  0  0  0
  148.7705  138.2448  154.2227 H   0  0  0  0  0  0  0  0  0  0  0  0
  148.6290  139.1945  155.6712 H   0  0  0  0  0  0  0  0  0  0  0  0
  147.9232  136.6677  155.7471 H   0  0  0  0  0  0  0  0  0  0  0  0
  149.6461  136.3301  155.8294 H   0  0  0  0  0  0  0  0  0  0  0  0
  148.6845  138.3280  157.7421 H   0  0  0  0  0  0  0  0  0  0  0  0
  148.2339  134.2464  160.1063 H   0  0  0  0  0  0  0  0  0  0  0  0
  147.0592  133.1868  162.8651 H   0  0  0  0  0  0  0  0  0  0  0  0
  145.6738  133.4210  161.7968 H   0  0  0  0  0  0  0  0  0  0  0  0
  145.7662  134.2945  163.3267 H   0  0  0  0  0  0  0  0  0  0  0  0
  151.2616  136.6962  153.3042 H   0  0  0  0  0  0  0  0  0  0  0  0
  1 20  1  0  0  0  0
  1 21  1  0  0  0  0
  1 22  1  0  0  0  0
  1  2  1  0  0  0  0
  2  7  1  0  0  0  0
  2  3  2  0  0  0  0
  3  4  1  0  0  0  0
  4 23  1  0  0  0  0
  4  5  1  0  0  0  0
  5  7  2  0  0  0  0
  5  6  1  0  0  0  0
  6 33  1  0  0  0  0
  7  8  1  0  0  0  0
  8  9  1  0  0  0  0
  8 24  1  0  0  0  0
  8 25  1  0  0  0  0
  9 10  1  0  0  0  0
  9 26  1  0  0  0  0
  9 27  1  0  0  0  0
 10 11  1  0  0  0  0
 10 28  1  0  0  0  0
 11 12  2  0  0  0  0
 11 13  1  0  0  0  0
 13 14  1  0  0  0  0
 14 19  2  0  0  0  0
 14 15  1  0  0  0  0
 15 16  2  0  0  0  0
 15 29  1  0  0  0  0
 16 17  1  0  0  0  0
 16 18  1  0  0  0  0
 17 30  1  0  0  0  0
 17 31  1  0  0  0  0
 17 32  1  0  0  0  0
 18 19  1  0  0  0  0
M  CHG  1  13  -1
M  END
> <s_m_source_file>
AV-unprocessed.smi

> <i_m_source_file_index>
2655

> <i_lp_mmshare_version>
43012

> <i_f3d_flags>
0

> <s_epik_input>
W0NIM11DMT1OW05IXUMoPU8pW0NASF0xW0NIMl1bQ0gyXVtOSF1DKD1PKVtOSF1jMltjSF1jKFtDSDNdKW9uMg==

> <s_epik_cmdline>
J2VwaWtfcHl0aG9uJywgJy1waCcsICc3LjAnLCAnLXRuJywgJzgnLCAnLW1hJywgJzIwMCcsICctbWV0YWxfYmluZGluZycsICctaW1hZScsICc8aW5maWxlLm1hZT4nLCAnLW9tYWUnLCAnPG91dGZpbGUubWFlPic=

> <r_lp_tautomer_probability>
0.0227396

> <r_epik_Ionization_Penalty>
10.1454

> <r_epik_Ionization_Penalty_Charging>
6.5559

> <r_epik_Ionization_Penalty_Neutral>
3.58948

> <r_epik_State_Penalty>
8.16616

> <r_epik_Charging_Adjusted_Penalty>
14.7221

> <i_epik_Tot_Q>
-1

> <i_epik_Tot_abs_Q>
1

> <r_epik_Metal_State_Penalty>
5.48631

> <b_epik_Metal_Only>
1

> <s_lp_Force_Field>
OPLS_2005

> <r_lp_Energy>
-4.29972

> <b_lp_Chiralities_Consistent>
1

> <s_lp_Variant>
AV-unprocessed.smi:2655-7

> <Gold.Version>
5.8.1

> <Gold.Id.Protein>
6NUR|6NUR_protein|mol2

> <Gold.PLP.Fitness>
48.4715

> <Gold.PLP.PLP>
-33.1178

> <Gold.PLP.part.hbond>
-7.3327

> <Gold.PLP.part.metal>
0.0000

> <Gold.PLP.part.buried>
-4.7495

> <Gold.PLP.part.nonpolar>
-22.3074

> <Gold.PLP.part.repulsive>
0.2534

> <Gold.PLP.ligand.clash>
0.0000

> <Gold.PLP.ligand.torsion>
0.9923

> <Gold.PLP.Chemscore.Hbond>
5.7253

> <Gold.PLP.Chemscore.CHOScore>
0.0000

> <Gold.PLP.Chemscore.Metal>
0.0000

> <Gold.Chemscore.Hbonds>
donor molecule, donor type, donor heavy atom, donor atom, acceptor molecule, acceptor atom, score
      L1  H     6    33       P1  7949  0.94
      P1  H  6896  6907       L1    12  0.88
      P1  H  6931  6943       L1    19  0.89
      P1  H  6934  6947       L1    19  0.78
      P1  H  7997  8008       L1     3  0.95
      P1  H 10752 10764       L1     6  1.00

> <Gold.PLP.Chemscore.Internal.Correction>
0.1625

> <Gold.Rescore>
     Score         DG    S(hbond)    S(metal)    S(lipo)     H(rot)  DE(clash)    DE(int)     intcor
     16.06     -18.47       4.06        0.00      49.55       2.49       0.18       2.23       ----

> <Gold.Chemscore.Fitness>
16.0568

> <Gold.Chemscore.DG>
-18.4681

> <Gold.Chemscore.ZeroCoef>
-5.4800

> <Gold.Chemscore.Hbond>
4.0630

> <Gold.Chemscore.Metal>
0.0000

> <Gold.Chemscore.Lipo>
49.5538

> <Gold.Chemscore.Internal_Hbond>
0.0000

> <Gold.Chemscore.DEClash>
0.1773

> <Gold.Chemscore.DEInternal>
2.2339

> <Gold.Chemscore.Rot>
2.4922

> <Gold.Chemscore.Internal.Correction>
   9.000000E+99

> <Gold.Chemscore.Hbonds>
donor molecule, donor type, donor heavy atom, donor atom, acceptor molecule, acceptor atom, score
      L1  H     6    33       P1  7949  0.59
      P1  H  6896  6907       L1    12  0.79
      P1  H  6931  6943       L1    19  0.17
      P1  H  6934  6947       L1    19  0.67
      P1  H  7997  8008       L1     3  0.21
      P1  H 10752 10764       L1     6  0.92

> <Gold.Chemscore.Hbond.Weighted>
-13.5703

> <Gold.Chemscore.Metal.Weighted>
-0.0000

> <Gold.Chemscore.Lipo.Weighted>
-5.7978

> <Gold.Chemscore.Internal_Hbond.Weighted>
0.0000

> <Gold.Chemscore.DEClash.Weighted>
0.1773

> <Gold.Chemscore.DEInternal.Weighted>
2.2339

> <Gold.Chemscore.Rot.Weighted>
6.3800

> <Gold.Chemscore.Internal.Correction.Weighted>
   9.000000E+99

> <Gold.Protein.RotatedTorsions>
[ 6907 6896 6895 6894 ] final  -90.73 input  -60.11 | X-H torsion
[ 7974 7965 7964 7962 ] final  -79.21 input  175.53 | X-H torsion
[ 8008 7997 7996 7995 ] final  -15.21 input   59.86 | X-H torsion
[ 10167 10162 10161 10158 ] final   50.82 input  -65.29 | X-H torsion
[ 10718 10713 10712 10709 ] final  -50.71 input   66.30 | X-H torsion
[ 10763 10752 10751 10750 ] final  -74.83 input  -60.55 | X-H torsion
[ 11005 11000 10999 10996 ] final   83.65 input  -57.11 | X-H torsion

> <Gold.Protein.ActiveResidues>
 VAL166  LYS551  ARG553  GLY616  TRP617  ASP618  TYR619  PRO620  LYS621  CYS622 
 ASP623  PHE694  ASN695  SER759  ASP760  ASP761  ALA762  ILE779  LEU786  VAL792 
 PHE793  MET794  SER795  GLU796  ALA797  LYS798  CYS799  TRP800  GLU811  SER814 

> <Gold.Protein.RotatedAtoms>
  150.6885  134.2387  159.4463 H   0  0  0  0  0  0  0  0  0  0  0  0  # atno 6907 bound_to 6896
  152.0333  134.9752  160.0582 H   0  0  0  0  0  0  0  0  0  0  0  0  # atno 6908 bound_to 6896
  152.1283  133.4358  159.4745 H   0  0  0  0  0  0  0  0  0  0  0  0  # atno 6909 bound_to 6896
  145.5763  140.9457  143.1368 H   0  0  0  0  0  0  0  0  0  0  0  0  # atno 7974 bound_to 7965
  154.5148  140.2202  155.9087 H   0  0  0  0  0  0  0  0  0  0  0  0  # atno 8008 bound_to 7997
  156.1595  140.3145  155.8748 H   0  0  0  0  0  0  0  0  0  0  0  0  # atno 8009 bound_to 7997
  155.3780  140.0470  157.3035 H   0  0  0  0  0  0  0  0  0  0  0  0  # atno 8010 bound_to 7997
  140.2684  144.3293  150.6297 H   0  0  0  0  0  0  0  0  0  0  0  0  # atno 10167 bound_to 10162
  156.1776  130.4150  149.9554 H   0  0  0  0  0  0  0  0  0  0  0  0  # atno 10718 bound_to 10713
  154.4783  135.5851  153.6371 H   0  0  0  0  0  0  0  0  0  0  0  0  # atno 10763 bound_to 10752
  152.9844  135.6083  154.3279 H   0  0  0  0  0  0  0  0  0  0  0  0  # atno 10764 bound_to 10752
  154.3167  135.2844  155.2519 H   0  0  0  0  0  0  0  0  0  0  0  0  # atno 10765 bound_to 10752
  139.9024  134.8160  156.2338 H   0  0  0  0  0  0  0  0  0  0  0  0  # atno 11005 bound_to 11000
  144.7414  139.7438  143.7309 LP  0  0  0  0  0  0  0  0  0  0  0  0  # atno 17320 bound_to 7965
  146.1748  139.4914  142.9904 LP  0  0  0  0  0  0  0  0  0  0  0  0  # atno 17321 bound_to 7965
  140.5909  143.2168  151.7254 LP  0  0  0  0  0  0  0  0  0  0  0  0  # atno 17342 bound_to 10162
  139.4996  144.3940  152.0250 LP  0  0  0  0  0  0  0  0  0  0  0  0  # atno 17343 bound_to 10162
  156.7335  130.9052  151.3627 LP  0  0  0  0  0  0  0  0  0  0  0  0  # atno 17370 bound_to 10713
  157.6846  130.9173  150.0353 LP  0  0  0  0  0  0  0  0  0  0  0  0  # atno 17371 bound_to 10713
  141.0328  133.6979  156.1460 LP  0  0  0  0  0  0  0  0  0  0  0  0  # atno 17394 bound_to 11000
  140.7071  134.4502  157.5583 LP  0  0  0  0  0  0  0  0  0  0  0  0  # atno 17395 bound_to 11000

$$$$
