AV-unprocessed.smi:1724|AV-procd|sdf|6949|dock2
  -GOLD-   22720 8163D 1   1.00000     0.00000
 Structure written by MMmdl.
 38 39  0  0  0  0  0  0  0  0  1 V2000
  145.8582  137.1727  154.8792 O   0  0  0  0  0  0  0  0  0  0  0  0
  146.8454  136.4549  154.7227 C   0  0  0  0  0  0  0  0  0  0  0  0
  147.9346  136.5215  155.5024 N   0  0  0  0  0  0  0  0  0  0  0  0
  148.1253  137.4423  156.6202 C   0  0  0  0  0  0  0  0  0  0  0  0
  149.5048  138.1324  156.5864 C   0  0  2  0  0  0  0  0  0  0  0  0
  149.6448  139.2558  157.6315 C   0  0  0  0  0  0  0  0  0  0  0  0
  150.9971  139.9608  157.4768 C   0  0  0  0  0  0  0  0  0  0  0  0
  151.2001  140.4229  156.0263 C   0  0  0  0  0  0  0  0  0  0  0  0
  151.0866  139.3092  155.1482 O   0  0  0  0  0  0  0  0  0  0  0  0
  149.7988  138.7027  155.1834 C   0  0  0  0  0  0  0  0  0  0  0  0
  146.9848  135.4980  153.7864 N   0  0  0  0  0  0  0  0  0  0  0  0
  146.0988  135.1095  152.7666 C   0  0  0  0  0  0  0  0  0  0  0  0
  145.7299  133.8290  152.4998 C   0  0  0  0  0  0  0  0  0  0  0  0
  144.7986  133.5000  151.4334 C   0  0  0  0  0  0  0  0  0  0  0  0
  144.4577  132.0585  151.0889 C   0  0  0  0  0  0  0  0  0  0  0  0
  143.5758  131.9961  150.0902 F   0  0  0  0  0  0  0  0  0  0  0  0
  145.5475  131.3809  150.7278 F   0  0  0  0  0  0  0  0  0  0  0  0
  143.9260  131.4534  152.1501 F   0  0  0  0  0  0  0  0  0  0  0  0
  144.3212  134.5322  150.7139 C   0  0  0  0  0  0  0  0  0  0  0  0
  144.6771  135.8528  150.9958 N   0  0  0  0  0  0  0  0  0  0  0  0
  145.5345  136.2163  151.9758 C   0  0  0  0  0  0  0  0  0  0  0  0
  145.7984  137.4040  152.1602 O   0  0  0  0  0  0  0  0  0  0  0  0
  144.2627  136.5725  150.4211 H   0  0  0  0  0  0  0  0  0  0  0  0
  148.6951  135.8871  155.3062 H   0  0  0  0  0  0  0  0  0  0  0  0
  147.3400  138.1959  156.5548 H   0  0  0  0  0  0  0  0  0  0  0  0
  147.9773  136.9368  157.5761 H   0  0  0  0  0  0  0  0  0  0  0  0
  150.2632  137.3773  156.8002 H   0  0  0  0  0  0  0  0  0  0  0  0
  148.8381  139.9793  157.5069 H   0  0  0  0  0  0  0  0  0  0  0  0
  149.5565  138.8600  158.6432 H   0  0  0  0  0  0  0  0  0  0  0  0
  151.0585  140.8115  158.1561 H   0  0  0  0  0  0  0  0  0  0  0  0
  151.8002  139.2780  157.7566 H   0  0  0  0  0  0  0  0  0  0  0  0
  150.4731  141.1901  155.7554 H   0  0  0  0  0  0  0  0  0  0  0  0
  152.1893  140.8656  155.9085 H   0  0  0  0  0  0  0  0  0  0  0  0
  149.7767  137.9045  154.4411 H   0  0  0  0  0  0  0  0  0  0  0  0
  149.0387  139.4281  154.8889 H   0  0  0  0  0  0  0  0  0  0  0  0
  147.8327  134.9513  153.8314 H   0  0  0  0  0  0  0  0  0  0  0  0
  146.1040  133.0077  153.0884 H   0  0  0  0  0  0  0  0  0  0  0  0
  143.6459  134.4296  149.8773 H   0  0  0  0  0  0  0  0  0  0  0  0
  1  2  2  0  0  0  0
  2  3  1  0  0  0  0
  2 11  1  0  0  0  0
  3  4  1  0  0  0  0
  3 24  1  0  0  0  0
  4  5  1  0  0  0  0
  4 25  1  0  0  0  0
  4 26  1  0  0  0  0
  5 10  1  0  0  0  0
  5  6  1  0  0  0  0
  5 27  1  0  0  0  0
  6  7  1  0  0  0  0
  6 28  1  0  0  0  0
  6 29  1  0  0  0  0
  7  8  1  0  0  0  0
  7 30  1  0  0  0  0
  7 31  1  0  0  0  0
  8  9  1  0  0  0  0
  8 32  1  0  0  0  0
  8 33  1  0  0  0  0
  9 10  1  0  0  0  0
 10 34  1  0  0  0  0
 10 35  1  0  0  0  0
 11 12  1  0  0  0  0
 11 36  1  0  0  0  0
 12 21  1  0  0  0  0
 12 13  2  0  0  0  0
 13 14  1  0  0  0  0
 13 37  1  0  0  0  0
 14 15  1  0  0  0  0
 14 19  2  0  0  0  0
 15 16  1  0  0  0  0
 15 17  1  0  0  0  0
 15 18  1  0  0  0  0
 19 20  1  0  0  0  0
 19 38  1  0  0  0  0
 20 23  1  0  0  0  0
 20 21  1  0  0  0  0
 21 22  2  0  0  0  0
M  END
> <s_m_source_file>
AV-unprocessed.smi

> <i_m_source_file_index>
1724

> <i_lp_mmshare_version>
43012

> <i_f3d_flags>
0

> <s_epik_input>
Tz1jMVtuSF1bY0hdYyhDKEYpKEYpRilbY0hdYzFbTkhdQyg9TylbTkhdW0NIMl1bQ0BASF0yW0NIMl1bQ0gyXVtDSDJdT1tDSDJdMg==

> <s_epik_cmdline>
J2VwaWtfcHl0aG9uJywgJy1waCcsICc3LjAnLCAnLXRuJywgJzgnLCAnLW1hJywgJzIwMCcsICctbWV0YWxfYmluZGluZycsICctaW1hZScsICc8aW5maWxlLm1hZT4nLCAnLW9tYWUnLCAnPG91dGZpbGUubWFlPic=

> <r_lp_tautomer_probability>
1

> <r_epik_Ionization_Penalty>
0.00384958

> <r_epik_Ionization_Penalty_Charging>
0.00382926

> <r_epik_Ionization_Penalty_Neutral>
2.03186e-05

> <r_epik_State_Penalty>
-0

> <r_epik_Charging_Adjusted_Penalty>
0.00382926

> <i_epik_Tot_Q>
0

> <i_epik_Tot_abs_Q>
0

> <r_epik_Metal_State_Penalty>
0.371494

> <b_epik_Metal_Only>
0

> <s_lp_Force_Field>
OPLS_2005

> <r_lp_Energy>
21.9541

> <b_lp_Chiralities_Consistent>
1

> <s_lp_Variant>
AV-unprocessed.smi:1724-1

> <Gold.Version>
5.8.1

> <Gold.Id.Protein>
6NUR|6NUR_protein|mol2

> <Gold.PLP.Fitness>
40.0958

> <Gold.PLP.PLP>
-33.1161

> <Gold.PLP.part.hbond>
-2.5363

> <Gold.PLP.part.metal>
0.0000

> <Gold.PLP.part.buried>
-4.0147

> <Gold.PLP.part.nonpolar>
-27.7035

> <Gold.PLP.part.repulsive>
0.6029

> <Gold.PLP.ligand.clash>
1.2292

> <Gold.PLP.ligand.torsion>
0.5814

> <Gold.PLP.Chemscore.Hbond>
2.1040

> <Gold.PLP.Chemscore.CHOScore>
1.0000

> <Gold.PLP.Chemscore.Metal>
0.0000

> <Gold.Chemscore.Hbonds>
donor molecule, donor type, donor heavy atom, donor atom, acceptor molecule, acceptor atom, score
      L1  H    20    23       P1 10171  0.76
      P1  H  7989  7998       L1     9  0.05
      L1  C    19    38       P1 10186  0.70

> <Gold.PLP.Chemscore.Internal.Correction>
0.0596

> <Gold.Rescore>
     Score         DG    S(hbond)    S(metal)    S(lipo)     H(rot)  DE(clash)    DE(int)     intcor
     13.10     -15.16       2.18        0.00      49.59       1.33       1.39       0.68       ----

> <Gold.Chemscore.Fitness>
13.0954

> <Gold.Chemscore.DG>
-15.1591

> <Gold.Chemscore.ZeroCoef>
-5.4800

> <Gold.Chemscore.Hbond>
2.1837

> <Gold.Chemscore.Metal>
0.0000

> <Gold.Chemscore.Lipo>
49.5868

> <Gold.Chemscore.Internal_Hbond>
0.0000

> <Gold.Chemscore.DEClash>
1.3865

> <Gold.Chemscore.DEInternal>
0.6773

> <Gold.Chemscore.Rot>
1.3344

> <Gold.Chemscore.Internal.Correction>
   9.000000E+99

> <Gold.Chemscore.Hbonds>
donor molecule, donor type, donor heavy atom, donor atom, acceptor molecule, acceptor atom, score
      L1  H    20    23       P1 10171  0.74

> <Gold.Chemscore.Hbond.Weighted>
-7.2934

> <Gold.Chemscore.Metal.Weighted>
-0.0000

> <Gold.Chemscore.Lipo.Weighted>
-5.8017

> <Gold.Chemscore.Internal_Hbond.Weighted>
0.0000

> <Gold.Chemscore.DEClash.Weighted>
1.3865

> <Gold.Chemscore.DEInternal.Weighted>
0.6773

> <Gold.Chemscore.Rot.Weighted>
3.4160

> <Gold.Chemscore.Internal.Correction.Weighted>
   9.000000E+99

> <Gold.Protein.RotatedTorsions>
[ 6907 6896 6895 6894 ] final -131.11 input  -60.11 | X-H torsion
[ 7974 7965 7964 7962 ] final   22.75 input  175.53 | X-H torsion
[ 8008 7997 7996 7995 ] final  177.17 input   59.86 | X-H torsion
[ 10167 10162 10161 10158 ] final   79.44 input  -65.29 | X-H torsion
[ 10718 10713 10712 10709 ] final   25.00 input   66.30 | X-H torsion
[ 10763 10752 10751 10750 ] final   91.10 input  -60.55 | X-H torsion
[ 11005 11000 10999 10996 ] final  -10.03 input  -57.11 | X-H torsion

> <Gold.Protein.ActiveResidues>
 VAL166  LYS551  ARG553  GLY616  TRP617  ASP618  TYR619  PRO620  LYS621  CYS622 
 ASP623  PHE694  ASN695  SER759  ASP760  ASP761  ALA762  ILE779  LEU786  VAL792 
 PHE793  MET794  SER795  GLU796  ALA797  LYS798  CYS799  TRP800  GLU811  SER814 

> <Gold.Protein.RotatedAtoms>
  150.9473  133.6588  159.2778 H   0  0  0  0  0  0  0  0  0  0  0  0  # atno 6907 bound_to 6896
  151.3957  135.0962  159.9550 H   0  0  0  0  0  0  0  0  0  0  0  0  # atno 6908 bound_to 6896
  152.5095  133.8978  159.7481 H   0  0  0  0  0  0  0  0  0  0  0  0  # atno 6909 bound_to 6896
  146.2015  139.7841  142.8758 H   0  0  0  0  0  0  0  0  0  0  0  0  # atno 7974 bound_to 7965
  156.0686  140.1365  156.9856 H   0  0  0  0  0  0  0  0  0  0  0  0  # atno 8008 bound_to 7997
  154.4519  140.0976  156.6696 H   0  0  0  0  0  0  0  0  0  0  0  0  # atno 8009 bound_to 7997
  155.5264  140.3457  155.4419 H   0  0  0  0  0  0  0  0  0  0  0  0  # atno 8010 bound_to 7997
  139.9603  144.5965  150.8078 H   0  0  0  0  0  0  0  0  0  0  0  0  # atno 10167 bound_to 10162
  157.1875  130.6831  149.6137 H   0  0  0  0  0  0  0  0  0  0  0  0  # atno 10718 bound_to 10713
  153.2047  135.4409  155.0308 H   0  0  0  0  0  0  0  0  0  0  0  0  # atno 10763 bound_to 10752
  154.8167  135.3318  154.7159 H   0  0  0  0  0  0  0  0  0  0  0  0  # atno 10764 bound_to 10752
  153.7602  135.6992  153.4983 H   0  0  0  0  0  0  0  0  0  0  0  0  # atno 10765 bound_to 10752
  140.7404  133.8675  155.8963 H   0  0  0  0  0  0  0  0  0  0  0  0  # atno 11005 bound_to 11000
  145.3468  141.0299  143.3361 LP  0  0  0  0  0  0  0  0  0  0  0  0  # atno 17320 bound_to 7965
  144.8694  139.5060  143.6775 LP  0  0  0  0  0  0  0  0  0  0  0  0  # atno 17321 bound_to 7965
  140.7555  143.3048  151.2990 LP  0  0  0  0  0  0  0  0  0  0  0  0  # atno 17342 bound_to 10162
  139.6559  144.0277  152.2659 LP  0  0  0  0  0  0  0  0  0  0  0  0  # atno 17343 bound_to 10162
  155.9716  130.4626  150.6151 LP  0  0  0  0  0  0  0  0  0  0  0  0  # atno 17370 bound_to 10713
  157.3893  131.0793  151.1408 LP  0  0  0  0  0  0  0  0  0  0  0  0  # atno 17371 bound_to 10713
  140.9841  134.1366  157.4468 LP  0  0  0  0  0  0  0  0  0  0  0  0  # atno 17394 bound_to 11000
  139.8807  135.0020  156.6100 LP  0  0  0  0  0  0  0  0  0  0  0  0  # atno 17395 bound_to 11000

$$$$
