AV-unprocessed.smi:2822|AV-procd|sdf|10872|dock5
  -GOLD-   2272015313D 1   1.00000     0.00000
 Structure written by MMmdl.
 40 42  0  0  0  0  0  0  0  0  2 V2000
  142.3191  133.5114  152.2422 Cl  0  0  0  0  0  0  0  0  0  0  0  0
  143.8076  133.1030  151.4619 C   0  0  0  0  0  0  0  0  0  0  0  0
  143.9292  131.8696  150.7895 C   0  0  0  0  0  0  0  0  0  0  0  0
  145.0542  131.4743  150.1576 N   0  0  0  0  0  0  0  0  0  0  0  0
  146.1120  132.3115  150.1763 C   0  0  0  0  0  0  0  0  0  0  0  0
  146.0976  133.5658  150.8183 C   0  0  0  0  0  0  0  0  0  0  0  0
  144.9178  133.9785  151.4816 C   0  0  0  0  0  0  0  0  0  0  0  0
  144.8170  135.2109  152.1458 N   0  0  0  0  0  0  0  0  0  0  0  0
  145.6863  136.3198  151.7831 C   0  0  0  0  0  0  0  0  0  0  0  0
  145.4054  137.5640  152.6373 C   0  0  2  0  0  0  0  0  0  0  0  0
  146.5586  138.5808  152.5524 C   0  0  0  0  0  0  0  0  0  0  0  0
  146.3068  139.7341  153.4517 N   0  3  2  0  0  0  0  0  0  0  0  0
  147.3507  140.7901  153.3832 C   0  0  0  0  0  0  0  0  0  0  0  0
  148.6435  140.3803  154.1143 C   0  0  0  0  0  0  0  0  0  0  0  0
  148.3512  139.9664  155.5629 C   0  0  0  0  0  0  0  0  0  0  0  0
  147.2769  138.8701  155.6002 C   0  0  0  0  0  0  0  0  0  0  0  0
  146.0026  139.3126  154.8471 C   0  0  2  0  0  0  0  0  0  0  0  0
  144.9048  138.2302  154.8489 C   0  0  0  0  0  0  0  0  0  0  0  0
  145.2712  137.1541  153.9941 O   0  0  0  0  0  0  0  0  0  0  0  0
  143.0990  131.1793  150.7580 H   0  0  0  0  0  0  0  0  0  0  0  0
  146.9991  131.9725  149.6621 H   0  0  0  0  0  0  0  0  0  0  0  0
  146.9827  134.1833  150.7878 H   0  0  0  0  0  0  0  0  0  0  0  0
  144.3479  135.2405  153.0401 H   0  0  0  0  0  0  0  0  0  0  0  0
  146.7305  136.0215  151.8853 H   0  0  0  0  0  0  0  0  0  0  0  0
  145.5169  136.5573  150.7322 H   0  0  0  0  0  0  0  0  0  0  0  0
  144.4797  138.0323  152.2964 H   0  0  0  0  0  0  0  0  0  0  0  0
  147.4995  138.0944  152.8111 H   0  0  0  0  0  0  0  0  0  0  0  0
  146.6603  138.9392  151.5272 H   0  0  0  0  0  0  0  0  0  0  0  0
  147.5622  141.0389  152.3426 H   0  0  0  0  0  0  0  0  0  0  0  0
  146.9501  141.6960  153.8395 H   0  0  0  0  0  0  0  0  0  0  0  0
  149.1298  139.5589  153.5875 H   0  0  0  0  0  0  0  0  0  0  0  0
  149.3526  141.2084  154.1027 H   0  0  0  0  0  0  0  0  0  0  0  0
  149.2641  139.6157  156.0453 H   0  0  0  0  0  0  0  0  0  0  0  0
  148.0118  140.8337  156.1307 H   0  0  0  0  0  0  0  0  0  0  0  0
  147.6754  137.9515  155.1680 H   0  0  0  0  0  0  0  0  0  0  0  0
  147.0329  138.6359  156.6371 H   0  0  0  0  0  0  0  0  0  0  0  0
  145.6029  140.1852  155.3661 H   0  0  0  0  0  0  0  0  0  0  0  0
  144.7477  137.8472  155.8576 H   0  0  0  0  0  0  0  0  0  0  0  0
  143.9511  138.6492  154.5232 H   0  0  0  0  0  0  0  0  0  0  0  0
  145.4607  140.1607  153.1017 H   0  0  0  0  0  0  0  0  0  0  0  0
  1  2  1  0  0  0  0
  2  7  1  0  0  0  0
  2  3  2  0  0  0  0
  3  4  1  0  0  0  0
  3 20  1  0  0  0  0
  4  5  2  0  0  0  0
  5  6  1  0  0  0  0
  5 21  1  0  0  0  0
  6  7  2  0  0  0  0
  6 22  1  0  0  0  0
  7  8  1  0  0  0  0
  8  9  1  0  0  0  0
  8 23  1  0  0  0  0
  9 10  1  0  0  0  0
  9 24  1  0  0  0  0
  9 25  1  0  0  0  0
 10 19  1  0  0  0  0
 10 11  1  0  0  0  0
 10 26  1  0  0  0  0
 11 12  1  0  0  0  0
 11 27  1  0  0  0  0
 11 28  1  0  0  0  0
 12 17  1  0  0  0  0
 12 13  1  0  0  0  0
 12 40  1  0  0  0  0
 13 14  1  0  0  0  0
 13 29  1  0  0  0  0
 13 30  1  0  0  0  0
 14 15  1  0  0  0  0
 14 31  1  0  0  0  0
 14 32  1  0  0  0  0
 15 16  1  0  0  0  0
 15 33  1  0  0  0  0
 15 34  1  0  0  0  0
 16 17  1  0  0  0  0
 16 35  1  0  0  0  0
 16 36  1  0  0  0  0
 17 18  1  0  0  0  0
 17 37  1  0  0  0  0
 18 19  1  0  0  0  0
 18 38  1  0  0  0  0
 18 39  1  0  0  0  0
M  CHG  1  12   1
M  END
> <s_m_source_file>
AV-unprocessed.smi

> <i_m_source_file_index>
2822

> <i_lp_mmshare_version>
43012

> <i_f3d_flags>
0

> <s_epik_input>
Q2xjMVtjSF1uW2NIXVtjSF1jMVtOSF1bQ0gyXVtDQEhdKFtDSDJdMilPW0NIMl1bQ0BASF0oTjIzKVtDSDJdW0NIMl1bQ0gyXVtDSDJdMw==

> <s_epik_cmdline>
J2VwaWtfcHl0aG9uJywgJy1waCcsICc3LjAnLCAnLXRuJywgJzgnLCAnLW1hJywgJzIwMCcsICctbWV0YWxfYmluZGluZycsICctaW1hZScsICc8aW5maWxlLm1hZT4nLCAnLW9tYWUnLCAnPG91dGZpbGUubWFlPic=

> <r_lp_tautomer_probability>
0.999999

> <r_epik_Ionization_Penalty>
0.88937

> <r_epik_Ionization_Penalty_Charging>
0.0803403

> <r_epik_Ionization_Penalty_Neutral>
0.80903

> <r_epik_State_Penalty>
0.931884

> <r_epik_Charging_Adjusted_Penalty>
1.01222

> <i_epik_Tot_Q>
1

> <i_epik_Tot_abs_Q>
1

> <r_epik_Metal_State_Penalty>
0.0782275

> <b_epik_Metal_Only>
0

> <s_lp_Force_Field>
OPLS_2005

> <r_lp_Energy>
31.6827

> <b_lp_Chiralities_Consistent>
1

> <s_lp_Variant>
AV-unprocessed.smi:2822-13

> <Gold.Version>
5.8.1

> <Gold.Id.Protein>
6NUR|6NUR_protein|mol2

> <Gold.PLP.Fitness>
38.8703

> <Gold.PLP.PLP>
-27.3764

> <Gold.PLP.part.hbond>
-1.7019

> <Gold.PLP.part.metal>
0.0000

> <Gold.PLP.part.buried>
-0.5353

> <Gold.PLP.part.nonpolar>
-26.9794

> <Gold.PLP.part.repulsive>
0.2343

> <Gold.PLP.ligand.clash>
0.0000

> <Gold.PLP.ligand.torsion>
0.2442

> <Gold.PLP.Chemscore.Hbond>
2.0000

> <Gold.PLP.Chemscore.CHOScore>
1.9934

> <Gold.PLP.Chemscore.Metal>
0.0000

> <Gold.Chemscore.Hbonds>
donor molecule, donor type, donor heavy atom, donor atom, acceptor molecule, acceptor atom, score
      L1  H    12    40       P1 10175  2.00
      L1  C     3    20       P1 10952  0.58
      L1  C     5    21       P1 10747  1.00

> <Gold.PLP.Chemscore.Internal.Correction>
0.0022

> <Gold.Rescore>
     Score         DG    S(hbond)    S(metal)    S(lipo)     H(rot)  DE(clash)    DE(int)     intcor
     15.34     -15.86       0.99        0.00      85.99       1.17       0.26       0.26       ----

> <Gold.Chemscore.Fitness>
15.3411

> <Gold.Chemscore.DG>
-15.8615

> <Gold.Chemscore.ZeroCoef>
-5.4800

> <Gold.Chemscore.Hbond>
0.9923

> <Gold.Chemscore.Metal>
0.0000

> <Gold.Chemscore.Lipo>
85.9885

> <Gold.Chemscore.Internal_Hbond>
0.0000

> <Gold.Chemscore.DEClash>
0.2639

> <Gold.Chemscore.DEInternal>
0.2565

> <Gold.Chemscore.Rot>
1.1693

> <Gold.Chemscore.Internal.Correction>
   9.000000E+99

> <Gold.Chemscore.Hbonds>
donor molecule, donor type, donor heavy atom, donor atom, acceptor molecule, acceptor atom, score
      L1  H    12    40       P1 10175  0.99

> <Gold.Chemscore.Hbond.Weighted>
-3.3142

> <Gold.Chemscore.Metal.Weighted>
-0.0000

> <Gold.Chemscore.Lipo.Weighted>
-10.0607

> <Gold.Chemscore.Internal_Hbond.Weighted>
0.0000

> <Gold.Chemscore.DEClash.Weighted>
0.2639

> <Gold.Chemscore.DEInternal.Weighted>
0.2565

> <Gold.Chemscore.Rot.Weighted>
2.9934

> <Gold.Chemscore.Internal.Correction.Weighted>
   9.000000E+99

> <Gold.Protein.RotatedTorsions>
[ 6907 6896 6895 6894 ] final  -44.63 input  -60.11 | X-H torsion
[ 7974 7965 7964 7962 ] final -125.64 input  175.53 | X-H torsion
[ 8008 7997 7996 7995 ] final -147.42 input   59.86 | X-H torsion
[ 10167 10162 10161 10158 ] final  177.46 input  -65.29 | X-H torsion
[ 10718 10713 10712 10709 ] final   24.04 input   66.30 | X-H torsion
[ 10763 10752 10751 10750 ] final  -99.70 input  -60.55 | X-H torsion
[ 11005 11000 10999 10996 ] final -117.52 input  -57.11 | X-H torsion

> <Gold.Protein.ActiveResidues>
 VAL166  LYS551  ARG553  GLY616  TRP617  ASP618  TYR619  PRO620  LYS621  CYS622 
 ASP623  PHE694  ASN695  SER759  ASP760  ASP761  ALA762  ILE779  LEU786  VAL792 
 PHE793  MET794  SER795  GLU796  ALA797  LYS798  CYS799  TRP800  GLU811  SER814 

> <Gold.Protein.RotatedAtoms>
  150.9307  134.8722  159.7548 H   0  0  0  0  0  0  0  0  0  0  0  0  # atno 6907 bound_to 6896
  152.5036  134.4083  159.9450 H   0  0  0  0  0  0  0  0  0  0  0  0  # atno 6908 bound_to 6896
  151.4111  133.3687  159.2779 H   0  0  0  0  0  0  0  0  0  0  0  0  # atno 6909 bound_to 6896
  144.9955  140.7772  143.4528 H   0  0  0  0  0  0  0  0  0  0  0  0  # atno 7974 bound_to 7965
  155.5753  140.0638  157.2796 H   0  0  0  0  0  0  0  0  0  0  0  0  # atno 8008 bound_to 7997
  154.4348  140.1861  156.0967 H   0  0  0  0  0  0  0  0  0  0  0  0  # atno 8009 bound_to 7997
  156.0346  140.3302  155.7180 H   0  0  0  0  0  0  0  0  0  0  0  0  # atno 8010 bound_to 7997
  139.5254  144.2795  152.0558 H   0  0  0  0  0  0  0  0  0  0  0  0  # atno 10167 bound_to 10162
  157.1743  130.6774  149.6089 H   0  0  0  0  0  0  0  0  0  0  0  0  # atno 10718 bound_to 10713
  154.7519  135.4962  153.9305 H   0  0  0  0  0  0  0  0  0  0  0  0  # atno 10763 bound_to 10752
  153.1153  135.6719  153.9436 H   0  0  0  0  0  0  0  0  0  0  0  0  # atno 10764 bound_to 10752
  153.9184  135.3091  155.3427 H   0  0  0  0  0  0  0  0  0  0  0  0  # atno 10765 bound_to 10752
  141.0349  133.9925  157.3087 H   0  0  0  0  0  0  0  0  0  0  0  0  # atno 11005 bound_to 11000
  145.2226  139.2152  143.5085 LP  0  0  0  0  0  0  0  0  0  0  0  0  # atno 17320 bound_to 7965
  146.3441  140.2086  142.8590 LP  0  0  0  0  0  0  0  0  0  0  0  0  # atno 17321 bound_to 7965
  140.2251  144.4426  150.6324 LP  0  0  0  0  0  0  0  0  0  0  0  0  # atno 17342 bound_to 10162
  140.6392  143.2200  151.6327 LP  0  0  0  0  0  0  0  0  0  0  0  0  # atno 17343 bound_to 10162
  155.9733  130.4668  150.6303 LP  0  0  0  0  0  0  0  0  0  0  0  0  # atno 17370 bound_to 10713
  157.4013  131.0810  151.1305 LP  0  0  0  0  0  0  0  0  0  0  0  0  # atno 17371 bound_to 10713
  139.9233  135.0201  156.8145 LP  0  0  0  0  0  0  0  0  0  0  0  0  # atno 17394 bound_to 11000
  140.6341  133.9879  155.7676 LP  0  0  0  0  0  0  0  0  0  0  0  0  # atno 17395 bound_to 11000

$$$$
