AV-unprocessed.smi:3333|AV-procd|sdf|12833|dock5
  -GOLD-   2272019213D 1   1.00000     0.00000
 Structure written by MMmdl.
 41 43  0  0  0  0  0  0  0  0  1 V2000
  151.5616  144.3020  157.4367 C   0  0  0  0  0  0  0  0  0  0  0  0
  151.9956  144.9086  158.7752 C   0  0  0  0  0  0  0  0  0  0  0  0
  152.3297  143.8703  159.7932 C   0  0  0  0  0  0  0  0  0  0  0  0
  152.9303  142.7145  159.4980 N   0  0  0  0  0  0  0  0  0  0  0  0
  153.0971  141.8910  160.6176 C   0  0  0  0  0  0  0  0  0  0  0  0
  153.7486  140.5462  160.4730 C   0  0  0  0  0  0  0  0  0  0  0  0
  153.1841  139.8274  159.2475 C   0  0  0  0  0  0  0  0  0  0  0  0
  153.9355  139.4698  158.3404 O   0  0  0  0  0  0  0  0  0  0  0  0
  151.8606  139.6063  159.2450 N   0  0  0  0  0  0  0  0  0  0  0  0
  151.1355  138.8492  158.2322 C   0  0  0  0  0  0  0  0  0  0  0  0
  150.3206  139.7753  157.3045 C   0  0  2  0  0  0  0  0  0  0  0  0
  149.1876  139.0690  156.5308 C   0  0  0  0  0  0  0  0  0  0  0  0
  149.4265  139.5293  155.0797 C   0  0  2  0  0  0  0  0  0  0  0  0
  150.6590  138.7983  154.5164 C   0  0  0  0  0  0  0  0  0  0  0  0
  151.8239  139.4807  155.2563 C   0  0  0  0  0  0  0  0  0  0  0  0
  151.1026  140.4892  156.1746 C   0  0  1  0  0  0  0  0  0  0  0  0
  149.9609  140.9449  155.2718 C   0  0  0  0  0  0  0  0  0  0  0  0
  152.6089  142.4478  161.7739 C   0  0  0  0  0  0  0  0  0  0  0  0
  151.9077  144.0175  161.4951 S   0  0  0  0  0  0  0  0  0  0  0  0
  151.3182  145.0832  156.7166 H   0  0  0  0  0  0  0  0  0  0  0  0
  150.6800  143.6715  157.5568 H   0  0  0  0  0  0  0  0  0  0  0  0
  152.3550  143.6908  157.0081 H   0  0  0  0  0  0  0  0  0  0  0  0
  152.8640  145.5519  158.6278 H   0  0  0  0  0  0  0  0  0  0  0  0
  151.2014  145.5419  159.1714 H   0  0  0  0  0  0  0  0  0  0  0  0
  154.8305  140.6441  160.3747 H   0  0  0  0  0  0  0  0  0  0  0  0
  153.5734  139.9360  161.3599 H   0  0  0  0  0  0  0  0  0  0  0  0
  151.3259  139.9366  160.0355 H   0  0  0  0  0  0  0  0  0  0  0  0
  151.8575  138.2663  157.6612 H   0  0  0  0  0  0  0  0  0  0  0  0
  150.4765  138.1223  158.7095 H   0  0  0  0  0  0  0  0  0  0  0  0
  149.8671  140.5483  157.9275 H   0  0  0  0  0  0  0  0  0  0  0  0
  149.2205  137.9825  156.6236 H   0  0  0  0  0  0  0  0  0  0  0  0
  148.2134  139.4017  156.8914 H   0  0  0  0  0  0  0  0  0  0  0  0
  148.5437  139.4504  154.4447 H   0  0  0  0  0  0  0  0  0  0  0  0
  150.6225  137.7237  154.6991 H   0  0  0  0  0  0  0  0  0  0  0  0
  150.7460  138.9524  153.4400 H   0  0  0  0  0  0  0  0  0  0  0  0
  152.4536  138.7758  155.7975 H   0  0  0  0  0  0  0  0  0  0  0  0
  152.4641  140.0030  154.5444 H   0  0  0  0  0  0  0  0  0  0  0  0
  151.7456  141.2943  156.5321 H   0  0  0  0  0  0  0  0  0  0  0  0
  150.2997  141.4102  154.3443 H   0  0  0  0  0  0  0  0  0  0  0  0
  149.2529  141.6112  155.7678 H   0  0  0  0  0  0  0  0  0  0  0  0
  152.6102  142.0251  162.7677 H   0  0  0  0  0  0  0  0  0  0  0  0
  1  2  1  0  0  0  0
  1 20  1  0  0  0  0
  1 21  1  0  0  0  0
  1 22  1  0  0  0  0
  2  3  1  0  0  0  0
  2 23  1  0  0  0  0
  2 24  1  0  0  0  0
  3 19  1  0  0  0  0
  3  4  2  0  0  0  0
  4  5  1  0  0  0  0
  5  6  1  0  0  0  0
  5 18  2  0  0  0  0
  6  7  1  0  0  0  0
  6 25  1  0  0  0  0
  6 26  1  0  0  0  0
  7  8  2  0  0  0  0
  7  9  1  0  0  0  0
  9 10  1  0  0  0  0
  9 27  1  0  0  0  0
 10 11  1  0  0  0  0
 10 28  1  0  0  0  0
 10 29  1  0  0  0  0
 11 16  1  0  0  0  0
 11 12  1  0  0  0  0
 11 30  1  0  0  0  0
 12 13  1  0  0  0  0
 12 31  1  0  0  0  0
 12 32  1  0  0  0  0
 13 17  1  0  0  0  0
 13 14  1  0  0  0  0
 13 33  1  0  0  0  0
 14 15  1  0  0  0  0
 14 34  1  0  0  0  0
 14 35  1  0  0  0  0
 15 16  1  0  0  0  0
 15 36  1  0  0  0  0
 15 37  1  0  0  0  0
 16 17  1  0  0  0  0
 16 38  1  0  0  0  0
 17 39  1  0  0  0  0
 17 40  1  0  0  0  0
 18 19  1  0  0  0  0
 18 41  1  0  0  0  0
M  END
> <s_m_source_file>
AV-unprocessed.smi

> <i_m_source_file_index>
3333

> <i_lp_mmshare_version>
43012

> <i_f3d_flags>
0

> <s_epik_input>
W0NIM11bQ0gyXWMxbmMoW2NIXXMxKVtDSDJdQyg9TylbTkhdW0NIMl1bQ0BIXShbQ0gyXVtDQEBIXTIzKVtDQEBIXShbQ0gyXTMpW0NIMl1bQ0gyXTI=

> <s_epik_cmdline>
J2VwaWtfcHl0aG9uJywgJy1waCcsICc3LjAnLCAnLXRuJywgJzgnLCAnLW1hJywgJzIwMCcsICctbWV0YWxfYmluZGluZycsICctaW1hZScsICc8aW5maWxlLm1hZT4nLCAnLW9tYWUnLCAnPG91dGZpbGUubWFlPic=

> <r_lp_tautomer_probability>
1

> <r_epik_Ionization_Penalty>
6.68371e-05

> <r_epik_Ionization_Penalty_Charging>
0

> <r_epik_Ionization_Penalty_Neutral>
6.68371e-05

> <r_epik_State_Penalty>
-0

> <r_epik_Charging_Adjusted_Penalty>
0

> <i_epik_Tot_Q>
0

> <i_epik_Tot_abs_Q>
0

> <r_epik_Metal_State_Penalty>
-0

> <b_epik_Metal_Only>
0

> <s_lp_Force_Field>
OPLS_2005

> <r_lp_Energy>
42.1731

> <b_lp_Chiralities_Consistent>
1

> <s_lp_Variant>
AV-unprocessed.smi:3333-3

> <Gold.Version>
5.8.1

> <Gold.Id.Protein>
6NUR|6NUR_protein|mol2

> <Gold.PLP.Fitness>
48.9941

> <Gold.PLP.PLP>
-47.4818

> <Gold.PLP.part.hbond>
-0.9500

> <Gold.PLP.part.metal>
0.0000

> <Gold.PLP.part.buried>
-3.7286

> <Gold.PLP.part.nonpolar>
-41.8575

> <Gold.PLP.part.repulsive>
0.1512

> <Gold.PLP.ligand.clash>
0.0000

> <Gold.PLP.ligand.torsion>
0.7680

> <Gold.PLP.Chemscore.Hbond>
1.0000

> <Gold.PLP.Chemscore.CHOScore>
0.0000

> <Gold.PLP.Chemscore.Metal>
0.0000

> <Gold.Chemscore.Hbonds>
donor molecule, donor type, donor heavy atom, donor atom, acceptor molecule, acceptor atom, score
      P1  H  7997  8008       L1     8  0.99

> <Gold.PLP.Chemscore.Internal.Correction>
0.0482

> <Gold.Rescore>
     Score         DG    S(hbond)    S(metal)    S(lipo)     H(rot)  DE(clash)    DE(int)     intcor
     19.54     -20.54       0.98        0.00     131.84       1.42       0.23       0.78       ----

> <Gold.Chemscore.Fitness>
19.5383

> <Gold.Chemscore.DG>
-20.5392

> <Gold.Chemscore.ZeroCoef>
-5.4800

> <Gold.Chemscore.Hbond>
0.9807

> <Gold.Chemscore.Metal>
0.0000

> <Gold.Chemscore.Lipo>
131.8447

> <Gold.Chemscore.Internal_Hbond>
0.0000

> <Gold.Chemscore.DEClash>
0.2253

> <Gold.Chemscore.DEInternal>
0.7757

> <Gold.Chemscore.Rot>
1.4227

> <Gold.Chemscore.Internal.Correction>
   9.000000E+99

> <Gold.Chemscore.Hbonds>
donor molecule, donor type, donor heavy atom, donor atom, acceptor molecule, acceptor atom, score
      P1  H  7997  8008       L1     8  0.92

> <Gold.Chemscore.Hbond.Weighted>
-3.2755

> <Gold.Chemscore.Metal.Weighted>
-0.0000

> <Gold.Chemscore.Lipo.Weighted>
-15.4258

> <Gold.Chemscore.Internal_Hbond.Weighted>
0.0000

> <Gold.Chemscore.DEClash.Weighted>
0.2253

> <Gold.Chemscore.DEInternal.Weighted>
0.7757

> <Gold.Chemscore.Rot.Weighted>
3.6421

> <Gold.Chemscore.Internal.Correction.Weighted>
   9.000000E+99

> <Gold.Protein.RotatedTorsions>
[ 6907 6896 6895 6894 ] final   88.66 input  -60.11 | X-H torsion
[ 7974 7965 7964 7962 ] final   73.90 input  175.53 | X-H torsion
[ 8008 7997 7996 7995 ] final -118.42 input   59.86 | X-H torsion
[ 10167 10162 10161 10158 ] final   43.83 input  -65.29 | X-H torsion
[ 10718 10713 10712 10709 ] final  -14.27 input   66.30 | X-H torsion
[ 10763 10752 10751 10750 ] final  -44.95 input  -60.55 | X-H torsion
[ 11005 11000 10999 10996 ] final -170.03 input  -57.11 | X-H torsion

> <Gold.Protein.ActiveResidues>
 VAL166  LYS551  ARG553  GLY616  TRP617  ASP618  TYR619  PRO620  LYS621  CYS622 
 ASP623  PHE694  ASN695  SER759  ASP760  ASP761  ALA762  ILE779  LEU786  VAL792 
 PHE793  MET794  SER795  GLU796  ALA797  LYS798  CYS799  TRP800  GLU811  SER814 

> <Gold.Protein.RotatedAtoms>
  152.5428  134.2087  159.8740 H   0  0  0  0  0  0  0  0  0  0  0  0  # atno 6907 bound_to 6896
  151.2071  133.4570  159.2605 H   0  0  0  0  0  0  0  0  0  0  0  0  # atno 6908 bound_to 6896
  151.0933  134.9941  159.8469 H   0  0  0  0  0  0  0  0  0  0  0  0  # atno 6909 bound_to 6896
  145.7351  139.2699  143.1519 H   0  0  0  0  0  0  0  0  0  0  0  0  # atno 7974 bound_to 7965
  155.0994  140.0396  157.2692 H   0  0  0  0  0  0  0  0  0  0  0  0  # atno 8008 bound_to 7997
  154.6770  140.2624  155.6922 H   0  0  0  0  0  0  0  0  0  0  0  0  # atno 8009 bound_to 7997
  156.2680  140.2786  156.1300 H   0  0  0  0  0  0  0  0  0  0  0  0  # atno 8010 bound_to 7997
  140.3404  144.2477  150.6156 H   0  0  0  0  0  0  0  0  0  0  0  0  # atno 10167 bound_to 10162
  156.6184  130.4868  149.6174 H   0  0  0  0  0  0  0  0  0  0  0  0  # atno 10718 bound_to 10713
  154.0205  135.6670  153.4772 H   0  0  0  0  0  0  0  0  0  0  0  0  # atno 10763 bound_to 10752
  153.0582  135.5043  154.8027 H   0  0  0  0  0  0  0  0  0  0  0  0  # atno 10764 bound_to 10752
  154.6940  135.3066  154.9403 H   0  0  0  0  0  0  0  0  0  0  0  0  # atno 10765 bound_to 10752
  140.5241  134.5681  157.5056 H   0  0  0  0  0  0  0  0  0  0  0  0  # atno 11005 bound_to 11000
  146.0501  140.8078  142.9786 LP  0  0  0  0  0  0  0  0  0  0  0  0  # atno 17320 bound_to 7965
  144.6883  140.3040  143.7259 LP  0  0  0  0  0  0  0  0  0  0  0  0  # atno 17321 bound_to 7965
  140.5314  143.2242  151.8232 LP  0  0  0  0  0  0  0  0  0  0  0  0  # atno 17342 bound_to 10162
  139.4841  144.4715  151.9419 LP  0  0  0  0  0  0  0  0  0  0  0  0  # atno 17343 bound_to 10162
  156.2332  130.6807  151.1484 LP  0  0  0  0  0  0  0  0  0  0  0  0  # atno 17370 bound_to 10713
  157.7235  131.0666  150.6036 LP  0  0  0  0  0  0  0  0  0  0  0  0  # atno 17371 bound_to 10713
  139.9590  134.7485  156.0278 LP  0  0  0  0  0  0  0  0  0  0  0  0  # atno 17394 bound_to 11000
  141.1318  133.6584  156.3485 LP  0  0  0  0  0  0  0  0  0  0  0  0  # atno 17395 bound_to 11000

$$$$
