AV-unprocessed.smi:944|AV-procd|sdf|4232|dock8
  -GOLD-   22720 2143D 1   1.00000     0.00000
 Structure written by MMmdl.
 28 28  0  0  0  0  0  0  0  0  1 V2000
  147.3051  144.7127  160.2298 C   0  0  0  0  0  0  0  0  0  0  0  0
  147.1604  144.0201  158.9588 N   0  0  0  0  0  0  0  0  0  0  0  0
  146.7054  142.7657  158.8306 C   0  0  0  0  0  0  0  0  0  0  0  0
  146.3709  142.0702  159.7913 O   0  0  0  0  0  0  0  0  0  0  0  0
  146.6365  142.2110  157.3979 C   0  0  1  0  0  0  0  0  0  0  0  0
  145.6163  143.0511  156.6116 C   0  0  0  0  0  0  0  0  0  0  0  0
  147.9325  142.3367  156.7323 N   0  0  0  0  0  0  0  0  0  0  0  0
  148.8474  141.3604  156.6243 C   0  0  0  0  0  0  0  0  0  0  0  0
  148.6736  140.2235  157.0656 O   0  0  0  0  0  0  0  0  0  0  0  0
  150.1476  141.7378  155.9052 C   0  0  0  0  0  0  0  0  0  0  0  0
  151.1196  140.6572  155.9087 N   0  0  0  0  0  0  0  0  0  0  0  0
  151.8892  140.1842  156.8912 C   0  0  0  0  0  0  0  0  0  0  0  0
  152.6694  139.1773  156.5229 N   0  0  0  0  0  0  0  0  0  0  0  0
  152.3047  139.0750  155.2101 C   0  0  0  0  0  0  0  0  0  0  0  0
  151.3824  139.9412  154.7899 N   0  0  0  0  0  0  0  0  0  0  0  0
  147.6841  145.7209  160.0629 H   0  0  0  0  0  0  0  0  0  0  0  0
  148.0063  144.1883  160.8804 H   0  0  0  0  0  0  0  0  0  0  0  0
  146.3448  144.7897  160.7418 H   0  0  0  0  0  0  0  0  0  0  0  0
  147.4180  144.5263  158.1237 H   0  0  0  0  0  0  0  0  0  0  0  0
  146.3199  141.1660  157.4106 H   0  0  0  0  0  0  0  0  0  0  0  0
  144.6256  142.9999  157.0654 H   0  0  0  0  0  0  0  0  0  0  0  0
  145.5217  142.6875  155.5881 H   0  0  0  0  0  0  0  0  0  0  0  0
  145.9061  144.1021  156.5624 H   0  0  0  0  0  0  0  0  0  0  0  0
  148.1575  143.2420  156.3461 H   0  0  0  0  0  0  0  0  0  0  0  0
  149.9211  142.0199  154.8759 H   0  0  0  0  0  0  0  0  0  0  0  0
  150.6011  142.6058  156.3861 H   0  0  0  0  0  0  0  0  0  0  0  0
  151.8767  140.5828  157.8952 H   0  0  0  0  0  0  0  0  0  0  0  0
  152.7344  138.3422  154.5428 H   0  0  0  0  0  0  0  0  0  0  0  0
  1  2  1  0  0  0  0
  1 16  1  0  0  0  0
  1 17  1  0  0  0  0
  1 18  1  0  0  0  0
  2  3  1  0  0  0  0
  2 19  1  0  0  0  0
  3  4  2  0  0  0  0
  3  5  1  0  0  0  0
  5  6  1  0  0  0  0
  5  7  1  0  0  0  0
  5 20  1  0  0  0  0
  6 21  1  0  0  0  0
  6 22  1  0  0  0  0
  6 23  1  0  0  0  0
  7  8  1  0  0  0  0
  7 24  1  0  0  0  0
  8  9  2  0  0  0  0
  8 10  1  0  0  0  0
 10 11  1  0  0  0  0
 10 25  1  0  0  0  0
 10 26  1  0  0  0  0
 11 15  1  0  0  0  0
 11 12  1  0  0  0  0
 12 13  2  0  0  0  0
 12 27  1  0  0  0  0
 13 14  1  0  0  0  0
 14 15  2  0  0  0  0
 14 28  1  0  0  0  0
M  END
> <s_m_source_file>
AV-unprocessed.smi

> <i_m_source_file_index>
944

> <i_lp_mmshare_version>
43012

> <i_f3d_flags>
0

> <s_epik_input>
W0NIM11bTkhdQyg9TylbQ0BIXShbQ0gzXSlbTkhdQyg9TylbQ0gyXW4xW2NIXW5bY0hdbjE=

> <s_epik_cmdline>
J2VwaWtfcHl0aG9uJywgJy1waCcsICc3LjAnLCAnLXRuJywgJzgnLCAnLW1hJywgJzIwMCcsICctbWV0YWxfYmluZGluZycsICctaW1hZScsICc8aW5maWxlLm1hZT4nLCAnLW9tYWUnLCAnPG91dGZpbGUubWFlPic=

> <r_lp_tautomer_probability>
1

> <r_epik_Ionization_Penalty>
7.54354e-06

> <r_epik_Ionization_Penalty_Charging>
0

> <r_epik_Ionization_Penalty_Neutral>
7.54354e-06

> <r_epik_State_Penalty>
-0

> <r_epik_Charging_Adjusted_Penalty>
0

> <i_epik_Tot_Q>
0

> <i_epik_Tot_abs_Q>
0

> <r_epik_Metal_State_Penalty>
-0

> <b_epik_Metal_Only>
0

> <s_lp_Force_Field>
OPLS_2005

> <r_lp_Energy>
4.79019

> <b_lp_Chiralities_Consistent>
1

> <s_lp_Variant>
AV-unprocessed.smi:944-2

> <Gold.Version>
5.8.1

> <Gold.Id.Protein>
6NUR|6NUR_protein|mol2

> <Gold.PLP.Fitness>
36.7333

> <Gold.PLP.PLP>
-22.8256

> <Gold.PLP.part.hbond>
-5.0000

> <Gold.PLP.part.metal>
0.0000

> <Gold.PLP.part.buried>
-3.4902

> <Gold.PLP.part.nonpolar>
-14.9418

> <Gold.PLP.part.repulsive>
0.1558

> <Gold.PLP.ligand.clash>
0.0000

> <Gold.PLP.ligand.torsion>
0.5542

> <Gold.PLP.Chemscore.Hbond>
5.0000

> <Gold.PLP.Chemscore.CHOScore>
0.0000

> <Gold.PLP.Chemscore.Metal>
0.0000

> <Gold.Chemscore.Hbonds>
donor molecule, donor type, donor heavy atom, donor atom, acceptor molecule, acceptor atom, score
      L1  H     2    19       P1  8029  1.00
      L1  H     7    24       P1  8028  1.00
      P1  H  6934  6946       L1     4  1.00
      P1  H  7989  7998       L1    15  1.00
      P1  H  7997  8010       L1    13  0.95

> <Gold.PLP.Chemscore.Internal.Correction>
0.0160

> <Gold.Rescore>
     Score         DG    S(hbond)    S(metal)    S(lipo)     H(rot)  DE(clash)    DE(int)     intcor
     11.24     -12.09       3.53        0.00      15.75       2.74       0.31       0.54       ----

> <Gold.Chemscore.Fitness>
11.2416

> <Gold.Chemscore.DG>
-12.0928

> <Gold.Chemscore.ZeroCoef>
-5.4800

> <Gold.Chemscore.Hbond>
3.5304

> <Gold.Chemscore.Metal>
0.0000

> <Gold.Chemscore.Lipo>
15.7454

> <Gold.Chemscore.Internal_Hbond>
0.0000

> <Gold.Chemscore.DEClash>
0.3103

> <Gold.Chemscore.DEInternal>
0.5408

> <Gold.Chemscore.Rot>
2.7426

> <Gold.Chemscore.Internal.Correction>
   9.000000E+99

> <Gold.Chemscore.Hbonds>
donor molecule, donor type, donor heavy atom, donor atom, acceptor molecule, acceptor atom, score
      L1  H     2    19       P1  8029  0.64
      L1  H     7    24       P1  8028  0.40
      P1  H  6934  6946       L1     4  0.99
      P1  H  7989  7998       L1    15  0.83
      P1  H  7997  8010       L1    13  0.07

> <Gold.Chemscore.Hbond.Weighted>
-11.7915

> <Gold.Chemscore.Metal.Weighted>
-0.0000

> <Gold.Chemscore.Lipo.Weighted>
-1.8422

> <Gold.Chemscore.Internal_Hbond.Weighted>
0.0000

> <Gold.Chemscore.DEClash.Weighted>
0.3103

> <Gold.Chemscore.DEInternal.Weighted>
0.5408

> <Gold.Chemscore.Rot.Weighted>
7.0210

> <Gold.Chemscore.Internal.Correction.Weighted>
   9.000000E+99

> <Gold.Protein.RotatedTorsions>
[ 6907 6896 6895 6894 ] final   37.31 input  -60.11 | X-H torsion
[ 7974 7965 7964 7962 ] final   10.14 input  175.53 | X-H torsion
[ 8008 7997 7996 7995 ] final   74.44 input   59.86 | X-H torsion
[ 10167 10162 10161 10158 ] final  154.69 input  -65.29 | X-H torsion
[ 10718 10713 10712 10709 ] final  -90.67 input   66.30 | X-H torsion
[ 10763 10752 10751 10750 ] final  170.64 input  -60.55 | X-H torsion
[ 11005 11000 10999 10996 ] final  -11.54 input  -57.11 | X-H torsion

> <Gold.Protein.ActiveResidues>
 VAL166  LYS551  ARG553  GLY616  TRP617  ASP618  TYR619  PRO620  LYS621  CYS622 
 ASP623  PHE694  ASN695  SER759  ASP760  ASP761  ALA762  ILE779  LEU786  VAL792 
 PHE793  MET794  SER795  GLU796  ALA797  LYS798  CYS799  TRP800  GLU811  SER814 

> <Gold.Protein.RotatedAtoms>
  152.1414  134.9059  160.0553 H   0  0  0  0  0  0  0  0  0  0  0  0  # atno 6907 bound_to 6896
  152.0126  133.3862  159.4234 H   0  0  0  0  0  0  0  0  0  0  0  0  # atno 6908 bound_to 6896
  150.6865  134.3636  159.5005 H   0  0  0  0  0  0  0  0  0  0  0  0  # atno 6909 bound_to 6896
  146.2393  139.9678  142.8450 H   0  0  0  0  0  0  0  0  0  0  0  0  # atno 7974 bound_to 7965
  155.7983  140.3477  155.5388 H   0  0  0  0  0  0  0  0  0  0  0  0  # atno 8008 bound_to 7997
  155.8564  140.0964  157.1662 H   0  0  0  0  0  0  0  0  0  0  0  0  # atno 8009 bound_to 7997
  154.4010  140.1367  156.3894 H   0  0  0  0  0  0  0  0  0  0  0  0  # atno 8010 bound_to 7997
  139.4822  144.5165  151.7943 H   0  0  0  0  0  0  0  0  0  0  0  0  # atno 10167 bound_to 10162
  155.9989  130.4918  150.5357 H   0  0  0  0  0  0  0  0  0  0  0  0  # atno 10718 bound_to 10713
  154.4006  135.2755  155.2099 H   0  0  0  0  0  0  0  0  0  0  0  0  # atno 10763 bound_to 10752
  154.4127  135.6018  153.5966 H   0  0  0  0  0  0  0  0  0  0  0  0  # atno 10764 bound_to 10752
  152.9831  135.5953  154.4273 H   0  0  0  0  0  0  0  0  0  0  0  0  # atno 10765 bound_to 10752
  140.7564  133.8550  155.9087 H   0  0  0  0  0  0  0  0  0  0  0  0  # atno 11005 bound_to 11000
  145.1709  140.9720  143.4322 LP  0  0  0  0  0  0  0  0  0  0  0  0  # atno 17320 bound_to 7965
  145.0029  139.3581  143.6158 LP  0  0  0  0  0  0  0  0  0  0  0  0  # atno 17321 bound_to 7965
  140.4674  144.1636  150.5913 LP  0  0  0  0  0  0  0  0  0  0  0  0  # atno 17342 bound_to 10162
  140.4419  143.2523  151.9461 LP  0  0  0  0  0  0  0  0  0  0  0  0  # atno 17343 bound_to 10162
  157.3301  131.0698  151.1867 LP  0  0  0  0  0  0  0  0  0  0  0  0  # atno 17370 bound_to 10713
  157.2751  130.6723  149.6038 LP  0  0  0  0  0  0  0  0  0  0  0  0  # atno 17371 bound_to 10713
  140.9704  134.1539  157.4581 LP  0  0  0  0  0  0  0  0  0  0  0  0  # atno 17394 bound_to 11000
  139.8778  134.9976  156.5857 LP  0  0  0  0  0  0  0  0  0  0  0  0  # atno 17395 bound_to 11000

$$$$
