AV-unprocessed.smi:379|AV-procd|sdf|2458|dock1
  -GOLD-   2262022393D 1   1.00000     0.00000
 Structure written by MMmdl.
 39 40  0  0  0  0  0  0  0  0  1 V2000
  157.6818  141.3577  165.5311 C   0  0  0  0  0  0  0  0  0  0  0  0
  157.3693  142.4871  166.5240 C   0  0  0  0  0  0  0  0  0  0  0  0
  156.9336  143.8061  165.8552 C   0  0  2  0  0  0  0  0  0  0  0  0
  156.8353  144.9509  166.8727 C   0  0  0  0  0  0  0  0  0  0  0  0
  155.6410  143.6438  165.1917 N   0  0  0  0  0  0  0  0  0  0  0  0
  155.4318  143.0694  163.9969 C   0  0  0  0  0  0  0  0  0  0  0  0
  156.3361  142.6183  163.2925 O   0  0  0  0  0  0  0  0  0  0  0  0
  153.9667  143.0006  163.5410 C   0  0  0  0  0  0  0  0  0  0  0  0
  153.8140  142.8100  162.0819 N   0  0  0  0  0  0  0  0  0  0  0  0
  154.3839  141.6533  161.4908 C   0  0  0  0  0  0  0  0  0  0  0  0
  154.9961  140.8286  162.1722 O   0  0  0  0  0  0  0  0  0  0  0  0
  154.1892  141.5226  160.0488 C   0  0  0  0  0  0  0  0  0  0  0  0
  154.7132  140.3535  159.4242 C   0  0  0  0  0  0  0  0  0  0  0  0
  155.1614  139.4148  158.9165 N   0  0  0  0  0  0  0  0  0  0  0  0
  153.5342  142.4705  159.3475 C   0  0  0  0  0  0  0  0  0  0  0  0
  153.0330  143.6126  159.9332 N   0  0  0  0  0  0  0  0  0  0  0  0
  152.2039  144.5278  159.2006 C   0  0  0  0  0  0  0  0  0  0  0  0
  150.9609  144.0058  158.5135 C   0  0  0  0  0  0  0  0  0  0  0  0
  152.1398  144.4586  157.6873 C   0  0  0  0  0  0  0  0  0  0  0  0
  153.1254  143.7934  161.3306 C   0  0  0  0  0  0  0  0  0  0  0  0
  152.6179  144.7737  161.8809 O   0  0  0  0  0  0  0  0  0  0  0  0
  158.0346  140.4690  166.0547 H   0  0  0  0  0  0  0  0  0  0  0  0
  158.4578  141.6579  164.8266 H   0  0  0  0  0  0  0  0  0  0  0  0
  156.8007  141.0708  164.9567 H   0  0  0  0  0  0  0  0  0  0  0  0
  156.5978  142.1522  167.2183 H   0  0  0  0  0  0  0  0  0  0  0  0
  158.2587  142.6709  167.1275 H   0  0  0  0  0  0  0  0  0  0  0  0
  157.6978  144.0856  165.1280 H   0  0  0  0  0  0  0  0  0  0  0  0
  157.7908  145.1154  167.3716 H   0  0  0  0  0  0  0  0  0  0  0  0
  156.0908  144.7390  167.6410 H   0  0  0  0  0  0  0  0  0  0  0  0
  156.5552  145.8854  166.3854 H   0  0  0  0  0  0  0  0  0  0  0  0
  154.8337  143.9863  165.6920 H   0  0  0  0  0  0  0  0  0  0  0  0
  153.4656  142.1954  164.0814 H   0  0  0  0  0  0  0  0  0  0  0  0
  153.4611  143.9032  163.8864 H   0  0  0  0  0  0  0  0  0  0  0  0
  153.4025  142.3350  158.2836 H   0  0  0  0  0  0  0  0  0  0  0  0
  152.1213  145.5240  159.6318 H   0  0  0  0  0  0  0  0  0  0  0  0
  150.7627  142.9364  158.5522 H   0  0  0  0  0  0  0  0  0  0  0  0
  150.0791  144.6431  158.5239 H   0  0  0  0  0  0  0  0  0  0  0  0
  152.0456  145.3983  157.1469 H   0  0  0  0  0  0  0  0  0  0  0  0
  152.7173  143.6869  157.1817 H   0  0  0  0  0  0  0  0  0  0  0  0
  1  2  1  0  0  0  0
  1 22  1  0  0  0  0
  1 23  1  0  0  0  0
  1 24  1  0  0  0  0
  2  3  1  0  0  0  0
  2 25  1  0  0  0  0
  2 26  1  0  0  0  0
  3  4  1  0  0  0  0
  3  5  1  0  0  0  0
  3 27  1  0  0  0  0
  4 28  1  0  0  0  0
  4 29  1  0  0  0  0
  4 30  1  0  0  0  0
  5  6  1  0  0  0  0
  5 31  1  0  0  0  0
  6  7  2  0  0  0  0
  6  8  1  0  0  0  0
  8  9  1  0  0  0  0
  8 32  1  0  0  0  0
  8 33  1  0  0  0  0
  9 20  1  0  0  0  0
  9 10  1  0  0  0  0
 10 11  2  0  0  0  0
 10 12  1  0  0  0  0
 12 13  1  0  0  0  0
 12 15  2  0  0  0  0
 13 14  3  0  0  0  0
 15 16  1  0  0  0  0
 15 34  1  0  0  0  0
 16 17  1  0  0  0  0
 16 20  1  0  0  0  0
 17 19  1  0  0  0  0
 17 18  1  0  0  0  0
 17 35  1  0  0  0  0
 18 19  1  0  0  0  0
 18 36  1  0  0  0  0
 18 37  1  0  0  0  0
 19 38  1  0  0  0  0
 19 39  1  0  0  0  0
 20 21  2  0  0  0  0
M  END
> <s_m_source_file>
AV-unprocessed.smi

> <i_m_source_file_index>
379

> <i_lp_mmshare_version>
43012

> <i_f3d_flags>
0

> <s_epik_input>
W0NIM11bQ0gyXVtDQEhdKFtDSDNdKVtOSF1DKD1PKVtDSDJdbjFjKD1PKWMoQyNOKVtjSF1uKGMxPU8pW0NIXTJbQ0gyXVtDSDJdMg==

> <s_epik_cmdline>
J2VwaWtfcHl0aG9uJywgJy1waCcsICc3LjAnLCAnLXRuJywgJzgnLCAnLW1hJywgJzIwMCcsICctbWV0YWxfYmluZGluZycsICctaW1hZScsICc8aW5maWxlLm1hZT4nLCAnLW9tYWUnLCAnPG91dGZpbGUubWFlPic=

> <r_lp_tautomer_probability>
1

> <r_epik_Ionization_Penalty>
1.93863e-08

> <r_epik_Ionization_Penalty_Charging>
8.45512e-11

> <r_epik_Ionization_Penalty_Neutral>
1.93017e-08

> <r_epik_State_Penalty>
-0

> <r_epik_Charging_Adjusted_Penalty>
8.45512e-11

> <i_epik_Tot_Q>
0

> <i_epik_Tot_abs_Q>
0

> <r_epik_Metal_State_Penalty>
-0

> <b_epik_Metal_Only>
0

> <s_lp_Force_Field>
OPLS_2005

> <r_lp_Energy>
29.5524

> <b_lp_Chiralities_Consistent>
1

> <s_lp_Variant>
AV-unprocessed.smi:379-1

> <Gold.Version>
5.8.1

> <Gold.Id.Protein>
6NUR|6NUR_protein|mol2

> <Gold.PLP.Fitness>
47.2421

> <Gold.PLP.PLP>
-45.4778

> <Gold.PLP.part.hbond>
-0.7762

> <Gold.PLP.part.metal>
0.0000

> <Gold.PLP.part.buried>
-3.3506

> <Gold.PLP.part.nonpolar>
-41.8936

> <Gold.PLP.part.repulsive>
1.6543

> <Gold.PLP.ligand.clash>
0.0000

> <Gold.PLP.ligand.torsion>
0.7403

> <Gold.PLP.Chemscore.Hbond>
1.0000

> <Gold.PLP.Chemscore.CHOScore>
0.0000

> <Gold.PLP.Chemscore.Metal>
0.0000

> <Gold.Chemscore.Hbonds>
donor molecule, donor type, donor heavy atom, donor atom, acceptor molecule, acceptor atom, score
      P1  H  7997  8008       L1    14  1.00

> <Gold.PLP.Chemscore.Internal.Correction>
0.2449

> <Gold.Rescore>
     Score         DG    S(hbond)    S(metal)    S(lipo)     H(rot)  DE(clash)    DE(int)     intcor
      2.22     -11.52       0.22        0.00      88.75       1.98       3.42       5.89       ----

> <Gold.Chemscore.Fitness>
2.2164

> <Gold.Chemscore.DG>
-11.5208

> <Gold.Chemscore.ZeroCoef>
-5.4800

> <Gold.Chemscore.Hbond>
0.2154

> <Gold.Chemscore.Metal>
0.0000

> <Gold.Chemscore.Lipo>
88.7487

> <Gold.Chemscore.Internal_Hbond>
0.0000

> <Gold.Chemscore.DEClash>
3.4166

> <Gold.Chemscore.DEInternal>
5.8878

> <Gold.Chemscore.Rot>
1.9774

> <Gold.Chemscore.Internal.Correction>
   9.000000E+99

> <Gold.Chemscore.Hbonds>
donor molecule, donor type, donor heavy atom, donor atom, acceptor molecule, acceptor atom, score
      P1  H  7997  8008       L1    14  0.25

> <Gold.Chemscore.Hbond.Weighted>
-0.7195

> <Gold.Chemscore.Metal.Weighted>
-0.0000

> <Gold.Chemscore.Lipo.Weighted>
-10.3836

> <Gold.Chemscore.Internal_Hbond.Weighted>
0.0000

> <Gold.Chemscore.DEClash.Weighted>
3.4166

> <Gold.Chemscore.DEInternal.Weighted>
5.8878

> <Gold.Chemscore.Rot.Weighted>
5.0623

> <Gold.Chemscore.Internal.Correction.Weighted>
   9.000000E+99

> <Gold.Protein.RotatedTorsions>
[ 6907 6896 6895 6894 ] final  169.14 input  -60.11 | X-H torsion
[ 7974 7965 7964 7962 ] final   64.28 input  175.53 | X-H torsion
[ 8008 7997 7996 7995 ] final -142.84 input   59.86 | X-H torsion
[ 10167 10162 10161 10158 ] final  144.84 input  -65.29 | X-H torsion
[ 10718 10713 10712 10709 ] final -120.51 input   66.30 | X-H torsion
[ 10763 10752 10751 10750 ] final  111.74 input  -60.55 | X-H torsion
[ 11005 11000 10999 10996 ] final   71.62 input  -57.11 | X-H torsion

> <Gold.Protein.ActiveResidues>
 VAL166  LYS551  ARG553  GLY616  TRP617  ASP618  TYR619  PRO620  LYS621  CYS622 
 ASP623  PHE694  ASN695  SER759  ASP760  ASP761  ALA762  ILE779  LEU786  VAL792 
 PHE793  MET794  SER795  GLU796  ALA797  LYS798  CYS799  TRP800  GLU811  SER814 

> <Gold.Protein.RotatedAtoms>
  151.8365  133.3417  159.3629 H   0  0  0  0  0  0  0  0  0  0  0  0  # atno 6907 bound_to 6896
  150.7248  134.5432  159.5767 H   0  0  0  0  0  0  0  0  0  0  0  0  # atno 6908 bound_to 6896
  152.2897  134.7737  160.0431 H   0  0  0  0  0  0  0  0  0  0  0  0  # atno 6909 bound_to 6896
  145.8521  139.3260  143.0869 H   0  0  0  0  0  0  0  0  0  0  0  0  # atno 7974 bound_to 7965
  155.5009  140.0575  157.2939 H   0  0  0  0  0  0  0  0  0  0  0  0  # atno 8008 bound_to 7997
  154.4587  140.1986  156.0254 H   0  0  0  0  0  0  0  0  0  0  0  0  # atno 8009 bound_to 7997
  156.0850  140.3241  155.7746 H   0  0  0  0  0  0  0  0  0  0  0  0  # atno 8010 bound_to 7997
  139.4938  144.5944  151.6614 H   0  0  0  0  0  0  0  0  0  0  0  0  # atno 10167 bound_to 10162
  156.1263  130.6362  150.9548 H   0  0  0  0  0  0  0  0  0  0  0  0  # atno 10718 bound_to 10713
  153.4677  135.3708  155.2373 H   0  0  0  0  0  0  0  0  0  0  0  0  # atno 10763 bound_to 10752
  154.8757  135.3924  154.3849 H   0  0  0  0  0  0  0  0  0  0  0  0  # atno 10764 bound_to 10752
  153.4433  135.7084  153.6220 H   0  0  0  0  0  0  0  0  0  0  0  0  # atno 10765 bound_to 10752
  139.9533  134.7188  156.0810 H   0  0  0  0  0  0  0  0  0  0  0  0  # atno 11005 bound_to 11000
  145.9346  140.9024  143.0339 LP  0  0  0  0  0  0  0  0  0  0  0  0  # atno 17320 bound_to 7965
  144.6729  140.1464  143.7433 LP  0  0  0  0  0  0  0  0  0  0  0  0  # atno 17321 bound_to 7965
  140.5578  144.0319  150.6155 LP  0  0  0  0  0  0  0  0  0  0  0  0  # atno 17342 bound_to 10162
  140.3395  143.3028  152.0603 LP  0  0  0  0  0  0  0  0  0  0  0  0  # atno 17343 bound_to 10162
  157.6445  131.0906  150.8183 LP  0  0  0  0  0  0  0  0  0  0  0  0  # atno 17370 bound_to 10713
  156.8273  130.5004  149.5336 LP  0  0  0  0  0  0  0  0  0  0  0  0  # atno 17371 bound_to 10713
  141.1200  133.6615  156.3192 LP  0  0  0  0  0  0  0  0  0  0  0  0  # atno 17394 bound_to 11000
  140.5667  134.5881  157.5447 LP  0  0  0  0  0  0  0  0  0  0  0  0  # atno 17395 bound_to 11000

$$$$
