AV-unprocessed.smi:227|AV-procd|sdf|1732|dock3
  -GOLD-   2262020223D 1   1.00000     0.00000
 Structure written by MMmdl.
 54 58  0  0  0  0  0  0  0  0  1 V2000
  149.3124  135.7235  158.4940 O   0  0  0  0  0  0  0  0  0  0  0  0
  149.8206  136.7316  157.6446 C   0  0  0  0  0  0  0  0  0  0  0  0
  149.4182  136.4855  156.1698 C   0  0  1  0  0  0  0  0  0  0  0  0
  147.9024  136.6886  155.9247 C   0  0  0  0  0  0  0  0  0  0  0  0
  147.3884  135.8748  154.8368 N   0  0  0  0  0  0  0  0  0  0  0  0
  147.4960  134.5090  154.7165 C   0  0  0  0  0  0  0  0  0  0  0  0
  146.9444  134.0006  153.6492 N   0  0  0  0  0  0  0  0  0  0  0  0
  146.4258  135.0999  152.9740 C   0  0  0  0  0  0  0  0  0  0  0  0
  145.7083  135.2735  151.7556 C   0  0  0  0  0  0  0  0  0  0  0  0
  145.3721  134.2459  150.9338 N   0  0  0  0  0  0  0  0  0  0  0  0
  145.5608  132.8544  151.3056 C   0  0  2  0  0  0  0  0  0  0  0  0
  145.3284  132.1395  149.9610 C   0  0  0  0  0  0  0  0  0  0  0  0
  144.2648  133.0463  149.3108 C   0  0  0  0  0  0  0  0  0  0  0  0
  144.0168  134.0720  150.4325 C   0  0  1  0  0  0  0  0  0  0  0  0
  143.2445  133.3502  151.5692 C   0  0  2  0  0  0  0  0  0  0  0  0
  142.3619  134.2237  152.4879 C   0  0  0  0  0  0  0  0  0  0  0  0
  141.1250  133.6355  152.8260 O   0  0  0  0  0  0  0  0  0  0  0  0
  144.3792  132.5646  152.2554 C   0  0  0  0  0  0  0  0  0  0  0  0
  145.3253  136.5369  151.4311 N   0  0  0  0  0  0  0  0  0  0  0  0
  145.6499  137.5655  152.2189 C   0  0  0  0  0  0  0  0  0  0  0  0
  146.3299  137.5550  153.3662 N   0  0  0  0  0  0  0  0  0  0  0  0
  146.6959  136.2879  153.7118 C   0  0  0  0  0  0  0  0  0  0  0  0
  150.2749  137.3164  155.1811 C   0  0  2  0  0  0  0  0  0  0  0  0
  151.7502  137.4047  155.5312 C   0  0  0  0  0  0  0  0  0  0  0  0
  152.2031  138.6036  154.7062 C   0  0  0  0  0  0  0  0  0  0  0  0
  151.0855  139.4829  154.6642 O   0  0  0  0  0  0  0  0  0  0  0  0
  149.9167  138.8052  155.1157 C   0  0  0  0  0  0  0  0  0  0  0  0
  148.6155  136.0918  159.0152 H   0  0  0  0  0  0  0  0  0  0  0  0
  149.4533  137.6969  157.9920 H   0  0  0  0  0  0  0  0  0  0  0  0
  150.9043  136.7690  157.7547 H   0  0  0  0  0  0  0  0  0  0  0  0
  149.6297  135.4343  155.9687 H   0  0  0  0  0  0  0  0  0  0  0  0
  147.3371  136.4625  156.8295 H   0  0  0  0  0  0  0  0  0  0  0  0
  147.6886  137.7295  155.6824 H   0  0  0  0  0  0  0  0  0  0  0  0
  147.9944  133.8975  155.4545 H   0  0  0  0  0  0  0  0  0  0  0  0
  146.5341  132.6242  151.7406 H   0  0  0  0  0  0  0  0  0  0  0  0
  146.2387  132.1268  149.3604 H   0  0  0  0  0  0  0  0  0  0  0  0
  144.9892  131.1108  150.0882 H   0  0  0  0  0  0  0  0  0  0  0  0
  144.6721  133.5367  148.4255 H   0  0  0  0  0  0  0  0  0  0  0  0
  143.3666  132.5062  149.0092 H   0  0  0  0  0  0  0  0  0  0  0  0
  143.5211  134.9709  150.0698 H   0  0  0  0  0  0  0  0  0  0  0  0
  142.5567  132.6347  151.1160 H   0  0  0  0  0  0  0  0  0  0  0  0
  142.8986  134.4543  153.4086 H   0  0  0  0  0  0  0  0  0  0  0  0
  142.1559  135.1759  151.9985 H   0  0  0  0  0  0  0  0  0  0  0  0
  141.2738  132.9810  153.4913 H   0  0  0  0  0  0  0  0  0  0  0  0
  144.1615  131.4998  152.3453 H   0  0  0  0  0  0  0  0  0  0  0  0
  144.5868  132.9453  153.2558 H   0  0  0  0  0  0  0  0  0  0  0  0
  145.3169  138.5357  151.8814 H   0  0  0  0  0  0  0  0  0  0  0  0
  150.1878  136.8947  154.1782 H   0  0  0  0  0  0  0  0  0  0  0  0
  151.8801  137.6119  156.5945 H   0  0  0  0  0  0  0  0  0  0  0  0
  152.3078  136.5001  155.2878 H   0  0  0  0  0  0  0  0  0  0  0  0
  153.0825  139.0924  155.1258 H   0  0  0  0  0  0  0  0  0  0  0  0
  152.4404  138.2951  153.6874 H   0  0  0  0  0  0  0  0  0  0  0  0
  149.0721  139.0010  154.4548 H   0  0  0  0  0  0  0  0  0  0  0  0
  149.6653  139.1873  156.1060 H   0  0  0  0  0  0  0  0  0  0  0  0
  1  2  1  0  0  0  0
  1 28  1  0  0  0  0
  2  3  1  0  0  0  0
  2 29  1  0  0  0  0
  2 30  1  0  0  0  0
  3  4  1  0  0  0  0
  3 23  1  0  0  0  0
  3 31  1  0  0  0  0
  4  5  1  0  0  0  0
  4 32  1  0  0  0  0
  4 33  1  0  0  0  0
  5 22  1  0  0  0  0
  5  6  1  0  0  0  0
  6  7  2  0  0  0  0
  6 34  1  0  0  0  0
  7  8  1  0  0  0  0
  8 22  2  0  0  0  0
  8  9  1  0  0  0  0
  9 10  1  0  0  0  0
  9 19  2  0  0  0  0
 10 14  1  0  0  0  0
 10 11  1  0  0  0  0
 11 18  1  0  0  0  0
 11 12  1  0  0  0  0
 11 35  1  0  0  0  0
 12 13  1  0  0  0  0
 12 36  1  0  0  0  0
 12 37  1  0  0  0  0
 13 14  1  0  0  0  0
 13 38  1  0  0  0  0
 13 39  1  0  0  0  0
 14 15  1  0  0  0  0
 14 40  1  0  0  0  0
 15 16  1  0  0  0  0
 15 18  1  0  0  0  0
 15 41  1  0  0  0  0
 16 17  1  0  0  0  0
 16 42  1  0  0  0  0
 16 43  1  0  0  0  0
 17 44  1  0  0  0  0
 18 45  1  0  0  0  0
 18 46  1  0  0  0  0
 19 20  1  0  0  0  0
 20 21  2  0  0  0  0
 20 47  1  0  0  0  0
 21 22  1  0  0  0  0
 23 27  1  0  0  0  0
 23 24  1  0  0  0  0
 23 48  1  0  0  0  0
 24 25  1  0  0  0  0
 24 49  1  0  0  0  0
 24 50  1  0  0  0  0
 25 26  1  0  0  0  0
 25 51  1  0  0  0  0
 25 52  1  0  0  0  0
 26 27  1  0  0  0  0
 27 53  1  0  0  0  0
 27 54  1  0  0  0  0
M  END
> <s_m_source_file>
AV-unprocessed.smi

> <i_m_source_file_index>
227

> <i_lp_mmshare_version>
43012

> <i_f3d_flags>
0

> <s_epik_input>
W0NIMl0xT1tDSDJdW0NIMl1bQ0BIXTFbQ0BIXShbQ0gyXVtPSF0pW0NIMl1uKFtjSF1uMiljKGMyMyluW2NIXW5jM04oW0NASF00NSlbQ0BASF0oW0NIMl1bQ0gyXTQpW0NASF0oW0NIMl01KVtDSDJdW09IXQ==

> <s_epik_cmdline>
J2VwaWtfcHl0aG9uJywgJy1waCcsICc3LjAnLCAnLXRuJywgJzgnLCAnLW1hJywgJzIwMCcsICctbWV0YWxfYmluZGluZycsICctaW1hZScsICc8aW5maWxlLm1hZT4nLCAnLW9tYWUnLCAnPG91dGZpbGUubWFlPic=

> <r_lp_tautomer_probability>
1

> <r_epik_Ionization_Penalty>
0.0055791

> <r_epik_Ionization_Penalty_Charging>
0

> <r_epik_Ionization_Penalty_Neutral>
0.0055791

> <r_epik_State_Penalty>
0.00401299

> <r_epik_Charging_Adjusted_Penalty>
0.00401299

> <i_epik_Tot_Q>
0

> <i_epik_Tot_abs_Q>
0

> <r_epik_Metal_State_Penalty>
-0

> <b_epik_Metal_Only>
0

> <s_lp_Force_Field>
OPLS_2005

> <r_lp_Energy>
91.5057

> <b_lp_Chiralities_Consistent>
1

> <s_lp_Variant>
AV-unprocessed.smi:227-6

> <Gold.Version>
5.8.1

> <Gold.Id.Protein>
6NUR|6NUR_protein|mol2

> <Gold.PLP.Fitness>
40.5227

> <Gold.PLP.PLP>
-28.8816

> <Gold.PLP.part.hbond>
-3.5064

> <Gold.PLP.part.metal>
0.0000

> <Gold.PLP.part.buried>
1.3297

> <Gold.PLP.part.nonpolar>
-29.4970

> <Gold.PLP.part.repulsive>
1.5587

> <Gold.PLP.ligand.clash>
0.0000

> <Gold.PLP.ligand.torsion>
1.3548

> <Gold.PLP.Chemscore.Hbond>
3.0000

> <Gold.PLP.Chemscore.CHOScore>
1.7170

> <Gold.PLP.Chemscore.Metal>
0.0000

> <Gold.Chemscore.Hbonds>
donor molecule, donor type, donor heavy atom, donor atom, acceptor molecule, acceptor atom, score
      L1  H    17    44       P1 10957  0.55
      P1  H  6896  6908       L1     1  0.83
      P1  H  7989  7998       L1    26  1.00
      L1  C    20    47       P1 10171  0.75
      L1  C    20    47       P1 10175  0.87

> <Gold.PLP.Chemscore.Internal.Correction>
0.1997

> <Gold.Rescore>
     Score         DG    S(hbond)    S(metal)    S(lipo)     H(rot)  DE(clash)    DE(int)     intcor
     10.51     -14.48       2.57        0.00      82.61       3.61       1.02       2.96       ----

> <Gold.Chemscore.Fitness>
10.5054

> <Gold.Chemscore.DG>
-14.4832

> <Gold.Chemscore.ZeroCoef>
-5.4800

> <Gold.Chemscore.Hbond>
2.5664

> <Gold.Chemscore.Metal>
0.0000

> <Gold.Chemscore.Lipo>
82.6137

> <Gold.Chemscore.Internal_Hbond>
0.0000

> <Gold.Chemscore.DEClash>
1.0175

> <Gold.Chemscore.DEInternal>
2.9603

> <Gold.Chemscore.Rot>
3.6071

> <Gold.Chemscore.Internal.Correction>
   9.000000E+99

> <Gold.Chemscore.Hbonds>
donor molecule, donor type, donor heavy atom, donor atom, acceptor molecule, acceptor atom, score
      L1  H    17    44       P1 10957  0.29
      P1  H  6896  6908       L1     1  0.73
      P1  H  7989  7998       L1    26  0.45

> <Gold.Chemscore.Hbond.Weighted>
-8.5716

> <Gold.Chemscore.Metal.Weighted>
-0.0000

> <Gold.Chemscore.Lipo.Weighted>
-9.6658

> <Gold.Chemscore.Internal_Hbond.Weighted>
0.0000

> <Gold.Chemscore.DEClash.Weighted>
1.0175

> <Gold.Chemscore.DEInternal.Weighted>
2.9603

> <Gold.Chemscore.Rot.Weighted>
9.2342

> <Gold.Chemscore.Internal.Correction.Weighted>
   9.000000E+99

> <Gold.Protein.RotatedTorsions>
[ 6907 6896 6895 6894 ] final  158.82 input  -60.11 | X-H torsion
[ 7974 7965 7964 7962 ] final  -45.47 input  175.53 | X-H torsion
[ 8008 7997 7996 7995 ] final  -65.99 input   59.86 | X-H torsion
[ 10167 10162 10161 10158 ] final  -13.44 input  -65.29 | X-H torsion
[ 10718 10713 10712 10709 ] final   15.51 input   66.30 | X-H torsion
[ 10763 10752 10751 10750 ] final    9.57 input  -60.55 | X-H torsion
[ 11005 11000 10999 10996 ] final -159.27 input  -57.11 | X-H torsion

> <Gold.Protein.ActiveResidues>
 VAL166  LYS551  ARG553  GLY616  TRP617  ASP618  TYR619  PRO620  LYS621  CYS622 
 ASP623  PHE694  ASN695  SER759  ASP760  ASP761  ALA762  ILE779  LEU786  VAL792 
 PHE793  MET794  SER795  GLU796  ALA797  LYS798  CYS799  TRP800  GLU811  SER814 

> <Gold.Protein.RotatedAtoms>
  151.9948  133.3804  159.4158 H   0  0  0  0  0  0  0  0  0  0  0  0  # atno 6907 bound_to 6896
  150.6917  134.3898  159.5080 H   0  0  0  0  0  0  0  0  0  0  0  0  # atno 6908 bound_to 6896
  152.1636  134.8891  160.0590 H   0  0  0  0  0  0  0  0  0  0  0  0  # atno 6909 bound_to 6896
  145.9817  140.7276  142.9360 H   0  0  0  0  0  0  0  0  0  0  0  0  # atno 7974 bound_to 7965
  154.4706  140.0922  156.7134 H   0  0  0  0  0  0  0  0  0  0  0  0  # atno 8008 bound_to 7997
  155.4735  140.3465  155.4311 H   0  0  0  0  0  0  0  0  0  0  0  0  # atno 8009 bound_to 7997
  156.1032  140.1428  156.9427 H   0  0  0  0  0  0  0  0  0  0  0  0  # atno 8010 bound_to 7997
  140.7182  143.5426  150.9391 H   0  0  0  0  0  0  0  0  0  0  0  0  # atno 10167 bound_to 10162
  157.0546  130.6284  149.5774 H   0  0  0  0  0  0  0  0  0  0  0  0  # atno 10718 bound_to 10713
  153.2126  135.6871  153.8096 H   0  0  0  0  0  0  0  0  0  0  0  0  # atno 10763 bound_to 10752
  153.7323  135.3251  155.3289 H   0  0  0  0  0  0  0  0  0  0  0  0  # atno 10764 bound_to 10752
  154.8230  135.4638  154.0940 H   0  0  0  0  0  0  0  0  0  0  0  0  # atno 10765 bound_to 10752
  140.6444  134.4517  157.5234 H   0  0  0  0  0  0  0  0  0  0  0  0  # atno 11005 bound_to 11000
  144.6863  140.2920  143.7276 LP  0  0  0  0  0  0  0  0  0  0  0  0  # atno 17320 bound_to 7965
  145.7759  139.1874  143.2185 LP  0  0  0  0  0  0  0  0  0  0  0  0  # atno 17321 bound_to 7965
  139.9149  143.6675  152.3108 LP  0  0  0  0  0  0  0  0  0  0  0  0  # atno 17342 bound_to 10162
  139.7071  144.7626  151.1174 LP  0  0  0  0  0  0  0  0  0  0  0  0  # atno 17343 bound_to 10162
  155.9997  130.5073  150.7616 LP  0  0  0  0  0  0  0  0  0  0  0  0  # atno 17370 bound_to 10713
  157.5003  131.0918  151.0322 LP  0  0  0  0  0  0  0  0  0  0  0  0  # atno 17371 bound_to 10713
  139.9068  134.8431  156.1675 LP  0  0  0  0  0  0  0  0  0  0  0  0  # atno 17394 bound_to 11000
  141.0583  133.6854  156.1903 LP  0  0  0  0  0  0  0  0  0  0  0  0  # atno 17395 bound_to 11000

$$$$
