AV-unprocessed.smi:224|AV-procd|sdf|1716|dock2
  -GOLD-   2262020193D 1   1.00000     0.00000
 Structure written by MMmdl.
 56 59  0  0  0  0  0  0  0  0  2 V2000
  152.2971  144.3945  159.5201 C   0  0  0  0  0  0  0  0  0  0  0  0
  151.0747  144.1535  158.6248 C   0  0  1  0  0  0  0  0  0  0  0  0
  150.5839  145.4143  158.2155 O   0  0  0  0  0  0  0  0  0  0  0  0
  151.4340  143.3144  157.3821 C   0  0  0  0  0  0  0  0  0  0  0  0
  150.2694  142.5739  156.8295 N   0  3  2  0  0  0  0  0  0  0  0  0
  149.3048  142.1122  157.8644 C   0  0  0  0  0  0  0  0  0  0  0  0
  148.0582  141.4841  157.2153 C   0  0  0  0  0  0  0  0  0  0  0  0
  148.4269  140.4359  156.2656 N   0  0  0  0  0  0  0  0  0  0  0  0
  148.5114  139.1466  156.6924 C   0  0  0  0  0  0  0  0  0  0  0  0
  147.8125  138.7559  157.7921 N   0  0  0  0  0  0  0  0  0  0  0  0
  147.9016  137.5020  158.2435 C   0  0  0  0  0  0  0  0  0  0  0  0
  148.6151  136.4887  157.7518 N   0  0  0  0  0  0  0  0  0  0  0  0
  149.3032  136.8636  156.6363 C   0  0  0  0  0  0  0  0  0  0  0  0
  149.3093  138.1592  156.0446 C   0  0  0  0  0  0  0  0  0  0  0  0
  150.1213  138.1549  154.9159 N   0  0  0  0  0  0  0  0  0  0  0  0
  150.5763  136.9337  154.8514 C   0  0  0  0  0  0  0  0  0  0  0  0
  150.1307  136.0892  155.8425 N   0  0  0  0  0  0  0  0  0  0  0  0
  150.4711  134.6848  156.0100 C   0  0  0  0  0  0  0  0  0  0  0  0
  149.2909  133.7269  155.7245 C   0  0  1  0  0  0  0  0  0  0  0  0
  148.1999  134.0717  156.5606 O   0  0  0  0  0  0  0  0  0  0  0  0
  148.8122  133.7423  154.2750 C   0  0  0  0  0  0  0  0  0  0  0  0
  148.3535  132.3080  154.0528 C   0  0  0  0  0  0  0  0  0  0  0  0
  149.3348  131.5615  154.7510 O   0  0  0  0  0  0  0  0  0  0  0  0
  149.6389  132.2438  155.9631 C   0  0  0  0  0  0  0  0  0  0  0  0
  149.3770  140.8638  155.2398 C   0  0  0  0  0  0  0  0  0  0  0  0
  150.6415  141.5036  155.8564 C   0  0  2  0  0  0  0  0  0  0  0  0
  151.6035  140.4484  156.4448 C   0  0  0  0  0  0  0  0  0  0  0  0
  152.7079  143.4521  159.8834 H   0  0  0  0  0  0  0  0  0  0  0  0
  152.0347  144.9956  160.3916 H   0  0  0  0  0  0  0  0  0  0  0  0
  153.0891  144.9165  158.9819 H   0  0  0  0  0  0  0  0  0  0  0  0
  150.3071  143.6621  159.2214 H   0  0  0  0  0  0  0  0  0  0  0  0
  149.7245  145.3041  157.8390 H   0  0  0  0  0  0  0  0  0  0  0  0
  151.8433  143.9827  156.6228 H   0  0  0  0  0  0  0  0  0  0  0  0
  152.2262  142.6032  157.6211 H   0  0  0  0  0  0  0  0  0  0  0  0
  149.7903  141.3963  158.5284 H   0  0  0  0  0  0  0  0  0  0  0  0
  148.9905  142.9458  158.4906 H   0  0  0  0  0  0  0  0  0  0  0  0
  147.3725  141.1081  157.9758 H   0  0  0  0  0  0  0  0  0  0  0  0
  147.5068  142.2513  156.6703 H   0  0  0  0  0  0  0  0  0  0  0  0
  147.3190  137.2780  159.1249 H   0  0  0  0  0  0  0  0  0  0  0  0
  151.2499  136.6123  154.0705 H   0  0  0  0  0  0  0  0  0  0  0  0
  151.3054  134.4584  155.3445 H   0  0  0  0  0  0  0  0  0  0  0  0
  150.8425  134.5368  157.0248 H   0  0  0  0  0  0  0  0  0  0  0  0
  148.0271  133.3474  157.1426 H   0  0  0  0  0  0  0  0  0  0  0  0
  148.0345  134.4806  154.0742 H   0  0  0  0  0  0  0  0  0  0  0  0
  149.6468  133.9481  153.6039 H   0  0  0  0  0  0  0  0  0  0  0  0
  147.3718  132.1350  154.4961 H   0  0  0  0  0  0  0  0  0  0  0  0
  148.3124  132.0351  152.9982 H   0  0  0  0  0  0  0  0  0  0  0  0
  150.6925  132.0960  156.2024 H   0  0  0  0  0  0  0  0  0  0  0  0
  149.0571  131.8119  156.7792 H   0  0  0  0  0  0  0  0  0  0  0  0
  149.6644  140.0520  154.5738 H   0  0  0  0  0  0  0  0  0  0  0  0
  148.8712  141.5975  154.6113 H   0  0  0  0  0  0  0  0  0  0  0  0
  151.1737  141.9904  155.0380 H   0  0  0  0  0  0  0  0  0  0  0  0
  151.8242  139.6757  155.7079 H   0  0  0  0  0  0  0  0  0  0  0  0
  151.1888  139.9512  157.3205 H   0  0  0  0  0  0  0  0  0  0  0  0
  152.5566  140.8880  156.7378 H   0  0  0  0  0  0  0  0  0  0  0  0
  149.7652  143.2512  156.2758 H   0  0  0  0  0  0  0  0  0  0  0  0
  1  2  1  0  0  0  0
  1 28  1  0  0  0  0
  1 29  1  0  0  0  0
  1 30  1  0  0  0  0
  2  3  1  0  0  0  0
  2  4  1  0  0  0  0
  2 31  1  0  0  0  0
  3 32  1  0  0  0  0
  4  5  1  0  0  0  0
  4 33  1  0  0  0  0
  4 34  1  0  0  0  0
  5 26  1  0  0  0  0
  5  6  1  0  0  0  0
  5 56  1  0  0  0  0
  6  7  1  0  0  0  0
  6 35  1  0  0  0  0
  6 36  1  0  0  0  0
  7  8  1  0  0  0  0
  7 37  1  0  0  0  0
  7 38  1  0  0  0  0
  8  9  1  0  0  0  0
  8 25  1  0  0  0  0
  9 14  1  0  0  0  0
  9 10  2  0  0  0  0
 10 11  1  0  0  0  0
 11 12  2  0  0  0  0
 11 39  1  0  0  0  0
 12 13  1  0  0  0  0
 13 17  1  0  0  0  0
 13 14  2  0  0  0  0
 14 15  1  0  0  0  0
 15 16  2  0  0  0  0
 16 17  1  0  0  0  0
 16 40  1  0  0  0  0
 17 18  1  0  0  0  0
 18 19  1  0  0  0  0
 18 41  1  0  0  0  0
 18 42  1  0  0  0  0
 19 24  1  0  0  0  0
 19 20  1  0  0  0  0
 19 21  1  0  0  0  0
 20 43  1  0  0  0  0
 21 22  1  0  0  0  0
 21 44  1  0  0  0  0
 21 45  1  0  0  0  0
 22 23  1  0  0  0  0
 22 46  1  0  0  0  0
 22 47  1  0  0  0  0
 23 24  1  0  0  0  0
 24 48  1  0  0  0  0
 24 49  1  0  0  0  0
 25 26  1  0  0  0  0
 25 50  1  0  0  0  0
 25 51  1  0  0  0  0
 26 27  1  0  0  0  0
 26 52  1  0  0  0  0
 27 53  1  0  0  0  0
 27 54  1  0  0  0  0
 27 55  1  0  0  0  0
M  CHG  1   5   1
M  END
> <s_m_source_file>
AV-unprocessed.smi

> <i_m_source_file_index>
224

> <i_lp_mmshare_version>
43012

> <i_f3d_flags>
0

> <s_epik_input>
W0NIM11bQ0BIXShbT0hdKVtDSDJdTjFbQ0gyXVtDSDJdTihbQ0gyXVtDQEhdMVtDSDNdKWMobltjSF1uMiljKGMyMyluW2NIXW4zW0NIMl1bQ0BAXTQoW09IXSlbQ0gyXVtDSDJdT1tDSDJdNA==

> <s_epik_cmdline>
J2VwaWtfcHl0aG9uJywgJy1waCcsICc3LjAnLCAnLXRuJywgJzgnLCAnLW1hJywgJzIwMCcsICctbWV0YWxfYmluZGluZycsICctaW1hZScsICc8aW5maWxlLm1hZT4nLCAnLW9tYWUnLCAnPG91dGZpbGUubWFlPic=

> <r_lp_tautomer_probability>
1

> <r_epik_Ionization_Penalty>
0.00516958

> <r_epik_Ionization_Penalty_Charging>
0.00509693

> <r_epik_Ionization_Penalty_Neutral>
7.26542e-05

> <r_epik_State_Penalty>
-0

> <r_epik_Charging_Adjusted_Penalty>
0.00509693

> <i_epik_Tot_Q>
1

> <i_epik_Tot_abs_Q>
1

> <r_epik_Metal_State_Penalty>
-0

> <b_epik_Metal_Only>
0

> <s_lp_Force_Field>
OPLS_2005

> <r_lp_Energy>
50.5155

> <b_lp_Chiralities_Consistent>
1

> <s_lp_Variant>
AV-unprocessed.smi:224-10

> <Gold.Version>
5.8.1

> <Gold.Id.Protein>
6NUR|6NUR_protein|mol2

> <Gold.PLP.Fitness>
49.6488

> <Gold.PLP.PLP>
-38.8401

> <Gold.PLP.part.hbond>
-2.9057

> <Gold.PLP.part.metal>
0.0000

> <Gold.PLP.part.buried>
-5.8238

> <Gold.PLP.part.nonpolar>
-31.4969

> <Gold.PLP.part.repulsive>
0.2191

> <Gold.PLP.ligand.clash>
0.0000

> <Gold.PLP.ligand.torsion>
0.7389

> <Gold.PLP.Chemscore.Hbond>
2.9920

> <Gold.PLP.Chemscore.CHOScore>
0.9729

> <Gold.PLP.Chemscore.Metal>
0.0000

> <Gold.Chemscore.Hbonds>
donor molecule, donor type, donor heavy atom, donor atom, acceptor molecule, acceptor atom, score
      L1  H     3    32       P1  8029  0.70
      L1  H     5    56       P1  8028  2.00
      L1  C    16    40       P1  7949  0.69

> <Gold.PLP.Chemscore.Internal.Correction>
0.3918

> <Gold.Rescore>
     Score         DG    S(hbond)    S(metal)    S(lipo)     H(rot)  DE(clash)    DE(int)     intcor
     10.22     -13.23       1.88        0.00      78.79       3.02       0.03       2.98       ----

> <Gold.Chemscore.Fitness>
10.2154

> <Gold.Chemscore.DG>
-13.2301

> <Gold.Chemscore.ZeroCoef>
-5.4800

> <Gold.Chemscore.Hbond>
1.8775

> <Gold.Chemscore.Metal>
0.0000

> <Gold.Chemscore.Lipo>
78.7894

> <Gold.Chemscore.Internal_Hbond>
0.0000

> <Gold.Chemscore.DEClash>
0.0322

> <Gold.Chemscore.DEInternal>
2.9824

> <Gold.Chemscore.Rot>
3.0231

> <Gold.Chemscore.Internal.Correction>
   9.000000E+99

> <Gold.Chemscore.Hbonds>
donor molecule, donor type, donor heavy atom, donor atom, acceptor molecule, acceptor atom, score
      L1  H     3    32       P1  8029  0.07
      L1  H     5    56       P1  8028  1.00

> <Gold.Chemscore.Hbond.Weighted>
-6.2708

> <Gold.Chemscore.Metal.Weighted>
-0.0000

> <Gold.Chemscore.Lipo.Weighted>
-9.2184

> <Gold.Chemscore.Internal_Hbond.Weighted>
0.0000

> <Gold.Chemscore.DEClash.Weighted>
0.0322

> <Gold.Chemscore.DEInternal.Weighted>
2.9824

> <Gold.Chemscore.Rot.Weighted>
7.7391

> <Gold.Chemscore.Internal.Correction.Weighted>
   9.000000E+99

> <Gold.Protein.RotatedTorsions>
[ 6907 6896 6895 6894 ] final -133.47 input  -60.11 | X-H torsion
[ 7974 7965 7964 7962 ] final  174.25 input  175.53 | X-H torsion
[ 8008 7997 7996 7995 ] final  -28.69 input   59.86 | X-H torsion
[ 10167 10162 10161 10158 ] final -133.50 input  -65.29 | X-H torsion
[ 10718 10713 10712 10709 ] final  109.56 input   66.30 | X-H torsion
[ 10763 10752 10751 10750 ] final   64.16 input  -60.55 | X-H torsion
[ 11005 11000 10999 10996 ] final  106.25 input  -57.11 | X-H torsion

> <Gold.Protein.ActiveResidues>
 VAL166  LYS551  ARG553  GLY616  TRP617  ASP618  TYR619  PRO620  LYS621  CYS622 
 ASP623  PHE694  ASN695  SER759  ASP760  ASP761  ALA762  ILE779  LEU786  VAL792 
 PHE793  MET794  SER795  GLU796  ALA797  LYS798  CYS799  TRP800  GLU811  SER814 

> <Gold.Protein.RotatedAtoms>
  150.9744  133.6310  159.2732 H   0  0  0  0  0  0  0  0  0  0  0  0  # atno 6907 bound_to 6896
  151.3587  135.0898  159.9437 H   0  0  0  0  0  0  0  0  0  0  0  0  # atno 6908 bound_to 6896
  152.5194  133.9322  159.7640 H   0  0  0  0  0  0  0  0  0  0  0  0  # atno 6909 bound_to 6896
  144.7225  139.9769  143.6438 H   0  0  0  0  0  0  0  0  0  0  0  0  # atno 7974 bound_to 7965
  154.4321  140.1838  156.1129 H   0  0  0  0  0  0  0  0  0  0  0  0  # atno 8008 bound_to 7997
  156.0203  140.3341  155.7007 H   0  0  0  0  0  0  0  0  0  0  0  0  # atno 8009 bound_to 7997
  155.5985  140.0638  157.2730 H   0  0  0  0  0  0  0  0  0  0  0  0  # atno 8010 bound_to 7997
  139.8977  143.6646  152.2601 H   0  0  0  0  0  0  0  0  0  0  0  0  # atno 10167 bound_to 10162
  157.6536  131.0916  150.6471 H   0  0  0  0  0  0  0  0  0  0  0  0  # atno 10718 bound_to 10713
  153.0045  135.5403  154.6465 H   0  0  0  0  0  0  0  0  0  0  0  0  # atno 10763 bound_to 10752
  154.5708  135.2841  155.0831 H   0  0  0  0  0  0  0  0  0  0  0  0  # atno 10764 bound_to 10752
  154.1998  135.6486  153.5136 H   0  0  0  0  0  0  0  0  0  0  0  0  # atno 10765 bound_to 10752
  139.8812  134.9363  156.5639 H   0  0  0  0  0  0  0  0  0  0  0  0  # atno 11005 bound_to 11000
  146.0519  139.3519  143.0634 LP  0  0  0  0  0  0  0  0  0  0  0  0  # atno 17320 bound_to 7965
  145.8204  140.9682  143.0902 LP  0  0  0  0  0  0  0  0  0  0  0  0  # atno 17321 bound_to 7965
  139.7053  144.7629  151.1203 LP  0  0  0  0  0  0  0  0  0  0  0  0  # atno 17342 bound_to 10162
  140.7713  143.5403  150.9321 LP  0  0  0  0  0  0  0  0  0  0  0  0  # atno 17343 bound_to 10162
  156.6780  130.4559  149.5636 LP  0  0  0  0  0  0  0  0  0  0  0  0  # atno 17370 bound_to 10713
  156.1950  130.6583  151.1103 LP  0  0  0  0  0  0  0  0  0  0  0  0  # atno 17371 bound_to 10713
  140.8149  133.8400  155.8843 LP  0  0  0  0  0  0  0  0  0  0  0  0  # atno 17394 bound_to 11000
  140.9472  134.1825  157.4754 LP  0  0  0  0  0  0  0  0  0  0  0  0  # atno 17395 bound_to 11000

$$$$
