AV-unprocessed.smi:3010|AV-procd|sdf|11456|dock5
  -GOLD-   2272016393D 1   1.00000     0.00000
 Structure written by MMmdl.
 38 40  0  0  0  0  0  0  0  0  1 V2000
  150.2374  144.7110  159.4186 C   0  0  0  0  0  0  0  0  0  0  0  0
  150.9803  143.4370  159.4576 N   0  0  0  0  0  0  0  0  0  0  0  0
  150.6090  142.4435  158.5899 C   0  0  0  0  0  0  0  0  0  0  0  0
  149.6852  142.5268  157.7798 O   0  0  0  0  0  0  0  0  0  0  0  0
  151.4219  141.2273  158.6976 C   0  0  0  0  0  0  0  0  0  0  0  0
  152.4344  141.0952  159.5884 C   0  0  0  0  0  0  0  0  0  0  0  0
  153.0377  139.8464  159.4898 N   0  0  0  0  0  0  0  0  0  0  0  0
  152.3331  139.2747  158.5125 C   0  0  0  0  0  0  0  0  0  0  0  0
  151.3489  140.0306  157.9848 N   0  0  0  0  0  0  0  0  0  0  0  0
  150.4444  139.6331  156.9157 C   0  0  0  0  0  0  0  0  0  0  0  0
  150.6664  140.4340  155.6168 C   0  0  1  0  0  0  0  0  0  0  0  0
  151.7835  139.9319  154.9082 O   0  0  0  0  0  0  0  0  0  0  0  0
  149.4067  140.4555  154.7651 C   0  0  0  0  0  0  0  0  0  0  0  0
  148.8826  139.2593  154.2261 C   0  0  0  0  0  0  0  0  0  0  0  0
  147.7103  139.2859  153.4459 C   0  0  0  0  0  0  0  0  0  0  0  0
  147.0535  140.5073  153.2027 C   0  0  0  0  0  0  0  0  0  0  0  0
  147.5687  141.7019  153.7413 C   0  0  0  0  0  0  0  0  0  0  0  0
  148.7415  141.6761  154.5211 C   0  0  0  0  0  0  0  0  0  0  0  0
  152.7276  142.1801  160.4512 N   0  0  0  0  0  0  0  0  0  0  0  0
  153.8227  141.9964  161.4083 C   0  0  0  0  0  0  0  0  0  0  0  0
  152.0063  143.3476  160.3834 C   0  0  0  0  0  0  0  0  0  0  0  0
  152.2681  144.2938  161.1314 O   0  0  0  0  0  0  0  0  0  0  0  0
  149.4465  144.7599  158.6693 H   0  0  0  0  0  0  0  0  0  0  0  0
  150.9146  145.5396  159.2049 H   0  0  0  0  0  0  0  0  0  0  0  0
  149.7644  144.9046  160.3827 H   0  0  0  0  0  0  0  0  0  0  0  0
  152.5380  138.2712  158.1692 H   0  0  0  0  0  0  0  0  0  0  0  0
  150.5397  138.5630  156.7378 H   0  0  0  0  0  0  0  0  0  0  0  0
  149.4228  139.7840  157.2668 H   0  0  0  0  0  0  0  0  0  0  0  0
  150.9132  141.4628  155.8835 H   0  0  0  0  0  0  0  0  0  0  0  0
  152.1535  139.2162  155.4020 H   0  0  0  0  0  0  0  0  0  0  0  0
  149.3764  138.3164  154.4115 H   0  0  0  0  0  0  0  0  0  0  0  0
  147.3143  138.3685  153.0354 H   0  0  0  0  0  0  0  0  0  0  0  0
  146.1540  140.5277  152.6050 H   0  0  0  0  0  0  0  0  0  0  0  0
  147.0636  142.6388  153.5576 H   0  0  0  0  0  0  0  0  0  0  0  0
  149.1266  142.5977  154.9326 H   0  0  0  0  0  0  0  0  0  0  0  0
  154.0322  142.8689  162.0276 H   0  0  0  0  0  0  0  0  0  0  0  0
  154.7433  141.7496  160.8785 H   0  0  0  0  0  0  0  0  0  0  0  0
  153.5922  141.1692  162.0803 H   0  0  0  0  0  0  0  0  0  0  0  0
  1  2  1  0  0  0  0
  1 23  1  0  0  0  0
  1 24  1  0  0  0  0
  1 25  1  0  0  0  0
  2 21  1  0  0  0  0
  2  3  1  0  0  0  0
  3  4  2  0  0  0  0
  3  5  1  0  0  0  0
  5  9  1  0  0  0  0
  5  6  2  0  0  0  0
  6  7  1  0  0  0  0
  6 19  1  0  0  0  0
  7  8  2  0  0  0  0
  8  9  1  0  0  0  0
  8 26  1  0  0  0  0
  9 10  1  0  0  0  0
 10 11  1  0  0  0  0
 10 27  1  0  0  0  0
 10 28  1  0  0  0  0
 11 12  1  0  0  0  0
 11 13  1  0  0  0  0
 11 29  1  0  0  0  0
 12 30  1  0  0  0  0
 13 18  1  0  0  0  0
 13 14  2  0  0  0  0
 14 15  1  0  0  0  0
 14 31  1  0  0  0  0
 15 16  2  0  0  0  0
 15 32  1  0  0  0  0
 16 17  1  0  0  0  0
 16 33  1  0  0  0  0
 17 18  2  0  0  0  0
 17 34  1  0  0  0  0
 18 35  1  0  0  0  0
 19 20  1  0  0  0  0
 19 21  1  0  0  0  0
 20 36  1  0  0  0  0
 20 37  1  0  0  0  0
 20 38  1  0  0  0  0
 21 22  2  0  0  0  0
M  END
> <s_m_source_file>
AV-unprocessed.smi

> <i_m_source_file_index>
3010

> <i_lp_mmshare_version>
43012

> <i_f3d_flags>
0

> <s_epik_input>
Tz1jMW4oW0NIM10pYyg9TyluKFtDSDNdKWMoYzEyKW5bY0hdbjJbQ0gyXVtDQEhdKFtPSF0pYzNbY0hdW2NIXVtjSF1bY0hdW2NIXTM=

> <s_epik_cmdline>
J2VwaWtfcHl0aG9uJywgJy1waCcsICc3LjAnLCAnLXRuJywgJzgnLCAnLW1hJywgJzIwMCcsICctbWV0YWxfYmluZGluZycsICctaW1hZScsICc8aW5maWxlLm1hZT4nLCAnLW9tYWUnLCAnPG91dGZpbGUubWFlPic=

> <r_lp_tautomer_probability>
1

> <r_epik_Ionization_Penalty>
1.43747e-06

> <r_epik_Ionization_Penalty_Charging>
3.74189e-09

> <r_epik_Ionization_Penalty_Neutral>
1.43373e-06

> <r_epik_State_Penalty>
-0

> <r_epik_Charging_Adjusted_Penalty>
3.74189e-09

> <i_epik_Tot_Q>
0

> <i_epik_Tot_abs_Q>
0

> <r_epik_Metal_State_Penalty>
-0

> <b_epik_Metal_Only>
0

> <s_lp_Force_Field>
OPLS_2005

> <r_lp_Energy>
36.4427

> <b_lp_Chiralities_Consistent>
1

> <s_lp_Variant>
AV-unprocessed.smi:3010-2

> <Gold.Version>
5.8.1

> <Gold.Id.Protein>
6NUR|6NUR_protein|mol2

> <Gold.PLP.Fitness>
45.9571

> <Gold.PLP.PLP>
-43.5314

> <Gold.PLP.part.hbond>
-1.0000

> <Gold.PLP.part.metal>
0.0000

> <Gold.PLP.part.buried>
-3.8099

> <Gold.PLP.part.nonpolar>
-38.3852

> <Gold.PLP.part.repulsive>
0.2950

> <Gold.PLP.ligand.clash>
0.0000

> <Gold.PLP.ligand.torsion>
0.2921

> <Gold.PLP.Chemscore.Hbond>
0.9920

> <Gold.PLP.Chemscore.CHOScore>
0.0000

> <Gold.PLP.Chemscore.Metal>
0.0000

> <Gold.Chemscore.Hbonds>
donor molecule, donor type, donor heavy atom, donor atom, acceptor molecule, acceptor atom, score
      P1  H  7989  7998       L1    12  0.99

> <Gold.PLP.Chemscore.Internal.Correction>
0.0339

> <Gold.Rescore>
     Score         DG    S(hbond)    S(metal)    S(lipo)     H(rot)  DE(clash)    DE(int)     intcor
     11.09     -11.44       0.82        0.00      74.42       2.15       0.08       0.27       ----

> <Gold.Chemscore.Fitness>
11.0912

> <Gold.Chemscore.DG>
-11.4428

> <Gold.Chemscore.ZeroCoef>
-5.4800

> <Gold.Chemscore.Hbond>
0.8243

> <Gold.Chemscore.Metal>
0.0000

> <Gold.Chemscore.Lipo>
74.4181

> <Gold.Chemscore.Internal_Hbond>
0.0000

> <Gold.Chemscore.DEClash>
0.0811

> <Gold.Chemscore.DEInternal>
0.2705

> <Gold.Chemscore.Rot>
2.1474

> <Gold.Chemscore.Internal.Correction>
   9.000000E+99

> <Gold.Chemscore.Hbonds>
donor molecule, donor type, donor heavy atom, donor atom, acceptor molecule, acceptor atom, score
      P1  H  7989  7998       L1    12  0.24

> <Gold.Chemscore.Hbond.Weighted>
-2.7532

> <Gold.Chemscore.Metal.Weighted>
-0.0000

> <Gold.Chemscore.Lipo.Weighted>
-8.7069

> <Gold.Chemscore.Internal_Hbond.Weighted>
0.0000

> <Gold.Chemscore.DEClash.Weighted>
0.0811

> <Gold.Chemscore.DEInternal.Weighted>
0.2705

> <Gold.Chemscore.Rot.Weighted>
5.4974

> <Gold.Chemscore.Internal.Correction.Weighted>
   9.000000E+99

> <Gold.Protein.RotatedTorsions>
[ 6907 6896 6895 6894 ] final -100.37 input  -60.11 | X-H torsion
[ 7974 7965 7964 7962 ] final  -91.12 input  175.53 | X-H torsion
[ 8008 7997 7996 7995 ] final  -90.70 input   59.86 | X-H torsion
[ 10167 10162 10161 10158 ] final  124.86 input  -65.29 | X-H torsion
[ 10718 10713 10712 10709 ] final -122.30 input   66.30 | X-H torsion
[ 10763 10752 10751 10750 ] final   95.70 input  -60.55 | X-H torsion
[ 11005 11000 10999 10996 ] final  113.93 input  -57.11 | X-H torsion

> <Gold.Protein.ActiveResidues>
 VAL166  LYS551  ARG553  GLY616  TRP617  ASP618  TYR619  PRO620  LYS621  CYS622 
 ASP623  PHE694  ASN695  SER759  ASP760  ASP761  ALA762  ILE779  LEU786  VAL792 
 PHE793  MET794  SER795  GLU796  ALA797  LYS798  CYS799  TRP800  GLU811  SER814 

> <Gold.Protein.RotatedAtoms>
  150.7113  134.0897  159.3927 H   0  0  0  0  0  0  0  0  0  0  0  0  # atno 6907 bound_to 6896
  151.8882  135.0424  160.0504 H   0  0  0  0  0  0  0  0  0  0  0  0  # atno 6908 bound_to 6896
  152.2513  133.5182  159.5363 H   0  0  0  0  0  0  0  0  0  0  0  0  # atno 6909 bound_to 6896
  145.4173  140.9549  143.2200 H   0  0  0  0  0  0  0  0  0  0  0  0  # atno 7974 bound_to 7965
  154.7018  140.0527  157.0465 H   0  0  0  0  0  0  0  0  0  0  0  0  # atno 8008 bound_to 7997
  155.0674  140.3196  155.4622 H   0  0  0  0  0  0  0  0  0  0  0  0  # atno 8009 bound_to 7997
  156.2762  140.2088  156.5802 H   0  0  0  0  0  0  0  0  0  0  0  0  # atno 8010 bound_to 7997
  139.5718  144.6943  151.3759 H   0  0  0  0  0  0  0  0  0  0  0  0  # atno 10167 bound_to 10162
  156.1407  130.6464  150.9766 H   0  0  0  0  0  0  0  0  0  0  0  0  # atno 10718 bound_to 10713
  153.2563  135.4244  155.0849 H   0  0  0  0  0  0  0  0  0  0  0  0  # atno 10763 bound_to 10752
  154.8402  135.3438  154.6441 H   0  0  0  0  0  0  0  0  0  0  0  0  # atno 10764 bound_to 10752
  153.6862  135.7036  153.5160 H   0  0  0  0  0  0  0  0  0  0  0  0  # atno 10765 bound_to 10752
  139.8966  134.9559  156.6814 H   0  0  0  0  0  0  0  0  0  0  0  0  # atno 11005 bound_to 11000
  144.8268  139.5695  143.6962 LP  0  0  0  0  0  0  0  0  0  0  0  0  # atno 17320 bound_to 7965
  146.2674  139.6553  142.9320 LP  0  0  0  0  0  0  0  0  0  0  0  0  # atno 17321 bound_to 7965
  140.7002  143.7650  150.7391 LP  0  0  0  0  0  0  0  0  0  0  0  0  # atno 17342 bound_to 10162
  140.1159  143.4657  152.2342 LP  0  0  0  0  0  0  0  0  0  0  0  0  # atno 17343 bound_to 10162
  157.6573  131.0887  150.7918 LP  0  0  0  0  0  0  0  0  0  0  0  0  # atno 17370 bound_to 10713
  156.7994  130.4916  149.5372 LP  0  0  0  0  0  0  0  0  0  0  0  0  # atno 17371 bound_to 10713
  140.7296  133.9070  155.8202 LP  0  0  0  0  0  0  0  0  0  0  0  0  # atno 17394 bound_to 11000
  141.0164  134.0950  157.4168 LP  0  0  0  0  0  0  0  0  0  0  0  0  # atno 17395 bound_to 11000

$$$$
