AV-unprocessed.smi:1102|AV-procd|sdf|4770|dock5
  -GOLD-   22720 3313D 1   1.00000     0.00000
 Structure written by MMmdl.
 39 40  0  0  0  0  0  0  0  0  1 V2000
  154.3814  141.0252  161.3206 C   0  0  0  0  0  0  0  0  0  0  0  0
  153.3620  142.0666  161.3582 N   0  0  0  0  0  0  0  0  0  0  0  0
  153.1380  142.8196  162.5880 C   0  0  0  0  0  0  0  0  0  0  0  0
  152.5338  142.2917  160.2347 C   0  0  0  0  0  0  0  0  0  0  0  0
  152.1558  143.6006  159.8448 C   0  0  0  0  0  0  0  0  0  0  0  0
  151.3305  143.7746  158.7172 C   0  0  0  0  0  0  0  0  0  0  0  0
  150.9050  142.6359  157.9958 C   0  0  0  0  0  0  0  0  0  0  0  0
  150.0581  142.6776  156.8554 N   0  0  0  0  0  0  0  0  0  0  0  0
  149.3005  141.6953  156.3381 C   0  0  0  0  0  0  0  0  0  0  0  0
  149.1912  140.5598  156.8006 O   0  0  0  0  0  0  0  0  0  0  0  0
  148.6487  142.1125  155.2439 N   0  0  0  0  0  0  0  0  0  0  0  0
  147.7448  141.2934  154.4443 C   0  0  0  0  0  0  0  0  0  0  0  0
  146.3241  141.8812  154.4157 C   0  0  1  0  0  0  0  0  0  0  0  0
  145.7238  142.1176  155.8002 C   0  0  0  0  0  0  0  0  0  0  0  0
  144.7218  143.2391  155.5700 C   0  0  0  0  0  0  0  0  0  0  0  0
  145.0791  143.7834  154.1837 C   0  0  0  0  0  0  0  0  0  0  0  0
  146.3280  143.1879  153.8631 O   0  0  0  0  0  0  0  0  0  0  0  0
  151.3181  141.3750  158.4673 C   0  0  0  0  0  0  0  0  0  0  0  0
  152.1094  141.2038  159.5464 N   0  0  0  0  0  0  0  0  0  0  0  0
  155.1279  141.2471  160.5576 H   0  0  0  0  0  0  0  0  0  0  0  0
  153.9326  140.0561  161.1004 H   0  0  0  0  0  0  0  0  0  0  0  0
  154.8987  140.9413  162.2764 H   0  0  0  0  0  0  0  0  0  0  0  0
  153.2120  143.8914  162.4011 H   0  0  0  0  0  0  0  0  0  0  0  0
  153.8736  142.5646  163.3507 H   0  0  0  0  0  0  0  0  0  0  0  0
  152.1482  142.6056  162.9922 H   0  0  0  0  0  0  0  0  0  0  0  0
  152.4768  144.4752  160.3899 H   0  0  0  0  0  0  0  0  0  0  0  0
  151.0321  144.7736  158.4412 H   0  0  0  0  0  0  0  0  0  0  0  0
  149.9800  143.5793  156.4083 H   0  0  0  0  0  0  0  0  0  0  0  0
  148.7956  143.0618  154.9333 H   0  0  0  0  0  0  0  0  0  0  0  0
  148.1343  141.1976  153.4295 H   0  0  0  0  0  0  0  0  0  0  0  0
  147.7277  140.2882  154.8658 H   0  0  0  0  0  0  0  0  0  0  0  0
  145.6539  141.2480  153.8307 H   0  0  0  0  0  0  0  0  0  0  0  0
  145.2682  141.2192  156.2175 H   0  0  0  0  0  0  0  0  0  0  0  0
  146.4945  142.4562  156.4941 H   0  0  0  0  0  0  0  0  0  0  0  0
  143.6954  142.8713  155.5870 H   0  0  0  0  0  0  0  0  0  0  0  0
  144.8163  144.0058  156.3396 H   0  0  0  0  0  0  0  0  0  0  0  0
  144.3360  143.4741  153.4472 H   0  0  0  0  0  0  0  0  0  0  0  0
  145.1452  144.8714  154.1639 H   0  0  0  0  0  0  0  0  0  0  0  0
  151.0091  140.4717  157.9615 H   0  0  0  0  0  0  0  0  0  0  0  0
  1  2  1  0  0  0  0
  1 20  1  0  0  0  0
  1 21  1  0  0  0  0
  1 22  1  0  0  0  0
  2  3  1  0  0  0  0
  2  4  1  0  0  0  0
  3 23  1  0  0  0  0
  3 24  1  0  0  0  0
  3 25  1  0  0  0  0
  4 19  1  0  0  0  0
  4  5  2  0  0  0  0
  5  6  1  0  0  0  0
  5 26  1  0  0  0  0
  6  7  2  0  0  0  0
  6 27  1  0  0  0  0
  7  8  1  0  0  0  0
  7 18  1  0  0  0  0
  8  9  1  0  0  0  0
  8 28  1  0  0  0  0
  9 10  2  0  0  0  0
  9 11  1  0  0  0  0
 11 12  1  0  0  0  0
 11 29  1  0  0  0  0
 12 13  1  0  0  0  0
 12 30  1  0  0  0  0
 12 31  1  0  0  0  0
 13 17  1  0  0  0  0
 13 14  1  0  0  0  0
 13 32  1  0  0  0  0
 14 15  1  0  0  0  0
 14 33  1  0  0  0  0
 14 34  1  0  0  0  0
 15 16  1  0  0  0  0
 15 35  1  0  0  0  0
 15 36  1  0  0  0  0
 16 17  1  0  0  0  0
 16 37  1  0  0  0  0
 16 38  1  0  0  0  0
 18 19  2  0  0  0  0
 18 39  1  0  0  0  0
M  END
> <s_m_source_file>
AV-unprocessed.smi

> <i_m_source_file_index>
1102

> <i_lp_mmshare_version>
43012

> <i_f3d_flags>
0

> <s_epik_input>
W0NIM11OKFtDSDNdKWMxW2NIXVtjSF1jKFtjSF1uMSlbTkhdQyg9TylbTkhdW0NIMl1bQ0BASF0yW0NIMl1bQ0gyXVtDSDJdTzI=

> <s_epik_cmdline>
J2VwaWtfcHl0aG9uJywgJy1waCcsICc3LjAnLCAnLXRuJywgJzgnLCAnLW1hJywgJzIwMCcsICctbWV0YWxfYmluZGluZycsICctaW1hZScsICc8aW5maWxlLm1hZT4nLCAnLW9tYWUnLCAnPG91dGZpbGUubWFlPic=

> <r_lp_tautomer_probability>
1

> <r_epik_Ionization_Penalty>
0.605145

> <r_epik_Ionization_Penalty_Charging>
0

> <r_epik_Ionization_Penalty_Neutral>
0.605145

> <r_epik_State_Penalty>
0.618734

> <r_epik_Charging_Adjusted_Penalty>
0.618734

> <i_epik_Tot_Q>
0

> <i_epik_Tot_abs_Q>
0

> <r_epik_Metal_State_Penalty>
0.302184

> <b_epik_Metal_Only>
0

> <s_lp_Force_Field>
OPLS_2005

> <r_lp_Energy>
20.895

> <b_lp_Chiralities_Consistent>
1

> <s_lp_Variant>
AV-unprocessed.smi:1102-4

> <Gold.Version>
5.8.1

> <Gold.Id.Protein>
6NUR|6NUR_protein|mol2

> <Gold.PLP.Fitness>
45.5624

> <Gold.PLP.PLP>
-42.2361

> <Gold.PLP.part.hbond>
-2.5912

> <Gold.PLP.part.metal>
0.0000

> <Gold.PLP.part.buried>
-5.9159

> <Gold.PLP.part.nonpolar>
-35.1756

> <Gold.PLP.part.repulsive>
0.4447

> <Gold.PLP.ligand.clash>
0.0000

> <Gold.PLP.ligand.torsion>
0.7326

> <Gold.PLP.Chemscore.Hbond>
1.5840

> <Gold.PLP.Chemscore.CHOScore>
0.0000

> <Gold.PLP.Chemscore.Metal>
0.0000

> <Gold.Chemscore.Hbonds>
donor molecule, donor type, donor heavy atom, donor atom, acceptor molecule, acceptor atom, score
      L1  H     8    28       P1  8028  0.91
      L1  H    11    29       P1  8028  0.78

> <Gold.PLP.Chemscore.Internal.Correction>
0.0395

> <Gold.Rescore>
     Score         DG    S(hbond)    S(metal)    S(lipo)     H(rot)  DE(clash)    DE(int)     intcor
     15.87     -17.86       1.83        0.00      80.04       1.21       0.00       1.99       ----

> <Gold.Chemscore.Fitness>
15.8745

> <Gold.Chemscore.DG>
-17.8624

> <Gold.Chemscore.ZeroCoef>
-5.4800

> <Gold.Chemscore.Hbond>
1.8343

> <Gold.Chemscore.Metal>
0.0000

> <Gold.Chemscore.Lipo>
80.0446

> <Gold.Chemscore.Internal_Hbond>
0.0000

> <Gold.Chemscore.DEClash>
0.0009

> <Gold.Chemscore.DEInternal>
1.9870

> <Gold.Chemscore.Rot>
1.2146

> <Gold.Chemscore.Internal.Correction>
   9.000000E+99

> <Gold.Chemscore.Hbonds>
donor molecule, donor type, donor heavy atom, donor atom, acceptor molecule, acceptor atom, score
      L1  H     8    28       P1  8028  0.90
      L1  H    11    29       P1  8028  0.78

> <Gold.Chemscore.Hbond.Weighted>
-6.1265

> <Gold.Chemscore.Metal.Weighted>
-0.0000

> <Gold.Chemscore.Lipo.Weighted>
-9.3652

> <Gold.Chemscore.Internal_Hbond.Weighted>
0.0000

> <Gold.Chemscore.DEClash.Weighted>
0.0009

> <Gold.Chemscore.DEInternal.Weighted>
1.9870

> <Gold.Chemscore.Rot.Weighted>
3.1093

> <Gold.Chemscore.Internal.Correction.Weighted>
   9.000000E+99

> <Gold.Protein.RotatedTorsions>
[ 6907 6896 6895 6894 ] final  102.76 input  -60.11 | X-H torsion
[ 7974 7965 7964 7962 ] final   34.74 input  175.53 | X-H torsion
[ 8008 7997 7996 7995 ] final  120.71 input   59.86 | X-H torsion
[ 10167 10162 10161 10158 ] final   77.16 input  -65.29 | X-H torsion
[ 10718 10713 10712 10709 ] final  -48.52 input   66.30 | X-H torsion
[ 10763 10752 10751 10750 ] final   39.16 input  -60.55 | X-H torsion
[ 11005 11000 10999 10996 ] final   -1.61 input  -57.11 | X-H torsion

> <Gold.Protein.ActiveResidues>
 VAL166  LYS551  ARG553  GLY616  TRP617  ASP618  TYR619  PRO620  LYS621  CYS622 
 ASP623  PHE694  ASN695  SER759  ASP760  ASP761  ALA762  ILE779  LEU786  VAL792 
 PHE793  MET794  SER795  GLU796  ALA797  LYS798  CYS799  TRP800  GLU811  SER814 

> <Gold.Protein.RotatedAtoms>
  152.5315  133.9928  159.7858 H   0  0  0  0  0  0  0  0  0  0  0  0  # atno 6907 bound_to 6896
  151.0161  133.5912  159.2684 H   0  0  0  0  0  0  0  0  0  0  0  0  # atno 6908 bound_to 6896
  151.2969  135.0764  159.9278 H   0  0  0  0  0  0  0  0  0  0  0  0  # atno 6909 bound_to 6896
  146.1332  139.6230  142.9213 H   0  0  0  0  0  0  0  0  0  0  0  0  # atno 7974 bound_to 7965
  156.2654  140.2825  156.1192 H   0  0  0  0  0  0  0  0  0  0  0  0  # atno 8008 bound_to 7997
  155.1174  140.0391  157.2758 H   0  0  0  0  0  0  0  0  0  0  0  0  # atno 8009 bound_to 7997
  154.6696  140.2585  155.7027 H   0  0  0  0  0  0  0  0  0  0  0  0  # atno 8010 bound_to 7997
  139.9845  144.5802  150.7871 H   0  0  0  0  0  0  0  0  0  0  0  0  # atno 10167 bound_to 10162
  156.1980  130.4155  149.9280 H   0  0  0  0  0  0  0  0  0  0  0  0  # atno 10718 bound_to 10713
  152.9976  135.6229  154.2420 H   0  0  0  0  0  0  0  0  0  0  0  0  # atno 10763 bound_to 10752
  154.2160  135.2798  155.2943 H   0  0  0  0  0  0  0  0  0  0  0  0  # atno 10764 bound_to 10752
  154.5568  135.5717  153.7029 H   0  0  0  0  0  0  0  0  0  0  0  0  # atno 10765 bound_to 10752
  140.6492  133.9420  155.8370 H   0  0  0  0  0  0  0  0  0  0  0  0  # atno 11005 bound_to 11000
  145.5215  141.0431  143.2432 LP  0  0  0  0  0  0  0  0  0  0  0  0  # atno 17320 bound_to 7965
  144.7712  139.6732  143.7194 LP  0  0  0  0  0  0  0  0  0  0  0  0  # atno 17321 bound_to 7965
  140.7477  143.2910  151.3330 LP  0  0  0  0  0  0  0  0  0  0  0  0  # atno 17342 bound_to 10162
  139.6385  144.0584  152.2535 LP  0  0  0  0  0  0  0  0  0  0  0  0  # atno 17343 bound_to 10162
  156.6999  130.8929  151.3598 LP  0  0  0  0  0  0  0  0  0  0  0  0  # atno 17370 bound_to 10713
  157.6969  130.9291  150.0670 LP  0  0  0  0  0  0  0  0  0  0  0  0  # atno 17371 bound_to 10713
  141.0549  134.0430  157.3735 LP  0  0  0  0  0  0  0  0  0  0  0  0  # atno 17394 bound_to 11000
  139.9052  135.0177  156.7453 LP  0  0  0  0  0  0  0  0  0  0  0  0  # atno 17395 bound_to 11000

$$$$
