AV-unprocessed.smi:2757|AV-procd|sdf|10621|dock9
  -GOLD-   2272015 63D 1   1.00000     0.00000
 Structure written by MMmdl.
 32 33  0  0  0  0  0  0  0  0  2 V2000
  154.6787  136.8698  162.1419 C   0  0  0  0  0  0  0  0  0  0  0  0
  153.9481  137.7938  161.2884 N   0  0  0  0  0  0  0  0  0  0  0  0
  153.4107  137.4648  160.1044 C   0  0  0  0  0  0  0  0  0  0  0  0
  153.4832  136.3390  159.6106 O   0  0  0  0  0  0  0  0  0  0  0  0
  152.6813  138.5750  159.4065 C   0  0  0  0  0  0  0  0  0  0  0  0
  151.8815  138.3126  158.2557 C   0  0  0  0  0  0  0  0  0  0  0  0
  151.3857  139.5374  157.9128 C   0  0  0  0  0  0  0  0  0  0  0  0
  151.8779  140.4518  158.8204 N   0  0  0  0  0  0  0  0  0  0  0  0
  151.6363  141.8859  158.8720 C   0  0  1  0  0  0  0  0  0  0  0  0
  152.9453  142.6779  159.0679 C   0  0  0  0  0  0  0  0  0  0  0  0
  152.6561  144.1863  159.0990 C   0  0  0  0  0  0  0  0  0  0  0  0
  151.8852  144.6242  157.8420 C   0  0  0  0  0  0  0  0  0  0  0  0
  150.6425  143.8364  157.6875 N   0  3  0  0  0  0  0  0  0  0  0  0
  150.8874  142.3789  157.6154 C   0  0  0  0  0  0  0  0  0  0  0  0
  152.6792  139.8607  159.7348 N   0  0  0  0  0  0  0  0  0  0  0  0
  155.0408  137.3898  163.0289 H   0  0  0  0  0  0  0  0  0  0  0  0
  155.5383  136.4509  161.6171 H   0  0  0  0  0  0  0  0  0  0  0  0
  154.0349  136.0511  162.4656 H   0  0  0  0  0  0  0  0  0  0  0  0
  153.8346  138.7416  161.6175 H   0  0  0  0  0  0  0  0  0  0  0  0
  151.6969  137.3710  157.7594 H   0  0  0  0  0  0  0  0  0  0  0  0
  150.7292  139.8293  157.1062 H   0  0  0  0  0  0  0  0  0  0  0  0
  150.9990  142.0706  159.7386 H   0  0  0  0  0  0  0  0  0  0  0  0
  153.4370  142.3733  159.9923 H   0  0  0  0  0  0  0  0  0  0  0  0
  153.6436  142.4629  158.2579 H   0  0  0  0  0  0  0  0  0  0  0  0
  152.0758  144.4298  159.9900 H   0  0  0  0  0  0  0  0  0  0  0  0
  153.5906  144.7431  159.1765 H   0  0  0  0  0  0  0  0  0  0  0  0
  151.6311  145.6827  157.9032 H   0  0  0  0  0  0  0  0  0  0  0  0
  152.5041  144.4951  156.9531 H   0  0  0  0  0  0  0  0  0  0  0  0
  150.0430  144.0228  158.4787 H   0  0  0  0  0  0  0  0  0  0  0  0
  151.4589  142.1627  156.7115 H   0  0  0  0  0  0  0  0  0  0  0  0
  149.9306  141.8653  157.5172 H   0  0  0  0  0  0  0  0  0  0  0  0
  150.1704  144.1311  156.8446 H   0  0  0  0  0  0  0  0  0  0  0  0
  1  2  1  0  0  0  0
  1 16  1  0  0  0  0
  1 17  1  0  0  0  0
  1 18  1  0  0  0  0
  2  3  1  0  0  0  0
  2 19  1  0  0  0  0
  3  4  2  0  0  0  0
  3  5  1  0  0  0  0
  5 15  2  0  0  0  0
  5  6  1  0  0  0  0
  6  7  2  0  0  0  0
  6 20  1  0  0  0  0
  7  8  1  0  0  0  0
  7 21  1  0  0  0  0
  8  9  1  0  0  0  0
  8 15  1  0  0  0  0
  9 14  1  0  0  0  0
  9 10  1  0  0  0  0
  9 22  1  0  0  0  0
 10 11  1  0  0  0  0
 10 23  1  0  0  0  0
 10 24  1  0  0  0  0
 11 12  1  0  0  0  0
 11 25  1  0  0  0  0
 11 26  1  0  0  0  0
 12 13  1  0  0  0  0
 12 27  1  0  0  0  0
 12 28  1  0  0  0  0
 13 14  1  0  0  0  0
 13 29  1  0  0  0  0
 13 32  1  0  0  0  0
 14 30  1  0  0  0  0
 14 31  1  0  0  0  0
M  CHG  1  13   1
M  END
> <s_m_source_file>
AV-unprocessed.smi

> <i_m_source_file_index>
2757

> <i_lp_mmshare_version>
43012

> <i_f3d_flags>
0

> <s_epik_input>
W0NIM11bTkhdQyg9TyljMVtjSF1bY0hdbihuMSlbQ0BASF0yW0NIMl1bQ0gyXVtDSDJdW05IXVtDSDJdMg==

> <s_epik_cmdline>
J2VwaWtfcHl0aG9uJywgJy1waCcsICc3LjAnLCAnLXRuJywgJzgnLCAnLW1hJywgJzIwMCcsICctbWV0YWxfYmluZGluZycsICctaW1hZScsICc8aW5maWxlLm1hZT4nLCAnLW9tYWUnLCAnPG91dGZpbGUubWFlPic=

> <r_lp_tautomer_probability>
1

> <r_epik_Ionization_Penalty>
0.000652722

> <r_epik_Ionization_Penalty_Charging>
0.000651447

> <r_epik_Ionization_Penalty_Neutral>
1.27533e-06

> <r_epik_State_Penalty>
0.000412577

> <r_epik_Charging_Adjusted_Penalty>
0.00106402

> <i_epik_Tot_Q>
1

> <i_epik_Tot_abs_Q>
1

> <r_epik_Metal_State_Penalty>
-0

> <b_epik_Metal_Only>
0

> <s_lp_Force_Field>
OPLS_2005

> <r_lp_Energy>
20.0976

> <b_lp_Chiralities_Consistent>
1

> <s_lp_Variant>
AV-unprocessed.smi:2757-2

> <Gold.Version>
5.8.1

> <Gold.Id.Protein>
6NUR|6NUR_protein|mol2

> <Gold.PLP.Fitness>
38.5039

> <Gold.PLP.PLP>
-30.0382

> <Gold.PLP.part.hbond>
-2.0000

> <Gold.PLP.part.metal>
0.0000

> <Gold.PLP.part.buried>
-4.7495

> <Gold.PLP.part.nonpolar>
-23.7269

> <Gold.PLP.part.repulsive>
0.0651

> <Gold.PLP.ligand.clash>
0.0000

> <Gold.PLP.ligand.torsion>
0.2766

> <Gold.PLP.Chemscore.Hbond>
3.0000

> <Gold.PLP.Chemscore.CHOScore>
0.0000

> <Gold.PLP.Chemscore.Metal>
0.0000

> <Gold.Chemscore.Hbonds>
donor molecule, donor type, donor heavy atom, donor atom, acceptor molecule, acceptor atom, score
      L1  H    13    32       P1  8028  2.00
      P1  H  6896  6907       L1     4  1.00

> <Gold.PLP.Chemscore.Internal.Correction>
0.0189

> <Gold.Rescore>
     Score         DG    S(hbond)    S(metal)    S(lipo)     H(rot)  DE(clash)    DE(int)     intcor
     18.53     -18.67       1.99        0.00      77.89       1.00       0.09       0.05       ----

> <Gold.Chemscore.Fitness>
18.5295

> <Gold.Chemscore.DG>
-18.6749

> <Gold.Chemscore.ZeroCoef>
-5.4800

> <Gold.Chemscore.Hbond>
1.9886

> <Gold.Chemscore.Metal>
0.0000

> <Gold.Chemscore.Lipo>
77.8892

> <Gold.Chemscore.Internal_Hbond>
0.0000

> <Gold.Chemscore.DEClash>
0.0939

> <Gold.Chemscore.DEInternal>
0.0516

> <Gold.Chemscore.Rot>
1.0000

> <Gold.Chemscore.Internal.Correction>
   9.000000E+99

> <Gold.Chemscore.Hbonds>
donor molecule, donor type, donor heavy atom, donor atom, acceptor molecule, acceptor atom, score
      L1  H    13    32       P1  8028  0.97
      P1  H  6896  6907       L1     4  0.99

> <Gold.Chemscore.Hbond.Weighted>
-6.6419

> <Gold.Chemscore.Metal.Weighted>
-0.0000

> <Gold.Chemscore.Lipo.Weighted>
-9.1130

> <Gold.Chemscore.Internal_Hbond.Weighted>
0.0000

> <Gold.Chemscore.DEClash.Weighted>
0.0939

> <Gold.Chemscore.DEInternal.Weighted>
0.0516

> <Gold.Chemscore.Rot.Weighted>
2.5600

> <Gold.Chemscore.Internal.Correction.Weighted>
   9.000000E+99

> <Gold.Protein.RotatedTorsions>
[ 6907 6896 6895 6894 ] final   42.60 input  -60.11 | X-H torsion
[ 7974 7965 7964 7962 ] final  -69.62 input  175.53 | X-H torsion
[ 8008 7997 7996 7995 ] final -160.02 input   59.86 | X-H torsion
[ 10167 10162 10161 10158 ] final   -9.43 input  -65.29 | X-H torsion
[ 10718 10713 10712 10709 ] final  100.98 input   66.30 | X-H torsion
[ 10763 10752 10751 10750 ] final  -90.26 input  -60.55 | X-H torsion
[ 11005 11000 10999 10996 ] final   83.94 input  -57.11 | X-H torsion

> <Gold.Protein.ActiveResidues>
 VAL166  LYS551  ARG553  GLY616  TRP617  ASP618  TYR619  PRO620  LYS621  CYS622 
 ASP623  PHE694  ASN695  SER759  ASP760  ASP761  ALA762  ILE779  LEU786  VAL792 
 PHE793  MET794  SER795  GLU796  ALA797  LYS798  CYS799  TRP800  GLU811  SER814 

> <Gold.Protein.RotatedAtoms>
  152.2099  134.8511  160.0498 H   0  0  0  0  0  0  0  0  0  0  0  0  # atno 6907 bound_to 6896
  151.9333  133.3612  159.3947 H   0  0  0  0  0  0  0  0  0  0  0  0  # atno 6908 bound_to 6896
  150.6974  134.4439  159.5349 H   0  0  0  0  0  0  0  0  0  0  0  0  # atno 6909 bound_to 6896
  145.7014  140.9115  143.0729 H   0  0  0  0  0  0  0  0  0  0  0  0  # atno 7974 bound_to 7965
  155.7712  140.0852  157.2107 H   0  0  0  0  0  0  0  0  0  0  0  0  # atno 8008 bound_to 7997
  154.3996  140.1525  156.3001 H   0  0  0  0  0  0  0  0  0  0  0  0  # atno 8009 bound_to 7997
  155.8745  140.3424  155.5847 H   0  0  0  0  0  0  0  0  0  0  0  0  # atno 8010 bound_to 7997
  140.7087  143.5858  150.8944 H   0  0  0  0  0  0  0  0  0  0  0  0  # atno 10167 bound_to 10162
  157.6841  131.0713  150.5183 H   0  0  0  0  0  0  0  0  0  0  0  0  # atno 10718 bound_to 10713
  154.6639  135.5311  153.8053 H   0  0  0  0  0  0  0  0  0  0  0  0  # atno 10763 bound_to 10752
  153.0459  135.6512  154.0829 H   0  0  0  0  0  0  0  0  0  0  0  0  # atno 10764 bound_to 10752
  154.0735  135.2952  155.3283 H   0  0  0  0  0  0  0  0  0  0  0  0  # atno 10765 bound_to 10752
  139.9015  134.8181  156.2377 H   0  0  0  0  0  0  0  0  0  0  0  0  # atno 11005 bound_to 11000
  144.6967  139.8953  143.7455 LP  0  0  0  0  0  0  0  0  0  0  0  0  # atno 17320 bound_to 7965
  146.0794  139.3782  143.0474 LP  0  0  0  0  0  0  0  0  0  0  0  0  # atno 17321 bound_to 7965
  139.9584  143.6192  152.3009 LP  0  0  0  0  0  0  0  0  0  0  0  0  # atno 17342 bound_to 10162
  139.6736  144.7660  151.1738 LP  0  0  0  0  0  0  0  0  0  0  0  0  # atno 17343 bound_to 10162
  156.5497  130.4228  149.6113 LP  0  0  0  0  0  0  0  0  0  0  0  0  # atno 17370 bound_to 10713
  156.2913  130.7125  151.1975 LP  0  0  0  0  0  0  0  0  0  0  0  0  # atno 17371 bound_to 10713
  141.0305  133.6991  156.1421 LP  0  0  0  0  0  0  0  0  0  0  0  0  # atno 17394 bound_to 11000
  140.7104  134.4468  157.5582 LP  0  0  0  0  0  0  0  0  0  0  0  0  # atno 17395 bound_to 11000

$$$$
