AV-unprocessed.smi:21|AV-procd|sdf|134|dock6
  -GOLD-   2262015323D 1   1.00000     0.00000
 Structure written by MMmdl.
 62 65  0  0  0  0  0  0  0  0  2 V2000
  148.1299  125.0721  150.5789 C   0  0  0  0  0  0  0  0  0  0  0  0
  148.5200  125.8389  151.7070 O   0  0  0  0  0  0  0  0  0  0  0  0
  148.6377  127.2287  151.4377 C   0  0  2  0  0  0  0  0  0  0  0  0
  149.1082  127.9702  152.6953 C   0  0  0  0  0  0  0  0  0  0  0  0
  148.0403  129.0352  152.9961 C   0  0  1  0  0  0  0  0  0  0  0  0
  148.6235  130.3737  153.5011 C   0  0  0  0  0  0  0  0  0  0  0  0
  149.3693  130.2287  154.7541 N   0  0  0  0  0  0  0  0  0  0  0  0
  149.1813  129.0121  155.5359 C   0  0  0  0  0  0  0  0  0  0  0  0
  149.9987  131.3094  155.3042 C   0  0  0  0  0  0  0  0  0  0  0  0
  150.9492  131.0847  156.2522 N   0  0  0  0  0  0  0  0  0  0  0  0
  151.6028  132.0969  156.8272 C   0  0  0  0  0  0  0  0  0  0  0  0
  151.4713  133.4038  156.6061 N   0  0  0  0  0  0  0  0  0  0  0  0
  150.5252  133.6487  155.6568 C   0  0  0  0  0  0  0  0  0  0  0  0
  149.7454  132.6760  154.9635 C   0  0  0  0  0  0  0  0  0  0  0  0
  148.8925  133.3254  154.0750 N   0  0  0  0  0  0  0  0  0  0  0  0
  149.1504  134.5938  154.2340 C   0  0  0  0  0  0  0  0  0  0  0  0
  150.1279  134.8764  155.1583 N   0  0  0  0  0  0  0  0  0  0  0  0
  150.6223  136.1903  155.5318 C   0  0  0  0  0  0  0  0  0  0  0  0
  150.0672  137.3205  154.6256 C   0  0  1  0  0  0  0  0  0  0  0  0
  148.5924  137.6408  154.9629 C   0  0  0  0  0  0  0  0  0  0  0  0
  148.3971  137.7494  156.3575 O   0  0  0  0  0  0  0  0  0  0  0  0
  150.9505  138.5986  154.6188 C   0  0  1  0  0  0  0  0  0  0  0  0
  150.7026  139.6034  155.7371 C   0  0  0  0  0  0  0  0  0  0  0  0
  152.0393  140.3268  155.8117 C   0  0  0  0  0  0  0  0  0  0  0  0
  152.9752  139.2738  155.6495 O   0  0  0  0  0  0  0  0  0  0  0  0
  152.4706  138.3626  154.6780 C   0  0  0  0  0  0  0  0  0  0  0  0
  147.2897  129.1936  151.7327 N   0  3  2  0  0  0  0  0  0  0  0  0
  145.9378  129.7770  151.8813 C   0  0  0  0  0  0  0  0  0  0  0  0
  147.2891  127.8682  151.0857 C   0  0  0  0  0  0  0  0  0  0  0  0
  149.3603  127.4046  150.6385 H   0  0  0  0  0  0  0  0  0  0  0  0
  147.3502  128.6241  153.7353 H   0  0  0  0  0  0  0  0  0  0  0  0
  148.0831  124.0186  150.8540 H   0  0  0  0  0  0  0  0  0  0  0  0
  148.8492  125.1734  149.7654 H   0  0  0  0  0  0  0  0  0  0  0  0
  147.1452  125.3659  150.2140 H   0  0  0  0  0  0  0  0  0  0  0  0
  149.2426  127.3016  153.5466 H   0  0  0  0  0  0  0  0  0  0  0  0
  150.0765  128.4299  152.4944 H   0  0  0  0  0  0  0  0  0  0  0  0
  149.2799  130.7956  152.7391 H   0  0  0  0  0  0  0  0  0  0  0  0
  147.8366  131.1161  153.6327 H   0  0  0  0  0  0  0  0  0  0  0  0
  150.1373  128.6364  155.9010 H   0  0  0  0  0  0  0  0  0  0  0  0
  148.7313  128.2225  154.9339 H   0  0  0  0  0  0  0  0  0  0  0  0
  148.5241  129.1966  156.3861 H   0  0  0  0  0  0  0  0  0  0  0  0
  152.3361  131.8201  157.5704 H   0  0  0  0  0  0  0  0  0  0  0  0
  148.6385  135.3604  153.6710 H   0  0  0  0  0  0  0  0  0  0  0  0
  150.3548  136.3662  156.5735 H   0  0  0  0  0  0  0  0  0  0  0  0
  151.7101  136.1496  155.4977 H   0  0  0  0  0  0  0  0  0  0  0  0
  150.0790  136.9402  153.6028 H   0  0  0  0  0  0  0  0  0  0  0  0
  148.2860  138.5893  154.5225 H   0  0  0  0  0  0  0  0  0  0  0  0
  147.9269  136.8757  154.5629 H   0  0  0  0  0  0  0  0  0  0  0  0
  148.2125  136.8896  156.7036 H   0  0  0  0  0  0  0  0  0  0  0  0
  150.7733  139.1263  153.6806 H   0  0  0  0  0  0  0  0  0  0  0  0
  149.8695  140.2753  155.5282 H   0  0  0  0  0  0  0  0  0  0  0  0
  150.5112  139.1126  156.6901 H   0  0  0  0  0  0  0  0  0  0  0  0
  152.1446  141.0419  154.9940 H   0  0  0  0  0  0  0  0  0  0  0  0
  152.1832  140.8538  156.7551 H   0  0  0  0  0  0  0  0  0  0  0  0
  152.7466  137.3448  154.9506 H   0  0  0  0  0  0  0  0  0  0  0  0
  152.9272  138.5721  153.7098 H   0  0  0  0  0  0  0  0  0  0  0  0
  145.3119  129.1647  152.5320 H   0  0  0  0  0  0  0  0  0  0  0  0
  145.4490  129.8503  150.9094 H   0  0  0  0  0  0  0  0  0  0  0  0
  145.9876  130.7805  152.3033 H   0  0  0  0  0  0  0  0  0  0  0  0
  147.1291  127.9425  150.0096 H   0  0  0  0  0  0  0  0  0  0  0  0
  146.4785  127.2691  151.5048 H   0  0  0  0  0  0  0  0  0  0  0  0
  147.8339  129.8071  151.1431 H   0  0  0  0  0  0  0  0  0  0  0  0
  1  2  1  0  0  0  0
  1 32  1  0  0  0  0
  1 33  1  0  0  0  0
  1 34  1  0  0  0  0
  2  3  1  0  0  0  0
  3 30  1  0  0  0  0
  3 29  1  0  0  0  0
  3  4  1  0  0  0  0
  4  5  1  0  0  0  0
  4 35  1  0  0  0  0
  4 36  1  0  0  0  0
  5 31  1  0  0  0  0
  5  6  1  0  0  0  0
  5 27  1  0  0  0  0
  6  7  1  0  0  0  0
  6 37  1  0  0  0  0
  6 38  1  0  0  0  0
  7  8  1  0  0  0  0
  7  9  1  0  0  0  0
  8 39  1  0  0  0  0
  8 40  1  0  0  0  0
  8 41  1  0  0  0  0
  9 14  1  0  0  0  0
  9 10  2  0  0  0  0
 10 11  1  0  0  0  0
 11 12  2  0  0  0  0
 11 42  1  0  0  0  0
 12 13  1  0  0  0  0
 13 17  1  0  0  0  0
 13 14  2  0  0  0  0
 14 15  1  0  0  0  0
 15 16  2  0  0  0  0
 16 17  1  0  0  0  0
 16 43  1  0  0  0  0
 17 18  1  0  0  0  0
 18 19  1  0  0  0  0
 18 44  1  0  0  0  0
 18 45  1  0  0  0  0
 19 20  1  0  0  0  0
 19 22  1  0  0  0  0
 19 46  1  0  0  0  0
 20 21  1  0  0  0  0
 20 47  1  0  0  0  0
 20 48  1  0  0  0  0
 21 49  1  0  0  0  0
 22 26  1  0  0  0  0
 22 23  1  0  0  0  0
 22 50  1  0  0  0  0
 23 24  1  0  0  0  0
 23 51  1  0  0  0  0
 23 52  1  0  0  0  0
 24 25  1  0  0  0  0
 24 53  1  0  0  0  0
 24 54  1  0  0  0  0
 25 26  1  0  0  0  0
 26 55  1  0  0  0  0
 26 56  1  0  0  0  0
 27 28  1  0  0  0  0
 27 29  1  0  0  0  0
 27 62  1  0  0  0  0
 28 57  1  0  0  0  0
 28 58  1  0  0  0  0
 28 59  1  0  0  0  0
 29 60  1  0  0  0  0
 29 61  1  0  0  0  0
M  CHG  1  27   1
M  END
> <s_m_source_file>
AV-unprocessed.smi

> <i_m_source_file_index>
21

> <i_lp_mmshare_version>
43012

> <i_f3d_flags>
0

> <s_epik_input>
W0NIM11PW0NASF0xW0NIMl1bQ0BIXShOKFtDSDNdKVtDSDJdMSlbQ0gyXU4oW0NIM10pYyhuW2NIXW4yKWMoYzIzKW5bY0hdbjNbQ0gyXVtDQEhdKFtDSDJdW09IXSlbQ0BASF00W0NIMl1bQ0gyXU9bQ0gyXTQ=

> <s_epik_cmdline>
J2VwaWtfcHl0aG9uJywgJy1waCcsICc3LjAnLCAnLXRuJywgJzgnLCAnLW1hJywgJzIwMCcsICctbWV0YWxfYmluZGluZycsICctaW1hZScsICc8aW5maWxlLm1hZT4nLCAnLW9tYWUnLCAnPG91dGZpbGUubWFlPic=

> <r_lp_tautomer_probability>
1

> <r_epik_Ionization_Penalty>
0.0157465

> <r_epik_Ionization_Penalty_Charging>
0.015354

> <r_epik_Ionization_Penalty_Neutral>
0.000392529

> <r_epik_State_Penalty>
0.0120612

> <r_epik_Charging_Adjusted_Penalty>
0.0274152

> <i_epik_Tot_Q>
1

> <i_epik_Tot_abs_Q>
1

> <r_epik_Metal_State_Penalty>
0.0121253

> <b_epik_Metal_Only>
0

> <s_lp_Force_Field>
OPLS_2005

> <r_lp_Energy>
60.5183

> <b_lp_Chiralities_Consistent>
1

> <s_lp_Variant>
AV-unprocessed.smi:21-14

> <Gold.Version>
5.8.1

> <Gold.Id.Protein>
6NUR|6NUR_protein|mol2

> <Gold.PLP.Fitness>
55.6760

> <Gold.PLP.PLP>
-48.6323

> <Gold.PLP.part.hbond>
-2.0000

> <Gold.PLP.part.metal>
0.0000

> <Gold.PLP.part.buried>
-4.7153

> <Gold.PLP.part.nonpolar>
-42.1838

> <Gold.PLP.part.repulsive>
0.2283

> <Gold.PLP.ligand.clash>
0.0000

> <Gold.PLP.ligand.torsion>
1.1651

> <Gold.PLP.Chemscore.Hbond>
2.0000

> <Gold.PLP.Chemscore.CHOScore>
0.9393

> <Gold.PLP.Chemscore.Metal>
0.0000

> <Gold.Chemscore.Hbonds>
donor molecule, donor type, donor heavy atom, donor atom, acceptor molecule, acceptor atom, score
      L1  H    27    62       P1 10747  1.00
      P1  H  7997  8010       L1    25  0.85
      L1  C    16    43       P1  7948  0.95

> <Gold.PLP.Chemscore.Internal.Correction>
0.5560

> <Gold.Rescore>
     Score         DG    S(hbond)    S(metal)    S(lipo)     H(rot)  DE(clash)    DE(int)     intcor
     12.92     -15.28       1.90        0.00      96.72       3.08       0.04       2.32       ----

> <Gold.Chemscore.Fitness>
12.9206

> <Gold.Chemscore.DG>
-15.2828

> <Gold.Chemscore.ZeroCoef>
-5.4800

> <Gold.Chemscore.Hbond>
1.9043

> <Gold.Chemscore.Metal>
0.0000

> <Gold.Chemscore.Lipo>
96.7221

> <Gold.Chemscore.Internal_Hbond>
0.0000

> <Gold.Chemscore.DEClash>
0.0431

> <Gold.Chemscore.DEInternal>
2.3191

> <Gold.Chemscore.Rot>
3.0758

> <Gold.Chemscore.Internal.Correction>
   9.000000E+99

> <Gold.Chemscore.Hbonds>
donor molecule, donor type, donor heavy atom, donor atom, acceptor molecule, acceptor atom, score
      L1  H    27    62       P1 10747  0.97
      P1  H  7997  8010       L1    25  0.15

> <Gold.Chemscore.Hbond.Weighted>
-6.3605

> <Gold.Chemscore.Metal.Weighted>
-0.0000

> <Gold.Chemscore.Lipo.Weighted>
-11.3165

> <Gold.Chemscore.Internal_Hbond.Weighted>
0.0000

> <Gold.Chemscore.DEClash.Weighted>
0.0431

> <Gold.Chemscore.DEInternal.Weighted>
2.3191

> <Gold.Chemscore.Rot.Weighted>
7.8741

> <Gold.Chemscore.Internal.Correction.Weighted>
   9.000000E+99

> <Gold.Protein.RotatedTorsions>
[ 6907 6896 6895 6894 ] final   44.57 input  -60.11 | X-H torsion
[ 7974 7965 7964 7962 ] final    3.16 input  175.53 | X-H torsion
[ 8008 7997 7996 7995 ] final   89.41 input   59.86 | X-H torsion
[ 10167 10162 10161 10158 ] final    4.43 input  -65.29 | X-H torsion
[ 10718 10713 10712 10709 ] final   62.22 input   66.30 | X-H torsion
[ 10763 10752 10751 10750 ] final   43.47 input  -60.55 | X-H torsion
[ 11005 11000 10999 10996 ] final  -99.02 input  -57.11 | X-H torsion

> <Gold.Protein.ActiveResidues>
 VAL166  LYS551  ARG553  GLY616  TRP617  ASP618  TYR619  PRO620  LYS621  CYS622 
 ASP623  PHE694  ASN695  SER759  ASP760  ASP761  ALA762  ILE779  LEU786  VAL792 
 PHE793  MET794  SER795  GLU796  ALA797  LYS798  CYS799  TRP800  GLU811  SER814 

> <Gold.Protein.RotatedAtoms>
  152.2341  134.8293  160.0469 H   0  0  0  0  0  0  0  0  0  0  0  0  # atno 6907 bound_to 6896
  151.9031  133.3538  159.3846 H   0  0  0  0  0  0  0  0  0  0  0  0  # atno 6908 bound_to 6896
  150.7034  134.4733  159.5480 H   0  0  0  0  0  0  0  0  0  0  0  0  # atno 6909 bound_to 6896
  146.2445  140.0727  142.8361 H   0  0  0  0  0  0  0  0  0  0  0  0  # atno 7974 bound_to 7965
  155.9997  140.3361  155.6833 H   0  0  0  0  0  0  0  0  0  0  0  0  # atno 8008 bound_to 7997
  155.6308  140.0685  157.2667 H   0  0  0  0  0  0  0  0  0  0  0  0  # atno 8009 bound_to 7997
  154.4245  140.1760  156.1457 H   0  0  0  0  0  0  0  0  0  0  0  0  # atno 8010 bound_to 7997
  140.6535  143.7485  150.7614 H   0  0  0  0  0  0  0  0  0  0  0  0  # atno 10167 bound_to 10162
  157.5885  130.9038  149.9560 H   0  0  0  0  0  0  0  0  0  0  0  0  # atno 10718 bound_to 10713
  152.9860  135.6100  154.3116 H   0  0  0  0  0  0  0  0  0  0  0  0  # atno 10763 bound_to 10752
  154.2831  135.2776  155.2690 H   0  0  0  0  0  0  0  0  0  0  0  0  # atno 10764 bound_to 10752
  154.5019  135.5864  153.6594 H   0  0  0  0  0  0  0  0  0  0  0  0  # atno 10765 bound_to 10752
  141.1324  133.8289  157.0916 H   0  0  0  0  0  0  0  0  0  0  0  0  # atno 11005 bound_to 11000
  145.0802  140.9216  143.4830 LP  0  0  0  0  0  0  0  0  0  0  0  0  # atno 17320 bound_to 7965
  145.0878  139.2912  143.5750 LP  0  0  0  0  0  0  0  0  0  0  0  0  # atno 17321 bound_to 7965
  140.1141  143.4672  152.2353 LP  0  0  0  0  0  0  0  0  0  0  0  0  # atno 17342 bound_to 10162
  139.5754  144.7484  151.3780 LP  0  0  0  0  0  0  0  0  0  0  0  0  # atno 17343 bound_to 10162
  156.0937  130.3661  150.0347 LP  0  0  0  0  0  0  0  0  0  0  0  0  # atno 17370 bound_to 10713
  156.8474  130.9447  151.3628 LP  0  0  0  0  0  0  0  0  0  0  0  0  # atno 17371 bound_to 10713
  140.0389  134.9864  157.0923 LP  0  0  0  0  0  0  0  0  0  0  0  0  # atno 17394 bound_to 11000
  140.4167  134.1924  155.7163 LP  0  0  0  0  0  0  0  0  0  0  0  0  # atno 17395 bound_to 11000

$$$$
