AV-unprocessed.smi:3018|AV-procd|sdf|11482|dock5
  -GOLD-   2272016423D 1   1.00000     0.00000
 Structure written by MMmdl.
 44 45  0  0  0  0  0  0  0  0  2 V2000
  151.7352  138.4434  155.4692 C   0  0  0  0  0  0  0  0  0  0  0  0
  151.8553  139.9648  155.6239 C   0  0  0  0  0  0  0  0  0  0  0  0
  150.5098  140.6364  155.9549 C   0  0  1  0  0  0  0  0  0  0  0  0
  150.7642  142.0180  156.2031 O   0  0  0  0  0  0  0  0  0  0  0  0
  150.8938  142.4082  157.5677 C   0  0  0  0  0  0  0  0  0  0  0  0
  151.2570  143.9031  157.5851 C   0  0  0  0  0  0  0  0  0  0  0  0
  151.5061  144.4032  159.0171 C   0  0  0  0  0  0  0  0  0  0  0  0
  152.5938  143.5708  159.7144 C   0  0  0  0  0  0  0  0  0  0  0  0
  152.2467  142.0737  159.6945 C   0  0  0  0  0  0  0  0  0  0  0  0
  151.9928  141.5774  158.2616 C   0  0  0  0  0  0  0  0  0  0  0  0
  149.5158  140.4967  154.7916 C   0  0  0  0  0  0  0  0  0  0  0  0
  149.2336  141.4726  154.0959 O   0  0  0  0  0  0  0  0  0  0  0  0
  148.9840  139.2790  154.6035 N   0  0  0  0  0  0  0  0  0  0  0  0
  148.0196  138.9361  153.5653 C   0  0  0  0  0  0  0  0  0  0  0  0
  146.6405  138.5965  154.1675 C   0  0  0  0  0  0  0  0  0  0  0  0
  145.8294  137.5695  153.3896 C   0  0  0  0  0  0  0  0  0  0  0  0
  144.6017  137.2402  153.5615 N   0  0  0  0  0  0  0  0  0  0  0  0
  144.3435  136.2389  152.5694 N   0  5  0  0  0  0  0  0  0  0  0  0
  145.4939  136.0624  151.8753 C   0  0  0  0  0  0  0  0  0  0  0  0
  145.7176  135.2989  150.9387 O   0  0  0  0  0  0  0  0  0  0  0  0
  146.4199  136.8774  152.3690 N   0  0  0  0  0  0  0  0  0  0  0  0
  147.3761  136.9718  152.0613 H   0  0  0  0  0  0  0  0  0  0  0  0
  152.7009  138.0008  155.2244 H   0  0  0  0  0  0  0  0  0  0  0  0
  151.0379  138.1824  154.6727 H   0  0  0  0  0  0  0  0  0  0  0  0
  151.3813  137.9789  156.3900 H   0  0  0  0  0  0  0  0  0  0  0  0
  152.5878  140.1904  156.4004 H   0  0  0  0  0  0  0  0  0  0  0  0
  152.2546  140.3782  154.6965 H   0  0  0  0  0  0  0  0  0  0  0  0
  150.0963  140.1579  156.8436 H   0  0  0  0  0  0  0  0  0  0  0  0
  149.9510  142.2840  158.1020 H   0  0  0  0  0  0  0  0  0  0  0  0
  152.1493  144.0719  156.9806 H   0  0  0  0  0  0  0  0  0  0  0  0
  150.4574  144.4840  157.1241 H   0  0  0  0  0  0  0  0  0  0  0  0
  151.7964  145.4540  158.9986 H   0  0  0  0  0  0  0  0  0  0  0  0
  150.5793  144.3484  159.5899 H   0  0  0  0  0  0  0  0  0  0  0  0
  153.5508  143.7301  159.2158 H   0  0  0  0  0  0  0  0  0  0  0  0
  152.7207  143.9104  160.7428 H   0  0  0  0  0  0  0  0  0  0  0  0
  153.0543  141.4995  160.1492 H   0  0  0  0  0  0  0  0  0  0  0  0
  151.3597  141.8965  160.3039 H   0  0  0  0  0  0  0  0  0  0  0  0
  151.7194  140.5231  158.2896 H   0  0  0  0  0  0  0  0  0  0  0  0
  152.9169  141.6402  157.6855 H   0  0  0  0  0  0  0  0  0  0  0  0
  149.2690  138.5359  155.2247 H   0  0  0  0  0  0  0  0  0  0  0  0
  147.9367  139.7931  152.8959 H   0  0  0  0  0  0  0  0  0  0  0  0
  148.4000  138.1059  152.9672 H   0  0  0  0  0  0  0  0  0  0  0  0
  146.7624  138.2278  155.1865 H   0  0  0  0  0  0  0  0  0  0  0  0
  146.0467  139.5081  154.2413 H   0  0  0  0  0  0  0  0  0  0  0  0
  1  2  1  0  0  0  0
  1 23  1  0  0  0  0
  1 24  1  0  0  0  0
  1 25  1  0  0  0  0
  2  3  1  0  0  0  0
  2 26  1  0  0  0  0
  2 27  1  0  0  0  0
  3  4  1  0  0  0  0
  3 11  1  0  0  0  0
  3 28  1  0  0  0  0
  4  5  1  0  0  0  0
  5 10  1  0  0  0  0
  5  6  1  0  0  0  0
  5 29  1  0  0  0  0
  6  7  1  0  0  0  0
  6 30  1  0  0  0  0
  6 31  1  0  0  0  0
  7  8  1  0  0  0  0
  7 32  1  0  0  0  0
  7 33  1  0  0  0  0
  8  9  1  0  0  0  0
  8 34  1  0  0  0  0
  8 35  1  0  0  0  0
  9 10  1  0  0  0  0
  9 36  1  0  0  0  0
  9 37  1  0  0  0  0
 10 38  1  0  0  0  0
 10 39  1  0  0  0  0
 11 12  2  0  0  0  0
 11 13  1  0  0  0  0
 13 14  1  0  0  0  0
 13 40  1  0  0  0  0
 14 15  1  0  0  0  0
 14 41  1  0  0  0  0
 14 42  1  0  0  0  0
 15 16  1  0  0  0  0
 15 43  1  0  0  0  0
 15 44  1  0  0  0  0
 16 21  1  0  0  0  0
 16 17  2  0  0  0  0
 17 18  1  0  0  0  0
 18 19  1  0  0  0  0
 19 20  2  0  0  0  0
 19 21  1  0  0  0  0
 21 22  1  0  0  0  0
M  CHG  1  18  -1
M  END
> <s_m_source_file>
AV-unprocessed.smi

> <i_m_source_file_index>
3018

> <i_lp_mmshare_version>
43012

> <i_f3d_flags>
0

> <s_epik_input>
W0NIMl0xW0NIMl1bQ0gyXVtDSDJdW0NIMl1bQ0hdMU9bQ0BASF0oW0NIMl1bQ0gzXSlDKD1PKVtOSF1bQ0gyXVtDSDJdYzJuW25IXWMoPU8pW25IXTI=

> <s_epik_cmdline>
J2VwaWtfcHl0aG9uJywgJy1waCcsICc3LjAnLCAnLXRuJywgJzgnLCAnLW1hJywgJzIwMCcsICctbWV0YWxfYmluZGluZycsICctaW1hZScsICc8aW5maWxlLm1hZT4nLCAnLW9tYWUnLCAnPG91dGZpbGUubWFlPic=

> <r_lp_tautomer_probability>
1

> <r_epik_Ionization_Penalty>
14.1812

> <r_epik_Ionization_Penalty_Charging>
13.7758

> <r_epik_Ionization_Penalty_Neutral>
0.405355

> <r_epik_State_Penalty>
4.92413

> <r_epik_Charging_Adjusted_Penalty>
18.7

> <i_epik_Tot_Q>
-1

> <i_epik_Tot_abs_Q>
1

> <r_epik_Metal_State_Penalty>
1.32654

> <b_epik_Metal_Only>
1

> <s_lp_Force_Field>
OPLS_2005

> <r_lp_Energy>
19.6137

> <b_lp_Chiralities_Consistent>
1

> <s_lp_Variant>
AV-unprocessed.smi:3018-4

> <Gold.Version>
5.8.1

> <Gold.Id.Protein>
6NUR|6NUR_protein|mol2

> <Gold.PLP.Fitness>
41.2178

> <Gold.PLP.PLP>
-38.3095

> <Gold.PLP.part.hbond>
-3.0000

> <Gold.PLP.part.metal>
0.0000

> <Gold.PLP.part.buried>
-3.3130

> <Gold.PLP.part.nonpolar>
-32.2021

> <Gold.PLP.part.repulsive>
0.8991

> <Gold.PLP.ligand.clash>
0.0000

> <Gold.PLP.ligand.torsion>
1.1412

> <Gold.PLP.Chemscore.Hbond>
1.6640

> <Gold.PLP.Chemscore.CHOScore>
0.0000

> <Gold.PLP.Chemscore.Metal>
0.0000

> <Gold.Chemscore.Hbonds>
donor molecule, donor type, donor heavy atom, donor atom, acceptor molecule, acceptor atom, score
      L1  H    21    22       P1  7948  0.98
      P1  H  8011  8017       L1    12  0.60

> <Gold.PLP.Chemscore.Internal.Correction>
0.1986

> <Gold.Rescore>
     Score         DG    S(hbond)    S(metal)    S(lipo)     H(rot)  DE(clash)    DE(int)     intcor
     13.02     -14.55       1.69        0.00      94.43       2.98       0.25       1.29       ----

> <Gold.Chemscore.Fitness>
13.0198

> <Gold.Chemscore.DG>
-14.5548

> <Gold.Chemscore.ZeroCoef>
-5.4800

> <Gold.Chemscore.Hbond>
1.6909

> <Gold.Chemscore.Metal>
0.0000

> <Gold.Chemscore.Lipo>
94.4330

> <Gold.Chemscore.Internal_Hbond>
0.0000

> <Gold.Chemscore.DEClash>
0.2462

> <Gold.Chemscore.DEInternal>
1.2888

> <Gold.Chemscore.Rot>
2.9772

> <Gold.Chemscore.Internal.Correction>
   9.000000E+99

> <Gold.Chemscore.Hbonds>
donor molecule, donor type, donor heavy atom, donor atom, acceptor molecule, acceptor atom, score
      L1  H    21    22       P1  7948  0.93
      P1  H  8011  8017       L1    12  0.58

> <Gold.Chemscore.Hbond.Weighted>
-5.6477

> <Gold.Chemscore.Metal.Weighted>
-0.0000

> <Gold.Chemscore.Lipo.Weighted>
-11.0487

> <Gold.Chemscore.Internal_Hbond.Weighted>
0.0000

> <Gold.Chemscore.DEClash.Weighted>
0.2462

> <Gold.Chemscore.DEInternal.Weighted>
1.2888

> <Gold.Chemscore.Rot.Weighted>
7.6216

> <Gold.Chemscore.Internal.Correction.Weighted>
   9.000000E+99

> <Gold.Protein.RotatedTorsions>
[ 6907 6896 6895 6894 ] final -114.06 input  -60.11 | X-H torsion
[ 7974 7965 7964 7962 ] final   90.40 input  175.53 | X-H torsion
[ 8008 7997 7996 7995 ] final  167.82 input   59.86 | X-H torsion
[ 10167 10162 10161 10158 ] final   11.75 input  -65.29 | X-H torsion
[ 10718 10713 10712 10709 ] final    4.46 input   66.30 | X-H torsion
[ 10763 10752 10751 10750 ] final  103.16 input  -60.55 | X-H torsion
[ 11005 11000 10999 10996 ] final   59.04 input  -57.11 | X-H torsion

> <Gold.Protein.ActiveResidues>
 VAL166  LYS551  ARG553  GLY616  TRP617  ASP618  TYR619  PRO620  LYS621  CYS622 
 ASP623  PHE694  ASN695  SER759  ASP760  ASP761  ALA762  ILE779  LEU786  VAL792 
 PHE793  MET794  SER795  GLU796  ALA797  LYS798  CYS799  TRP800  GLU811  SER814 

> <Gold.Protein.RotatedAtoms>
  150.7874  133.8856  159.3298 H   0  0  0  0  0  0  0  0  0  0  0  0  # atno 6907 bound_to 6896
  151.6702  135.0975  160.0206 H   0  0  0  0  0  0  0  0  0  0  0  0  # atno 6908 bound_to 6896
  152.3941  133.6682  159.6297 H   0  0  0  0  0  0  0  0  0  0  0  0  # atno 6909 bound_to 6896
  145.5195  139.2279  143.2680 H   0  0  0  0  0  0  0  0  0  0  0  0  # atno 7974 bound_to 7965
  156.1601  140.1607  156.8627 H   0  0  0  0  0  0  0  0  0  0  0  0  # atno 8008 bound_to 7997
  154.5152  140.0791  156.8103 H   0  0  0  0  0  0  0  0  0  0  0  0  # atno 8009 bound_to 7997
  155.3725  140.3401  155.4246 H   0  0  0  0  0  0  0  0  0  0  0  0  # atno 8010 bound_to 7997
  140.6112  143.8404  150.7067 H   0  0  0  0  0  0  0  0  0  0  0  0  # atno 10167 bound_to 10162
  156.8930  130.5694  149.5649 H   0  0  0  0  0  0  0  0  0  0  0  0  # atno 10718 bound_to 10713
  153.3490  135.3986  155.1631 H   0  0  0  0  0  0  0  0  0  0  0  0  # atno 10763 bound_to 10752
  154.8658  135.3652  154.5246 H   0  0  0  0  0  0  0  0  0  0  0  0  # atno 10764 bound_to 10752
  153.5697  135.7079  153.5570 H   0  0  0  0  0  0  0  0  0  0  0  0  # atno 10765 bound_to 10752
  140.0333  134.5980  155.9478 H   0  0  0  0  0  0  0  0  0  0  0  0  # atno 11005 bound_to 11000
  146.2115  140.6006  142.9057 LP  0  0  0  0  0  0  0  0  0  0  0  0  # atno 17320 bound_to 7965
  144.7684  140.5582  143.6687 LP  0  0  0  0  0  0  0  0  0  0  0  0  # atno 17321 bound_to 7965
  140.1973  143.3988  152.1818 LP  0  0  0  0  0  0  0  0  0  0  0  0  # atno 17342 bound_to 10162
  139.5362  144.7212  151.4884 LP  0  0  0  0  0  0  0  0  0  0  0  0  # atno 17343 bound_to 10162
  156.0620  130.5670  150.9211 LP  0  0  0  0  0  0  0  0  0  0  0  0  # atno 17370 bound_to 10713
  157.6072  131.0938  150.8858 LP  0  0  0  0  0  0  0  0  0  0  0  0  # atno 17371 bound_to 10713
  141.1843  133.6552  156.5152 LP  0  0  0  0  0  0  0  0  0  0  0  0  # atno 17394 bound_to 11000
  140.4189  134.7205  157.4879 LP  0  0  0  0  0  0  0  0  0  0  0  0  # atno 17395 bound_to 11000

$$$$
