AV-unprocessed.smi:1084|AV-procd|sdf|4716|dock8
  -GOLD-   22720 3243D 1   1.00000     0.00000
 Structure written by MMmdl.
 52 54  0  0  0  0  0  0  0  0  1 V2000
  149.8256  132.3227  154.6150 C   0  0  0  0  0  0  0  0  0  0  0  0
  148.5403  132.4218  153.7539 C   0  0  2  0  0  0  0  0  0  0  0  0
  147.6989  133.6298  154.2499 C   0  0  0  0  0  0  0  0  0  0  0  0
  148.3685  134.9056  154.0194 N   0  0  0  0  0  0  0  0  0  0  0  0
  148.6771  135.7902  154.9763 C   0  0  0  0  0  0  0  0  0  0  0  0
  148.3999  135.6305  156.1650 O   0  0  0  0  0  0  0  0  0  0  0  0
  149.2986  136.8649  154.4621 N   0  0  0  0  0  0  0  0  0  0  0  0
  149.8635  137.9680  155.1556 C   0  0  0  0  0  0  0  0  0  0  0  0
  149.8597  137.9413  156.5646 C   0  0  0  0  0  0  0  0  0  0  0  0
  150.3881  139.0368  157.2732 C   0  0  0  0  0  0  0  0  0  0  0  0
  150.8961  140.1355  156.5427 C   0  0  0  0  0  0  0  0  0  0  0  0
  151.4301  141.2610  157.1837 N   0  0  0  0  0  0  0  0  0  0  0  0
  152.2367  140.9321  158.3513 C   0  0  0  0  0  0  0  0  0  0  0  0
  152.8911  142.2063  158.9131 C   0  0  0  0  0  0  0  0  0  0  0  0
  151.8859  143.1758  159.1973 O   0  0  0  0  0  0  0  0  0  0  0  0
  151.1540  143.5461  158.0318 C   0  0  0  0  0  0  0  0  0  0  0  0
  150.4515  142.3073  157.4505 C   0  0  0  0  0  0  0  0  0  0  0  0
  150.8944  140.1734  155.1931 N   0  0  0  0  0  0  0  0  0  0  0  0
  150.3880  139.1190  154.5191 C   0  0  0  0  0  0  0  0  0  0  0  0
  147.7770  131.1527  153.7199 N   0  0  0  0  0  0  0  0  0  0  0  0
  148.6464  129.9750  153.6149 C   0  0  0  0  0  0  0  0  0  0  0  0
  147.8598  128.6544  153.5572 C   0  0  0  0  0  0  0  0  0  0  0  0
  146.9519  128.6866  152.4648 O   0  0  0  0  0  0  0  0  0  0  0  0
  146.0376  129.7696  152.5638 C   0  0  0  0  0  0  0  0  0  0  0  0
  146.8096  131.0994  152.6176 C   0  0  0  0  0  0  0  0  0  0  0  0
  150.3555  133.2716  154.6886 H   0  0  0  0  0  0  0  0  0  0  0  0
  150.5511  131.6264  154.1966 H   0  0  0  0  0  0  0  0  0  0  0  0
  149.5941  131.9991  155.6305 H   0  0  0  0  0  0  0  0  0  0  0  0
  148.8559  132.6508  152.7347 H   0  0  0  0  0  0  0  0  0  0  0  0
  146.7475  133.7030  153.7257 H   0  0  0  0  0  0  0  0  0  0  0  0
  147.4723  133.5067  155.3107 H   0  0  0  0  0  0  0  0  0  0  0  0
  148.6272  135.1198  153.0676 H   0  0  0  0  0  0  0  0  0  0  0  0
  149.3552  136.9096  153.4552 H   0  0  0  0  0  0  0  0  0  0  0  0
  149.4599  137.0921  157.0994 H   0  0  0  0  0  0  0  0  0  0  0  0
  150.3996  139.0292  158.3533 H   0  0  0  0  0  0  0  0  0  0  0  0
  151.6093  140.4699  159.1145 H   0  0  0  0  0  0  0  0  0  0  0  0
  153.0032  140.2057  158.0785 H   0  0  0  0  0  0  0  0  0  0  0  0
  153.4342  141.9775  159.8300 H   0  0  0  0  0  0  0  0  0  0  0  0
  153.6155  142.6148  158.2065 H   0  0  0  0  0  0  0  0  0  0  0  0
  150.4186  144.3050  158.2991 H   0  0  0  0  0  0  0  0  0  0  0  0
  151.8231  143.9949  157.2957 H   0  0  0  0  0  0  0  0  0  0  0  0
  149.9299  142.5689  156.5290 H   0  0  0  0  0  0  0  0  0  0  0  0
  149.7023  141.9457  158.1557 H   0  0  0  0  0  0  0  0  0  0  0  0
  150.3882  139.2272  153.4457 H   0  0  0  0  0  0  0  0  0  0  0  0
  149.2771  130.0589  152.7286 H   0  0  0  0  0  0  0  0  0  0  0  0
  149.3123  129.9106  154.4734 H   0  0  0  0  0  0  0  0  0  0  0  0
  148.5411  127.8133  153.4287 H   0  0  0  0  0  0  0  0  0  0  0  0
  147.3174  128.4866  154.4890 H   0  0  0  0  0  0  0  0  0  0  0  0
  145.3727  129.7535  151.7002 H   0  0  0  0  0  0  0  0  0  0  0  0
  145.4133  129.6504  153.4508 H   0  0  0  0  0  0  0  0  0  0  0  0
  146.0677  131.8888  152.7159 H   0  0  0  0  0  0  0  0  0  0  0  0
  147.3217  131.2595  151.6675 H   0  0  0  0  0  0  0  0  0  0  0  0
  1  2  1  0  0  0  0
  1 26  1  0  0  0  0
  1 27  1  0  0  0  0
  1 28  1  0  0  0  0
  2  3  1  0  0  0  0
  2 20  1  0  0  0  0
  2 29  1  0  0  0  0
  3  4  1  0  0  0  0
  3 30  1  0  0  0  0
  3 31  1  0  0  0  0
  4  5  1  0  0  0  0
  4 32  1  0  0  0  0
  5  6  2  0  0  0  0
  5  7  1  0  0  0  0
  7  8  1  0  0  0  0
  7 33  1  0  0  0  0
  8 19  1  0  0  0  0
  8  9  2  0  0  0  0
  9 10  1  0  0  0  0
  9 34  1  0  0  0  0
 10 11  2  0  0  0  0
 10 35  1  0  0  0  0
 11 12  1  0  0  0  0
 11 18  1  0  0  0  0
 12 17  1  0  0  0  0
 12 13  1  0  0  0  0
 13 14  1  0  0  0  0
 13 36  1  0  0  0  0
 13 37  1  0  0  0  0
 14 15  1  0  0  0  0
 14 38  1  0  0  0  0
 14 39  1  0  0  0  0
 15 16  1  0  0  0  0
 16 17  1  0  0  0  0
 16 40  1  0  0  0  0
 16 41  1  0  0  0  0
 17 42  1  0  0  0  0
 17 43  1  0  0  0  0
 18 19  2  0  0  0  0
 19 44  1  0  0  0  0
 20 25  1  0  0  0  0
 20 21  1  0  0  0  0
 21 22  1  0  0  0  0
 21 45  1  0  0  0  0
 21 46  1  0  0  0  0
 22 23  1  0  0  0  0
 22 47  1  0  0  0  0
 22 48  1  0  0  0  0
 23 24  1  0  0  0  0
 24 25  1  0  0  0  0
 24 49  1  0  0  0  0
 24 50  1  0  0  0  0
 25 51  1  0  0  0  0
 25 52  1  0  0  0  0
M  END
> <s_m_source_file>
AV-unprocessed.smi

> <i_m_source_file_index>
1084

> <i_lp_mmshare_version>
43012

> <i_f3d_flags>
0

> <s_epik_input>
W0NIMl0xW0NIMl1PW0NIMl1bQ0gyXU4xW0NASF0oW0NIM10pW0NIMl1bTkhdQyg9TylbTkhdYzJbY0hdW2NIXWMobltjSF0yKU4zW0NIMl1bQ0gyXU9bQ0gyXVtDSDJdMw==

> <s_epik_cmdline>
J2VwaWtfcHl0aG9uJywgJy1waCcsICc3LjAnLCAnLXRuJywgJzgnLCAnLW1hJywgJzIwMCcsICctbWV0YWxfYmluZGluZycsICctaW1hZScsICc8aW5maWxlLm1hZT4nLCAnLW9tYWUnLCAnPG91dGZpbGUubWFlPic=

> <r_lp_tautomer_probability>
1

> <r_epik_Ionization_Penalty>
0.268053

> <r_epik_Ionization_Penalty_Charging>
0

> <r_epik_Ionization_Penalty_Neutral>
0.268053

> <r_epik_State_Penalty>
0.269834

> <r_epik_Charging_Adjusted_Penalty>
0.269834

> <i_epik_Tot_Q>
0

> <i_epik_Tot_abs_Q>
0

> <r_epik_Metal_State_Penalty>
0.268436

> <b_epik_Metal_Only>
0

> <s_lp_Force_Field>
OPLS_2005

> <r_lp_Energy>
46.8762

> <b_lp_Chiralities_Consistent>
1

> <s_lp_Variant>
AV-unprocessed.smi:1084-1

> <Gold.Version>
5.8.1

> <Gold.Id.Protein>
6NUR|6NUR_protein|mol2

> <Gold.PLP.Fitness>
42.7243

> <Gold.PLP.PLP>
-34.0394

> <Gold.PLP.part.hbond>
-3.0000

> <Gold.PLP.part.metal>
0.0000

> <Gold.PLP.part.buried>
-5.5552

> <Gold.PLP.part.nonpolar>
-26.1778

> <Gold.PLP.part.repulsive>
0.2764

> <Gold.PLP.ligand.clash>
0.0000

> <Gold.PLP.ligand.torsion>
0.9767

> <Gold.PLP.Chemscore.Hbond>
2.5000

> <Gold.PLP.Chemscore.CHOScore>
0.9981

> <Gold.PLP.Chemscore.Metal>
0.0000

> <Gold.Chemscore.Hbonds>
donor molecule, donor type, donor heavy atom, donor atom, acceptor molecule, acceptor atom, score
      L1  H     4    32       P1  7948  1.00
      L1  H     7    33       P1  7948  1.00
      P1  H  7989  7998       L1    18  0.50
      L1  C    19    44       P1  7957  0.99

> <Gold.PLP.Chemscore.Internal.Correction>
0.1441

> <Gold.Rescore>
     Score         DG    S(hbond)    S(metal)    S(lipo)     H(rot)  DE(clash)    DE(int)     intcor
     15.98     -18.32       1.88        0.00      91.59       1.62       0.00       2.34       ----

> <Gold.Chemscore.Fitness>
15.9785

> <Gold.Chemscore.DG>
-18.3183

> <Gold.Chemscore.ZeroCoef>
-5.4800

> <Gold.Chemscore.Hbond>
1.8778

> <Gold.Chemscore.Metal>
0.0000

> <Gold.Chemscore.Lipo>
91.5948

> <Gold.Chemscore.Internal_Hbond>
0.0000

> <Gold.Chemscore.DEClash>
0.0036

> <Gold.Chemscore.DEInternal>
2.3361

> <Gold.Chemscore.Rot>
1.6211

> <Gold.Chemscore.Internal.Correction>
   9.000000E+99

> <Gold.Chemscore.Hbonds>
donor molecule, donor type, donor heavy atom, donor atom, acceptor molecule, acceptor atom, score
      L1  H     4    32       P1  7948  0.63
      L1  H     7    33       P1  7948  0.90
      P1  H  7989  7998       L1    18  0.02

> <Gold.Chemscore.Hbond.Weighted>
-6.2717

> <Gold.Chemscore.Metal.Weighted>
-0.0000

> <Gold.Chemscore.Lipo.Weighted>
-10.7166

> <Gold.Chemscore.Internal_Hbond.Weighted>
0.0000

> <Gold.Chemscore.DEClash.Weighted>
0.0036

> <Gold.Chemscore.DEInternal.Weighted>
2.3361

> <Gold.Chemscore.Rot.Weighted>
4.1501

> <Gold.Chemscore.Internal.Correction.Weighted>
   9.000000E+99

> <Gold.Protein.RotatedTorsions>
[ 6907 6896 6895 6894 ] final  160.32 input  -60.11 | X-H torsion
[ 7974 7965 7964 7962 ] final  -46.15 input  175.53 | X-H torsion
[ 8008 7997 7996 7995 ] final  108.61 input   59.86 | X-H torsion
[ 10167 10162 10161 10158 ] final   -8.78 input  -65.29 | X-H torsion
[ 10718 10713 10712 10709 ] final    6.23 input   66.30 | X-H torsion
[ 10763 10752 10751 10750 ] final   28.91 input  -60.55 | X-H torsion
[ 11005 11000 10999 10996 ] final  -28.30 input  -57.11 | X-H torsion

> <Gold.Protein.ActiveResidues>
 VAL166  LYS551  ARG553  GLY616  TRP617  ASP618  TYR619  PRO620  LYS621  CYS622 
 ASP623  PHE694  ASN695  SER759  ASP760  ASP761  ALA762  ILE779  LEU786  VAL792 
 PHE793  MET794  SER795  GLU796  ALA797  LYS798  CYS799  TRP800  GLU811  SER814 

> <Gold.Protein.RotatedAtoms>
  151.9724  133.3730  159.4075 H   0  0  0  0  0  0  0  0  0  0  0  0  # atno 6907 bound_to 6896
  150.6947  134.4126  159.5178 H   0  0  0  0  0  0  0  0  0  0  0  0  # atno 6908 bound_to 6896
  152.1832  134.8736  160.0575 H   0  0  0  0  0  0  0  0  0  0  0  0  # atno 6909 bound_to 6896
  145.9748  140.7345  142.9392 H   0  0  0  0  0  0  0  0  0  0  0  0  # atno 7974 bound_to 7965
  156.1916  140.3073  155.9344 H   0  0  0  0  0  0  0  0  0  0  0  0  # atno 8008 bound_to 7997
  155.3161  140.0453  157.3054 H   0  0  0  0  0  0  0  0  0  0  0  0  # atno 8009 bound_to 7997
  154.5459  140.2276  155.8573 H   0  0  0  0  0  0  0  0  0  0  0  0  # atno 8010 bound_to 7997
  140.7069  143.5930  150.8874 H   0  0  0  0  0  0  0  0  0  0  0  0  # atno 10167 bound_to 10162
  156.9191  130.5784  149.5647 H   0  0  0  0  0  0  0  0  0  0  0  0  # atno 10718 bound_to 10713
  153.0462  135.6502  154.0810 H   0  0  0  0  0  0  0  0  0  0  0  0  # atno 10763 bound_to 10752
  154.0507  135.2896  155.3342 H   0  0  0  0  0  0  0  0  0  0  0  0  # atno 10764 bound_to 10752
  154.6722  135.5352  153.8218 H   0  0  0  0  0  0  0  0  0  0  0  0  # atno 10765 bound_to 10752
  140.9196  133.7407  156.0783 H   0  0  0  0  0  0  0  0  0  0  0  0  # atno 11005 bound_to 11000
  144.6846  140.2809  143.7292 LP  0  0  0  0  0  0  0  0  0  0  0  0  # atno 17320 bound_to 7965
  145.7854  139.1907  143.2133 LP  0  0  0  0  0  0  0  0  0  0  0  0  # atno 17321 bound_to 7965
  139.9655  143.6115  152.2989 LP  0  0  0  0  0  0  0  0  0  0  0  0  # atno 17342 bound_to 10162
  139.6683  144.7661  151.1831 LP  0  0  0  0  0  0  0  0  0  0  0  0  # atno 17343 bound_to 10162
  156.0499  130.5570  150.8966 LP  0  0  0  0  0  0  0  0  0  0  0  0  # atno 17370 bound_to 10713
  157.5919  131.0944  150.9105 LP  0  0  0  0  0  0  0  0  0  0  0  0  # atno 17371 bound_to 10713
  140.8005  134.3514  157.5440 LP  0  0  0  0  0  0  0  0  0  0  0  0  # atno 17394 bound_to 11000
  139.8773  134.9195  156.3228 LP  0  0  0  0  0  0  0  0  0  0  0  0  # atno 17395 bound_to 11000

$$$$
