AV-unprocessed.smi:3264|AV-procd|sdf|12494|dock7
  -GOLD-   2272018393D 1   1.00000     0.00000
 Structure written by MMmdl.
 32 33  0  0  0  0  0  0  0  0  1 V2000
  152.9025  143.0546  161.4245 C   0  0  0  0  0  0  0  0  0  0  0  0
  152.2359  143.1220  160.0935 C   0  0  0  0  0  0  0  0  0  0  0  0
  151.9749  142.0473  159.3450 N   0  0  0  0  0  0  0  0  0  0  0  0
  151.3405  142.3708  158.1412 C   0  0  0  0  0  0  0  0  0  0  0  0
  150.9679  141.2863  157.1764 C   0  0  0  0  0  0  0  0  0  0  0  0
  151.5696  139.9271  157.5703 C   0  0  0  0  0  0  0  0  0  0  0  0
  151.1571  138.8696  156.6547 N   0  0  0  0  0  0  0  0  0  0  0  0
  151.1457  138.9677  155.3165 C   0  0  0  0  0  0  0  0  0  0  0  0
  151.4846  139.9854  154.7113 O   0  0  0  0  0  0  0  0  0  0  0  0
  150.6675  137.7295  154.5496 C   0  0  2  0  0  0  0  0  0  0  0  0
  149.2464  137.2646  154.9220 C   0  0  0  0  0  0  0  0  0  0  0  0
  149.4688  135.9275  155.6029 C   0  0  0  0  0  0  0  0  0  0  0  0
  150.7612  135.4531  154.9544 C   0  0  0  0  0  0  0  0  0  0  0  0
  151.5298  136.6426  154.8781 O   0  0  0  0  0  0  0  0  0  0  0  0
  151.1214  143.7173  157.9899 C   0  0  0  0  0  0  0  0  0  0  0  0
  151.7059  144.6283  159.3552 S   0  0  0  0  0  0  0  0  0  0  0  0
  153.5868  142.2064  161.4655 H   0  0  0  0  0  0  0  0  0  0  0  0
  152.1547  142.9416  162.2093 H   0  0  0  0  0  0  0  0  0  0  0  0
  153.4685  143.9679  161.6081 H   0  0  0  0  0  0  0  0  0  0  0  0
  149.8819  141.2043  157.1177 H   0  0  0  0  0  0  0  0  0  0  0  0
  151.3006  141.5537  156.1727 H   0  0  0  0  0  0  0  0  0  0  0  0
  152.6584  139.9826  157.5498 H   0  0  0  0  0  0  0  0  0  0  0  0
  151.2915  139.6673  158.5932 H   0  0  0  0  0  0  0  0  0  0  0  0
  150.8533  137.9998  157.0682 H   0  0  0  0  0  0  0  0  0  0  0  0
  150.7209  137.9093  153.4745 H   0  0  0  0  0  0  0  0  0  0  0  0
  148.7002  137.9599  155.5606 H   0  0  0  0  0  0  0  0  0  0  0  0
  148.6565  137.1275  154.0149 H   0  0  0  0  0  0  0  0  0  0  0  0
  149.6210  136.0731  156.6732 H   0  0  0  0  0  0  0  0  0  0  0  0
  148.6404  135.2323  155.4644 H   0  0  0  0  0  0  0  0  0  0  0  0
  151.2684  134.6822  155.5347 H   0  0  0  0  0  0  0  0  0  0  0  0
  150.5775  135.0689  153.9499 H   0  0  0  0  0  0  0  0  0  0  0  0
  150.6510  144.2266  157.1617 H   0  0  0  0  0  0  0  0  0  0  0  0
  1  2  1  0  0  0  0
  1 17  1  0  0  0  0
  1 18  1  0  0  0  0
  1 19  1  0  0  0  0
  2 16  1  0  0  0  0
  2  3  2  0  0  0  0
  3  4  1  0  0  0  0
  4  5  1  0  0  0  0
  4 15  2  0  0  0  0
  5  6  1  0  0  0  0
  5 20  1  0  0  0  0
  5 21  1  0  0  0  0
  6  7  1  0  0  0  0
  6 22  1  0  0  0  0
  6 23  1  0  0  0  0
  7  8  1  0  0  0  0
  7 24  1  0  0  0  0
  8  9  2  0  0  0  0
  8 10  1  0  0  0  0
 10 14  1  0  0  0  0
 10 11  1  0  0  0  0
 10 25  1  0  0  0  0
 11 12  1  0  0  0  0
 11 26  1  0  0  0  0
 11 27  1  0  0  0  0
 12 13  1  0  0  0  0
 12 28  1  0  0  0  0
 12 29  1  0  0  0  0
 13 14  1  0  0  0  0
 13 30  1  0  0  0  0
 13 31  1  0  0  0  0
 15 16  1  0  0  0  0
 15 32  1  0  0  0  0
M  END
> <s_m_source_file>
AV-unprocessed.smi

> <i_m_source_file_index>
3264

> <i_lp_mmshare_version>
43012

> <i_f3d_flags>
0

> <s_epik_input>
W0NIM11jMW5jKFtjSF1zMSlbQ0gyXVtDSDJdW05IXUMoPU8pW0NAQEhdMltDSDJdW0NIMl1bQ0gyXU8y

> <s_epik_cmdline>
J2VwaWtfcHl0aG9uJywgJy1waCcsICc3LjAnLCAnLXRuJywgJzgnLCAnLW1hJywgJzIwMCcsICctbWV0YWxfYmluZGluZycsICctaW1hZScsICc8aW5maWxlLm1hZT4nLCAnLW9tYWUnLCAnPG91dGZpbGUubWFlPic=

> <r_epik_Ionization_Penalty>
0.00112246

> <r_epik_Ionization_Penalty_Charging>
0

> <r_epik_Ionization_Penalty_Neutral>
0.00112246

> <r_epik_State_Penalty>
0.000737392

> <r_epik_Charging_Adjusted_Penalty>
0.000737392

> <i_epik_Tot_Q>
0

> <i_epik_Tot_abs_Q>
0

> <r_epik_Metal_State_Penalty>
-0

> <b_epik_Metal_Only>
0

> <s_lp_Force_Field>
OPLS_2005

> <r_lp_Energy>
12.7546

> <b_lp_Chiralities_Consistent>
1

> <s_lp_Variant>
AV-unprocessed.smi:3264-1

> <Gold.Version>
5.8.1

> <Gold.Id.Protein>
6NUR|6NUR_protein|mol2

> <Gold.PLP.Fitness>
41.0748

> <Gold.PLP.PLP>
-32.5731

> <Gold.PLP.part.hbond>
-1.9013

> <Gold.PLP.part.metal>
0.0000

> <Gold.PLP.part.buried>
-4.9020

> <Gold.PLP.part.nonpolar>
-27.3045

> <Gold.PLP.part.repulsive>
0.2367

> <Gold.PLP.ligand.clash>
0.0000

> <Gold.PLP.ligand.torsion>
0.1807

> <Gold.PLP.Chemscore.Hbond>
1.9500

> <Gold.PLP.Chemscore.CHOScore>
1.0000

> <Gold.PLP.Chemscore.Metal>
0.0000

> <Gold.Chemscore.Hbonds>
donor molecule, donor type, donor heavy atom, donor atom, acceptor molecule, acceptor atom, score
      P1  H  7989  7998       L1     9  0.93
      P1  H 10752 10765       L1    14  0.50
      L1  C    15    32       P1  8028  1.00

> <Gold.PLP.Chemscore.Internal.Correction>
0.0131

> <Gold.Rescore>
     Score         DG    S(hbond)    S(metal)    S(lipo)     H(rot)  DE(clash)    DE(int)     intcor
     16.14     -17.68       1.75        0.00      87.43       1.52       0.05       1.48       ----

> <Gold.Chemscore.Fitness>
16.1402

> <Gold.Chemscore.DG>
-17.6764

> <Gold.Chemscore.ZeroCoef>
-5.4800

> <Gold.Chemscore.Hbond>
1.7507

> <Gold.Chemscore.Metal>
0.0000

> <Gold.Chemscore.Lipo>
87.4333

> <Gold.Chemscore.Internal_Hbond>
0.0000

> <Gold.Chemscore.DEClash>
0.0515

> <Gold.Chemscore.DEInternal>
1.4846

> <Gold.Chemscore.Rot>
1.5159

> <Gold.Chemscore.Internal.Correction>
   9.000000E+99

> <Gold.Chemscore.Hbonds>
donor molecule, donor type, donor heavy atom, donor atom, acceptor molecule, acceptor atom, score
      P1  H  7989  7998       L1     9  0.88
      P1  H 10752 10765       L1    14  0.02

> <Gold.Chemscore.Hbond.Weighted>
-5.8474

> <Gold.Chemscore.Metal.Weighted>
-0.0000

> <Gold.Chemscore.Lipo.Weighted>
-10.2297

> <Gold.Chemscore.Internal_Hbond.Weighted>
0.0000

> <Gold.Chemscore.DEClash.Weighted>
0.0515

> <Gold.Chemscore.DEInternal.Weighted>
1.4846

> <Gold.Chemscore.Rot.Weighted>
3.8807

> <Gold.Chemscore.Internal.Correction.Weighted>
   9.000000E+99

> <Gold.Protein.RotatedTorsions>
[ 6907 6896 6895 6894 ] final  176.82 input  -60.11 | X-H torsion
[ 7974 7965 7964 7962 ] final -170.19 input  175.53 | X-H torsion
[ 8008 7997 7996 7995 ] final   -3.79 input   59.86 | X-H torsion
[ 10167 10162 10161 10158 ] final  -88.34 input  -65.29 | X-H torsion
[ 10718 10713 10712 10709 ] final   -3.83 input   66.30 | X-H torsion
[ 10763 10752 10751 10750 ] final  158.39 input  -60.55 | X-H torsion
[ 11005 11000 10999 10996 ] final -140.25 input  -57.11 | X-H torsion

> <Gold.Protein.ActiveResidues>
 VAL166  LYS551  ARG553  GLY616  TRP617  ASP618  TYR619  PRO620  LYS621  CYS622 
 ASP623  PHE694  ASN695  SER759  ASP760  ASP761  ALA762  ILE779  LEU786  VAL792 
 PHE793  MET794  SER795  GLU796  ALA797  LYS798  CYS799  TRP800  GLU811  SER814 

> <Gold.Protein.RotatedAtoms>
  151.7140  133.3313  159.3297 H   0  0  0  0  0  0  0  0  0  0  0  0  # atno 6907 bound_to 6896
  150.7681  134.6507  159.6296 H   0  0  0  0  0  0  0  0  0  0  0  0  # atno 6908 bound_to 6896
  152.3693  134.6760  160.0233 H   0  0  0  0  0  0  0  0  0  0  0  0  # atno 6909 bound_to 6896
  144.7174  140.2109  143.6327 H   0  0  0  0  0  0  0  0  0  0  0  0  # atno 7974 bound_to 7965
  154.6211  140.2500  155.7548 H   0  0  0  0  0  0  0  0  0  0  0  0  # atno 8008 bound_to 7997
  156.2427  140.2926  156.0439 H   0  0  0  0  0  0  0  0  0  0  0  0  # atno 8009 bound_to 7997
  155.1895  140.0391  157.2888 H   0  0  0  0  0  0  0  0  0  0  0  0  # atno 8010 bound_to 7997
  140.3756  143.2773  151.9446 H   0  0  0  0  0  0  0  0  0  0  0  0  # atno 10167 bound_to 10162
  156.7702  130.5297  149.5769 H   0  0  0  0  0  0  0  0  0  0  0  0  # atno 10718 bound_to 10713
  154.2152  135.2784  155.2944 H   0  0  0  0  0  0  0  0  0  0  0  0  # atno 10763 bound_to 10752
  154.5746  135.5608  153.7131 H   0  0  0  0  0  0  0  0  0  0  0  0  # atno 10764 bound_to 10752
  153.0054  135.6330  154.2292 H   0  0  0  0  0  0  0  0  0  0  0  0  # atno 10765 bound_to 10752
  140.8440  134.2367  157.4795 H   0  0  0  0  0  0  0  0  0  0  0  0  # atno 11005 bound_to 11000
  145.8592  139.2214  143.1727 LP  0  0  0  0  0  0  0  0  0  0  0  0  # atno 17320 bound_to 7965
  146.0189  140.8366  142.9933 LP  0  0  0  0  0  0  0  0  0  0  0  0  # atno 17321 bound_to 7965
  139.4799  144.5866  151.7843 LP  0  0  0  0  0  0  0  0  0  0  0  0  # atno 17342 bound_to 10162
  140.4989  144.1199  150.5966 LP  0  0  0  0  0  0  0  0  0  0  0  0  # atno 17343 bound_to 10162
  156.1283  130.6159  151.0296 LP  0  0  0  0  0  0  0  0  0  0  0  0  # atno 17370 bound_to 10713
  157.6694  131.0864  150.7648 LP  0  0  0  0  0  0  0  0  0  0  0  0  # atno 17371 bound_to 10713
  139.8703  134.9650  156.4514 LP  0  0  0  0  0  0  0  0  0  0  0  0  # atno 17394 bound_to 11000
  140.8863  133.7880  155.9522 LP  0  0  0  0  0  0  0  0  0  0  0  0  # atno 17395 bound_to 11000

$$$$
