AV-unprocessed.smi:2889|AV-procd|sdf|11112|dock5
  -GOLD-   2272015583D 1   1.00000     0.00000
 Structure written by MMmdl.
 35 36  0  0  0  0  0  0  0  0  2 V2000
  150.7253  144.3884  158.8158 C   0  0  0  0  0  0  0  0  0  0  0  0
  152.0212  144.9424  159.9556 S   0  0  0  0  0  0  0  0  0  0  0  0
  152.3881  143.3887  160.8353 C   0  0  2  0  0  0  0  0  0  0  0  0
  152.9598  143.7013  162.2471 C   0  0  0  0  0  0  0  0  0  0  0  0
  153.3289  142.4380  163.0509 C   0  0  0  0  0  0  0  0  0  0  0  0
  154.2906  141.5667  162.2212 C   0  0  0  0  0  0  0  0  0  0  0  0
  153.7191  141.2299  160.8230 C   0  0  0  0  0  0  0  0  0  0  0  0
  153.3304  142.4805  159.9929 C   0  0  1  0  0  0  0  0  0  0  0  0
  152.6703  142.0647  158.7612 N   0  5  0  0  0  0  0  0  0  0  0  0
  152.3696  140.4927  158.5020 S   0  0  0  0  0  0  0  0  0  0  0  0
  153.5967  139.7072  158.2930 O   0  0  0  0  0  0  0  0  0  0  0  0
  151.3789  139.9430  159.4423 O   0  0  0  0  0  0  0  0  0  0  0  0
  151.5296  140.5745  156.8623 C   0  0  0  0  0  0  0  0  0  0  0  0
  152.0341  139.4795  155.9639 C   0  0  0  0  0  0  0  0  0  0  0  0
  151.2852  138.5025  155.2505 C   0  0  0  0  0  0  0  0  0  0  0  0
  152.2418  137.7767  154.6018 C   0  0  0  0  0  0  0  0  0  0  0  0
  153.4771  138.2660  154.8764 O   0  0  0  0  0  0  0  0  0  0  0  0
  153.3343  139.3549  155.7439 N   0  0  0  0  0  0  0  0  0  0  0  0
  150.4133  145.2142  158.1767 H   0  0  0  0  0  0  0  0  0  0  0  0
  149.8538  144.0306  159.3627 H   0  0  0  0  0  0  0  0  0  0  0  0
  151.0957  143.5830  158.1817 H   0  0  0  0  0  0  0  0  0  0  0  0
  151.4425  142.8599  160.9659 H   0  0  0  0  0  0  0  0  0  0  0  0
  153.8411  144.3402  162.1608 H   0  0  0  0  0  0  0  0  0  0  0  0
  152.2342  144.2779  162.8201 H   0  0  0  0  0  0  0  0  0  0  0  0
  153.7861  142.7110  164.0022 H   0  0  0  0  0  0  0  0  0  0  0  0
  152.4261  141.8723  163.2841 H   0  0  0  0  0  0  0  0  0  0  0  0
  155.2515  142.0758  162.1230 H   0  0  0  0  0  0  0  0  0  0  0  0
  154.4978  140.6419  162.7604 H   0  0  0  0  0  0  0  0  0  0  0  0
  154.4496  140.6337  160.2754 H   0  0  0  0  0  0  0  0  0  0  0  0
  152.8433  140.5918  160.9510 H   0  0  0  0  0  0  0  0  0  0  0  0
  154.2408  143.0463  159.7903 H   0  0  0  0  0  0  0  0  0  0  0  0
  150.4560  140.4827  157.0235 H   0  0  0  0  0  0  0  0  0  0  0  0
  151.7181  141.5598  156.4345 H   0  0  0  0  0  0  0  0  0  0  0  0
  150.2157  138.3549  155.2275 H   0  0  0  0  0  0  0  0  0  0  0  0
  152.2048  136.9254  153.9383 H   0  0  0  0  0  0  0  0  0  0  0  0
  1  2  1  0  0  0  0
  1 19  1  0  0  0  0
  1 20  1  0  0  0  0
  1 21  1  0  0  0  0
  2  3  1  0  0  0  0
  3  8  1  0  0  0  0
  3  4  1  0  0  0  0
  3 22  1  0  0  0  0
  4  5  1  0  0  0  0
  4 23  1  0  0  0  0
  4 24  1  0  0  0  0
  5  6  1  0  0  0  0
  5 25  1  0  0  0  0
  5 26  1  0  0  0  0
  6  7  1  0  0  0  0
  6 27  1  0  0  0  0
  6 28  1  0  0  0  0
  7  8  1  0  0  0  0
  7 29  1  0  0  0  0
  7 30  1  0  0  0  0
  8  9  1  0  0  0  0
  8 31  1  0  0  0  0
  9 10  1  0  0  0  0
 10 11  2  0  0  0  0
 10 12  2  0  0  0  0
 10 13  1  0  0  0  0
 13 14  1  0  0  0  0
 13 32  1  0  0  0  0
 13 33  1  0  0  0  0
 14 18  2  0  0  0  0
 14 15  1  0  0  0  0
 15 16  2  0  0  0  0
 15 34  1  0  0  0  0
 16 17  1  0  0  0  0
 16 35  1  0  0  0  0
 17 18  1  0  0  0  0
M  CHG  1   9  -1
M  END
> <s_m_source_file>
AV-unprocessed.smi

> <i_m_source_file_index>
2889

> <i_lp_mmshare_version>
43012

> <i_f3d_flags>
0

> <s_epik_input>
W0NIM11TW0NAQEhdMVtDSDJdW0NIMl1bQ0gyXVtDSDJdW0NASF0xW05IXVMoPU8pKD1PKVtDSDJdYzJbY0hdW2NIXW9uMg==

> <s_epik_cmdline>
J2VwaWtfcHl0aG9uJywgJy1waCcsICc3LjAnLCAnLXRuJywgJzgnLCAnLW1hJywgJzIwMCcsICctbWV0YWxfYmluZGluZycsICctaW1hZScsICc8aW5maWxlLm1hZT4nLCAnLW9tYWUnLCAnPG91dGZpbGUubWFlPic=

> <r_lp_tautomer_probability>
1

> <r_epik_Ionization_Penalty>
4.65467

> <r_epik_Ionization_Penalty_Charging>
4.65467

> <r_epik_Ionization_Penalty_Neutral>
2.71476e-10

> <r_epik_State_Penalty>
4.65444

> <r_epik_Charging_Adjusted_Penalty>
9.30911

> <i_epik_Tot_Q>
-1

> <i_epik_Tot_abs_Q>
1

> <r_epik_Metal_State_Penalty>
0.901484

> <b_epik_Metal_Only>
1

> <s_lp_Force_Field>
OPLS_2005

> <r_lp_Energy>
8.40565

> <b_lp_Chiralities_Consistent>
1

> <s_lp_Variant>
AV-unprocessed.smi:2889-5

> <Gold.Version>
5.8.1

> <Gold.Id.Protein>
6NUR|6NUR_protein|mol2

> <Gold.PLP.Fitness>
50.3591

> <Gold.PLP.PLP>
-44.7657

> <Gold.PLP.part.hbond>
-2.1753

> <Gold.PLP.part.metal>
0.0000

> <Gold.PLP.part.buried>
-4.3380

> <Gold.PLP.part.nonpolar>
-37.5051

> <Gold.PLP.part.repulsive>
0.0278

> <Gold.PLP.ligand.clash>
0.0000

> <Gold.PLP.ligand.torsion>
1.2743

> <Gold.PLP.Chemscore.Hbond>
1.3760

> <Gold.PLP.Chemscore.CHOScore>
1.0000

> <Gold.PLP.Chemscore.Metal>
0.0000

> <Gold.Chemscore.Hbonds>
donor molecule, donor type, donor heavy atom, donor atom, acceptor molecule, acceptor atom, score
      P1  H  7997  8008       L1    11  0.67
      P1  H  7997  8009       L1    18  0.67
      L1  C    16    35       P1  7949  0.29

> <Gold.PLP.Chemscore.Internal.Correction>
1.0141

> <Gold.Rescore>
     Score         DG    S(hbond)    S(metal)    S(lipo)     H(rot)  DE(clash)    DE(int)     intcor
     15.12     -20.04       1.43        0.00     116.98       1.53       0.65       4.27       ----

> <Gold.Chemscore.Fitness>
15.1168

> <Gold.Chemscore.DG>
-20.0390

> <Gold.Chemscore.ZeroCoef>
-5.4800

> <Gold.Chemscore.Hbond>
1.4349

> <Gold.Chemscore.Metal>
0.0000

> <Gold.Chemscore.Lipo>
116.9837

> <Gold.Chemscore.Internal_Hbond>
0.0000

> <Gold.Chemscore.DEClash>
0.6514

> <Gold.Chemscore.DEInternal>
4.2708

> <Gold.Chemscore.Rot>
1.5314

> <Gold.Chemscore.Internal.Correction>
   9.000000E+99

> <Gold.Chemscore.Hbonds>
donor molecule, donor type, donor heavy atom, donor atom, acceptor molecule, acceptor atom, score
      P1  H  7997  8008       L1    11  0.68
      P1  H  7997  8009       L1    18  0.51

> <Gold.Chemscore.Hbond.Weighted>
-4.7924

> <Gold.Chemscore.Metal.Weighted>
-0.0000

> <Gold.Chemscore.Lipo.Weighted>
-13.6871

> <Gold.Chemscore.Internal_Hbond.Weighted>
0.0000

> <Gold.Chemscore.DEClash.Weighted>
0.6514

> <Gold.Chemscore.DEInternal.Weighted>
4.2708

> <Gold.Chemscore.Rot.Weighted>
3.9205

> <Gold.Chemscore.Internal.Correction.Weighted>
   9.000000E+99

> <Gold.Protein.RotatedTorsions>
[ 6907 6896 6895 6894 ] final   15.96 input  -60.11 | X-H torsion
[ 7974 7965 7964 7962 ] final -151.60 input  175.53 | X-H torsion
[ 8008 7997 7996 7995 ] final -121.90 input   59.86 | X-H torsion
[ 10167 10162 10161 10158 ] final  -43.61 input  -65.29 | X-H torsion
[ 10718 10713 10712 10709 ] final  141.60 input   66.30 | X-H torsion
[ 10763 10752 10751 10750 ] final  174.47 input  -60.55 | X-H torsion
[ 11005 11000 10999 10996 ] final  -70.41 input  -57.11 | X-H torsion

> <Gold.Protein.ActiveResidues>
 VAL166  LYS551  ARG553  GLY616  TRP617  ASP618  TYR619  PRO620  LYS621  CYS622 
 ASP623  PHE694  ASN695  SER759  ASP760  ASP761  ALA762  ILE779  LEU786  VAL792 
 PHE793  MET794  SER795  GLU796  ALA797  LYS798  CYS799  TRP800  GLU811  SER814 

> <Gold.Protein.RotatedAtoms>
  151.8263  135.0636  160.0431 H   0  0  0  0  0  0  0  0  0  0  0  0  # atno 6907 bound_to 6896
  152.2914  133.5560  159.5568 H   0  0  0  0  0  0  0  0  0  0  0  0  # atno 6908 bound_to 6896
  150.7231  134.0340  159.3785 H   0  0  0  0  0  0  0  0  0  0  0  0  # atno 6909 bound_to 6896
  144.7841  140.4776  143.5819 H   0  0  0  0  0  0  0  0  0  0  0  0  # atno 7974 bound_to 7965
  155.1555  140.0404  157.2831 H   0  0  0  0  0  0  0  0  0  0  0  0  # atno 8008 bound_to 7997
  154.6373  140.2538  155.7336 H   0  0  0  0  0  0  0  0  0  0  0  0  # atno 8009 bound_to 7997
  156.2515  140.2863  156.0751 H   0  0  0  0  0  0  0  0  0  0  0  0  # atno 8010 bound_to 7997
  140.6927  143.2973  151.3377 H   0  0  0  0  0  0  0  0  0  0  0  0  # atno 10167 bound_to 10162
  157.3901  131.1003  151.0654 H   0  0  0  0  0  0  0  0  0  0  0  0  # atno 10718 bound_to 10713
  154.4544  135.2765  155.1758 H   0  0  0  0  0  0  0  0  0  0  0  0  # atno 10763 bound_to 10752
  154.3572  135.6137  153.5676 H   0  0  0  0  0  0  0  0  0  0  0  0  # atno 10764 bound_to 10752
  152.9849  135.5825  154.4894 H   0  0  0  0  0  0  0  0  0  0  0  0  # atno 10765 bound_to 10752
  141.1573  133.6789  156.6749 H   0  0  0  0  0  0  0  0  0  0  0  0  # atno 11005 bound_to 11000
  145.5970  139.1500  143.3150 LP  0  0  0  0  0  0  0  0  0  0  0  0  # atno 17320 bound_to 7965
  146.2064  140.6093  142.9079 LP  0  0  0  0  0  0  0  0  0  0  0  0  # atno 17321 bound_to 7965
  139.6348  144.0652  152.2506 LP  0  0  0  0  0  0  0  0  0  0  0  0  # atno 17342 bound_to 10162
  140.0138  144.6204  150.7624 LP  0  0  0  0  0  0  0  0  0  0  0  0  # atno 17343 bound_to 10162
  157.1691  130.6259  149.5635 LP  0  0  0  0  0  0  0  0  0  0  0  0  # atno 17370 bound_to 10713
  155.9796  130.4791  150.6726 LP  0  0  0  0  0  0  0  0  0  0  0  0  # atno 17371 bound_to 10713
  140.3147  134.8057  157.4204 LP  0  0  0  0  0  0  0  0  0  0  0  0  # atno 17394 bound_to 11000
  140.1149  134.5297  155.8234 LP  0  0  0  0  0  0  0  0  0  0  0  0  # atno 17395 bound_to 11000

$$$$
