AV-unprocessed.smi:3054|AV-procd|sdf|11639|dock9
  -GOLD-   2272017 33D 1   1.00000     0.00000
 Structure written by MMmdl.
 40 41  0  0  0  0  0  0  0  0  2 V2000
  146.9198  142.1301  153.8211 C   0  0  0  0  0  0  0  0  0  0  0  0
  146.6051  140.7466  154.4116 C   0  0  0  0  0  0  0  0  0  0  0  0
  147.4450  139.5824  153.8184 C   0  0  2  0  0  0  0  0  0  0  0  0
  147.0632  138.2099  154.4293 C   0  0  0  0  0  0  0  0  0  0  0  0
  146.9629  137.1679  153.4121 N   0  0  0  0  0  0  0  0  0  0  0  0
  145.8154  136.6984  152.9042 C   0  0  0  0  0  0  0  0  0  0  0  0
  144.7041  137.0974  153.2514 O   0  0  0  0  0  0  0  0  0  0  0  0
  146.0431  135.7510  151.9804 N   0  0  0  0  0  0  0  0  0  0  0  0
  145.0770  135.0315  151.2338 C   0  0  0  0  0  0  0  0  0  0  0  0
  145.1134  133.6827  150.7722 C   0  0  0  0  0  0  0  0  0  0  0  0
  144.0117  133.3753  150.1023 N   0  0  0  0  0  0  0  0  0  0  0  0
  143.2758  134.5090  150.1313 N   0  0  0  0  0  0  0  0  0  0  0  0
  143.8863  135.5409  150.8091 C   0  0  0  0  0  0  0  0  0  0  0  0
  148.9083  139.8542  153.9381 N   0  3  0  0  0  0  0  0  0  0  0  0
  149.3104  140.7605  155.0359 C   0  0  0  0  0  0  0  0  0  0  0  0
  150.7970  140.4954  155.2422 C   0  0  0  0  0  0  0  0  0  0  0  0
  150.9127  138.9926  155.0154 C   0  0  0  0  0  0  0  0  0  0  0  0
  149.7728  138.6511  154.0457 C   0  0  0  0  0  0  0  0  0  0  0  0
  142.3693  134.5616  149.6887 H   0  0  0  0  0  0  0  0  0  0  0  0
  146.2710  142.8894  154.2581 H   0  0  0  0  0  0  0  0  0  0  0  0
  146.7670  142.1499  152.7420 H   0  0  0  0  0  0  0  0  0  0  0  0
  147.9485  142.4290  154.0224 H   0  0  0  0  0  0  0  0  0  0  0  0
  146.7482  140.7903  155.4916 H   0  0  0  0  0  0  0  0  0  0  0  0
  145.5411  140.5473  154.2867 H   0  0  0  0  0  0  0  0  0  0  0  0
  147.2203  139.5320  152.7516 H   0  0  0  0  0  0  0  0  0  0  0  0
  147.8176  137.8773  155.1423 H   0  0  0  0  0  0  0  0  0  0  0  0
  146.1297  138.3006  154.9874 H   0  0  0  0  0  0  0  0  0  0  0  0
  147.8286  136.7783  153.0687 H   0  0  0  0  0  0  0  0  0  0  0  0
  147.0071  135.5188  151.7914 H   0  0  0  0  0  0  0  0  0  0  0  0
  145.8771  132.9289  150.8920 H   0  0  0  0  0  0  0  0  0  0  0  0
  143.4331  136.5145  150.9246 H   0  0  0  0  0  0  0  0  0  0  0  0
  149.1134  141.8062  154.7970 H   0  0  0  0  0  0  0  0  0  0  0  0
  148.7619  140.5063  155.9448 H   0  0  0  0  0  0  0  0  0  0  0  0
  151.3775  141.0305  154.4895 H   0  0  0  0  0  0  0  0  0  0  0  0
  151.1515  140.8054  156.2258 H   0  0  0  0  0  0  0  0  0  0  0  0
  151.8916  138.7054  154.6301 H   0  0  0  0  0  0  0  0  0  0  0  0
  150.7611  138.4667  155.9592 H   0  0  0  0  0  0  0  0  0  0  0  0
  149.2207  137.7889  154.4227 H   0  0  0  0  0  0  0  0  0  0  0  0
  150.1552  138.3949  153.0572 H   0  0  0  0  0  0  0  0  0  0  0  0
  149.1893  140.3201  153.0869 H   0  0  0  0  0  0  0  0  0  0  0  0
  1  2  1  0  0  0  0
  1 20  1  0  0  0  0
  1 21  1  0  0  0  0
  1 22  1  0  0  0  0
  2  3  1  0  0  0  0
  2 23  1  0  0  0  0
  2 24  1  0  0  0  0
  3  4  1  0  0  0  0
  3 14  1  0  0  0  0
  3 25  1  0  0  0  0
  4  5  1  0  0  0  0
  4 26  1  0  0  0  0
  4 27  1  0  0  0  0
  5  6  1  0  0  0  0
  5 28  1  0  0  0  0
  6  7  2  0  0  0  0
  6  8  1  0  0  0  0
  8  9  1  0  0  0  0
  8 29  1  0  0  0  0
  9 13  2  0  0  0  0
  9 10  1  0  0  0  0
 10 11  2  0  0  0  0
 10 30  1  0  0  0  0
 11 12  1  0  0  0  0
 12 19  1  0  0  0  0
 12 13  1  0  0  0  0
 13 31  1  0  0  0  0
 14 18  1  0  0  0  0
 14 15  1  0  0  0  0
 14 40  1  0  0  0  0
 15 16  1  0  0  0  0
 15 32  1  0  0  0  0
 15 33  1  0  0  0  0
 16 17  1  0  0  0  0
 16 34  1  0  0  0  0
 16 35  1  0  0  0  0
 17 18  1  0  0  0  0
 17 36  1  0  0  0  0
 17 37  1  0  0  0  0
 18 38  1  0  0  0  0
 18 39  1  0  0  0  0
M  CHG  1  14   1
M  END
> <s_m_source_file>
AV-unprocessed.smi

> <i_m_source_file_index>
3054

> <i_lp_mmshare_version>
43012

> <i_f3d_flags>
0

> <s_epik_input>
W0NIMl0xW0NIMl1bQ0gyXVtDSDJdTjFbQ0BIXShbQ0gyXVtDSDNdKVtDSDJdW05IXUMoPU8pW05IXWMyW2NIXW5bbkhdW2NIXTI=

> <s_epik_cmdline>
J2VwaWtfcHl0aG9uJywgJy1waCcsICc3LjAnLCAnLXRuJywgJzgnLCAnLW1hJywgJzIwMCcsICctbWV0YWxfYmluZGluZycsICctaW1hZScsICc8aW5maWxlLm1hZT4nLCAnLW9tYWUnLCAnPG91dGZpbGUubWFlPic=

> <r_lp_tautomer_probability>
0.5

> <r_epik_Ionization_Penalty>
0.00108132

> <r_epik_Ionization_Penalty_Charging>
0.00104139

> <r_epik_Ionization_Penalty_Neutral>
3.99244e-05

> <r_epik_State_Penalty>
0.00068071

> <r_epik_Charging_Adjusted_Penalty>
0.0017221

> <i_epik_Tot_Q>
1

> <i_epik_Tot_abs_Q>
1

> <r_epik_Metal_State_Penalty>
-0

> <b_epik_Metal_Only>
0

> <s_lp_Force_Field>
OPLS_2005

> <r_lp_Energy>
36.476

> <b_lp_Chiralities_Consistent>
1

> <s_lp_Variant>
AV-unprocessed.smi:3054-1

> <Gold.Version>
5.8.1

> <Gold.Id.Protein>
6NUR|6NUR_protein|mol2

> <Gold.PLP.Fitness>
39.1786

> <Gold.PLP.PLP>
-28.5614

> <Gold.PLP.part.hbond>
-4.0000

> <Gold.PLP.part.metal>
0.0000

> <Gold.PLP.part.buried>
-3.6590

> <Gold.PLP.part.nonpolar>
-21.8752

> <Gold.PLP.part.repulsive>
0.5417

> <Gold.PLP.ligand.clash>
0.0000

> <Gold.PLP.ligand.torsion>
1.8627

> <Gold.PLP.Chemscore.Hbond>
3.7524

> <Gold.PLP.Chemscore.CHOScore>
1.0000

> <Gold.PLP.Chemscore.Metal>
0.0000

> <Gold.Chemscore.Hbonds>
donor molecule, donor type, donor heavy atom, donor atom, acceptor molecule, acceptor atom, score
      L1  H     5    28       P1  7948  1.00
      L1  H     8    29       P1  7948  0.89
      L1  H    12    19       P1 10186  0.59
      L1  H    14    40       P1  7957  0.88
      L1  C    13    31       P1 10171  1.00

> <Gold.PLP.Chemscore.Internal.Correction>
0.0852

> <Gold.Rescore>
     Score         DG    S(hbond)    S(metal)    S(lipo)     H(rot)  DE(clash)    DE(int)     intcor
     16.57     -19.81       3.43        0.00      64.16       1.81       0.88       2.37       ----

> <Gold.Chemscore.Fitness>
16.5687

> <Gold.Chemscore.DG>
-19.8144

> <Gold.Chemscore.ZeroCoef>
-5.4800

> <Gold.Chemscore.Hbond>
3.4310

> <Gold.Chemscore.Metal>
0.0000

> <Gold.Chemscore.Lipo>
64.1638

> <Gold.Chemscore.Internal_Hbond>
0.0000

> <Gold.Chemscore.DEClash>
0.8784

> <Gold.Chemscore.DEInternal>
2.3673

> <Gold.Chemscore.Rot>
1.8094

> <Gold.Chemscore.Internal.Correction>
   9.000000E+99

> <Gold.Chemscore.Hbonds>
donor molecule, donor type, donor heavy atom, donor atom, acceptor molecule, acceptor atom, score
      L1  H     5    28       P1  7948  0.99
      L1  H     8    29       P1  7948  0.81
      L1  H    12    19       P1 10186  0.53
      L1  H    14    40       P1  7957  0.84

> <Gold.Chemscore.Hbond.Weighted>
-11.4594

> <Gold.Chemscore.Metal.Weighted>
-0.0000

> <Gold.Chemscore.Lipo.Weighted>
-7.5072

> <Gold.Chemscore.Internal_Hbond.Weighted>
0.0000

> <Gold.Chemscore.DEClash.Weighted>
0.8784

> <Gold.Chemscore.DEInternal.Weighted>
2.3673

> <Gold.Chemscore.Rot.Weighted>
4.6322

> <Gold.Chemscore.Internal.Correction.Weighted>
   9.000000E+99

> <Gold.Protein.RotatedTorsions>
[ 6907 6896 6895 6894 ] final  105.41 input  -60.11 | X-H torsion
[ 7974 7965 7964 7962 ] final  162.92 input  175.53 | X-H torsion
[ 8008 7997 7996 7995 ] final   74.13 input   59.86 | X-H torsion
[ 10167 10162 10161 10158 ] final   55.58 input  -65.29 | X-H torsion
[ 10718 10713 10712 10709 ] final  -43.58 input   66.30 | X-H torsion
[ 10763 10752 10751 10750 ] final  143.62 input  -60.55 | X-H torsion
[ 11005 11000 10999 10996 ] final  -76.68 input  -57.11 | X-H torsion

> <Gold.Protein.ActiveResidues>
 VAL166  LYS551  ARG553  GLY616  TRP617  ASP618  TYR619  PRO620  LYS621  CYS622 
 ASP623  PHE694  ASN695  SER759  ASP760  ASP761  ALA762  ILE779  LEU786  VAL792 
 PHE793  MET794  SER795  GLU796  ALA797  LYS798  CYS799  TRP800  GLU811  SER814 

> <Gold.Protein.RotatedAtoms>
  152.5231  133.9533  159.7682 H   0  0  0  0  0  0  0  0  0  0  0  0  # atno 6907 bound_to 6896
  150.9839  133.6209  159.2725 H   0  0  0  0  0  0  0  0  0  0  0  0  # atno 6908 bound_to 6896
  151.3377  135.0862  159.9413 H   0  0  0  0  0  0  0  0  0  0  0  0  # atno 6909 bound_to 6896
  144.7614  139.8108  143.6331 H   0  0  0  0  0  0  0  0  0  0  0  0  # atno 7974 bound_to 7965
  155.7938  140.3478  155.5364 H   0  0  0  0  0  0  0  0  0  0  0  0  # atno 8008 bound_to 7997
  155.8607  140.0971  157.1636 H   0  0  0  0  0  0  0  0  0  0  0  0  # atno 8009 bound_to 7997
  154.4012  140.1359  156.3944 H   0  0  0  0  0  0  0  0  0  0  0  0  # atno 8010 bound_to 7997
  140.2180  144.3819  150.6462 H   0  0  0  0  0  0  0  0  0  0  0  0  # atno 10167 bound_to 10162
  156.2475  130.4185  149.8688 H   0  0  0  0  0  0  0  0  0  0  0  0  # atno 10718 bound_to 10713
  153.9754  135.2946  155.3424 H   0  0  0  0  0  0  0  0  0  0  0  0  # atno 10763 bound_to 10752
  154.7299  135.5072  153.8949 H   0  0  0  0  0  0  0  0  0  0  0  0  # atno 10764 bound_to 10752
  153.0880  135.6699  154.0024 H   0  0  0  0  0  0  0  0  0  0  0  0  # atno 10765 bound_to 10752
  141.1655  133.6993  156.7706 H   0  0  0  0  0  0  0  0  0  0  0  0  # atno 11005 bound_to 11000
  146.1680  139.4819  142.9946 LP  0  0  0  0  0  0  0  0  0  0  0  0  # atno 17320 bound_to 7965
  145.6608  141.0241  143.1710 LP  0  0  0  0  0  0  0  0  0  0  0  0  # atno 17321 bound_to 7965
  140.6276  143.2183  151.6564 LP  0  0  0  0  0  0  0  0  0  0  0  0  # atno 17342 bound_to 10162
  139.5155  144.3377  152.0769 LP  0  0  0  0  0  0  0  0  0  0  0  0  # atno 17343 bound_to 10162
  156.6248  130.8641  151.3483 LP  0  0  0  0  0  0  0  0  0  0  0  0  # atno 17370 bound_to 10713
  157.7201  130.9547  150.1405 LP  0  0  0  0  0  0  0  0  0  0  0  0  # atno 17371 bound_to 10713
  140.2467  134.8572  157.3627 LP  0  0  0  0  0  0  0  0  0  0  0  0  # atno 17394 bound_to 11000
  140.1743  134.4570  155.7812 LP  0  0  0  0  0  0  0  0  0  0  0  0  # atno 17395 bound_to 11000

$$$$
