AV-unprocessed.smi:828|AV-procd|sdf|3859|dock6
  -GOLD-   22720 1313D 1   1.00000     0.00000
 Structure written by MMmdl.
 35 36  0  0  0  0  0  0  0  0  2 V2000
  150.8922  131.7514  156.5815 C   0  0  0  0  0  0  0  0  0  0  0  0
  149.8369  132.2820  155.6724 C   0  0  0  0  0  0  0  0  0  0  0  0
  148.6607  131.6690  155.4919 N   0  0  0  0  0  0  0  0  0  0  0  0
  147.8432  132.3504  154.6010 N   0  0  0  0  0  0  0  0  0  0  0  0
  148.4302  133.4605  154.1332 C   0  0  0  0  0  0  0  0  0  0  0  0
  147.8186  134.3457  153.2062 N   0  0  0  0  0  0  0  0  0  0  0  0
  146.5294  134.3944  152.8272 C   0  0  0  0  0  0  0  0  0  0  0  0
  145.6373  133.6524  153.2389 O   0  0  0  0  0  0  0  0  0  0  0  0
  146.3241  135.3659  151.9255 N   0  0  0  0  0  0  0  0  0  0  0  0
  145.0390  135.6997  151.3166 C   0  0  0  0  0  0  0  0  0  0  0  0
  144.4565  134.5151  150.5054 C   0  0  1  0  0  0  0  0  0  0  0  0
  145.4698  133.4003  150.2018 C   0  0  0  0  0  0  0  0  0  0  0  0
  144.6016  132.1666  150.0034 C   0  0  0  0  0  0  0  0  0  0  0  0
  143.5059  132.3712  151.0442 C   0  0  0  0  0  0  0  0  0  0  0  0
  143.2682  133.8315  151.1004 N   0  3  1  0  0  0  0  0  0  0  0  0
  142.7915  134.2929  152.4255 C   0  0  0  0  0  0  0  0  0  0  0  0
  150.0467  133.7637  154.7469 S   0  0  0  0  0  0  0  0  0  0  0  0
  150.4556  131.0879  157.3287 H   0  0  0  0  0  0  0  0  0  0  0  0
  151.3920  132.5724  157.0959 H   0  0  0  0  0  0  0  0  0  0  0  0
  151.6326  131.1946  156.0072 H   0  0  0  0  0  0  0  0  0  0  0  0
  148.4366  135.0245  152.7864 H   0  0  0  0  0  0  0  0  0  0  0  0
  147.1161  135.9268  151.6468 H   0  0  0  0  0  0  0  0  0  0  0  0
  144.3355  136.0357  152.0802 H   0  0  0  0  0  0  0  0  0  0  0  0
  145.2167  136.5521  150.6610 H   0  0  0  0  0  0  0  0  0  0  0  0
  144.1067  134.9077  149.5494 H   0  0  0  0  0  0  0  0  0  0  0  0
  146.0954  133.6199  149.3361 H   0  0  0  0  0  0  0  0  0  0  0  0
  146.1261  133.2416  151.0586 H   0  0  0  0  0  0  0  0  0  0  0  0
  144.1738  132.1656  148.9998 H   0  0  0  0  0  0  0  0  0  0  0  0
  145.1493  131.2339  150.1413 H   0  0  0  0  0  0  0  0  0  0  0  0
  142.5931  131.8253  150.8044 H   0  0  0  0  0  0  0  0  0  0  0  0
  143.8630  132.0168  152.0130 H   0  0  0  0  0  0  0  0  0  0  0  0
  143.5522  134.1561  153.1950 H   0  0  0  0  0  0  0  0  0  0  0  0
  141.9103  133.7236  152.7229 H   0  0  0  0  0  0  0  0  0  0  0  0
  142.5020  135.3433  152.3971 H   0  0  0  0  0  0  0  0  0  0  0  0
  142.5122  134.0136  150.4557 H   0  0  0  0  0  0  0  0  0  0  0  0
  1  2  1  0  0  0  0
  1 18  1  0  0  0  0
  1 19  1  0  0  0  0
  1 20  1  0  0  0  0
  2 17  1  0  0  0  0
  2  3  2  0  0  0  0
  3  4  1  0  0  0  0
  4  5  2  0  0  0  0
  5  6  1  0  0  0  0
  5 17  1  0  0  0  0
  6  7  1  0  0  0  0
  6 21  1  0  0  0  0
  7  8  2  0  0  0  0
  7  9  1  0  0  0  0
  9 10  1  0  0  0  0
  9 22  1  0  0  0  0
 10 11  1  0  0  0  0
 10 23  1  0  0  0  0
 10 24  1  0  0  0  0
 11 15  1  0  0  0  0
 11 12  1  0  0  0  0
 11 25  1  0  0  0  0
 12 13  1  0  0  0  0
 12 26  1  0  0  0  0
 12 27  1  0  0  0  0
 13 14  1  0  0  0  0
 13 28  1  0  0  0  0
 13 29  1  0  0  0  0
 14 15  1  0  0  0  0
 14 30  1  0  0  0  0
 14 31  1  0  0  0  0
 15 16  1  0  0  0  0
 15 35  1  0  0  0  0
 16 32  1  0  0  0  0
 16 33  1  0  0  0  0
 16 34  1  0  0  0  0
M  CHG  1  15   1
M  END
> <s_m_source_file>
AV-unprocessed.smi

> <i_m_source_file_index>
828

> <i_lp_mmshare_version>
43012

> <i_f3d_flags>
0

> <s_epik_input>
W0NIM11jMW5uYyhzMSlbTkhdQyg9TylbTkhdW0NIMl1bQ0BASF0yW0NIMl1bQ0gyXVtDSDJdTjJbQ0gzXQ==

> <s_epik_cmdline>
J2VwaWtfcHl0aG9uJywgJy1waCcsICc3LjAnLCAnLXRuJywgJzgnLCAnLW1hJywgJzIwMCcsICctbWV0YWxfYmluZGluZycsICctaW1hZScsICc8aW5maWxlLm1hZT4nLCAnLW9tYWUnLCAnPG91dGZpbGUubWFlPic=

> <r_lp_tautomer_probability>
1

> <r_epik_Ionization_Penalty>
0.00466477

> <r_epik_Ionization_Penalty_Charging>
0.00372199

> <r_epik_Ionization_Penalty_Neutral>
0.000942783

> <r_epik_State_Penalty>
-0

> <r_epik_Charging_Adjusted_Penalty>
0.00372199

> <i_epik_Tot_Q>
1

> <i_epik_Tot_abs_Q>
1

> <r_epik_Metal_State_Penalty>
0.28212

> <b_epik_Metal_Only>
0

> <s_lp_Force_Field>
OPLS_2005

> <r_lp_Energy>
28.4237

> <b_lp_Chiralities_Consistent>
1

> <s_lp_Variant>
AV-unprocessed.smi:828-2

> <Gold.Version>
5.8.1

> <Gold.Id.Protein>
6NUR|6NUR_protein|mol2

> <Gold.PLP.Fitness>
38.8239

> <Gold.PLP.PLP>
-28.4389

> <Gold.PLP.part.hbond>
-3.0000

> <Gold.PLP.part.metal>
0.0000

> <Gold.PLP.part.buried>
-2.2190

> <Gold.PLP.part.nonpolar>
-22.6767

> <Gold.PLP.part.repulsive>
0.1521

> <Gold.PLP.ligand.clash>
0.0000

> <Gold.PLP.ligand.torsion>
0.7012

> <Gold.PLP.Chemscore.Hbond>
3.9280

> <Gold.PLP.Chemscore.CHOScore>
0.0000

> <Gold.PLP.Chemscore.Metal>
0.0000

> <Gold.Chemscore.Hbonds>
donor molecule, donor type, donor heavy atom, donor atom, acceptor molecule, acceptor atom, score
      L1  H     6    21       P1  7948  1.00
      L1  H     9    22       P1  7948  0.93
      L1  H    15    35       P1 10186  2.00

> <Gold.PLP.Chemscore.Internal.Correction>
0.0034

> <Gold.Rescore>
     Score         DG    S(hbond)    S(metal)    S(lipo)     H(rot)  DE(clash)    DE(int)     intcor
     16.45     -18.49       2.83        0.00      59.50       1.33       0.00       2.04       ----

> <Gold.Chemscore.Fitness>
16.4498

> <Gold.Chemscore.DG>
-18.4899

> <Gold.Chemscore.ZeroCoef>
-5.4800

> <Gold.Chemscore.Hbond>
2.8300

> <Gold.Chemscore.Metal>
0.0000

> <Gold.Chemscore.Lipo>
59.4950

> <Gold.Chemscore.Internal_Hbond>
0.0000

> <Gold.Chemscore.DEClash>
0.0000

> <Gold.Chemscore.DEInternal>
2.0401

> <Gold.Chemscore.Rot>
1.3294

> <Gold.Chemscore.Internal.Correction>
   9.000000E+99

> <Gold.Chemscore.Hbonds>
donor molecule, donor type, donor heavy atom, donor atom, acceptor molecule, acceptor atom, score
      L1  H     6    21       P1  7948  0.63
      L1  H     9    22       P1  7948  0.90
      L1  H    15    35       P1 10186  0.88

> <Gold.Chemscore.Hbond.Weighted>
-9.4523

> <Gold.Chemscore.Metal.Weighted>
-0.0000

> <Gold.Chemscore.Lipo.Weighted>
-6.9609

> <Gold.Chemscore.Internal_Hbond.Weighted>
0.0000

> <Gold.Chemscore.DEClash.Weighted>
0.0000

> <Gold.Chemscore.DEInternal.Weighted>
2.0401

> <Gold.Chemscore.Rot.Weighted>
3.4033

> <Gold.Chemscore.Internal.Correction.Weighted>
   9.000000E+99

> <Gold.Protein.RotatedTorsions>
[ 6907 6896 6895 6894 ] final -109.43 input  -60.11 | X-H torsion
[ 7974 7965 7964 7962 ] final  -26.88 input  175.53 | X-H torsion
[ 8008 7997 7996 7995 ] final   11.14 input   59.86 | X-H torsion
[ 10167 10162 10161 10158 ] final  109.17 input  -65.29 | X-H torsion
[ 10718 10713 10712 10709 ] final  -24.21 input   66.30 | X-H torsion
[ 10763 10752 10751 10750 ] final  142.08 input  -60.55 | X-H torsion
[ 11005 11000 10999 10996 ] final  -46.03 input  -57.11 | X-H torsion

> <Gold.Protein.ActiveResidues>
 VAL166  LYS551  ARG553  GLY616  TRP617  ASP618  TYR619  PRO620  LYS621  CYS622 
 ASP623  PHE694  ASN695  SER759  ASP760  ASP761  ALA762  ILE779  LEU786  VAL792 
 PHE793  MET794  SER795  GLU796  ALA797  LYS798  CYS799  TRP800  GLU811  SER814 

> <Gold.Protein.RotatedAtoms>
  150.7561  133.9531  159.3491 H   0  0  0  0  0  0  0  0  0  0  0  0  # atno 6907 bound_to 6896
  151.7450  135.0844  160.0331 H   0  0  0  0  0  0  0  0  0  0  0  0  # atno 6908 bound_to 6896
  152.3504  133.6135  159.5976 H   0  0  0  0  0  0  0  0  0  0  0  0  # atno 6909 bound_to 6896
  146.1396  140.5078  142.8658 H   0  0  0  0  0  0  0  0  0  0  0  0  # atno 7974 bound_to 7965
  154.8028  140.2855  155.5909 H   0  0  0  0  0  0  0  0  0  0  0  0  # atno 8008 bound_to 7997
  156.2979  140.2583  156.2830 H   0  0  0  0  0  0  0  0  0  0  0  0  # atno 8009 bound_to 7997
  154.9537  140.0379  157.2146 H   0  0  0  0  0  0  0  0  0  0  0  0  # atno 8010 bound_to 7997
  139.6788  144.7120  151.1553 H   0  0  0  0  0  0  0  0  0  0  0  0  # atno 10167 bound_to 10162
  156.4807  130.4544  149.6813 H   0  0  0  0  0  0  0  0  0  0  0  0  # atno 10718 bound_to 10713
  153.9499  135.2971  155.3439 H   0  0  0  0  0  0  0  0  0  0  0  0  # atno 10763 bound_to 10752
  154.7432  135.5015  153.9161 H   0  0  0  0  0  0  0  0  0  0  0  0  # atno 10764 bound_to 10752
  153.0999  135.6731  153.9800 H   0  0  0  0  0  0  0  0  0  0  0  0  # atno 10765 bound_to 10752
  141.0553  133.6728  156.3097 H   0  0  0  0  0  0  0  0  0  0  0  0  # atno 11005 bound_to 11000
  144.7777  140.5775  143.6626 LP  0  0  0  0  0  0  0  0  0  0  0  0  # atno 17320 bound_to 7965
  145.5077  139.1480  143.3622 LP  0  0  0  0  0  0  0  0  0  0  0  0  # atno 17321 bound_to 7965
  140.7645  143.5731  150.8975 LP  0  0  0  0  0  0  0  0  0  0  0  0  # atno 17342 bound_to 10162
  139.9401  143.6392  152.3055 LP  0  0  0  0  0  0  0  0  0  0  0  0  # atno 17343 bound_to 10162
  156.3524  130.7439  151.2400 LP  0  0  0  0  0  0  0  0  0  0  0  0  # atno 17370 bound_to 10713
  157.7483  131.0373  150.4450 LP  0  0  0  0  0  0  0  0  0  0  0  0  # atno 17371 bound_to 10713
  140.5976  134.5588  157.5511 LP  0  0  0  0  0  0  0  0  0  0  0  0  # atno 17394 bound_to 11000
  139.9385  134.7831  156.0740 LP  0  0  0  0  0  0  0  0  0  0  0  0  # atno 17395 bound_to 11000

$$$$
