AV-unprocessed.smi:72|AV-procd|sdf|704|dock8
  -GOLD-   2262017 23D 1   1.00000     0.00000
 Structure written by MMmdl.
 30 31  0  0  0  0  0  0  0  0  2 V2000
  145.4371  135.6151  150.2929 N   0  0  0  0  0  0  0  0  0  0  0  0
  145.6566  136.4516  151.3674 C   0  0  0  0  0  0  0  0  0  0  0  0
  146.3103  137.6464  151.1286 N   0  3  0  0  0  0  0  0  0  0  0  0
  146.5846  138.5746  152.0551 C   0  0  0  0  0  0  0  0  0  0  0  0
  146.1869  138.3784  153.2984 N   0  0  0  0  0  0  0  0  0  0  0  0
  146.4652  139.3829  154.3953 C   0  0  1  0  0  0  0  0  0  0  0  0
  147.5405  138.9286  155.1526 O   0  0  0  0  0  0  0  0  0  0  0  0
  148.7480  139.4130  154.5797 C   0  0  2  0  0  0  0  0  0  0  0  0
  149.8923  139.3056  155.5979 C   0  0  0  0  0  0  0  0  0  0  0  0
  151.0556  139.9072  155.0711 O   0  0  0  0  0  0  0  0  0  0  0  0
  148.3719  140.8520  154.2181 C   0  0  1  0  0  0  0  0  0  0  0  0
  149.1517  141.2960  153.1263 O   0  0  0  0  0  0  0  0  0  0  0  0
  146.8993  140.7495  153.8188 C   0  0  2  0  0  0  0  0  0  0  0  0
  146.1590  141.8101  154.3870 O   0  0  0  0  0  0  0  0  0  0  0  0
  145.5707  137.1485  153.6506 C   0  0  0  0  0  0  0  0  0  0  0  0
  145.2744  136.9137  154.8213 O   0  0  0  0  0  0  0  0  0  0  0  0
  145.3234  136.2413  152.6103 N   0  0  0  0  0  0  0  0  0  0  0  0
  145.5516  139.4047  154.9924 H   0  0  0  0  0  0  0  0  0  0  0  0
  148.9815  138.8553  153.6701 H   0  0  0  0  0  0  0  0  0  0  0  0
  148.5058  141.5093  155.0794 H   0  0  0  0  0  0  0  0  0  0  0  0
  146.7762  140.7639  152.7347 H   0  0  0  0  0  0  0  0  0  0  0  0
  144.9759  134.7199  150.3749 H   0  0  0  0  0  0  0  0  0  0  0  0
  145.7180  135.8260  149.3459 H   0  0  0  0  0  0  0  0  0  0  0  0
  147.1387  139.4544  151.7563 H   0  0  0  0  0  0  0  0  0  0  0  0
  149.6322  139.8388  156.5128 H   0  0  0  0  0  0  0  0  0  0  0  0
  150.0884  138.2682  155.8705 H   0  0  0  0  0  0  0  0  0  0  0  0
  151.8108  139.4972  155.4653 H   0  0  0  0  0  0  0  0  0  0  0  0
  149.1614  140.6164  152.4691 H   0  0  0  0  0  0  0  0  0  0  0  0
  145.2387  141.6020  154.3313 H   0  0  0  0  0  0  0  0  0  0  0  0
  146.6080  137.8288  150.1808 H   0  0  0  0  0  0  0  0  0  0  0  0
  1  2  1  0  0  0  0
  1 22  1  0  0  0  0
  1 23  1  0  0  0  0
  2 17  2  0  0  0  0
  2  3  1  0  0  0  0
  3  4  2  0  0  0  0
  3 30  1  0  0  0  0
  4  5  1  0  0  0  0
  4 24  1  0  0  0  0
  5  6  1  0  0  0  0
  5 15  1  0  0  0  0
  6 18  1  0  0  0  0
  6 13  1  0  0  0  0
  6  7  1  0  0  0  0
  7  8  1  0  0  0  0
  8 19  1  0  0  0  0
  8  9  1  0  0  0  0
  8 11  1  0  0  0  0
  9 10  1  0  0  0  0
  9 25  1  0  0  0  0
  9 26  1  0  0  0  0
 10 27  1  0  0  0  0
 11 20  1  0  0  0  0
 11 12  1  0  0  0  0
 11 13  1  0  0  0  0
 12 28  1  0  0  0  0
 13 21  1  0  0  0  0
 13 14  1  0  0  0  0
 14 29  1  0  0  0  0
 15 16  2  0  0  0  0
 15 17  1  0  0  0  0
M  CHG  1   3   1
M  END
> <s_m_source_file>
AV-unprocessed.smi

> <i_m_source_file_index>
72

> <i_lp_mmshare_version>
43012

> <i_f3d_flags>
0

> <s_epik_input>
W05IMl1jMW5bY0hdbihjKD1PKW4xKVtDQEBIXTJPW0NASF0oW0NIMl1bT0hdKVtDQEBIXShbT0hdKVtDQEhdMltPSF0=

> <s_epik_cmdline>
J2VwaWtfcHl0aG9uJywgJy1waCcsICc3LjAnLCAnLXRuJywgJzgnLCAnLW1hJywgJzIwMCcsICctbWV0YWxfYmluZGluZycsICctaW1hZScsICc8aW5maWxlLm1hZT4nLCAnLW9tYWUnLCAnPG91dGZpbGUubWFlPic=

> <r_lp_tautomer_probability>
4.77166e-05

> <r_epik_Ionization_Penalty>
0.104979

> <r_epik_Ionization_Penalty_Charging>
0.0999619

> <r_epik_Ionization_Penalty_Neutral>
0.00501745

> <r_epik_State_Penalty>
2.51541

> <r_epik_Charging_Adjusted_Penalty>
2.61537

> <i_epik_Tot_Q>
1

> <i_epik_Tot_abs_Q>
1

> <r_epik_Metal_State_Penalty>
3.53763

> <b_epik_Metal_Only>
0

> <s_epik_Chemistry_Notes>
This compound contains an acetal/aminal-like group ( X-CH(R)-Y where X, Y are N, S, or O) that may be acid/base labile, releasing an aldehyde.

> <s_lp_Force_Field>
OPLS_2005

> <r_lp_Energy>
25.3677

> <b_lp_Chiralities_Consistent>
1

> <s_lp_Variant>
AV-unprocessed.smi:72-42

> <Gold.Version>
5.8.1

> <Gold.Id.Protein>
6NUR|6NUR_protein|mol2

> <Gold.PLP.Fitness>
36.7759

> <Gold.PLP.PLP>
-23.3931

> <Gold.PLP.part.hbond>
-6.2437

> <Gold.PLP.part.metal>
0.0000

> <Gold.PLP.part.buried>
-4.8994

> <Gold.PLP.part.nonpolar>
-14.8313

> <Gold.PLP.part.repulsive>
0.4240

> <Gold.PLP.ligand.clash>
0.0000

> <Gold.PLP.ligand.torsion>
0.3593

> <Gold.PLP.Chemscore.Hbond>
3.6848

> <Gold.PLP.Chemscore.CHOScore>
1.0000

> <Gold.PLP.Chemscore.Metal>
0.0000

> <Gold.Chemscore.Hbonds>
donor molecule, donor type, donor heavy atom, donor atom, acceptor molecule, acceptor atom, score
      L1  H     1    23       P1  7921  0.78
      L1  H    12    28       P1  7957  0.91
      P1  H  7989  7998       L1    10  1.00
      P1  H  8011  8017       L1    12  0.91
      L1  C     4    24       P1  7957  0.91

> <Gold.PLP.Chemscore.Internal.Correction>
0.0472

> <Gold.Rescore>
     Score         DG    S(hbond)    S(metal)    S(lipo)     H(rot)  DE(clash)    DE(int)     intcor
      6.67      -8.06       3.06        0.00      23.85       4.08       0.03       1.36       ----

> <Gold.Chemscore.Fitness>
6.6655

> <Gold.Chemscore.DG>
-8.0565

> <Gold.Chemscore.ZeroCoef>
-5.4800

> <Gold.Chemscore.Hbond>
3.0618

> <Gold.Chemscore.Metal>
0.0000

> <Gold.Chemscore.Lipo>
23.8521

> <Gold.Chemscore.Internal_Hbond>
0.0000

> <Gold.Chemscore.DEClash>
0.0337

> <Gold.Chemscore.DEInternal>
1.3573

> <Gold.Chemscore.Rot>
4.0783

> <Gold.Chemscore.Internal.Correction>
   9.000000E+99

> <Gold.Chemscore.Hbonds>
donor molecule, donor type, donor heavy atom, donor atom, acceptor molecule, acceptor atom, score
      L1  H     1    23       P1  7921  0.73
      L1  H    12    28       P1  7957  0.84
      P1  H  7989  7998       L1    10  0.65
      P1  H  8011  8017       L1    12  0.19

> <Gold.Chemscore.Hbond.Weighted>
-10.2263

> <Gold.Chemscore.Metal.Weighted>
-0.0000

> <Gold.Chemscore.Lipo.Weighted>
-2.7907

> <Gold.Chemscore.Internal_Hbond.Weighted>
0.0000

> <Gold.Chemscore.DEClash.Weighted>
0.0337

> <Gold.Chemscore.DEInternal.Weighted>
1.3573

> <Gold.Chemscore.Rot.Weighted>
10.4404

> <Gold.Chemscore.Internal.Correction.Weighted>
   9.000000E+99

> <Gold.Protein.RotatedTorsions>
[ 6907 6896 6895 6894 ] final  -27.18 input  -60.11 | X-H torsion
[ 7974 7965 7964 7962 ] final   62.07 input  175.53 | X-H torsion
[ 8008 7997 7996 7995 ] final  115.26 input   59.86 | X-H torsion
[ 10167 10162 10161 10158 ] final  142.81 input  -65.29 | X-H torsion
[ 10718 10713 10712 10709 ] final   27.55 input   66.30 | X-H torsion
[ 10763 10752 10751 10750 ] final   -7.36 input  -60.55 | X-H torsion
[ 11005 11000 10999 10996 ] final -155.78 input  -57.11 | X-H torsion

> <Gold.Protein.ActiveResidues>
 VAL166  LYS551  ARG553  GLY616  TRP617  ASP618  TYR619  PRO620  LYS621  CYS622 
 ASP623  PHE694  ASN695  SER759  ASP760  ASP761  ALA762  ILE779  LEU786  VAL792 
 PHE793  MET794  SER795  GLU796  ALA797  LYS798  CYS799  TRP800  GLU811  SER814 

> <Gold.Protein.RotatedAtoms>
  151.1505  135.0225  159.8665 H   0  0  0  0  0  0  0  0  0  0  0  0  # atno 6907 bound_to 6896
  152.5453  134.1394  159.8482 H   0  0  0  0  0  0  0  0  0  0  0  0  # atno 6908 bound_to 6896
  151.1479  133.4881  159.2628 H   0  0  0  0  0  0  0  0  0  0  0  0  # atno 6909 bound_to 6896
  145.8775  139.3420  143.0726 H   0  0  0  0  0  0  0  0  0  0  0  0  # atno 7974 bound_to 7965
  156.2371  140.2942  156.0342 H   0  0  0  0  0  0  0  0  0  0  0  0  # atno 8008 bound_to 7997
  155.2060  140.0411  157.2942 H   0  0  0  0  0  0  0  0  0  0  0  0  # atno 8009 bound_to 7997
  154.6099  140.2449  155.7690 H   0  0  0  0  0  0  0  0  0  0  0  0  # atno 8010 bound_to 7997
  139.4985  144.6082  151.6331 H   0  0  0  0  0  0  0  0  0  0  0  0  # atno 10167 bound_to 10162
  157.2216  130.6981  149.6273 H   0  0  0  0  0  0  0  0  0  0  0  0  # atno 10718 bound_to 10713
  153.4253  135.7011  153.6267 H   0  0  0  0  0  0  0  0  0  0  0  0  # atno 10763 bound_to 10752
  153.4704  135.3716  155.2388 H   0  0  0  0  0  0  0  0  0  0  0  0  # atno 10764 bound_to 10752
  154.8723  135.4041  154.3628 H   0  0  0  0  0  0  0  0  0  0  0  0  # atno 10765 bound_to 10752
  140.6827  134.4127  157.5225 H   0  0  0  0  0  0  0  0  0  0  0  0  # atno 11005 bound_to 11000
  145.9063  140.9209  143.0477 LP  0  0  0  0  0  0  0  0  0  0  0  0  # atno 17320 bound_to 7965
  144.6726  140.1100  143.7456 LP  0  0  0  0  0  0  0  0  0  0  0  0  # atno 17321 bound_to 7965
  140.5749  144.0045  150.6236 LP  0  0  0  0  0  0  0  0  0  0  0  0  # atno 17342 bound_to 10162
  140.3175  143.3158  152.0817 LP  0  0  0  0  0  0  0  0  0  0  0  0  # atno 17343 bound_to 10162
  155.9682  130.4518  150.5749 LP  0  0  0  0  0  0  0  0  0  0  0  0  # atno 17370 bound_to 10713
  157.3569  131.0743  151.1668 LP  0  0  0  0  0  0  0  0  0  0  0  0  # atno 17371 bound_to 10713
  139.8947  134.8701  156.2166 LP  0  0  0  0  0  0  0  0  0  0  0  0  # atno 17394 bound_to 11000
  141.0305  133.6991  156.1421 LP  0  0  0  0  0  0  0  0  0  0  0  0  # atno 17395 bound_to 11000

$$$$
