AV-unprocessed.smi:1419|AV-procd|sdf|5774|dock6
  -GOLD-   22720 5413D 1   1.00000     0.00000
 Structure written by MMmdl.
 42 43  0  0  0  0  0  0  0  0  2 V2000
  149.6690  139.8660  157.8039 C   0  0  0  0  0  0  0  0  0  0  0  0
  150.3122  141.0384  157.0516 C   0  0  2  0  0  0  0  0  0  0  0  0
  150.8657  140.5907  155.6810 C   0  0  0  0  0  0  0  0  0  0  0  0
  149.8302  140.0535  154.7915 N   0  0  0  0  0  0  0  0  0  0  0  0
  148.6764  140.6755  154.3873 C   0  0  0  0  0  0  0  0  0  0  0  0
  148.0131  139.7844  153.5837 C   0  0  0  0  0  0  0  0  0  0  0  0
  148.7926  138.6602  153.5259 N   0  3  0  0  0  0  0  0  0  0  0  0
  149.8996  138.8278  154.2567 C   0  0  0  0  0  0  0  0  0  0  0  0
  151.3764  141.6073  157.8773 N   0  0  0  0  0  0  0  0  0  0  0  0
  152.4954  140.9728  158.2693 C   0  0  0  0  0  0  0  0  0  0  0  0
  152.7769  139.8378  157.8819 O   0  0  0  0  0  0  0  0  0  0  0  0
  153.2776  141.6810  159.1201 N   0  0  0  0  0  0  0  0  0  0  0  0
  152.9897  143.0156  159.6624 C   0  0  0  0  0  0  0  0  0  0  0  0
  152.5023  142.8411  161.1149 C   0  0  2  0  0  0  0  0  0  0  0  0
  152.2141  144.1829  161.7961 C   0  0  0  0  0  0  0  0  0  0  0  0
  153.5106  142.1653  161.8668 O   0  0  0  0  0  0  0  0  0  0  0  0
  153.8696  140.8868  161.3416 C   0  0  2  0  0  0  0  0  0  0  0  0
  154.9465  140.2808  162.2471 C   0  0  0  0  0  0  0  0  0  0  0  0
  154.3571  141.0585  159.8884 C   0  0  0  0  0  0  0  0  0  0  0  0
  148.8577  139.4254  157.2235 H   0  0  0  0  0  0  0  0  0  0  0  0
  149.2502  140.1929  158.7562 H   0  0  0  0  0  0  0  0  0  0  0  0
  150.3951  139.0791  158.0111 H   0  0  0  0  0  0  0  0  0  0  0  0
  149.5304  141.7828  156.8901 H   0  0  0  0  0  0  0  0  0  0  0  0
  151.3511  141.4234  155.1699 H   0  0  0  0  0  0  0  0  0  0  0  0
  151.6216  139.8145  155.8090 H   0  0  0  0  0  0  0  0  0  0  0  0
  148.4155  141.6761  154.7004 H   0  0  0  0  0  0  0  0  0  0  0  0
  147.0697  139.8634  153.0634 H   0  0  0  0  0  0  0  0  0  0  0  0
  150.6871  138.1090  154.3981 H   0  0  0  0  0  0  0  0  0  0  0  0
  151.2295  142.5463  158.2185 H   0  0  0  0  0  0  0  0  0  0  0  0
  153.8996  143.6173  159.6397 H   0  0  0  0  0  0  0  0  0  0  0  0
  152.2555  143.5775  159.0849 H   0  0  0  0  0  0  0  0  0  0  0  0
  151.5905  142.2415  161.1268 H   0  0  0  0  0  0  0  0  0  0  0  0
  151.4353  144.7327  161.2673 H   0  0  0  0  0  0  0  0  0  0  0  0
  153.1059  144.8098  161.8259 H   0  0  0  0  0  0  0  0  0  0  0  0
  151.8774  144.0347  162.8224 H   0  0  0  0  0  0  0  0  0  0  0  0
  152.9922  140.2374  161.3607 H   0  0  0  0  0  0  0  0  0  0  0  0
  155.2422  139.2914  161.8975 H   0  0  0  0  0  0  0  0  0  0  0  0
  154.5822  140.1766  163.2693 H   0  0  0  0  0  0  0  0  0  0  0  0
  155.8385  140.9074  162.2735 H   0  0  0  0  0  0  0  0  0  0  0  0
  154.6658  140.0971  159.4746 H   0  0  0  0  0  0  0  0  0  0  0  0
  155.2426  141.6949  159.8565 H   0  0  0  0  0  0  0  0  0  0  0  0
  148.5652  137.8204  153.0086 H   0  0  0  0  0  0  0  0  0  0  0  0
  1  2  1  0  0  0  0
  1 20  1  0  0  0  0
  1 21  1  0  0  0  0
  1 22  1  0  0  0  0
  2  3  1  0  0  0  0
  2  9  1  0  0  0  0
  2 23  1  0  0  0  0
  3  4  1  0  0  0  0
  3 24  1  0  0  0  0
  3 25  1  0  0  0  0
  4  8  1  0  0  0  0
  4  5  1  0  0  0  0
  5  6  2  0  0  0  0
  5 26  1  0  0  0  0
  6  7  1  0  0  0  0
  6 27  1  0  0  0  0
  7  8  2  0  0  0  0
  7 42  1  0  0  0  0
  8 28  1  0  0  0  0
  9 10  1  0  0  0  0
  9 29  1  0  0  0  0
 10 11  2  0  0  0  0
 10 12  1  0  0  0  0
 12 19  1  0  0  0  0
 12 13  1  0  0  0  0
 13 14  1  0  0  0  0
 13 30  1  0  0  0  0
 13 31  1  0  0  0  0
 14 15  1  0  0  0  0
 14 16  1  0  0  0  0
 14 32  1  0  0  0  0
 15 33  1  0  0  0  0
 15 34  1  0  0  0  0
 15 35  1  0  0  0  0
 16 17  1  0  0  0  0
 17 18  1  0  0  0  0
 17 19  1  0  0  0  0
 17 36  1  0  0  0  0
 18 37  1  0  0  0  0
 18 38  1  0  0  0  0
 18 39  1  0  0  0  0
 19 40  1  0  0  0  0
 19 41  1  0  0  0  0
M  CHG  1   7   1
M  END
> <s_m_source_file>
AV-unprocessed.smi

> <i_m_source_file_index>
1419

> <i_lp_mmshare_version>
43012

> <i_f3d_flags>
0

> <s_epik_input>
W2NIXTFuW2NIXVtjSF1uMVtDSDJdW0NAQEhdKFtDSDNdKVtOSF1DKD1PKU4yW0NIMl1bQ0BASF0oW0NIM10pT1tDQEBIXShbQ0gzXSlbQ0gyXTI=

> <s_epik_cmdline>
J2VwaWtfcHl0aG9uJywgJy1waCcsICc3LjAnLCAnLXRuJywgJzgnLCAnLW1hJywgJzIwMCcsICctbWV0YWxfYmluZGluZycsICctaW1hZScsICc8aW5maWxlLm1hZT4nLCAnLW9tYWUnLCAnPG91dGZpbGUubWFlPic=

> <r_lp_tautomer_probability>
1

> <r_epik_Ionization_Penalty>
0.253607

> <r_epik_Ionization_Penalty_Charging>
0

> <r_epik_Ionization_Penalty_Neutral>
0.253607

> <r_epik_State_Penalty>
0.245018

> <r_epik_Charging_Adjusted_Penalty>
0.245018

> <i_epik_Tot_Q>
1

> <i_epik_Tot_abs_Q>
1

> <r_epik_Metal_State_Penalty>
0.535379

> <b_epik_Metal_Only>
0

> <s_lp_Force_Field>
OPLS_2005

> <r_lp_Energy>
29.0063

> <b_lp_Chiralities_Consistent>
1

> <s_lp_Variant>
AV-unprocessed.smi:1419-1

> <Gold.Version>
5.8.1

> <Gold.Id.Protein>
6NUR|6NUR_protein|mol2

> <Gold.PLP.Fitness>
49.9574

> <Gold.PLP.PLP>
-41.0248

> <Gold.PLP.part.hbond>
-3.0000

> <Gold.PLP.part.metal>
0.0000

> <Gold.PLP.part.buried>
-2.0440

> <Gold.PLP.part.nonpolar>
-35.4353

> <Gold.PLP.part.repulsive>
0.1478

> <Gold.PLP.ligand.clash>
0.0000

> <Gold.PLP.ligand.torsion>
0.0677

> <Gold.PLP.Chemscore.Hbond>
3.0000

> <Gold.PLP.Chemscore.CHOScore>
0.0000

> <Gold.PLP.Chemscore.Metal>
0.0000

> <Gold.Chemscore.Hbonds>
donor molecule, donor type, donor heavy atom, donor atom, acceptor molecule, acceptor atom, score
      L1  H     7    42       P1  7948  2.00
      P1  H  7997  8009       L1    11  1.00

> <Gold.PLP.Chemscore.Internal.Correction>
0.0679

> <Gold.Rescore>
     Score         DG    S(hbond)    S(metal)    S(lipo)     H(rot)  DE(clash)    DE(int)     intcor
     16.66     -17.99       1.87        0.00      89.21       1.63       0.27       1.05       ----

> <Gold.Chemscore.Fitness>
16.6593

> <Gold.Chemscore.DG>
-17.9866

> <Gold.Chemscore.ZeroCoef>
-5.4800

> <Gold.Chemscore.Hbond>
1.8666

> <Gold.Chemscore.Metal>
0.0000

> <Gold.Chemscore.Lipo>
89.2138

> <Gold.Chemscore.Internal_Hbond>
0.0000

> <Gold.Chemscore.DEClash>
0.2739

> <Gold.Chemscore.DEInternal>
1.0534

> <Gold.Chemscore.Rot>
1.6273

> <Gold.Chemscore.Internal.Correction>
   9.000000E+99

> <Gold.Chemscore.Hbonds>
donor molecule, donor type, donor heavy atom, donor atom, acceptor molecule, acceptor atom, score
      L1  H     7    42       P1  7948  0.95
      P1  H  7997  8009       L1    11  0.43

> <Gold.Chemscore.Hbond.Weighted>
-6.2344

> <Gold.Chemscore.Metal.Weighted>
-0.0000

> <Gold.Chemscore.Lipo.Weighted>
-10.4380

> <Gold.Chemscore.Internal_Hbond.Weighted>
0.0000

> <Gold.Chemscore.DEClash.Weighted>
0.2739

> <Gold.Chemscore.DEInternal.Weighted>
1.0534

> <Gold.Chemscore.Rot.Weighted>
4.1658

> <Gold.Chemscore.Internal.Correction.Weighted>
   9.000000E+99

> <Gold.Protein.RotatedTorsions>
[ 6907 6896 6895 6894 ] final  116.82 input  -60.11 | X-H torsion
[ 7974 7965 7964 7962 ] final  -11.09 input  175.53 | X-H torsion
[ 8008 7997 7996 7995 ] final  163.72 input   59.86 | X-H torsion
[ 10167 10162 10161 10158 ] final  101.09 input  -65.29 | X-H torsion
[ 10718 10713 10712 10709 ] final  -60.42 input   66.30 | X-H torsion
[ 10763 10752 10751 10750 ] final -122.74 input  -60.55 | X-H torsion
[ 11005 11000 10999 10996 ] final   63.90 input  -57.11 | X-H torsion

> <Gold.Protein.ActiveResidues>
 VAL166  LYS551  ARG553  GLY616  TRP617  ASP618  TYR619  PRO620  LYS621  CYS622 
 ASP623  PHE694  ASN695  SER759  ASP760  ASP761  ALA762  ILE779  LEU786  VAL792 
 PHE793  MET794  SER795  GLU796  ALA797  LYS798  CYS799  TRP800  GLU811  SER814 

> <Gold.Protein.RotatedAtoms>
  152.4653  133.7910  159.6901 H   0  0  0  0  0  0  0  0  0  0  0  0  # atno 6907 bound_to 6896
  150.8615  133.7627  159.2997 H   0  0  0  0  0  0  0  0  0  0  0  0  # atno 6908 bound_to 6896
  151.5191  135.1070  159.9926 H   0  0  0  0  0  0  0  0  0  0  0  0  # atno 6909 bound_to 6896
  146.2199  140.2859  142.8365 H   0  0  0  0  0  0  0  0  0  0  0  0  # atno 7974 bound_to 7965
  156.1935  140.1716  156.8044 H   0  0  0  0  0  0  0  0  0  0  0  0  # atno 8008 bound_to 7997
  154.5501  140.0719  156.8685 H   0  0  0  0  0  0  0  0  0  0  0  0  # atno 8009 bound_to 7997
  155.3046  140.3363  155.4248 H   0  0  0  0  0  0  0  0  0  0  0  0  # atno 8010 bound_to 7997
  139.7468  144.6995  151.0491 H   0  0  0  0  0  0  0  0  0  0  0  0  # atno 10167 bound_to 10162
  156.0992  130.4188  150.0851 H   0  0  0  0  0  0  0  0  0  0  0  0  # atno 10718 bound_to 10713
  154.8695  135.4122  154.2830 H   0  0  0  0  0  0  0  0  0  0  0  0  # atno 10763 bound_to 10752
  153.3719  135.7008  153.6636 H   0  0  0  0  0  0  0  0  0  0  0  0  # atno 10764 bound_to 10752
  153.5494  135.3632  155.2725 H   0  0  0  0  0  0  0  0  0  0  0  0  # atno 10765 bound_to 10752
  139.9994  134.6466  155.9956 H   0  0  0  0  0  0  0  0  0  0  0  0  # atno 11005 bound_to 11000
  144.9162  140.7815  143.5776 LP  0  0  0  0  0  0  0  0  0  0  0  0  # atno 17320 bound_to 7965
  145.2793  139.1924  143.4799 LP  0  0  0  0  0  0  0  0  0  0  0  0  # atno 17321 bound_to 7965
  140.7793  143.4857  150.9960 LP  0  0  0  0  0  0  0  0  0  0  0  0  # atno 17342 bound_to 10162
  139.8544  143.7395  152.3176 LP  0  0  0  0  0  0  0  0  0  0  0  0  # atno 17343 bound_to 10162
  156.8843  130.9567  151.3596 LP  0  0  0  0  0  0  0  0  0  0  0  0  # atno 17370 bound_to 10713
  157.6159  130.8618  149.9028 LP  0  0  0  0  0  0  0  0  0  0  0  0  # atno 17371 bound_to 10713
  141.1630  133.6538  156.4382 LP  0  0  0  0  0  0  0  0  0  0  0  0  # atno 17394 bound_to 11000
  140.4757  134.6712  157.5149 LP  0  0  0  0  0  0  0  0  0  0  0  0  # atno 17395 bound_to 11000

$$$$
