AV-unprocessed.smi:416|AV-procd|sdf|2526|dock9
  -GOLD-   2262022483D 1   1.00000     0.00000
 Structure written by MMmdl.
 43 44  0  0  0  0  0  0  0  0  1 V2000
  149.4225  134.0968  154.2550 C   0  0  0  0  0  0  0  0  0  0  0  0
  149.4603  134.9693  155.5261 C   0  0  0  0  0  0  0  0  0  0  0  0
  148.0989  135.6767  155.6923 C   0  0  0  0  0  0  0  0  0  0  0  0
  149.7020  134.0609  156.7550 C   0  0  0  0  0  0  0  0  0  0  0  0
  150.5639  136.0414  155.3530 C   0  0  0  0  0  0  0  0  0  0  0  0
  151.5106  136.0718  156.1407 O   0  0  0  0  0  0  0  0  0  0  0  0
  150.4443  136.9199  154.3423 N   0  0  0  0  0  0  0  0  0  0  0  0
  151.3664  138.0104  154.0410 C   0  0  0  0  0  0  0  0  0  0  0  0
  151.2086  139.2007  154.9731 C   0  0  0  0  0  0  0  0  0  0  0  0
  150.1356  140.1000  154.8177 C   0  0  0  0  0  0  0  0  0  0  0  0
  150.0258  141.1934  155.6980 C   0  0  0  0  0  0  0  0  0  0  0  0
  150.9985  141.3657  156.7122 C   0  0  0  0  0  0  0  0  0  0  0  0
  150.9128  142.4565  157.6056 N   0  0  0  0  0  0  0  0  0  0  0  0
  149.5625  142.8559  157.9958 C   0  0  0  0  0  0  0  0  0  0  0  0
  149.6133  143.8286  159.1863 C   0  0  0  0  0  0  0  0  0  0  0  0
  150.4459  144.9385  158.8680 O   0  0  0  0  0  0  0  0  0  0  0  0
  151.7853  144.5351  158.6039 C   0  0  0  0  0  0  0  0  0  0  0  0
  151.8124  143.5894  157.3914 C   0  0  0  0  0  0  0  0  0  0  0  0
  152.0279  140.4950  156.8591 N   0  0  0  0  0  0  0  0  0  0  0  0
  152.1287  139.4489  156.0128 C   0  0  0  0  0  0  0  0  0  0  0  0
  148.6408  133.3392  154.3200 H   0  0  0  0  0  0  0  0  0  0  0  0
  150.3687  133.5759  154.1012 H   0  0  0  0  0  0  0  0  0  0  0  0
  149.2243  134.6893  153.3606 H   0  0  0  0  0  0  0  0  0  0  0  0
  147.8490  136.2895  154.8249 H   0  0  0  0  0  0  0  0  0  0  0  0
  148.0912  136.3267  156.5684 H   0  0  0  0  0  0  0  0  0  0  0  0
  147.2917  134.9540  155.8167 H   0  0  0  0  0  0  0  0  0  0  0  0
  148.9000  133.3300  156.8646 H   0  0  0  0  0  0  0  0  0  0  0  0
  149.7399  134.6358  157.6815 H   0  0  0  0  0  0  0  0  0  0  0  0
  150.6339  133.5003  156.6689 H   0  0  0  0  0  0  0  0  0  0  0  0
  149.6393  136.8301  153.7391 H   0  0  0  0  0  0  0  0  0  0  0  0
  152.4029  137.6706  154.0731 H   0  0  0  0  0  0  0  0  0  0  0  0
  151.1836  138.3250  153.0131 H   0  0  0  0  0  0  0  0  0  0  0  0
  149.4007  139.9552  154.0395 H   0  0  0  0  0  0  0  0  0  0  0  0
  149.1937  141.8731  155.5933 H   0  0  0  0  0  0  0  0  0  0  0  0
  149.0778  143.3345  157.1439 H   0  0  0  0  0  0  0  0  0  0  0  0
  148.9489  141.9991  158.2689 H   0  0  0  0  0  0  0  0  0  0  0  0
  148.6118  144.1914  159.4172 H   0  0  0  0  0  0  0  0  0  0  0  0
  149.9838  143.3270  160.0819 H   0  0  0  0  0  0  0  0  0  0  0  0
  152.3896  145.4198  158.4036 H   0  0  0  0  0  0  0  0  0  0  0  0
  152.2114  144.0513  159.4843 H   0  0  0  0  0  0  0  0  0  0  0  0
  152.8327  143.2381  157.2329 H   0  0  0  0  0  0  0  0  0  0  0  0
  151.5081  144.1272  156.4922 H   0  0  0  0  0  0  0  0  0  0  0  0
  152.9728  138.7952  156.1733 H   0  0  0  0  0  0  0  0  0  0  0  0
  1  2  1  0  0  0  0
  1 21  1  0  0  0  0
  1 22  1  0  0  0  0
  1 23  1  0  0  0  0
  2  3  1  0  0  0  0
  2  4  1  0  0  0  0
  2  5  1  0  0  0  0
  3 24  1  0  0  0  0
  3 25  1  0  0  0  0
  3 26  1  0  0  0  0
  4 27  1  0  0  0  0
  4 28  1  0  0  0  0
  4 29  1  0  0  0  0
  5  6  2  0  0  0  0
  5  7  1  0  0  0  0
  7  8  1  0  0  0  0
  7 30  1  0  0  0  0
  8  9  1  0  0  0  0
  8 31  1  0  0  0  0
  8 32  1  0  0  0  0
  9 20  1  0  0  0  0
  9 10  2  0  0  0  0
 10 11  1  0  0  0  0
 10 33  1  0  0  0  0
 11 12  2  0  0  0  0
 11 34  1  0  0  0  0
 12 13  1  0  0  0  0
 12 19  1  0  0  0  0
 13 18  1  0  0  0  0
 13 14  1  0  0  0  0
 14 15  1  0  0  0  0
 14 35  1  0  0  0  0
 14 36  1  0  0  0  0
 15 16  1  0  0  0  0
 15 37  1  0  0  0  0
 15 38  1  0  0  0  0
 16 17  1  0  0  0  0
 17 18  1  0  0  0  0
 17 39  1  0  0  0  0
 17 40  1  0  0  0  0
 18 41  1  0  0  0  0
 18 42  1  0  0  0  0
 19 20  2  0  0  0  0
 20 43  1  0  0  0  0
M  END
> <s_m_source_file>
AV-unprocessed.smi

> <i_m_source_file_index>
416

> <i_lp_mmshare_version>
43012

> <i_f3d_flags>
0

> <s_epik_input>
W0NIM11DKFtDSDNdKShbQ0gzXSlDKD1PKVtOSF1bQ0gyXWMxW2NIXVtjSF1jKG5bY0hdMSlOMltDSDJdW0NIMl1PW0NIMl1bQ0gyXTI=

> <s_epik_cmdline>
J2VwaWtfcHl0aG9uJywgJy1waCcsICc3LjAnLCAnLXRuJywgJzgnLCAnLW1hJywgJzIwMCcsICctbWV0YWxfYmluZGluZycsICctaW1hZScsICc8aW5maWxlLm1hZT4nLCAnLW9tYWUnLCAnPG91dGZpbGUubWFlPic=

> <r_lp_tautomer_probability>
1

> <r_epik_Ionization_Penalty>
0.00522353

> <r_epik_Ionization_Penalty_Charging>
0

> <r_epik_Ionization_Penalty_Neutral>
0.00522353

> <r_epik_State_Penalty>
0.0038086

> <r_epik_Charging_Adjusted_Penalty>
0.0038086

> <i_epik_Tot_Q>
0

> <i_epik_Tot_abs_Q>
0

> <r_epik_Metal_State_Penalty>
-0

> <b_epik_Metal_Only>
0

> <s_lp_Force_Field>
OPLS_2005

> <r_lp_Energy>
22.6444

> <b_lp_Chiralities_Consistent>
1

> <s_lp_Variant>
AV-unprocessed.smi:416-1

> <Gold.Version>
5.8.1

> <Gold.Id.Protein>
6NUR|6NUR_protein|mol2

> <Gold.PLP.Fitness>
37.9613

> <Gold.PLP.PLP>
-33.7462

> <Gold.PLP.part.hbond>
-3.3256

> <Gold.PLP.part.metal>
0.0000

> <Gold.PLP.part.buried>
-0.7601

> <Gold.PLP.part.nonpolar>
-29.4455

> <Gold.PLP.part.repulsive>
0.3665

> <Gold.PLP.ligand.clash>
0.0000

> <Gold.PLP.ligand.torsion>
0.8995

> <Gold.PLP.Chemscore.Hbond>
1.8892

> <Gold.PLP.Chemscore.CHOScore>
0.0000

> <Gold.PLP.Chemscore.Metal>
0.0000

> <Gold.Chemscore.Hbonds>
donor molecule, donor type, donor heavy atom, donor atom, acceptor molecule, acceptor atom, score
      L1  H     7    30       P1  7948  0.83
      P1  H 10752 10764       L1     6  0.96

> <Gold.PLP.Chemscore.Internal.Correction>
0.3466

> <Gold.Rescore>
     Score         DG    S(hbond)    S(metal)    S(lipo)     H(rot)  DE(clash)    DE(int)     intcor
     14.33     -16.36       1.37        0.00      87.13       1.52       1.11       0.92       ----

> <Gold.Chemscore.Fitness>
14.3325

> <Gold.Chemscore.DG>
-16.3553

> <Gold.Chemscore.ZeroCoef>
-5.4800

> <Gold.Chemscore.Hbond>
1.3669

> <Gold.Chemscore.Metal>
0.0000

> <Gold.Chemscore.Lipo>
87.1295

> <Gold.Chemscore.Internal_Hbond>
0.0000

> <Gold.Chemscore.DEClash>
1.1053

> <Gold.Chemscore.DEInternal>
0.9175

> <Gold.Chemscore.Rot>
1.5173

> <Gold.Chemscore.Internal.Correction>
   9.000000E+99

> <Gold.Chemscore.Hbonds>
donor molecule, donor type, donor heavy atom, donor atom, acceptor molecule, acceptor atom, score
      L1  H     7    30       P1  7948  0.58
      P1  H 10752 10764       L1     6  0.23

> <Gold.Chemscore.Hbond.Weighted>
-4.5654

> <Gold.Chemscore.Metal.Weighted>
-0.0000

> <Gold.Chemscore.Lipo.Weighted>
-10.1942

> <Gold.Chemscore.Internal_Hbond.Weighted>
0.0000

> <Gold.Chemscore.DEClash.Weighted>
1.1053

> <Gold.Chemscore.DEInternal.Weighted>
0.9175

> <Gold.Chemscore.Rot.Weighted>
3.8843

> <Gold.Chemscore.Internal.Correction.Weighted>
   9.000000E+99

> <Gold.Protein.RotatedTorsions>
[ 6907 6896 6895 6894 ] final -168.72 input  -60.11 | X-H torsion
[ 7974 7965 7964 7962 ] final -167.83 input  175.53 | X-H torsion
[ 8008 7997 7996 7995 ] final -112.05 input   59.86 | X-H torsion
[ 10167 10162 10161 10158 ] final -124.52 input  -65.29 | X-H torsion
[ 10718 10713 10712 10709 ] final   41.10 input   66.30 | X-H torsion
[ 10763 10752 10751 10750 ] final  -42.66 input  -60.55 | X-H torsion
[ 11005 11000 10999 10996 ] final -120.93 input  -57.11 | X-H torsion

> <Gold.Protein.ActiveResidues>
 VAL166  LYS551  ARG553  GLY616  TRP617  ASP618  TYR619  PRO620  LYS621  CYS622 
 ASP623  PHE694  ASN695  SER759  ASP760  ASP761  ALA762  ILE779  LEU786  VAL792 
 PHE793  MET794  SER795  GLU796  ALA797  LYS798  CYS799  TRP800  GLU811  SER814 

> <Gold.Protein.RotatedAtoms>
  151.4801  133.3548  159.2836 H   0  0  0  0  0  0  0  0  0  0  0  0  # atno 6907 bound_to 6896
  150.8903  134.8307  159.7299 H   0  0  0  0  0  0  0  0  0  0  0  0  # atno 6908 bound_to 6896
  152.4818  134.4710  159.9687 H   0  0  0  0  0  0  0  0  0  0  0  0  # atno 6909 bound_to 6896
  144.7215  140.2460  143.6285 H   0  0  0  0  0  0  0  0  0  0  0  0  # atno 7974 bound_to 7965
  154.9992  140.0394  157.2353 H   0  0  0  0  0  0  0  0  0  0  0  0  # atno 8008 bound_to 7997
  154.7559  140.2775  155.6231 H   0  0  0  0  0  0  0  0  0  0  0  0  # atno 8009 bound_to 7997
  156.2894  140.2638  156.2325 H   0  0  0  0  0  0  0  0  0  0  0  0  # atno 8010 bound_to 7997
  139.9919  143.5632  152.2338 H   0  0  0  0  0  0  0  0  0  0  0  0  # atno 10167 bound_to 10162
  157.3897  130.7799  149.7259 H   0  0  0  0  0  0  0  0  0  0  0  0  # atno 10718 bound_to 10713
  153.9828  135.6715  153.4751 H   0  0  0  0  0  0  0  0  0  0  0  0  # atno 10763 bound_to 10752
  153.0741  135.4958  154.8363 H   0  0  0  0  0  0  0  0  0  0  0  0  # atno 10764 bound_to 10752
  154.7155  135.3106  154.9093 H   0  0  0  0  0  0  0  0  0  0  0  0  # atno 10765 bound_to 10752
  141.0107  134.0268  157.3417 H   0  0  0  0  0  0  0  0  0  0  0  0  # atno 11005 bound_to 11000
  145.8274  139.2070  143.1903 LP  0  0  0  0  0  0  0  0  0  0  0  0  # atno 17320 bound_to 7965
  146.0461  140.8116  142.9805 LP  0  0  0  0  0  0  0  0  0  0  0  0  # atno 17321 bound_to 7965
  139.6334  144.7647  151.2489 LP  0  0  0  0  0  0  0  0  0  0  0  0  # atno 17342 bound_to 10162
  140.7451  143.6441  150.8308 LP  0  0  0  0  0  0  0  0  0  0  0  0  # atno 17343 bound_to 10162
  155.9795  130.4039  150.3582 LP  0  0  0  0  0  0  0  0  0  0  0  0  # atno 17370 bound_to 10713
  157.1697  131.0365  151.2801 LP  0  0  0  0  0  0  0  0  0  0  0  0  # atno 17371 bound_to 10713
  139.9088  135.0186  156.7604 LP  0  0  0  0  0  0  0  0  0  0  0  0  # atno 17394 bound_to 11000
  140.6737  133.9536  155.7871 LP  0  0  0  0  0  0  0  0  0  0  0  0  # atno 17395 bound_to 11000

$$$$
