AV-unprocessed.smi:1694|AV-procd|sdf|6788|dock8
  -GOLD-   22720 7553D 1   1.00000     0.00000
 Structure written by MMmdl.
 34 35  0  0  0  0  0  0  0  0  1 V2000
  151.1063  144.9328  157.8072 C   0  0  0  0  0  0  0  0  0  0  0  0
  151.4866  143.7381  158.6675 C   0  0  0  0  0  0  0  0  0  0  0  0
  152.4301  143.9098  159.7027 C   0  0  0  0  0  0  0  0  0  0  0  0
  152.7837  142.8079  160.4991 C   0  0  0  0  0  0  0  0  0  0  0  0
  152.1744  141.5725  160.2243 C   0  0  0  0  0  0  0  0  0  0  0  0
  151.2717  141.4003  159.2372 N   0  0  0  0  0  0  0  0  0  0  0  0
  150.9166  142.4531  158.4563 C   0  0  0  0  0  0  0  0  0  0  0  0
  149.9679  142.3628  157.3901 N   0  0  0  0  0  0  0  0  0  0  0  0
  149.4497  141.3051  156.7290 C   0  0  0  0  0  0  0  0  0  0  0  0
  149.7848  140.1561  157.0122 O   0  0  0  0  0  0  0  0  0  0  0  0
  148.5625  141.5827  155.7601 N   0  0  0  0  0  0  0  0  0  0  0  0
  147.8828  140.6018  154.9217 C   0  0  1  0  0  0  0  0  0  0  0  0
  147.0365  141.3245  153.8665 C   0  0  0  0  0  0  0  0  0  0  0  0
  146.2893  140.3203  152.9751 C   0  0  0  0  0  0  0  0  0  0  0  0
  147.1759  139.1685  152.4789 C   0  0  0  0  0  0  0  0  0  0  0  0
  146.8120  138.4983  151.5154 O   0  0  0  0  0  0  0  0  0  0  0  0
  148.3181  138.8949  153.1336 N   0  0  0  0  0  0  0  0  0  0  0  0
  148.8984  139.6705  154.2294 C   0  0  0  0  0  0  0  0  0  0  0  0
  151.6568  145.8264  158.1024 H   0  0  0  0  0  0  0  0  0  0  0  0
  150.0417  145.1485  157.9028 H   0  0  0  0  0  0  0  0  0  0  0  0
  151.3274  144.7353  156.7578 H   0  0  0  0  0  0  0  0  0  0  0  0
  152.8801  144.8743  159.8871 H   0  0  0  0  0  0  0  0  0  0  0  0
  153.5023  142.9076  161.2991 H   0  0  0  0  0  0  0  0  0  0  0  0
  152.4167  140.6989  160.8111 H   0  0  0  0  0  0  0  0  0  0  0  0
  149.6145  143.2556  157.0783 H   0  0  0  0  0  0  0  0  0  0  0  0
  148.3436  142.5550  155.5924 H   0  0  0  0  0  0  0  0  0  0  0  0
  147.2139  140.0039  155.5442 H   0  0  0  0  0  0  0  0  0  0  0  0
  146.3175  141.9870  154.3503 H   0  0  0  0  0  0  0  0  0  0  0  0
  147.6733  141.9594  153.2484 H   0  0  0  0  0  0  0  0  0  0  0  0
  145.4624  139.8820  153.5349 H   0  0  0  0  0  0  0  0  0  0  0  0
  145.8489  140.8353  152.1207 H   0  0  0  0  0  0  0  0  0  0  0  0
  148.8619  138.1098  152.8049 H   0  0  0  0  0  0  0  0  0  0  0  0
  149.7189  140.2563  153.8129 H   0  0  0  0  0  0  0  0  0  0  0  0
  149.3400  138.9844  154.9527 H   0  0  0  0  0  0  0  0  0  0  0  0
  1  2  1  0  0  0  0
  1 19  1  0  0  0  0
  1 20  1  0  0  0  0
  1 21  1  0  0  0  0
  2  7  1  0  0  0  0
  2  3  2  0  0  0  0
  3  4  1  0  0  0  0
  3 22  1  0  0  0  0
  4  5  2  0  0  0  0
  4 23  1  0  0  0  0
  5  6  1  0  0  0  0
  5 24  1  0  0  0  0
  6  7  2  0  0  0  0
  7  8  1  0  0  0  0
  8  9  1  0  0  0  0
  8 25  1  0  0  0  0
  9 10  2  0  0  0  0
  9 11  1  0  0  0  0
 11 12  1  0  0  0  0
 11 26  1  0  0  0  0
 12 18  1  0  0  0  0
 12 13  1  0  0  0  0
 12 27  1  0  0  0  0
 13 14  1  0  0  0  0
 13 28  1  0  0  0  0
 13 29  1  0  0  0  0
 14 15  1  0  0  0  0
 14 30  1  0  0  0  0
 14 31  1  0  0  0  0
 15 16  2  0  0  0  0
 15 17  1  0  0  0  0
 17 18  1  0  0  0  0
 17 32  1  0  0  0  0
 18 33  1  0  0  0  0
 18 34  1  0  0  0  0
M  END
> <s_m_source_file>
AV-unprocessed.smi

> <i_m_source_file_index>
1694

> <i_lp_mmshare_version>
43012

> <i_f3d_flags>
0

> <s_epik_input>
W0NIM11jMVtjSF1bY0hdW2NIXW5jMVtOSF1DKD1PKVtOSF1bQ0BASF0yW0NIMl1bQ0gyXUMoPU8pW05IXVtDSDJdMg==

> <s_epik_cmdline>
J2VwaWtfcHl0aG9uJywgJy1waCcsICc3LjAnLCAnLXRuJywgJzgnLCAnLW1hJywgJzIwMCcsICctbWV0YWxfYmluZGluZycsICctaW1hZScsICc8aW5maWxlLm1hZT4nLCAnLW9tYWUnLCAnPG91dGZpbGUubWFlPic=

> <r_lp_tautomer_probability>
1

> <r_epik_Ionization_Penalty>
5.3746e-05

> <r_epik_Ionization_Penalty_Charging>
0

> <r_epik_Ionization_Penalty_Neutral>
5.3746e-05

> <r_epik_State_Penalty>
-0

> <r_epik_Charging_Adjusted_Penalty>
0

> <i_epik_Tot_Q>
0

> <i_epik_Tot_abs_Q>
0

> <r_epik_Metal_State_Penalty>
-0

> <b_epik_Metal_Only>
0

> <s_lp_Force_Field>
OPLS_2005

> <r_lp_Energy>
12.9855

> <b_lp_Chiralities_Consistent>
1

> <s_lp_Variant>
AV-unprocessed.smi:1694-2

> <Gold.Version>
5.8.1

> <Gold.Id.Protein>
6NUR|6NUR_protein|mol2

> <Gold.PLP.Fitness>
44.1658

> <Gold.PLP.PLP>
-33.2596

> <Gold.PLP.part.hbond>
-4.9196

> <Gold.PLP.part.metal>
0.0000

> <Gold.PLP.part.buried>
-0.0026

> <Gold.PLP.part.nonpolar>
-30.0504

> <Gold.PLP.part.repulsive>
1.2159

> <Gold.PLP.ligand.clash>
0.0000

> <Gold.PLP.ligand.torsion>
0.0826

> <Gold.PLP.Chemscore.Hbond>
3.6900

> <Gold.PLP.Chemscore.CHOScore>
0.0000

> <Gold.PLP.Chemscore.Metal>
0.0000

> <Gold.Chemscore.Hbonds>
donor molecule, donor type, donor heavy atom, donor atom, acceptor molecule, acceptor atom, score
      L1  H     8    25       P1  8028  0.68
      L1  H    11    26       P1  8028  0.52
      L1  H    17    32       P1  7948  0.89
      P1  H  7954  7966       L1    16  0.57

> <Gold.PLP.Chemscore.Internal.Correction>
0.0013

> <Gold.Rescore>
     Score         DG    S(hbond)    S(metal)    S(lipo)     H(rot)  DE(clash)    DE(int)     intcor
     18.85     -24.53       3.54        0.00      83.61       1.00       3.18       2.50       ----

> <Gold.Chemscore.Fitness>
18.8491

> <Gold.Chemscore.DG>
-24.5349

> <Gold.Chemscore.ZeroCoef>
-5.4800

> <Gold.Chemscore.Hbond>
3.5427

> <Gold.Chemscore.Metal>
0.0000

> <Gold.Chemscore.Lipo>
83.6103

> <Gold.Chemscore.Internal_Hbond>
0.0000

> <Gold.Chemscore.DEClash>
3.1811

> <Gold.Chemscore.DEInternal>
2.5047

> <Gold.Chemscore.Rot>
1.0000

> <Gold.Chemscore.Internal.Correction>
   9.000000E+99

> <Gold.Chemscore.Hbonds>
donor molecule, donor type, donor heavy atom, donor atom, acceptor molecule, acceptor atom, score
      L1  H     8    25       P1  8028  0.67
      L1  H    11    26       P1  8028  0.50
      L1  H    17    32       P1  7948  0.82
      P1  H  7954  7966       L1    16  0.57

> <Gold.Chemscore.Hbond.Weighted>
-11.8325

> <Gold.Chemscore.Metal.Weighted>
-0.0000

> <Gold.Chemscore.Lipo.Weighted>
-9.7824

> <Gold.Chemscore.Internal_Hbond.Weighted>
0.0000

> <Gold.Chemscore.DEClash.Weighted>
3.1811

> <Gold.Chemscore.DEInternal.Weighted>
2.5047

> <Gold.Chemscore.Rot.Weighted>
2.5600

> <Gold.Chemscore.Internal.Correction.Weighted>
   9.000000E+99

> <Gold.Protein.RotatedTorsions>
[ 6907 6896 6895 6894 ] final  126.69 input  -60.11 | X-H torsion
[ 7974 7965 7964 7962 ] final  -80.37 input  175.53 | X-H torsion
[ 8008 7997 7996 7995 ] final  157.48 input   59.86 | X-H torsion
[ 10167 10162 10161 10158 ] final  -77.82 input  -65.29 | X-H torsion
[ 10718 10713 10712 10709 ] final  -45.17 input   66.30 | X-H torsion
[ 10763 10752 10751 10750 ] final   52.40 input  -60.55 | X-H torsion
[ 11005 11000 10999 10996 ] final  159.37 input  -57.11 | X-H torsion

> <Gold.Protein.ActiveResidues>
 VAL166  LYS551  ARG553  GLY616  TRP617  ASP618  TYR619  PRO620  LYS621  CYS622 
 ASP623  PHE694  ASN695  SER759  ASP760  ASP761  ALA762  ILE779  LEU786  VAL792 
 PHE793  MET794  SER795  GLU796  ALA797  LYS798  CYS799  TRP800  GLU811  SER814 

> <Gold.Protein.RotatedAtoms>
  152.3881  133.6640  159.6214 H   0  0  0  0  0  0  0  0  0  0  0  0  # atno 6907 bound_to 6896
  150.7795  133.9001  159.3347 H   0  0  0  0  0  0  0  0  0  0  0  0  # atno 6908 bound_to 6896
  151.6793  135.0965  160.0264 H   0  0  0  0  0  0  0  0  0  0  0  0  # atno 6909 bound_to 6896
  145.5609  140.9482  143.1448 H   0  0  0  0  0  0  0  0  0  0  0  0  # atno 7974 bound_to 7965
  156.2361  140.1884  156.7115 H   0  0  0  0  0  0  0  0  0  0  0  0  # atno 8008 bound_to 7997
  154.6109  140.0622  156.9520 H   0  0  0  0  0  0  0  0  0  0  0  0  # atno 8009 bound_to 7997
  155.2017  140.3293  155.4345 H   0  0  0  0  0  0  0  0  0  0  0  0  # atno 8010 bound_to 7997
  140.4736  143.2420  151.8166 H   0  0  0  0  0  0  0  0  0  0  0  0  # atno 10167 bound_to 10162
  156.2310  130.4172  149.8874 H   0  0  0  0  0  0  0  0  0  0  0  0  # atno 10718 bound_to 10713
  152.9789  135.5814  154.4572 H   0  0  0  0  0  0  0  0  0  0  0  0  # atno 10763 bound_to 10752
  154.4153  135.2770  155.2012 H   0  0  0  0  0  0  0  0  0  0  0  0  # atno 10764 bound_to 10752
  154.3784  135.6152  153.5831 H   0  0  0  0  0  0  0  0  0  0  0  0  # atno 10765 bound_to 10752
  140.1955  134.8376  157.2960 H   0  0  0  0  0  0  0  0  0  0  0  0  # atno 11005 bound_to 11000
  144.7483  139.7260  143.7283 LP  0  0  0  0  0  0  0  0  0  0  0  0  # atno 17320 bound_to 7965
  146.1852  139.5063  142.9841 LP  0  0  0  0  0  0  0  0  0  0  0  0  # atno 17321 bound_to 7965
  139.4822  144.4861  151.9245 LP  0  0  0  0  0  0  0  0  0  0  0  0  # atno 17342 bound_to 10162
  140.3946  144.2572  150.5897 LP  0  0  0  0  0  0  0  0  0  0  0  0  # atno 17343 bound_to 10162
  156.6488  130.8735  151.3527 LP  0  0  0  0  0  0  0  0  0  0  0  0  # atno 17370 bound_to 10713
  157.7133  130.9466  150.1165 LP  0  0  0  0  0  0  0  0  0  0  0  0  # atno 17371 bound_to 10713
  140.2112  134.4136  155.7612 LP  0  0  0  0  0  0  0  0  0  0  0  0  # atno 17394 bound_to 11000
  141.2227  133.7119  156.8341 LP  0  0  0  0  0  0  0  0  0  0  0  0  # atno 17395 bound_to 11000

$$$$
