AV-unprocessed.smi:1225|AV-procd|sdf|5143|dock4
  -GOLD-   22720 4213D 1   1.00000     0.00000
 Structure written by MMmdl.
 49 51  0  0  0  0  0  0  0  0  2 V2000
  157.7061  137.7034  166.0991 C   0  0  0  0  0  0  0  0  0  0  0  0
  156.6582  137.2554  165.1385 C   0  0  0  0  0  0  0  0  0  0  0  0
  156.4210  135.9746  164.8463 N   0  0  0  0  0  0  0  0  0  0  0  0
  155.3926  135.8209  163.9146 C   0  0  0  0  0  0  0  0  0  0  0  0
  154.8400  137.0072  163.4975 C   0  0  0  0  0  0  0  0  0  0  0  0
  153.7274  137.2045  162.5189 C   0  0  0  0  0  0  0  0  0  0  0  0
  154.1408  137.9892  161.3276 N   0  3  2  0  0  0  0  0  0  0  0  0
  154.5158  139.3853  161.6654 C   0  0  0  0  0  0  0  0  0  0  0  0
  153.1420  137.9136  160.2297 C   0  0  0  0  0  0  0  0  0  0  0  0
  153.2727  139.0834  159.2290 C   0  0  1  0  0  0  0  0  0  0  0  0
  154.4966  138.9523  158.5349 O   0  0  0  0  0  0  0  0  0  0  0  0
  152.1405  139.1272  158.1831 C   0  0  0  0  0  0  0  0  0  0  0  0
  151.7671  140.4823  157.8205 N   0  0  0  0  0  0  0  0  0  0  0  0
  151.2499  140.8971  156.6477 C   0  0  0  0  0  0  0  0  0  0  0  0
  150.9678  142.1910  156.5308 N   0  0  0  0  0  0  0  0  0  0  0  0
  151.3606  142.6758  157.7666 C   0  0  0  0  0  0  0  0  0  0  0  0
  151.3262  143.9863  158.2907 C   0  0  0  0  0  0  0  0  0  0  0  0
  151.7874  144.2559  159.5989 C   0  0  0  0  0  0  0  0  0  0  0  0
  151.7330  145.6806  160.1222 C   0  0  0  0  0  0  0  0  0  0  0  0
  152.2938  143.2044  160.4047 C   0  0  0  0  0  0  0  0  0  0  0  0
  152.7998  143.4716  161.8113 C   0  0  0  0  0  0  0  0  0  0  0  0
  152.3338  141.8890  159.8971 C   0  0  0  0  0  0  0  0  0  0  0  0
  151.8701  141.6331  158.5946 C   0  0  0  0  0  0  0  0  0  0  0  0
  155.6072  138.3694  164.2730 S   0  0  0  0  0  0  0  0  0  0  0  0
  158.2009  136.8459  166.5563 H   0  0  0  0  0  0  0  0  0  0  0  0
  157.2561  138.3078  166.8867 H   0  0  0  0  0  0  0  0  0  0  0  0
  158.4545  138.3030  165.5808 H   0  0  0  0  0  0  0  0  0  0  0  0
  155.1142  134.8246  163.6040 H   0  0  0  0  0  0  0  0  0  0  0  0
  153.3763  136.2204  162.2063 H   0  0  0  0  0  0  0  0  0  0  0  0
  152.8794  137.6928  163.0015 H   0  0  0  0  0  0  0  0  0  0  0  0
  153.6677  139.9244  162.0891 H   0  0  0  0  0  0  0  0  0  0  0  0
  154.8591  139.9332  160.7892 H   0  0  0  0  0  0  0  0  0  0  0  0
  155.3293  139.4108  162.3904 H   0  0  0  0  0  0  0  0  0  0  0  0
  153.2588  136.9816  159.6747 H   0  0  0  0  0  0  0  0  0  0  0  0
  152.1445  137.8780  160.6699 H   0  0  0  0  0  0  0  0  0  0  0  0
  153.2899  140.0357  159.7577 H   0  0  0  0  0  0  0  0  0  0  0  0
  155.1585  138.6578  159.1430 H   0  0  0  0  0  0  0  0  0  0  0  0
  152.4411  138.6032  157.2747 H   0  0  0  0  0  0  0  0  0  0  0  0
  151.2547  138.6143  158.5615 H   0  0  0  0  0  0  0  0  0  0  0  0
  151.0606  140.2088  155.8367 H   0  0  0  0  0  0  0  0  0  0  0  0
  150.9419  144.7873  157.6764 H   0  0  0  0  0  0  0  0  0  0  0  0
  152.7286  146.0242  160.4023 H   0  0  0  0  0  0  0  0  0  0  0  0
  151.0863  145.7409  160.9976 H   0  0  0  0  0  0  0  0  0  0  0  0
  151.3427  146.3667  159.3702 H   0  0  0  0  0  0  0  0  0  0  0  0
  153.1282  142.5527  162.2974 H   0  0  0  0  0  0  0  0  0  0  0  0
  152.0132  143.9113  162.4248 H   0  0  0  0  0  0  0  0  0  0  0  0
  153.6460  144.1585  161.7875 H   0  0  0  0  0  0  0  0  0  0  0  0
  152.7199  141.0808  160.5002 H   0  0  0  0  0  0  0  0  0  0  0  0
  154.9709  137.5351  160.9734 H   0  0  0  0  0  0  0  0  0  0  0  0
  1  2  1  0  0  0  0
  1 25  1  0  0  0  0
  1 26  1  0  0  0  0
  1 27  1  0  0  0  0
  2 24  1  0  0  0  0
  2  3  2  0  0  0  0
  3  4  1  0  0  0  0
  4  5  2  0  0  0  0
  4 28  1  0  0  0  0
  5  6  1  0  0  0  0
  5 24  1  0  0  0  0
  6  7  1  0  0  0  0
  6 29  1  0  0  0  0
  6 30  1  0  0  0  0
  7  8  1  0  0  0  0
  7  9  1  0  0  0  0
  7 49  1  0  0  0  0
  8 31  1  0  0  0  0
  8 32  1  0  0  0  0
  8 33  1  0  0  0  0
  9 10  1  0  0  0  0
  9 34  1  0  0  0  0
  9 35  1  0  0  0  0
 10 11  1  0  0  0  0
 10 12  1  0  0  0  0
 10 36  1  0  0  0  0
 11 37  1  0  0  0  0
 12 13  1  0  0  0  0
 12 38  1  0  0  0  0
 12 39  1  0  0  0  0
 13 23  1  0  0  0  0
 13 14  1  0  0  0  0
 14 15  2  0  0  0  0
 14 40  1  0  0  0  0
 15 16  1  0  0  0  0
 16 23  2  0  0  0  0
 16 17  1  0  0  0  0
 17 18  2  0  0  0  0
 17 41  1  0  0  0  0
 18 19  1  0  0  0  0
 18 20  1  0  0  0  0
 19 42  1  0  0  0  0
 19 43  1  0  0  0  0
 19 44  1  0  0  0  0
 20 21  1  0  0  0  0
 20 22  2  0  0  0  0
 21 45  1  0  0  0  0
 21 46  1  0  0  0  0
 21 47  1  0  0  0  0
 22 23  1  0  0  0  0
 22 48  1  0  0  0  0
M  CHG  1   7   1
M  END
> <s_m_source_file>
AV-unprocessed.smi

> <i_m_source_file_index>
1225

> <i_lp_mmshare_version>
43012

> <i_f3d_flags>
0

> <s_epik_input>
W0NIM11jMW5bY0hdYyhzMSlbQ0gyXU4oW0NIM10pW0NIMl1bQ0BIXShbT0hdKVtDSDJdbihbY0hdbjIpYyhjMjMpW2NIXWMoW0NIM10pYyhbY0hdMylbQ0gzXQ==

> <s_epik_cmdline>
J2VwaWtfcHl0aG9uJywgJy1waCcsICc3LjAnLCAnLXRuJywgJzgnLCAnLW1hJywgJzIwMCcsICctbWV0YWxfYmluZGluZycsICctaW1hZScsICc8aW5maWxlLm1hZT4nLCAnLW9tYWUnLCAnPG91dGZpbGUubWFlPic=

> <r_epik_Ionization_Penalty>
1.62543

> <r_epik_Ionization_Penalty_Charging>
1.53932

> <r_epik_Ionization_Penalty_Neutral>
0.0861152

> <r_epik_State_Penalty>
1.73127

> <r_epik_Charging_Adjusted_Penalty>
3.27059

> <i_epik_Tot_Q>
1

> <i_epik_Tot_abs_Q>
1

> <r_epik_Metal_State_Penalty>
1.71387

> <b_epik_Metal_Only>
0

> <s_lp_Force_Field>
OPLS_2005

> <r_lp_Energy>
12.5396

> <b_lp_Chiralities_Consistent>
1

> <s_lp_Variant>
AV-unprocessed.smi:1225-8

> <Gold.Version>
5.8.1

> <Gold.Id.Protein>
6NUR|6NUR_protein|mol2

> <Gold.PLP.Fitness>
50.1190

> <Gold.PLP.PLP>
-49.3622

> <Gold.PLP.part.hbond>
-1.0000

> <Gold.PLP.part.metal>
0.0000

> <Gold.PLP.part.buried>
-6.6663

> <Gold.PLP.part.nonpolar>
-41.7205

> <Gold.PLP.part.repulsive>
0.1909

> <Gold.PLP.ligand.clash>
0.0000

> <Gold.PLP.ligand.torsion>
1.1995

> <Gold.PLP.Chemscore.Hbond>
1.0000

> <Gold.PLP.Chemscore.CHOScore>
0.0000

> <Gold.PLP.Chemscore.Metal>
0.0000

> <Gold.Chemscore.Hbonds>
donor molecule, donor type, donor heavy atom, donor atom, acceptor molecule, acceptor atom, score
      P1  H  7997  8008       L1    11  1.00

> <Gold.PLP.Chemscore.Internal.Correction>
0.1558

> <Gold.Rescore>
     Score         DG    S(hbond)    S(metal)    S(lipo)     H(rot)  DE(clash)    DE(int)     intcor
     17.83     -20.11       0.99        0.00     148.66       2.37       0.04       2.24       ----

> <Gold.Chemscore.Fitness>
17.8322

> <Gold.Chemscore.DG>
-20.1101

> <Gold.Chemscore.ZeroCoef>
-5.4800

> <Gold.Chemscore.Hbond>
0.9931

> <Gold.Chemscore.Metal>
0.0000

> <Gold.Chemscore.Lipo>
148.6587

> <Gold.Chemscore.Internal_Hbond>
0.0000

> <Gold.Chemscore.DEClash>
0.0359

> <Gold.Chemscore.DEInternal>
2.2421

> <Gold.Chemscore.Rot>
2.3750

> <Gold.Chemscore.Internal.Correction>
   9.000000E+99

> <Gold.Chemscore.Hbonds>
donor molecule, donor type, donor heavy atom, donor atom, acceptor molecule, acceptor atom, score
      P1  H  7997  8008       L1    11  0.94

> <Gold.Chemscore.Hbond.Weighted>
-3.3170

> <Gold.Chemscore.Metal.Weighted>
-0.0000

> <Gold.Chemscore.Lipo.Weighted>
-17.3931

> <Gold.Chemscore.Internal_Hbond.Weighted>
0.0000

> <Gold.Chemscore.DEClash.Weighted>
0.0359

> <Gold.Chemscore.DEInternal.Weighted>
2.2421

> <Gold.Chemscore.Rot.Weighted>
6.0800

> <Gold.Chemscore.Internal.Correction.Weighted>
   9.000000E+99

> <Gold.Protein.RotatedTorsions>
[ 6907 6896 6895 6894 ] final  -50.92 input  -60.11 | X-H torsion
[ 7974 7965 7964 7962 ] final  -87.39 input  175.53 | X-H torsion
[ 8008 7997 7996 7995 ] final -113.22 input   59.86 | X-H torsion
[ 10167 10162 10161 10158 ] final -102.86 input  -65.29 | X-H torsion
[ 10718 10713 10712 10709 ] final -121.58 input   66.30 | X-H torsion
[ 10763 10752 10751 10750 ] final  -44.32 input  -60.55 | X-H torsion
[ 11005 11000 10999 10996 ] final   47.59 input  -57.11 | X-H torsion

> <Gold.Protein.ActiveResidues>
 VAL166  LYS551  ARG553  GLY616  TRP617  ASP618  TYR619  PRO620  LYS621  CYS622 
 ASP623  PHE694  ASN695  SER759  ASP760  ASP761  ALA762  ILE779  LEU786  VAL792 
 PHE793  MET794  SER795  GLU796  ALA797  LYS798  CYS799  TRP800  GLU811  SER814 

> <Gold.Protein.RotatedAtoms>
  150.8660  134.8024  159.7118 H   0  0  0  0  0  0  0  0  0  0  0  0  # atno 6907 bound_to 6896
  152.4681  134.5022  159.9738 H   0  0  0  0  0  0  0  0  0  0  0  0  # atno 6908 bound_to 6896
  151.5119  133.3445  159.2922 H   0  0  0  0  0  0  0  0  0  0  0  0  # atno 6909 bound_to 6896
  145.4672  140.9560  143.1937 H   0  0  0  0  0  0  0  0  0  0  0  0  # atno 7974 bound_to 7965
  155.0174  140.0393  157.2423 H   0  0  0  0  0  0  0  0  0  0  0  0  # atno 8008 bound_to 7997
  154.7408  140.2748  155.6352 H   0  0  0  0  0  0  0  0  0  0  0  0  # atno 8009 bound_to 7997
  156.2864  140.2666  156.2134 H   0  0  0  0  0  0  0  0  0  0  0  0  # atno 8010 bound_to 7997
  140.2261  143.3640  152.0927 H   0  0  0  0  0  0  0  0  0  0  0  0  # atno 10167 bound_to 10162
  156.1348  130.6422  150.9679 H   0  0  0  0  0  0  0  0  0  0  0  0  # atno 10718 bound_to 10713
  154.0100  135.6682  153.4764 H   0  0  0  0  0  0  0  0  0  0  0  0  # atno 10763 bound_to 10752
  153.0625  135.5020  154.8121 H   0  0  0  0  0  0  0  0  0  0  0  0  # atno 10764 bound_to 10752
  154.7001  135.3077  154.9317 H   0  0  0  0  0  0  0  0  0  0  0  0  # atno 10765 bound_to 10752
  140.1266  134.4761  155.8555 H   0  0  0  0  0  0  0  0  0  0  0  0  # atno 11005 bound_to 11000
  144.7967  139.6221  143.7089 LP  0  0  0  0  0  0  0  0  0  0  0  0  # atno 17320 bound_to 7965
  146.2417  139.6015  142.9487 LP  0  0  0  0  0  0  0  0  0  0  0  0  # atno 17321 bound_to 7965
  139.5126  144.6920  151.5734 LP  0  0  0  0  0  0  0  0  0  0  0  0  # atno 17342 bound_to 10162
  140.6219  143.9242  150.6533 LP  0  0  0  0  0  0  0  0  0  0  0  0  # atno 17343 bound_to 10162
  157.6522  131.0895  150.8025 LP  0  0  0  0  0  0  0  0  0  0  0  0  # atno 17370 bound_to 10713
  156.8106  130.4951  149.5356 LP  0  0  0  0  0  0  0  0  0  0  0  0  # atno 17371 bound_to 10713
  141.2162  133.6780  156.6989 LP  0  0  0  0  0  0  0  0  0  0  0  0  # atno 17394 bound_to 11000
  140.2896  134.8251  157.4005 LP  0  0  0  0  0  0  0  0  0  0  0  0  # atno 17395 bound_to 11000

$$$$
