AV-unprocessed.smi:114|AV-procd|sdf|1109|dock3
  -GOLD-   2262018223D 1   1.00000     0.00000
 Structure written by MMmdl.
 32 34  0  0  0  0  0  0  0  0  1 V2000
  153.7364  139.6894  160.5328 N   0  0  0  0  0  0  0  0  0  0  0  0
  152.9415  140.5613  159.8969 C   0  0  0  0  0  0  0  0  0  0  0  0
  153.0791  141.8784  160.1741 N   0  0  0  0  0  0  0  0  0  0  0  0
  152.3052  142.7820  159.5609 C   0  0  0  0  0  0  0  0  0  0  0  0
  152.5090  144.0769  159.8988 F   0  0  0  0  0  0  0  0  0  0  0  0
  151.3524  142.5488  158.6524 N   0  0  0  0  0  0  0  0  0  0  0  0
  151.2088  141.2219  158.3687 C   0  0  0  0  0  0  0  0  0  0  0  0
  151.9645  140.1683  158.9499 C   0  0  0  0  0  0  0  0  0  0  0  0
  151.5524  138.9476  158.4340 N   0  0  0  0  0  0  0  0  0  0  0  0
  150.6039  139.2669  157.5950 C   0  0  0  0  0  0  0  0  0  0  0  0
  150.3275  140.6131  157.4951 N   0  0  0  0  0  0  0  0  0  0  0  0
  149.2963  141.2602  156.6190 C   0  0  2  0  0  0  0  0  0  0  0  0
  148.1231  140.5028  156.6424 O   0  0  0  0  0  0  0  0  0  0  0  0
  147.7964  140.0381  155.3338 C   0  0  1  0  0  0  0  0  0  0  0  0
  146.2742  139.8862  155.1671 C   0  0  0  0  0  0  0  0  0  0  0  0
  145.9758  139.3537  153.8944 O   0  0  0  0  0  0  0  0  0  0  0  0
  148.4683  141.0535  154.3981 C   0  0  1  0  0  0  0  0  0  0  0  0
  147.6634  142.2057  154.2224 O   0  0  0  0  0  0  0  0  0  0  0  0
  149.7416  141.4078  155.1497 C   0  0  2  0  0  0  0  0  0  0  0  0
  150.8003  140.5434  154.7764 O   0  0  0  0  0  0  0  0  0  0  0  0
  149.0969  142.2216  157.0939 H   0  0  0  0  0  0  0  0  0  0  0  0
  148.2805  139.0740  155.1736 H   0  0  0  0  0  0  0  0  0  0  0  0
  148.6682  140.6295  153.4130 H   0  0  0  0  0  0  0  0  0  0  0  0
  150.0650  142.4333  154.9659 H   0  0  0  0  0  0  0  0  0  0  0  0
  153.6515  138.7012  160.3428 H   0  0  0  0  0  0  0  0  0  0  0  0
  154.4223  140.0224  161.1949 H   0  0  0  0  0  0  0  0  0  0  0  0
  150.0727  138.5210  157.0216 H   0  0  0  0  0  0  0  0  0  0  0  0
  145.8487  139.2563  155.9491 H   0  0  0  0  0  0  0  0  0  0  0  0
  145.7901  140.8610  155.2324 H   0  0  0  0  0  0  0  0  0  0  0  0
  145.2882  139.8718  153.5046 H   0  0  0  0  0  0  0  0  0  0  0  0
  148.1119  142.9459  154.6021 H   0  0  0  0  0  0  0  0  0  0  0  0
  151.0845  140.0707  155.5436 H   0  0  0  0  0  0  0  0  0  0  0  0
  1  2  1  0  0  0  0
  1 25  1  0  0  0  0
  1 26  1  0  0  0  0
  2  8  1  0  0  0  0
  2  3  2  0  0  0  0
  3  4  1  0  0  0  0
  4  5  1  0  0  0  0
  4  6  2  0  0  0  0
  6  7  1  0  0  0  0
  7 11  1  0  0  0  0
  7  8  2  0  0  0  0
  8  9  1  0  0  0  0
  9 10  2  0  0  0  0
 10 11  1  0  0  0  0
 10 27  1  0  0  0  0
 11 12  1  0  0  0  0
 12 21  1  0  0  0  0
 12 19  1  0  0  0  0
 12 13  1  0  0  0  0
 13 14  1  0  0  0  0
 14 22  1  0  0  0  0
 14 15  1  0  0  0  0
 14 17  1  0  0  0  0
 15 16  1  0  0  0  0
 15 28  1  0  0  0  0
 15 29  1  0  0  0  0
 16 30  1  0  0  0  0
 17 23  1  0  0  0  0
 17 18  1  0  0  0  0
 17 19  1  0  0  0  0
 18 31  1  0  0  0  0
 19 24  1  0  0  0  0
 19 20  1  0  0  0  0
 20 32  1  0  0  0  0
M  END
> <s_m_source_file>
AV-unprocessed.smi

> <i_m_source_file_index>
114

> <i_lp_mmshare_version>
43012

> <i_f3d_flags>
0

> <s_epik_input>
RmMobjEpbmMoW05IMl0pYyhjMTIpbltjSF1uMltDQEBIXTNPW0NASF0oW0NIMl1bT0hdKVtDQEBIXShbT0hdKVtDQEBIXTNbT0hd

> <s_epik_cmdline>
J2VwaWtfcHl0aG9uJywgJy1waCcsICc3LjAnLCAnLXRuJywgJzgnLCAnLW1hJywgJzIwMCcsICctbWV0YWxfYmluZGluZycsICctaW1hZScsICc8aW5maWxlLm1hZT4nLCAnLW9tYWUnLCAnPG91dGZpbGUubWFlPic=

> <r_lp_tautomer_probability>
1

> <r_epik_Ionization_Penalty>
1.13199e-05

> <r_epik_Ionization_Penalty_Charging>
0

> <r_epik_Ionization_Penalty_Neutral>
1.13199e-05

> <r_epik_State_Penalty>
-0

> <r_epik_Charging_Adjusted_Penalty>
0

> <i_epik_Tot_Q>
0

> <i_epik_Tot_abs_Q>
0

> <r_epik_Metal_State_Penalty>
-0

> <b_epik_Metal_Only>
0

> <s_epik_Chemistry_Notes>
This compound contains an acetal/aminal-like group ( X-CH(R)-Y where X, Y are N, S, or O) that may be acid/base labile, releasing an aldehyde.

> <s_lp_Force_Field>
OPLS_2005

> <r_lp_Energy>
40.543

> <b_lp_Chiralities_Consistent>
1

> <s_lp_Variant>
AV-unprocessed.smi:114-3

> <Gold.Version>
5.8.1

> <Gold.Id.Protein>
6NUR|6NUR_protein|mol2

> <Gold.PLP.Fitness>
36.8118

> <Gold.PLP.PLP>
-28.8811

> <Gold.PLP.part.hbond>
-2.9069

> <Gold.PLP.part.metal>
0.0000

> <Gold.PLP.part.buried>
-5.7440

> <Gold.PLP.part.nonpolar>
-20.1595

> <Gold.PLP.part.repulsive>
0.1055

> <Gold.PLP.ligand.clash>
0.0000

> <Gold.PLP.ligand.torsion>
0.5357

> <Gold.PLP.Chemscore.Hbond>
3.0000

> <Gold.PLP.Chemscore.CHOScore>
0.0000

> <Gold.PLP.Chemscore.Metal>
0.0000

> <Gold.Chemscore.Hbonds>
donor molecule, donor type, donor heavy atom, donor atom, acceptor molecule, acceptor atom, score
      L1  H    16    30       P1 10175  1.00
      L1  H    18    31       P1  8028  0.65
      P1  H  7989  7998       L1    20  1.00

> <Gold.PLP.Chemscore.Internal.Correction>
0.0022

> <Gold.Rescore>
     Score         DG    S(hbond)    S(metal)    S(lipo)     H(rot)  DE(clash)    DE(int)     intcor
      7.14      -7.77       2.91        0.00      24.75       4.03       0.00       0.63       ----

> <Gold.Chemscore.Fitness>
7.1359

> <Gold.Chemscore.DG>
-7.7684

> <Gold.Chemscore.ZeroCoef>
-5.4800

> <Gold.Chemscore.Hbond>
2.9052

> <Gold.Chemscore.Metal>
0.0000

> <Gold.Chemscore.Lipo>
24.7520

> <Gold.Chemscore.Internal_Hbond>
0.0000

> <Gold.Chemscore.DEClash>
0.0000

> <Gold.Chemscore.DEInternal>
0.6325

> <Gold.Chemscore.Rot>
4.0277

> <Gold.Chemscore.Internal.Correction>
   9.000000E+99

> <Gold.Chemscore.Hbonds>
donor molecule, donor type, donor heavy atom, donor atom, acceptor molecule, acceptor atom, score
      L1  H    16    30       P1 10175  0.96
      L1  H    18    31       P1  8028  0.63
      P1  H  7989  7998       L1    20  0.88

> <Gold.Chemscore.Hbond.Weighted>
-9.7034

> <Gold.Chemscore.Metal.Weighted>
-0.0000

> <Gold.Chemscore.Lipo.Weighted>
-2.8960

> <Gold.Chemscore.Internal_Hbond.Weighted>
0.0000

> <Gold.Chemscore.DEClash.Weighted>
0.0000

> <Gold.Chemscore.DEInternal.Weighted>
0.6325

> <Gold.Chemscore.Rot.Weighted>
10.3110

> <Gold.Chemscore.Internal.Correction.Weighted>
   9.000000E+99

> <Gold.Protein.RotatedTorsions>
[ 6907 6896 6895 6894 ] final   71.03 input  -60.11 | X-H torsion
[ 7974 7965 7964 7962 ] final  -70.10 input  175.53 | X-H torsion
[ 8008 7997 7996 7995 ] final   97.98 input   59.86 | X-H torsion
[ 10167 10162 10161 10158 ] final  134.67 input  -65.29 | X-H torsion
[ 10718 10713 10712 10709 ] final   80.81 input   66.30 | X-H torsion
[ 10763 10752 10751 10750 ] final  147.34 input  -60.55 | X-H torsion
[ 11005 11000 10999 10996 ] final    9.62 input  -57.11 | X-H torsion

> <Gold.Protein.ActiveResidues>
 VAL166  LYS551  ARG553  GLY616  TRP617  ASP618  TYR619  PRO620  LYS621  CYS622 
 ASP623  PHE694  ASN695  SER759  ASP760  ASP761  ALA762  ILE779  LEU786  VAL792 
 PHE793  MET794  SER795  GLU796  ALA797  LYS798  CYS799  TRP800  GLU811  SER814 

> <Gold.Protein.RotatedAtoms>
  152.4785  134.4780  159.9656 H   0  0  0  0  0  0  0  0  0  0  0  0  # atno 6907 bound_to 6896
  151.4791  133.3544  159.2843 H   0  0  0  0  0  0  0  0  0  0  0  0  # atno 6908 bound_to 6896
  150.8841  134.8262  159.7307 H   0  0  0  0  0  0  0  0  0  0  0  0  # atno 6909 bound_to 6896
  145.6953  140.9137  143.0760 H   0  0  0  0  0  0  0  0  0  0  0  0  # atno 7974 bound_to 7965
  156.0957  140.3250  155.7875 H   0  0  0  0  0  0  0  0  0  0  0  0  # atno 8008 bound_to 7997
  155.4921  140.0562  157.2969 H   0  0  0  0  0  0  0  0  0  0  0  0  # atno 8009 bound_to 7997
  154.4665  140.1991  156.0120 H   0  0  0  0  0  0  0  0  0  0  0  0  # atno 8010 bound_to 7997
  139.5247  144.6556  151.5173 H   0  0  0  0  0  0  0  0  0  0  0  0  # atno 10167 bound_to 10162
  157.6816  130.9976  150.2134 H   0  0  0  0  0  0  0  0  0  0  0  0  # atno 10718 bound_to 10713
  154.0367  135.2893  155.3361 H   0  0  0  0  0  0  0  0  0  0  0  0  # atno 10763 bound_to 10752
  154.6954  135.5210  153.8454 H   0  0  0  0  0  0  0  0  0  0  0  0  # atno 10764 bound_to 10752
  153.0617  135.6616  154.0575 H   0  0  0  0  0  0  0  0  0  0  0  0  # atno 10765 bound_to 10752
  140.5236  134.0534  155.7852 H   0  0  0  0  0  0  0  0  0  0  0  0  # atno 11005 bound_to 11000
  144.6984  139.8876  143.7451 LP  0  0  0  0  0  0  0  0  0  0  0  0  # atno 17320 bound_to 7965
  146.0846  139.3834  143.0443 LP  0  0  0  0  0  0  0  0  0  0  0  0  # atno 17321 bound_to 7965
  140.6380  143.8946  150.6665 LP  0  0  0  0  0  0  0  0  0  0  0  0  # atno 17342 bound_to 10162
  140.2271  143.3764  152.1595 LP  0  0  0  0  0  0  0  0  0  0  0  0  # atno 17343 bound_to 10162
  156.2800  130.3732  149.7945 LP  0  0  0  0  0  0  0  0  0  0  0  0  # atno 17370 bound_to 10713
  156.5636  130.8394  151.3336 LP  0  0  0  0  0  0  0  0  0  0  0  0  # atno 17371 bound_to 10713
  141.1320  133.9285  157.2515 LP  0  0  0  0  0  0  0  0  0  0  0  0  # atno 17394 bound_to 11000
  139.9592  135.0158  156.9214 LP  0  0  0  0  0  0  0  0  0  0  0  0  # atno 17395 bound_to 11000

$$$$
