AV-unprocessed.smi:235|AV-procd|sdf|1806|dock7
  -GOLD-   2262020383D 1   1.00000     0.00000
 Structure written by MMmdl.
 54 58  0  0  0  0  0  0  0  0  1 V2000
  146.1964  132.1869  160.2110 O   0  0  0  0  0  0  0  0  0  0  0  0
  147.0442  132.8983  160.7521 C   0  0  0  0  0  0  0  0  0  0  0  0
  148.2597  132.4586  161.1088 N   0  0  0  0  0  0  0  0  0  0  0  0
  148.7437  131.1280  160.9343 C   0  0  0  0  0  0  0  0  0  0  0  0
  147.8717  129.9937  161.4270 C   0  0  0  0  0  0  0  0  0  0  0  0
  149.1261  130.3512  162.1755 C   0  0  0  0  0  0  0  0  0  0  0  0
  146.7437  134.3750  161.0548 C   0  0  1  0  0  0  0  0  0  0  0  0
  146.7869  134.6630  162.5643 C   0  0  0  0  0  0  0  0  0  0  0  0
  147.1687  136.1377  162.6392 C   0  0  0  0  0  0  0  0  0  0  0  0
  148.1227  136.3143  161.4587 C   0  0  0  0  0  0  0  0  0  0  0  0
  147.7606  135.2748  160.5029 N   0  0  0  0  0  0  0  0  0  0  0  0
  147.8725  135.5227  159.1699 C   0  0  0  0  0  0  0  0  0  0  0  0
  146.8749  135.1319  158.3319 N   0  0  0  0  0  0  0  0  0  0  0  0
  146.9607  135.3618  157.0189 C   0  0  0  0  0  0  0  0  0  0  0  0
  147.9421  135.9556  156.3390 N   0  0  0  0  0  0  0  0  0  0  0  0
  148.9499  136.3460  157.1699 C   0  0  0  0  0  0  0  0  0  0  0  0
  148.9976  136.1720  158.5828 C   0  0  0  0  0  0  0  0  0  0  0  0
  150.1904  136.6889  159.0777 N   0  0  0  0  0  0  0  0  0  0  0  0
  150.8055  137.1483  158.0226 C   0  0  0  0  0  0  0  0  0  0  0  0
  150.1282  136.9882  156.8354 N   0  0  0  0  0  0  0  0  0  0  0  0
  150.5697  137.4045  155.5170 C   0  0  0  0  0  0  0  0  0  0  0  0
  149.5901  138.3795  154.8302 C   0  0  2  0  0  0  0  0  0  0  0  0
  149.9275  138.4130  153.4580 O   0  0  0  0  0  0  0  0  0  0  0  0
  149.6240  139.8174  155.3939 C   0  0  1  0  0  0  0  0  0  0  0  0
  149.4152  139.9115  156.9065 C   0  0  0  0  0  0  0  0  0  0  0  0
  150.0483  141.2443  157.2710 C   0  0  0  0  0  0  0  0  0  0  0  0
  150.9623  141.5547  156.0830 C   0  0  0  0  0  0  0  0  0  0  0  0
  150.9152  140.3947  155.2645 O   0  0  0  0  0  0  0  0  0  0  0  0
  148.8872  133.1160  161.5488 H   0  0  0  0  0  0  0  0  0  0  0  0
  149.3395  130.9255  160.0454 H   0  0  0  0  0  0  0  0  0  0  0  0
  146.9198  130.2477  161.8901 H   0  0  0  0  0  0  0  0  0  0  0  0
  147.8763  129.0719  160.8490 H   0  0  0  0  0  0  0  0  0  0  0  0
  149.9677  129.6657  162.0990 H   0  0  0  0  0  0  0  0  0  0  0  0
  149.0124  130.8427  163.1400 H   0  0  0  0  0  0  0  0  0  0  0  0
  145.7633  134.6572  160.6660 H   0  0  0  0  0  0  0  0  0  0  0  0
  145.8364  134.4553  163.0565 H   0  0  0  0  0  0  0  0  0  0  0  0
  147.5557  134.0668  163.0598 H   0  0  0  0  0  0  0  0  0  0  0  0
  146.2799  136.7526  162.4908 H   0  0  0  0  0  0  0  0  0  0  0  0
  147.6162  136.4165  163.5936 H   0  0  0  0  0  0  0  0  0  0  0  0
  148.0418  137.3190  161.0410 H   0  0  0  0  0  0  0  0  0  0  0  0
  149.1553  136.1564  161.7726 H   0  0  0  0  0  0  0  0  0  0  0  0
  146.1226  135.0211  156.4292 H   0  0  0  0  0  0  0  0  0  0  0  0
  151.7731  137.6249  158.0828 H   0  0  0  0  0  0  0  0  0  0  0  0
  151.5552  137.8632  155.6116 H   0  0  0  0  0  0  0  0  0  0  0  0
  150.7006  136.5085  154.9087 H   0  0  0  0  0  0  0  0  0  0  0  0
  148.5745  137.9891  154.9057 H   0  0  0  0  0  0  0  0  0  0  0  0
  149.4384  137.7378  153.0132 H   0  0  0  0  0  0  0  0  0  0  0  0
  148.8961  140.4473  154.8782 H   0  0  0  0  0  0  0  0  0  0  0  0
  148.3650  139.8498  157.1934 H   0  0  0  0  0  0  0  0  0  0  0  0
  149.9494  139.1044  157.4098 H   0  0  0  0  0  0  0  0  0  0  0  0
  149.2920  142.0222  157.3819 H   0  0  0  0  0  0  0  0  0  0  0  0
  150.6019  141.1765  158.2080 H   0  0  0  0  0  0  0  0  0  0  0  0
  150.5849  142.4087  155.5193 H   0  0  0  0  0  0  0  0  0  0  0  0
  151.9861  141.7728  156.3876 H   0  0  0  0  0  0  0  0  0  0  0  0
  1  2  2  0  0  0  0
  2  3  1  0  0  0  0
  2  7  1  0  0  0  0
  3  4  1  0  0  0  0
  3 29  1  0  0  0  0
  4  6  1  0  0  0  0
  4  5  1  0  0  0  0
  4 30  1  0  0  0  0
  5  6  1  0  0  0  0
  5 31  1  0  0  0  0
  5 32  1  0  0  0  0
  6 33  1  0  0  0  0
  6 34  1  0  0  0  0
  7 11  1  0  0  0  0
  7  8  1  0  0  0  0
  7 35  1  0  0  0  0
  8  9  1  0  0  0  0
  8 36  1  0  0  0  0
  8 37  1  0  0  0  0
  9 10  1  0  0  0  0
  9 38  1  0  0  0  0
  9 39  1  0  0  0  0
 10 11  1  0  0  0  0
 10 40  1  0  0  0  0
 10 41  1  0  0  0  0
 11 12  1  0  0  0  0
 12 17  1  0  0  0  0
 12 13  2  0  0  0  0
 13 14  1  0  0  0  0
 14 15  2  0  0  0  0
 14 42  1  0  0  0  0
 15 16  1  0  0  0  0
 16 20  1  0  0  0  0
 16 17  2  0  0  0  0
 17 18  1  0  0  0  0
 18 19  2  0  0  0  0
 19 20  1  0  0  0  0
 19 43  1  0  0  0  0
 20 21  1  0  0  0  0
 21 22  1  0  0  0  0
 21 44  1  0  0  0  0
 21 45  1  0  0  0  0
 22 23  1  0  0  0  0
 22 24  1  0  0  0  0
 22 46  1  0  0  0  0
 23 47  1  0  0  0  0
 24 28  1  0  0  0  0
 24 25  1  0  0  0  0
 24 48  1  0  0  0  0
 25 26  1  0  0  0  0
 25 49  1  0  0  0  0
 25 50  1  0  0  0  0
 26 27  1  0  0  0  0
 26 51  1  0  0  0  0
 26 52  1  0  0  0  0
 27 28  1  0  0  0  0
 27 53  1  0  0  0  0
 27 54  1  0  0  0  0
M  END
> <s_m_source_file>
AV-unprocessed.smi

> <i_m_source_file_index>
235

> <i_lp_mmshare_version>
43012

> <i_f3d_flags>
0

> <s_epik_input>
W0NIMl0xW0NIMl1bQ0hdMVtOSF1DKD1PKVtDQEBIXTJbQ0gyXVtDSDJdW0NIMl1OMmMobltjSF1uMyljKGMzNCluW2NIXW40W0NIMl1bQ0BIXShbT0hdKVtDQEBIXTVbQ0gyXVtDSDJdW0NIMl1PNQ==

> <s_epik_cmdline>
J2VwaWtfcHl0aG9uJywgJy1waCcsICc3LjAnLCAnLXRuJywgJzgnLCAnLW1hJywgJzIwMCcsICctbWV0YWxfYmluZGluZycsICctaW1hZScsICc8aW5maWxlLm1hZT4nLCAnLW9tYWUnLCAnPG91dGZpbGUubWFlPic=

> <r_lp_tautomer_probability>
1

> <r_epik_Ionization_Penalty>
0.000526714

> <r_epik_Ionization_Penalty_Charging>
0

> <r_epik_Ionization_Penalty_Neutral>
0.000526714

> <r_epik_State_Penalty>
0.000272704

> <r_epik_Charging_Adjusted_Penalty>
0.000272704

> <i_epik_Tot_Q>
0

> <i_epik_Tot_abs_Q>
0

> <r_epik_Metal_State_Penalty>
-0

> <b_epik_Metal_Only>
0

> <s_lp_Force_Field>
OPLS_2005

> <r_lp_Energy>
59.6109

> <b_lp_Chiralities_Consistent>
1

> <s_lp_Variant>
AV-unprocessed.smi:235-6

> <Gold.Version>
5.8.1

> <Gold.Id.Protein>
6NUR|6NUR_protein|mol2

> <Gold.PLP.Fitness>
45.0497

> <Gold.PLP.PLP>
-36.9376

> <Gold.PLP.part.hbond>
-4.0000

> <Gold.PLP.part.metal>
0.0000

> <Gold.PLP.part.buried>
-4.3941

> <Gold.PLP.part.nonpolar>
-28.1157

> <Gold.PLP.part.repulsive>
0.1242

> <Gold.PLP.ligand.clash>
0.0000

> <Gold.PLP.ligand.torsion>
0.6192

> <Gold.PLP.Chemscore.Hbond>
3.0000

> <Gold.PLP.Chemscore.CHOScore>
0.0000

> <Gold.PLP.Chemscore.Metal>
0.0000

> <Gold.Chemscore.Hbonds>
donor molecule, donor type, donor heavy atom, donor atom, acceptor molecule, acceptor atom, score
      L1  H    23    47       P1  7948  1.00
      P1  H  6896  6907       L1    18  0.98
      P1  H  7989  7998       L1    28  1.00

> <Gold.PLP.Chemscore.Internal.Correction>
0.3506

> <Gold.Rescore>
     Score         DG    S(hbond)    S(metal)    S(lipo)     H(rot)  DE(clash)    DE(int)     intcor
     13.70     -15.17       2.24        0.00      77.55       2.68       0.00       1.47       ----

> <Gold.Chemscore.Fitness>
13.6983

> <Gold.Chemscore.DG>
-15.1726

> <Gold.Chemscore.ZeroCoef>
-5.4800

> <Gold.Chemscore.Hbond>
2.2365

> <Gold.Chemscore.Metal>
0.0000

> <Gold.Chemscore.Lipo>
77.5497

> <Gold.Chemscore.Internal_Hbond>
0.0000

> <Gold.Chemscore.DEClash>
0.0000

> <Gold.Chemscore.DEInternal>
1.4742

> <Gold.Chemscore.Rot>
2.6760

> <Gold.Chemscore.Internal.Correction>
   9.000000E+99

> <Gold.Chemscore.Hbonds>
donor molecule, donor type, donor heavy atom, donor atom, acceptor molecule, acceptor atom, score
      L1  H    23    47       P1  7948  0.90
      P1  H  6896  6907       L1    18  0.39
      P1  H  7989  7998       L1    28  0.56

> <Gold.Chemscore.Hbond.Weighted>
-7.4699

> <Gold.Chemscore.Metal.Weighted>
-0.0000

> <Gold.Chemscore.Lipo.Weighted>
-9.0733

> <Gold.Chemscore.Internal_Hbond.Weighted>
0.0000

> <Gold.Chemscore.DEClash.Weighted>
0.0000

> <Gold.Chemscore.DEInternal.Weighted>
1.4742

> <Gold.Chemscore.Rot.Weighted>
6.8506

> <Gold.Chemscore.Internal.Correction.Weighted>
   9.000000E+99

> <Gold.Protein.RotatedTorsions>
[ 6907 6896 6895 6894 ] final  -20.40 input  -60.11 | X-H torsion
[ 7974 7965 7964 7962 ] final -145.74 input  175.53 | X-H torsion
[ 8008 7997 7996 7995 ] final  -45.08 input   59.86 | X-H torsion
[ 10167 10162 10161 10158 ] final  132.23 input  -65.29 | X-H torsion
[ 10718 10713 10712 10709 ] final   47.00 input   66.30 | X-H torsion
[ 10763 10752 10751 10750 ] final -108.29 input  -60.55 | X-H torsion
[ 11005 11000 10999 10996 ] final  138.22 input  -57.11 | X-H torsion

> <Gold.Protein.ActiveResidues>
 VAL166  LYS551  ARG553  GLY616  TRP617  ASP618  TYR619  PRO620  LYS621  CYS622 
 ASP623  PHE694  ASN695  SER759  ASP760  ASP761  ALA762  ILE779  LEU786  VAL792 
 PHE793  MET794  SER795  GLU796  ALA797  LYS798  CYS799  TRP800  GLU811  SER814 

> <Gold.Protein.RotatedAtoms>
  151.2488  135.0615  159.9053 H   0  0  0  0  0  0  0  0  0  0  0  0  # atno 6907 bound_to 6896
  152.5383  134.0355  159.8054 H   0  0  0  0  0  0  0  0  0  0  0  0  # atno 6908 bound_to 6896
  151.0559  133.5535  159.2669 H   0  0  0  0  0  0  0  0  0  0  0  0  # atno 6909 bound_to 6896
  144.8207  140.5545  143.5580 H   0  0  0  0  0  0  0  0  0  0  0  0  # atno 7974 bound_to 7965
  154.3999  140.1406  156.3789 H   0  0  0  0  0  0  0  0  0  0  0  0  # atno 8008 bound_to 7997
  155.8022  140.3475  155.5389 H   0  0  0  0  0  0  0  0  0  0  0  0  # atno 8009 bound_to 7997
  155.8471  140.0936  157.1688 H   0  0  0  0  0  0  0  0  0  0  0  0  # atno 8010 bound_to 7997
  139.5349  144.6671  151.4821 H   0  0  0  0  0  0  0  0  0  0  0  0  # atno 10167 bound_to 10162
  157.4539  130.8155  149.7817 H   0  0  0  0  0  0  0  0  0  0  0  0  # atno 10718 bound_to 10713
  154.8127  135.4643  154.0559 H   0  0  0  0  0  0  0  0  0  0  0  0  # atno 10763 bound_to 10752
  153.1977  135.6864  153.8278 H   0  0  0  0  0  0  0  0  0  0  0  0  # atno 10764 bound_to 10752
  153.7773  135.3261  155.3338 H   0  0  0  0  0  0  0  0  0  0  0  0  # atno 10765 bound_to 10752
  140.0168  134.9414  157.0393 H   0  0  0  0  0  0  0  0  0  0  0  0  # atno 11005 bound_to 11000
  145.5112  139.1479  143.3603 LP  0  0  0  0  0  0  0  0  0  0  0  0  # atno 17320 bound_to 7965
  146.2512  140.5253  142.8893 LP  0  0  0  0  0  0  0  0  0  0  0  0  # atno 17321 bound_to 7965
  140.6549  143.8619  150.6825 LP  0  0  0  0  0  0  0  0  0  0  0  0  # atno 17342 bound_to 10162
  140.1996  143.3970  152.1802 LP  0  0  0  0  0  0  0  0  0  0  0  0  # atno 17343 bound_to 10162
  155.9999  130.3886  150.2647 LP  0  0  0  0  0  0  0  0  0  0  0  0  # atno 17370 bound_to 10713
  157.0821  131.0146  151.3153 LP  0  0  0  0  0  0  0  0  0  0  0  0  # atno 17371 bound_to 10713
  140.4457  134.1635  155.7177 LP  0  0  0  0  0  0  0  0  0  0  0  0  # atno 17394 bound_to 11000
  141.1748  133.8536  157.1456 LP  0  0  0  0  0  0  0  0  0  0  0  0  # atno 17395 bound_to 11000

$$$$
