AV-unprocessed.smi:2311|AV-procd|sdf|9262|dock3
  -GOLD-   2272012483D 1   1.00000     0.00000
 Structure written by MMmdl.
 40 41  0  0  0  0  0  0  0  0  1 V2000
  145.9699  131.7132  149.2531 C   0  0  0  0  0  0  0  0  0  0  0  0
  145.3003  132.7378  150.1443 C   0  0  0  0  0  0  0  0  0  0  0  0
  143.9466  132.6053  150.5116 C   0  0  0  0  0  0  0  0  0  0  0  0
  143.3863  133.5906  151.3440 C   0  0  0  0  0  0  0  0  0  0  0  0
  144.1968  134.6595  151.7727 C   0  0  0  0  0  0  0  0  0  0  0  0
  145.5468  134.7180  151.3590 C   0  0  0  0  0  0  0  0  0  0  0  0
  146.2783  135.8341  151.8455 N   0  0  0  0  0  0  0  0  0  0  0  0
  145.8013  137.0060  152.3018 C   0  0  0  0  0  0  0  0  0  0  0  0
  144.6105  137.3112  152.3749 O   0  0  0  0  0  0  0  0  0  0  0  0
  146.7973  137.8233  152.6742 N   0  0  0  0  0  0  0  0  0  0  0  0
  146.6237  139.1705  153.2106 C   0  0  1  0  0  0  0  0  0  0  0  0
  145.7692  139.1163  154.4824 C   0  0  0  0  0  0  0  0  0  0  0  0
  145.6732  140.5054  155.1281 C   0  0  0  0  0  0  0  0  0  0  0  0
  146.9753  141.0207  155.3992 O   0  0  0  0  0  0  0  0  0  0  0  0
  147.8465  141.1658  154.2724 C   0  0  0  0  0  0  0  0  0  0  0  0
  147.3489  142.2867  153.3344 C   0  0  0  0  0  0  0  0  0  0  0  0
  149.2047  141.5786  154.8633 C   0  0  0  0  0  0  0  0  0  0  0  0
  147.9854  139.8066  153.5449 C   0  0  0  0  0  0  0  0  0  0  0  0
  146.0777  133.7627  150.5554 N   0  0  0  0  0  0  0  0  0  0  0  0
  145.2437  131.0093  148.8455 H   0  0  0  0  0  0  0  0  0  0  0  0
  146.7121  131.1493  149.8184 H   0  0  0  0  0  0  0  0  0  0  0  0
  146.4726  132.2030  148.4187 H   0  0  0  0  0  0  0  0  0  0  0  0
  143.3517  131.7720  150.1672 H   0  0  0  0  0  0  0  0  0  0  0  0
  142.3523  133.5283  151.6498 H   0  0  0  0  0  0  0  0  0  0  0  0
  143.7815  135.4243  152.4128 H   0  0  0  0  0  0  0  0  0  0  0  0
  147.2818  135.7286  151.8435 H   0  0  0  0  0  0  0  0  0  0  0  0
  147.7458  137.4915  152.5793 H   0  0  0  0  0  0  0  0  0  0  0  0
  146.1040  139.7811  152.4705 H   0  0  0  0  0  0  0  0  0  0  0  0
  144.7708  138.7419  154.2535 H   0  0  0  0  0  0  0  0  0  0  0  0
  146.2091  138.4193  155.1972 H   0  0  0  0  0  0  0  0  0  0  0  0
  145.1069  141.1908  154.4978 H   0  0  0  0  0  0  0  0  0  0  0  0
  145.1288  140.4365  156.0697 H   0  0  0  0  0  0  0  0  0  0  0  0
  148.0638  142.4676  152.5311 H   0  0  0  0  0  0  0  0  0  0  0  0
  147.2219  143.2236  153.8774 H   0  0  0  0  0  0  0  0  0  0  0  0
  146.3960  142.0512  152.8627 H   0  0  0  0  0  0  0  0  0  0  0  0
  149.9566  141.7001  154.0828 H   0  0  0  0  0  0  0  0  0  0  0  0
  149.5753  140.8314  155.5658 H   0  0  0  0  0  0  0  0  0  0  0  0
  149.1302  142.5240  155.4017 H   0  0  0  0  0  0  0  0  0  0  0  0
  148.5417  139.1171  154.1820 H   0  0  0  0  0  0  0  0  0  0  0  0
  148.5814  139.9276  152.6392 H   0  0  0  0  0  0  0  0  0  0  0  0
  1  2  1  0  0  0  0
  1 20  1  0  0  0  0
  1 21  1  0  0  0  0
  1 22  1  0  0  0  0
  2 19  1  0  0  0  0
  2  3  2  0  0  0  0
  3  4  1  0  0  0  0
  3 23  1  0  0  0  0
  4  5  2  0  0  0  0
  4 24  1  0  0  0  0
  5  6  1  0  0  0  0
  5 25  1  0  0  0  0
  6  7  1  0  0  0  0
  6 19  2  0  0  0  0
  7  8  1  0  0  0  0
  7 26  1  0  0  0  0
  8  9  2  0  0  0  0
  8 10  1  0  0  0  0
 10 11  1  0  0  0  0
 10 27  1  0  0  0  0
 11 18  1  0  0  0  0
 11 12  1  0  0  0  0
 11 28  1  0  0  0  0
 12 13  1  0  0  0  0
 12 29  1  0  0  0  0
 12 30  1  0  0  0  0
 13 14  1  0  0  0  0
 13 31  1  0  0  0  0
 13 32  1  0  0  0  0
 14 15  1  0  0  0  0
 15 16  1  0  0  0  0
 15 17  1  0  0  0  0
 15 18  1  0  0  0  0
 16 33  1  0  0  0  0
 16 34  1  0  0  0  0
 16 35  1  0  0  0  0
 17 36  1  0  0  0  0
 17 37  1  0  0  0  0
 17 38  1  0  0  0  0
 18 39  1  0  0  0  0
 18 40  1  0  0  0  0
M  END
> <s_m_source_file>
AV-unprocessed.smi

> <i_m_source_file_index>
2311

> <i_lp_mmshare_version>
43012

> <i_f3d_flags>
0

> <s_epik_input>
W0NIM11jMVtjSF1bY0hdW2NIXWMobjEpW05IXUMoPU8pW05IXVtDQEBIXShbQ0gyXTIpW0NIMl1bQ0gyXU9DMihbQ0gzXSlbQ0gzXQ==

> <s_epik_cmdline>
J2VwaWtfcHl0aG9uJywgJy1waCcsICc3LjAnLCAnLXRuJywgJzgnLCAnLW1hJywgJzIwMCcsICctbWV0YWxfYmluZGluZycsICctaW1hZScsICc8aW5maWxlLm1hZT4nLCAnLW9tYWUnLCAnPG91dGZpbGUubWFlPic=

> <r_lp_tautomer_probability>
1

> <r_epik_Ionization_Penalty>
8.54628e-05

> <r_epik_Ionization_Penalty_Charging>
0

> <r_epik_Ionization_Penalty_Neutral>
8.54628e-05

> <r_epik_State_Penalty>
-0

> <r_epik_Charging_Adjusted_Penalty>
0

> <i_epik_Tot_Q>
0

> <i_epik_Tot_abs_Q>
0

> <r_epik_Metal_State_Penalty>
-0

> <b_epik_Metal_Only>
0

> <s_lp_Force_Field>
OPLS_2005

> <r_lp_Energy>
12.4955

> <b_lp_Chiralities_Consistent>
1

> <s_lp_Variant>
AV-unprocessed.smi:2311-2

> <Gold.Version>
5.8.1

> <Gold.Id.Protein>
6NUR|6NUR_protein|mol2

> <Gold.PLP.Fitness>
37.1092

> <Gold.PLP.PLP>
-31.3275

> <Gold.PLP.part.hbond>
-2.0000

> <Gold.PLP.part.metal>
0.0000

> <Gold.PLP.part.buried>
-5.7449

> <Gold.PLP.part.nonpolar>
-25.0043

> <Gold.PLP.part.repulsive>
0.5118

> <Gold.PLP.ligand.clash>
0.0000

> <Gold.PLP.ligand.torsion>
0.0973

> <Gold.PLP.Chemscore.Hbond>
1.9920

> <Gold.PLP.Chemscore.CHOScore>
0.0000

> <Gold.PLP.Chemscore.Metal>
0.0000

> <Gold.Chemscore.Hbonds>
donor molecule, donor type, donor heavy atom, donor atom, acceptor molecule, acceptor atom, score
      L1  H     7    26       P1  7948  1.00
      L1  H    10    27       P1  7948  0.98

> <Gold.PLP.Chemscore.Internal.Correction>
0.0003

> <Gold.Rescore>
     Score         DG    S(hbond)    S(metal)    S(lipo)     H(rot)  DE(clash)    DE(int)     intcor
     15.95     -18.41       1.90        0.00      78.00       1.00       0.89       1.57       ----

> <Gold.Chemscore.Fitness>
15.9466

> <Gold.Chemscore.DG>
-18.4085

> <Gold.Chemscore.ZeroCoef>
-5.4800

> <Gold.Chemscore.Hbond>
1.9049

> <Gold.Chemscore.Metal>
0.0000

> <Gold.Chemscore.Lipo>
77.9998

> <Gold.Chemscore.Internal_Hbond>
0.0000

> <Gold.Chemscore.DEClash>
0.8947

> <Gold.Chemscore.DEInternal>
1.5672

> <Gold.Chemscore.Rot>
1.0000

> <Gold.Chemscore.Internal.Correction>
   9.000000E+99

> <Gold.Chemscore.Hbonds>
donor molecule, donor type, donor heavy atom, donor atom, acceptor molecule, acceptor atom, score
      L1  H     7    26       P1  7948  0.99
      L1  H    10    27       P1  7948  0.93

> <Gold.Chemscore.Hbond.Weighted>
-6.3625

> <Gold.Chemscore.Metal.Weighted>
-0.0000

> <Gold.Chemscore.Lipo.Weighted>
-9.1260

> <Gold.Chemscore.Internal_Hbond.Weighted>
0.0000

> <Gold.Chemscore.DEClash.Weighted>
0.8947

> <Gold.Chemscore.DEInternal.Weighted>
1.5672

> <Gold.Chemscore.Rot.Weighted>
2.5600

> <Gold.Chemscore.Internal.Correction.Weighted>
   9.000000E+99

> <Gold.Protein.RotatedTorsions>
[ 6907 6896 6895 6894 ] final  -21.12 input  -60.11 | X-H torsion
[ 7974 7965 7964 7962 ] final  -28.62 input  175.53 | X-H torsion
[ 8008 7997 7996 7995 ] final  131.32 input   59.86 | X-H torsion
[ 10167 10162 10161 10158 ] final   97.28 input  -65.29 | X-H torsion
[ 10718 10713 10712 10709 ] final   56.42 input   66.30 | X-H torsion
[ 10763 10752 10751 10750 ] final  -12.88 input  -60.55 | X-H torsion
[ 11005 11000 10999 10996 ] final   60.07 input  -57.11 | X-H torsion

> <Gold.Protein.ActiveResidues>
 VAL166  LYS551  ARG553  GLY616  TRP617  ASP618  TYR619  PRO620  LYS621  CYS622 
 ASP623  PHE694  ASN695  SER759  ASP760  ASP761  ALA762  ILE779  LEU786  VAL792 
 PHE793  MET794  SER795  GLU796  ALA797  LYS798  CYS799  TRP800  GLU811  SER814 

> <Gold.Protein.RotatedAtoms>
  151.2380  135.0578  159.9013 H   0  0  0  0  0  0  0  0  0  0  0  0  # atno 6907 bound_to 6896
  152.5396  134.0465  159.8101 H   0  0  0  0  0  0  0  0  0  0  0  0  # atno 6908 bound_to 6896
  151.0654  133.5460  159.2662 H   0  0  0  0  0  0  0  0  0  0  0  0  # atno 6909 bound_to 6896
  146.1275  140.5306  142.8708 H   0  0  0  0  0  0  0  0  0  0  0  0  # atno 7974 bound_to 7965
  156.2968  140.2574  156.2906 H   0  0  0  0  0  0  0  0  0  0  0  0  # atno 8008 bound_to 7997
  154.9513  140.0394  157.2164 H   0  0  0  0  0  0  0  0  0  0  0  0  # atno 8009 bound_to 7997
  154.8033  140.2832  155.5910 H   0  0  0  0  0  0  0  0  0  0  0  0  # atno 8010 bound_to 7997
  139.7816  144.6886  151.0015 H   0  0  0  0  0  0  0  0  0  0  0  0  # atno 10167 bound_to 10162
  157.5429  130.8710  149.8849 H   0  0  0  0  0  0  0  0  0  0  0  0  # atno 10718 bound_to 10713
  153.5050  135.7017  153.5811 H   0  0  0  0  0  0  0  0  0  0  0  0  # atno 10763 bound_to 10752
  153.3926  135.3892  155.1934 H   0  0  0  0  0  0  0  0  0  0  0  0  # atno 10764 bound_to 10752
  154.8708  135.3862  154.4524 H   0  0  0  0  0  0  0  0  0  0  0  0  # atno 10765 bound_to 10752
  140.0258  134.6085  155.9575 H   0  0  0  0  0  0  0  0  0  0  0  0  # atno 11005 bound_to 11000
  144.7657  140.5525  143.6705 LP  0  0  0  0  0  0  0  0  0  0  0  0  # atno 17320 bound_to 7965
  145.5333  139.1475  143.3487 LP  0  0  0  0  0  0  0  0  0  0  0  0  # atno 17321 bound_to 7965
  140.7818  143.4477  151.0458 LP  0  0  0  0  0  0  0  0  0  0  0  0  # atno 17342 bound_to 10162
  139.8157  143.7889  152.3174 LP  0  0  0  0  0  0  0  0  0  0  0  0  # atno 17343 bound_to 10162
  156.0512  130.3717  150.1197 LP  0  0  0  0  0  0  0  0  0  0  0  0  # atno 17370 bound_to 10713
  156.9376  130.9734  151.3522 LP  0  0  0  0  0  0  0  0  0  0  0  0  # atno 17371 bound_to 10713
  141.1802  133.6545  156.4988 LP  0  0  0  0  0  0  0  0  0  0  0  0  # atno 17394 bound_to 11000
  140.4309  134.7103  157.4941 LP  0  0  0  0  0  0  0  0  0  0  0  0  # atno 17395 bound_to 11000

$$$$
