AV-unprocessed.smi:243|AV-procd|sdf|1855|dock8
  -GOLD-   2262020483D 1   1.00000     0.00000
 Structure written by MMmdl.
 58 61  0  0  0  0  0  0  0  0  2 V2000
  152.2226  144.8540  158.6466 C   0  0  0  0  0  0  0  0  0  0  0  0
  150.8975  144.1635  159.0011 C   0  0  0  0  0  0  0  0  0  0  0  0
  150.3252  143.4051  157.8598 N   0  3  1  0  0  0  0  0  0  0  0  0
  151.3123  142.5199  157.1921 C   0  0  0  0  0  0  0  0  0  0  0  0
  150.7074  141.8872  155.9330 C   0  0  0  0  0  0  0  0  0  0  0  0
  149.4231  141.0924  156.2568 C   0  0  2  0  0  0  0  0  0  0  0  0
  148.8565  140.4372  155.0671 N   0  0  0  0  0  0  0  0  0  0  0  0
  148.2719  141.3061  154.0521 C   0  0  0  0  0  0  0  0  0  0  0  0
  148.1839  139.2735  155.2522 C   0  0  0  0  0  0  0  0  0  0  0  0
  148.4168  138.5876  156.3990 N   0  0  0  0  0  0  0  0  0  0  0  0
  147.7821  137.4362  156.6366 C   0  0  0  0  0  0  0  0  0  0  0  0
  146.8901  136.8027  155.8732 N   0  0  0  0  0  0  0  0  0  0  0  0
  146.6591  137.4814  154.7133 C   0  0  0  0  0  0  0  0  0  0  0  0
  147.2587  138.7125  154.3237 C   0  0  0  0  0  0  0  0  0  0  0  0
  146.7677  139.1033  153.0831 N   0  0  0  0  0  0  0  0  0  0  0  0
  145.9311  138.1566  152.7569 C   0  0  0  0  0  0  0  0  0  0  0  0
  145.8074  137.1405  153.6770 N   0  0  0  0  0  0  0  0  0  0  0  0
  144.9498  135.9701  153.5734 C   0  0  0  0  0  0  0  0  0  0  0  0
  145.3125  135.0419  152.3907 C   0  0  2  0  0  0  0  0  0  0  0  0
  146.6682  134.6471  152.5091 O   0  0  0  0  0  0  0  0  0  0  0  0
  145.1118  135.6745  151.0158 C   0  0  0  0  0  0  0  0  0  0  0  0
  144.7039  134.4897  150.1515 C   0  0  0  0  0  0  0  0  0  0  0  0
  143.8645  133.7511  151.0217 O   0  0  0  0  0  0  0  0  0  0  0  0
  144.4387  133.7734  152.3242 C   0  0  0  0  0  0  0  0  0  0  0  0
  148.4211  141.9938  157.0257 C   0  0  1  0  0  0  0  0  0  0  0  0
  147.1825  141.2100  157.4975 C   0  0  0  0  0  0  0  0  0  0  0  0
  149.1062  142.6496  158.2442 C   0  0  0  0  0  0  0  0  0  0  0  0
  152.5642  145.4740  159.4758 H   0  0  0  0  0  0  0  0  0  0  0  0
  152.1091  145.5017  157.7768 H   0  0  0  0  0  0  0  0  0  0  0  0
  153.0162  144.1384  158.4340 H   0  0  0  0  0  0  0  0  0  0  0  0
  151.0235  143.5061  159.8625 H   0  0  0  0  0  0  0  0  0  0  0  0
  150.1937  144.9392  159.3057 H   0  0  0  0  0  0  0  0  0  0  0  0
  152.1996  143.0839  156.9071 H   0  0  0  0  0  0  0  0  0  0  0  0
  151.6404  141.7436  157.8853 H   0  0  0  0  0  0  0  0  0  0  0  0
  150.4927  142.6801  155.2158 H   0  0  0  0  0  0  0  0  0  0  0  0
  151.4489  141.2391  155.4655 H   0  0  0  0  0  0  0  0  0  0  0  0
  149.7091  140.2875  156.9357 H   0  0  0  0  0  0  0  0  0  0  0  0
  147.8953  140.7273  153.2074 H   0  0  0  0  0  0  0  0  0  0  0  0
  149.0276  141.9927  153.6699 H   0  0  0  0  0  0  0  0  0  0  0  0
  147.4522  141.9000  154.4557 H   0  0  0  0  0  0  0  0  0  0  0  0
  148.0236  136.9531  157.5718 H   0  0  0  0  0  0  0  0  0  0  0  0
  145.3776  138.1739  151.8293 H   0  0  0  0  0  0  0  0  0  0  0  0
  144.9987  135.4208  154.5145 H   0  0  0  0  0  0  0  0  0  0  0  0
  143.9195  136.3150  153.4758 H   0  0  0  0  0  0  0  0  0  0  0  0
  147.2124  135.3302  152.1483 H   0  0  0  0  0  0  0  0  0  0  0  0
  144.2853  136.3857  151.0443 H   0  0  0  0  0  0  0  0  0  0  0  0
  145.9897  136.2010  150.6390 H   0  0  0  0  0  0  0  0  0  0  0  0
  144.1807  134.7879  149.2427 H   0  0  0  0  0  0  0  0  0  0  0  0
  145.5702  133.8874  149.8730 H   0  0  0  0  0  0  0  0  0  0  0  0
  145.0219  132.8641  152.4794 H   0  0  0  0  0  0  0  0  0  0  0  0
  143.6404  133.7779  153.0668 H   0  0  0  0  0  0  0  0  0  0  0  0
  148.0883  142.7997  156.3709 H   0  0  0  0  0  0  0  0  0  0  0  0
  147.4616  140.3992  158.1710 H   0  0  0  0  0  0  0  0  0  0  0  0
  146.6356  140.7697  156.6644 H   0  0  0  0  0  0  0  0  0  0  0  0
  146.4876  141.8592  158.0306 H   0  0  0  0  0  0  0  0  0  0  0  0
  149.3718  141.8925  158.9842 H   0  0  0  0  0  0  0  0  0  0  0  0
  148.3995  143.3263  158.7265 H   0  0  0  0  0  0  0  0  0  0  0  0
  150.0304  144.0906  157.1786 H   0  0  0  0  0  0  0  0  0  0  0  0
  1  2  1  0  0  0  0
  1 28  1  0  0  0  0
  1 29  1  0  0  0  0
  1 30  1  0  0  0  0
  2  3  1  0  0  0  0
  2 31  1  0  0  0  0
  2 32  1  0  0  0  0
  3 27  1  0  0  0  0
  3  4  1  0  0  0  0
  3 58  1  0  0  0  0
  4  5  1  0  0  0  0
  4 33  1  0  0  0  0
  4 34  1  0  0  0  0
  5  6  1  0  0  0  0
  5 35  1  0  0  0  0
  5 36  1  0  0  0  0
  6  7  1  0  0  0  0
  6 25  1  0  0  0  0
  6 37  1  0  0  0  0
  7  8  1  0  0  0  0
  7  9  1  0  0  0  0
  8 38  1  0  0  0  0
  8 39  1  0  0  0  0
  8 40  1  0  0  0  0
  9 14  1  0  0  0  0
  9 10  2  0  0  0  0
 10 11  1  0  0  0  0
 11 12  2  0  0  0  0
 11 41  1  0  0  0  0
 12 13  1  0  0  0  0
 13 17  1  0  0  0  0
 13 14  2  0  0  0  0
 14 15  1  0  0  0  0
 15 16  2  0  0  0  0
 16 17  1  0  0  0  0
 16 42  1  0  0  0  0
 17 18  1  0  0  0  0
 18 19  1  0  0  0  0
 18 43  1  0  0  0  0
 18 44  1  0  0  0  0
 19 24  1  0  0  0  0
 19 20  1  0  0  0  0
 19 21  1  0  0  0  0
 20 45  1  0  0  0  0
 21 22  1  0  0  0  0
 21 46  1  0  0  0  0
 21 47  1  0  0  0  0
 22 23  1  0  0  0  0
 22 48  1  0  0  0  0
 22 49  1  0  0  0  0
 23 24  1  0  0  0  0
 24 50  1  0  0  0  0
 24 51  1  0  0  0  0
 25 26  1  0  0  0  0
 25 27  1  0  0  0  0
 25 52  1  0  0  0  0
 26 53  1  0  0  0  0
 26 54  1  0  0  0  0
 26 55  1  0  0  0  0
 27 56  1  0  0  0  0
 27 57  1  0  0  0  0
M  CHG  1   3   1
M  END
> <s_m_source_file>
AV-unprocessed.smi

> <i_m_source_file_index>
243

> <i_lp_mmshare_version>
43012

> <i_f3d_flags>
0

> <s_epik_input>
W0NIM11bQ0gyXU4xW0NIMl1bQ0gyXVtDQEhdKFtDQEBIXShbQ0gzXSlbQ0gyXTEpTihbQ0gzXSljKG5bY0hdbjIpYyhjMjMpbltjSF1uM1tDSDJdW0NAQF00KFtPSF0pW0NIMl1bQ0gyXU9bQ0gyXTQ=

> <s_epik_cmdline>
J2VwaWtfcHl0aG9uJywgJy1waCcsICc3LjAnLCAnLXRuJywgJzgnLCAnLW1hJywgJzIwMCcsICctbWV0YWxfYmluZGluZycsICctaW1hZScsICc8aW5maWxlLm1hZT4nLCAnLW9tYWUnLCAnPG91dGZpbGUubWFlPic=

> <r_lp_tautomer_probability>
1

> <r_epik_Ionization_Penalty>
0.00253099

> <r_epik_Ionization_Penalty_Charging>
0.00137877

> <r_epik_Ionization_Penalty_Neutral>
0.00115221

> <r_epik_State_Penalty>
-0

> <r_epik_Charging_Adjusted_Penalty>
0.00137877

> <i_epik_Tot_Q>
1

> <i_epik_Tot_abs_Q>
1

> <r_epik_Metal_State_Penalty>
-0

> <b_epik_Metal_Only>
0

> <s_lp_Force_Field>
OPLS_2005

> <r_lp_Energy>
45.753

> <b_lp_Chiralities_Consistent>
1

> <s_lp_Variant>
AV-unprocessed.smi:243-8

> <Gold.Version>
5.8.1

> <Gold.Id.Protein>
6NUR|6NUR_protein|mol2

> <Gold.PLP.Fitness>
43.7561

> <Gold.PLP.PLP>
-32.7341

> <Gold.PLP.part.hbond>
-2.0000

> <Gold.PLP.part.metal>
0.0000

> <Gold.PLP.part.buried>
-4.5310

> <Gold.PLP.part.nonpolar>
-26.4562

> <Gold.PLP.part.repulsive>
0.5703

> <Gold.PLP.ligand.clash>
0.0000

> <Gold.PLP.ligand.torsion>
0.9297

> <Gold.PLP.Chemscore.Hbond>
2.9920

> <Gold.PLP.Chemscore.CHOScore>
1.0592

> <Gold.PLP.Chemscore.Metal>
0.0000

> <Gold.Chemscore.Hbonds>
donor molecule, donor type, donor heavy atom, donor atom, acceptor molecule, acceptor atom, score
      L1  H     3    58       P1  8028  2.00
      L1  H    20    45       P1  7948  1.00
      L1  C    16    42       P1 10171  0.96
      L1  C    16    42       P1 10175  0.02

> <Gold.PLP.Chemscore.Internal.Correction>
0.7277

> <Gold.Rescore>
     Score         DG    S(hbond)    S(metal)    S(lipo)     H(rot)  DE(clash)    DE(int)     intcor
     12.05     -15.33       1.82        0.00      87.70       2.53       0.84       2.44       ----

> <Gold.Chemscore.Fitness>
12.0535

> <Gold.Chemscore.DG>
-15.3285

> <Gold.Chemscore.ZeroCoef>
-5.4800

> <Gold.Chemscore.Hbond>
1.8161

> <Gold.Chemscore.Metal>
0.0000

> <Gold.Chemscore.Lipo>
87.6985

> <Gold.Chemscore.Internal_Hbond>
0.0000

> <Gold.Chemscore.DEClash>
0.8378

> <Gold.Chemscore.DEInternal>
2.4372

> <Gold.Chemscore.Rot>
2.5305

> <Gold.Chemscore.Internal.Correction>
   9.000000E+99

> <Gold.Chemscore.Hbonds>
donor molecule, donor type, donor heavy atom, donor atom, acceptor molecule, acceptor atom, score
      L1  H     3    58       P1  8028  0.78
      L1  H    20    45       P1  7948  0.96

> <Gold.Chemscore.Hbond.Weighted>
-6.0658

> <Gold.Chemscore.Metal.Weighted>
-0.0000

> <Gold.Chemscore.Lipo.Weighted>
-10.2607

> <Gold.Chemscore.Internal_Hbond.Weighted>
0.0000

> <Gold.Chemscore.DEClash.Weighted>
0.8378

> <Gold.Chemscore.DEInternal.Weighted>
2.4372

> <Gold.Chemscore.Rot.Weighted>
6.4780

> <Gold.Chemscore.Internal.Correction.Weighted>
   9.000000E+99

> <Gold.Protein.RotatedTorsions>
[ 6907 6896 6895 6894 ] final -123.77 input  -60.11 | X-H torsion
[ 7974 7965 7964 7962 ] final  167.70 input  175.53 | X-H torsion
[ 8008 7997 7996 7995 ] final  -51.85 input   59.86 | X-H torsion
[ 10167 10162 10161 10158 ] final   26.64 input  -65.29 | X-H torsion
[ 10718 10713 10712 10709 ] final   95.04 input   66.30 | X-H torsion
[ 10763 10752 10751 10750 ] final  169.66 input  -60.55 | X-H torsion
[ 11005 11000 10999 10996 ] final  -86.71 input  -57.11 | X-H torsion

> <Gold.Protein.ActiveResidues>
 VAL166  LYS551  ARG553  GLY616  TRP617  ASP618  TYR619  PRO620  LYS621  CYS622 
 ASP623  PHE694  ASN695  SER759  ASP760  ASP761  ALA762  ILE779  LEU786  VAL792 
 PHE793  MET794  SER795  GLU796  ALA797  LYS798  CYS799  TRP800  GLU811  SER814 

> <Gold.Protein.RotatedAtoms>
  150.8703  133.7515  159.2963 H   0  0  0  0  0  0  0  0  0  0  0  0  # atno 6907 bound_to 6896
  151.5129  135.1064  159.9868 H   0  0  0  0  0  0  0  0  0  0  0  0  # atno 6908 bound_to 6896
  152.4690  133.7943  159.6974 H   0  0  0  0  0  0  0  0  0  0  0  0  # atno 6909 bound_to 6896
  144.7415  139.8800  143.6395 H   0  0  0  0  0  0  0  0  0  0  0  0  # atno 7974 bound_to 7965
  154.4092  140.1238  156.4896 H   0  0  0  0  0  0  0  0  0  0  0  0  # atno 8008 bound_to 7997
  155.7004  140.3495  155.4911 H   0  0  0  0  0  0  0  0  0  0  0  0  # atno 8009 bound_to 7997
  155.9390  140.1083  157.1061 H   0  0  0  0  0  0  0  0  0  0  0  0  # atno 8010 bound_to 7997
  140.5006  144.0321  150.6331 H   0  0  0  0  0  0  0  0  0  0  0  0  # atno 10167 bound_to 10162
  157.6942  131.0532  150.4279 H   0  0  0  0  0  0  0  0  0  0  0  0  # atno 10718 bound_to 10713
  154.3863  135.2753  155.2181 H   0  0  0  0  0  0  0  0  0  0  0  0  # atno 10763 bound_to 10752
  154.4266  135.5987  153.6046 H   0  0  0  0  0  0  0  0  0  0  0  0  # atno 10764 bound_to 10752
  152.9833  135.5985  154.4112 H   0  0  0  0  0  0  0  0  0  0  0  0  # atno 10765 bound_to 10752
  141.1626  133.7470  156.9201 H   0  0  0  0  0  0  0  0  0  0  0  0  # atno 11005 bound_to 11000
  146.1218  139.4238  143.0223 LP  0  0  0  0  0  0  0  0  0  0  0  0  # atno 17320 bound_to 7965
  145.7293  141.0048  143.1360 LP  0  0  0  0  0  0  0  0  0  0  0  0  # atno 17321 bound_to 7965
  140.3616  143.2905  152.0377 LP  0  0  0  0  0  0  0  0  0  0  0  0  # atno 17342 bound_to 10162
  139.4871  144.6299  151.7091 LP  0  0  0  0  0  0  0  0  0  0  0  0  # atno 17343 bound_to 10162
  156.4648  130.4040  149.6554 LP  0  0  0  0  0  0  0  0  0  0  0  0  # atno 17370 bound_to 10713
  156.3656  130.7504  151.2481 LP  0  0  0  0  0  0  0  0  0  0  0  0  # atno 17371 bound_to 10713
  140.1457  134.9264  157.2526 LP  0  0  0  0  0  0  0  0  0  0  0  0  # atno 17394 bound_to 11000
  140.2783  134.3380  155.7351 LP  0  0  0  0  0  0  0  0  0  0  0  0  # atno 17395 bound_to 11000

$$$$
