AV-unprocessed.smi:35|AV-procd|sdf|256|dock7
  -GOLD-   2262016 23D 1   1.00000     0.00000
 Structure written by MMmdl.
 29 30  0  0  0  0  0  0  0  0  1 V2000
  152.4371  135.7829  157.0272 O   0  0  0  0  0  0  0  0  0  0  0  0
  151.9581  136.8787  156.7434 C   0  0  0  0  0  0  0  0  0  0  0  0
  152.6480  137.7547  155.9019 N   0  0  0  0  0  0  0  0  0  0  0  0
  152.2115  139.0239  155.5174 C   0  0  0  0  0  0  0  0  0  0  0  0
  152.8859  139.6867  154.7308 O   0  0  0  0  0  0  0  0  0  0  0  0
  150.9876  139.4846  156.0587 N   0  0  0  0  0  0  0  0  0  0  0  0
  150.4596  140.8464  155.6322 C   0  0  1  0  0  0  0  0  0  0  0  0
  150.1036  140.8041  154.2777 O   0  0  0  0  0  0  0  0  0  0  0  0
  148.6884  140.7505  154.1044 C   0  0  1  0  0  0  0  0  0  0  0  0
  148.1827  139.2886  154.1161 C   0  0  0  0  0  0  0  0  0  0  0  0
  149.0367  138.4777  153.3379 O   0  0  0  0  0  0  0  0  0  0  0  0
  148.2127  141.6138  155.2776 C   0  0  1  0  0  0  0  0  0  0  0  0
  146.8688  141.3670  155.6432 O   0  0  0  0  0  0  0  0  0  0  0  0
  149.1789  141.2580  156.4002 C   0  0  2  0  0  0  0  0  0  0  0  0
  149.3895  142.3946  157.2149 O   0  0  0  0  0  0  0  0  0  0  0  0
  150.2384  138.6168  156.8482 C   0  0  0  0  0  0  0  0  0  0  0  0
  150.6710  137.3846  157.2039 C   0  0  0  0  0  0  0  0  0  0  0  0
  149.4578  136.3181  158.3509 Br  0  0  0  0  0  0  0  0  0  0  0  0
  153.5311  137.4366  155.5297 H   0  0  0  0  0  0  0  0  0  0  0  0
  151.3054  141.5232  155.7673 H   0  0  0  0  0  0  0  0  0  0  0  0
  148.4099  141.2210  153.1604 H   0  0  0  0  0  0  0  0  0  0  0  0
  148.0825  138.8855  155.1226 H   0  0  0  0  0  0  0  0  0  0  0  0
  147.1973  139.2220  153.6557 H   0  0  0  0  0  0  0  0  0  0  0  0
  149.0468  138.8131  152.4543 H   0  0  0  0  0  0  0  0  0  0  0  0
  148.3224  142.6644  155.0019 H   0  0  0  0  0  0  0  0  0  0  0  0
  146.4396  142.1986  155.7758 H   0  0  0  0  0  0  0  0  0  0  0  0
  148.7979  140.4182  156.9839 H   0  0  0  0  0  0  0  0  0  0  0  0
  149.1988  143.1665  156.7030 H   0  0  0  0  0  0  0  0  0  0  0  0
  149.2640  138.9115  157.2065 H   0  0  0  0  0  0  0  0  0  0  0  0
  1  2  2  0  0  0  0
  2 17  1  0  0  0  0
  2  3  1  0  0  0  0
  3 19  1  0  0  0  0
  3  4  1  0  0  0  0
  4  5  2  0  0  0  0
  4  6  1  0  0  0  0
  6  7  1  0  0  0  0
  6 16  1  0  0  0  0
  7 14  1  0  0  0  0
  7  8  1  0  0  0  0
  7 20  1  0  0  0  0
  8  9  1  0  0  0  0
  9 10  1  0  0  0  0
  9 12  1  0  0  0  0
  9 21  1  0  0  0  0
 10 11  1  0  0  0  0
 10 22  1  0  0  0  0
 10 23  1  0  0  0  0
 11 24  1  0  0  0  0
 12 13  1  0  0  0  0
 12 14  1  0  0  0  0
 12 25  1  0  0  0  0
 13 26  1  0  0  0  0
 14 15  1  0  0  0  0
 14 27  1  0  0  0  0
 15 28  1  0  0  0  0
 16 17  2  0  0  0  0
 16 29  1  0  0  0  0
 17 18  1  0  0  0  0
M  END
> <s_m_source_file>
AV-unprocessed.smi

> <i_m_source_file_index>
35

> <i_lp_mmshare_version>
43012

> <i_f3d_flags>
0

> <s_epik_input>
Tz1jMVtuSF1jKD1PKW4oW2NIXWMxQnIpW0NAQEhdMk9bQ0BASF0oW0NIMl1bT0hdKVtDQEBIXShbT0hdKVtDQEhdMltPSF0=

> <s_epik_cmdline>
J2VwaWtfcHl0aG9uJywgJy1waCcsICc3LjAnLCAnLXRuJywgJzgnLCAnLW1hJywgJzIwMCcsICctbWV0YWxfYmluZGluZycsICctaW1hZScsICc8aW5maWxlLm1hZT4nLCAnLW9tYWUnLCAnPG91dGZpbGUubWFlPic=

> <r_lp_tautomer_probability>
0.999537

> <r_epik_Ionization_Penalty>
0.10812

> <r_epik_Ionization_Penalty_Charging>
0.108119

> <r_epik_Ionization_Penalty_Neutral>
4.93006e-07

> <r_epik_State_Penalty>
0.0979238

> <r_epik_Charging_Adjusted_Penalty>
0.206043

> <i_epik_Tot_Q>
0

> <i_epik_Tot_abs_Q>
0

> <r_epik_Metal_State_Penalty>
3.07911

> <b_epik_Metal_Only>
0

> <s_epik_Chemistry_Notes>
This compound contains an acetal/aminal-like group ( X-CH(R)-Y where X, Y are N, S, or O) that may be acid/base labile, releasing an aldehyde.

> <s_lp_Force_Field>
OPLS_2005

> <r_lp_Energy>
30.5173

> <b_lp_Chiralities_Consistent>
1

> <s_lp_Variant>
AV-unprocessed.smi:35-10

> <Gold.Version>
5.8.1

> <Gold.Id.Protein>
6NUR|6NUR_protein|mol2

> <Gold.PLP.Fitness>
37.8573

> <Gold.PLP.PLP>
-24.5083

> <Gold.PLP.part.hbond>
-6.8564

> <Gold.PLP.part.metal>
0.0000

> <Gold.PLP.part.buried>
-2.0488

> <Gold.PLP.part.nonpolar>
-16.2740

> <Gold.PLP.part.repulsive>
0.3490

> <Gold.PLP.ligand.clash>
0.0000

> <Gold.PLP.ligand.torsion>
0.3662

> <Gold.PLP.Chemscore.Hbond>
4.6720

> <Gold.PLP.Chemscore.CHOScore>
0.0000

> <Gold.PLP.Chemscore.Metal>
0.0000

> <Gold.Chemscore.Hbonds>
donor molecule, donor type, donor heavy atom, donor atom, acceptor molecule, acceptor atom, score
      L1  H    11    24       P1  7957  1.00
      L1  H    15    28       P1  8028  1.00
      P1  H  7989  7998       L1     8  0.67
      P1  H  7997  8010       L1     5  1.00
      P1  H 10752 10763       L1     1  0.99

> <Gold.PLP.Chemscore.Internal.Correction>
0.0653

> <Gold.Rescore>
     Score         DG    S(hbond)    S(metal)    S(lipo)     H(rot)  DE(clash)    DE(int)     intcor
     10.81     -11.80       3.55        0.00      32.83       3.67       0.45       0.54       ----

> <Gold.Chemscore.Fitness>
10.8081

> <Gold.Chemscore.DG>
-11.7986

> <Gold.Chemscore.ZeroCoef>
-5.4800

> <Gold.Chemscore.Hbond>
3.5547

> <Gold.Chemscore.Metal>
0.0000

> <Gold.Chemscore.Lipo>
32.8324

> <Gold.Chemscore.Internal_Hbond>
0.0000

> <Gold.Chemscore.DEClash>
0.4542

> <Gold.Chemscore.DEInternal>
0.5363

> <Gold.Chemscore.Rot>
3.6701

> <Gold.Chemscore.Internal.Correction>
   9.000000E+99

> <Gold.Chemscore.Hbonds>
donor molecule, donor type, donor heavy atom, donor atom, acceptor molecule, acceptor atom, score
      L1  H    11    24       P1  7957  0.91
      L1  H    15    28       P1  8028  0.98
      P1  H  7989  7998       L1     5  0.30
      P1  H  7997  8010       L1     5  0.43
      P1  H 10752 10763       L1     1  0.24

> <Gold.Chemscore.Hbond.Weighted>
-11.8726

> <Gold.Chemscore.Metal.Weighted>
-0.0000

> <Gold.Chemscore.Lipo.Weighted>
-3.8414

> <Gold.Chemscore.Internal_Hbond.Weighted>
0.0000

> <Gold.Chemscore.DEClash.Weighted>
0.4542

> <Gold.Chemscore.DEInternal.Weighted>
0.5363

> <Gold.Chemscore.Rot.Weighted>
9.3955

> <Gold.Chemscore.Internal.Correction.Weighted>
   9.000000E+99

> <Gold.Protein.RotatedTorsions>
[ 6907 6896 6895 6894 ] final  -23.13 input  -60.11 | X-H torsion
[ 7974 7965 7964 7962 ] final  121.98 input  175.53 | X-H torsion
[ 8008 7997 7996 7995 ] final  109.67 input   59.86 | X-H torsion
[ 10167 10162 10161 10158 ] final -145.25 input  -65.29 | X-H torsion
[ 10718 10713 10712 10709 ] final   36.83 input   66.30 | X-H torsion
[ 10763 10752 10751 10750 ] final  111.44 input  -60.55 | X-H torsion
[ 11005 11000 10999 10996 ] final  119.90 input  -57.11 | X-H torsion

> <Gold.Protein.ActiveResidues>
 VAL166  LYS551  ARG553  GLY616  TRP617  ASP618  TYR619  PRO620  LYS621  CYS622 
 ASP623  PHE694  ASN695  SER759  ASP760  ASP761  ALA762  ILE779  LEU786  VAL792 
 PHE793  MET794  SER795  GLU796  ALA797  LYS798  CYS799  TRP800  GLU811  SER814 

> <Gold.Protein.RotatedAtoms>
  151.2084  135.0471  159.8900 H   0  0  0  0  0  0  0  0  0  0  0  0  # atno 6907 bound_to 6896
  152.5427  134.0772  159.8230 H   0  0  0  0  0  0  0  0  0  0  0  0  # atno 6908 bound_to 6896
  151.0922  133.5260  159.2646 H   0  0  0  0  0  0  0  0  0  0  0  0  # atno 6909 bound_to 6896
  145.1129  139.3441  143.4754 H   0  0  0  0  0  0  0  0  0  0  0  0  # atno 7974 bound_to 7965
  156.1996  140.3053  155.9499 H   0  0  0  0  0  0  0  0  0  0  0  0  # atno 8008 bound_to 7997
  155.2985  140.0445  157.3045 H   0  0  0  0  0  0  0  0  0  0  0  0  # atno 8009 bound_to 7997
  154.5554  140.2304  155.8428 H   0  0  0  0  0  0  0  0  0  0  0  0  # atno 8010 bound_to 7997
  139.7823  143.8083  152.2640 H   0  0  0  0  0  0  0  0  0  0  0  0  # atno 10167 bound_to 10162
  157.3396  130.7541  149.6902 H   0  0  0  0  0  0  0  0  0  0  0  0  # atno 10718 bound_to 10713
  153.4633  135.3717  155.2350 H   0  0  0  0  0  0  0  0  0  0  0  0  # atno 10763 bound_to 10752
  154.8757  135.3914  154.3898 H   0  0  0  0  0  0  0  0  0  0  0  0  # atno 10764 bound_to 10752
  153.4475  135.7085  153.6194 H   0  0  0  0  0  0  0  0  0  0  0  0  # atno 10765 bound_to 10752
  139.9164  134.9631  156.7725 H   0  0  0  0  0  0  0  0  0  0  0  0  # atno 11005 bound_to 11000
  146.3525  140.1055  142.8606 LP  0  0  0  0  0  0  0  0  0  0  0  0  # atno 17320 bound_to 7965
  145.0827  140.9232  143.4816 LP  0  0  0  0  0  0  0  0  0  0  0  0  # atno 17321 bound_to 7965
  139.8150  144.7320  150.9647 LP  0  0  0  0  0  0  0  0  0  0  0  0  # atno 17342 bound_to 10162
  140.7818  143.4214  151.0836 LP  0  0  0  0  0  0  0  0  0  0  0  0  # atno 17343 bound_to 10162
  155.9706  130.4171  150.4265 LP  0  0  0  0  0  0  0  0  0  0  0  0  # atno 17370 bound_to 10713
  157.2311  131.0504  151.2492 LP  0  0  0  0  0  0  0  0  0  0  0  0  # atno 17371 bound_to 10713
  140.6609  133.9646  155.7804 LP  0  0  0  0  0  0  0  0  0  0  0  0  # atno 17394 bound_to 11000
  141.0644  134.0299  157.3614 LP  0  0  0  0  0  0  0  0  0  0  0  0  # atno 17395 bound_to 11000

$$$$
