AV-unprocessed.smi:958|AV-procd|sdf|4267|dock7
  -GOLD-   22720 2173D 1   1.00000     0.00000
 Structure written by MMmdl.
 31 33  0  0  0  0  0  0  0  0  2 V2000
  153.5299  141.5597  160.3715 C   0  0  0  0  0  0  0  0  0  0  0  0
  154.1328  140.5112  159.8140 N   0  0  0  0  0  0  0  0  0  0  0  0
  153.3138  140.1605  158.7613 N   0  0  0  0  0  0  0  0  0  0  0  0
  152.2942  141.0290  158.7880 C   0  0  0  0  0  0  0  0  0  0  0  0
  151.1479  140.9837  157.8168 C   0  0  2  0  0  0  0  0  0  0  0  0
  151.4256  140.0282  156.6403 C   0  0  0  0  0  0  0  0  0  0  0  0
  150.2450  140.0249  155.6572 C   0  0  0  0  0  0  0  0  0  0  0  0
  149.9120  141.4528  155.1942 C   0  0  0  0  0  0  0  0  0  0  0  0
  149.6421  142.3278  156.3556 N   0  3  0  0  0  0  0  0  0  0  0  0
  150.7742  142.3907  157.3062 C   0  0  0  0  0  0  0  0  0  0  0  0
  152.3955  141.9513  159.7698 N   0  0  0  0  0  0  0  0  0  0  0  0
  151.4945  143.0263  160.1511 C   0  0  0  0  0  0  0  0  0  0  0  0
  152.0603  144.4148  159.9585 C   0  0  0  0  0  0  0  0  0  0  0  0
  151.9385  143.8346  161.3500 C   0  0  0  0  0  0  0  0  0  0  0  0
  153.9298  142.0574  161.2428 H   0  0  0  0  0  0  0  0  0  0  0  0
  150.2756  140.5907  158.3388 H   0  0  0  0  0  0  0  0  0  0  0  0
  152.3316  140.3341  156.1150 H   0  0  0  0  0  0  0  0  0  0  0  0
  151.6057  139.0178  157.0093 H   0  0  0  0  0  0  0  0  0  0  0  0
  150.4787  139.3984  154.7959 H   0  0  0  0  0  0  0  0  0  0  0  0
  149.3709  139.5806  156.1354 H   0  0  0  0  0  0  0  0  0  0  0  0
  150.7389  141.8678  154.6160 H   0  0  0  0  0  0  0  0  0  0  0  0
  149.0383  141.4462  154.5421 H   0  0  0  0  0  0  0  0  0  0  0  0
  149.4406  143.2603  156.0235 H   0  0  0  0  0  0  0  0  0  0  0  0
  150.4970  143.0360  158.1402 H   0  0  0  0  0  0  0  0  0  0  0  0
  151.6256  142.8592  156.8101 H   0  0  0  0  0  0  0  0  0  0  0  0
  150.4435  142.8120  159.9685 H   0  0  0  0  0  0  0  0  0  0  0  0
  153.0607  144.5100  159.5402 H   0  0  0  0  0  0  0  0  0  0  0  0
  151.3645  145.2052  159.6843 H   0  0  0  0  0  0  0  0  0  0  0  0
  151.1616  144.2403  161.9946 H   0  0  0  0  0  0  0  0  0  0  0  0
  152.8625  143.5598  161.8553 H   0  0  0  0  0  0  0  0  0  0  0  0
  148.8315  141.9737  156.8431 H   0  0  0  0  0  0  0  0  0  0  0  0
  1 11  1  0  0  0  0
  1  2  2  0  0  0  0
  1 15  1  0  0  0  0
  2  3  1  0  0  0  0
  3  4  2  0  0  0  0
  4  5  1  0  0  0  0
  4 11  1  0  0  0  0
  5 10  1  0  0  0  0
  5  6  1  0  0  0  0
  5 16  1  0  0  0  0
  6  7  1  0  0  0  0
  6 17  1  0  0  0  0
  6 18  1  0  0  0  0
  7  8  1  0  0  0  0
  7 19  1  0  0  0  0
  7 20  1  0  0  0  0
  8  9  1  0  0  0  0
  8 21  1  0  0  0  0
  8 22  1  0  0  0  0
  9 10  1  0  0  0  0
  9 23  1  0  0  0  0
  9 31  1  0  0  0  0
 10 24  1  0  0  0  0
 10 25  1  0  0  0  0
 11 12  1  0  0  0  0
 12 14  1  0  0  0  0
 12 13  1  0  0  0  0
 12 26  1  0  0  0  0
 13 14  1  0  0  0  0
 13 27  1  0  0  0  0
 13 28  1  0  0  0  0
 14 29  1  0  0  0  0
 14 30  1  0  0  0  0
M  CHG  1   9   1
M  END
> <s_m_source_file>
AV-unprocessed.smi

> <i_m_source_file_index>
958

> <i_lp_mmshare_version>
43012

> <i_f3d_flags>
0

> <s_epik_input>
W0NIMl0xW0NIMl1bQ0hdMW4yW2NIXW5uYzJbQ0BASF0zW0NIMl1bQ0gyXVtDSDJdW05IXVtDSDJdMw==

> <s_epik_cmdline>
J2VwaWtfcHl0aG9uJywgJy1waCcsICc3LjAnLCAnLXRuJywgJzgnLCAnLW1hJywgJzIwMCcsICctbWV0YWxfYmluZGluZycsICctaW1hZScsICc8aW5maWxlLm1hZT4nLCAnLW9tYWUnLCAnPG91dGZpbGUubWFlPic=

> <r_lp_tautomer_probability>
1

> <r_epik_Ionization_Penalty>
0.000442722

> <r_epik_Ionization_Penalty_Charging>
0.000426856

> <r_epik_Ionization_Penalty_Neutral>
1.58656e-05

> <r_epik_State_Penalty>
-0

> <r_epik_Charging_Adjusted_Penalty>
0.000426856

> <i_epik_Tot_Q>
1

> <i_epik_Tot_abs_Q>
1

> <r_epik_Metal_State_Penalty>
-0

> <b_epik_Metal_Only>
0

> <s_lp_Force_Field>
OPLS_2005

> <r_lp_Energy>
27.25

> <b_lp_Chiralities_Consistent>
1

> <s_lp_Variant>
AV-unprocessed.smi:958-1

> <Gold.Version>
5.8.1

> <Gold.Id.Protein>
6NUR|6NUR_protein|mol2

> <Gold.PLP.Fitness>
40.5550

> <Gold.PLP.PLP>
-32.8678

> <Gold.PLP.part.hbond>
-2.0000

> <Gold.PLP.part.metal>
0.0000

> <Gold.PLP.part.buried>
-2.4497

> <Gold.PLP.part.nonpolar>
-27.8700

> <Gold.PLP.part.repulsive>
0.0640

> <Gold.PLP.ligand.clash>
0.0000

> <Gold.PLP.ligand.torsion>
0.4040

> <Gold.PLP.Chemscore.Hbond>
2.8000

> <Gold.PLP.Chemscore.CHOScore>
0.0000

> <Gold.PLP.Chemscore.Metal>
0.0000

> <Gold.Chemscore.Hbonds>
donor molecule, donor type, donor heavy atom, donor atom, acceptor molecule, acceptor atom, score
      L1  H     9    23       P1  8028  2.00
      P1  H  7997  8010       L1     3  0.34

> <Gold.PLP.Chemscore.Internal.Correction>
0.0951

> <Gold.Rescore>
     Score         DG    S(hbond)    S(metal)    S(lipo)     H(rot)  DE(clash)    DE(int)     intcor
     13.12     -14.59       1.28        0.00      68.65       1.25       0.14       1.33       ----

> <Gold.Chemscore.Fitness>
13.1207

> <Gold.Chemscore.DG>
-14.5898

> <Gold.Chemscore.ZeroCoef>
-5.4800

> <Gold.Chemscore.Hbond>
1.2802

> <Gold.Chemscore.Metal>
0.0000

> <Gold.Chemscore.Lipo>
68.6455

> <Gold.Chemscore.Internal_Hbond>
0.0000

> <Gold.Chemscore.DEClash>
0.1401

> <Gold.Chemscore.DEInternal>
1.3290

> <Gold.Chemscore.Rot>
1.2491

> <Gold.Chemscore.Internal.Correction>
   9.000000E+99

> <Gold.Chemscore.Hbonds>
donor molecule, donor type, donor heavy atom, donor atom, acceptor molecule, acceptor atom, score
      L1  H     9    23       P1  8028  0.99
      P1  H  7997  8010       L1     3  0.04

> <Gold.Chemscore.Hbond.Weighted>
-4.2760

> <Gold.Chemscore.Metal.Weighted>
-0.0000

> <Gold.Chemscore.Lipo.Weighted>
-8.0315

> <Gold.Chemscore.Internal_Hbond.Weighted>
0.0000

> <Gold.Chemscore.DEClash.Weighted>
0.1401

> <Gold.Chemscore.DEInternal.Weighted>
1.3290

> <Gold.Chemscore.Rot.Weighted>
3.1977

> <Gold.Chemscore.Internal.Correction.Weighted>
   9.000000E+99

> <Gold.Protein.RotatedTorsions>
[ 6907 6896 6895 6894 ] final   51.67 input  -60.11 | X-H torsion
[ 7974 7965 7964 7962 ] final   69.35 input  175.53 | X-H torsion
[ 8008 7997 7996 7995 ] final    9.09 input   59.86 | X-H torsion
[ 10167 10162 10161 10158 ] final  -52.01 input  -65.29 | X-H torsion
[ 10718 10713 10712 10709 ] final -139.97 input   66.30 | X-H torsion
[ 10763 10752 10751 10750 ] final  169.59 input  -60.55 | X-H torsion
[ 11005 11000 10999 10996 ] final  -38.83 input  -57.11 | X-H torsion

> <Gold.Protein.ActiveResidues>
 VAL166  LYS551  ARG553  GLY616  TRP617  ASP618  TYR619  PRO620  LYS621  CYS622 
 ASP623  PHE694  ASN695  SER759  ASP760  ASP761  ALA762  ILE779  LEU786  VAL792 
 PHE793  MET794  SER795  GLU796  ALA797  LYS798  CYS799  TRP800  GLU811  SER814 

> <Gold.Protein.RotatedAtoms>
  152.3151  134.7450  160.0327 H   0  0  0  0  0  0  0  0  0  0  0  0  # atno 6907 bound_to 6896
  151.7917  133.3355  159.3509 H   0  0  0  0  0  0  0  0  0  0  0  0  # atno 6908 bound_to 6896
  150.7340  134.5767  159.5962 H   0  0  0  0  0  0  0  0  0  0  0  0  # atno 6909 bound_to 6896
  145.7914  139.2936  143.1208 H   0  0  0  0  0  0  0  0  0  0  0  0  # atno 7974 bound_to 7965
  154.7755  140.2809  155.6104 H   0  0  0  0  0  0  0  0  0  0  0  0  # atno 8008 bound_to 7997
  156.2941  140.2633  156.2495 H   0  0  0  0  0  0  0  0  0  0  0  0  # atno 8009 bound_to 7997
  154.9848  140.0374  157.2283 H   0  0  0  0  0  0  0  0  0  0  0  0  # atno 8010 bound_to 7997
  140.6559  143.2599  151.4586 H   0  0  0  0  0  0  0  0  0  0  0  0  # atno 10167 bound_to 10162
  156.3169  130.7513  151.1601 H   0  0  0  0  0  0  0  0  0  0  0  0  # atno 10718 bound_to 10713
  154.3854  135.2753  155.2187 H   0  0  0  0  0  0  0  0  0  0  0  0  # atno 10763 bound_to 10752
  154.4276  135.5985  153.6052 H   0  0  0  0  0  0  0  0  0  0  0  0  # atno 10764 bound_to 10752
  152.9833  135.5987  154.4101 H   0  0  0  0  0  0  0  0  0  0  0  0  # atno 10765 bound_to 10752
  141.0057  133.6933  156.2106 H   0  0  0  0  0  0  0  0  0  0  0  0  # atno 11005 bound_to 11000
  145.9972  140.8551  143.0036 LP  0  0  0  0  0  0  0  0  0  0  0  0  # atno 17320 bound_to 7965
  144.6781  140.2301  143.7356 LP  0  0  0  0  0  0  0  0  0  0  0  0  # atno 17321 bound_to 7965
  139.5782  144.1770  152.1932 LP  0  0  0  0  0  0  0  0  0  0  0  0  # atno 17342 bound_to 10162
  140.1087  144.5476  150.6939 LP  0  0  0  0  0  0  0  0  0  0  0  0  # atno 17343 bound_to 10162
  157.7403  131.0518  150.5172 LP  0  0  0  0  0  0  0  0  0  0  0  0  # atno 17370 bound_to 10713
  156.5319  130.4187  149.6197 LP  0  0  0  0  0  0  0  0  0  0  0  0  # atno 17371 bound_to 10713
  140.6816  134.4761  157.5589 LP  0  0  0  0  0  0  0  0  0  0  0  0  # atno 17394 bound_to 11000
  139.9062  134.8444  156.1697 LP  0  0  0  0  0  0  0  0  0  0  0  0  # atno 17395 bound_to 11000

$$$$
