AV-unprocessed.smi:2567|AV-procd|sdf|10079|dock1
  -GOLD-   2272014103D 1   1.00000     0.00000
 Structure written by MMmdl.
 34 35  0  0  0  0  0  0  0  0  2 V2000
  152.4398  142.4311  159.8225 C   0  0  0  0  0  0  0  0  0  0  0  0
  151.6646  143.0502  158.6456 C   0  0  0  0  0  0  0  0  0  0  0  0
  150.3292  143.6351  159.1557 C   0  0  0  0  0  0  0  0  0  0  0  0
  152.4671  144.2286  158.0504 C   0  0  0  0  0  0  0  0  0  0  0  0
  151.4089  141.9928  157.5968 C   0  0  0  0  0  0  0  0  0  0  0  0
  151.8007  140.7285  157.7739 N   0  0  0  0  0  0  0  0  0  0  0  0
  151.2644  140.1038  156.7057 N   0  0  0  0  0  0  0  0  0  0  0  0
  150.5552  140.9801  155.9940 C   0  0  0  0  0  0  0  0  0  0  0  0
  149.8054  140.5889  154.7601 C   0  0  1  0  0  0  0  0  0  0  0  0
  149.8614  139.0720  154.4945 C   0  0  0  0  0  0  0  0  0  0  0  0
  149.0206  138.7327  153.3298 N   0  3  0  0  0  0  0  0  0  0  0  0
  147.6382  139.2225  153.5001 C   0  0  0  0  0  0  0  0  0  0  0  0
  147.6442  140.7310  153.8028 C   0  0  0  0  0  0  0  0  0  0  0  0
  148.4496  140.9879  154.9484 O   0  0  0  0  0  0  0  0  0  0  0  0
  150.5758  142.1964  156.5278 N   0  0  0  0  0  0  0  0  0  0  0  0
  151.3866  139.1173  156.5261 H   0  0  0  0  0  0  0  0  0  0  0  0
  152.6403  143.1697  160.5991 H   0  0  0  0  0  0  0  0  0  0  0  0
  153.3992  142.0280  159.4964 H   0  0  0  0  0  0  0  0  0  0  0  0
  151.8792  141.6151  160.2803 H   0  0  0  0  0  0  0  0  0  0  0  0
  149.7132  142.8760  159.6393 H   0  0  0  0  0  0  0  0  0  0  0  0
  149.7449  144.0645  158.3408 H   0  0  0  0  0  0  0  0  0  0  0  0
  150.4961  144.4234  159.8903 H   0  0  0  0  0  0  0  0  0  0  0  0
  152.6188  145.0175  158.7880 H   0  0  0  0  0  0  0  0  0  0  0  0
  151.9509  144.6720  157.1977 H   0  0  0  0  0  0  0  0  0  0  0  0
  153.4558  143.9167  157.7116 H   0  0  0  0  0  0  0  0  0  0  0  0
  150.2251  141.1341  153.9123 H   0  0  0  0  0  0  0  0  0  0  0  0
  150.8860  138.7500  154.3070 H   0  0  0  0  0  0  0  0  0  0  0  0
  149.5036  138.5176  155.3634 H   0  0  0  0  0  0  0  0  0  0  0  0
  149.4174  139.1635  152.5069 H   0  0  0  0  0  0  0  0  0  0  0  0
  147.0657  139.0135  152.5962 H   0  0  0  0  0  0  0  0  0  0  0  0
  147.1621  138.6774  154.3164 H   0  0  0  0  0  0  0  0  0  0  0  0
  148.0168  141.2985  152.9488 H   0  0  0  0  0  0  0  0  0  0  0  0
  146.6299  141.0790  153.9983 H   0  0  0  0  0  0  0  0  0  0  0  0
  149.0084  137.7304  153.2037 H   0  0  0  0  0  0  0  0  0  0  0  0
  1  2  1  0  0  0  0
  1 17  1  0  0  0  0
  1 18  1  0  0  0  0
  1 19  1  0  0  0  0
  2  3  1  0  0  0  0
  2  4  1  0  0  0  0
  2  5  1  0  0  0  0
  3 20  1  0  0  0  0
  3 21  1  0  0  0  0
  3 22  1  0  0  0  0
  4 23  1  0  0  0  0
  4 24  1  0  0  0  0
  4 25  1  0  0  0  0
  5 15  1  0  0  0  0
  5  6  2  0  0  0  0
  6  7  1  0  0  0  0
  7 16  1  0  0  0  0
  7  8  1  0  0  0  0
  8  9  1  0  0  0  0
  8 15  2  0  0  0  0
  9 14  1  0  0  0  0
  9 10  1  0  0  0  0
  9 26  1  0  0  0  0
 10 11  1  0  0  0  0
 10 27  1  0  0  0  0
 10 28  1  0  0  0  0
 11 12  1  0  0  0  0
 11 29  1  0  0  0  0
 11 34  1  0  0  0  0
 12 13  1  0  0  0  0
 12 30  1  0  0  0  0
 12 31  1  0  0  0  0
 13 14  1  0  0  0  0
 13 32  1  0  0  0  0
 13 33  1  0  0  0  0
M  CHG  1  11   1
M  END
> <s_m_source_file>
AV-unprocessed.smi

> <i_m_source_file_index>
2567

> <i_lp_mmshare_version>
43012

> <i_f3d_flags>
0

> <s_epik_input>
W0NIM11DKFtDSDNdKShbQ0gzXSljMW5bbkhdYyhuMSlbQ0BASF0yW0NIMl1bTkhdW0NIMl1bQ0gyXU8y

> <s_epik_cmdline>
J2VwaWtfcHl0aG9uJywgJy1waCcsICc3LjAnLCAnLXRuJywgJzgnLCAnLW1hJywgJzIwMCcsICctbWV0YWxfYmluZGluZycsICctaW1hZScsICc8aW5maWxlLm1hZT4nLCAnLW9tYWUnLCAnPG91dGZpbGUubWFlPic=

> <r_epik_Ionization_Penalty>
0.162344

> <r_epik_Ionization_Penalty_Charging>
0.125708

> <r_epik_Ionization_Penalty_Neutral>
0.0366363

> <r_epik_State_Penalty>
1.18286

> <r_epik_Charging_Adjusted_Penalty>
1.30856

> <i_epik_Tot_Q>
1

> <i_epik_Tot_abs_Q>
1

> <r_epik_Metal_State_Penalty>
1.49333

> <b_epik_Metal_Only>
0

> <s_lp_Force_Field>
OPLS_2005

> <r_lp_Energy>
12.4711

> <b_lp_Chiralities_Consistent>
1

> <s_lp_Variant>
AV-unprocessed.smi:2567-4

> <Gold.Version>
5.8.1

> <Gold.Id.Protein>
6NUR|6NUR_protein|mol2

> <Gold.PLP.Fitness>
38.5361

> <Gold.PLP.PLP>
-30.1614

> <Gold.PLP.part.hbond>
-1.9721

> <Gold.PLP.part.metal>
0.0000

> <Gold.PLP.part.buried>
-3.4836

> <Gold.PLP.part.nonpolar>
-25.6694

> <Gold.PLP.part.repulsive>
0.9291

> <Gold.PLP.ligand.clash>
0.0000

> <Gold.PLP.ligand.torsion>
0.2001

> <Gold.PLP.Chemscore.Hbond>
2.8560

> <Gold.PLP.Chemscore.CHOScore>
0.0000

> <Gold.PLP.Chemscore.Metal>
0.0000

> <Gold.Chemscore.Hbonds>
donor molecule, donor type, donor heavy atom, donor atom, acceptor molecule, acceptor atom, score
      L1  H    11    29       P1  7957  1.00
      L1  H    11    34       P1  7948  1.79

> <Gold.PLP.Chemscore.Internal.Correction>
0.2070

> <Gold.Rescore>
     Score         DG    S(hbond)    S(metal)    S(lipo)     H(rot)  DE(clash)    DE(int)     intcor
     16.50     -16.72       1.90        0.00      69.39       1.26       0.06       0.16       ----

> <Gold.Chemscore.Fitness>
16.4970

> <Gold.Chemscore.DG>
-16.7233

> <Gold.Chemscore.ZeroCoef>
-5.4800

> <Gold.Chemscore.Hbond>
1.9048

> <Gold.Chemscore.Metal>
0.0000

> <Gold.Chemscore.Lipo>
69.3917

> <Gold.Chemscore.Internal_Hbond>
0.0000

> <Gold.Chemscore.DEClash>
0.0640

> <Gold.Chemscore.DEInternal>
0.1622

> <Gold.Chemscore.Rot>
1.2647

> <Gold.Chemscore.Internal.Correction>
   9.000000E+99

> <Gold.Chemscore.Hbonds>
donor molecule, donor type, donor heavy atom, donor atom, acceptor molecule, acceptor atom, score
      L1  H    11    29       P1  7957  0.97
      L1  H    11    34       P1  7948  0.85

> <Gold.Chemscore.Hbond.Weighted>
-6.3620

> <Gold.Chemscore.Metal.Weighted>
-0.0000

> <Gold.Chemscore.Lipo.Weighted>
-8.1188

> <Gold.Chemscore.Internal_Hbond.Weighted>
0.0000

> <Gold.Chemscore.DEClash.Weighted>
0.0640

> <Gold.Chemscore.DEInternal.Weighted>
0.1622

> <Gold.Chemscore.Rot.Weighted>
3.2375

> <Gold.Chemscore.Internal.Correction.Weighted>
   9.000000E+99

> <Gold.Protein.RotatedTorsions>
[ 6907 6896 6895 6894 ] final   63.45 input  -60.11 | X-H torsion
[ 7974 7965 7964 7962 ] final -152.43 input  175.53 | X-H torsion
[ 8008 7997 7996 7995 ] final  162.21 input   59.86 | X-H torsion
[ 10167 10162 10161 10158 ] final   10.48 input  -65.29 | X-H torsion
[ 10718 10713 10712 10709 ] final -166.13 input   66.30 | X-H torsion
[ 10763 10752 10751 10750 ] final -174.46 input  -60.55 | X-H torsion
[ 11005 11000 10999 10996 ] final   27.68 input  -57.11 | X-H torsion

> <Gold.Protein.ActiveResidues>
 VAL166  LYS551  ARG553  GLY616  TRP617  ASP618  TYR619  PRO620  LYS621  CYS622 
 ASP623  PHE694  ASN695  SER759  ASP760  ASP761  ALA762  ILE779  LEU786  VAL792 
 PHE793  MET794  SER795  GLU796  ALA797  LYS798  CYS799  TRP800  GLU811  SER814 

> <Gold.Protein.RotatedAtoms>
  152.4254  134.5879  159.9965 H   0  0  0  0  0  0  0  0  0  0  0  0  # atno 6907 bound_to 6896
  151.6017  133.3350  159.3056 H   0  0  0  0  0  0  0  0  0  0  0  0  # atno 6908 bound_to 6896
  150.8143  134.7353  159.6781 H   0  0  0  0  0  0  0  0  0  0  0  0  # atno 6909 bound_to 6896
  144.7794  140.4663  143.5850 H   0  0  0  0  0  0  0  0  0  0  0  0  # atno 7974 bound_to 7965
  156.2048  140.1756  156.7823 H   0  0  0  0  0  0  0  0  0  0  0  0  # atno 8008 bound_to 7997
  154.5640  140.0694  156.8893 H   0  0  0  0  0  0  0  0  0  0  0  0  # atno 8009 bound_to 7997
  155.2795  140.3348  155.4262 H   0  0  0  0  0  0  0  0  0  0  0  0  # atno 8010 bound_to 7997
  140.6191  143.8243  150.7154 H   0  0  0  0  0  0  0  0  0  0  0  0  # atno 10167 bound_to 10162
  156.6635  130.9055  151.3033 H   0  0  0  0  0  0  0  0  0  0  0  0  # atno 10718 bound_to 10713
  154.5960  135.2849  155.0586 H   0  0  0  0  0  0  0  0  0  0  0  0  # atno 10763 bound_to 10752
  154.1869  135.6447  153.5053 H   0  0  0  0  0  0  0  0  0  0  0  0  # atno 10764 bound_to 10752
  153.0138  135.5437  154.6662 H   0  0  0  0  0  0  0  0  0  0  0  0  # atno 10765 bound_to 10752
  140.3237  134.2515  155.7713 H   0  0  0  0  0  0  0  0  0  0  0  0  # atno 11005 bound_to 11000
  145.6092  139.1511  143.3085 LP  0  0  0  0  0  0  0  0  0  0  0  0  # atno 17320 bound_to 7965
  146.1994  140.6209  142.9109 LP  0  0  0  0  0  0  0  0  0  0  0  0  # atno 17321 bound_to 7965
  140.1829  143.4100  152.1920 LP  0  0  0  0  0  0  0  0  0  0  0  0  # atno 17342 bound_to 10162
  139.5424  144.7268  151.4692 LP  0  0  0  0  0  0  0  0  0  0  0  0  # atno 17343 bound_to 10162
  157.7101  130.9431  150.1062 LP  0  0  0  0  0  0  0  0  0  0  0  0  # atno 17370 bound_to 10713
  156.1993  130.3659  149.8809 LP  0  0  0  0  0  0  0  0  0  0  0  0  # atno 17371 bound_to 10713
  141.2080  133.7789  157.0083 LP  0  0  0  0  0  0  0  0  0  0  0  0  # atno 17394 bound_to 11000
  140.0920  134.9587  157.1791 LP  0  0  0  0  0  0  0  0  0  0  0  0  # atno 17395 bound_to 11000

$$$$
