AV-unprocessed.smi:3241|AV-procd|sdf|12391|dock8
  -GOLD-   2272018263D 1   1.00000     0.00000
 Structure written by MMmdl.
 43 44  0  0  0  0  0  0  0  0  1 V2000
  153.3237  142.1140  161.2631 C   0  0  0  0  0  0  0  0  0  0  0  0
  152.9836  143.3171  160.3700 C   0  0  2  0  0  0  0  0  0  0  0  0
  152.0253  144.3010  161.0717 C   0  0  0  0  0  0  0  0  0  0  0  0
  151.7164  145.5190  160.1861 C   0  0  0  0  0  0  0  0  0  0  0  0
  151.1643  145.0903  158.8184 C   0  0  0  0  0  0  0  0  0  0  0  0
  152.1173  144.1104  158.1153 C   0  0  0  0  0  0  0  0  0  0  0  0
  152.4291  142.8816  158.9952 C   0  0  2  0  0  0  0  0  0  0  0  0
  151.2308  142.1351  159.1946 O   0  0  0  0  0  0  0  0  0  0  0  0
  150.5850  141.6590  158.0184 C   0  0  0  0  0  0  0  0  0  0  0  0
  151.0140  140.2298  157.6509 C   0  0  0  0  0  0  0  0  0  0  0  0
  149.9556  139.5452  156.9190 N   0  0  0  0  0  0  0  0  0  0  0  0
  150.4331  138.7511  155.7919 C   0  0  0  0  0  0  0  0  0  0  0  0
  150.3912  139.5546  154.4828 C   0  0  0  0  0  0  0  0  0  0  0  0
  149.0810  140.1357  154.2431 N   0  0  0  0  0  0  0  0  0  0  0  0
  148.6998  141.4573  154.3425 C   0  0  0  0  0  0  0  0  0  0  0  0
  147.3711  141.5216  154.0345 C   0  0  0  0  0  0  0  0  0  0  0  0
  147.0234  140.1703  153.7554 C   0  0  0  0  0  0  0  0  0  0  0  0
  148.0488  139.3434  153.8795 N   0  0  0  0  0  0  0  0  0  0  0  0
  152.4309  141.5435  161.5209 H   0  0  0  0  0  0  0  0  0  0  0  0
  153.7904  142.4369  162.1940 H   0  0  0  0  0  0  0  0  0  0  0  0
  154.0179  141.4382  160.7630 H   0  0  0  0  0  0  0  0  0  0  0  0
  153.9190  143.8485  160.1879 H   0  0  0  0  0  0  0  0  0  0  0  0
  151.0946  143.7931  161.3283 H   0  0  0  0  0  0  0  0  0  0  0  0
  152.4602  144.6375  162.0133 H   0  0  0  0  0  0  0  0  0  0  0  0
  151.0007  146.1709  160.6877 H   0  0  0  0  0  0  0  0  0  0  0  0
  152.6237  146.1073  160.0447 H   0  0  0  0  0  0  0  0  0  0  0  0
  150.1870  144.6227  158.9464 H   0  0  0  0  0  0  0  0  0  0  0  0
  151.0051  145.9672  158.1908 H   0  0  0  0  0  0  0  0  0  0  0  0
  151.6895  143.8042  157.1614 H   0  0  0  0  0  0  0  0  0  0  0  0
  153.0481  144.6259  157.8761 H   0  0  0  0  0  0  0  0  0  0  0  0
  153.1868  142.2734  158.4978 H   0  0  0  0  0  0  0  0  0  0  0  0
  149.5031  141.7117  158.1478 H   0  0  0  0  0  0  0  0  0  0  0  0
  150.8282  142.3372  157.2000 H   0  0  0  0  0  0  0  0  0  0  0  0
  151.9346  140.2441  157.0676 H   0  0  0  0  0  0  0  0  0  0  0  0
  151.2400  139.6803  158.5653 H   0  0  0  0  0  0  0  0  0  0  0  0
  149.4088  138.9675  157.5496 H   0  0  0  0  0  0  0  0  0  0  0  0
  151.4524  138.4104  155.9773 H   0  0  0  0  0  0  0  0  0  0  0  0
  149.8200  137.8556  155.6870 H   0  0  0  0  0  0  0  0  0  0  0  0
  151.1177  140.3669  154.5247 H   0  0  0  0  0  0  0  0  0  0  0  0
  150.6730  138.9269  153.6355 H   0  0  0  0  0  0  0  0  0  0  0  0
  149.3973  142.2320  154.6250 H   0  0  0  0  0  0  0  0  0  0  0  0
  146.7423  142.3992  154.0140 H   0  0  0  0  0  0  0  0  0  0  0  0
  146.0625  139.7681  153.4697 H   0  0  0  0  0  0  0  0  0  0  0  0
  1  2  1  0  0  0  0
  1 19  1  0  0  0  0
  1 20  1  0  0  0  0
  1 21  1  0  0  0  0
  2  7  1  0  0  0  0
  2  3  1  0  0  0  0
  2 22  1  0  0  0  0
  3  4  1  0  0  0  0
  3 23  1  0  0  0  0
  3 24  1  0  0  0  0
  4  5  1  0  0  0  0
  4 25  1  0  0  0  0
  4 26  1  0  0  0  0
  5  6  1  0  0  0  0
  5 27  1  0  0  0  0
  5 28  1  0  0  0  0
  6  7  1  0  0  0  0
  6 29  1  0  0  0  0
  6 30  1  0  0  0  0
  7  8  1  0  0  0  0
  7 31  1  0  0  0  0
  8  9  1  0  0  0  0
  9 10  1  0  0  0  0
  9 32  1  0  0  0  0
  9 33  1  0  0  0  0
 10 11  1  0  0  0  0
 10 34  1  0  0  0  0
 10 35  1  0  0  0  0
 11 12  1  0  0  0  0
 11 36  1  0  0  0  0
 12 13  1  0  0  0  0
 12 37  1  0  0  0  0
 12 38  1  0  0  0  0
 13 14  1  0  0  0  0
 13 39  1  0  0  0  0
 13 40  1  0  0  0  0
 14 18  1  0  0  0  0
 14 15  1  0  0  0  0
 15 16  2  0  0  0  0
 15 41  1  0  0  0  0
 16 17  1  0  0  0  0
 16 42  1  0  0  0  0
 17 18  2  0  0  0  0
 17 43  1  0  0  0  0
M  END
> <s_m_source_file>
AV-unprocessed.smi

> <i_m_source_file_index>
3241

> <i_lp_mmshare_version>
43012

> <i_f3d_flags>
0

> <s_epik_input>
W0NIM11bQ0BASF0xW0NIMl1bQ0gyXVtDSDJdW0NIMl1bQ0BIXTFPW0NIMl1bQ0gyXVtOSF1bQ0gyXVtDSDJdbjJbY0hdW2NIXVtjSF1uMg==

> <s_epik_cmdline>
J2VwaWtfcHl0aG9uJywgJy1waCcsICc3LjAnLCAnLXRuJywgJzgnLCAnLW1hJywgJzIwMCcsICctbWV0YWxfYmluZGluZycsICctaW1hZScsICc8aW5maWxlLm1hZT4nLCAnLW9tYWUnLCAnPG91dGZpbGUubWFlPic=

> <r_lp_tautomer_probability>
1

> <r_epik_Ionization_Penalty>
2.47055

> <r_epik_Ionization_Penalty_Charging>
0

> <r_epik_Ionization_Penalty_Neutral>
2.47055

> <r_epik_State_Penalty>
2.6322

> <r_epik_Charging_Adjusted_Penalty>
2.6322

> <i_epik_Tot_Q>
0

> <i_epik_Tot_abs_Q>
0

> <r_epik_Metal_State_Penalty>
2.63108

> <b_epik_Metal_Only>
0

> <s_lp_Force_Field>
OPLS_2005

> <r_lp_Energy>
17.4206

> <b_lp_Chiralities_Consistent>
1

> <s_lp_Variant>
AV-unprocessed.smi:3241-7

> <Gold.Version>
5.8.1

> <Gold.Id.Protein>
6NUR|6NUR_protein|mol2

> <Gold.PLP.Fitness>
50.0358

> <Gold.PLP.PLP>
-46.2419

> <Gold.PLP.part.hbond>
0.0000

> <Gold.PLP.part.metal>
0.0000

> <Gold.PLP.part.buried>
-2.7176

> <Gold.PLP.part.nonpolar>
-42.5075

> <Gold.PLP.part.repulsive>
0.1659

> <Gold.PLP.ligand.clash>
0.0000

> <Gold.PLP.ligand.torsion>
1.0608

> <Gold.PLP.Chemscore.Hbond>
0.0000

> <Gold.PLP.Chemscore.CHOScore>
1.9356

> <Gold.PLP.Chemscore.Metal>
0.0000

> <Gold.Chemscore.Hbonds>
donor molecule, donor type, donor heavy atom, donor atom, acceptor molecule, acceptor atom, score
      L1  C    15    41       P1  8028  0.49
      L1  C    17    43       P1 10175  0.64

> <Gold.PLP.Chemscore.Internal.Correction>
0.1088

> <Gold.Rescore>
     Score         DG    S(hbond)    S(metal)    S(lipo)     H(rot)  DE(clash)    DE(int)     intcor
     14.76     -15.80       0.00        0.00     127.33       1.79       0.02       1.01       ----

> <Gold.Chemscore.Fitness>
14.7633

> <Gold.Chemscore.DG>
-15.7951

> <Gold.Chemscore.ZeroCoef>
-5.4800

> <Gold.Chemscore.Hbond>
0.0000

> <Gold.Chemscore.Metal>
0.0000

> <Gold.Chemscore.Lipo>
127.3323

> <Gold.Chemscore.Internal_Hbond>
0.0000

> <Gold.Chemscore.DEClash>
0.0212

> <Gold.Chemscore.DEInternal>
1.0106

> <Gold.Chemscore.Rot>
1.7901

> <Gold.Chemscore.Internal.Correction>
   9.000000E+99

> <Gold.Chemscore.Hbond.Weighted>
-0.0000

> <Gold.Chemscore.Metal.Weighted>
-0.0000

> <Gold.Chemscore.Lipo.Weighted>
-14.8979

> <Gold.Chemscore.Internal_Hbond.Weighted>
0.0000

> <Gold.Chemscore.DEClash.Weighted>
0.0212

> <Gold.Chemscore.DEInternal.Weighted>
1.0106

> <Gold.Chemscore.Rot.Weighted>
4.5827

> <Gold.Chemscore.Internal.Correction.Weighted>
   9.000000E+99

> <Gold.Protein.RotatedTorsions>
[ 6907 6896 6895 6894 ] final -172.34 input  -60.11 | X-H torsion
[ 7974 7965 7964 7962 ] final  -60.18 input  175.53 | X-H torsion
[ 8008 7997 7996 7995 ] final   17.14 input   59.86 | X-H torsion
[ 10167 10162 10161 10158 ] final  -24.33 input  -65.29 | X-H torsion
[ 10718 10713 10712 10709 ] final  121.41 input   66.30 | X-H torsion
[ 10763 10752 10751 10750 ] final   34.22 input  -60.55 | X-H torsion
[ 11005 11000 10999 10996 ] final   19.36 input  -57.11 | X-H torsion

> <Gold.Protein.ActiveResidues>
 VAL166  LYS551  ARG553  GLY616  TRP617  ASP618  TYR619  PRO620  LYS621  CYS622 
 ASP623  PHE694  ASN695  SER759  ASP760  ASP761  ALA762  ILE779  LEU786  VAL792 
 PHE793  MET794  SER795  GLU796  ALA797  LYS798  CYS799  TRP800  GLU811  SER814 

> <Gold.Protein.RotatedAtoms>
  151.5384  133.3437  159.2930 H   0  0  0  0  0  0  0  0  0  0  0  0  # atno 6907 bound_to 6896
  150.8550  134.7889  159.7050 H   0  0  0  0  0  0  0  0  0  0  0  0  # atno 6908 bound_to 6896
  152.4586  134.5243  159.9844 H   0  0  0  0  0  0  0  0  0  0  0  0  # atno 6909 bound_to 6896
  145.8186  140.8554  143.0144 H   0  0  0  0  0  0  0  0  0  0  0  0  # atno 7974 bound_to 7965
  154.8871  140.2981  155.5392 H   0  0  0  0  0  0  0  0  0  0  0  0  # atno 8008 bound_to 7997
  156.3021  140.2431  156.3815 H   0  0  0  0  0  0  0  0  0  0  0  0  # atno 8009 bound_to 7997
  154.8657  140.0403  157.1682 H   0  0  0  0  0  0  0  0  0  0  0  0  # atno 8010 bound_to 7997
  140.7288  143.4363  151.0725 H   0  0  0  0  0  0  0  0  0  0  0  0  # atno 10167 bound_to 10162
  157.5820  131.1074  150.8169 H   0  0  0  0  0  0  0  0  0  0  0  0  # atno 10718 bound_to 10713
  153.0174  135.6366  154.1634 H   0  0  0  0  0  0  0  0  0  0  0  0  # atno 10763 bound_to 10752
  154.1372  135.2837  155.3172 H   0  0  0  0  0  0  0  0  0  0  0  0  # atno 10764 bound_to 10752
  154.6151  135.5543  153.7576 H   0  0  0  0  0  0  0  0  0  0  0  0  # atno 10765 bound_to 10752
  140.4145  134.1583  155.7669 H   0  0  0  0  0  0  0  0  0  0  0  0  # atno 11005 bound_to 11000
  144.6750  140.0500  143.7479 LP  0  0  0  0  0  0  0  0  0  0  0  0  # atno 17320 bound_to 7965
  145.9700  139.2862  143.1104 LP  0  0  0  0  0  0  0  0  0  0  0  0  # atno 17321 bound_to 7965
  139.8025  143.8063  152.3164 LP  0  0  0  0  0  0  0  0  0  0  0  0  # atno 17342 bound_to 10162
  139.8085  144.7345  150.9729 LP  0  0  0  0  0  0  0  0  0  0  0  0  # atno 17343 bound_to 10162
  156.8613  130.5114  149.5303 LP  0  0  0  0  0  0  0  0  0  0  0  0  # atno 17370 bound_to 10713
  156.0866  130.5863  150.9659 LP  0  0  0  0  0  0  0  0  0  0  0  0  # atno 17371 bound_to 10713
  141.1808  133.8418  157.1264 LP  0  0  0  0  0  0  0  0  0  0  0  0  # atno 17394 bound_to 11000
  140.0243  134.9931  157.0655 LP  0  0  0  0  0  0  0  0  0  0  0  0  # atno 17395 bound_to 11000

$$$$
