AV-unprocessed.smi:1012|AV-procd|sdf|4425|dock3
  -GOLD-   22720 2383D 1   1.00000     0.00000
 Structure written by MMmdl.
 44 46  0  0  0  0  0  0  0  0  2 V2000
  147.2396  137.1170  163.3792 C   0  0  0  0  0  0  0  0  0  0  0  0
  147.6759  136.8770  162.0493 O   0  0  0  0  0  0  0  0  0  0  0  0
  147.7177  135.5724  161.5997 C   0  0  0  0  0  0  0  0  0  0  0  0
  147.3684  134.4547  162.4004 C   0  0  0  0  0  0  0  0  0  0  0  0
  147.4334  133.1495  161.8768 C   0  0  0  0  0  0  0  0  0  0  0  0
  147.8466  132.9417  160.5491 C   0  0  0  0  0  0  0  0  0  0  0  0
  148.1954  134.0415  159.7448 C   0  0  0  0  0  0  0  0  0  0  0  0
  148.1335  135.3518  160.2646 C   0  0  0  0  0  0  0  0  0  0  0  0
  148.5104  136.5252  159.3789 C   0  0  0  0  0  0  0  0  0  0  0  0
  149.4341  136.1397  158.3745 O   0  0  0  0  0  0  0  0  0  0  0  0
  149.7848  137.2078  157.5115 C   0  0  0  0  0  0  0  0  0  0  0  0
  150.6013  138.2459  158.3025 C   0  0  1  0  0  0  0  0  0  0  0  0
  151.4250  137.5605  159.2225 O   0  0  0  0  0  0  0  0  0  0  0  0
  151.5245  139.1165  157.4263 C   0  0  0  0  0  0  0  0  0  0  0  0
  151.0537  140.5034  157.3006 N   0  0  0  0  0  0  0  0  0  0  0  0
  150.2841  141.0669  156.3300 C   0  0  0  0  0  0  0  0  0  0  0  0
  150.1099  142.3784  156.6516 N   0  3  0  0  0  0  0  0  0  0  0  0
  150.7775  142.6582  157.8458 C   0  0  0  0  0  0  0  0  0  0  0  0
  150.8931  143.8418  158.5674 C   0  0  0  0  0  0  0  0  0  0  0  0
  151.6560  143.7916  159.7524 C   0  0  0  0  0  0  0  0  0  0  0  0
  151.8033  144.9162  160.4917 F   0  0  0  0  0  0  0  0  0  0  0  0
  152.2689  142.5948  160.1799 C   0  0  0  0  0  0  0  0  0  0  0  0
  152.9961  142.5905  161.3220 F   0  0  0  0  0  0  0  0  0  0  0  0
  152.1417  141.4000  159.4412 C   0  0  0  0  0  0  0  0  0  0  0  0
  151.3859  141.4580  158.2703 C   0  0  0  0  0  0  0  0  0  0  0  0
  147.2702  138.1880  163.5793 H   0  0  0  0  0  0  0  0  0  0  0  0
  147.8883  136.6277  164.1069 H   0  0  0  0  0  0  0  0  0  0  0  0
  146.2116  136.7836  163.5280 H   0  0  0  0  0  0  0  0  0  0  0  0
  147.0454  134.5710  163.4237 H   0  0  0  0  0  0  0  0  0  0  0  0
  147.1648  132.3063  162.4959 H   0  0  0  0  0  0  0  0  0  0  0  0
  147.8957  131.9401  160.1477 H   0  0  0  0  0  0  0  0  0  0  0  0
  148.5126  133.8740  158.7260 H   0  0  0  0  0  0  0  0  0  0  0  0
  147.6157  136.9427  158.9143 H   0  0  0  0  0  0  0  0  0  0  0  0
  148.9387  137.3098  160.0046 H   0  0  0  0  0  0  0  0  0  0  0  0
  150.3381  136.8543  156.6395 H   0  0  0  0  0  0  0  0  0  0  0  0
  148.8582  137.6505  157.1475 H   0  0  0  0  0  0  0  0  0  0  0  0
  149.9269  138.8973  158.8601 H   0  0  0  0  0  0  0  0  0  0  0  0
  151.8250  136.8263  158.7825 H   0  0  0  0  0  0  0  0  0  0  0  0
  152.5185  139.1650  157.8734 H   0  0  0  0  0  0  0  0  0  0  0  0
  151.6586  138.6813  156.4362 H   0  0  0  0  0  0  0  0  0  0  0  0
  149.8842  140.5638  155.4610 H   0  0  0  0  0  0  0  0  0  0  0  0
  150.4267  144.7603  158.2428 H   0  0  0  0  0  0  0  0  0  0  0  0
  152.6212  140.4938  159.7795 H   0  0  0  0  0  0  0  0  0  0  0  0
  149.5743  143.0317  156.0941 H   0  0  0  0  0  0  0  0  0  0  0  0
  1  2  1  0  0  0  0
  1 26  1  0  0  0  0
  1 27  1  0  0  0  0
  1 28  1  0  0  0  0
  2  3  1  0  0  0  0
  3  8  1  0  0  0  0
  3  4  2  0  0  0  0
  4  5  1  0  0  0  0
  4 29  1  0  0  0  0
  5  6  2  0  0  0  0
  5 30  1  0  0  0  0
  6  7  1  0  0  0  0
  6 31  1  0  0  0  0
  7  8  2  0  0  0  0
  7 32  1  0  0  0  0
  8  9  1  0  0  0  0
  9 10  1  0  0  0  0
  9 33  1  0  0  0  0
  9 34  1  0  0  0  0
 10 11  1  0  0  0  0
 11 12  1  0  0  0  0
 11 35  1  0  0  0  0
 11 36  1  0  0  0  0
 12 13  1  0  0  0  0
 12 14  1  0  0  0  0
 12 37  1  0  0  0  0
 13 38  1  0  0  0  0
 14 15  1  0  0  0  0
 14 39  1  0  0  0  0
 14 40  1  0  0  0  0
 15 25  1  0  0  0  0
 15 16  1  0  0  0  0
 16 17  2  0  0  0  0
 16 41  1  0  0  0  0
 17 18  1  0  0  0  0
 17 44  1  0  0  0  0
 18 25  2  0  0  0  0
 18 19  1  0  0  0  0
 19 20  2  0  0  0  0
 19 42  1  0  0  0  0
 20 21  1  0  0  0  0
 20 22  1  0  0  0  0
 22 23  1  0  0  0  0
 22 24  2  0  0  0  0
 24 25  1  0  0  0  0
 24 43  1  0  0  0  0
M  CHG  1  17   1
M  END
> <s_m_source_file>
AV-unprocessed.smi

> <i_m_source_file_index>
1012

> <i_lp_mmshare_version>
43012

> <i_f3d_flags>
0

> <s_epik_input>
W0NIM11PYzFbY0hdW2NIXVtjSF1bY0hdYzFbQ0gyXU9bQ0gyXVtDQEhdKFtPSF0pW0NIMl1uKFtjSF1uMiljKGMyMylbY0hdYyhGKWMoRilbY0hdMw==

> <s_epik_cmdline>
J2VwaWtfcHl0aG9uJywgJy1waCcsICc3LjAnLCAnLXRuJywgJzgnLCAnLW1hJywgJzIwMCcsICctbWV0YWxfYmluZGluZycsICctaW1hZScsICc8aW5maWxlLm1hZT4nLCAnLW9tYWUnLCAnPG91dGZpbGUubWFlPic=

> <r_lp_tautomer_probability>
1

> <r_epik_Ionization_Penalty>
2.14697

> <r_epik_Ionization_Penalty_Charging>
2.14697

> <r_epik_Ionization_Penalty_Neutral>
1.07667e-06

> <r_epik_State_Penalty>
2.28651

> <r_epik_Charging_Adjusted_Penalty>
4.43348

> <i_epik_Tot_Q>
1

> <i_epik_Tot_abs_Q>
1

> <r_epik_Metal_State_Penalty>
6.36664

> <b_epik_Metal_Only>
0

> <s_lp_Force_Field>
OPLS_2005

> <r_lp_Energy>
25.548

> <b_lp_Chiralities_Consistent>
1

> <s_lp_Variant>
AV-unprocessed.smi:1012-4

> <Gold.Version>
5.8.1

> <Gold.Id.Protein>
6NUR|6NUR_protein|mol2

> <Gold.PLP.Fitness>
63.5448

> <Gold.PLP.PLP>
-56.5686

> <Gold.PLP.part.hbond>
-3.0000

> <Gold.PLP.part.metal>
0.0000

> <Gold.PLP.part.buried>
-5.9787

> <Gold.PLP.part.nonpolar>
-46.6327

> <Gold.PLP.part.repulsive>
0.0680

> <Gold.PLP.ligand.clash>
0.0000

> <Gold.PLP.ligand.torsion>
1.6762

> <Gold.PLP.Chemscore.Hbond>
3.3760

> <Gold.PLP.Chemscore.CHOScore>
0.0000

> <Gold.PLP.Chemscore.Metal>
0.0000

> <Gold.Chemscore.Hbonds>
donor molecule, donor type, donor heavy atom, donor atom, acceptor molecule, acceptor atom, score
      L1  H    17    44       P1  8028  2.00
      P1  H  6931  6943       L1     2  0.95

> <Gold.PLP.Chemscore.Internal.Correction>
0.2007

> <Gold.Rescore>
     Score         DG    S(hbond)    S(metal)    S(lipo)     H(rot)  DE(clash)    DE(int)     intcor
     16.77     -18.84       1.86        0.00     127.22       3.03       0.42       1.65       ----

> <Gold.Chemscore.Fitness>
16.7711

> <Gold.Chemscore.DG>
-18.8376

> <Gold.Chemscore.ZeroCoef>
-5.4800

> <Gold.Chemscore.Hbond>
1.8636

> <Gold.Chemscore.Metal>
0.0000

> <Gold.Chemscore.Lipo>
127.2169

> <Gold.Chemscore.Internal_Hbond>
0.0000

> <Gold.Chemscore.DEClash>
0.4172

> <Gold.Chemscore.DEInternal>
1.6492

> <Gold.Chemscore.Rot>
3.0278

> <Gold.Chemscore.Internal.Correction>
   9.000000E+99

> <Gold.Chemscore.Hbonds>
donor molecule, donor type, donor heavy atom, donor atom, acceptor molecule, acceptor atom, score
      L1  H    17    44       P1  8028  0.98
      P1  H  6896  6909       L1    10  0.02
      P1  H  6931  6943       L1     2  0.21
      P1  H  6934  6947       L1     2  0.01

> <Gold.Chemscore.Hbond.Weighted>
-6.2244

> <Gold.Chemscore.Metal.Weighted>
-0.0000

> <Gold.Chemscore.Lipo.Weighted>
-14.8844

> <Gold.Chemscore.Internal_Hbond.Weighted>
0.0000

> <Gold.Chemscore.DEClash.Weighted>
0.4172

> <Gold.Chemscore.DEInternal.Weighted>
1.6492

> <Gold.Chemscore.Rot.Weighted>
7.7512

> <Gold.Chemscore.Internal.Correction.Weighted>
   9.000000E+99

> <Gold.Protein.RotatedTorsions>
[ 6907 6896 6895 6894 ] final   30.92 input  -60.11 | X-H torsion
[ 7974 7965 7964 7962 ] final  -21.57 input  175.53 | X-H torsion
[ 8008 7997 7996 7995 ] final   28.90 input   59.86 | X-H torsion
[ 10167 10162 10161 10158 ] final   75.75 input  -65.29 | X-H torsion
[ 10718 10713 10712 10709 ] final   73.88 input   66.30 | X-H torsion
[ 10763 10752 10751 10750 ] final  177.78 input  -60.55 | X-H torsion
[ 11005 11000 10999 10996 ] final  -79.11 input  -57.11 | X-H torsion

> <Gold.Protein.ActiveResidues>
 VAL166  LYS551  ARG553  GLY616  TRP617  ASP618  TYR619  PRO620  LYS621  CYS622 
 ASP623  PHE694  ASN695  SER759  ASP760  ASP761  ALA762  ILE779  LEU786  VAL792 
 PHE793  MET794  SER795  GLU796  ALA797  LYS798  CYS799  TRP800  GLU811  SER814 

> <Gold.Protein.RotatedAtoms>
  152.0529  134.9642  160.0574 H   0  0  0  0  0  0  0  0  0  0  0  0  # atno 6907 bound_to 6896
  152.1036  133.4258  159.4607 H   0  0  0  0  0  0  0  0  0  0  0  0  # atno 6908 bound_to 6896
  150.6840  134.2650  159.4608 H   0  0  0  0  0  0  0  0  0  0  0  0  # atno 6909 bound_to 6896
  146.1725  140.4359  142.8526 H   0  0  0  0  0  0  0  0  0  0  0  0  # atno 7974 bound_to 7965
  155.0659  140.3195  155.4645 H   0  0  0  0  0  0  0  0  0  0  0  0  # atno 8008 bound_to 7997
  156.2802  140.2120  156.5731 H   0  0  0  0  0  0  0  0  0  0  0  0  # atno 8009 bound_to 7997
  154.7094  140.0499  157.0523 H   0  0  0  0  0  0  0  0  0  0  0  0  # atno 8010 bound_to 7997
  139.9996  144.5696  150.7748 H   0  0  0  0  0  0  0  0  0  0  0  0  # atno 10167 bound_to 10162
  157.6568  130.9650  150.1132 H   0  0  0  0  0  0  0  0  0  0  0  0  # atno 10718 bound_to 10713
  154.4990  135.2782  155.1436 H   0  0  0  0  0  0  0  0  0  0  0  0  # atno 10763 bound_to 10752
  154.3077  135.6235  153.5455 H   0  0  0  0  0  0  0  0  0  0  0  0  # atno 10764 bound_to 10752
  152.9899  135.5712  154.5429 H   0  0  0  0  0  0  0  0  0  0  0  0  # atno 10765 bound_to 10752
  141.1666  133.7092  156.8073 H   0  0  0  0  0  0  0  0  0  0  0  0  # atno 11005 bound_to 11000
  144.8185  140.6510  143.6368 LP  0  0  0  0  0  0  0  0  0  0  0  0  # atno 17320 bound_to 7965
  145.4300  139.1550  143.4027 LP  0  0  0  0  0  0  0  0  0  0  0  0  # atno 17321 bound_to 7965
  140.7424  143.2831  151.3541 LP  0  0  0  0  0  0  0  0  0  0  0  0  # atno 17342 bound_to 10162
  139.6281  144.0774  152.2452 LP  0  0  0  0  0  0  0  0  0  0  0  0  # atno 17343 bound_to 10162
  156.2023  130.3661  149.8773 LP  0  0  0  0  0  0  0  0  0  0  0  0  # atno 17370 bound_to 10713
  156.6673  130.8806  151.3557 LP  0  0  0  0  0  0  0  0  0  0  0  0  # atno 17371 bound_to 10713
  140.2213  134.8755  157.3379 LP  0  0  0  0  0  0  0  0  0  0  0  0  # atno 17394 bound_to 11000
  140.1985  134.4283  155.7675 LP  0  0  0  0  0  0  0  0  0  0  0  0  # atno 17395 bound_to 11000

$$$$
