AV-unprocessed.smi:366|AV-procd|sdf|2430|dock4
  -GOLD-   2262022373D 1   1.00000     0.00000
 Structure written by MMmdl.
 50 51  0  0  0  0  0  0  0  0  1 V2000
  148.7845  133.4412  153.4688 C   0  0  0  0  0  0  0  0  0  0  0  0
  147.2730  133.6380  153.5186 C   0  0  0  0  0  0  0  0  0  0  0  0
  146.5951  132.9848  154.3109 O   0  0  0  0  0  0  0  0  0  0  0  0
  146.7570  134.5430  152.6712 N   0  0  0  0  0  0  0  0  0  0  0  0
  145.3401  134.8984  152.5673 C   0  0  1  0  0  0  0  0  0  0  0  0
  145.2300  136.4219  152.3662 C   0  0  0  0  0  0  0  0  0  0  0  0
  144.1278  136.9611  152.2515 O   0  0  0  0  0  0  0  0  0  0  0  0
  146.3844  137.1031  152.3444 N   0  0  0  0  0  0  0  0  0  0  0  0
  146.4872  138.5445  152.1738 C   0  0  0  0  0  0  0  0  0  0  0  0
  147.2906  139.1815  153.2891 C   0  0  0  0  0  0  0  0  0  0  0  0
  147.2686  140.5746  153.4928 C   0  0  0  0  0  0  0  0  0  0  0  0
  148.0399  141.1224  154.5355 C   0  0  0  0  0  0  0  0  0  0  0  0
  148.8192  140.2614  155.3454 C   0  0  0  0  0  0  0  0  0  0  0  0
  149.6023  140.7888  156.3955 N   0  0  0  0  0  0  0  0  0  0  0  0
  150.2312  139.8480  157.3211 C   0  0  0  0  0  0  0  0  0  0  0  0
  150.7881  140.5910  158.5470 C   0  0  0  0  0  0  0  0  0  0  0  0
  151.6752  141.6195  158.1212 O   0  0  0  0  0  0  0  0  0  0  0  0
  151.0138  142.5871  157.3133 C   0  0  0  0  0  0  0  0  0  0  0  0
  150.4618  141.9168  156.0433 C   0  0  0  0  0  0  0  0  0  0  0  0
  148.8328  138.9196  155.1446 N   0  0  0  0  0  0  0  0  0  0  0  0
  148.0917  138.3991  154.1439 C   0  0  0  0  0  0  0  0  0  0  0  0
  144.7205  134.1539  151.3478 C   0  0  0  0  0  0  0  0  0  0  0  0
  145.2860  132.7305  151.1587 C   0  0  0  0  0  0  0  0  0  0  0  0
  144.9028  134.9454  150.0376 C   0  0  0  0  0  0  0  0  0  0  0  0
  149.2129  133.8663  152.5602 H   0  0  0  0  0  0  0  0  0  0  0  0
  149.0294  132.3792  153.4956 H   0  0  0  0  0  0  0  0  0  0  0  0
  149.2528  133.9228  154.3272 H   0  0  0  0  0  0  0  0  0  0  0  0
  147.3929  135.0376  152.0629 H   0  0  0  0  0  0  0  0  0  0  0  0
  144.8167  134.6012  153.4787 H   0  0  0  0  0  0  0  0  0  0  0  0
  147.2470  136.5881  152.4465 H   0  0  0  0  0  0  0  0  0  0  0  0
  146.9566  138.7725  151.2153 H   0  0  0  0  0  0  0  0  0  0  0  0
  145.4875  138.9813  152.1512 H   0  0  0  0  0  0  0  0  0  0  0  0
  146.6697  141.2157  152.8629 H   0  0  0  0  0  0  0  0  0  0  0  0
  148.0129  142.1877  154.7086 H   0  0  0  0  0  0  0  0  0  0  0  0
  149.5080  139.1010  157.6508 H   0  0  0  0  0  0  0  0  0  0  0  0
  151.0360  139.3201  156.8075 H   0  0  0  0  0  0  0  0  0  0  0  0
  149.9804  141.0161  159.1451 H   0  0  0  0  0  0  0  0  0  0  0  0
  151.3301  139.8987  159.1910 H   0  0  0  0  0  0  0  0  0  0  0  0
  150.2127  143.0642  157.8802 H   0  0  0  0  0  0  0  0  0  0  0  0
  151.7230  143.3702  157.0460 H   0  0  0  0  0  0  0  0  0  0  0  0
  151.2843  141.5516  155.4269 H   0  0  0  0  0  0  0  0  0  0  0  0
  149.9317  142.6625  155.4530 H   0  0  0  0  0  0  0  0  0  0  0  0
  148.1422  137.3271  154.0218 H   0  0  0  0  0  0  0  0  0  0  0  0
  143.6459  134.0542  151.5119 H   0  0  0  0  0  0  0  0  0  0  0  0
  146.3697  132.7491  151.0402 H   0  0  0  0  0  0  0  0  0  0  0  0
  144.8650  132.2567  150.2714 H   0  0  0  0  0  0  0  0  0  0  0  0
  145.0539  132.0788  152.0010 H   0  0  0  0  0  0  0  0  0  0  0  0
  145.9580  135.1185  149.8248 H   0  0  0  0  0  0  0  0  0  0  0  0
  144.4075  135.9157  150.0733 H   0  0  0  0  0  0  0  0  0  0  0  0
  144.4789  134.4055  149.1905 H   0  0  0  0  0  0  0  0  0  0  0  0
  1  2  1  0  0  0  0
  1 25  1  0  0  0  0
  1 26  1  0  0  0  0
  1 27  1  0  0  0  0
  2  3  2  0  0  0  0
  2  4  1  0  0  0  0
  4  5  1  0  0  0  0
  4 28  1  0  0  0  0
  5  6  1  0  0  0  0
  5 22  1  0  0  0  0
  5 29  1  0  0  0  0
  6  7  2  0  0  0  0
  6  8  1  0  0  0  0
  8  9  1  0  0  0  0
  8 30  1  0  0  0  0
  9 10  1  0  0  0  0
  9 31  1  0  0  0  0
  9 32  1  0  0  0  0
 10 21  1  0  0  0  0
 10 11  2  0  0  0  0
 11 12  1  0  0  0  0
 11 33  1  0  0  0  0
 12 13  2  0  0  0  0
 12 34  1  0  0  0  0
 13 14  1  0  0  0  0
 13 20  1  0  0  0  0
 14 19  1  0  0  0  0
 14 15  1  0  0  0  0
 15 16  1  0  0  0  0
 15 35  1  0  0  0  0
 15 36  1  0  0  0  0
 16 17  1  0  0  0  0
 16 37  1  0  0  0  0
 16 38  1  0  0  0  0
 17 18  1  0  0  0  0
 18 19  1  0  0  0  0
 18 39  1  0  0  0  0
 18 40  1  0  0  0  0
 19 41  1  0  0  0  0
 19 42  1  0  0  0  0
 20 21  2  0  0  0  0
 21 43  1  0  0  0  0
 22 23  1  0  0  0  0
 22 24  1  0  0  0  0
 22 44  1  0  0  0  0
 23 45  1  0  0  0  0
 23 46  1  0  0  0  0
 23 47  1  0  0  0  0
 24 48  1  0  0  0  0
 24 49  1  0  0  0  0
 24 50  1  0  0  0  0
M  END
> <s_m_source_file>
AV-unprocessed.smi

> <i_m_source_file_index>
366

> <i_lp_mmshare_version>
43012

> <i_f3d_flags>
0

> <s_epik_input>
W0NIM11DKD1PKVtOSF1bQ0BASF0oW0NIXShbQ0gzXSlbQ0gzXSlDKD1PKVtOSF1bQ0gyXWMxW2NIXVtjSF1jKG5bY0hdMSlOMltDSDJdW0NIMl1PW0NIMl1bQ0gyXTI=

> <s_epik_cmdline>
J2VwaWtfcHl0aG9uJywgJy1waCcsICc3LjAnLCAnLXRuJywgJzgnLCAnLW1hJywgJzIwMCcsICctbWV0YWxfYmluZGluZycsICctaW1hZScsICc8aW5maWxlLm1hZT4nLCAnLW9tYWUnLCAnPG91dGZpbGUubWFlPic=

> <r_lp_tautomer_probability>
1

> <r_epik_Ionization_Penalty>
0.00485188

> <r_epik_Ionization_Penalty_Charging>
0

> <r_epik_Ionization_Penalty_Neutral>
0.00485188

> <r_epik_State_Penalty>
0.00351951

> <r_epik_Charging_Adjusted_Penalty>
0.00351951

> <i_epik_Tot_Q>
0

> <i_epik_Tot_abs_Q>
0

> <r_epik_Metal_State_Penalty>
-0

> <b_epik_Metal_Only>
0

> <s_lp_Force_Field>
OPLS_2005

> <r_lp_Energy>
20.5125

> <b_lp_Chiralities_Consistent>
1

> <s_lp_Variant>
AV-unprocessed.smi:366-2

> <Gold.Version>
5.8.1

> <Gold.Id.Protein>
6NUR|6NUR_protein|mol2

> <Gold.PLP.Fitness>
40.2295

> <Gold.PLP.PLP>
-33.6291

> <Gold.PLP.part.hbond>
-2.0000

> <Gold.PLP.part.metal>
0.0000

> <Gold.PLP.part.buried>
-1.7342

> <Gold.PLP.part.nonpolar>
-30.3811

> <Gold.PLP.part.repulsive>
1.3668

> <Gold.PLP.ligand.clash>
0.0000

> <Gold.PLP.ligand.torsion>
1.2263

> <Gold.PLP.Chemscore.Hbond>
1.9920

> <Gold.PLP.Chemscore.CHOScore>
0.8698

> <Gold.PLP.Chemscore.Metal>
0.0000

> <Gold.Chemscore.Hbonds>
donor molecule, donor type, donor heavy atom, donor atom, acceptor molecule, acceptor atom, score
      L1  H     4    28       P1  7948  1.00
      L1  H     8    30       P1  7948  0.98
      L1  C    21    43       P1  7948  0.80

> <Gold.PLP.Chemscore.Internal.Correction>
0.4677

> <Gold.Rescore>
     Score         DG    S(hbond)    S(metal)    S(lipo)     H(rot)  DE(clash)    DE(int)     intcor
     14.20     -15.73       1.87        0.00      82.06       2.18       0.35       1.18       ----

> <Gold.Chemscore.Fitness>
14.2026

> <Gold.Chemscore.DG>
-15.7306

> <Gold.Chemscore.ZeroCoef>
-5.4800

> <Gold.Chemscore.Hbond>
1.8664

> <Gold.Chemscore.Metal>
0.0000

> <Gold.Chemscore.Lipo>
82.0588

> <Gold.Chemscore.Internal_Hbond>
0.0000

> <Gold.Chemscore.DEClash>
0.3486

> <Gold.Chemscore.DEInternal>
1.1795

> <Gold.Chemscore.Rot>
2.1813

> <Gold.Chemscore.Internal.Correction>
   9.000000E+99

> <Gold.Chemscore.Hbonds>
donor molecule, donor type, donor heavy atom, donor atom, acceptor molecule, acceptor atom, score
      L1  H     4    28       P1  7948  0.90
      L1  H     8    30       P1  7948  0.93

> <Gold.Chemscore.Hbond.Weighted>
-6.2339

> <Gold.Chemscore.Metal.Weighted>
-0.0000

> <Gold.Chemscore.Lipo.Weighted>
-9.6009

> <Gold.Chemscore.Internal_Hbond.Weighted>
0.0000

> <Gold.Chemscore.DEClash.Weighted>
0.3486

> <Gold.Chemscore.DEInternal.Weighted>
1.1795

> <Gold.Chemscore.Rot.Weighted>
5.5842

> <Gold.Chemscore.Internal.Correction.Weighted>
   9.000000E+99

> <Gold.Protein.RotatedTorsions>
[ 6907 6896 6895 6894 ] final -176.70 input  -60.11 | X-H torsion
[ 7974 7965 7964 7962 ] final  171.44 input  175.53 | X-H torsion
[ 8008 7997 7996 7995 ] final -179.35 input   59.86 | X-H torsion
[ 10167 10162 10161 10158 ] final   98.61 input  -65.29 | X-H torsion
[ 10718 10713 10712 10709 ] final   -3.01 input   66.30 | X-H torsion
[ 10763 10752 10751 10750 ] final   53.36 input  -60.55 | X-H torsion
[ 11005 11000 10999 10996 ] final -134.41 input  -57.11 | X-H torsion

> <Gold.Protein.ActiveResidues>
 VAL166  LYS551  ARG553  GLY616  TRP617  ASP618  TYR619  PRO620  LYS621  CYS622 
 ASP623  PHE694  ASN695  SER759  ASP760  ASP761  ALA762  ILE779  LEU786  VAL792 
 PHE793  MET794  SER795  GLU796  ALA797  LYS798  CYS799  TRP800  GLU811  SER814 

> <Gold.Protein.RotatedAtoms>
  151.6091  133.3349  159.3063 H   0  0  0  0  0  0  0  0  0  0  0  0  # atno 6907 bound_to 6896
  150.8166  134.7355  159.6747 H   0  0  0  0  0  0  0  0  0  0  0  0  # atno 6908 bound_to 6896
  152.4262  134.5869  160.0015 H   0  0  0  0  0  0  0  0  0  0  0  0  # atno 6909 bound_to 6896
  144.7295  139.9351  143.6426 H   0  0  0  0  0  0  0  0  0  0  0  0  # atno 7974 bound_to 7965
  156.0295  140.1279  157.0273 H   0  0  0  0  0  0  0  0  0  0  0  0  # atno 8008 bound_to 7997
  154.4344  140.1052  156.6150 H   0  0  0  0  0  0  0  0  0  0  0  0  # atno 8009 bound_to 7997
  155.5827  140.3468  155.4547 H   0  0  0  0  0  0  0  0  0  0  0  0  # atno 8010 bound_to 7997
  139.7692  144.6928  151.0180 H   0  0  0  0  0  0  0  0  0  0  0  0  # atno 10167 bound_to 10162
  156.7823  130.5335  149.5749 H   0  0  0  0  0  0  0  0  0  0  0  0  # atno 10718 bound_to 10713
  152.9795  135.5781  154.4728 H   0  0  0  0  0  0  0  0  0  0  0  0  # atno 10763 bound_to 10752
  154.4288  135.2773  155.1928 H   0  0  0  0  0  0  0  0  0  0  0  0  # atno 10764 bound_to 10752
  154.3645  135.6181  153.5761 H   0  0  0  0  0  0  0  0  0  0  0  0  # atno 10765 bound_to 10752
  140.8992  134.1712  157.4473 H   0  0  0  0  0  0  0  0  0  0  0  0  # atno 11005 bound_to 11000
  146.0828  139.3816  143.0454 LP  0  0  0  0  0  0  0  0  0  0  0  0  # atno 17320 bound_to 7965
  145.7818  140.9853  143.1095 LP  0  0  0  0  0  0  0  0  0  0  0  0  # atno 17321 bound_to 7965
  140.7813  143.4607  151.0281 LP  0  0  0  0  0  0  0  0  0  0  0  0  # atno 17342 bound_to 10162
  139.8291  143.7715  152.3179 LP  0  0  0  0  0  0  0  0  0  0  0  0  # atno 17343 bound_to 10162
  156.1210  130.6110  151.0193 LP  0  0  0  0  0  0  0  0  0  0  0  0  # atno 17370 bound_to 10713
  157.6640  131.0875  150.7771 LP  0  0  0  0  0  0  0  0  0  0  0  0  # atno 17371 bound_to 10713
  139.8740  134.9891  156.5441 LP  0  0  0  0  0  0  0  0  0  0  0  0  # atno 17394 bound_to 11000
  140.8251  133.8323  155.8931 LP  0  0  0  0  0  0  0  0  0  0  0  0  # atno 17395 bound_to 11000

$$$$
