AV-unprocessed.smi:1433|AV-procd|sdf|5838|dock7
  -GOLD-   22720 5503D 1   1.00000     0.00000
 Structure written by MMmdl.
 44 45  0  0  0  0  0  0  0  0  1 V2000
  151.5723  137.7931  154.8399 C   0  0  0  0  0  0  0  0  0  0  0  0
  151.0458  139.2267  154.7170 C   0  0  1  0  0  0  0  0  0  0  0  0
  149.5332  139.2670  154.4290 C   0  0  0  0  0  0  0  0  0  0  0  0
  148.9952  140.6309  154.3810 N   0  0  0  0  0  0  0  0  0  0  0  0
  147.5345  140.6618  154.1332 C   0  0  1  0  0  0  0  0  0  0  0  0
  146.9669  142.1033  154.0861 C   0  0  0  0  0  0  0  0  0  0  0  0
  147.1118  139.9090  152.8368 C   0  0  0  0  0  0  0  0  0  0  0  0
  145.8359  139.2080  152.9534 N   0  0  0  0  0  0  0  0  0  0  0  0
  145.6314  138.0883  153.6645 C   0  0  0  0  0  0  0  0  0  0  0  0
  146.5149  137.5205  154.3068 O   0  0  0  0  0  0  0  0  0  0  0  0
  144.2122  137.5198  153.6504 C   0  0  0  0  0  0  0  0  0  0  0  0
  144.1610  136.2627  152.9263 N   0  0  0  0  0  0  0  0  0  0  0  0
  144.5800  135.9983  151.6389 C   0  0  0  0  0  0  0  0  0  0  0  0
  144.3293  134.6787  151.3925 C   0  0  0  0  0  0  0  0  0  0  0  0
  143.7449  134.2141  152.6040 C   0  0  0  0  0  0  0  0  0  0  0  0
  143.6458  135.1638  153.5204 N   0  0  0  0  0  0  0  0  0  0  0  0
  149.3649  141.3058  155.6304 C   0  0  0  0  0  0  0  0  0  0  0  0
  150.8781  141.2594  155.9165 C   0  0  1  0  0  0  0  0  0  0  0  0
  151.2325  141.8947  157.2652 C   0  0  0  0  0  0  0  0  0  0  0  0
  151.3070  139.9041  155.9392 O   0  0  0  0  0  0  0  0  0  0  0  0
  151.4071  137.2346  153.9183 H   0  0  0  0  0  0  0  0  0  0  0  0
  151.0758  137.2577  155.6496 H   0  0  0  0  0  0  0  0  0  0  0  0
  152.6432  137.7876  155.0444 H   0  0  0  0  0  0  0  0  0  0  0  0
  151.5846  139.7287  153.9114 H   0  0  0  0  0  0  0  0  0  0  0  0
  149.3833  138.7627  153.4766 H   0  0  0  0  0  0  0  0  0  0  0  0
  149.0005  138.6870  155.1842 H   0  0  0  0  0  0  0  0  0  0  0  0
  147.0469  140.1584  154.9694 H   0  0  0  0  0  0  0  0  0  0  0  0
  145.9022  142.1245  153.8571 H   0  0  0  0  0  0  0  0  0  0  0  0
  147.4761  142.7028  153.3311 H   0  0  0  0  0  0  0  0  0  0  0  0
  147.0583  142.6153  155.0429 H   0  0  0  0  0  0  0  0  0  0  0  0
  147.0372  140.6125  152.0069 H   0  0  0  0  0  0  0  0  0  0  0  0
  147.8467  139.1609  152.5418 H   0  0  0  0  0  0  0  0  0  0  0  0
  145.0523  139.6016  152.4525 H   0  0  0  0  0  0  0  0  0  0  0  0
  143.8777  137.3488  154.6743 H   0  0  0  0  0  0  0  0  0  0  0  0
  143.5149  138.2293  153.2010 H   0  0  0  0  0  0  0  0  0  0  0  0
  145.0153  136.7636  151.0130 H   0  0  0  0  0  0  0  0  0  0  0  0
  144.5306  134.1296  150.4848 H   0  0  0  0  0  0  0  0  0  0  0  0
  143.3924  133.2217  152.8428 H   0  0  0  0  0  0  0  0  0  0  0  0
  149.0797  142.3557  155.5960 H   0  0  0  0  0  0  0  0  0  0  0  0
  148.8231  140.8573  156.4646 H   0  0  0  0  0  0  0  0  0  0  0  0
  151.4156  141.7897  155.1284 H   0  0  0  0  0  0  0  0  0  0  0  0
  150.9328  142.9425  157.2978 H   0  0  0  0  0  0  0  0  0  0  0  0
  152.3068  141.8506  157.4454 H   0  0  0  0  0  0  0  0  0  0  0  0
  150.7357  141.3781  158.0870 H   0  0  0  0  0  0  0  0  0  0  0  0
  1  2  1  0  0  0  0
  1 21  1  0  0  0  0
  1 22  1  0  0  0  0
  1 23  1  0  0  0  0
  2 20  1  0  0  0  0
  2  3  1  0  0  0  0
  2 24  1  0  0  0  0
  3  4  1  0  0  0  0
  3 25  1  0  0  0  0
  3 26  1  0  0  0  0
  4  5  1  0  0  0  0
  4 17  1  0  0  0  0
  5  6  1  0  0  0  0
  5  7  1  0  0  0  0
  5 27  1  0  0  0  0
  6 28  1  0  0  0  0
  6 29  1  0  0  0  0
  6 30  1  0  0  0  0
  7  8  1  0  0  0  0
  7 31  1  0  0  0  0
  7 32  1  0  0  0  0
  8  9  1  0  0  0  0
  8 33  1  0  0  0  0
  9 10  2  0  0  0  0
  9 11  1  0  0  0  0
 11 12  1  0  0  0  0
 11 34  1  0  0  0  0
 11 35  1  0  0  0  0
 12 16  1  0  0  0  0
 12 13  1  0  0  0  0
 13 14  2  0  0  0  0
 13 36  1  0  0  0  0
 14 15  1  0  0  0  0
 14 37  1  0  0  0  0
 15 16  2  0  0  0  0
 15 38  1  0  0  0  0
 17 18  1  0  0  0  0
 17 39  1  0  0  0  0
 17 40  1  0  0  0  0
 18 19  1  0  0  0  0
 18 20  1  0  0  0  0
 18 41  1  0  0  0  0
 19 42  1  0  0  0  0
 19 43  1  0  0  0  0
 19 44  1  0  0  0  0
M  END
> <s_m_source_file>
AV-unprocessed.smi

> <i_m_source_file_index>
1433

> <i_lp_mmshare_version>
43012

> <i_f3d_flags>
0

> <s_epik_input>
W0NIM11bQ0BASF0xW0NIMl1OKFtDSDJdW0NASF0oTzEpW0NIM10pW0NASF0oW0NIM10pW0NIMl1bTkhdQyg9TylbQ0gyXW4yW2NIXVtjSF1bY0hdbjI=

> <s_epik_cmdline>
J2VwaWtfcHl0aG9uJywgJy1waCcsICc3LjAnLCAnLXRuJywgJzgnLCAnLW1hJywgJzIwMCcsICctbWV0YWxfYmluZGluZycsICctaW1hZScsICc8aW5maWxlLm1hZT4nLCAnLW9tYWUnLCAnPG91dGZpbGUubWFlPic=

> <r_lp_tautomer_probability>
1

> <r_epik_Ionization_Penalty>
0.196927

> <r_epik_Ionization_Penalty_Charging>
0

> <r_epik_Ionization_Penalty_Neutral>
0.196927

> <r_epik_State_Penalty>
0.186684

> <r_epik_Charging_Adjusted_Penalty>
0.186684

> <i_epik_Tot_Q>
0

> <i_epik_Tot_abs_Q>
0

> <r_epik_Metal_State_Penalty>
0.186682

> <b_epik_Metal_Only>
0

> <s_lp_Force_Field>
OPLS_2005

> <r_lp_Energy>
27.7845

> <b_lp_Chiralities_Consistent>
1

> <s_lp_Variant>
AV-unprocessed.smi:1433-4

> <Gold.Version>
5.8.1

> <Gold.Id.Protein>
6NUR|6NUR_protein|mol2

> <Gold.PLP.Fitness>
41.4533

> <Gold.PLP.PLP>
-33.6872

> <Gold.PLP.part.hbond>
-1.0000

> <Gold.PLP.part.metal>
0.0000

> <Gold.PLP.part.buried>
-3.1409

> <Gold.PLP.part.nonpolar>
-29.6083

> <Gold.PLP.part.repulsive>
0.2933

> <Gold.PLP.ligand.clash>
0.0000

> <Gold.PLP.ligand.torsion>
0.6136

> <Gold.PLP.Chemscore.Hbond>
1.0000

> <Gold.PLP.Chemscore.CHOScore>
1.9758

> <Gold.PLP.Chemscore.Metal>
0.0000

> <Gold.Chemscore.Hbonds>
donor molecule, donor type, donor heavy atom, donor atom, acceptor molecule, acceptor atom, score
      L1  H     8    33       P1 10175  1.00
      L1  C    13    36       P1 10171  0.97
      L1  C    15    38       P1 10957  1.00

> <Gold.PLP.Chemscore.Internal.Correction>
0.0660

> <Gold.Rescore>
     Score         DG    S(hbond)    S(metal)    S(lipo)     H(rot)  DE(clash)    DE(int)     intcor
     12.61     -13.53       0.94        0.00      81.42       1.80       0.28       0.64       ----

> <Gold.Chemscore.Fitness>
12.6129

> <Gold.Chemscore.DG>
-13.5328

> <Gold.Chemscore.ZeroCoef>
-5.4800

> <Gold.Chemscore.Hbond>
0.9413

> <Gold.Chemscore.Metal>
0.0000

> <Gold.Chemscore.Lipo>
81.4234

> <Gold.Chemscore.Internal_Hbond>
0.0000

> <Gold.Chemscore.DEClash>
0.2801

> <Gold.Chemscore.DEInternal>
0.6397

> <Gold.Chemscore.Rot>
1.8038

> <Gold.Chemscore.Internal.Correction>
   9.000000E+99

> <Gold.Chemscore.Hbonds>
donor molecule, donor type, donor heavy atom, donor atom, acceptor molecule, acceptor atom, score
      L1  H     8    33       P1 10175  0.94

> <Gold.Chemscore.Hbond.Weighted>
-3.1440

> <Gold.Chemscore.Metal.Weighted>
-0.0000

> <Gold.Chemscore.Lipo.Weighted>
-9.5265

> <Gold.Chemscore.Internal_Hbond.Weighted>
0.0000

> <Gold.Chemscore.DEClash.Weighted>
0.2801

> <Gold.Chemscore.DEInternal.Weighted>
0.6397

> <Gold.Chemscore.Rot.Weighted>
4.6178

> <Gold.Chemscore.Internal.Correction.Weighted>
   9.000000E+99

> <Gold.Protein.RotatedTorsions>
[ 6907 6896 6895 6894 ] final   -6.10 input  -60.11 | X-H torsion
[ 7974 7965 7964 7962 ] final  -86.19 input  175.53 | X-H torsion
[ 8008 7997 7996 7995 ] final   44.47 input   59.86 | X-H torsion
[ 10167 10162 10161 10158 ] final  140.12 input  -65.29 | X-H torsion
[ 10718 10713 10712 10709 ] final   59.44 input   66.30 | X-H torsion
[ 10763 10752 10751 10750 ] final  -90.70 input  -60.55 | X-H torsion
[ 11005 11000 10999 10996 ] final -174.85 input  -57.11 | X-H torsion

> <Gold.Protein.ActiveResidues>
 VAL166  LYS551  ARG553  GLY616  TRP617  ASP618  TYR619  PRO620  LYS621  CYS622 
 ASP623  PHE694  ASN695  SER759  ASP760  ASP761  ALA762  ILE779  LEU786  VAL792 
 PHE793  MET794  SER795  GLU796  ALA797  LYS798  CYS799  TRP800  GLU811  SER814 

> <Gold.Protein.RotatedAtoms>
  151.4710  135.1046  159.9751 H   0  0  0  0  0  0  0  0  0  0  0  0  # atno 6907 bound_to 6896
  152.4816  133.8265  159.7091 H   0  0  0  0  0  0  0  0  0  0  0  0  # atno 6908 bound_to 6896
  150.8893  133.7204  159.2936 H   0  0  0  0  0  0  0  0  0  0  0  0  # atno 6909 bound_to 6896
  145.4832  140.9556  143.1853 H   0  0  0  0  0  0  0  0  0  0  0  0  # atno 7974 bound_to 7965
  155.3198  140.3396  155.4241 H   0  0  0  0  0  0  0  0  0  0  0  0  # atno 8008 bound_to 7997
  156.1914  140.1699  156.8121 H   0  0  0  0  0  0  0  0  0  0  0  0  # atno 8009 bound_to 7997
  154.5447  140.0717  156.8552 H   0  0  0  0  0  0  0  0  0  0  0  0  # atno 8010 bound_to 7997
  139.5058  144.6253  151.5951 H   0  0  0  0  0  0  0  0  0  0  0  0  # atno 10167 bound_to 10162
  157.5675  130.8882  149.9212 H   0  0  0  0  0  0  0  0  0  0  0  0  # atno 10718 bound_to 10713
  154.6685  135.5295  153.8108 H   0  0  0  0  0  0  0  0  0  0  0  0  # atno 10763 bound_to 10752
  153.0486  135.6523  154.0761 H   0  0  0  0  0  0  0  0  0  0  0  0  # atno 10764 bound_to 10752
  154.0663  135.2958  155.3296 H   0  0  0  0  0  0  0  0  0  0  0  0  # atno 10765 bound_to 10752
  140.4699  134.6175  157.4877 H   0  0  0  0  0  0  0  0  0  0  0  0  # atno 11005 bound_to 11000
  144.7876  139.6393  143.7127 LP  0  0  0  0  0  0  0  0  0  0  0  0  # atno 17320 bound_to 7965
  146.2328  139.5847  142.9543 LP  0  0  0  0  0  0  0  0  0  0  0  0  # atno 17321 bound_to 7965
  140.5969  143.9681  150.6360 LP  0  0  0  0  0  0  0  0  0  0  0  0  # atno 17342 bound_to 10162
  140.2879  143.3344  152.1090 LP  0  0  0  0  0  0  0  0  0  0  0  0  # atno 17343 bound_to 10162
  156.0722  130.3683  150.0751 LP  0  0  0  0  0  0  0  0  0  0  0  0  # atno 17370 bound_to 10713
  156.8908  130.9588  151.3588 LP  0  0  0  0  0  0  0  0  0  0  0  0  # atno 17371 bound_to 10713
  139.9892  134.7013  155.9720 LP  0  0  0  0  0  0  0  0  0  0  0  0  # atno 17394 bound_to 11000
  141.1582  133.6541  156.4230 LP  0  0  0  0  0  0  0  0  0  0  0  0  # atno 17395 bound_to 11000

$$$$
