AV-unprocessed.smi:1550|AV-procd|sdf|6231|dock8
  -GOLD-   22720 6413D 1   1.00000     0.00000
 Structure written by MMmdl.
 42 43  0  0  0  0  0  0  0  0  2 V2000
  156.7106  138.8388  160.6574 C   0  0  0  0  0  0  0  0  0  0  0  0
  155.7301  139.1094  161.8081 C   0  0  1  0  0  0  0  0  0  0  0  0
  156.5018  139.3574  162.9800 O   0  0  0  0  0  0  0  0  0  0  0  0
  155.7631  139.4192  164.1953 C   0  0  0  0  0  0  0  0  0  0  0  0
  155.4681  137.9905  164.6693 C   0  0  1  0  0  0  0  0  0  0  0  0
  154.2748  137.3629  163.9215 C   0  0  0  0  0  0  0  0  0  0  0  0
  154.0688  135.9081  164.3573 C   0  0  0  0  0  0  0  0  0  0  0  0
  155.3836  135.1352  164.2112 C   0  0  0  0  0  0  0  0  0  0  0  0
  156.5176  135.8685  164.9451 C   0  0  0  0  0  0  0  0  0  0  0  0
  156.6350  137.1998  164.4517 O   0  0  0  0  0  0  0  0  0  0  0  0
  154.8284  140.3160  161.5004 C   0  0  0  0  0  0  0  0  0  0  0  0
  154.7703  141.2458  162.3048 O   0  0  0  0  0  0  0  0  0  0  0  0
  154.1306  140.2338  160.3505 N   0  0  0  0  0  0  0  0  0  0  0  0
  153.2298  141.1475  159.7767 C   0  0  0  0  0  0  0  0  0  0  0  0
  152.9064  142.3618  160.3023 C   0  0  0  0  0  0  0  0  0  0  0  0
  151.9706  143.2701  159.6511 C   0  0  0  0  0  0  0  0  0  0  0  0
  151.5092  144.5831  160.2586 C   0  0  0  0  0  0  0  0  0  0  0  0
  150.1808  144.5937  160.3608 F   0  0  0  0  0  0  0  0  0  0  0  0
  152.0212  144.7539  161.4779 F   0  0  0  0  0  0  0  0  0  0  0  0
  151.8762  145.6159  159.4999 F   0  0  0  0  0  0  0  0  0  0  0  0
  151.4673  142.7491  158.4749 C   0  0  0  0  0  0  0  0  0  0  0  0
  151.7559  141.5750  157.8723 N   0  5  0  0  0  0  0  0  0  0  0  0
  152.6320  140.7337  158.4901 C   0  0  0  0  0  0  0  0  0  0  0  0
  152.9338  139.6450  157.9998 O   0  0  0  0  0  0  0  0  0  0  0  0
  156.1817  138.6559  159.7213 H   0  0  0  0  0  0  0  0  0  0  0  0
  157.3192  137.9592  160.8682 H   0  0  0  0  0  0  0  0  0  0  0  0
  157.3894  139.6782  160.5015 H   0  0  0  0  0  0  0  0  0  0  0  0
  155.1217  138.2148  161.9568 H   0  0  0  0  0  0  0  0  0  0  0  0
  156.2991  139.9662  164.9719 H   0  0  0  0  0  0  0  0  0  0  0  0
  154.8260  139.9476  164.0145 H   0  0  0  0  0  0  0  0  0  0  0  0
  155.2630  138.0147  165.7411 H   0  0  0  0  0  0  0  0  0  0  0  0
  153.3666  137.9382  164.1046 H   0  0  0  0  0  0  0  0  0  0  0  0
  154.4549  137.3984  162.8463 H   0  0  0  0  0  0  0  0  0  0  0  0
  153.7386  135.8789  165.3962 H   0  0  0  0  0  0  0  0  0  0  0  0
  153.2831  135.4402  163.7636 H   0  0  0  0  0  0  0  0  0  0  0  0
  155.2722  134.1231  164.6009 H   0  0  0  0  0  0  0  0  0  0  0  0
  155.6366  135.0384  163.1545 H   0  0  0  0  0  0  0  0  0  0  0  0
  156.3394  135.8826  166.0216 H   0  0  0  0  0  0  0  0  0  0  0  0
  157.4633  135.3500  164.7871 H   0  0  0  0  0  0  0  0  0  0  0  0
  154.2359  139.3762  159.8278 H   0  0  0  0  0  0  0  0  0  0  0  0
  153.3508  142.7055  161.2212 H   0  0  0  0  0  0  0  0  0  0  0  0
  150.7148  143.3669  157.9398 H   0  0  0  0  0  0  0  0  0  0  0  0
  1  2  1  0  0  0  0
  1 25  1  0  0  0  0
  1 26  1  0  0  0  0
  1 27  1  0  0  0  0
  2  3  1  0  0  0  0
  2 11  1  0  0  0  0
  2 28  1  0  0  0  0
  3  4  1  0  0  0  0
  4  5  1  0  0  0  0
  4 29  1  0  0  0  0
  4 30  1  0  0  0  0
  5 10  1  0  0  0  0
  5  6  1  0  0  0  0
  5 31  1  0  0  0  0
  6  7  1  0  0  0  0
  6 32  1  0  0  0  0
  6 33  1  0  0  0  0
  7  8  1  0  0  0  0
  7 34  1  0  0  0  0
  7 35  1  0  0  0  0
  8  9  1  0  0  0  0
  8 36  1  0  0  0  0
  8 37  1  0  0  0  0
  9 10  1  0  0  0  0
  9 38  1  0  0  0  0
  9 39  1  0  0  0  0
 11 12  2  0  0  0  0
 11 13  1  0  0  0  0
 13 14  1  0  0  0  0
 13 40  1  0  0  0  0
 14 23  1  0  0  0  0
 14 15  2  0  0  0  0
 15 16  1  0  0  0  0
 15 41  1  0  0  0  0
 16 17  1  0  0  0  0
 16 21  2  0  0  0  0
 17 18  1  0  0  0  0
 17 19  1  0  0  0  0
 17 20  1  0  0  0  0
 21 22  1  0  0  0  0
 21 42  1  0  0  0  0
 22 23  1  0  0  0  0
 23 24  2  0  0  0  0
M  CHG  1  22  -1
M  END
> <s_m_source_file>
AV-unprocessed.smi

> <i_m_source_file_index>
1550

> <i_lp_mmshare_version>
43012

> <i_f3d_flags>
0

> <s_epik_input>
TzFbQ0gyXVtDSDJdW0NIMl1bQ0gyXVtDQEhdMVtDSDJdT1tDQEBIXShbQ0gzXSlDKD1PKVtOSF1jMltjSF1jKEMoRikoRilGKVtjSF1bbkhdYzI9Tw==

> <s_epik_cmdline>
J2VwaWtfcHl0aG9uJywgJy1waCcsICc3LjAnLCAnLXRuJywgJzgnLCAnLW1hJywgJzIwMCcsICctbWV0YWxfYmluZGluZycsICctaW1hZScsICc8aW5maWxlLm1hZT4nLCAnLW9tYWUnLCAnPG91dGZpbGUubWFlPic=

> <r_epik_Ionization_Penalty>
2.54933

> <r_epik_Ionization_Penalty_Charging>
0.0583423

> <r_epik_Ionization_Penalty_Neutral>
2.49099

> <r_epik_State_Penalty>
2.65532

> <r_epik_Charging_Adjusted_Penalty>
2.71366

> <i_epik_Tot_Q>
-1

> <i_epik_Tot_abs_Q>
1

> <r_epik_Metal_State_Penalty>
0.516364

> <b_epik_Metal_Only>
0

> <s_lp_Force_Field>
OPLS_2005

> <r_lp_Energy>
27.8976

> <b_lp_Chiralities_Consistent>
1

> <s_lp_Variant>
AV-unprocessed.smi:1550-8

> <Gold.Version>
5.8.1

> <Gold.Id.Protein>
6NUR|6NUR_protein|mol2

> <Gold.PLP.Fitness>
47.3806

> <Gold.PLP.PLP>
-45.1995

> <Gold.PLP.part.hbond>
-2.0000

> <Gold.PLP.part.metal>
0.0000

> <Gold.PLP.part.buried>
-4.5768

> <Gold.PLP.part.nonpolar>
-39.2455

> <Gold.PLP.part.repulsive>
0.0997

> <Gold.PLP.ligand.clash>
0.0000

> <Gold.PLP.ligand.torsion>
0.4853

> <Gold.PLP.Chemscore.Hbond>
1.0000

> <Gold.PLP.Chemscore.CHOScore>
0.0000

> <Gold.PLP.Chemscore.Metal>
0.0000

> <Gold.Chemscore.Hbonds>
donor molecule, donor type, donor heavy atom, donor atom, acceptor molecule, acceptor atom, score
      P1  H  7997  8008       L1    24  1.00

> <Gold.PLP.Chemscore.Internal.Correction>
0.1517

> <Gold.Rescore>
     Score         DG    S(hbond)    S(metal)    S(lipo)     H(rot)  DE(clash)    DE(int)     intcor
     11.30     -15.38       0.88        0.00      99.36       1.82       1.12       2.95       ----

> <Gold.Chemscore.Fitness>
11.2995

> <Gold.Chemscore.DG>
-15.3781

> <Gold.Chemscore.ZeroCoef>
-5.4800

> <Gold.Chemscore.Hbond>
0.8807

> <Gold.Chemscore.Metal>
0.0000

> <Gold.Chemscore.Lipo>
99.3579

> <Gold.Chemscore.Internal_Hbond>
0.0000

> <Gold.Chemscore.DEClash>
1.1247

> <Gold.Chemscore.DEInternal>
2.9539

> <Gold.Chemscore.Rot>
1.8236

> <Gold.Chemscore.Internal.Correction>
   9.000000E+99

> <Gold.Chemscore.Hbonds>
donor molecule, donor type, donor heavy atom, donor atom, acceptor molecule, acceptor atom, score
      P1  H  7997  8008       L1    24  0.38

> <Gold.Chemscore.Hbond.Weighted>
-2.9416

> <Gold.Chemscore.Metal.Weighted>
-0.0000

> <Gold.Chemscore.Lipo.Weighted>
-11.6249

> <Gold.Chemscore.Internal_Hbond.Weighted>
0.0000

> <Gold.Chemscore.DEClash.Weighted>
1.1247

> <Gold.Chemscore.DEInternal.Weighted>
2.9539

> <Gold.Chemscore.Rot.Weighted>
4.6684

> <Gold.Chemscore.Internal.Correction.Weighted>
   9.000000E+99

> <Gold.Protein.RotatedTorsions>
[ 6907 6896 6895 6894 ] final  158.67 input  -60.11 | X-H torsion
[ 7974 7965 7964 7962 ] final   67.06 input  175.53 | X-H torsion
[ 8008 7997 7996 7995 ] final  -91.42 input   59.86 | X-H torsion
[ 10167 10162 10161 10158 ] final  127.41 input  -65.29 | X-H torsion
[ 10718 10713 10712 10709 ] final  153.33 input   66.30 | X-H torsion
[ 10763 10752 10751 10750 ] final   70.07 input  -60.55 | X-H torsion
[ 11005 11000 10999 10996 ] final  126.81 input  -57.11 | X-H torsion

> <Gold.Protein.ActiveResidues>
 VAL166  LYS551  ARG553  GLY616  TRP617  ASP618  TYR619  PRO620  LYS621  CYS622 
 ASP623  PHE694  ASN695  SER759  ASP760  ASP761  ALA762  ILE779  LEU786  VAL792 
 PHE793  MET794  SER795  GLU796  ALA797  LYS798  CYS799  TRP800  GLU811  SER814 

> <Gold.Protein.RotatedAtoms>
  151.9970  133.3811  159.4166 H   0  0  0  0  0  0  0  0  0  0  0  0  # atno 6907 bound_to 6896
  150.6914  134.3875  159.5071 H   0  0  0  0  0  0  0  0  0  0  0  0  # atno 6908 bound_to 6896
  152.1617  134.8907  160.0592 H   0  0  0  0  0  0  0  0  0  0  0  0  # atno 6909 bound_to 6896
  145.8191  139.3075  143.1054 H   0  0  0  0  0  0  0  0  0  0  0  0  # atno 7974 bound_to 7965
  154.7105  140.0520  157.0545 H   0  0  0  0  0  0  0  0  0  0  0  0  # atno 8008 bound_to 7997
  155.0561  140.3184  155.4657 H   0  0  0  0  0  0  0  0  0  0  0  0  # atno 8009 bound_to 7997
  156.2788  140.2107  156.5688 H   0  0  0  0  0  0  0  0  0  0  0  0  # atno 8010 bound_to 7997
  139.5580  144.6862  151.4126 H   0  0  0  0  0  0  0  0  0  0  0  0  # atno 10167 bound_to 10162
  157.2461  131.0769  151.1761 H   0  0  0  0  0  0  0  0  0  0  0  0  # atno 10718 bound_to 10713
  153.0321  135.5187  154.7384 H   0  0  0  0  0  0  0  0  0  0  0  0  # atno 10763 bound_to 10752
  154.6391  135.2910  155.0127 H   0  0  0  0  0  0  0  0  0  0  0  0  # atno 10764 bound_to 10752
  154.1051  135.6630  153.4927 H   0  0  0  0  0  0  0  0  0  0  0  0  # atno 10765 bound_to 10752
  139.9475  134.9627  156.8762 H   0  0  0  0  0  0  0  0  0  0  0  0  # atno 11005 bound_to 11000
  145.9694  140.8772  143.0170 LP  0  0  0  0  0  0  0  0  0  0  0  0  # atno 17320 bound_to 7965
  144.6749  140.1925  143.7395 LP  0  0  0  0  0  0  0  0  0  0  0  0  # atno 17321 bound_to 7965
  140.6855  143.7983  150.7181 LP  0  0  0  0  0  0  0  0  0  0  0  0  # atno 17342 bound_to 10162
  140.1449  143.4408  152.2169 LP  0  0  0  0  0  0  0  0  0  0  0  0  # atno 17343 bound_to 10162
  157.3327  130.6993  149.6334 LP  0  0  0  0  0  0  0  0  0  0  0  0  # atno 17370 bound_to 10713
  155.9668  130.4302  150.4868 LP  0  0  0  0  0  0  0  0  0  0  0  0  # atno 17371 bound_to 10713
  140.5799  134.0362  155.7460 LP  0  0  0  0  0  0  0  0  0  0  0  0  # atno 17394 bound_to 11000
  141.1129  133.9586  157.2876 LP  0  0  0  0  0  0  0  0  0  0  0  0  # atno 17395 bound_to 11000

$$$$
