AV-unprocessed.smi:2911|AV-procd|sdf|11179|dock4
  -GOLD-   2272016 73D 1   1.00000     0.00000
 Structure written by MMmdl.
 41 42  0  0  0  0  0  0  0  0  1 V2000
  146.9662  141.3478  154.1414 C   0  0  0  0  0  0  0  0  0  0  0  0
  148.3140  140.7567  154.3778 C   0  0  0  0  0  0  0  0  0  0  0  0
  149.4186  141.4692  154.1930 N   0  0  0  0  0  0  0  0  0  0  0  0
  150.4431  140.5637  154.5046 O   0  0  0  0  0  0  0  0  0  0  0  0
  149.8232  139.4117  154.8571 C   0  0  0  0  0  0  0  0  0  0  0  0
  150.6534  138.2215  155.2032 C   0  0  0  0  0  0  0  0  0  0  0  0
  150.0678  137.4209  156.3771 C   0  0  0  0  0  0  0  0  0  0  0  0
  149.5073  136.1495  155.9337 N   0  0  0  0  0  0  0  0  0  0  0  0
  150.1441  135.2390  155.1773 C   0  0  0  0  0  0  0  0  0  0  0  0
  151.2882  135.4300  154.7616 O   0  0  0  0  0  0  0  0  0  0  0  0
  149.4111  134.1357  154.8683 N   0  0  0  0  0  0  0  0  0  0  0  0
  148.0161  133.8978  155.3016 C   0  0  0  0  0  0  0  0  0  0  0  0
  147.1260  133.5244  154.1078 C   0  0  0  0  0  0  0  0  0  0  0  0
  147.6712  132.2829  153.3872 C   0  0  1  0  0  0  0  0  0  0  0  0
  146.8058  131.9029  152.1775 C   0  0  0  0  0  0  0  0  0  0  0  0
  149.1366  132.5192  152.9857 C   0  0  0  0  0  0  0  0  0  0  0  0
  150.0231  132.9897  154.1600 C   0  0  2  0  0  0  0  0  0  0  0  0
  150.4211  131.8664  155.1349 C   0  0  0  0  0  0  0  0  0  0  0  0
  148.4958  139.4686  154.7787 N   0  0  0  0  0  0  0  0  0  0  0  0
  146.9282  142.3735  154.5097 H   0  0  0  0  0  0  0  0  0  0  0  0
  146.1977  140.7704  154.6559 H   0  0  0  0  0  0  0  0  0  0  0  0
  146.7402  141.3520  153.0750 H   0  0  0  0  0  0  0  0  0  0  0  0
  150.7389  137.5914  154.3171 H   0  0  0  0  0  0  0  0  0  0  0  0
  151.6617  138.5601  155.4445 H   0  0  0  0  0  0  0  0  0  0  0  0
  150.8498  137.2067  157.1060 H   0  0  0  0  0  0  0  0  0  0  0  0
  149.3084  138.0057  156.8996 H   0  0  0  0  0  0  0  0  0  0  0  0
  148.5617  135.9436  156.2218 H   0  0  0  0  0  0  0  0  0  0  0  0
  148.0087  133.0897  156.0331 H   0  0  0  0  0  0  0  0  0  0  0  0
  147.5584  134.7419  155.8165 H   0  0  0  0  0  0  0  0  0  0  0  0
  146.1084  133.3378  154.4528 H   0  0  0  0  0  0  0  0  0  0  0  0
  147.0703  134.3661  153.4158 H   0  0  0  0  0  0  0  0  0  0  0  0
  147.6413  131.4462  154.0863 H   0  0  0  0  0  0  0  0  0  0  0  0
  146.7882  132.7013  151.4348 H   0  0  0  0  0  0  0  0  0  0  0  0
  145.7765  131.7049  152.4780 H   0  0  0  0  0  0  0  0  0  0  0  0
  147.1854  131.0039  151.6911 H   0  0  0  0  0  0  0  0  0  0  0  0
  149.5554  131.6153  152.5418 H   0  0  0  0  0  0  0  0  0  0  0  0
  149.1676  133.2788  152.2029 H   0  0  0  0  0  0  0  0  0  0  0  0
  150.9539  133.3062  153.6861 H   0  0  0  0  0  0  0  0  0  0  0  0
  150.9538  131.0710  154.6134 H   0  0  0  0  0  0  0  0  0  0  0  0
  149.5552  131.4154  155.6184 H   0  0  0  0  0  0  0  0  0  0  0  0
  151.0807  132.2428  155.9173 H   0  0  0  0  0  0  0  0  0  0  0  0
  1  2  1  0  0  0  0
  1 20  1  0  0  0  0
  1 21  1  0  0  0  0
  1 22  1  0  0  0  0
  2 19  1  0  0  0  0
  2  3  2  0  0  0  0
  3  4  1  0  0  0  0
  4  5  1  0  0  0  0
  5  6  1  0  0  0  0
  5 19  2  0  0  0  0
  6  7  1  0  0  0  0
  6 23  1  0  0  0  0
  6 24  1  0  0  0  0
  7  8  1  0  0  0  0
  7 25  1  0  0  0  0
  7 26  1  0  0  0  0
  8  9  1  0  0  0  0
  8 27  1  0  0  0  0
  9 10  2  0  0  0  0
  9 11  1  0  0  0  0
 11 17  1  0  0  0  0
 11 12  1  0  0  0  0
 12 13  1  0  0  0  0
 12 28  1  0  0  0  0
 12 29  1  0  0  0  0
 13 14  1  0  0  0  0
 13 30  1  0  0  0  0
 13 31  1  0  0  0  0
 14 15  1  0  0  0  0
 14 16  1  0  0  0  0
 14 32  1  0  0  0  0
 15 33  1  0  0  0  0
 15 34  1  0  0  0  0
 15 35  1  0  0  0  0
 16 17  1  0  0  0  0
 16 36  1  0  0  0  0
 16 37  1  0  0  0  0
 17 18  1  0  0  0  0
 17 38  1  0  0  0  0
 18 39  1  0  0  0  0
 18 40  1  0  0  0  0
 18 41  1  0  0  0  0
M  END
> <s_m_source_file>
AV-unprocessed.smi

> <i_m_source_file_index>
2911

> <i_lp_mmshare_version>
43012

> <i_f3d_flags>
0

> <s_epik_input>
W0NIM11jMW5vYyhuMSlbQ0gyXVtDSDJdW05IXUMoPU8pTjJbQ0gyXVtDSDJdW0NAQEhdKFtDSDNdKVtDSDJdW0NASF0yW0NIM10=

> <s_epik_cmdline>
J2VwaWtfcHl0aG9uJywgJy1waCcsICc3LjAnLCAnLXRuJywgJzgnLCAnLW1hJywgJzIwMCcsICctbWV0YWxfYmluZGluZycsICctaW1hZScsICc8aW5maWxlLm1hZT4nLCAnLW9tYWUnLCAnPG91dGZpbGUubWFlPic=

> <r_lp_tautomer_probability>
1

> <r_epik_Ionization_Penalty>
6.61671e-05

> <r_epik_Ionization_Penalty_Charging>
0

> <r_epik_Ionization_Penalty_Neutral>
6.61671e-05

> <r_epik_State_Penalty>
-0

> <r_epik_Charging_Adjusted_Penalty>
0

> <i_epik_Tot_Q>
0

> <i_epik_Tot_abs_Q>
0

> <r_epik_Metal_State_Penalty>
-0

> <b_epik_Metal_Only>
0

> <s_lp_Force_Field>
OPLS_2005

> <r_lp_Energy>
30.51

> <b_lp_Chiralities_Consistent>
1

> <s_lp_Variant>
AV-unprocessed.smi:2911-3

> <Gold.Version>
5.8.1

> <Gold.Id.Protein>
6NUR|6NUR_protein|mol2

> <Gold.PLP.Fitness>
35.0327

> <Gold.PLP.PLP>
-28.2571

> <Gold.PLP.part.hbond>
-3.7265

> <Gold.PLP.part.metal>
0.0000

> <Gold.PLP.part.buried>
-2.1194

> <Gold.PLP.part.nonpolar>
-22.2089

> <Gold.PLP.part.repulsive>
0.5756

> <Gold.PLP.ligand.clash>
0.0000

> <Gold.PLP.ligand.torsion>
0.6571

> <Gold.PLP.Chemscore.Hbond>
2.6880

> <Gold.PLP.Chemscore.CHOScore>
0.0000

> <Gold.PLP.Chemscore.Metal>
0.0000

> <Gold.Chemscore.Hbonds>
donor molecule, donor type, donor heavy atom, donor atom, acceptor molecule, acceptor atom, score
      P1  H  7989  7998       L1     4  0.94
      P1  H  8011  8017       L1     3  0.50
      P1  H 10752 10763       L1    10  1.00

> <Gold.PLP.Chemscore.Internal.Correction>
0.0258

> <Gold.Rescore>
     Score         DG    S(hbond)    S(metal)    S(lipo)     H(rot)  DE(clash)    DE(int)     intcor
     12.42     -14.42       2.14        0.00      50.49       1.61       0.04       1.97       ----

> <Gold.Chemscore.Fitness>
12.4156

> <Gold.Chemscore.DG>
-14.4191

> <Gold.Chemscore.ZeroCoef>
-5.4800

> <Gold.Chemscore.Hbond>
2.1410

> <Gold.Chemscore.Metal>
0.0000

> <Gold.Chemscore.Lipo>
50.4861

> <Gold.Chemscore.Internal_Hbond>
0.0000

> <Gold.Chemscore.DEClash>
0.0355

> <Gold.Chemscore.DEInternal>
1.9680

> <Gold.Chemscore.Rot>
1.6088

> <Gold.Chemscore.Internal.Correction>
   9.000000E+99

> <Gold.Chemscore.Hbonds>
donor molecule, donor type, donor heavy atom, donor atom, acceptor molecule, acceptor atom, score
      P1  H  7989  7998       L1     4  0.44
      P1  H  8011  8017       L1     3  0.38
      P1  H 10752 10763       L1    10  0.95

> <Gold.Chemscore.Hbond.Weighted>
-7.1508

> <Gold.Chemscore.Metal.Weighted>
-0.0000

> <Gold.Chemscore.Lipo.Weighted>
-5.9069

> <Gold.Chemscore.Internal_Hbond.Weighted>
0.0000

> <Gold.Chemscore.DEClash.Weighted>
0.0355

> <Gold.Chemscore.DEInternal.Weighted>
1.9680

> <Gold.Chemscore.Rot.Weighted>
4.1186

> <Gold.Chemscore.Internal.Correction.Weighted>
   9.000000E+99

> <Gold.Protein.RotatedTorsions>
[ 6907 6896 6895 6894 ] final  -37.37 input  -60.11 | X-H torsion
[ 7974 7965 7964 7962 ] final   21.02 input  175.53 | X-H torsion
[ 8008 7997 7996 7995 ] final  144.84 input   59.86 | X-H torsion
[ 10167 10162 10161 10158 ] final  -94.51 input  -65.29 | X-H torsion
[ 10718 10713 10712 10709 ] final  157.08 input   66.30 | X-H torsion
[ 10763 10752 10751 10750 ] final   54.86 input  -60.55 | X-H torsion
[ 11005 11000 10999 10996 ] final   53.52 input  -57.11 | X-H torsion

> <Gold.Protein.ActiveResidues>
 VAL166  LYS551  ARG553  GLY616  TRP617  ASP618  TYR619  PRO620  LYS621  CYS622 
 ASP623  PHE694  ASN695  SER759  ASP760  ASP761  ALA762  ILE779  LEU786  VAL792 
 PHE793  MET794  SER795  GLU796  ALA797  LYS798  CYS799  TRP800  GLU811  SER814 

> <Gold.Protein.RotatedAtoms>
  151.0156  134.9430  159.8031 H   0  0  0  0  0  0  0  0  0  0  0  0  # atno 6907 bound_to 6896
  152.5313  134.2971  159.9074 H   0  0  0  0  0  0  0  0  0  0  0  0  # atno 6908 bound_to 6896
  151.2977  133.4094  159.2671 H   0  0  0  0  0  0  0  0  0  0  0  0  # atno 6909 bound_to 6896
  146.2088  139.8086  142.8705 H   0  0  0  0  0  0  0  0  0  0  0  0  # atno 7974 bound_to 7965
  156.2898  140.2225  156.5117 H   0  0  0  0  0  0  0  0  0  0  0  0  # atno 8008 bound_to 7997
  154.7603  140.0474  157.0989 H   0  0  0  0  0  0  0  0  0  0  0  0  # atno 8009 bound_to 7997
  155.0000  140.3100  155.4874 H   0  0  0  0  0  0  0  0  0  0  0  0  # atno 8010 bound_to 7997
  140.3137  143.3090  152.0121 H   0  0  0  0  0  0  0  0  0  0  0  0  # atno 10167 bound_to 10162
  157.1963  131.0666  151.2051 H   0  0  0  0  0  0  0  0  0  0  0  0  # atno 10718 bound_to 10713
  152.9809  135.5730  154.4973 H   0  0  0  0  0  0  0  0  0  0  0  0  # atno 10763 bound_to 10752
  154.4498  135.2778  155.1791 H   0  0  0  0  0  0  0  0  0  0  0  0  # atno 10764 bound_to 10752
  154.3424  135.6226  153.5656 H   0  0  0  0  0  0  0  0  0  0  0  0  # atno 10765 bound_to 10752
  140.0761  134.5403  155.8995 H   0  0  0  0  0  0  0  0  0  0  0  0  # atno 11005 bound_to 11000
  145.3220  141.0246  143.3495 LP  0  0  0  0  0  0  0  0  0  0  0  0  # atno 17320 bound_to 7965
  144.8860  139.4839  143.6700 LP  0  0  0  0  0  0  0  0  0  0  0  0  # atno 17321 bound_to 7965
  139.4888  144.6365  151.6965 LP  0  0  0  0  0  0  0  0  0  0  0  0  # atno 17342 bound_to 10162
  140.5545  144.0370  150.6142 LP  0  0  0  0  0  0  0  0  0  0  0  0  # atno 17343 bound_to 10162
  157.3811  130.7232  149.6631 LP  0  0  0  0  0  0  0  0  0  0  0  0  # atno 17370 bound_to 10713
  155.9705  130.4172  150.4268 LP  0  0  0  0  0  0  0  0  0  0  0  0  # atno 17371 bound_to 10713
  141.2030  133.6629  156.6036 LP  0  0  0  0  0  0  0  0  0  0  0  0  # atno 17394 bound_to 11000
  140.3556  134.7731  157.4498 LP  0  0  0  0  0  0  0  0  0  0  0  0  # atno 17395 bound_to 11000

$$$$
