AV-unprocessed.smi:2440|AV-procd|sdf|9618|dock2
  -GOLD-   2272013253D 1   1.00000     0.00000
 Structure written by MMmdl.
 53 55  0  0  0  0  0  0  0  0  3 V2000
  152.7976  140.7206  159.7440 C   0  0  0  0  0  0  0  0  0  0  0  0
  152.3686  142.1762  159.6769 C   0  0  0  0  0  0  0  0  0  0  0  0
  152.8128  143.0789  160.6679 C   0  0  0  0  0  0  0  0  0  0  0  0
  152.4377  144.3747  160.6225 N   0  3  0  0  0  0  0  0  0  0  0  0
  151.6344  144.8685  159.6575 C   0  0  0  0  0  0  0  0  0  0  0  0
  151.1566  144.0202  158.6393 C   0  0  0  0  0  0  0  0  0  0  0  0
  151.5348  142.6530  158.6327 C   0  0  0  0  0  0  0  0  0  0  0  0
  151.0745  141.7305  157.6507 N   0  0  0  0  0  0  0  0  0  0  0  0
  149.8821  141.6964  157.0312 C   0  0  0  0  0  0  0  0  0  0  0  0
  148.9710  142.5056  157.2042 O   0  0  0  0  0  0  0  0  0  0  0  0
  149.8111  140.6688  156.1721 N   0  0  0  0  0  0  0  0  0  0  0  0
  148.6642  140.3386  155.3292 C   0  0  2  0  0  0  0  0  0  0  0  0
  148.6486  141.2475  154.0864 C   0  0  0  0  0  0  0  0  0  0  0  0
  147.3638  141.0354  153.2626 C   0  0  0  0  0  0  0  0  0  0  0  0
  146.1383  141.2774  154.0777 N   0  3  2  0  0  0  0  0  0  0  0  0
  145.8679  142.7139  154.4337 C   0  0  0  0  0  0  0  0  0  0  0  0
  144.5490  142.8703  155.2386 C   0  0  0  0  0  0  0  0  0  0  0  0
  144.2118  144.3350  155.5589 C   0  0  0  0  0  0  0  0  0  0  0  0
  144.1416  145.1835  154.2862 C   0  0  0  0  0  0  0  0  0  0  0  0
  145.4590  145.0853  153.5120 C   0  0  0  0  0  0  0  0  0  0  0  0
  145.8060  143.6258  153.1779 C   0  0  0  0  0  0  0  0  0  0  0  0
  146.1235  140.3206  155.2224 C   0  0  0  0  0  0  0  0  0  0  0  0
  147.3576  140.4905  156.1307 C   0  0  0  0  0  0  0  0  0  0  0  0
  153.4364  140.5353  160.6082 H   0  0  0  0  0  0  0  0  0  0  0  0
  153.3558  140.4465  158.8483 H   0  0  0  0  0  0  0  0  0  0  0  0
  151.9275  140.0682  159.8228 H   0  0  0  0  0  0  0  0  0  0  0  0
  153.4530  142.8058  161.4942 H   0  0  0  0  0  0  0  0  0  0  0  0
  151.3937  145.9190  159.7311 H   0  0  0  0  0  0  0  0  0  0  0  0
  150.4981  144.4318  157.8896 H   0  0  0  0  0  0  0  0  0  0  0  0
  151.7581  141.0579  157.3353 H   0  0  0  0  0  0  0  0  0  0  0  0
  150.6158  140.0639  156.0942 H   0  0  0  0  0  0  0  0  0  0  0  0
  148.7291  139.3053  154.9829 H   0  0  0  0  0  0  0  0  0  0  0  0
  148.7344  142.2942  154.3801 H   0  0  0  0  0  0  0  0  0  0  0  0
  149.5200  141.0355  153.4652 H   0  0  0  0  0  0  0  0  0  0  0  0
  147.3791  141.6264  152.3495 H   0  0  0  0  0  0  0  0  0  0  0  0
  147.3383  140.0023  152.9132 H   0  0  0  0  0  0  0  0  0  0  0  0
  146.6826  143.0762  155.0607 H   0  0  0  0  0  0  0  0  0  0  0  0
  143.7237  142.4221  154.6838 H   0  0  0  0  0  0  0  0  0  0  0  0
  144.6050  142.3489  156.1924 H   0  0  0  0  0  0  0  0  0  0  0  0
  143.2617  144.3888  156.0913 H   0  0  0  0  0  0  0  0  0  0  0  0
  144.9657  144.7458  156.2319 H   0  0  0  0  0  0  0  0  0  0  0  0
  143.3159  144.8448  153.6589 H   0  0  0  0  0  0  0  0  0  0  0  0
  143.9339  146.2233  154.5405 H   0  0  0  0  0  0  0  0  0  0  0  0
  145.3922  145.6698  152.5939 H   0  0  0  0  0  0  0  0  0  0  0  0
  146.2638  145.5275  154.1009 H   0  0  0  0  0  0  0  0  0  0  0  0
  146.7636  143.6462  152.6602 H   0  0  0  0  0  0  0  0  0  0  0  0
  145.0737  143.2322  152.4717 H   0  0  0  0  0  0  0  0  0  0  0  0
  145.2033  140.3769  155.7991 H   0  0  0  0  0  0  0  0  0  0  0  0
  146.1255  139.3085  154.8150 H   0  0  0  0  0  0  0  0  0  0  0  0
  147.3279  139.7477  156.9290 H   0  0  0  0  0  0  0  0  0  0  0  0
  147.3259  141.4629  156.6232 H   0  0  0  0  0  0  0  0  0  0  0  0
  145.3640  141.0078  153.4873 H   0  0  0  0  0  0  0  0  0  0  0  0
  152.7712  145.0063  161.3513 H   0  0  0  0  0  0  0  0  0  0  0  0
  1  2  1  0  0  0  0
  1 24  1  0  0  0  0
  1 25  1  0  0  0  0
  1 26  1  0  0  0  0
  2  7  1  0  0  0  0
  2  3  2  0  0  0  0
  3  4  1  0  0  0  0
  3 27  1  0  0  0  0
  4  5  2  0  0  0  0
  4 53  1  0  0  0  0
  5  6  1  0  0  0  0
  5 28  1  0  0  0  0
  6  7  2  0  0  0  0
  6 29  1  0  0  0  0
  7  8  1  0  0  0  0
  8  9  1  0  0  0  0
  8 30  1  0  0  0  0
  9 10  2  0  0  0  0
  9 11  1  0  0  0  0
 11 12  1  0  0  0  0
 11 31  1  0  0  0  0
 12 23  1  0  0  0  0
 12 13  1  0  0  0  0
 12 32  1  0  0  0  0
 13 14  1  0  0  0  0
 13 33  1  0  0  0  0
 13 34  1  0  0  0  0
 14 15  1  0  0  0  0
 14 35  1  0  0  0  0
 14 36  1  0  0  0  0
 15 16  1  0  0  0  0
 15 22  1  0  0  0  0
 15 52  1  0  0  0  0
 16 21  1  0  0  0  0
 16 17  1  0  0  0  0
 16 37  1  0  0  0  0
 17 18  1  0  0  0  0
 17 38  1  0  0  0  0
 17 39  1  0  0  0  0
 18 19  1  0  0  0  0
 18 40  1  0  0  0  0
 18 41  1  0  0  0  0
 19 20  1  0  0  0  0
 19 42  1  0  0  0  0
 19 43  1  0  0  0  0
 20 21  1  0  0  0  0
 20 44  1  0  0  0  0
 20 45  1  0  0  0  0
 21 46  1  0  0  0  0
 21 47  1  0  0  0  0
 22 23  1  0  0  0  0
 22 48  1  0  0  0  0
 22 49  1  0  0  0  0
 23 50  1  0  0  0  0
 23 51  1  0  0  0  0
M  CHG  1   4   1
M  CHG  1  15   1
M  END
> <s_m_source_file>
AV-unprocessed.smi

> <i_m_source_file_index>
2440

> <i_lp_mmshare_version>
43012

> <i_f3d_flags>
0

> <s_epik_input>
W0NIM11jMVtjSF1uW2NIXVtjSF1jMVtOSF1DKD1PKVtOSF1bQ0hdMltDSDJdW0NIMl1OKFtDSDJdW0NIMl0yKVtDSF0zW0NIMl1bQ0gyXVtDSDJdW0NIMl1bQ0gyXTM=

> <s_epik_cmdline>
J2VwaWtfcHl0aG9uJywgJy1waCcsICc3LjAnLCAnLXRuJywgJzgnLCAnLW1hJywgJzIwMCcsICctbWV0YWxfYmluZGluZycsICctaW1hZScsICc8aW5maWxlLm1hZT4nLCAnLW9tYWUnLCAnPG91dGZpbGUubWFlPic=

> <r_epik_Ionization_Penalty>
0.799454

> <r_epik_Ionization_Penalty_Charging>
0.799436

> <r_epik_Ionization_Penalty_Neutral>
1.84398e-05

> <r_epik_State_Penalty>
0.81805

> <r_epik_Charging_Adjusted_Penalty>
1.61749

> <i_epik_Tot_Q>
2

> <i_epik_Tot_abs_Q>
2

> <r_epik_Metal_State_Penalty>
0.955144

> <b_epik_Metal_Only>
0

> <s_lp_Force_Field>
OPLS_2005

> <r_lp_Energy>
43.248

> <b_lp_Chiralities_Consistent>
1

> <s_lp_Variant>
AV-unprocessed.smi:2440-4

> <Gold.Version>
5.8.1

> <Gold.Id.Protein>
6NUR|6NUR_protein|mol2

> <Gold.PLP.Fitness>
43.7968

> <Gold.PLP.PLP>
-38.8628

> <Gold.PLP.part.hbond>
-0.9744

> <Gold.PLP.part.metal>
0.0000

> <Gold.PLP.part.buried>
-7.7410

> <Gold.PLP.part.nonpolar>
-31.7411

> <Gold.PLP.part.repulsive>
1.5677

> <Gold.PLP.ligand.clash>
0.0000

> <Gold.PLP.ligand.torsion>
0.5309

> <Gold.PLP.Chemscore.Hbond>
1.9825

> <Gold.PLP.Chemscore.CHOScore>
0.0000

> <Gold.PLP.Chemscore.Metal>
0.0000

> <Gold.Chemscore.Hbonds>
donor molecule, donor type, donor heavy atom, donor atom, acceptor molecule, acceptor atom, score
      L1  H    15    52       P1 10175  2.00

> <Gold.PLP.Chemscore.Internal.Correction>
0.0483

> <Gold.Rescore>
     Score         DG    S(hbond)    S(metal)    S(lipo)     H(rot)  DE(clash)    DE(int)     intcor
     15.13     -18.87       0.98        0.00     112.25       1.18       1.04       2.69       ----

> <Gold.Chemscore.Fitness>
15.1301

> <Gold.Chemscore.DG>
-18.8660

> <Gold.Chemscore.ZeroCoef>
-5.4800

> <Gold.Chemscore.Hbond>
0.9836

> <Gold.Chemscore.Metal>
0.0000

> <Gold.Chemscore.Lipo>
112.2501

> <Gold.Chemscore.Internal_Hbond>
0.0000

> <Gold.Chemscore.DEClash>
1.0446

> <Gold.Chemscore.DEInternal>
2.6914

> <Gold.Chemscore.Rot>
1.1846

> <Gold.Chemscore.Internal.Correction>
   9.000000E+99

> <Gold.Chemscore.Hbonds>
donor molecule, donor type, donor heavy atom, donor atom, acceptor molecule, acceptor atom, score
      L1  H    15    52       P1 10175  0.57

> <Gold.Chemscore.Hbond.Weighted>
-3.2853

> <Gold.Chemscore.Metal.Weighted>
-0.0000

> <Gold.Chemscore.Lipo.Weighted>
-13.1333

> <Gold.Chemscore.Internal_Hbond.Weighted>
0.0000

> <Gold.Chemscore.DEClash.Weighted>
1.0446

> <Gold.Chemscore.DEInternal.Weighted>
2.6914

> <Gold.Chemscore.Rot.Weighted>
3.0326

> <Gold.Chemscore.Internal.Correction.Weighted>
   9.000000E+99

> <Gold.Protein.RotatedTorsions>
[ 6907 6896 6895 6894 ] final  -94.78 input  -60.11 | X-H torsion
[ 7974 7965 7964 7962 ] final  -50.64 input  175.53 | X-H torsion
[ 8008 7997 7996 7995 ] final -106.28 input   59.86 | X-H torsion
[ 10167 10162 10161 10158 ] final   38.63 input  -65.29 | X-H torsion
[ 10718 10713 10712 10709 ] final  -13.33 input   66.30 | X-H torsion
[ 10763 10752 10751 10750 ] final   38.24 input  -60.55 | X-H torsion
[ 11005 11000 10999 10996 ] final  172.40 input  -57.11 | X-H torsion

> <Gold.Protein.ActiveResidues>
 VAL166  LYS551  ARG553  GLY616  TRP617  ASP618  TYR619  PRO620  LYS621  CYS622 
 ASP623  PHE694  ASN695  SER759  ASP760  ASP761  ALA762  ILE779  LEU786  VAL792 
 PHE793  MET794  SER795  GLU796  ALA797  LYS798  CYS799  TRP800  GLU811  SER814 

> <Gold.Protein.RotatedAtoms>
  150.6949  134.1759  159.4229 H   0  0  0  0  0  0  0  0  0  0  0  0  # atno 6907 bound_to 6896
  151.9736  135.0062  160.0563 H   0  0  0  0  0  0  0  0  0  0  0  0  # atno 6908 bound_to 6896
  152.1819  133.4678  159.4999 H   0  0  0  0  0  0  0  0  0  0  0  0  # atno 6909 bound_to 6896
  145.9277  140.7778  142.9615 H   0  0  0  0  0  0  0  0  0  0  0  0  # atno 7974 bound_to 7965
  154.9122  140.0409  157.1952 H   0  0  0  0  0  0  0  0  0  0  0  0  # atno 8008 bound_to 7997
  154.8337  140.2903  155.5684 H   0  0  0  0  0  0  0  0  0  0  0  0  # atno 8009 bound_to 7997
  156.2988  140.2496  156.3267 H   0  0  0  0  0  0  0  0  0  0  0  0  # atno 8010 bound_to 7997
  140.3918  144.1842  150.6131 H   0  0  0  0  0  0  0  0  0  0  0  0  # atno 10167 bound_to 10162
  156.6318  130.4904  149.6126 H   0  0  0  0  0  0  0  0  0  0  0  0  # atno 10718 bound_to 10713
  153.0008  135.6255  154.2273 H   0  0  0  0  0  0  0  0  0  0  0  0  # atno 10763 bound_to 10752
  154.2015  135.2804  155.2991 H   0  0  0  0  0  0  0  0  0  0  0  0  # atno 10764 bound_to 10752
  154.5680  135.5685  153.7127 H   0  0  0  0  0  0  0  0  0  0  0  0  # atno 10765 bound_to 10752
  140.3293  134.7371  157.4122 H   0  0  0  0  0  0  0  0  0  0  0  0  # atno 11005 bound_to 11000
  144.6760  140.2076  143.7380 LP  0  0  0  0  0  0  0  0  0  0  0  0  # atno 17320 bound_to 7965
  145.8467  139.2156  143.1795 LP  0  0  0  0  0  0  0  0  0  0  0  0  # atno 17321 bound_to 7965
  140.4832  143.2372  151.8926 LP  0  0  0  0  0  0  0  0  0  0  0  0  # atno 17342 bound_to 10162
  139.4788  144.5247  151.8752 LP  0  0  0  0  0  0  0  0  0  0  0  0  # atno 17343 bound_to 10162
  156.2228  130.6747  151.1386 LP  0  0  0  0  0  0  0  0  0  0  0  0  # atno 17370 bound_to 10713
  157.7197  131.0689  150.6184 LP  0  0  0  0  0  0  0  0  0  0  0  0  # atno 17371 bound_to 10713
  140.0875  134.5647  155.8478 LP  0  0  0  0  0  0  0  0  0  0  0  0  # atno 17394 bound_to 11000
  141.2067  133.6658  156.6261 LP  0  0  0  0  0  0  0  0  0  0  0  0  # atno 17395 bound_to 11000

$$$$
