AV-unprocessed.smi:1254|AV-procd|sdf|5271|dock10
  -GOLD-   22720 4383D 1   1.00000     0.00000
 Structure written by MMmdl.
 46 47  0  0  0  0  0  0  0  0  2 V2000
  151.6279  140.3918  158.1267 C   0  0  0  0  0  0  0  0  0  0  0  0
  151.3101  139.9362  156.7440 C   0  0  0  0  0  0  0  0  0  0  0  0
  150.1538  139.5257  156.1421 C   0  0  0  0  0  0  0  0  0  0  0  0
  150.5701  139.2354  154.8155 C   0  0  0  0  0  0  0  0  0  0  0  0
  149.6462  138.7633  153.8486 N   0  0  0  0  0  0  0  0  0  0  0  0
  148.3166  138.9563  153.8255 C   0  0  0  0  0  0  0  0  0  0  0  0
  147.6729  139.5745  154.6741 O   0  0  0  0  0  0  0  0  0  0  0  0
  147.7593  138.3919  152.7447 N   0  0  0  0  0  0  0  0  0  0  0  0
  146.3373  138.4355  152.4208 C   0  0  0  0  0  0  0  0  0  0  0  0
  145.7595  137.0287  152.1828 C   0  0  2  0  0  0  0  0  0  0  0  0
  145.9755  136.5552  150.7307 C   0  0  0  0  0  0  0  0  0  0  0  0
  145.3594  135.2252  150.5016 N   0  3  1  0  0  0  0  0  0  0  0  0
  146.1520  134.0971  151.0616 C   0  0  0  0  0  0  0  0  0  0  0  0
  145.4408  132.7337  150.9242 C   0  0  0  0  0  0  0  0  0  0  0  0
  146.2413  131.6350  151.6394 C   0  0  0  0  0  0  0  0  0  0  0  0
  145.2073  132.3542  149.4523 C   0  0  0  0  0  0  0  0  0  0  0  0
  143.9295  135.2409  150.9039 C   0  0  0  0  0  0  0  0  0  0  0  0
  143.7495  135.7886  152.3331 C   0  0  0  0  0  0  0  0  0  0  0  0
  144.3588  137.0693  152.4382 O   0  0  0  0  0  0  0  0  0  0  0  0
  151.8627  139.4500  154.6245 N   0  0  0  0  0  0  0  0  0  0  0  0
  152.3434  139.9009  155.8594 O   0  0  0  0  0  0  0  0  0  0  0  0
  150.7386  140.3751  158.7570 H   0  0  0  0  0  0  0  0  0  0  0  0
  152.0172  141.4098  158.1182 H   0  0  0  0  0  0  0  0  0  0  0  0
  152.3778  139.7458  158.5836 H   0  0  0  0  0  0  0  0  0  0  0  0
  149.1716  139.4454  156.5836 H   0  0  0  0  0  0  0  0  0  0  0  0
  150.0424  138.2319  153.0877 H   0  0  0  0  0  0  0  0  0  0  0  0
  148.3596  137.9035  152.0963 H   0  0  0  0  0  0  0  0  0  0  0  0
  145.8117  138.9239  153.2417 H   0  0  0  0  0  0  0  0  0  0  0  0
  146.1854  139.0617  151.5401 H   0  0  0  0  0  0  0  0  0  0  0  0
  146.2349  136.3259  152.8689 H   0  0  0  0  0  0  0  0  0  0  0  0
  145.5181  137.2680  150.0431 H   0  0  0  0  0  0  0  0  0  0  0  0
  147.0371  136.5308  150.4819 H   0  0  0  0  0  0  0  0  0  0  0  0
  147.1087  134.0323  150.5413 H   0  0  0  0  0  0  0  0  0  0  0  0
  146.3944  134.2952  152.1057 H   0  0  0  0  0  0  0  0  0  0  0  0
  144.4693  132.7841  151.4150 H   0  0  0  0  0  0  0  0  0  0  0  0
  147.2317  131.5144  151.1989 H   0  0  0  0  0  0  0  0  0  0  0  0
  145.7314  130.6731  151.5792 H   0  0  0  0  0  0  0  0  0  0  0  0
  146.3741  131.8688  152.6962 H   0  0  0  0  0  0  0  0  0  0  0  0
  146.1486  132.2850  148.9060 H   0  0  0  0  0  0  0  0  0  0  0  0
  144.5803  133.0872  148.9443 H   0  0  0  0  0  0  0  0  0  0  0  0
  144.7061  131.3891  149.3717 H   0  0  0  0  0  0  0  0  0  0  0  0
  143.3906  135.8838  150.2066 H   0  0  0  0  0  0  0  0  0  0  0  0
  143.4800  134.2531  150.8122 H   0  0  0  0  0  0  0  0  0  0  0  0
  142.6884  135.8872  152.5622 H   0  0  0  0  0  0  0  0  0  0  0  0
  144.1675  135.1113  153.0786 H   0  0  0  0  0  0  0  0  0  0  0  0
  145.3772  135.0838  149.5015 H   0  0  0  0  0  0  0  0  0  0  0  0
  1  2  1  0  0  0  0
  1 22  1  0  0  0  0
  1 23  1  0  0  0  0
  1 24  1  0  0  0  0
  2 21  1  0  0  0  0
  2  3  2  0  0  0  0
  3  4  1  0  0  0  0
  3 25  1  0  0  0  0
  4  5  1  0  0  0  0
  4 20  2  0  0  0  0
  5  6  1  0  0  0  0
  5 26  1  0  0  0  0
  6  7  2  0  0  0  0
  6  8  1  0  0  0  0
  8  9  1  0  0  0  0
  8 27  1  0  0  0  0
  9 10  1  0  0  0  0
  9 28  1  0  0  0  0
  9 29  1  0  0  0  0
 10 19  1  0  0  0  0
 10 11  1  0  0  0  0
 10 30  1  0  0  0  0
 11 12  1  0  0  0  0
 11 31  1  0  0  0  0
 11 32  1  0  0  0  0
 12 13  1  0  0  0  0
 12 17  1  0  0  0  0
 12 46  1  0  0  0  0
 13 14  1  0  0  0  0
 13 33  1  0  0  0  0
 13 34  1  0  0  0  0
 14 15  1  0  0  0  0
 14 16  1  0  0  0  0
 14 35  1  0  0  0  0
 15 36  1  0  0  0  0
 15 37  1  0  0  0  0
 15 38  1  0  0  0  0
 16 39  1  0  0  0  0
 16 40  1  0  0  0  0
 16 41  1  0  0  0  0
 17 18  1  0  0  0  0
 17 42  1  0  0  0  0
 17 43  1  0  0  0  0
 18 19  1  0  0  0  0
 18 44  1  0  0  0  0
 18 45  1  0  0  0  0
 20 21  1  0  0  0  0
M  CHG  1  12   1
M  END
> <s_m_source_file>
AV-unprocessed.smi

> <i_m_source_file_index>
1254

> <i_lp_mmshare_version>
43012

> <i_f3d_flags>
0

> <s_epik_input>
W0NIM11jMVtjSF1jKG5vMSlbTkhdQyg9TylbTkhdW0NIMl1bQ0BASF0yW0NIMl1OKFtDSDJdW0NIMl1PMilbQ0gyXVtDSF0oW0NIM10pW0NIM10=

> <s_epik_cmdline>
J2VwaWtfcHl0aG9uJywgJy1waCcsICc3LjAnLCAnLXRuJywgJzgnLCAnLW1hJywgJzIwMCcsICctbWV0YWxfYmluZGluZycsICctaW1hZScsICc8aW5maWxlLm1hZT4nLCAnLW9tYWUnLCAnPG91dGZpbGUubWFlPic=

> <r_epik_Ionization_Penalty>
0.0986825

> <r_epik_Ionization_Penalty_Charging>
0.0986478

> <r_epik_Ionization_Penalty_Neutral>
3.46838e-05

> <r_epik_State_Penalty>
0.0887259

> <r_epik_Charging_Adjusted_Penalty>
0.187374

> <i_epik_Tot_Q>
1

> <i_epik_Tot_abs_Q>
1

> <r_epik_Metal_State_Penalty>
0.103424

> <b_epik_Metal_Only>
0

> <s_lp_Force_Field>
OPLS_2005

> <r_lp_Energy>
16.7856

> <b_lp_Chiralities_Consistent>
1

> <s_lp_Variant>
AV-unprocessed.smi:1254-3

> <Gold.Version>
5.8.1

> <Gold.Id.Protein>
6NUR|6NUR_protein|mol2

> <Gold.PLP.Fitness>
44.6398

> <Gold.PLP.PLP>
-35.0494

> <Gold.PLP.part.hbond>
-6.3236

> <Gold.PLP.part.metal>
0.0000

> <Gold.PLP.part.buried>
-2.0658

> <Gold.PLP.part.nonpolar>
-28.5766

> <Gold.PLP.part.repulsive>
1.2254

> <Gold.PLP.ligand.clash>
0.0000

> <Gold.PLP.ligand.torsion>
0.4854

> <Gold.PLP.Chemscore.Hbond>
3.5040

> <Gold.PLP.Chemscore.CHOScore>
0.0000

> <Gold.PLP.Chemscore.Metal>
0.0000

> <Gold.Chemscore.Hbonds>
donor molecule, donor type, donor heavy atom, donor atom, acceptor molecule, acceptor atom, score
      L1  H     8    27       P1  7948  0.78
      L1  H    12    46       P1  7921  1.00
      P1  H  7989  7998       L1    20  0.79
      P1  H  7997  8010       L1    21  0.94

> <Gold.PLP.Chemscore.Internal.Correction>
0.0492

> <Gold.Rescore>
     Score         DG    S(hbond)    S(metal)    S(lipo)     H(rot)  DE(clash)    DE(int)     intcor
     16.97     -19.20       2.76        0.00      76.23       1.73       0.48       1.75       ----

> <Gold.Chemscore.Fitness>
16.9682

> <Gold.Chemscore.DG>
-19.1982

> <Gold.Chemscore.ZeroCoef>
-5.4800

> <Gold.Chemscore.Hbond>
2.7623

> <Gold.Chemscore.Metal>
0.0000

> <Gold.Chemscore.Lipo>
76.2288

> <Gold.Chemscore.Internal_Hbond>
0.0000

> <Gold.Chemscore.DEClash>
0.4754

> <Gold.Chemscore.DEInternal>
1.7546

> <Gold.Chemscore.Rot>
1.7291

> <Gold.Chemscore.Internal.Correction>
   9.000000E+99

> <Gold.Chemscore.Hbonds>
donor molecule, donor type, donor heavy atom, donor atom, acceptor molecule, acceptor atom, score
      L1  H     8    27       P1  7948  0.78
      L1  H    12    46       P1  7921  0.93
      P1  H  7989  7998       L1    20  0.08
      P1  H  7997  8010       L1    21  0.89

> <Gold.Chemscore.Hbond.Weighted>
-9.2259

> <Gold.Chemscore.Metal.Weighted>
-0.0000

> <Gold.Chemscore.Lipo.Weighted>
-8.9188

> <Gold.Chemscore.Internal_Hbond.Weighted>
0.0000

> <Gold.Chemscore.DEClash.Weighted>
0.4754

> <Gold.Chemscore.DEInternal.Weighted>
1.7546

> <Gold.Chemscore.Rot.Weighted>
4.4265

> <Gold.Chemscore.Internal.Correction.Weighted>
   9.000000E+99

> <Gold.Protein.RotatedTorsions>
[ 6907 6896 6895 6894 ] final   65.92 input  -60.11 | X-H torsion
[ 7974 7965 7964 7962 ] final -142.48 input  175.53 | X-H torsion
[ 8008 7997 7996 7995 ] final   78.25 input   59.86 | X-H torsion
[ 10167 10162 10161 10158 ] final -172.83 input  -65.29 | X-H torsion
[ 10718 10713 10712 10709 ] final   43.20 input   66.30 | X-H torsion
[ 10763 10752 10751 10750 ] final -134.94 input  -60.55 | X-H torsion
[ 11005 11000 10999 10996 ] final -163.07 input  -57.11 | X-H torsion

> <Gold.Protein.ActiveResidues>
 VAL166  LYS551  ARG553  GLY616  TRP617  ASP618  TYR619  PRO620  LYS621  CYS622 
 ASP623  PHE694  ASN695  SER759  ASP760  ASP761  ALA762  ILE779  LEU786  VAL792 
 PHE793  MET794  SER795  GLU796  ALA797  LYS798  CYS799  TRP800  GLU811  SER814 

> <Gold.Protein.RotatedAtoms>
  152.4443  134.5527  159.9871 H   0  0  0  0  0  0  0  0  0  0  0  0  # atno 6907 bound_to 6896
  151.5616  133.3396  159.2980 H   0  0  0  0  0  0  0  0  0  0  0  0  # atno 6908 bound_to 6896
  150.8356  134.7660  159.6953 H   0  0  0  0  0  0  0  0  0  0  0  0  # atno 6909 bound_to 6896
  144.8440  140.5953  143.5433 H   0  0  0  0  0  0  0  0  0  0  0  0  # atno 7974 bound_to 7965
  155.8530  140.3457  155.5706 H   0  0  0  0  0  0  0  0  0  0  0  0  # atno 8008 bound_to 7997
  155.8017  140.0886  157.1973 H   0  0  0  0  0  0  0  0  0  0  0  0  # atno 8009 bound_to 7997
  154.4008  140.1464  156.3269 H   0  0  0  0  0  0  0  0  0  0  0  0  # atno 8010 bound_to 7997
  139.5722  144.1615  152.1400 H   0  0  0  0  0  0  0  0  0  0  0  0  # atno 10167 bound_to 10162
  157.4133  130.7927  149.7449 H   0  0  0  0  0  0  0  0  0  0  0  0  # atno 10718 bound_to 10713
  154.8711  135.3719  154.4817 H   0  0  0  0  0  0  0  0  0  0  0  0  # atno 10763 bound_to 10752
  153.5470  135.7025  153.5614 H   0  0  0  0  0  0  0  0  0  0  0  0  # atno 10764 bound_to 10752
  153.3750  135.4011  155.1780 H   0  0  0  0  0  0  0  0  0  0  0  0  # atno 10765 bound_to 10752
  140.6022  134.4936  157.5206 H   0  0  0  0  0  0  0  0  0  0  0  0  # atno 11005 bound_to 11000
  145.4635  139.1510  143.3853 LP  0  0  0  0  0  0  0  0  0  0  0  0  # atno 17320 bound_to 7965
  146.2728  140.4765  142.8807 LP  0  0  0  0  0  0  0  0  0  0  0  0  # atno 17321 bound_to 7965
  140.1150  144.5424  150.6900 LP  0  0  0  0  0  0  0  0  0  0  0  0  # atno 17342 bound_to 10162
  140.7006  143.2432  151.4874 LP  0  0  0  0  0  0  0  0  0  0  0  0  # atno 17343 bound_to 10162
  155.9857  130.3980  150.3247 LP  0  0  0  0  0  0  0  0  0  0  0  0  # atno 17370 bound_to 10713
  157.1388  131.0291  151.2937 LP  0  0  0  0  0  0  0  0  0  0  0  0  # atno 17371 bound_to 10713
  139.9227  134.8116  156.1160 LP  0  0  0  0  0  0  0  0  0  0  0  0  # atno 17394 bound_to 11000
  141.0864  133.6732  156.2446 LP  0  0  0  0  0  0  0  0  0  0  0  0  # atno 17395 bound_to 11000

$$$$
