AV-unprocessed.smi:1751|AV-procd|sdf|7056|dock2
  -GOLD-   22720 8273D 1   1.00000     0.00000
 Structure written by MMmdl.
 35 36  0  0  0  0  0  0  0  0  1 V2000
  152.4199  140.5285  158.3450 C   0  0  0  0  0  0  0  0  0  0  0  0
  152.3745  140.5341  156.9223 O   0  0  0  0  0  0  0  0  0  0  0  0
  151.7259  139.4969  156.2837 C   0  0  0  0  0  0  0  0  0  0  0  0
  151.4531  138.3222  157.0121 C   0  0  0  0  0  0  0  0  0  0  0  0
  150.7944  137.2605  156.3641 C   0  0  0  0  0  0  0  0  0  0  0  0
  150.4371  137.3981  155.0079 C   0  0  0  0  0  0  0  0  0  0  0  0
  149.7604  136.3166  154.3825 N   0  0  0  0  0  0  0  0  0  0  0  0
  149.4807  135.1039  154.8896 C   0  0  0  0  0  0  0  0  0  0  0  0
  149.7668  134.7228  156.0246 O   0  0  0  0  0  0  0  0  0  0  0  0
  148.8164  134.3498  154.0033 N   0  0  0  0  0  0  0  0  0  0  0  0
  148.3221  133.0012  154.2567 C   0  0  0  0  0  0  0  0  0  0  0  0
  147.7870  132.3464  152.9724 C   0  0  2  0  0  0  0  0  0  0  0  0
  146.6991  133.1597  152.2739 C   0  0  0  0  0  0  0  0  0  0  0  0
  145.9717  132.0867  151.4971 C   0  0  0  0  0  0  0  0  0  0  0  0
  145.9958  130.9211  152.4814 C   0  0  0  0  0  0  0  0  0  0  0  0
  147.1746  131.0920  153.2648 O   0  0  0  0  0  0  0  0  0  0  0  0
  150.7421  138.6233  154.3667 C   0  0  0  0  0  0  0  0  0  0  0  0
  151.3715  139.6463  154.9834 N   0  0  0  0  0  0  0  0  0  0  0  0
  152.9616  141.4081  158.6922 H   0  0  0  0  0  0  0  0  0  0  0  0
  152.9413  139.6484  158.7242 H   0  0  0  0  0  0  0  0  0  0  0  0
  151.4185  140.5655  158.7765 H   0  0  0  0  0  0  0  0  0  0  0  0
  151.7443  138.2373  158.0485 H   0  0  0  0  0  0  0  0  0  0  0  0
  150.5730  136.3508  156.9031 H   0  0  0  0  0  0  0  0  0  0  0  0
  149.3858  136.5115  153.4654 H   0  0  0  0  0  0  0  0  0  0  0  0
  148.6156  134.7440  153.0958 H   0  0  0  0  0  0  0  0  0  0  0  0
  149.1381  132.4066  154.6685 H   0  0  0  0  0  0  0  0  0  0  0  0
  147.5430  133.0291  155.0203 H   0  0  0  0  0  0  0  0  0  0  0  0
  148.5986  132.1670  152.2654 H   0  0  0  0  0  0  0  0  0  0  0  0
  146.0258  133.6131  153.0029 H   0  0  0  0  0  0  0  0  0  0  0  0
  147.1007  133.9502  151.6392 H   0  0  0  0  0  0  0  0  0  0  0  0
  144.9630  132.3763  151.2021 H   0  0  0  0  0  0  0  0  0  0  0  0
  146.5327  131.8316  150.5970 H   0  0  0  0  0  0  0  0  0  0  0  0
  145.1319  130.9653  153.1457 H   0  0  0  0  0  0  0  0  0  0  0  0
  145.9875  129.9538  151.9786 H   0  0  0  0  0  0  0  0  0  0  0  0
  150.4656  138.8165  153.3420 H   0  0  0  0  0  0  0  0  0  0  0  0
  1  2  1  0  0  0  0
  1 19  1  0  0  0  0
  1 20  1  0  0  0  0
  1 21  1  0  0  0  0
  2  3  1  0  0  0  0
  3 18  1  0  0  0  0
  3  4  2  0  0  0  0
  4  5  1  0  0  0  0
  4 22  1  0  0  0  0
  5  6  2  0  0  0  0
  5 23  1  0  0  0  0
  6  7  1  0  0  0  0
  6 17  1  0  0  0  0
  7  8  1  0  0  0  0
  7 24  1  0  0  0  0
  8  9  2  0  0  0  0
  8 10  1  0  0  0  0
 10 11  1  0  0  0  0
 10 25  1  0  0  0  0
 11 12  1  0  0  0  0
 11 26  1  0  0  0  0
 11 27  1  0  0  0  0
 12 16  1  0  0  0  0
 12 13  1  0  0  0  0
 12 28  1  0  0  0  0
 13 14  1  0  0  0  0
 13 29  1  0  0  0  0
 13 30  1  0  0  0  0
 14 15  1  0  0  0  0
 14 31  1  0  0  0  0
 14 32  1  0  0  0  0
 15 16  1  0  0  0  0
 15 33  1  0  0  0  0
 15 34  1  0  0  0  0
 17 18  2  0  0  0  0
 17 35  1  0  0  0  0
M  END
> <s_m_source_file>
AV-unprocessed.smi

> <i_m_source_file_index>
1751

> <i_lp_mmshare_version>
43012

> <i_f3d_flags>
0

> <s_epik_input>
W0NIM11PYzFbY0hdW2NIXWMoW2NIXW4xKVtOSF1DKD1PKVtOSF1bQ0gyXVtDQEBIXTJbQ0gyXVtDSDJdW0NIMl1PMg==

> <s_epik_cmdline>
J2VwaWtfcHl0aG9uJywgJy1waCcsICc3LjAnLCAnLXRuJywgJzgnLCAnLW1hJywgJzIwMCcsICctbWV0YWxfYmluZGluZycsICctaW1hZScsICc8aW5maWxlLm1hZT4nLCAnLW9tYWUnLCAnPG91dGZpbGUubWFlPic=

> <r_lp_tautomer_probability>
1

> <r_epik_Ionization_Penalty>
9.01694e-05

> <r_epik_Ionization_Penalty_Charging>
0

> <r_epik_Ionization_Penalty_Neutral>
9.01694e-05

> <r_epik_State_Penalty>
-0

> <r_epik_Charging_Adjusted_Penalty>
0

> <i_epik_Tot_Q>
0

> <i_epik_Tot_abs_Q>
0

> <r_epik_Metal_State_Penalty>
-0

> <b_epik_Metal_Only>
0

> <s_lp_Force_Field>
OPLS_2005

> <r_lp_Energy>
19.4373

> <b_lp_Chiralities_Consistent>
1

> <s_lp_Variant>
AV-unprocessed.smi:1751-1

> <Gold.Version>
5.8.1

> <Gold.Id.Protein>
6NUR|6NUR_protein|mol2

> <Gold.PLP.Fitness>
38.5171

> <Gold.PLP.PLP>
-25.1757

> <Gold.PLP.part.hbond>
-4.5831

> <Gold.PLP.part.metal>
0.0000

> <Gold.PLP.part.buried>
0.5445

> <Gold.PLP.part.nonpolar>
-20.6408

> <Gold.PLP.part.repulsive>
0.2275

> <Gold.PLP.ligand.clash>
0.0000

> <Gold.PLP.ligand.torsion>
0.2701

> <Gold.PLP.Chemscore.Hbond>
3.8240

> <Gold.PLP.Chemscore.CHOScore>
0.7992

> <Gold.PLP.Chemscore.Metal>
0.0000

> <Gold.Chemscore.Hbonds>
donor molecule, donor type, donor heavy atom, donor atom, acceptor molecule, acceptor atom, score
      L1  H     7    24       P1  7948  1.00
      L1  H    10    25       P1  7948  0.93
      P1  H  7989  7998       L1    18  1.00
      P1  H  7997  8010       L1     2  0.83
      L1  C    17    35       P1  7957  0.76

> <Gold.PLP.Chemscore.Internal.Correction>
0.0120

> <Gold.Rescore>
     Score         DG    S(hbond)    S(metal)    S(lipo)     H(rot)  DE(clash)    DE(int)     intcor
     13.52     -15.33       2.10        0.00      56.93       1.50       0.12       1.70       ----

> <Gold.Chemscore.Fitness>
13.5174

> <Gold.Chemscore.DG>
-15.3339

> <Gold.Chemscore.ZeroCoef>
-5.4800

> <Gold.Chemscore.Hbond>
2.1034

> <Gold.Chemscore.Metal>
0.0000

> <Gold.Chemscore.Lipo>
56.9326

> <Gold.Chemscore.Internal_Hbond>
0.0000

> <Gold.Chemscore.DEClash>
0.1209

> <Gold.Chemscore.DEInternal>
1.6956

> <Gold.Chemscore.Rot>
1.4971

> <Gold.Chemscore.Internal.Correction>
   9.000000E+99

> <Gold.Chemscore.Hbonds>
donor molecule, donor type, donor heavy atom, donor atom, acceptor molecule, acceptor atom, score
      L1  H     7    24       P1  7948  0.84
      L1  H    10    25       P1  7948  0.31
      P1  H  7989  7998       L1    18  0.30
      P1  H  7997  8010       L1     2  0.08

> <Gold.Chemscore.Hbond.Weighted>
-7.0253

> <Gold.Chemscore.Metal.Weighted>
-0.0000

> <Gold.Chemscore.Lipo.Weighted>
-6.6611

> <Gold.Chemscore.Internal_Hbond.Weighted>
0.0000

> <Gold.Chemscore.DEClash.Weighted>
0.1209

> <Gold.Chemscore.DEInternal.Weighted>
1.6956

> <Gold.Chemscore.Rot.Weighted>
3.8326

> <Gold.Chemscore.Internal.Correction.Weighted>
   9.000000E+99

> <Gold.Protein.RotatedTorsions>
[ 6907 6896 6895 6894 ] final   49.58 input  -60.11 | X-H torsion
[ 7974 7965 7964 7962 ] final  -25.82 input  175.53 | X-H torsion
[ 8008 7997 7996 7995 ] final   70.97 input   59.86 | X-H torsion
[ 10167 10162 10161 10158 ] final   67.54 input  -65.29 | X-H torsion
[ 10718 10713 10712 10709 ] final  -58.83 input   66.30 | X-H torsion
[ 10763 10752 10751 10750 ] final  -80.70 input  -60.55 | X-H torsion
[ 11005 11000 10999 10996 ] final  132.39 input  -57.11 | X-H torsion

> <Gold.Protein.ActiveResidues>
 VAL166  LYS551  ARG553  GLY616  TRP617  ASP618  TYR619  PRO620  LYS621  CYS622 
 ASP623  PHE694  ASN695  SER759  ASP760  ASP761  ALA762  ILE779  LEU786  VAL792 
 PHE793  MET794  SER795  GLU796  ALA797  LYS798  CYS799  TRP800  GLU811  SER814 

> <Gold.Protein.RotatedAtoms>
  152.2923  134.7707  160.0374 H   0  0  0  0  0  0  0  0  0  0  0  0  # atno 6907 bound_to 6896
  151.8248  133.3394  159.3603 H   0  0  0  0  0  0  0  0  0  0  0  0  # atno 6908 bound_to 6896
  150.7236  134.5468  159.5819 H   0  0  0  0  0  0  0  0  0  0  0  0  # atno 6909 bound_to 6896
  146.1466  140.4937  142.8629 H   0  0  0  0  0  0  0  0  0  0  0  0  # atno 7974 bound_to 7965
  155.7469  140.3489  155.5131 H   0  0  0  0  0  0  0  0  0  0  0  0  # atno 8008 bound_to 7997
  155.9042  140.1039  157.1349 H   0  0  0  0  0  0  0  0  0  0  0  0  # atno 8009 bound_to 7997
  154.4047  140.1280  156.4461 H   0  0  0  0  0  0  0  0  0  0  0  0  # atno 8010 bound_to 7997
  140.0884  144.5010  150.7115 H   0  0  0  0  0  0  0  0  0  0  0  0  # atno 10167 bound_to 10162
  156.1106  130.4175  150.0631 H   0  0  0  0  0  0  0  0  0  0  0  0  # atno 10718 bound_to 10713
  154.5545  135.5652  153.6951 H   0  0  0  0  0  0  0  0  0  0  0  0  # atno 10763 bound_to 10752
  152.9999  135.6259  154.2329 H   0  0  0  0  0  0  0  0  0  0  0  0  # atno 10764 bound_to 10752
  154.2265  135.2867  155.2885 H   0  0  0  0  0  0  0  0  0  0  0  0  # atno 10765 bound_to 10752
  139.9787  134.9555  156.9576 H   0  0  0  0  0  0  0  0  0  0  0  0  # atno 11005 bound_to 11000
  144.7854  140.5925  143.6577 LP  0  0  0  0  0  0  0  0  0  0  0  0  # atno 17320 bound_to 7965
  145.4923  139.1488  143.3703 LP  0  0  0  0  0  0  0  0  0  0  0  0  # atno 17321 bound_to 7965
  140.7041  143.2455  151.4777 LP  0  0  0  0  0  0  0  0  0  0  0  0  # atno 17342 bound_to 10162
  139.5739  144.1865  152.1875 LP  0  0  0  0  0  0  0  0  0  0  0  0  # atno 17343 bound_to 10162
  156.8596  130.9487  151.3619 LP  0  0  0  0  0  0  0  0  0  0  0  0  # atno 17370 bound_to 10713
  157.6287  130.8712  149.9234 LP  0  0  0  0  0  0  0  0  0  0  0  0  # atno 17371 bound_to 10713
  140.5140  134.0973  155.7276 LP  0  0  0  0  0  0  0  0  0  0  0  0  # atno 17394 bound_to 11000
  141.1462  133.9051  157.2210 LP  0  0  0  0  0  0  0  0  0  0  0  0  # atno 17395 bound_to 11000

$$$$
