AV-unprocessed.smi:1046|AV-procd|sdf|4551|dock8
  -GOLD-   22720 2583D 1   1.00000     0.00000
 Structure written by MMmdl.
 53 55  0  0  0  0  0  0  0  0  2 V2000
  153.4830  142.5804  162.1351 C   0  0  0  0  0  0  0  0  0  0  0  0
  152.8612  142.1706  160.8116 C   0  0  0  0  0  0  0  0  0  0  0  0
  151.9091  143.0224  160.2071 C   0  0  0  0  0  0  0  0  0  0  0  0
  151.3076  142.6785  158.9767 C   0  0  0  0  0  0  0  0  0  0  0  0
  150.3670  143.3518  158.2160 N   0  0  0  0  0  0  0  0  0  0  0  0
  150.2117  142.5234  157.1870 C   0  0  0  0  0  0  0  0  0  0  0  0
  150.9415  141.3912  157.1916 N   0  0  0  0  0  0  0  0  0  0  0  0
  150.9467  140.3432  156.1869 C   0  0  0  0  0  0  0  0  0  0  0  0
  149.9577  140.6242  155.0399 C   0  0  1  0  0  0  0  0  0  0  0  0
  150.3924  139.9478  153.8763 O   0  0  0  0  0  0  0  0  0  0  0  0
  148.5340  140.1493  155.3937 C   0  0  0  0  0  0  0  0  0  0  0  0
  147.4420  140.8108  154.6678 N   0  0  0  0  0  0  0  0  0  0  0  0
  147.1883  140.2074  153.3598 C   0  0  0  0  0  0  0  0  0  0  0  0
  146.5168  138.8209  153.4481 C   0  0  0  0  0  0  0  0  0  0  0  0
  145.2453  138.9061  154.2122 N   0  3  0  0  0  0  0  0  0  0  0  0
  144.5287  137.6068  154.2657 C   0  0  0  0  0  0  0  0  0  0  0  0
  144.0491  137.1362  152.8818 C   0  0  0  0  0  0  0  0  0  0  0  0
  143.1450  138.0749  152.3386 O   0  0  0  0  0  0  0  0  0  0  0  0
  145.4739  139.5189  155.5482 C   0  0  0  0  0  0  0  0  0  0  0  0
  146.1720  140.8849  155.3954 C   0  0  0  0  0  0  0  0  0  0  0  0
  151.6883  141.4495  158.3628 C   0  0  0  0  0  0  0  0  0  0  0  0
  152.6338  140.5932  158.9544 C   0  0  0  0  0  0  0  0  0  0  0  0
  153.2243  140.9517  160.1843 C   0  0  0  0  0  0  0  0  0  0  0  0
  154.2432  140.0202  160.8164 C   0  0  0  0  0  0  0  0  0  0  0  0
  153.1032  143.5453  162.4716 H   0  0  0  0  0  0  0  0  0  0  0  0
  154.5659  142.6627  162.0400 H   0  0  0  0  0  0  0  0  0  0  0  0
  153.2573  141.8447  162.9071 H   0  0  0  0  0  0  0  0  0  0  0  0
  151.6318  143.9504  160.6849 H   0  0  0  0  0  0  0  0  0  0  0  0
  149.5263  142.7518  156.3840 H   0  0  0  0  0  0  0  0  0  0  0  0
  151.9614  140.2289  155.8021 H   0  0  0  0  0  0  0  0  0  0  0  0
  150.6931  139.4042  156.6804 H   0  0  0  0  0  0  0  0  0  0  0  0
  149.9666  141.6943  154.8382 H   0  0  0  0  0  0  0  0  0  0  0  0
  149.7637  140.0972  153.1871 H   0  0  0  0  0  0  0  0  0  0  0  0
  148.4832  139.0754  155.2081 H   0  0  0  0  0  0  0  0  0  0  0  0
  148.3859  140.2641  156.4669 H   0  0  0  0  0  0  0  0  0  0  0  0
  146.5477  140.8733  152.7797 H   0  0  0  0  0  0  0  0  0  0  0  0
  148.1207  140.1327  152.7988 H   0  0  0  0  0  0  0  0  0  0  0  0
  146.3121  138.4588  152.4398 H   0  0  0  0  0  0  0  0  0  0  0  0
  147.1830  138.0931  153.9130 H   0  0  0  0  0  0  0  0  0  0  0  0
  145.1866  136.8412  154.6800 H   0  0  0  0  0  0  0  0  0  0  0  0
  143.6844  137.6862  154.9522 H   0  0  0  0  0  0  0  0  0  0  0  0
  144.9007  137.0543  152.2061 H   0  0  0  0  0  0  0  0  0  0  0  0
  143.5829  136.1523  152.9185 H   0  0  0  0  0  0  0  0  0  0  0  0
  143.4926  138.9439  152.4754 H   0  0  0  0  0  0  0  0  0  0  0  0
  144.5243  139.6678  156.0607 H   0  0  0  0  0  0  0  0  0  0  0  0
  146.0632  138.8480  156.1744 H   0  0  0  0  0  0  0  0  0  0  0  0
  146.3113  141.3449  156.3724 H   0  0  0  0  0  0  0  0  0  0  0  0
  145.5012  141.5578  154.8590 H   0  0  0  0  0  0  0  0  0  0  0  0
  152.9009  139.6685  158.4652 H   0  0  0  0  0  0  0  0  0  0  0  0
  154.3925  139.1251  160.2120 H   0  0  0  0  0  0  0  0  0  0  0  0
  153.9105  139.7042  161.8053 H   0  0  0  0  0  0  0  0  0  0  0  0
  155.2066  140.5202  160.9180 H   0  0  0  0  0  0  0  0  0  0  0  0
  144.6501  139.5385  153.6958 H   0  0  0  0  0  0  0  0  0  0  0  0
  1  2  1  0  0  0  0
  1 25  1  0  0  0  0
  1 26  1  0  0  0  0
  1 27  1  0  0  0  0
  2 23  1  0  0  0  0
  2  3  2  0  0  0  0
  3  4  1  0  0  0  0
  3 28  1  0  0  0  0
  4 21  2  0  0  0  0
  4  5  1  0  0  0  0
  5  6  2  0  0  0  0
  6  7  1  0  0  0  0
  6 29  1  0  0  0  0
  7  8  1  0  0  0  0
  7 21  1  0  0  0  0
  8  9  1  0  0  0  0
  8 30  1  0  0  0  0
  8 31  1  0  0  0  0
  9 10  1  0  0  0  0
  9 11  1  0  0  0  0
  9 32  1  0  0  0  0
 10 33  1  0  0  0  0
 11 12  1  0  0  0  0
 11 34  1  0  0  0  0
 11 35  1  0  0  0  0
 12 20  1  0  0  0  0
 12 13  1  0  0  0  0
 13 14  1  0  0  0  0
 13 36  1  0  0  0  0
 13 37  1  0  0  0  0
 14 15  1  0  0  0  0
 14 38  1  0  0  0  0
 14 39  1  0  0  0  0
 15 16  1  0  0  0  0
 15 19  1  0  0  0  0
 15 53  1  0  0  0  0
 16 17  1  0  0  0  0
 16 40  1  0  0  0  0
 16 41  1  0  0  0  0
 17 18  1  0  0  0  0
 17 42  1  0  0  0  0
 17 43  1  0  0  0  0
 18 44  1  0  0  0  0
 19 20  1  0  0  0  0
 19 45  1  0  0  0  0
 19 46  1  0  0  0  0
 20 47  1  0  0  0  0
 20 48  1  0  0  0  0
 21 22  1  0  0  0  0
 22 23  2  0  0  0  0
 22 49  1  0  0  0  0
 23 24  1  0  0  0  0
 24 50  1  0  0  0  0
 24 51  1  0  0  0  0
 24 52  1  0  0  0  0
M  CHG  1  15   1
M  END
> <s_m_source_file>
AV-unprocessed.smi

> <i_m_source_file_index>
1046

> <i_lp_mmshare_version>
43012

> <i_f3d_flags>
0

> <s_epik_input>
W0NIM11jKFtjSF0xKWMoW0NIM10pW2NIXWMoYzEyKW4oW2NIXW4yKVtDSDJdW0NASF0oW09IXSlbQ0gyXU4zW0NIMl1bQ0gyXU4oW0NIMl1bQ0gyXTMpW0NIMl1bQ0gyXVtPSF0=

> <s_epik_cmdline>
J2VwaWtfcHl0aG9uJywgJy1waCcsICc3LjAnLCAnLXRuJywgJzgnLCAnLW1hJywgJzIwMCcsICctbWV0YWxfYmluZGluZycsICctaW1hZScsICc8aW5maWxlLm1hZT4nLCAnLW9tYWUnLCAnPG91dGZpbGUubWFlPic=

> <r_epik_Ionization_Penalty>
0.218081

> <r_epik_Ionization_Penalty_Charging>
0.0909554

> <r_epik_Ionization_Penalty_Neutral>
0.127126

> <r_epik_State_Penalty>
0.825642

> <r_epik_Charging_Adjusted_Penalty>
0.916597

> <i_epik_Tot_Q>
1

> <i_epik_Tot_abs_Q>
1

> <r_epik_Metal_State_Penalty>
0.740189

> <b_epik_Metal_Only>
0

> <s_lp_Force_Field>
OPLS_2005

> <r_lp_Energy>
34.993

> <b_lp_Chiralities_Consistent>
1

> <s_lp_Variant>
AV-unprocessed.smi:1046-4

> <Gold.Version>
5.8.1

> <Gold.Id.Protein>
6NUR|6NUR_protein|mol2

> <Gold.PLP.Fitness>
56.5382

> <Gold.PLP.PLP>
-40.8268

> <Gold.PLP.part.hbond>
-4.7348

> <Gold.PLP.part.metal>
0.0000

> <Gold.PLP.part.buried>
-1.9070

> <Gold.PLP.part.nonpolar>
-33.7347

> <Gold.PLP.part.repulsive>
0.2720

> <Gold.PLP.ligand.clash>
0.0000

> <Gold.PLP.ligand.torsion>
0.8700

> <Gold.PLP.Chemscore.Hbond>
4.8160

> <Gold.PLP.Chemscore.CHOScore>
0.9481

> <Gold.PLP.Chemscore.Metal>
0.0000

> <Gold.Chemscore.Hbonds>
donor molecule, donor type, donor heavy atom, donor atom, acceptor molecule, acceptor atom, score
      L1  H    10    33       P1  7957  0.79
      L1  H    15    53       P1 10175  2.00
      L1  H    18    44       P1 10175  0.91
      P1  H  7989  7998       L1    10  0.99
      L1  C     6    29       P1  8028  0.97

> <Gold.PLP.Chemscore.Internal.Correction>
0.1592

> <Gold.Rescore>
     Score         DG    S(hbond)    S(metal)    S(lipo)     H(rot)  DE(clash)    DE(int)     intcor
     18.32     -19.46       2.84        0.00     108.47       3.21       0.31       0.83       ----

> <Gold.Chemscore.Fitness>
18.3231

> <Gold.Chemscore.DG>
-19.4571

> <Gold.Chemscore.ZeroCoef>
-5.4800

> <Gold.Chemscore.Hbond>
2.8420

> <Gold.Chemscore.Metal>
0.0000

> <Gold.Chemscore.Lipo>
108.4742

> <Gold.Chemscore.Internal_Hbond>
0.0000

> <Gold.Chemscore.DEClash>
0.3084

> <Gold.Chemscore.DEInternal>
0.8256

> <Gold.Chemscore.Rot>
3.2058

> <Gold.Chemscore.Internal.Correction>
   9.000000E+99

> <Gold.Chemscore.Hbonds>
donor molecule, donor type, donor heavy atom, donor atom, acceptor molecule, acceptor atom, score
      L1  H    10    33       P1  7957  0.74
      L1  H    15    53       P1 10175  1.00
      L1  H    18    44       P1 10175  0.87
      P1  H  7989  7998       L1    10  0.09

> <Gold.Chemscore.Hbond.Weighted>
-9.4923

> <Gold.Chemscore.Metal.Weighted>
-0.0000

> <Gold.Chemscore.Lipo.Weighted>
-12.6915

> <Gold.Chemscore.Internal_Hbond.Weighted>
0.0000

> <Gold.Chemscore.DEClash.Weighted>
0.3084

> <Gold.Chemscore.DEInternal.Weighted>
0.8256

> <Gold.Chemscore.Rot.Weighted>
8.2067

> <Gold.Chemscore.Internal.Correction.Weighted>
   9.000000E+99

> <Gold.Protein.RotatedTorsions>
[ 6907 6896 6895 6894 ] final -163.25 input  -60.11 | X-H torsion
[ 7974 7965 7964 7962 ] final  177.21 input  175.53 | X-H torsion
[ 8008 7997 7996 7995 ] final   93.02 input   59.86 | X-H torsion
[ 10167 10162 10161 10158 ] final  141.33 input  -65.29 | X-H torsion
[ 10718 10713 10712 10709 ] final   29.39 input   66.30 | X-H torsion
[ 10763 10752 10751 10750 ] final   75.96 input  -60.55 | X-H torsion
[ 11005 11000 10999 10996 ] final   23.18 input  -57.11 | X-H torsion

> <Gold.Protein.ActiveResidues>
 VAL166  LYS551  ARG553  GLY616  TRP617  ASP618  TYR619  PRO620  LYS621  CYS622 
 ASP623  PHE694  ASN695  SER759  ASP760  ASP761  ALA762  ILE779  LEU786  VAL792 
 PHE793  MET794  SER795  GLU796  ALA797  LYS798  CYS799  TRP800  GLU811  SER814 

> <Gold.Protein.RotatedAtoms>
  151.3932  133.3782  159.2723 H   0  0  0  0  0  0  0  0  0  0  0  0  # atno 6907 bound_to 6896
  150.9489  134.8893  159.7670 H   0  0  0  0  0  0  0  0  0  0  0  0  # atno 6908 bound_to 6896
  152.5103  134.3886  159.9428 H   0  0  0  0  0  0  0  0  0  0  0  0  # atno 6909 bound_to 6896
  144.7172  140.0213  143.6440 H   0  0  0  0  0  0  0  0  0  0  0  0  # atno 7974 bound_to 7965
  156.0420  140.3318  155.7254 H   0  0  0  0  0  0  0  0  0  0  0  0  # atno 8008 bound_to 7997
  155.5730  140.0629  157.2819 H   0  0  0  0  0  0  0  0  0  0  0  0  # atno 8009 bound_to 7997
  154.4397  140.1857  156.0887 H   0  0  0  0  0  0  0  0  0  0  0  0  # atno 8010 bound_to 7997
  139.5023  144.6178  151.6123 H   0  0  0  0  0  0  0  0  0  0  0  0  # atno 10167 bound_to 10162
  157.2459  130.7092  149.6381 H   0  0  0  0  0  0  0  0  0  0  0  0  # atno 10718 bound_to 10713
  153.0691  135.4969  154.8265 H   0  0  0  0  0  0  0  0  0  0  0  0  # atno 10763 bound_to 10752
  154.6997  135.2999  154.9362 H   0  0  0  0  0  0  0  0  0  0  0  0  # atno 10764 bound_to 10752
  154.0090  135.6756  153.4817 H   0  0  0  0  0  0  0  0  0  0  0  0  # atno 10765 bound_to 10752
  140.3724  134.2008  155.7666 H   0  0  0  0  0  0  0  0  0  0  0  0  # atno 11005 bound_to 11000
  146.0178  139.3225  143.0831 LP  0  0  0  0  0  0  0  0  0  0  0  0  # atno 17320 bound_to 7965
  145.8604  140.9478  143.0703 LP  0  0  0  0  0  0  0  0  0  0  0  0  # atno 17321 bound_to 7965
  140.5871  143.9845  150.6302 LP  0  0  0  0  0  0  0  0  0  0  0  0  # atno 17342 bound_to 10162
  140.3013  143.3259  152.0969 LP  0  0  0  0  0  0  0  0  0  0  0  0  # atno 17343 bound_to 10162
  155.9668  130.4443  150.5456 LP  0  0  0  0  0  0  0  0  0  0  0  0  # atno 17370 bound_to 10713
  157.3329  131.0703  151.1847 LP  0  0  0  0  0  0  0  0  0  0  0  0  # atno 17371 bound_to 10713
  141.1950  133.8115  157.0733 LP  0  0  0  0  0  0  0  0  0  0  0  0  # atno 17394 bound_to 11000
  140.0541  134.9790  157.1189 LP  0  0  0  0  0  0  0  0  0  0  0  0  # atno 17395 bound_to 11000

$$$$
