AV-unprocessed.smi:1777|AV-procd|sdf|7177|dock2
  -GOLD-   22720 8413D 1   1.00000     0.00000
 Structure written by MMmdl.
 37 38  0  0  0  0  0  0  0  0  1 V2000
  144.4368  136.1624  152.5253 O   0  0  0  0  0  0  0  0  0  0  0  0
  145.6492  136.0170  152.3699 C   0  0  0  0  0  0  0  0  0  0  0  0
  146.5656  136.8594  152.8687 N   0  0  0  0  0  0  0  0  0  0  0  0
  146.2849  138.0579  153.6579 C   0  0  0  0  0  0  0  0  0  0  0  0
  147.3739  139.1515  153.5178 C   0  0  0  0  0  0  0  0  0  0  0  0
  147.8379  139.0936  152.1808 O   0  0  0  0  0  0  0  0  0  0  0  0
  146.8523  140.5807  153.8166 C   0  0  0  0  0  0  0  0  0  0  0  0
  147.9658  141.6434  153.8123 C   0  0  0  0  0  0  0  0  0  0  0  0
  149.1059  141.2676  154.7680 C   0  0  0  0  0  0  0  0  0  0  0  0
  149.6731  139.8839  154.4239 C   0  0  0  0  0  0  0  0  0  0  0  0
  148.5702  138.8103  154.4389 C   0  0  0  0  0  0  0  0  0  0  0  0
  146.2315  135.0296  151.6679 N   0  0  0  0  0  0  0  0  0  0  0  0
  145.6192  133.9460  150.9813 C   0  0  0  0  0  0  0  0  0  0  0  0
  146.4578  132.9290  150.4796 C   0  0  0  0  0  0  0  0  0  0  0  0
  145.8739  131.8361  149.8085 C   0  0  0  0  0  0  0  0  0  0  0  0
  144.5435  131.7028  149.6259 N   0  0  0  0  0  0  0  0  0  0  0  0
  143.7410  132.6693  150.1196 C   0  0  0  0  0  0  0  0  0  0  0  0
  144.2216  133.8030  150.8050 C   0  0  0  0  0  0  0  0  0  0  0  0
  147.5382  136.6673  152.6787 H   0  0  0  0  0  0  0  0  0  0  0  0
  145.3137  138.4674  153.3752 H   0  0  0  0  0  0  0  0  0  0  0  0
  146.1822  137.7606  154.7023 H   0  0  0  0  0  0  0  0  0  0  0  0
  148.2098  138.2378  152.0317 H   0  0  0  0  0  0  0  0  0  0  0  0
  146.0869  140.8710  153.0962 H   0  0  0  0  0  0  0  0  0  0  0  0
  146.3672  140.5858  154.7936 H   0  0  0  0  0  0  0  0  0  0  0  0
  148.3592  141.7618  152.8020 H   0  0  0  0  0  0  0  0  0  0  0  0
  147.5514  142.6117  154.0943 H   0  0  0  0  0  0  0  0  0  0  0  0
  149.8962  142.0175  154.7191 H   0  0  0  0  0  0  0  0  0  0  0  0
  148.7395  141.2696  155.7954 H   0  0  0  0  0  0  0  0  0  0  0  0
  150.1492  139.9151  153.4432 H   0  0  0  0  0  0  0  0  0  0  0  0
  150.4558  139.6187  155.1350 H   0  0  0  0  0  0  0  0  0  0  0  0
  148.2128  138.7000  155.4636 H   0  0  0  0  0  0  0  0  0  0  0  0
  148.9954  137.8440  154.1642 H   0  0  0  0  0  0  0  0  0  0  0  0
  147.2334  135.0939  151.5640 H   0  0  0  0  0  0  0  0  0  0  0  0
  147.5302  132.9836  150.5988 H   0  0  0  0  0  0  0  0  0  0  0  0
  146.4933  131.0470  149.4089 H   0  0  0  0  0  0  0  0  0  0  0  0
  142.6803  132.5322  149.9691 H   0  0  0  0  0  0  0  0  0  0  0  0
  143.5150  134.5235  151.1866 H   0  0  0  0  0  0  0  0  0  0  0  0
  1  2  2  0  0  0  0
  2  3  1  0  0  0  0
  2 12  1  0  0  0  0
  3  4  1  0  0  0  0
  3 19  1  0  0  0  0
  4  5  1  0  0  0  0
  4 20  1  0  0  0  0
  4 21  1  0  0  0  0
  5 11  1  0  0  0  0
  5  6  1  0  0  0  0
  5  7  1  0  0  0  0
  6 22  1  0  0  0  0
  7  8  1  0  0  0  0
  7 23  1  0  0  0  0
  7 24  1  0  0  0  0
  8  9  1  0  0  0  0
  8 25  1  0  0  0  0
  8 26  1  0  0  0  0
  9 10  1  0  0  0  0
  9 27  1  0  0  0  0
  9 28  1  0  0  0  0
 10 11  1  0  0  0  0
 10 29  1  0  0  0  0
 10 30  1  0  0  0  0
 11 31  1  0  0  0  0
 11 32  1  0  0  0  0
 12 13  1  0  0  0  0
 12 33  1  0  0  0  0
 13 18  1  0  0  0  0
 13 14  2  0  0  0  0
 14 15  1  0  0  0  0
 14 34  1  0  0  0  0
 15 16  2  0  0  0  0
 15 35  1  0  0  0  0
 16 17  1  0  0  0  0
 17 18  2  0  0  0  0
 17 36  1  0  0  0  0
 18 37  1  0  0  0  0
M  END
> <s_m_source_file>
AV-unprocessed.smi

> <i_m_source_file_index>
1777

> <i_lp_mmshare_version>
43012

> <i_f3d_flags>
0

> <s_epik_input>
W2NIXTFbY0hdbltjSF1bY0hdYzFbTkhdQyg9TylbTkhdW0NIMl1DMihbT0hdKVtDSDJdW0NIMl1bQ0gyXVtDSDJdW0NIMl0y

> <s_epik_cmdline>
J2VwaWtfcHl0aG9uJywgJy1waCcsICc3LjAnLCAnLXRuJywgJzgnLCAnLW1hJywgJzIwMCcsICctbWV0YWxfYmluZGluZycsICctaW1hZScsICc8aW5maWxlLm1hZT4nLCAnLW9tYWUnLCAnPG91dGZpbGUubWFlPic=

> <r_epik_Ionization_Penalty>
0.127626

> <r_epik_Ionization_Penalty_Charging>
0

> <r_epik_Ionization_Penalty_Neutral>
0.127626

> <r_epik_State_Penalty>
0.11702

> <r_epik_Charging_Adjusted_Penalty>
0.11702

> <i_epik_Tot_Q>
0

> <i_epik_Tot_abs_Q>
0

> <r_epik_Metal_State_Penalty>
0.0961027

> <b_epik_Metal_Only>
0

> <s_lp_Force_Field>
OPLS_2005

> <r_lp_Energy>
19.312

> <b_lp_Chiralities_Consistent>
1

> <s_lp_Variant>
AV-unprocessed.smi:1777-1

> <Gold.Version>
5.8.1

> <Gold.Id.Protein>
6NUR|6NUR_protein|mol2

> <Gold.PLP.Fitness>
47.2034

> <Gold.PLP.PLP>
-34.3474

> <Gold.PLP.part.hbond>
-3.8044

> <Gold.PLP.part.metal>
0.0000

> <Gold.PLP.part.buried>
-3.6792

> <Gold.PLP.part.nonpolar>
-27.2699

> <Gold.PLP.part.repulsive>
0.3612

> <Gold.PLP.ligand.clash>
0.0000

> <Gold.PLP.ligand.torsion>
0.5719

> <Gold.PLP.Chemscore.Hbond>
3.0380

> <Gold.PLP.Chemscore.CHOScore>
1.6258

> <Gold.PLP.Chemscore.Metal>
0.0000

> <Gold.Chemscore.Hbonds>
donor molecule, donor type, donor heavy atom, donor atom, acceptor molecule, acceptor atom, score
      L1  H     3    19       P1  7948  1.00
      L1  H     6    22       P1  7948  0.80
      L1  H    12    33       P1  7948  0.97
      P1  H 10785 10796       L1    16  0.24
      L1  C    15    35       P1 10747  0.63
      L1  C    17    36       P1 10186  0.86
      L1  C    17    36       P1 10952  0.10

> <Gold.PLP.Chemscore.Internal.Correction>
0.0084

> <Gold.Rescore>
     Score         DG    S(hbond)    S(metal)    S(lipo)     H(rot)  DE(clash)    DE(int)     intcor
     18.70     -20.52       2.81        0.00      86.38       1.74       0.04       1.77       ----

> <Gold.Chemscore.Fitness>
18.7043

> <Gold.Chemscore.DG>
-20.5174

> <Gold.Chemscore.ZeroCoef>
-5.4800

> <Gold.Chemscore.Hbond>
2.8078

> <Gold.Chemscore.Metal>
0.0000

> <Gold.Chemscore.Lipo>
86.3849

> <Gold.Chemscore.Internal_Hbond>
0.0000

> <Gold.Chemscore.DEClash>
0.0407

> <Gold.Chemscore.DEInternal>
1.7725

> <Gold.Chemscore.Rot>
1.7374

> <Gold.Chemscore.Internal.Correction>
   9.000000E+99

> <Gold.Chemscore.Hbonds>
donor molecule, donor type, donor heavy atom, donor atom, acceptor molecule, acceptor atom, score
      L1  H     3    19       P1  7948  1.00
      L1  H     6    22       P1  7948  0.79
      L1  H    12    33       P1  7948  0.74
      P1  H 10785 10796       L1    16  0.16

> <Gold.Chemscore.Hbond.Weighted>
-9.3782

> <Gold.Chemscore.Metal.Weighted>
-0.0000

> <Gold.Chemscore.Lipo.Weighted>
-10.1070

> <Gold.Chemscore.Internal_Hbond.Weighted>
0.0000

> <Gold.Chemscore.DEClash.Weighted>
0.0407

> <Gold.Chemscore.DEInternal.Weighted>
1.7725

> <Gold.Chemscore.Rot.Weighted>
4.4478

> <Gold.Chemscore.Internal.Correction.Weighted>
   9.000000E+99

> <Gold.Protein.RotatedTorsions>
[ 6907 6896 6895 6894 ] final  175.41 input  -60.11 | X-H torsion
[ 7974 7965 7964 7962 ] final   41.53 input  175.53 | X-H torsion
[ 8008 7997 7996 7995 ] final   66.41 input   59.86 | X-H torsion
[ 10167 10162 10161 10158 ] final -101.20 input  -65.29 | X-H torsion
[ 10718 10713 10712 10709 ] final   10.51 input   66.30 | X-H torsion
[ 10763 10752 10751 10750 ] final  -35.95 input  -60.55 | X-H torsion
[ 11005 11000 10999 10996 ] final  -23.25 input  -57.11 | X-H torsion

> <Gold.Protein.ActiveResidues>
 VAL166  LYS551  ARG553  GLY616  TRP617  ASP618  TYR619  PRO620  LYS621  CYS622 
 ASP623  PHE694  ASN695  SER759  ASP760  ASP761  ALA762  ILE779  LEU786  VAL792 
 PHE793  MET794  SER795  GLU796  ALA797  LYS798  CYS799  TRP800  GLU811  SER814 

> <Gold.Protein.RotatedAtoms>
  151.7367  133.3320  159.3354 H   0  0  0  0  0  0  0  0  0  0  0  0  # atno 6907 bound_to 6896
  150.7590  134.6315  159.6198 H   0  0  0  0  0  0  0  0  0  0  0  0  # atno 6908 bound_to 6896
  152.3557  134.6945  160.0274 H   0  0  0  0  0  0  0  0  0  0  0  0  # atno 6909 bound_to 6896
  146.0816  139.5405  142.9533 H   0  0  0  0  0  0  0  0  0  0  0  0  # atno 7974 bound_to 7965
  155.6770  140.3497  155.4840 H   0  0  0  0  0  0  0  0  0  0  0  0  # atno 8008 bound_to 7997
  155.9640  140.1142  157.0894 H   0  0  0  0  0  0  0  0  0  0  0  0  # atno 8009 bound_to 7997
  154.4150  140.1170  156.5203 H   0  0  0  0  0  0  0  0  0  0  0  0  # atno 8010 bound_to 7997
  140.2438  143.3520  152.0777 H   0  0  0  0  0  0  0  0  0  0  0  0  # atno 10167 bound_to 10162
  156.9820  130.6009  149.5677 H   0  0  0  0  0  0  0  0  0  0  0  0  # atno 10718 bound_to 10713
  153.8717  135.6830  153.4774 H   0  0  0  0  0  0  0  0  0  0  0  0  # atno 10763 bound_to 10752
  153.1284  135.4709  154.9306 H   0  0  0  0  0  0  0  0  0  0  0  0  # atno 10764 bound_to 10752
  154.7711  135.3239  154.8138 H   0  0  0  0  0  0  0  0  0  0  0  0  # atno 10765 bound_to 10752
  140.8733  133.7705  156.0213 H   0  0  0  0  0  0  0  0  0  0  0  0  # atno 11005 bound_to 11000
  145.6208  141.0323  143.1916 LP  0  0  0  0  0  0  0  0  0  0  0  0  # atno 17320 bound_to 7965
  144.7297  139.7764  143.7352 LP  0  0  0  0  0  0  0  0  0  0  0  0  # atno 17321 bound_to 7965
  139.5068  144.6821  151.5982 LP  0  0  0  0  0  0  0  0  0  0  0  0  # atno 17342 bound_to 10162
  140.6093  143.9466  150.6441 LP  0  0  0  0  0  0  0  0  0  0  0  0  # atno 17343 bound_to 10162
  156.0241  130.5335  150.8357 LP  0  0  0  0  0  0  0  0  0  0  0  0  # atno 17370 bound_to 10713
  157.5520  131.0944  150.9682 LP  0  0  0  0  0  0  0  0  0  0  0  0  # atno 17371 bound_to 10713
  140.8547  134.2912  157.5260 LP  0  0  0  0  0  0  0  0  0  0  0  0  # atno 17394 bound_to 11000
  139.8714  134.9486  156.4002 LP  0  0  0  0  0  0  0  0  0  0  0  0  # atno 17395 bound_to 11000

$$$$
