AV-unprocessed.smi:1888|AV-procd|sdf|7658|dock4
  -GOLD-   22720 9393D 1   1.00000     0.00000
 Structure written by MMmdl.
 43 45  0  0  0  0  0  0  0  0  2 V2000
  153.8942  136.7062  161.9219 C   0  0  0  0  0  0  0  0  0  0  0  0
  153.1234  137.4295  160.8152 C   0  0  0  0  0  0  0  0  0  0  0  0
  153.0550  136.5873  159.6772 O   0  0  0  0  0  0  0  0  0  0  0  0
  152.3250  137.1693  158.6107 C   0  0  0  0  0  0  0  0  0  0  0  0
  152.9668  138.5149  158.2493 C   0  0  0  0  0  0  0  0  0  0  0  0
  152.0301  139.3955  157.5593 N   0  0  0  0  0  0  0  0  0  0  0  0
  151.6826  140.6634  157.8972 C   0  0  0  0  0  0  0  0  0  0  0  0
  152.2289  141.2979  159.0330 N   0  0  0  0  0  0  0  0  0  0  0  0
  152.6990  140.5612  160.0631 N   0  0  0  0  0  0  0  0  0  0  0  0
  153.1296  141.4467  160.9459 C   0  0  0  0  0  0  0  0  0  0  0  0
  153.7378  140.9697  162.2314 C   0  0  0  0  0  0  0  0  0  0  0  0
  152.9333  142.7857  160.5056 C   0  0  0  0  0  0  0  0  0  0  0  0
  152.3507  142.6536  159.2765 C   0  0  0  0  0  0  0  0  0  0  0  0
  151.9034  143.6931  158.3019 C   0  0  0  0  0  0  0  0  0  0  0  0
  150.8168  141.2509  157.0689 N   0  0  0  0  0  0  0  0  0  0  0  0
  150.5815  140.2606  156.1251 C   0  0  0  0  0  0  0  0  0  0  0  0
  151.2963  139.1359  156.3994 C   0  0  0  0  0  0  0  0  0  0  0  0
  151.2546  137.9093  155.5749 C   0  0  0  0  0  0  0  0  0  0  0  0
  151.9201  136.9206  155.8759 O   0  0  0  0  0  0  0  0  0  0  0  0
  150.4147  138.0393  154.4995 N   0  5  0  0  0  0  0  0  0  0  0  0
  149.6737  139.1574  154.1805 C   0  0  0  0  0  0  0  0  0  0  0  0
  148.9401  139.1906  153.1915 O   0  0  0  0  0  0  0  0  0  0  0  0
  149.7443  140.2715  154.9759 N   0  0  0  0  0  0  0  0  0  0  0  0
  148.9698  141.4748  154.6591 C   0  0  0  0  0  0  0  0  0  0  0  0
  153.9707  137.3285  162.8137 H   0  0  0  0  0  0  0  0  0  0  0  0
  154.9054  136.4597  161.5974 H   0  0  0  0  0  0  0  0  0  0  0  0
  153.3956  135.7782  162.2025 H   0  0  0  0  0  0  0  0  0  0  0  0
  152.1189  137.6769  161.1623 H   0  0  0  0  0  0  0  0  0  0  0  0
  153.6257  138.3641  160.5614 H   0  0  0  0  0  0  0  0  0  0  0  0
  152.3277  136.5024  157.7476 H   0  0  0  0  0  0  0  0  0  0  0  0
  151.2857  137.3146  158.9082 H   0  0  0  0  0  0  0  0  0  0  0  0
  153.3290  139.0090  159.1510 H   0  0  0  0  0  0  0  0  0  0  0  0
  153.8470  138.3686  157.6239 H   0  0  0  0  0  0  0  0  0  0  0  0
  154.1193  141.8039  162.8202 H   0  0  0  0  0  0  0  0  0  0  0  0
  154.5687  140.2890  162.0444 H   0  0  0  0  0  0  0  0  0  0  0  0
  153.0035  140.4417  162.8400 H   0  0  0  0  0  0  0  0  0  0  0  0
  153.1838  143.7042  161.0151 H   0  0  0  0  0  0  0  0  0  0  0  0
  152.2094  144.6881  158.6248 H   0  0  0  0  0  0  0  0  0  0  0  0
  150.8177  143.6897  158.2040 H   0  0  0  0  0  0  0  0  0  0  0  0
  152.3332  143.5130  157.3162 H   0  0  0  0  0  0  0  0  0  0  0  0
  147.9028  141.2505  154.6532 H   0  0  0  0  0  0  0  0  0  0  0  0
  149.2443  141.8575  153.6753 H   0  0  0  0  0  0  0  0  0  0  0  0
  149.1283  142.2791  155.3770 H   0  0  0  0  0  0  0  0  0  0  0  0
  1  2  1  0  0  0  0
  1 25  1  0  0  0  0
  1 26  1  0  0  0  0
  1 27  1  0  0  0  0
  2  3  1  0  0  0  0
  2 28  1  0  0  0  0
  2 29  1  0  0  0  0
  3  4  1  0  0  0  0
  4  5  1  0  0  0  0
  4 30  1  0  0  0  0
  4 31  1  0  0  0  0
  5  6  1  0  0  0  0
  5 32  1  0  0  0  0
  5 33  1  0  0  0  0
  6 17  1  0  0  0  0
  6  7  1  0  0  0  0
  7  8  1  0  0  0  0
  7 15  2  0  0  0  0
  8 13  1  0  0  0  0
  8  9  1  0  0  0  0
  9 10  2  0  0  0  0
 10 11  1  0  0  0  0
 10 12  1  0  0  0  0
 11 34  1  0  0  0  0
 11 35  1  0  0  0  0
 11 36  1  0  0  0  0
 12 13  2  0  0  0  0
 12 37  1  0  0  0  0
 13 14  1  0  0  0  0
 14 38  1  0  0  0  0
 14 39  1  0  0  0  0
 14 40  1  0  0  0  0
 15 16  1  0  0  0  0
 16 23  1  0  0  0  0
 16 17  2  0  0  0  0
 17 18  1  0  0  0  0
 18 19  2  0  0  0  0
 18 20  1  0  0  0  0
 20 21  1  0  0  0  0
 21 22  2  0  0  0  0
 21 23  1  0  0  0  0
 23 24  1  0  0  0  0
 24 41  1  0  0  0  0
 24 42  1  0  0  0  0
 24 43  1  0  0  0  0
M  CHG  1  20  -1
M  END
> <s_m_source_file>
AV-unprocessed.smi

> <i_m_source_file_index>
1888

> <i_lp_mmshare_version>
43012

> <i_f3d_flags>
0

> <s_epik_input>
W0NIM11uMWMoPU8pW25IXWMoPU8pYyhjMTIpbihbQ0gyXVtDSDJdT1tDSDJdW0NIM10pYyhuMiktbjNuYyhbQ0gzXSlbY0hdYzNbQ0gzXQ==

> <s_epik_cmdline>
J2VwaWtfcHl0aG9uJywgJy1waCcsICc3LjAnLCAnLXRuJywgJzgnLCAnLW1hJywgJzIwMCcsICctbWV0YWxfYmluZGluZycsICctaW1hZScsICc8aW5maWxlLm1hZT4nLCAnLW9tYWUnLCAnPG91dGZpbGUubWFlPic=

> <r_lp_tautomer_probability>
1

> <r_epik_Ionization_Penalty>
3.99912

> <r_epik_Ionization_Penalty_Charging>
0.0169474

> <r_epik_Ionization_Penalty_Neutral>
3.98217

> <r_epik_State_Penalty>
3.98062

> <r_epik_Charging_Adjusted_Penalty>
3.99756

> <i_epik_Tot_Q>
-1

> <i_epik_Tot_abs_Q>
1

> <r_epik_Metal_State_Penalty>
0.61592

> <b_epik_Metal_Only>
1

> <s_lp_Force_Field>
OPLS_2005

> <r_lp_Energy>
30.4579

> <b_lp_Chiralities_Consistent>
1

> <s_lp_Variant>
AV-unprocessed.smi:1888-2

> <Gold.Version>
5.8.1

> <Gold.Id.Protein>
6NUR|6NUR_protein|mol2

> <Gold.PLP.Fitness>
46.9685

> <Gold.PLP.PLP>
-41.3013

> <Gold.PLP.part.hbond>
-2.0000

> <Gold.PLP.part.metal>
0.0000

> <Gold.PLP.part.buried>
-6.4994

> <Gold.PLP.part.nonpolar>
-39.0889

> <Gold.PLP.part.repulsive>
4.9657

> <Gold.PLP.ligand.clash>
0.0889

> <Gold.PLP.ligand.torsion>
0.3808

> <Gold.PLP.Chemscore.Hbond>
1.9913

> <Gold.PLP.Chemscore.CHOScore>
0.0000

> <Gold.PLP.Chemscore.Metal>
0.0000

> <Gold.Chemscore.Hbonds>
donor molecule, donor type, donor heavy atom, donor atom, acceptor molecule, acceptor atom, score
      P1  H  6896  6909       L1     3  1.00
      P1  H 10752 10763       L1    19  0.98

> <Gold.PLP.Chemscore.Internal.Correction>
0.5439

> <Gold.Rescore>
     Score         DG    S(hbond)    S(metal)    S(lipo)     H(rot)  DE(clash)    DE(int)     intcor
     10.70     -17.22       1.63        0.00      90.16       1.67       2.02       4.50       ----

> <Gold.Chemscore.Fitness>
10.6966

> <Gold.Chemscore.DG>
-17.2169

> <Gold.Chemscore.ZeroCoef>
-5.4800

> <Gold.Chemscore.Hbond>
1.6338

> <Gold.Chemscore.Metal>
0.0000

> <Gold.Chemscore.Lipo>
90.1606

> <Gold.Chemscore.Internal_Hbond>
0.0000

> <Gold.Chemscore.DEClash>
2.0197

> <Gold.Chemscore.DEInternal>
4.5005

> <Gold.Chemscore.Rot>
1.6675

> <Gold.Chemscore.Internal.Correction>
   9.000000E+99

> <Gold.Chemscore.Hbonds>
donor molecule, donor type, donor heavy atom, donor atom, acceptor molecule, acceptor atom, score
      P1  H  6896  6909       L1     3  0.37
      P1  H 10752 10763       L1    19  0.89

> <Gold.Chemscore.Hbond.Weighted>
-5.4570

> <Gold.Chemscore.Metal.Weighted>
-0.0000

> <Gold.Chemscore.Lipo.Weighted>
-10.5488

> <Gold.Chemscore.Internal_Hbond.Weighted>
0.0000

> <Gold.Chemscore.DEClash.Weighted>
2.0197

> <Gold.Chemscore.DEInternal.Weighted>
4.5005

> <Gold.Chemscore.Rot.Weighted>
4.2689

> <Gold.Chemscore.Internal.Correction.Weighted>
   9.000000E+99

> <Gold.Protein.RotatedTorsions>
[ 6907 6896 6895 6894 ] final  155.02 input  -60.11 | X-H torsion
[ 7974 7965 7964 7962 ] final  141.91 input  175.53 | X-H torsion
[ 8008 7997 7996 7995 ] final  160.26 input   59.86 | X-H torsion
[ 10167 10162 10161 10158 ] final  -58.09 input  -65.29 | X-H torsion
[ 10718 10713 10712 10709 ] final   39.26 input   66.30 | X-H torsion
[ 10763 10752 10751 10750 ] final   75.38 input  -60.55 | X-H torsion
[ 11005 11000 10999 10996 ] final   95.26 input  -57.11 | X-H torsion

> <Gold.Protein.ActiveResidues>
 VAL166  LYS551  ARG553  GLY616  TRP617  ASP618  TYR619  PRO620  LYS621  CYS622 
 ASP623  PHE694  ASN695  SER759  ASP760  ASP761  ALA762  ILE779  LEU786  VAL792 
 PHE793  MET794  SER795  GLU796  ALA797  LYS798  CYS799  TRP800  GLU811  SER814 

> <Gold.Protein.RotatedAtoms>
  152.0501  133.4015  159.4373 H   0  0  0  0  0  0  0  0  0  0  0  0  # atno 6907 bound_to 6896
  150.6870  134.3318  159.4839 H   0  0  0  0  0  0  0  0  0  0  0  0  # atno 6908 bound_to 6896
  152.1127  134.9262  160.0616 H   0  0  0  0  0  0  0  0  0  0  0  0  # atno 6909 bound_to 6896
  144.9054  139.5365  143.5734 H   0  0  0  0  0  0  0  0  0  0  0  0  # atno 7974 bound_to 7965
  156.2184  140.1809  156.7535 H   0  0  0  0  0  0  0  0  0  0  0  0  # atno 8008 bound_to 7997
  154.5827  140.0663  156.9156 H   0  0  0  0  0  0  0  0  0  0  0  0  # atno 8009 bound_to 7997
  155.2474  140.3326  155.4288 H   0  0  0  0  0  0  0  0  0  0  0  0  # atno 8010 bound_to 7997
  140.6219  143.2423  151.5460 H   0  0  0  0  0  0  0  0  0  0  0  0  # atno 10167 bound_to 10162
  157.3685  130.7688  149.7101 H   0  0  0  0  0  0  0  0  0  0  0  0  # atno 10718 bound_to 10713
  153.0651  135.4990  154.8181 H   0  0  0  0  0  0  0  0  0  0  0  0  # atno 10763 bound_to 10752
  154.6941  135.2989  154.9439 H   0  0  0  0  0  0  0  0  0  0  0  0  # atno 10764 bound_to 10752
  154.0184  135.6745  153.4823 H   0  0  0  0  0  0  0  0  0  0  0  0  # atno 10765 bound_to 10752
  139.8791  134.8889  156.3985 H   0  0  0  0  0  0  0  0  0  0  0  0  # atno 11005 bound_to 11000
  146.3131  139.7818  142.9004 LP  0  0  0  0  0  0  0  0  0  0  0  0  # atno 17320 bound_to 7965
  145.3544  141.0314  143.3320 LP  0  0  0  0  0  0  0  0  0  0  0  0  # atno 17321 bound_to 7965
  139.5446  144.2556  152.1417 LP  0  0  0  0  0  0  0  0  0  0  0  0  # atno 17342 bound_to 10162
  140.1778  144.4873  150.6544 LP  0  0  0  0  0  0  0  0  0  0  0  0  # atno 17343 bound_to 10162
  155.9751  130.4094  150.3875 LP  0  0  0  0  0  0  0  0  0  0  0  0  # atno 17370 bound_to 10713
  157.1963  131.0427  151.2674 LP  0  0  0  0  0  0  0  0  0  0  0  0  # atno 17371 bound_to 10713
  140.9284  133.7596  155.9993 LP  0  0  0  0  0  0  0  0  0  0  0  0  # atno 17394 bound_to 11000
  140.8359  134.3123  157.5331 LP  0  0  0  0  0  0  0  0  0  0  0  0  # atno 17395 bound_to 11000

$$$$
