AV-unprocessed.smi:3267|AV-procd|sdf|12504|dock7
  -GOLD-   2272018413D 1   1.00000     0.00000
 Structure written by MMmdl.
 38 39  0  0  0  0  0  0  0  0  1 V2000
  149.5582  145.2254  159.8547 C   0  0  0  0  0  0  0  0  0  0  0  0
  150.4176  144.0115  159.4742 C   0  0  2  0  0  0  0  0  0  0  0  0
  151.9302  144.3389  159.5125 C   0  0  0  0  0  0  0  0  0  0  0  0
  152.6845  143.3477  160.2561 N   0  0  0  0  0  0  0  0  0  0  0  0
  153.5564  142.3944  159.7746 C   0  0  0  0  0  0  0  0  0  0  0  0
  154.0188  141.6884  160.8482 C   0  0  0  0  0  0  0  0  0  0  0  0
  153.3619  142.2913  161.9571 C   0  0  0  0  0  0  0  0  0  0  0  0
  152.5624  143.2834  161.5994 N   0  0  0  0  0  0  0  0  0  0  0  0
  150.0208  143.5424  158.1487 N   0  0  0  0  0  0  0  0  0  0  0  0
  149.9056  142.2577  157.7837 C   0  0  0  0  0  0  0  0  0  0  0  0
  150.1132  141.3041  158.5342 O   0  0  0  0  0  0  0  0  0  0  0  0
  149.5409  142.1375  156.5000 N   0  0  0  0  0  0  0  0  0  0  0  0
  149.3190  140.8721  155.8099 C   0  0  0  0  0  0  0  0  0  0  0  0
  148.7247  141.0922  154.4095 C   0  0  2  0  0  0  0  0  0  0  0  0
  147.4899  141.9910  154.4026 C   0  0  0  0  0  0  0  0  0  0  0  0
  146.7943  141.5447  153.1373 C   0  0  0  0  0  0  0  0  0  0  0  0
  147.0489  140.0405  153.1563 C   0  0  0  0  0  0  0  0  0  0  0  0
  148.2799  139.8572  153.8519 O   0  0  0  0  0  0  0  0  0  0  0  0
  149.8030  145.5760  160.8579 H   0  0  0  0  0  0  0  0  0  0  0  0
  148.4967  144.9748  159.8447 H   0  0  0  0  0  0  0  0  0  0  0  0
  149.7124  146.0557  159.1646 H   0  0  0  0  0  0  0  0  0  0  0  0
  150.1915  143.2243  160.1968 H   0  0  0  0  0  0  0  0  0  0  0  0
  152.3509  144.4015  158.5075 H   0  0  0  0  0  0  0  0  0  0  0  0
  152.1083  145.3150  159.9666 H   0  0  0  0  0  0  0  0  0  0  0  0
  153.7700  142.2978  158.7203 H   0  0  0  0  0  0  0  0  0  0  0  0
  154.7187  140.8661  160.8422 H   0  0  0  0  0  0  0  0  0  0  0  0
  153.4413  142.0395  163.0042 H   0  0  0  0  0  0  0  0  0  0  0  0
  149.8224  144.2511  157.4577 H   0  0  0  0  0  0  0  0  0  0  0  0
  149.3913  142.9800  155.9642 H   0  0  0  0  0  0  0  0  0  0  0  0
  150.2716  140.3468  155.7352 H   0  0  0  0  0  0  0  0  0  0  0  0
  148.6609  140.2348  156.4033 H   0  0  0  0  0  0  0  0  0  0  0  0
  149.4724  141.5161  153.7370 H   0  0  0  0  0  0  0  0  0  0  0  0
  146.8573  141.7855  155.2674 H   0  0  0  0  0  0  0  0  0  0  0  0
  147.7374  143.0527  154.4033 H   0  0  0  0  0  0  0  0  0  0  0  0
  145.7340  141.7982  153.1162 H   0  0  0  0  0  0  0  0  0  0  0  0
  147.2732  141.9966  152.2676 H   0  0  0  0  0  0  0  0  0  0  0  0
  146.2610  139.5274  153.7085 H   0  0  0  0  0  0  0  0  0  0  0  0
  147.0909  139.6151  152.1535 H   0  0  0  0  0  0  0  0  0  0  0  0
  1  2  1  0  0  0  0
  1 19  1  0  0  0  0
  1 20  1  0  0  0  0
  1 21  1  0  0  0  0
  2  3  1  0  0  0  0
  2  9  1  0  0  0  0
  2 22  1  0  0  0  0
  3  4  1  0  0  0  0
  3 23  1  0  0  0  0
  3 24  1  0  0  0  0
  4  8  1  0  0  0  0
  4  5  1  0  0  0  0
  5  6  2  0  0  0  0
  5 25  1  0  0  0  0
  6  7  1  0  0  0  0
  6 26  1  0  0  0  0
  7  8  2  0  0  0  0
  7 27  1  0  0  0  0
  9 10  1  0  0  0  0
  9 28  1  0  0  0  0
 10 11  2  0  0  0  0
 10 12  1  0  0  0  0
 12 13  1  0  0  0  0
 12 29  1  0  0  0  0
 13 14  1  0  0  0  0
 13 30  1  0  0  0  0
 13 31  1  0  0  0  0
 14 18  1  0  0  0  0
 14 15  1  0  0  0  0
 14 32  1  0  0  0  0
 15 16  1  0  0  0  0
 15 33  1  0  0  0  0
 15 34  1  0  0  0  0
 16 17  1  0  0  0  0
 16 35  1  0  0  0  0
 16 36  1  0  0  0  0
 17 18  1  0  0  0  0
 17 37  1  0  0  0  0
 17 38  1  0  0  0  0
M  END
> <s_m_source_file>
AV-unprocessed.smi

> <i_m_source_file_index>
3267

> <i_lp_mmshare_version>
43012

> <i_f3d_flags>
0

> <s_epik_input>
bjFbY0hdW2NIXVtjSF1uMVtDSDJdW0NAQEhdKFtDSDNdKVtOSF1DKD1PKVtOSF1bQ0gyXVtDQEBIXTJbQ0gyXVtDSDJdW0NIMl1PMg==

> <s_epik_cmdline>
J2VwaWtfcHl0aG9uJywgJy1waCcsICc3LjAnLCAnLXRuJywgJzgnLCAnLW1hJywgJzIwMCcsICctbWV0YWxfYmluZGluZycsICctaW1hZScsICc8aW5maWxlLm1hZT4nLCAnLW9tYWUnLCAnPG91dGZpbGUubWFlPic=

> <r_lp_tautomer_probability>
1

> <r_epik_Ionization_Penalty>
6.24796e-05

> <r_epik_Ionization_Penalty_Charging>
0

> <r_epik_Ionization_Penalty_Neutral>
6.24796e-05

> <r_epik_State_Penalty>
-0

> <r_epik_Charging_Adjusted_Penalty>
0

> <i_epik_Tot_Q>
0

> <i_epik_Tot_abs_Q>
0

> <r_epik_Metal_State_Penalty>
-0

> <b_epik_Metal_Only>
0

> <s_lp_Force_Field>
OPLS_2005

> <r_lp_Energy>
17.87

> <b_lp_Chiralities_Consistent>
1

> <s_lp_Variant>
AV-unprocessed.smi:3267-1

> <Gold.Version>
5.8.1

> <Gold.Id.Protein>
6NUR|6NUR_protein|mol2

> <Gold.PLP.Fitness>
41.9963

> <Gold.PLP.PLP>
-38.5253

> <Gold.PLP.part.hbond>
-2.1627

> <Gold.PLP.part.metal>
0.0000

> <Gold.PLP.part.buried>
-4.1632

> <Gold.PLP.part.nonpolar>
-32.1380

> <Gold.PLP.part.repulsive>
1.1641

> <Gold.PLP.ligand.clash>
0.0000

> <Gold.PLP.ligand.torsion>
1.1782

> <Gold.PLP.Chemscore.Hbond>
1.9357

> <Gold.PLP.Chemscore.CHOScore>
0.0000

> <Gold.PLP.Chemscore.Metal>
0.0000

> <Gold.Chemscore.Hbonds>
donor molecule, donor type, donor heavy atom, donor atom, acceptor molecule, acceptor atom, score
      L1  H     9    28       P1  8028  0.90
      L1  H    12    29       P1  8028  1.00

> <Gold.PLP.Chemscore.Internal.Correction>
0.0203

> <Gold.Rescore>
     Score         DG    S(hbond)    S(metal)    S(lipo)     H(rot)  DE(clash)    DE(int)     intcor
     15.22     -16.38       1.43        0.00      93.23       1.87       0.10       1.06       ----

> <Gold.Chemscore.Fitness>
15.2151

> <Gold.Chemscore.DG>
-16.3750

> <Gold.Chemscore.ZeroCoef>
-5.4800

> <Gold.Chemscore.Hbond>
1.4313

> <Gold.Chemscore.Metal>
0.0000

> <Gold.Chemscore.Lipo>
93.2280

> <Gold.Chemscore.Internal_Hbond>
0.0000

> <Gold.Chemscore.DEClash>
0.1032

> <Gold.Chemscore.DEInternal>
1.0568

> <Gold.Chemscore.Rot>
1.8724

> <Gold.Chemscore.Internal.Correction>
   9.000000E+99

> <Gold.Chemscore.Hbonds>
donor molecule, donor type, donor heavy atom, donor atom, acceptor molecule, acceptor atom, score
      L1  H     9    28       P1  8028  0.29
      L1  H    12    29       P1  8028  0.99

> <Gold.Chemscore.Hbond.Weighted>
-4.7806

> <Gold.Chemscore.Metal.Weighted>
-0.0000

> <Gold.Chemscore.Lipo.Weighted>
-10.9077

> <Gold.Chemscore.Internal_Hbond.Weighted>
0.0000

> <Gold.Chemscore.DEClash.Weighted>
0.1032

> <Gold.Chemscore.DEInternal.Weighted>
1.0568

> <Gold.Chemscore.Rot.Weighted>
4.7933

> <Gold.Chemscore.Internal.Correction.Weighted>
   9.000000E+99

> <Gold.Protein.RotatedTorsions>
[ 6907 6896 6895 6894 ] final -142.72 input  -60.11 | X-H torsion
[ 7974 7965 7964 7962 ] final  -42.93 input  175.53 | X-H torsion
[ 8008 7997 7996 7995 ] final -150.57 input   59.86 | X-H torsion
[ 10167 10162 10161 10158 ] final -158.76 input  -65.29 | X-H torsion
[ 10718 10713 10712 10709 ] final  -27.73 input   66.30 | X-H torsion
[ 10763 10752 10751 10750 ] final  153.81 input  -60.55 | X-H torsion
[ 11005 11000 10999 10996 ] final -164.20 input  -57.11 | X-H torsion

> <Gold.Protein.ActiveResidues>
 VAL166  LYS551  ARG553  GLY616  TRP617  ASP618  TYR619  PRO620  LYS621  CYS622 
 ASP623  PHE694  ASN695  SER759  ASP760  ASP761  ALA762  ILE779  LEU786  VAL792 
 PHE793  MET794  SER795  GLU796  ALA797  LYS798  CYS799  TRP800  GLU811  SER814 

> <Gold.Protein.RotatedAtoms>
  151.0908  133.5317  159.2614 H   0  0  0  0  0  0  0  0  0  0  0  0  # atno 6907 bound_to 6896
  151.2185  135.0509  159.8950 H   0  0  0  0  0  0  0  0  0  0  0  0  # atno 6908 bound_to 6896
  152.5434  134.0713  159.8249 H   0  0  0  0  0  0  0  0  0  0  0  0  # atno 6909 bound_to 6896
  146.0068  140.7011  142.9244 H   0  0  0  0  0  0  0  0  0  0  0  0  # atno 7974 bound_to 7965
  155.6256  140.0686  157.2665 H   0  0  0  0  0  0  0  0  0  0  0  0  # atno 8008 bound_to 7997
  154.4218  140.1776  156.1466 H   0  0  0  0  0  0  0  0  0  0  0  0  # atno 8009 bound_to 7997
  155.9974  140.3339  155.6815 H   0  0  0  0  0  0  0  0  0  0  0  0  # atno 8010 bound_to 7997
  139.6667  143.9816  152.2259 H   0  0  0  0  0  0  0  0  0  0  0  0  # atno 10167 bound_to 10162
  156.4344  130.4451  149.7095 H   0  0  0  0  0  0  0  0  0  0  0  0  # atno 10718 bound_to 10713
  154.1421  135.2820  155.3158 H   0  0  0  0  0  0  0  0  0  0  0  0  # atno 10763 bound_to 10752
  154.6279  135.5445  153.7651 H   0  0  0  0  0  0  0  0  0  0  0  0  # atno 10764 bound_to 10752
  153.0247  135.6455  154.1568 H   0  0  0  0  0  0  0  0  0  0  0  0  # atno 10765 bound_to 10752
  140.5896  134.5058  157.5191 H   0  0  0  0  0  0  0  0  0  0  0  0  # atno 11005 bound_to 11000
  144.6938  140.3329  143.7213 LP  0  0  0  0  0  0  0  0  0  0  0  0  # atno 17320 bound_to 7965
  145.7404  139.1762  143.2379 LP  0  0  0  0  0  0  0  0  0  0  0  0  # atno 17321 bound_to 7965
  139.9570  144.6583  150.8116 LP  0  0  0  0  0  0  0  0  0  0  0  0  # atno 17342 bound_to 10162
  140.7602  143.3146  151.2763 LP  0  0  0  0  0  0  0  0  0  0  0  0  # atno 17343 bound_to 10162
  156.3985  130.7663  151.2669 LP  0  0  0  0  0  0  0  0  0  0  0  0  # atno 17370 bound_to 10713
  157.7507  131.0247  150.3887 LP  0  0  0  0  0  0  0  0  0  0  0  0  # atno 17371 bound_to 10713
  139.9280  134.8018  156.1012 LP  0  0  0  0  0  0  0  0  0  0  0  0  # atno 17394 bound_to 11000
  141.0943  133.6701  156.2611 LP  0  0  0  0  0  0  0  0  0  0  0  0  # atno 17395 bound_to 11000

$$$$
