AV-unprocessed.smi:2322|AV-procd|sdf|9285|dock1
  -GOLD-   2272012503D 1   1.00000     0.00000
 Structure written by MMmdl.
 38 40  0  0  0  0  0  0  0  0  1 V2000
  146.5663  142.1491  154.1362 C   0  0  0  0  0  0  0  0  0  0  0  0
  147.6440  141.1954  153.9568 N   0  0  0  0  0  0  0  0  0  0  0  0
  147.5594  140.2192  153.0228 N   0  0  0  0  0  0  0  0  0  0  0  0
  148.7153  139.5729  153.1685 C   0  0  0  0  0  0  0  0  0  0  0  0
  149.5537  140.0570  154.1318 N   0  0  0  0  0  0  0  0  0  0  0  0
  148.8189  141.0707  154.5825 C   0  0  0  0  0  0  0  0  0  0  0  0
  149.1630  141.9844  155.6229 N   0  0  0  0  0  0  0  0  0  0  0  0
  149.8740  141.8139  156.7571 C   0  0  0  0  0  0  0  0  0  0  0  0
  150.3576  140.7199  157.0432 O   0  0  0  0  0  0  0  0  0  0  0  0
  150.0168  142.8982  157.5367 N   0  0  0  0  0  0  0  0  0  0  0  0
  150.7481  142.9457  158.7985 C   0  0  2  0  0  0  0  0  0  0  0  0
  150.4800  144.2827  159.5020 C   0  0  0  0  0  0  0  0  0  0  0  0
  151.3346  144.4090  160.7722 C   0  0  0  0  0  0  0  0  0  0  0  0
  152.7175  144.2621  160.4572 O   0  0  0  0  0  0  0  0  0  0  0  0
  153.0749  143.0202  159.8483 C   0  0  1  0  0  0  0  0  0  0  0  0
  152.9847  141.8607  160.8309 C   0  0  0  0  0  0  0  0  0  0  0  0
  153.9862  141.7258  161.9532 C   0  0  0  0  0  0  0  0  0  0  0  0
  154.0028  140.7446  160.8049 C   0  0  0  0  0  0  0  0  0  0  0  0
  152.2607  142.7936  158.5590 C   0  0  0  0  0  0  0  0  0  0  0  0
  146.9065  143.1439  153.8475 H   0  0  0  0  0  0  0  0  0  0  0  0
  146.2608  142.1658  155.1825 H   0  0  0  0  0  0  0  0  0  0  0  0
  145.7063  141.8766  153.5228 H   0  0  0  0  0  0  0  0  0  0  0  0
  148.9648  138.7188  152.5561 H   0  0  0  0  0  0  0  0  0  0  0  0
  148.8008  142.9178  155.4935 H   0  0  0  0  0  0  0  0  0  0  0  0
  149.5862  143.7583  157.2269 H   0  0  0  0  0  0  0  0  0  0  0  0
  150.3970  142.1395  159.4448 H   0  0  0  0  0  0  0  0  0  0  0  0
  150.7132  145.1100  158.8297 H   0  0  0  0  0  0  0  0  0  0  0  0
  149.4226  144.3727  159.7531 H   0  0  0  0  0  0  0  0  0  0  0  0
  151.1857  145.3907  161.2219 H   0  0  0  0  0  0  0  0  0  0  0  0
  151.0299  143.6775  161.5208 H   0  0  0  0  0  0  0  0  0  0  0  0
  154.1233  143.1169  159.5633 H   0  0  0  0  0  0  0  0  0  0  0  0
  151.9692  141.5564  161.0749 H   0  0  0  0  0  0  0  0  0  0  0  0
  154.7922  142.4553  162.0026 H   0  0  0  0  0  0  0  0  0  0  0  0
  153.6179  141.3715  162.9136 H   0  0  0  0  0  0  0  0  0  0  0  0
  153.6447  139.7356  160.9988 H   0  0  0  0  0  0  0  0  0  0  0  0
  154.8215  140.8197  160.0920 H   0  0  0  0  0  0  0  0  0  0  0  0
  152.4874  141.8123  158.1399 H   0  0  0  0  0  0  0  0  0  0  0  0
  152.5798  143.5243  157.8142 H   0  0  0  0  0  0  0  0  0  0  0  0
  1  2  1  0  0  0  0
  1 20  1  0  0  0  0
  1 21  1  0  0  0  0
  1 22  1  0  0  0  0
  2  6  1  0  0  0  0
  2  3  1  0  0  0  0
  3  4  2  0  0  0  0
  4  5  1  0  0  0  0
  4 23  1  0  0  0  0
  5  6  2  0  0  0  0
  6  7  1  0  0  0  0
  7  8  1  0  0  0  0
  7 24  1  0  0  0  0
  8  9  2  0  0  0  0
  8 10  1  0  0  0  0
 10 11  1  0  0  0  0
 10 25  1  0  0  0  0
 11 19  1  0  0  0  0
 11 12  1  0  0  0  0
 11 26  1  0  0  0  0
 12 13  1  0  0  0  0
 12 27  1  0  0  0  0
 12 28  1  0  0  0  0
 13 14  1  0  0  0  0
 13 29  1  0  0  0  0
 13 30  1  0  0  0  0
 14 15  1  0  0  0  0
 15 16  1  0  0  0  0
 15 19  1  0  0  0  0
 15 31  1  0  0  0  0
 16 18  1  0  0  0  0
 16 17  1  0  0  0  0
 16 32  1  0  0  0  0
 17 18  1  0  0  0  0
 17 33  1  0  0  0  0
 17 34  1  0  0  0  0
 18 35  1  0  0  0  0
 18 36  1  0  0  0  0
 19 37  1  0  0  0  0
 19 38  1  0  0  0  0
M  END
> <s_m_source_file>
AV-unprocessed.smi

> <i_m_source_file_index>
2322

> <i_lp_mmshare_version>
43012

> <i_f3d_flags>
0

> <s_epik_input>
W0NIM11uMW5bY0hdbmMxW05IXUMoPU8pW05IXVtDQEBIXTJbQ0gyXVtDSDJdT1tDQEhdKFtDSDJdMilbQ0hdM1tDSDJdW0NIMl0z

> <s_epik_cmdline>
J2VwaWtfcHl0aG9uJywgJy1waCcsICc3LjAnLCAnLXRuJywgJzgnLCAnLW1hJywgJzIwMCcsICctbWV0YWxfYmluZGluZycsICctaW1hZScsICc8aW5maWxlLm1hZT4nLCAnLW9tYWUnLCAnPG91dGZpbGUubWFlPic=

> <r_lp_tautomer_probability>
1

> <r_epik_Ionization_Penalty>
2.16399e-05

> <r_epik_Ionization_Penalty_Charging>
0

> <r_epik_Ionization_Penalty_Neutral>
2.16399e-05

> <r_epik_State_Penalty>
-0

> <r_epik_Charging_Adjusted_Penalty>
0

> <i_epik_Tot_Q>
0

> <i_epik_Tot_abs_Q>
0

> <r_epik_Metal_State_Penalty>
-0

> <b_epik_Metal_Only>
0

> <s_lp_Force_Field>
OPLS_2005

> <r_lp_Energy>
22.5256

> <b_lp_Chiralities_Consistent>
1

> <s_lp_Variant>
AV-unprocessed.smi:2322-1

> <Gold.Version>
5.8.1

> <Gold.Id.Protein>
6NUR|6NUR_protein|mol2

> <Gold.PLP.Fitness>
41.7492

> <Gold.PLP.PLP>
-32.6488

> <Gold.PLP.part.hbond>
-2.4886

> <Gold.PLP.part.metal>
0.0000

> <Gold.PLP.part.buried>
2.2981

> <Gold.PLP.part.nonpolar>
-35.1440

> <Gold.PLP.part.repulsive>
3.6096

> <Gold.PLP.ligand.clash>
0.0000

> <Gold.PLP.ligand.torsion>
0.8871

> <Gold.PLP.Chemscore.Hbond>
2.1148

> <Gold.PLP.Chemscore.CHOScore>
1.1502

> <Gold.PLP.Chemscore.Metal>
0.0000

> <Gold.Chemscore.Hbonds>
donor molecule, donor type, donor heavy atom, donor atom, acceptor molecule, acceptor atom, score
      L1  H     7    24       P1  8028  1.00
      L1  H    10    25       P1  8028  0.91
      P1  H  7989  7998       L1     5  0.26
      L1  C     4    23       P1  7948  0.97
      L1  C     4    23       P1  7957  0.16

> <Gold.PLP.Chemscore.Internal.Correction>
1.0797

> <Gold.Rescore>
     Score         DG    S(hbond)    S(metal)    S(lipo)     H(rot)  DE(clash)    DE(int)     intcor
     13.85     -19.08       2.16        0.00      83.13       1.31       4.27       0.96       ----

> <Gold.Chemscore.Fitness>
13.8511

> <Gold.Chemscore.DG>
-19.0817

> <Gold.Chemscore.ZeroCoef>
-5.4800

> <Gold.Chemscore.Hbond>
2.1622

> <Gold.Chemscore.Metal>
0.0000

> <Gold.Chemscore.Lipo>
83.1321

> <Gold.Chemscore.Internal_Hbond>
0.0000

> <Gold.Chemscore.DEClash>
4.2693

> <Gold.Chemscore.DEInternal>
0.9614

> <Gold.Chemscore.Rot>
1.3072

> <Gold.Chemscore.Internal.Correction>
   9.000000E+99

> <Gold.Chemscore.Hbonds>
donor molecule, donor type, donor heavy atom, donor atom, acceptor molecule, acceptor atom, score
      L1  H     7    24       P1  8028  0.98
      L1  H    10    25       P1  8028  0.66
      P1  H  7989  7998       L1     5  0.16

> <Gold.Chemscore.Hbond.Weighted>
-7.2217

> <Gold.Chemscore.Metal.Weighted>
-0.0000

> <Gold.Chemscore.Lipo.Weighted>
-9.7265

> <Gold.Chemscore.Internal_Hbond.Weighted>
0.0000

> <Gold.Chemscore.DEClash.Weighted>
4.2693

> <Gold.Chemscore.DEInternal.Weighted>
0.9614

> <Gold.Chemscore.Rot.Weighted>
3.3464

> <Gold.Chemscore.Internal.Correction.Weighted>
   9.000000E+99

> <Gold.Protein.RotatedTorsions>
[ 6907 6896 6895 6894 ] final  -24.35 input  -60.11 | X-H torsion
[ 7974 7965 7964 7962 ] final  142.80 input  175.53 | X-H torsion
[ 8008 7997 7996 7995 ] final   87.35 input   59.86 | X-H torsion
[ 10167 10162 10161 10158 ] final  -92.45 input  -65.29 | X-H torsion
[ 10718 10713 10712 10709 ] final  -64.54 input   66.30 | X-H torsion
[ 10763 10752 10751 10750 ] final -138.85 input  -60.55 | X-H torsion
[ 11005 11000 10999 10996 ] final  101.09 input  -57.11 | X-H torsion

> <Gold.Protein.ActiveResidues>
 VAL166  LYS551  ARG553  GLY616  TRP617  ASP618  TYR619  PRO620  LYS621  CYS622 
 ASP623  PHE694  ASN695  SER759  ASP760  ASP761  ALA762  ILE779  LEU786  VAL792 
 PHE793  MET794  SER795  GLU796  ALA797  LYS798  CYS799  TRP800  GLU811  SER814 

> <Gold.Protein.RotatedAtoms>
  151.1908  135.0401  159.8831 H   0  0  0  0  0  0  0  0  0  0  0  0  # atno 6907 bound_to 6896
  152.5439  134.0958  159.8307 H   0  0  0  0  0  0  0  0  0  0  0  0  # atno 6908 bound_to 6896
  151.1086  133.5142  159.2639 H   0  0  0  0  0  0  0  0  0  0  0  0  # atno 6909 bound_to 6896
  144.8976  139.5468  143.5769 H   0  0  0  0  0  0  0  0  0  0  0  0  # atno 7974 bound_to 7965
  155.9742  140.3383  155.6604 H   0  0  0  0  0  0  0  0  0  0  0  0  # atno 8008 bound_to 7997
  155.6634  140.0718  157.2564 H   0  0  0  0  0  0  0  0  0  0  0  0  # atno 8009 bound_to 7997
  154.4174  140.1704  156.1788 H   0  0  0  0  0  0  0  0  0  0  0  0  # atno 8010 bound_to 7997
  140.3347  143.2975  151.9903 H   0  0  0  0  0  0  0  0  0  0  0  0  # atno 10167 bound_to 10162
  156.0723  130.4235  150.1434 H   0  0  0  0  0  0  0  0  0  0  0  0  # atno 10718 bound_to 10713
  154.8626  135.3600  154.5451 H   0  0  0  0  0  0  0  0  0  0  0  0  # atno 10763 bound_to 10752
  153.6072  135.7010  153.5366 H   0  0  0  0  0  0  0  0  0  0  0  0  # atno 10764 bound_to 10752
  153.3240  135.4143  155.1402 H   0  0  0  0  0  0  0  0  0  0  0  0  # atno 10765 bound_to 10752
  139.8772  134.9168  156.4854 H   0  0  0  0  0  0  0  0  0  0  0  0  # atno 11005 bound_to 11000
  146.3090  139.7680  142.9034 LP  0  0  0  0  0  0  0  0  0  0  0  0  # atno 17320 bound_to 7965
  145.3673  141.0336  143.3251 LP  0  0  0  0  0  0  0  0  0  0  0  0  # atno 17321 bound_to 7965
  139.4850  144.6206  151.7262 LP  0  0  0  0  0  0  0  0  0  0  0  0  # atno 17342 bound_to 10162
  140.5365  144.0648  150.6072 LP  0  0  0  0  0  0  0  0  0  0  0  0  # atno 17343 bound_to 10162
  156.9483  130.9766  151.3503 LP  0  0  0  0  0  0  0  0  0  0  0  0  # atno 17370 bound_to 10713
  157.5800  130.8370  149.8510 LP  0  0  0  0  0  0  0  0  0  0  0  0  # atno 17371 bound_to 10713
  140.8697  133.7997  155.9351 LP  0  0  0  0  0  0  0  0  0  0  0  0  # atno 17394 bound_to 11000
  140.8965  134.2431  157.5066 LP  0  0  0  0  0  0  0  0  0  0  0  0  # atno 17395 bound_to 11000

$$$$
