AV-unprocessed.smi:998|AV-procd|sdf|4349|dock2
  -GOLD-   22720 2243D 1   1.00000     0.00000
 Structure written by MMmdl.
 44 46  0  0  0  0  0  0  0  0  1 V2000
  153.3620  141.5488  160.3170 C   0  0  0  0  0  0  0  0  0  0  0  0
  152.0915  142.8618  160.0966 S   0  0  0  0  0  0  0  0  0  0  0  0
  151.2919  142.9719  161.3261 O   0  0  0  0  0  0  0  0  0  0  0  0
  152.7665  144.0489  159.5500 O   0  0  0  0  0  0  0  0  0  0  0  0
  151.0674  142.2170  158.8561 N   0  0  0  0  0  0  0  0  0  0  0  0
  149.7880  142.9086  158.5987 C   0  0  0  0  0  0  0  0  0  0  0  0
  148.8533  142.0461  157.7339 C   0  0  0  0  0  0  0  0  0  0  0  0
  149.5200  141.6373  156.5047 N   0  0  0  0  0  0  0  0  0  0  0  0
  148.6586  140.9965  155.6026 C   0  0  0  0  0  0  0  0  0  0  0  0
  148.3238  141.6462  154.3968 C   0  0  0  0  0  0  0  0  0  0  0  0
  147.4539  141.0024  153.4957 C   0  0  0  0  0  0  0  0  0  0  0  0
  146.9493  139.7225  153.8287 C   0  0  0  0  0  0  0  0  0  0  0  0
  146.0477  138.9786  153.0203 N   0  0  0  0  0  0  0  0  0  0  0  0
  145.8122  137.6552  153.0222 C   0  0  0  0  0  0  0  0  0  0  0  0
  146.3346  136.8404  153.7825 O   0  0  0  0  0  0  0  0  0  0  0  0
  144.9073  137.3265  152.0901 N   0  0  0  0  0  0  0  0  0  0  0  0
  144.4233  136.0086  151.8326 C   0  0  0  0  0  0  0  0  0  0  0  0
  145.4462  134.9159  151.6084 C   0  0  0  0  0  0  0  0  0  0  0  0
  144.6437  135.4369  150.4486 C   0  0  0  0  0  0  0  0  0  0  0  0
  147.3358  139.1668  155.0656 C   0  0  0  0  0  0  0  0  0  0  0  0
  148.1699  139.7777  155.9327 N   0  0  0  0  0  0  0  0  0  0  0  0
  150.7373  140.8852  156.7807 C   0  0  0  0  0  0  0  0  0  0  0  0
  151.7159  141.7195  157.6259 C   0  0  0  0  0  0  0  0  0  0  0  0
  154.1141  141.8927  161.0265 H   0  0  0  0  0  0  0  0  0  0  0  0
  153.8392  141.3395  159.3600 H   0  0  0  0  0  0  0  0  0  0  0  0
  152.9002  140.6411  160.7023 H   0  0  0  0  0  0  0  0  0  0  0  0
  149.2962  143.1441  159.5412 H   0  0  0  0  0  0  0  0  0  0  0  0
  149.9920  143.8579  158.1013 H   0  0  0  0  0  0  0  0  0  0  0  0
  148.5417  141.1632  158.2946 H   0  0  0  0  0  0  0  0  0  0  0  0
  147.9493  142.6069  157.4936 H   0  0  0  0  0  0  0  0  0  0  0  0
  148.7218  142.6236  154.1658 H   0  0  0  0  0  0  0  0  0  0  0  0
  147.1833  141.5087  152.5824 H   0  0  0  0  0  0  0  0  0  0  0  0
  145.4790  139.5280  152.3927 H   0  0  0  0  0  0  0  0  0  0  0  0
  144.5303  138.0662  151.5160 H   0  0  0  0  0  0  0  0  0  0  0  0
  143.5040  135.7065  152.3326 H   0  0  0  0  0  0  0  0  0  0  0  0
  146.4995  135.1867  151.6516 H   0  0  0  0  0  0  0  0  0  0  0  0
  145.2064  133.9209  151.9782 H   0  0  0  0  0  0  0  0  0  0  0  0
  143.8681  134.7900  150.0439 H   0  0  0  0  0  0  0  0  0  0  0  0
  145.1623  136.0544  149.7177 H   0  0  0  0  0  0  0  0  0  0  0  0
  146.9664  138.1985  155.3705 H   0  0  0  0  0  0  0  0  0  0  0  0
  150.4902  139.9634  157.3096 H   0  0  0  0  0  0  0  0  0  0  0  0
  151.2115  140.5964  155.8418 H   0  0  0  0  0  0  0  0  0  0  0  0
  152.0875  142.5696  157.0521 H   0  0  0  0  0  0  0  0  0  0  0  0
  152.5787  141.1059  157.8829 H   0  0  0  0  0  0  0  0  0  0  0  0
  1  2  1  0  0  0  0
  1 24  1  0  0  0  0
  1 25  1  0  0  0  0
  1 26  1  0  0  0  0
  2  3  2  0  0  0  0
  2  4  2  0  0  0  0
  2  5  1  0  0  0  0
  5 23  1  0  0  0  0
  5  6  1  0  0  0  0
  6  7  1  0  0  0  0
  6 27  1  0  0  0  0
  6 28  1  0  0  0  0
  7  8  1  0  0  0  0
  7 29  1  0  0  0  0
  7 30  1  0  0  0  0
  8  9  1  0  0  0  0
  8 22  1  0  0  0  0
  9 21  1  0  0  0  0
  9 10  2  0  0  0  0
 10 11  1  0  0  0  0
 10 31  1  0  0  0  0
 11 12  2  0  0  0  0
 11 32  1  0  0  0  0
 12 13  1  0  0  0  0
 12 20  1  0  0  0  0
 13 14  1  0  0  0  0
 13 33  1  0  0  0  0
 14 15  2  0  0  0  0
 14 16  1  0  0  0  0
 16 17  1  0  0  0  0
 16 34  1  0  0  0  0
 17 19  1  0  0  0  0
 17 18  1  0  0  0  0
 17 35  1  0  0  0  0
 18 19  1  0  0  0  0
 18 36  1  0  0  0  0
 18 37  1  0  0  0  0
 19 38  1  0  0  0  0
 19 39  1  0  0  0  0
 20 21  2  0  0  0  0
 20 40  1  0  0  0  0
 22 23  1  0  0  0  0
 22 41  1  0  0  0  0
 22 42  1  0  0  0  0
 23 43  1  0  0  0  0
 23 44  1  0  0  0  0
M  END
> <s_m_source_file>
AV-unprocessed.smi

> <i_m_source_file_index>
998

> <i_lp_mmshare_version>
43012

> <i_f3d_flags>
0

> <s_epik_input>
W0NIM11TKD1PKSg9TylOMVtDSDJdW0NIMl1OKFtDSDJdW0NIMl0xKWMyW2NIXVtjSF1jKFtjSF1uMilbTkhdQyg9TylbTkhdW0NIXTNbQ0gyXVtDSDJdMw==

> <s_epik_cmdline>
J2VwaWtfcHl0aG9uJywgJy1waCcsICc3LjAnLCAnLXRuJywgJzgnLCAnLW1hJywgJzIwMCcsICctbWV0YWxfYmluZGluZycsICctaW1hZScsICc8aW5maWxlLm1hZT4nLCAnLW9tYWUnLCAnPG91dGZpbGUubWFlPic=

> <r_lp_tautomer_probability>
1

> <r_epik_Ionization_Penalty>
0.0538093

> <r_epik_Ionization_Penalty_Charging>
0

> <r_epik_Ionization_Penalty_Neutral>
0.0538093

> <r_epik_State_Penalty>
0.0462087

> <r_epik_Charging_Adjusted_Penalty>
0.0462087

> <i_epik_Tot_Q>
0

> <i_epik_Tot_abs_Q>
0

> <r_epik_Metal_State_Penalty>
0.0423268

> <b_epik_Metal_Only>
0

> <s_lp_Force_Field>
OPLS_2005

> <r_lp_Energy>
34.3098

> <b_lp_Chiralities_Consistent>
1

> <s_lp_Variant>
AV-unprocessed.smi:998-1

> <Gold.Version>
5.8.1

> <Gold.Id.Protein>
6NUR|6NUR_protein|mol2

> <Gold.PLP.Fitness>
41.8677

> <Gold.PLP.PLP>
-35.7330

> <Gold.PLP.part.hbond>
-3.0000

> <Gold.PLP.part.metal>
0.0000

> <Gold.PLP.part.buried>
-7.4711

> <Gold.PLP.part.nonpolar>
-25.9718

> <Gold.PLP.part.repulsive>
0.3854

> <Gold.PLP.ligand.clash>
0.0000

> <Gold.PLP.ligand.torsion>
0.5293

> <Gold.PLP.Chemscore.Hbond>
2.1440

> <Gold.PLP.Chemscore.CHOScore>
0.0000

> <Gold.PLP.Chemscore.Metal>
0.0000

> <Gold.Chemscore.Hbonds>
donor molecule, donor type, donor heavy atom, donor atom, acceptor molecule, acceptor atom, score
      L1  H    13    33       P1 10175  0.75
      L1  H    16    34       P1 10171  0.96
      P1  H  6933  6945       L1     3  0.37

> <Gold.PLP.Chemscore.Internal.Correction>
0.7614

> <Gold.Rescore>
     Score         DG    S(hbond)    S(metal)    S(lipo)     H(rot)  DE(clash)    DE(int)     intcor
     14.90     -16.81       2.15        0.00      69.36       1.55       0.07       1.83       ----

> <Gold.Chemscore.Fitness>
14.9011

> <Gold.Chemscore.DG>
-16.8064

> <Gold.Chemscore.ZeroCoef>
-5.4800

> <Gold.Chemscore.Hbond>
2.1485

> <Gold.Chemscore.Metal>
0.0000

> <Gold.Chemscore.Lipo>
69.3579

> <Gold.Chemscore.Internal_Hbond>
0.0000

> <Gold.Chemscore.DEClash>
0.0727

> <Gold.Chemscore.DEInternal>
1.8325

> <Gold.Chemscore.Rot>
1.5486

> <Gold.Chemscore.Internal.Correction>
   9.000000E+99

> <Gold.Chemscore.Hbonds>
donor molecule, donor type, donor heavy atom, donor atom, acceptor molecule, acceptor atom, score
      L1  H    13    33       P1 10175  0.69
      L1  H    16    34       P1 10171  0.92
      P1  H  6933  6945       L1     3  0.36

> <Gold.Chemscore.Hbond.Weighted>
-7.1760

> <Gold.Chemscore.Metal.Weighted>
-0.0000

> <Gold.Chemscore.Lipo.Weighted>
-8.1149

> <Gold.Chemscore.Internal_Hbond.Weighted>
0.0000

> <Gold.Chemscore.DEClash.Weighted>
0.0727

> <Gold.Chemscore.DEInternal.Weighted>
1.8325

> <Gold.Chemscore.Rot.Weighted>
3.9645

> <Gold.Chemscore.Internal.Correction.Weighted>
   9.000000E+99

> <Gold.Protein.RotatedTorsions>
[ 6907 6896 6895 6894 ] final  -84.09 input  -60.11 | X-H torsion
[ 7974 7965 7964 7962 ] final   42.47 input  175.53 | X-H torsion
[ 8008 7997 7996 7995 ] final   10.29 input   59.86 | X-H torsion
[ 10167 10162 10161 10158 ] final  165.43 input  -65.29 | X-H torsion
[ 10718 10713 10712 10709 ] final  136.64 input   66.30 | X-H torsion
[ 10763 10752 10751 10750 ] final  -94.92 input  -60.55 | X-H torsion
[ 11005 11000 10999 10996 ] final   24.87 input  -57.11 | X-H torsion

> <Gold.Protein.ActiveResidues>
 VAL166  LYS551  ARG553  GLY616  TRP617  ASP618  TYR619  PRO620  LYS621  CYS622 
 ASP623  PHE694  ASN695  SER759  ASP760  ASP761  ALA762  ILE779  LEU786  VAL792 
 PHE793  MET794  SER795  GLU796  ALA797  LYS798  CYS799  TRP800  GLU811  SER814 

> <Gold.Protein.RotatedAtoms>
  150.6879  134.3412  159.4868 H   0  0  0  0  0  0  0  0  0  0  0  0  # atno 6907 bound_to 6896
  152.1265  134.9164  160.0570 H   0  0  0  0  0  0  0  0  0  0  0  0  # atno 6908 bound_to 6896
  152.0351  133.3919  159.4350 H   0  0  0  0  0  0  0  0  0  0  0  0  # atno 6909 bound_to 6896
  146.0737  139.5296  142.9581 H   0  0  0  0  0  0  0  0  0  0  0  0  # atno 7974 bound_to 7965
  154.7914  140.2836  155.5989 H   0  0  0  0  0  0  0  0  0  0  0  0  # atno 8008 bound_to 7997
  156.2965  140.2604  156.2690 H   0  0  0  0  0  0  0  0  0  0  0  0  # atno 8009 bound_to 7997
  154.9666  140.0377  157.2205 H   0  0  0  0  0  0  0  0  0  0  0  0  # atno 8010 bound_to 7997
  139.4906  144.4132  151.9274 H   0  0  0  0  0  0  0  0  0  0  0  0  # atno 10167 bound_to 10162
  157.4445  131.1060  151.0105 H   0  0  0  0  0  0  0  0  0  0  0  0  # atno 10718 bound_to 10713
  154.7101  135.5139  153.8653 H   0  0  0  0  0  0  0  0  0  0  0  0  # atno 10763 bound_to 10752
  153.0773  135.6620  154.0127 H   0  0  0  0  0  0  0  0  0  0  0  0  # atno 10764 bound_to 10752
  153.9971  135.3014  155.3386 H   0  0  0  0  0  0  0  0  0  0  0  0  # atno 10765 bound_to 10752
  140.3540  134.2197  155.7677 H   0  0  0  0  0  0  0  0  0  0  0  0  # atno 11005 bound_to 11000
  145.6345  141.0297  143.1845 LP  0  0  0  0  0  0  0  0  0  0  0  0  # atno 17320 bound_to 7965
  144.7248  139.7912  143.7369 LP  0  0  0  0  0  0  0  0  0  0  0  0  # atno 17321 bound_to 7965
  140.3574  144.3014  150.5939 LP  0  0  0  0  0  0  0  0  0  0  0  0  # atno 17342 bound_to 10162
  140.5432  143.2219  151.8050 LP  0  0  0  0  0  0  0  0  0  0  0  0  # atno 17343 bound_to 10162
  157.0957  130.5960  149.5449 LP  0  0  0  0  0  0  0  0  0  0  0  0  # atno 17370 bound_to 10713
  155.9962  130.5030  150.7487 LP  0  0  0  0  0  0  0  0  0  0  0  0  # atno 17371 bound_to 10713
  141.2004  133.7989  157.0492 LP  0  0  0  0  0  0  0  0  0  0  0  0  # atno 17394 bound_to 11000
  140.0680  134.9718  157.1419 LP  0  0  0  0  0  0  0  0  0  0  0  0  # atno 17395 bound_to 11000

$$$$
