AV-unprocessed.smi:157|AV-procd|sdf|1320|dock2
  -GOLD-   2262019 13D 1   1.00000     0.00000
 Structure written by MMmdl.
 36 38  0  0  0  0  0  0  0  0  2 V2000
  155.3297  138.8695  153.9678 O   0  0  0  0  0  0  0  0  0  0  0  0
  154.2874  137.9748  154.2936 C   0  0  0  0  0  0  0  0  0  0  0  0
  152.9810  138.7411  154.5553 C   0  0  2  0  0  0  0  0  0  0  0  0
  153.0870  139.4481  155.7896 O   0  0  0  0  0  0  0  0  0  0  0  0
  151.8580  139.4552  156.4541 C   0  0  1  0  0  0  0  0  0  0  0  0
  151.4605  140.8762  156.6935 N   0  0  0  0  0  0  0  0  0  0  0  0
  150.4990  141.5553  156.0332 C   0  0  0  0  0  0  0  0  0  0  0  0
  150.3414  142.8055  156.4337 N   0  3  0  0  0  0  0  0  0  0  0  0
  151.2586  143.0108  157.4426 C   0  0  0  0  0  0  0  0  0  0  0  0
  151.9357  141.7983  157.5981 C   0  0  0  0  0  0  0  0  0  0  0  0
  152.9586  141.4486  158.4933 N   0  0  0  0  0  0  0  0  0  0  0  0
  153.2591  142.1564  159.5336 C   0  0  0  0  0  0  0  0  0  0  0  0
  152.7522  143.3810  159.9355 N   0  0  0  0  0  0  0  0  0  0  0  0
  152.5679  144.5022  159.0314 C   0  0  0  0  0  0  0  0  0  0  0  0
  151.3567  144.3507  158.1022 C   0  0  2  0  0  0  0  0  0  0  0  0
  150.1886  144.6877  158.8219 O   0  0  0  0  0  0  0  0  0  0  0  0
  150.8420  138.7633  155.5457 C   0  0  0  0  0  0  0  0  0  0  0  0
  151.7415  137.8572  154.7330 C   0  0  1  0  0  0  0  0  0  0  0  0
  151.1314  137.5261  153.5026 O   0  0  0  0  0  0  0  0  0  0  0  0
  152.8081  139.4835  153.7737 H   0  0  0  0  0  0  0  0  0  0  0  0
  151.9590  138.9944  157.4371 H   0  0  0  0  0  0  0  0  0  0  0  0
  151.4502  145.0994  157.3148 H   0  0  0  0  0  0  0  0  0  0  0  0
  151.9807  136.9542  155.2969 H   0  0  0  0  0  0  0  0  0  0  0  0
  155.4440  138.8698  153.0294 H   0  0  0  0  0  0  0  0  0  0  0  0
  154.1615  137.2481  153.4901 H   0  0  0  0  0  0  0  0  0  0  0  0
  154.5805  137.4213  155.1858 H   0  0  0  0  0  0  0  0  0  0  0  0
  149.9144  141.1116  155.2471 H   0  0  0  0  0  0  0  0  0  0  0  0
  154.0193  141.7841  160.2218 H   0  0  0  0  0  0  0  0  0  0  0  0
  152.9331  143.6933  160.8792 H   0  0  0  0  0  0  0  0  0  0  0  0
  152.5023  145.4280  159.6041 H   0  0  0  0  0  0  0  0  0  0  0  0
  153.4710  144.5850  158.4251 H   0  0  0  0  0  0  0  0  0  0  0  0
  149.5060  144.9091  158.2074 H   0  0  0  0  0  0  0  0  0  0  0  0
  150.0855  138.2344  156.1262 H   0  0  0  0  0  0  0  0  0  0  0  0
  150.3518  139.4998  154.9059 H   0  0  0  0  0  0  0  0  0  0  0  0
  151.4426  136.6746  153.2333 H   0  0  0  0  0  0  0  0  0  0  0  0
  149.6810  143.4769  156.0630 H   0  0  0  0  0  0  0  0  0  0  0  0
  1  2  1  0  0  0  0
  1 24  1  0  0  0  0
  2  3  1  0  0  0  0
  2 25  1  0  0  0  0
  2 26  1  0  0  0  0
  3 20  1  0  0  0  0
  3 18  1  0  0  0  0
  3  4  1  0  0  0  0
  4  5  1  0  0  0  0
  5 21  1  0  0  0  0
  5  6  1  0  0  0  0
  5 17  1  0  0  0  0
  6 10  1  0  0  0  0
  6  7  1  0  0  0  0
  7  8  2  0  0  0  0
  7 27  1  0  0  0  0
  8  9  1  0  0  0  0
  8 36  1  0  0  0  0
  9 15  1  0  0  0  0
  9 10  2  0  0  0  0
 10 11  1  0  0  0  0
 11 12  2  0  0  0  0
 12 13  1  0  0  0  0
 12 28  1  0  0  0  0
 13 14  1  0  0  0  0
 13 29  1  0  0  0  0
 14 15  1  0  0  0  0
 14 30  1  0  0  0  0
 14 31  1  0  0  0  0
 15 22  1  0  0  0  0
 15 16  1  0  0  0  0
 16 32  1  0  0  0  0
 17 18  1  0  0  0  0
 17 33  1  0  0  0  0
 17 34  1  0  0  0  0
 18 23  1  0  0  0  0
 18 19  1  0  0  0  0
 19 35  1  0  0  0  0
M  CHG  1   8   1
M  END
> <s_m_source_file>
AV-unprocessed.smi

> <i_m_source_file_index>
157

> <i_lp_mmshare_version>
43012

> <i_f3d_flags>
0

> <s_epik_input>
W09IXVtDSDJdW0NASF0xT1tDQEhdKFtDSDJdW0NAQEhdMVtPSF0pbihbY0hdbjIpYyhjMjMpTj1bQ0hdW05IXVtDSDJdW0NASF0zW09IXQ==

> <s_epik_cmdline>
J2VwaWtfcHl0aG9uJywgJy1waCcsICc3LjAnLCAnLXRuJywgJzgnLCAnLW1hJywgJzIwMCcsICctbWV0YWxfYmluZGluZycsICctaW1hZScsICc8aW5maWxlLm1hZT4nLCAnLW9tYWUnLCAnPG91dGZpbGUubWFlPic=

> <r_epik_Ionization_Penalty>
1.68594

> <r_epik_Ionization_Penalty_Charging>
0

> <r_epik_Ionization_Penalty_Neutral>
1.68594

> <r_epik_State_Penalty>
1.79006

> <r_epik_Charging_Adjusted_Penalty>
1.79006

> <i_epik_Tot_Q>
1

> <i_epik_Tot_abs_Q>
1

> <r_epik_Metal_State_Penalty>
5.85324

> <b_epik_Metal_Only>
0

> <s_epik_Chemistry_Notes>
This compound has an imine and may undergo hydrolysis. This compound contains an acetal/aminal-like group ( X-CH(R)-Y where X, Y are N, S, or O) that may be acid/base labile, releasing an aldehyde.

> <s_lp_Force_Field>
OPLS_2005

> <r_lp_Energy>
53.8289

> <b_lp_Chiralities_Consistent>
1

> <s_lp_Variant>
AV-unprocessed.smi:157-30

> <Gold.Version>
5.8.1

> <Gold.Id.Protein>
6NUR|6NUR_protein|mol2

> <Gold.PLP.Fitness>
51.6010

> <Gold.PLP.PLP>
-37.2374

> <Gold.PLP.part.hbond>
-5.8782

> <Gold.PLP.part.metal>
0.0000

> <Gold.PLP.part.buried>
-1.1308

> <Gold.PLP.part.nonpolar>
-30.2288

> <Gold.PLP.part.repulsive>
0.1325

> <Gold.PLP.ligand.clash>
0.0000

> <Gold.PLP.ligand.torsion>
0.3438

> <Gold.PLP.Chemscore.Hbond>
5.0138

> <Gold.PLP.Chemscore.CHOScore>
0.0000

> <Gold.PLP.Chemscore.Metal>
0.0000

> <Gold.Chemscore.Hbonds>
donor molecule, donor type, donor heavy atom, donor atom, acceptor molecule, acceptor atom, score
      L1  H     8    36       P1  8028  1.98
      L1  H    16    32       P1  8029  0.78
      L1  H    19    35       P1  7949  0.46
      P1  H  7997  8009       L1     4  0.91
      P1  H  7997  8010       L1     1  0.67

> <Gold.PLP.Chemscore.Internal.Correction>
0.0100

> <Gold.Rescore>
     Score         DG    S(hbond)    S(metal)    S(lipo)     H(rot)  DE(clash)    DE(int)     intcor
     14.33     -16.51       3.76        0.00      67.26       3.67       1.94       0.24       ----

> <Gold.Chemscore.Fitness>
14.3267

> <Gold.Chemscore.DG>
-16.5109

> <Gold.Chemscore.ZeroCoef>
-5.4800

> <Gold.Chemscore.Hbond>
3.7563

> <Gold.Chemscore.Metal>
0.0000

> <Gold.Chemscore.Lipo>
67.2628

> <Gold.Chemscore.Internal_Hbond>
0.0000

> <Gold.Chemscore.DEClash>
1.9394

> <Gold.Chemscore.DEInternal>
0.2447

> <Gold.Chemscore.Rot>
3.6659

> <Gold.Chemscore.Internal.Correction>
   9.000000E+99

> <Gold.Chemscore.Hbonds>
donor molecule, donor type, donor heavy atom, donor atom, acceptor molecule, acceptor atom, score
      L1  H     8    36       P1  8028  0.92
      L1  H    16    32       P1  8029  0.23
      L1  H    19    35       P1  7949  0.39
      P1  H  7997  8009       L1     4  0.84
      P1  H  7997  8010       L1     1  0.56

> <Gold.Chemscore.Hbond.Weighted>
-12.5459

> <Gold.Chemscore.Metal.Weighted>
-0.0000

> <Gold.Chemscore.Lipo.Weighted>
-7.8697

> <Gold.Chemscore.Internal_Hbond.Weighted>
0.0000

> <Gold.Chemscore.DEClash.Weighted>
1.9394

> <Gold.Chemscore.DEInternal.Weighted>
0.2447

> <Gold.Chemscore.Rot.Weighted>
9.3848

> <Gold.Chemscore.Internal.Correction.Weighted>
   9.000000E+99

> <Gold.Protein.RotatedTorsions>
[ 6907 6896 6895 6894 ] final  -48.39 input  -60.11 | X-H torsion
[ 7974 7965 7964 7962 ] final  -74.36 input  175.53 | X-H torsion
[ 8008 7997 7996 7995 ] final -175.13 input   59.86 | X-H torsion
[ 10167 10162 10161 10158 ] final  110.38 input  -65.29 | X-H torsion
[ 10718 10713 10712 10709 ] final  154.71 input   66.30 | X-H torsion
[ 10763 10752 10751 10750 ] final -168.90 input  -60.55 | X-H torsion
[ 11005 11000 10999 10996 ] final   58.65 input  -57.11 | X-H torsion

> <Gold.Protein.ActiveResidues>
 VAL166  LYS551  ARG553  GLY616  TRP617  ASP618  TYR619  PRO620  LYS621  CYS622 
 ASP623  PHE694  ASN695  SER759  ASP760  ASP761  ALA762  ILE779  LEU786  VAL792 
 PHE793  MET794  SER795  GLU796  ALA797  LYS798  CYS799  TRP800  GLU811  SER814 

> <Gold.Protein.RotatedAtoms>
  150.8910  134.8313  159.7292 H   0  0  0  0  0  0  0  0  0  0  0  0  # atno 6907 bound_to 6896
  152.4837  134.4648  159.9626 H   0  0  0  0  0  0  0  0  0  0  0  0  # atno 6908 bound_to 6896
  151.4711  133.3530  159.2859 H   0  0  0  0  0  0  0  0  0  0  0  0  # atno 6909 bound_to 6896
  145.6401  140.9313  143.1040 H   0  0  0  0  0  0  0  0  0  0  0  0  # atno 7974 bound_to 7965
  155.9788  140.1177  157.0745 H   0  0  0  0  0  0  0  0  0  0  0  0  # atno 8008 bound_to 7997
  154.4177  140.1148  156.5474 H   0  0  0  0  0  0  0  0  0  0  0  0  # atno 8009 bound_to 7997
  155.6499  140.3473  155.4746 H   0  0  0  0  0  0  0  0  0  0  0  0  # atno 8010 bound_to 7997
  139.6692  144.7126  151.1719 H   0  0  0  0  0  0  0  0  0  0  0  0  # atno 10167 bound_to 10162
  157.2281  131.0733  151.1870 H   0  0  0  0  0  0  0  0  0  0  0  0  # atno 10718 bound_to 10713
  154.6580  135.2921  154.9903 H   0  0  0  0  0  0  0  0  0  0  0  0  # atno 10763 bound_to 10752
  154.0973  135.6582  153.4866 H   0  0  0  0  0  0  0  0  0  0  0  0  # atno 10764 bound_to 10752
  153.0413  135.5234  154.7518 H   0  0  0  0  0  0  0  0  0  0  0  0  # atno 10765 bound_to 10752
  140.0362  134.5940  155.9441 H   0  0  0  0  0  0  0  0  0  0  0  0  # atno 11005 bound_to 11000
  144.7161  139.8193  143.7398 LP  0  0  0  0  0  0  0  0  0  0  0  0  # atno 17320 bound_to 7965
  146.1288  139.4319  143.0182 LP  0  0  0  0  0  0  0  0  0  0  0  0  # atno 17321 bound_to 7965
  140.7611  143.5870  150.8835 LP  0  0  0  0  0  0  0  0  0  0  0  0  # atno 17342 bound_to 10162
  139.9534  143.6246  152.3022 LP  0  0  0  0  0  0  0  0  0  0  0  0  # atno 17343 bound_to 10162
  157.3507  130.7080  149.6439 LP  0  0  0  0  0  0  0  0  0  0  0  0  # atno 17370 bound_to 10713
  155.9677  130.4253  150.4649 LP  0  0  0  0  0  0  0  0  0  0  0  0  # atno 17371 bound_to 10713
  141.1858  133.6556  156.5214 LP  0  0  0  0  0  0  0  0  0  0  0  0  # atno 17394 bound_to 11000
  140.4144  134.7243  157.4854 LP  0  0  0  0  0  0  0  0  0  0  0  0  # atno 17395 bound_to 11000

$$$$
