AV-unprocessed.smi:2693|AV-procd|sdf|10399|dock6
  -GOLD-   2272014433D 1   1.00000     0.00000
 Structure written by MMmdl.
 45 47  0  0  0  0  0  0  0  0  1 V2000
  143.7457  132.3993  149.7035 C   0  0  0  0  0  0  0  0  0  0  0  0
  144.8576  132.8166  150.5528 N   0  0  0  0  0  0  0  0  0  0  0  0
  145.9011  131.8344  150.8338 C   0  0  0  0  0  0  0  0  0  0  0  0
  144.9101  134.1037  151.0965 C   0  0  0  0  0  0  0  0  0  0  0  0
  143.8184  134.8696  150.9747 N   0  0  0  0  0  0  0  0  0  0  0  0
  143.8600  136.1142  151.4960 C   0  0  0  0  0  0  0  0  0  0  0  0
  145.0121  136.6052  152.1563 C   0  0  0  0  0  0  0  0  0  0  0  0
  145.1497  137.9017  152.7222 N   0  0  0  0  0  0  0  0  0  0  0  0
  146.0439  138.3333  153.6279 C   0  0  0  0  0  0  0  0  0  0  0  0
  146.9363  137.6529  154.1322 O   0  0  0  0  0  0  0  0  0  0  0  0
  145.8569  139.6287  153.9122 N   0  0  0  0  0  0  0  0  0  0  0  0
  146.6708  140.3903  154.8543 C   0  0  2  0  0  0  0  0  0  0  0  0
  145.8292  141.3174  155.7448 C   0  0  1  0  0  0  0  0  0  0  0  0
  145.7601  141.0729  157.2278 C   0  0  0  0  0  0  0  0  0  0  0  0
  146.8404  142.0077  157.7791 C   0  0  0  0  0  0  0  0  0  0  0  0
  147.7112  142.2418  156.6746 O   0  0  0  0  0  0  0  0  0  0  0  0
  146.9000  142.3719  155.5096 C   0  0  1  0  0  0  0  0  0  0  0  0
  147.3790  141.6277  154.2454 C   0  0  0  0  0  0  0  0  0  0  0  0
  148.8939  141.5180  154.0653 C   0  0  0  0  0  0  0  0  0  0  0  0
  146.8175  142.1939  152.9333 C   0  0  0  0  0  0  0  0  0  0  0  0
  146.1048  135.7174  152.2186 C   0  0  0  0  0  0  0  0  0  0  0  0
  146.0500  134.4753  151.6940 N   0  0  0  0  0  0  0  0  0  0  0  0
  143.6570  133.0587  148.8394 H   0  0  0  0  0  0  0  0  0  0  0  0
  142.8090  132.4347  150.2610 H   0  0  0  0  0  0  0  0  0  0  0  0
  143.8746  131.3827  149.3322 H   0  0  0  0  0  0  0  0  0  0  0  0
  145.9758  131.6552  151.9068 H   0  0  0  0  0  0  0  0  0  0  0  0
  146.8671  132.1932  150.4770 H   0  0  0  0  0  0  0  0  0  0  0  0
  145.7024  130.8776  150.3513 H   0  0  0  0  0  0  0  0  0  0  0  0
  142.9656  136.6998  151.3572 H   0  0  0  0  0  0  0  0  0  0  0  0
  144.5086  138.5965  152.3682 H   0  0  0  0  0  0  0  0  0  0  0  0
  145.1056  140.1206  153.4508 H   0  0  0  0  0  0  0  0  0  0  0  0
  147.3519  139.7732  155.4451 H   0  0  0  0  0  0  0  0  0  0  0  0
  144.8810  141.6003  155.2834 H   0  0  0  0  0  0  0  0  0  0  0  0
  144.7798  141.3028  157.6459 H   0  0  0  0  0  0  0  0  0  0  0  0
  145.9901  140.0330  157.4621 H   0  0  0  0  0  0  0  0  0  0  0  0
  146.4020  142.9563  158.0928 H   0  0  0  0  0  0  0  0  0  0  0  0
  147.3743  141.5811  158.6284 H   0  0  0  0  0  0  0  0  0  0  0  0
  146.5091  143.3791  155.3584 H   0  0  0  0  0  0  0  0  0  0  0  0
  149.3485  142.4948  153.8980 H   0  0  0  0  0  0  0  0  0  0  0  0
  149.1507  140.8828  153.2170 H   0  0  0  0  0  0  0  0  0  0  0  0
  149.3731  141.0851  154.9440 H   0  0  0  0  0  0  0  0  0  0  0  0
  147.2265  143.1820  152.7206 H   0  0  0  0  0  0  0  0  0  0  0  0
  145.7329  142.2993  152.9690 H   0  0  0  0  0  0  0  0  0  0  0  0
  147.0535  141.5530  152.0832 H   0  0  0  0  0  0  0  0  0  0  0  0
  147.0316  136.0022  152.6947 H   0  0  0  0  0  0  0  0  0  0  0  0
  1  2  1  0  0  0  0
  1 23  1  0  0  0  0
  1 24  1  0  0  0  0
  1 25  1  0  0  0  0
  2  3  1  0  0  0  0
  2  4  1  0  0  0  0
  3 26  1  0  0  0  0
  3 27  1  0  0  0  0
  3 28  1  0  0  0  0
  4 22  1  0  0  0  0
  4  5  2  0  0  0  0
  5  6  1  0  0  0  0
  6  7  2  0  0  0  0
  6 29  1  0  0  0  0
  7  8  1  0  0  0  0
  7 21  1  0  0  0  0
  8  9  1  0  0  0  0
  8 30  1  0  0  0  0
  9 10  2  0  0  0  0
  9 11  1  0  0  0  0
 11 12  1  0  0  0  0
 11 31  1  0  0  0  0
 12 18  1  0  0  0  0
 12 13  1  0  0  0  0
 12 32  1  0  0  0  0
 13 17  1  0  0  0  0
 13 14  1  0  0  0  0
 13 33  1  0  0  0  0
 14 15  1  0  0  0  0
 14 34  1  0  0  0  0
 14 35  1  0  0  0  0
 15 16  1  0  0  0  0
 15 36  1  0  0  0  0
 15 37  1  0  0  0  0
 16 17  1  0  0  0  0
 17 18  1  0  0  0  0
 17 38  1  0  0  0  0
 18 19  1  0  0  0  0
 18 20  1  0  0  0  0
 19 39  1  0  0  0  0
 19 40  1  0  0  0  0
 19 41  1  0  0  0  0
 20 42  1  0  0  0  0
 20 43  1  0  0  0  0
 20 44  1  0  0  0  0
 21 22  2  0  0  0  0
 21 45  1  0  0  0  0
M  END
> <s_m_source_file>
AV-unprocessed.smi

> <i_m_source_file_index>
2693

> <i_lp_mmshare_version>
43012

> <i_f3d_flags>
0

> <s_epik_input>
W0NIM11OKFtDSDNdKWMxbltjSF1jKFtjSF1uMSlbTkhdQyg9TylbTkhdW0NASF0yQyhbQ0gzXSkoW0NIM10pW0NAQEhdKFtDQEhdMjMpT1tDSDJdW0NIMl0z

> <s_epik_cmdline>
J2VwaWtfcHl0aG9uJywgJy1waCcsICc3LjAnLCAnLXRuJywgJzgnLCAnLW1hJywgJzIwMCcsICctbWV0YWxfYmluZGluZycsICctaW1hZScsICc8aW5maWxlLm1hZT4nLCAnLW9tYWUnLCAnPG91dGZpbGUubWFlPic=

> <r_lp_tautomer_probability>
1

> <r_epik_Ionization_Penalty>
0.00031779

> <r_epik_Ionization_Penalty_Charging>
0

> <r_epik_Ionization_Penalty_Neutral>
0.00031779

> <r_epik_State_Penalty>
-0

> <r_epik_Charging_Adjusted_Penalty>
0

> <i_epik_Tot_Q>
0

> <i_epik_Tot_abs_Q>
0

> <r_epik_Metal_State_Penalty>
-0

> <b_epik_Metal_Only>
0

> <s_lp_Force_Field>
OPLS_2005

> <r_lp_Energy>
29.3552

> <b_lp_Chiralities_Consistent>
1

> <s_lp_Variant>
AV-unprocessed.smi:2693-3

> <Gold.Version>
5.8.1

> <Gold.Id.Protein>
6NUR|6NUR_protein|mol2

> <Gold.PLP.Fitness>
36.6929

> <Gold.PLP.PLP>
-27.0306

> <Gold.PLP.part.hbond>
-2.1278

> <Gold.PLP.part.metal>
0.0000

> <Gold.PLP.part.buried>
-2.5352

> <Gold.PLP.part.nonpolar>
-22.3584

> <Gold.PLP.part.repulsive>
0.6145

> <Gold.PLP.ligand.clash>
0.0000

> <Gold.PLP.ligand.torsion>
0.2483

> <Gold.PLP.Chemscore.Hbond>
1.9913

> <Gold.PLP.Chemscore.CHOScore>
1.3362

> <Gold.PLP.Chemscore.Metal>
0.0000

> <Gold.Chemscore.Hbonds>
donor molecule, donor type, donor heavy atom, donor atom, acceptor molecule, acceptor atom, score
      L1  H     8    30       P1 10175  0.99
      L1  H    11    31       P1 10175  1.00
      L1  C     6    29       P1 10171  0.38
      L1  C    21    45       P1  7948  0.97

> <Gold.PLP.Chemscore.Internal.Correction>
0.1763

> <Gold.Rescore>
     Score         DG    S(hbond)    S(metal)    S(lipo)     H(rot)  DE(clash)    DE(int)     intcor
     14.54     -16.41       1.95        0.00      59.62       1.00       0.34       1.52       ----

> <Gold.Chemscore.Fitness>
14.5413

> <Gold.Chemscore.DG>
-16.4054

> <Gold.Chemscore.ZeroCoef>
-5.4800

> <Gold.Chemscore.Hbond>
1.9491

> <Gold.Chemscore.Metal>
0.0000

> <Gold.Chemscore.Lipo>
59.6175

> <Gold.Chemscore.Internal_Hbond>
0.0000

> <Gold.Chemscore.DEClash>
0.3398

> <Gold.Chemscore.DEInternal>
1.5243

> <Gold.Chemscore.Rot>
1.0000

> <Gold.Chemscore.Internal.Correction>
   9.000000E+99

> <Gold.Chemscore.Hbonds>
donor molecule, donor type, donor heavy atom, donor atom, acceptor molecule, acceptor atom, score
      L1  H     8    30       P1 10175  0.89
      L1  H    11    31       P1 10175  1.00

> <Gold.Chemscore.Hbond.Weighted>
-6.5101

> <Gold.Chemscore.Metal.Weighted>
-0.0000

> <Gold.Chemscore.Lipo.Weighted>
-6.9752

> <Gold.Chemscore.Internal_Hbond.Weighted>
0.0000

> <Gold.Chemscore.DEClash.Weighted>
0.3398

> <Gold.Chemscore.DEInternal.Weighted>
1.5243

> <Gold.Chemscore.Rot.Weighted>
2.5600

> <Gold.Chemscore.Internal.Correction.Weighted>
   9.000000E+99

> <Gold.Protein.RotatedTorsions>
[ 6907 6896 6895 6894 ] final  -27.09 input  -60.11 | X-H torsion
[ 7974 7965 7964 7962 ] final  -50.91 input  175.53 | X-H torsion
[ 8008 7997 7996 7995 ] final   24.45 input   59.86 | X-H torsion
[ 10167 10162 10161 10158 ] final -133.62 input  -65.29 | X-H torsion
[ 10718 10713 10712 10709 ] final  178.05 input   66.30 | X-H torsion
[ 10763 10752 10751 10750 ] final -134.01 input  -60.55 | X-H torsion
[ 11005 11000 10999 10996 ] final  -96.47 input  -57.11 | X-H torsion

> <Gold.Protein.ActiveResidues>
 VAL166  LYS551  ARG553  GLY616  TRP617  ASP618  TYR619  PRO620  LYS621  CYS622 
 ASP623  PHE694  ASN695  SER759  ASP760  ASP761  ALA762  ILE779  LEU786  VAL792 
 PHE793  MET794  SER795  GLU796  ALA797  LYS798  CYS799  TRP800  GLU811  SER814 

> <Gold.Protein.RotatedAtoms>
  151.1518  135.0231  159.8671 H   0  0  0  0  0  0  0  0  0  0  0  0  # atno 6907 bound_to 6896
  152.5452  134.1380  159.8477 H   0  0  0  0  0  0  0  0  0  0  0  0  # atno 6908 bound_to 6896
  151.1466  133.4889  159.2628 H   0  0  0  0  0  0  0  0  0  0  0  0  # atno 6909 bound_to 6896
  145.9247  140.7803  142.9630 H   0  0  0  0  0  0  0  0  0  0  0  0  # atno 7974 bound_to 7965
  154.9965  140.3120  155.4885 H   0  0  0  0  0  0  0  0  0  0  0  0  # atno 8008 bound_to 7997
  156.2932  140.2240  156.5013 H   0  0  0  0  0  0  0  0  0  0  0  0  # atno 8009 bound_to 7997
  154.7657  140.0456  157.0998 H   0  0  0  0  0  0  0  0  0  0  0  0  # atno 8010 bound_to 7997
  139.8964  143.6660  152.2603 H   0  0  0  0  0  0  0  0  0  0  0  0  # atno 10167 bound_to 10162
  156.8964  130.9864  151.3042 H   0  0  0  0  0  0  0  0  0  0  0  0  # atno 10718 bound_to 10713
  154.8725  135.3748  154.4666 H   0  0  0  0  0  0  0  0  0  0  0  0  # atno 10763 bound_to 10752
  153.5330  135.7027  153.5679 H   0  0  0  0  0  0  0  0  0  0  0  0  # atno 10764 bound_to 10752
  153.3875  135.3981  155.1865 H   0  0  0  0  0  0  0  0  0  0  0  0  # atno 10765 bound_to 10752
  141.1410  133.8100  157.0576 H   0  0  0  0  0  0  0  0  0  0  0  0  # atno 11005 bound_to 11000
  144.6757  140.2031  143.7385 LP  0  0  0  0  0  0  0  0  0  0  0  0  # atno 17320 bound_to 7965
  145.8505  139.2173  143.1775 LP  0  0  0  0  0  0  0  0  0  0  0  0  # atno 17321 bound_to 7965
  139.7064  144.7627  151.1186 LP  0  0  0  0  0  0  0  0  0  0  0  0  # atno 17342 bound_to 10162
  140.7716  143.5389  150.9335 LP  0  0  0  0  0  0  0  0  0  0  0  0  # atno 17343 bound_to 10162
  157.6053  130.8542  149.8865 LP  0  0  0  0  0  0  0  0  0  0  0  0  # atno 17370 bound_to 10713
  156.0604  130.3701  150.0996 LP  0  0  0  0  0  0  0  0  0  0  0  0  # atno 17371 bound_to 10713
  140.0592  134.9764  157.1274 LP  0  0  0  0  0  0  0  0  0  0  0  0  # atno 17394 bound_to 11000
  140.3874  134.2221  155.7167 LP  0  0  0  0  0  0  0  0  0  0  0  0  # atno 17395 bound_to 11000

$$$$
