AV-unprocessed.smi:292|AV-procd|sdf|2250|dock3
  -GOLD-   2262022133D 1   1.00000     0.00000
 Structure written by MMmdl.
 33 34  0  0  0  0  0  0  0  0  1 V2000
  147.1703  143.0185  154.0971 N   0  0  0  0  0  0  0  0  0  0  0  0
  147.7132  141.9966  154.1149 C   0  0  0  0  0  0  0  0  0  0  0  0
  148.3946  140.7133  154.1371 C   0  0  0  0  0  0  0  0  0  0  0  0
  147.7203  139.5447  153.9312 N   0  0  0  0  0  0  0  0  0  0  0  0
  148.7365  138.6983  154.0438 C   0  0  0  0  0  0  0  0  0  0  0  0
  149.9104  139.2882  154.2940 N   0  0  0  0  0  0  0  0  0  0  0  0
  151.2308  138.7162  154.4929 C   0  0  0  0  0  0  0  0  0  0  0  0
  152.0050  139.4703  155.5756 C   0  0  0  0  0  0  0  0  0  0  0  0
  153.1890  139.2055  155.7828 O   0  0  0  0  0  0  0  0  0  0  0  0
  151.3246  140.4074  156.2551 N   0  0  0  0  0  0  0  0  0  0  0  0
  151.8419  141.2125  157.3613 C   0  0  1  0  0  0  0  0  0  0  0  0
  151.0966  142.5636  157.4310 C   0  0  0  0  0  0  0  0  0  0  0  0
  151.8806  143.6714  158.1529 C   0  0  0  0  0  0  0  0  0  0  0  0
  152.1717  143.3953  159.6358 C   0  0  0  0  0  0  0  0  0  0  0  0
  153.1082  142.1972  159.8703 C   0  0  0  0  0  0  0  0  0  0  0  0
  152.4194  140.9169  159.7618 N   0  0  0  0  0  0  0  0  0  0  0  0
  151.8207  140.4075  158.6746 C   0  0  0  0  0  0  0  0  0  0  0  0
  151.2572  139.3143  158.7265 O   0  0  0  0  0  0  0  0  0  0  0  0
  149.7047  140.6266  154.3574 N   0  0  0  0  0  0  0  0  0  0  0  0
  148.6231  137.6283  153.9492 H   0  0  0  0  0  0  0  0  0  0  0  0
  151.1173  137.6680  154.7731 H   0  0  0  0  0  0  0  0  0  0  0  0
  151.7881  138.7422  153.5552 H   0  0  0  0  0  0  0  0  0  0  0  0
  150.3540  140.5513  156.0142 H   0  0  0  0  0  0  0  0  0  0  0  0
  152.8934  141.4097  157.1435 H   0  0  0  0  0  0  0  0  0  0  0  0
  150.8918  142.9194  156.4204 H   0  0  0  0  0  0  0  0  0  0  0  0
  150.1200  142.4299  157.8985 H   0  0  0  0  0  0  0  0  0  0  0  0
  152.8178  143.8546  157.6258 H   0  0  0  0  0  0  0  0  0  0  0  0
  151.3135  144.6000  158.0781 H   0  0  0  0  0  0  0  0  0  0  0  0
  152.6434  144.2842  160.0557 H   0  0  0  0  0  0  0  0  0  0  0  0
  151.2401  143.2636  160.1880 H   0  0  0  0  0  0  0  0  0  0  0  0
  153.9646  142.2277  159.1954 H   0  0  0  0  0  0  0  0  0  0  0  0
  153.5143  142.2543  160.8806 H   0  0  0  0  0  0  0  0  0  0  0  0
  152.3858  140.3594  160.6032 H   0  0  0  0  0  0  0  0  0  0  0  0
  1  2  3  0  0  0  0
  2  3  1  0  0  0  0
  3 19  2  0  0  0  0
  3  4  1  0  0  0  0
  4  5  2  0  0  0  0
  5  6  1  0  0  0  0
  5 20  1  0  0  0  0
  6  7  1  0  0  0  0
  6 19  1  0  0  0  0
  7  8  1  0  0  0  0
  7 21  1  0  0  0  0
  7 22  1  0  0  0  0
  8  9  2  0  0  0  0
  8 10  1  0  0  0  0
 10 11  1  0  0  0  0
 10 23  1  0  0  0  0
 11 17  1  0  0  0  0
 11 12  1  0  0  0  0
 11 24  1  0  0  0  0
 12 13  1  0  0  0  0
 12 25  1  0  0  0  0
 12 26  1  0  0  0  0
 13 14  1  0  0  0  0
 13 27  1  0  0  0  0
 13 28  1  0  0  0  0
 14 15  1  0  0  0  0
 14 29  1  0  0  0  0
 14 30  1  0  0  0  0
 15 16  1  0  0  0  0
 15 31  1  0  0  0  0
 15 32  1  0  0  0  0
 16 17  1  0  0  0  0
 16 33  1  0  0  0  0
 17 18  2  0  0  0  0
M  END
> <s_m_source_file>
AV-unprocessed.smi

> <i_m_source_file_index>
292

> <i_lp_mmshare_version>
43012

> <i_f3d_flags>
0

> <s_epik_input>
TiNDYzFuW2NIXW4objEpW0NIMl1DKD1PKVtOSF1bQ0BASF0yW0NIMl1bQ0gyXVtDSDJdW0NIMl1bTkhdQzI9Tw==

> <s_epik_cmdline>
J2VwaWtfcHl0aG9uJywgJy1waCcsICc3LjAnLCAnLXRuJywgJzgnLCAnLW1hJywgJzIwMCcsICctbWV0YWxfYmluZGluZycsICctaW1hZScsICc8aW5maWxlLm1hZT4nLCAnLW9tYWUnLCAnPG91dGZpbGUubWFlPic=

> <r_lp_tautomer_probability>
1

> <r_epik_Ionization_Penalty>
1.99744e-07

> <r_epik_Ionization_Penalty_Charging>
0

> <r_epik_Ionization_Penalty_Neutral>
1.99744e-07

> <r_epik_State_Penalty>
-0

> <r_epik_Charging_Adjusted_Penalty>
0

> <i_epik_Tot_Q>
0

> <i_epik_Tot_abs_Q>
0

> <r_epik_Metal_State_Penalty>
-0

> <b_epik_Metal_Only>
0

> <s_lp_Force_Field>
OPLS_2005

> <r_lp_Energy>
14.2569

> <b_lp_Chiralities_Consistent>
1

> <s_lp_Variant>
AV-unprocessed.smi:292-2

> <Gold.Version>
5.8.1

> <Gold.Id.Protein>
6NUR|6NUR_protein|mol2

> <Gold.PLP.Fitness>
42.5375

> <Gold.PLP.PLP>
-36.8260

> <Gold.PLP.part.hbond>
-2.9606

> <Gold.PLP.part.metal>
0.0000

> <Gold.PLP.part.buried>
-5.7364

> <Gold.PLP.part.nonpolar>
-30.5562

> <Gold.PLP.part.repulsive>
2.4416

> <Gold.PLP.ligand.clash>
0.0000

> <Gold.PLP.ligand.torsion>
0.6913

> <Gold.PLP.Chemscore.Hbond>
1.4452

> <Gold.PLP.Chemscore.CHOScore>
0.9098

> <Gold.PLP.Chemscore.Metal>
0.0000

> <Gold.Chemscore.Hbonds>
donor molecule, donor type, donor heavy atom, donor atom, acceptor molecule, acceptor atom, score
      P1  H  7989  7998       L1    19  0.23
      P1  H  7997  8010       L1     9  1.00
      P1  H  8022  8030       L1     1  0.21
      L1  C     5    20       P1  7948  0.93

> <Gold.PLP.Chemscore.Internal.Correction>
0.0290

> <Gold.Rescore>
     Score         DG    S(hbond)    S(metal)    S(lipo)     H(rot)  DE(clash)    DE(int)     intcor
      7.75     -11.80       1.49        0.00      58.47       2.14       1.70       2.35       ----

> <Gold.Chemscore.Fitness>
7.7534

> <Gold.Chemscore.DG>
-11.8028

> <Gold.Chemscore.ZeroCoef>
-5.4800

> <Gold.Chemscore.Hbond>
1.4884

> <Gold.Chemscore.Metal>
0.0000

> <Gold.Chemscore.Lipo>
58.4706

> <Gold.Chemscore.Internal_Hbond>
0.0000

> <Gold.Chemscore.DEClash>
1.7042

> <Gold.Chemscore.DEInternal>
2.3452

> <Gold.Chemscore.Rot>
2.1444

> <Gold.Chemscore.Internal.Correction>
   9.000000E+99

> <Gold.Chemscore.Hbonds>
donor molecule, donor type, donor heavy atom, donor atom, acceptor molecule, acceptor atom, score
      P1  H  7989  7998       L1    19  0.01
      P1  H  7997  8010       L1     9  0.94
      P1  H  8022  8030       L1     1  0.18

> <Gold.Chemscore.Hbond.Weighted>
-4.9713

> <Gold.Chemscore.Metal.Weighted>
-0.0000

> <Gold.Chemscore.Lipo.Weighted>
-6.8411

> <Gold.Chemscore.Internal_Hbond.Weighted>
0.0000

> <Gold.Chemscore.DEClash.Weighted>
1.7042

> <Gold.Chemscore.DEInternal.Weighted>
2.3452

> <Gold.Chemscore.Rot.Weighted>
5.4896

> <Gold.Chemscore.Internal.Correction.Weighted>
   9.000000E+99

> <Gold.Protein.RotatedTorsions>
[ 6907 6896 6895 6894 ] final  -50.34 input  -60.11 | X-H torsion
[ 7974 7965 7964 7962 ] final    1.30 input  175.53 | X-H torsion
[ 8008 7997 7996 7995 ] final   84.44 input   59.86 | X-H torsion
[ 10167 10162 10161 10158 ] final  -91.07 input  -65.29 | X-H torsion
[ 10718 10713 10712 10709 ] final  -29.71 input   66.30 | X-H torsion
[ 10763 10752 10751 10750 ] final   61.30 input  -60.55 | X-H torsion
[ 11005 11000 10999 10996 ] final    3.70 input  -57.11 | X-H torsion

> <Gold.Protein.ActiveResidues>
 VAL166  LYS551  ARG553  GLY616  TRP617  ASP618  TYR619  PRO620  LYS621  CYS622 
 ASP623  PHE694  ASN695  SER759  ASP760  ASP761  ALA762  ILE779  LEU786  VAL792 
 PHE793  MET794  SER795  GLU796  ALA797  LYS798  CYS799  TRP800  GLU811  SER814 

> <Gold.Protein.RotatedAtoms>
  150.8716  134.8091  159.7158 H   0  0  0  0  0  0  0  0  0  0  0  0  # atno 6907 bound_to 6896
  152.4719  134.4937  159.9713 H   0  0  0  0  0  0  0  0  0  0  0  0  # atno 6908 bound_to 6896
  151.5025  133.3463  159.2907 H   0  0  0  0  0  0  0  0  0  0  0  0  # atno 6909 bound_to 6896
  146.2439  140.1008  142.8348 H   0  0  0  0  0  0  0  0  0  0  0  0  # atno 7974 bound_to 7965
  155.9371  140.3410  155.6297 H   0  0  0  0  0  0  0  0  0  0  0  0  # atno 8008 bound_to 7997
  155.7085  140.0769  157.2399 H   0  0  0  0  0  0  0  0  0  0  0  0  # atno 8009 bound_to 7997
  154.4095  140.1627  156.2258 H   0  0  0  0  0  0  0  0  0  0  0  0  # atno 8010 bound_to 7997
  140.3486  143.2903  151.9753 H   0  0  0  0  0  0  0  0  0  0  0  0  # atno 10167 bound_to 10162
  156.4089  130.4404  149.7266 H   0  0  0  0  0  0  0  0  0  0  0  0  # atno 10718 bound_to 10713
  152.9946  135.5505  154.6012 H   0  0  0  0  0  0  0  0  0  0  0  0  # atno 10763 bound_to 10752
  154.5353  135.2816  155.1146 H   0  0  0  0  0  0  0  0  0  0  0  0  # atno 10764 bound_to 10752
  154.2445  135.6410  153.5271 H   0  0  0  0  0  0  0  0  0  0  0  0  # atno 10765 bound_to 10752
  140.5901  133.9932  155.8085 H   0  0  0  0  0  0  0  0  0  0  0  0  # atno 11005 bound_to 11000
  145.0570  140.9060  143.4961 LP  0  0  0  0  0  0  0  0  0  0  0  0  # atno 17320 bound_to 7965
  145.1116  139.2753  143.5634 LP  0  0  0  0  0  0  0  0  0  0  0  0  # atno 17321 bound_to 7965
  139.4829  144.6096  151.7459 LP  0  0  0  0  0  0  0  0  0  0  0  0  # atno 17342 bound_to 10162
  140.5241  144.0833  150.6032 LP  0  0  0  0  0  0  0  0  0  0  0  0  # atno 17343 bound_to 10162
  156.4253  130.7788  151.2807 LP  0  0  0  0  0  0  0  0  0  0  0  0  # atno 17370 bound_to 10713
  157.7506  131.0170  150.3569 LP  0  0  0  0  0  0  0  0  0  0  0  0  # atno 17371 bound_to 10713
  141.0940  133.9872  157.3190 LP  0  0  0  0  0  0  0  0  0  0  0  0  # atno 17394 bound_to 11000
  139.9278  135.0201  156.8295 LP  0  0  0  0  0  0  0  0  0  0  0  0  # atno 17395 bound_to 11000

$$$$
