AV-unprocessed.smi:2977|AV-procd|sdf|11367|dock2
  -GOLD-   2272016283D 1   1.00000     0.00000
 Structure written by MMmdl.
 38 39  0  0  0  0  0  0  0  0  1 V2000
  153.2050  139.6180  155.6759 O   0  0  0  0  0  0  0  0  0  0  0  0
  152.7150  139.3606  156.7757 C   0  0  0  0  0  0  0  0  0  0  0  0
  153.2918  138.2246  157.6290 C   0  0  0  0  0  0  0  0  0  0  0  0
  153.7463  138.7024  158.9417 N   0  0  0  0  0  0  0  0  0  0  0  0
  154.1326  140.0312  158.9620 N   0  0  0  0  0  0  0  0  0  0  0  0
  154.5169  140.5622  160.0712 C   0  0  0  0  0  0  0  0  0  0  0  0
  154.5669  139.8133  161.3079 C   0  0  0  0  0  0  0  0  0  0  0  0
  155.0892  140.5805  162.7657 Cl  0  0  0  0  0  0  0  0  0  0  0  0
  154.1983  138.5080  161.2737 C   0  0  0  0  0  0  0  0  0  0  0  0
  154.2372  137.5449  162.7107 Cl  0  0  0  0  0  0  0  0  0  0  0  0
  153.7574  137.8686  160.0266 C   0  0  0  0  0  0  0  0  0  0  0  0
  153.4244  136.6853  159.9513 O   0  0  0  0  0  0  0  0  0  0  0  0
  151.6647  140.0188  157.2885 N   0  0  0  0  0  0  0  0  0  0  0  0
  150.9672  141.1304  156.6479 C   0  0  0  0  0  0  0  0  0  0  0  0
  150.0246  141.8983  157.5992 C   0  0  0  0  0  0  0  0  0  0  0  0
  150.7288  142.8914  158.5127 C   0  0  0  0  0  0  0  0  0  0  0  0
  151.8397  142.5629  159.2010 C   0  0  0  0  0  0  0  0  0  0  0  0
  152.5761  143.5077  160.1338 C   0  0  0  0  0  0  0  0  0  0  0  0
  151.7407  144.7492  160.4882 C   0  0  0  0  0  0  0  0  0  0  0  0
  151.0403  145.3173  159.2477 C   0  0  0  0  0  0  0  0  0  0  0  0
  150.1036  144.2783  158.6050 C   0  0  0  0  0  0  0  0  0  0  0  0
  152.5593  137.4233  157.7453 H   0  0  0  0  0  0  0  0  0  0  0  0
  154.1236  137.7790  157.0807 H   0  0  0  0  0  0  0  0  0  0  0  0
  154.8252  141.6057  160.1372 H   0  0  0  0  0  0  0  0  0  0  0  0
  151.3298  139.7371  158.1986 H   0  0  0  0  0  0  0  0  0  0  0  0
  151.6931  141.8140  156.2056 H   0  0  0  0  0  0  0  0  0  0  0  0
  150.3912  140.7198  155.8184 H   0  0  0  0  0  0  0  0  0  0  0  0
  149.2738  142.4273  157.0111 H   0  0  0  0  0  0  0  0  0  0  0  0
  149.4713  141.1894  158.2158 H   0  0  0  0  0  0  0  0  0  0  0  0
  152.2628  141.5743  159.0986 H   0  0  0  0  0  0  0  0  0  0  0  0
  152.8514  142.9733  161.0427 H   0  0  0  0  0  0  0  0  0  0  0  0
  153.5053  143.8048  159.6472 H   0  0  0  0  0  0  0  0  0  0  0  0
  150.9886  144.4842  161.2323 H   0  0  0  0  0  0  0  0  0  0  0  0
  152.3756  145.5065  160.9484 H   0  0  0  0  0  0  0  0  0  0  0  0
  150.4781  146.2147  159.5069 H   0  0  0  0  0  0  0  0  0  0  0  0
  151.7943  145.6250  158.5219 H   0  0  0  0  0  0  0  0  0  0  0  0
  149.8150  144.6154  157.6089 H   0  0  0  0  0  0  0  0  0  0  0  0
  149.1867  144.1977  159.1896 H   0  0  0  0  0  0  0  0  0  0  0  0
  1  2  2  0  0  0  0
  2  3  1  0  0  0  0
  2 13  1  0  0  0  0
  3  4  1  0  0  0  0
  3 22  1  0  0  0  0
  3 23  1  0  0  0  0
  4 11  1  0  0  0  0
  4  5  1  0  0  0  0
  5  6  2  0  0  0  0
  6  7  1  0  0  0  0
  6 24  1  0  0  0  0
  7  8  1  0  0  0  0
  7  9  2  0  0  0  0
  9 10  1  0  0  0  0
  9 11  1  0  0  0  0
 11 12  2  0  0  0  0
 13 14  1  0  0  0  0
 13 25  1  0  0  0  0
 14 15  1  0  0  0  0
 14 26  1  0  0  0  0
 14 27  1  0  0  0  0
 15 16  1  0  0  0  0
 15 28  1  0  0  0  0
 15 29  1  0  0  0  0
 16 21  1  0  0  0  0
 16 17  2  0  0  0  0
 17 18  1  0  0  0  0
 17 30  1  0  0  0  0
 18 19  1  0  0  0  0
 18 31  1  0  0  0  0
 18 32  1  0  0  0  0
 19 20  1  0  0  0  0
 19 33  1  0  0  0  0
 19 34  1  0  0  0  0
 20 21  1  0  0  0  0
 20 35  1  0  0  0  0
 20 36  1  0  0  0  0
 21 37  1  0  0  0  0
 21 38  1  0  0  0  0
M  END
> <s_m_source_file>
AV-unprocessed.smi

> <i_m_source_file_index>
2977

> <i_lp_mmshare_version>
43012

> <i_f3d_flags>
0

> <s_epik_input>
Tz1jMWMoQ2wpYyhDbClbY0hdbm4xW0NIMl1DKD1PKVtOSF1bQ0gyXVtDSDJdQzI9W0NIXVtDSDJdW0NIMl1bQ0gyXVtDSDJdMg==

> <s_epik_cmdline>
J2VwaWtfcHl0aG9uJywgJy1waCcsICc3LjAnLCAnLXRuJywgJzgnLCAnLW1hJywgJzIwMCcsICctbWV0YWxfYmluZGluZycsICctaW1hZScsICc8aW5maWxlLm1hZT4nLCAnLW9tYWUnLCAnPG91dGZpbGUubWFlPic=

> <r_lp_tautomer_probability>
1

> <r_epik_Ionization_Penalty>
1.81325e-08

> <r_epik_Ionization_Penalty_Charging>
2.89782e-11

> <r_epik_Ionization_Penalty_Neutral>
1.81035e-08

> <r_epik_State_Penalty>
-0

> <r_epik_Charging_Adjusted_Penalty>
2.89782e-11

> <i_epik_Tot_Q>
0

> <i_epik_Tot_abs_Q>
0

> <r_epik_Metal_State_Penalty>
-0

> <b_epik_Metal_Only>
0

> <s_lp_Force_Field>
OPLS_2005

> <r_lp_Energy>
20.3958

> <b_lp_Chiralities_Consistent>
1

> <s_lp_Variant>
AV-unprocessed.smi:2977-1

> <Gold.Version>
5.8.1

> <Gold.Id.Protein>
6NUR|6NUR_protein|mol2

> <Gold.PLP.Fitness>
47.6833

> <Gold.PLP.PLP>
-40.1380

> <Gold.PLP.part.hbond>
-3.0000

> <Gold.PLP.part.metal>
0.0000

> <Gold.PLP.part.buried>
-4.4999

> <Gold.PLP.part.nonpolar>
-32.7404

> <Gold.PLP.part.repulsive>
0.0782

> <Gold.PLP.ligand.clash>
0.0000

> <Gold.PLP.ligand.torsion>
0.6875

> <Gold.PLP.Chemscore.Hbond>
2.9520

> <Gold.PLP.Chemscore.CHOScore>
0.0000

> <Gold.PLP.Chemscore.Metal>
0.0000

> <Gold.Chemscore.Hbonds>
donor molecule, donor type, donor heavy atom, donor atom, acceptor molecule, acceptor atom, score
      P1  H  6896  6907       L1    12  0.62
      P1  H  7997  8008       L1     5  0.79
      P1  H  7997  8009       L1     1  0.74

> <Gold.PLP.Chemscore.Internal.Correction>
0.0642

> <Gold.Rescore>
     Score         DG    S(hbond)    S(metal)    S(lipo)     H(rot)  DE(clash)    DE(int)     intcor
     22.28     -22.99       2.66        0.00     115.16       1.89       0.16       0.56       ----

> <Gold.Chemscore.Fitness>
22.2776

> <Gold.Chemscore.DG>
-22.9912

> <Gold.Chemscore.ZeroCoef>
-5.4800

> <Gold.Chemscore.Hbond>
2.6587

> <Gold.Chemscore.Metal>
0.0000

> <Gold.Chemscore.Lipo>
115.1599

> <Gold.Chemscore.Internal_Hbond>
0.0000

> <Gold.Chemscore.DEClash>
0.1565

> <Gold.Chemscore.DEInternal>
0.5570

> <Gold.Chemscore.Rot>
1.8916

> <Gold.Chemscore.Internal.Correction>
   9.000000E+99

> <Gold.Chemscore.Hbonds>
donor molecule, donor type, donor heavy atom, donor atom, acceptor molecule, acceptor atom, score
      P1  H  6896  6907       L1    12  0.59
      P1  H  7997  8008       L1     5  0.15
      P1  H  7997  8009       L1     1  0.61

> <Gold.Chemscore.Hbond.Weighted>
-8.8799

> <Gold.Chemscore.Metal.Weighted>
-0.0000

> <Gold.Chemscore.Lipo.Weighted>
-13.4737

> <Gold.Chemscore.Internal_Hbond.Weighted>
0.0000

> <Gold.Chemscore.DEClash.Weighted>
0.1565

> <Gold.Chemscore.DEInternal.Weighted>
0.5570

> <Gold.Chemscore.Rot.Weighted>
4.8425

> <Gold.Chemscore.Internal.Correction.Weighted>
   9.000000E+99

> <Gold.Protein.RotatedTorsions>
[ 6907 6896 6895 6894 ] final   19.13 input  -60.11 | X-H torsion
[ 7974 7965 7964 7962 ] final -104.57 input  175.53 | X-H torsion
[ 8008 7997 7996 7995 ] final -124.40 input   59.86 | X-H torsion
[ 10167 10162 10161 10158 ] final   83.86 input  -65.29 | X-H torsion
[ 10718 10713 10712 10709 ] final  173.14 input   66.30 | X-H torsion
[ 10763 10752 10751 10750 ] final -154.28 input  -60.55 | X-H torsion
[ 11005 11000 10999 10996 ] final  -39.24 input  -57.11 | X-H torsion

> <Gold.Protein.ActiveResidues>
 VAL166  LYS551  ARG553  GLY616  TRP617  ASP618  TYR619  PRO620  LYS621  CYS622 
 ASP623  PHE694  ASN695  SER759  ASP760  ASP761  ALA762  ILE779  LEU786  VAL792 
 PHE793  MET794  SER795  GLU796  ALA797  LYS798  CYS799  TRP800  GLU811  SER814 

> <Gold.Protein.RotatedAtoms>
  151.8761  135.0471  160.0483 H   0  0  0  0  0  0  0  0  0  0  0  0  # atno 6907 bound_to 6896
  152.2550  133.5243  159.5356 H   0  0  0  0  0  0  0  0  0  0  0  0  # atno 6908 bound_to 6896
  150.7096  134.0825  159.3945 H   0  0  0  0  0  0  0  0  0  0  0  0  # atno 6909 bound_to 6896
  145.2414  140.9206  143.3147 H   0  0  0  0  0  0  0  0  0  0  0  0  # atno 7974 bound_to 7965
  155.1963  140.0414  157.2909 H   0  0  0  0  0  0  0  0  0  0  0  0  # atno 8008 bound_to 7997
  154.6104  140.2475  155.7647 H   0  0  0  0  0  0  0  0  0  0  0  0  # atno 8009 bound_to 7997
  156.2376  140.2916  156.0364 H   0  0  0  0  0  0  0  0  0  0  0  0  # atno 8010 bound_to 7997
  139.9140  144.6254  150.8508 H   0  0  0  0  0  0  0  0  0  0  0  0  # atno 10167 bound_to 10162
  156.9686  131.0083  151.2910 H   0  0  0  0  0  0  0  0  0  0  0  0  # atno 10718 bound_to 10713
  154.7869  135.3193  154.7865 H   0  0  0  0  0  0  0  0  0  0  0  0  # atno 10763 bound_to 10752
  153.8563  135.6857  153.4791 H   0  0  0  0  0  0  0  0  0  0  0  0  # atno 10764 bound_to 10752
  153.1525  135.4693  154.9596 H   0  0  0  0  0  0  0  0  0  0  0  0  # atno 10765 bound_to 10752
  141.0087  133.6919  156.2160 H   0  0  0  0  0  0  0  0  0  0  0  0  # atno 11005 bound_to 11000
  144.9585  139.4005  143.6367 LP  0  0  0  0  0  0  0  0  0  0  0  0  # atno 17320 bound_to 7965
  146.3327  139.8627  142.8853 LP  0  0  0  0  0  0  0  0  0  0  0  0  # atno 17321 bound_to 7965
  140.7678  143.3345  151.2339 LP  0  0  0  0  0  0  0  0  0  0  0  0  # atno 17342 bound_to 10162
  139.6918  143.9679  152.2863 LP  0  0  0  0  0  0  0  0  0  0  0  0  # atno 17343 bound_to 10162
  157.5608  130.8244  149.8263 LP  0  0  0  0  0  0  0  0  0  0  0  0  # atno 17370 bound_to 10713
  156.0292  130.3770  150.1736 LP  0  0  0  0  0  0  0  0  0  0  0  0  # atno 17371 bound_to 10713
  140.6770  134.4808  157.5588 LP  0  0  0  0  0  0  0  0  0  0  0  0  # atno 17394 bound_to 11000
  139.9077  134.8412  156.1642 LP  0  0  0  0  0  0  0  0  0  0  0  0  # atno 17395 bound_to 11000

$$$$
