AV-unprocessed.smi:2953|AV-procd|sdf|11294|dock2
  -GOLD-   2272016183D 1   1.00000     0.00000
 Structure written by MMmdl.
 45 47  0  0  0  0  0  0  0  0  1 V2000
  151.8927  144.8597  159.5534 C   0  0  0  0  0  0  0  0  0  0  0  0
  152.3161  143.4174  159.7574 C   0  0  0  0  0  0  0  0  0  0  0  0
  153.0286  143.0791  160.9270 C   0  0  0  0  0  0  0  0  0  0  0  0
  153.4321  141.7519  161.1566 C   0  0  0  0  0  0  0  0  0  0  0  0
  153.1247  140.7565  160.2135 C   0  0  0  0  0  0  0  0  0  0  0  0
  152.4172  141.0880  159.0425 C   0  0  0  0  0  0  0  0  0  0  0  0
  152.0031  142.4234  158.7976 C   0  0  0  0  0  0  0  0  0  0  0  0
  151.3114  142.8065  157.6647 O   0  0  0  0  0  0  0  0  0  0  0  0
  150.4563  141.8493  157.0510 C   0  0  0  0  0  0  0  0  0  0  0  0
  151.2218  141.0417  155.9938 C   0  0  0  0  0  0  0  0  0  0  0  0
  150.3913  140.0345  155.3472 N   0  0  0  0  0  0  0  0  0  0  0  0
  150.5447  138.6839  155.3068 C   0  0  0  0  0  0  0  0  0  0  0  0
  151.6786  137.9622  155.9886 C   0  0  1  0  0  0  0  0  0  0  0  0
  153.0339  138.2609  155.3321 C   0  0  0  0  0  0  0  0  0  0  0  0
  151.6977  138.3618  157.3913 N   0  0  0  0  0  0  0  0  0  0  0  0
  151.4332  137.5393  158.4140 C   0  0  0  0  0  0  0  0  0  0  0  0
  151.1448  136.3546  158.2661 O   0  0  0  0  0  0  0  0  0  0  0  0
  149.6393  138.0257  154.5778 N   0  0  0  0  0  0  0  0  0  0  0  0
  148.8012  139.0311  154.1424 C   0  0  0  0  0  0  0  0  0  0  0  0
  147.6376  138.9749  153.3424 C   0  0  0  0  0  0  0  0  0  0  0  0
  146.9337  140.1542  153.0226 C   0  0  0  0  0  0  0  0  0  0  0  0
  147.3834  141.4037  153.4960 C   0  0  0  0  0  0  0  0  0  0  0  0
  148.5424  141.4813  154.2920 C   0  0  0  0  0  0  0  0  0  0  0  0
  149.2410  140.3006  154.6095 C   0  0  0  0  0  0  0  0  0  0  0  0
  151.7384  145.3561  160.5119 H   0  0  0  0  0  0  0  0  0  0  0  0
  150.9603  144.9299  158.9933 H   0  0  0  0  0  0  0  0  0  0  0  0
  152.6680  145.4029  159.0140 H   0  0  0  0  0  0  0  0  0  0  0  0
  153.2672  143.8399  161.6558 H   0  0  0  0  0  0  0  0  0  0  0  0
  153.9766  141.4986  162.0545 H   0  0  0  0  0  0  0  0  0  0  0  0
  153.4340  139.7363  160.3865 H   0  0  0  0  0  0  0  0  0  0  0  0
  152.2089  140.2935  158.3426 H   0  0  0  0  0  0  0  0  0  0  0  0
  150.0435  141.1712  157.7995 H   0  0  0  0  0  0  0  0  0  0  0  0
  149.6230  142.3595  156.5653 H   0  0  0  0  0  0  0  0  0  0  0  0
  151.5842  141.7200  155.2207 H   0  0  0  0  0  0  0  0  0  0  0  0
  152.1146  140.5833  156.4168 H   0  0  0  0  0  0  0  0  0  0  0  0
  151.5326  136.8851  155.9265 H   0  0  0  0  0  0  0  0  0  0  0  0
  153.0142  138.0070  154.2725 H   0  0  0  0  0  0  0  0  0  0  0  0
  153.8326  137.6844  155.7997 H   0  0  0  0  0  0  0  0  0  0  0  0
  153.2962  139.3164  155.4120 H   0  0  0  0  0  0  0  0  0  0  0  0
  151.9116  139.3275  157.5942 H   0  0  0  0  0  0  0  0  0  0  0  0
  151.5055  138.0528  159.3855 H   0  0  0  0  0  0  0  0  0  0  0  0
  147.2854  138.0224  152.9746 H   0  0  0  0  0  0  0  0  0  0  0  0
  146.0450  140.0996  152.4113 H   0  0  0  0  0  0  0  0  0  0  0  0
  146.8382  142.3023  153.2472 H   0  0  0  0  0  0  0  0  0  0  0  0
  148.8883  142.4375  154.6555 H   0  0  0  0  0  0  0  0  0  0  0  0
  1  2  1  0  0  0  0
  1 25  1  0  0  0  0
  1 26  1  0  0  0  0
  1 27  1  0  0  0  0
  2  7  1  0  0  0  0
  2  3  2  0  0  0  0
  3  4  1  0  0  0  0
  3 28  1  0  0  0  0
  4  5  2  0  0  0  0
  4 29  1  0  0  0  0
  5  6  1  0  0  0  0
  5 30  1  0  0  0  0
  6  7  2  0  0  0  0
  6 31  1  0  0  0  0
  7  8  1  0  0  0  0
  8  9  1  0  0  0  0
  9 10  1  0  0  0  0
  9 32  1  0  0  0  0
  9 33  1  0  0  0  0
 10 11  1  0  0  0  0
 10 34  1  0  0  0  0
 10 35  1  0  0  0  0
 11 24  1  0  0  0  0
 11 12  1  0  0  0  0
 12 13  1  0  0  0  0
 12 18  2  0  0  0  0
 13 14  1  0  0  0  0
 13 15  1  0  0  0  0
 13 36  1  0  0  0  0
 14 37  1  0  0  0  0
 14 38  1  0  0  0  0
 14 39  1  0  0  0  0
 15 16  1  0  0  0  0
 15 40  1  0  0  0  0
 16 17  2  0  0  0  0
 16 41  1  0  0  0  0
 18 19  1  0  0  0  0
 19 24  2  0  0  0  0
 19 20  1  0  0  0  0
 20 21  2  0  0  0  0
 20 42  1  0  0  0  0
 21 22  1  0  0  0  0
 21 43  1  0  0  0  0
 22 23  2  0  0  0  0
 22 44  1  0  0  0  0
 23 24  1  0  0  0  0
 23 45  1  0  0  0  0
M  END
> <s_m_source_file>
AV-unprocessed.smi

> <i_m_source_file_index>
2953

> <i_lp_mmshare_version>
43012

> <i_f3d_flags>
0

> <s_epik_input>
W0NIM11jMVtjSF1bY0hdW2NIXVtjSF1jMU9bQ0gyXVtDSDJdbihjKG4yKVtDQEhdKFtDSDNdKVtOSF1bQ0hdPU8pYyhjMjMpW2NIXVtjSF1bY0hdW2NIXTM=

> <s_epik_cmdline>
J2VwaWtfcHl0aG9uJywgJy1waCcsICc3LjAnLCAnLXRuJywgJzgnLCAnLW1hJywgJzIwMCcsICctbWV0YWxfYmluZGluZycsICctaW1hZScsICc8aW5maWxlLm1hZT4nLCAnLW9tYWUnLCAnPG91dGZpbGUubWFlPic=

> <r_lp_tautomer_probability>
1

> <r_epik_Ionization_Penalty>
0.0924205

> <r_epik_Ionization_Penalty_Charging>
0

> <r_epik_Ionization_Penalty_Neutral>
0.0924205

> <r_epik_State_Penalty>
0.0827154

> <r_epik_Charging_Adjusted_Penalty>
0.0827154

> <i_epik_Tot_Q>
0

> <i_epik_Tot_abs_Q>
0

> <r_epik_Metal_State_Penalty>
0.071464

> <b_epik_Metal_Only>
0

> <s_lp_Force_Field>
OPLS_2005

> <r_lp_Energy>
13.3209

> <b_lp_Chiralities_Consistent>
1

> <s_lp_Variant>
AV-unprocessed.smi:2953-2

> <Gold.Version>
5.8.1

> <Gold.Id.Protein>
6NUR|6NUR_protein|mol2

> <Gold.PLP.Fitness>
51.8389

> <Gold.PLP.PLP>
-51.7973

> <Gold.PLP.part.hbond>
-1.0000

> <Gold.PLP.part.metal>
0.0000

> <Gold.PLP.part.buried>
-3.6261

> <Gold.PLP.part.nonpolar>
-46.2793

> <Gold.PLP.part.repulsive>
0.3472

> <Gold.PLP.ligand.clash>
0.0000

> <Gold.PLP.ligand.torsion>
0.7311

> <Gold.PLP.Chemscore.Hbond>
0.4521

> <Gold.PLP.Chemscore.CHOScore>
0.0000

> <Gold.PLP.Chemscore.Metal>
0.0000

> <Gold.Chemscore.Hbonds>
donor molecule, donor type, donor heavy atom, donor atom, acceptor molecule, acceptor atom, score
      P1  H  6896  6907       L1    17  0.62

> <Gold.PLP.Chemscore.Internal.Correction>
0.1474

> <Gold.Rescore>
     Score         DG    S(hbond)    S(metal)    S(lipo)     H(rot)  DE(clash)    DE(int)     intcor
     18.82     -19.62       0.93        0.00     143.66       2.26       0.09       0.71       ----

> <Gold.Chemscore.Fitness>
18.8173

> <Gold.Chemscore.DG>
-19.6160

> <Gold.Chemscore.ZeroCoef>
-5.4800

> <Gold.Chemscore.Hbond>
0.9337

> <Gold.Chemscore.Metal>
0.0000

> <Gold.Chemscore.Lipo>
143.6580

> <Gold.Chemscore.Internal_Hbond>
0.0000

> <Gold.Chemscore.DEClash>
0.0855

> <Gold.Chemscore.DEInternal>
0.7132

> <Gold.Chemscore.Rot>
2.2619

> <Gold.Chemscore.Internal.Correction>
   9.000000E+99

> <Gold.Chemscore.Hbonds>
donor molecule, donor type, donor heavy atom, donor atom, acceptor molecule, acceptor atom, score
      P1  H  6896  6907       L1    17  0.58

> <Gold.Chemscore.Hbond.Weighted>
-3.1186

> <Gold.Chemscore.Metal.Weighted>
-0.0000

> <Gold.Chemscore.Lipo.Weighted>
-16.8080

> <Gold.Chemscore.Internal_Hbond.Weighted>
0.0000

> <Gold.Chemscore.DEClash.Weighted>
0.0855

> <Gold.Chemscore.DEInternal.Weighted>
0.7132

> <Gold.Chemscore.Rot.Weighted>
5.7906

> <Gold.Chemscore.Internal.Correction.Weighted>
   9.000000E+99

> <Gold.Protein.RotatedTorsions>
[ 6907 6896 6895 6894 ] final  -24.50 input  -60.11 | X-H torsion
[ 7974 7965 7964 7962 ] final   91.86 input  175.53 | X-H torsion
[ 8008 7997 7996 7995 ] final  -92.47 input   59.86 | X-H torsion
[ 10167 10162 10161 10158 ] final   49.31 input  -65.29 | X-H torsion
[ 10718 10713 10712 10709 ] final  146.58 input   66.30 | X-H torsion
[ 10763 10752 10751 10750 ] final  -35.99 input  -60.55 | X-H torsion
[ 11005 11000 10999 10996 ] final    6.91 input  -57.11 | X-H torsion

> <Gold.Protein.ActiveResidues>
 VAL166  LYS551  ARG553  GLY616  TRP617  ASP618  TYR619  PRO620  LYS621  CYS622 
 ASP623  PHE694  ASN695  SER759  ASP760  ASP761  ALA762  ILE779  LEU786  VAL792 
 PHE793  MET794  SER795  GLU796  ALA797  LYS798  CYS799  TRP800  GLU811  SER814 

> <Gold.Protein.RotatedAtoms>
  151.1886  135.0392  159.8822 H   0  0  0  0  0  0  0  0  0  0  0  0  # atno 6907 bound_to 6896
  152.5441  134.0982  159.8316 H   0  0  0  0  0  0  0  0  0  0  0  0  # atno 6908 bound_to 6896
  151.1108  133.5127  159.2638 H   0  0  0  0  0  0  0  0  0  0  0  0  # atno 6909 bound_to 6896
  145.5000  139.2276  143.2782 H   0  0  0  0  0  0  0  0  0  0  0  0  # atno 7974 bound_to 7965
  154.7236  140.0508  157.0662 H   0  0  0  0  0  0  0  0  0  0  0  0  # atno 8008 bound_to 7997
  155.0395  140.3167  155.4710 H   0  0  0  0  0  0  0  0  0  0  0  0  # atno 8009 bound_to 7997
  156.2823  140.2135  156.5518 H   0  0  0  0  0  0  0  0  0  0  0  0  # atno 8010 bound_to 7997
  140.2842  144.3121  150.6256 H   0  0  0  0  0  0  0  0  0  0  0  0  # atno 10167 bound_to 10162
  157.3314  131.0921  151.1159 H   0  0  0  0  0  0  0  0  0  0  0  0  # atno 10718 bound_to 10713
  153.8723  135.6830  153.4773 H   0  0  0  0  0  0  0  0  0  0  0  0  # atno 10763 bound_to 10752
  153.1280  135.4710  154.9302 H   0  0  0  0  0  0  0  0  0  0  0  0  # atno 10764 bound_to 10752
  154.7708  135.3238  154.8143 H   0  0  0  0  0  0  0  0  0  0  0  0  # atno 10765 bound_to 10752
  140.5542  134.0254  155.7948 H   0  0  0  0  0  0  0  0  0  0  0  0  # atno 11005 bound_to 11000
  146.2232  140.5800  142.9008 LP  0  0  0  0  0  0  0  0  0  0  0  0  # atno 17320 bound_to 7965
  144.7785  140.5791  143.6621 LP  0  0  0  0  0  0  0  0  0  0  0  0  # atno 17321 bound_to 7965
  140.5786  143.2174  151.7470 LP  0  0  0  0  0  0  0  0  0  0  0  0  # atno 17342 bound_to 10162
  139.4954  144.4113  152.0077 LP  0  0  0  0  0  0  0  0  0  0  0  0  # atno 17343 bound_to 10162
  157.2406  130.6567  149.5888 LP  0  0  0  0  0  0  0  0  0  0  0  0  # atno 17370 bound_to 10713
  155.9696  130.4569  150.5944 LP  0  0  0  0  0  0  0  0  0  0  0  0  # atno 17371 bound_to 10713
  141.1153  133.9550  157.2833 LP  0  0  0  0  0  0  0  0  0  0  0  0  # atno 17394 bound_to 11000
  139.9440  135.0187  156.8795 LP  0  0  0  0  0  0  0  0  0  0  0  0  # atno 17395 bound_to 11000

$$$$
