AV-unprocessed.smi:2224|AV-procd|sdf|8991|dock8
  -GOLD-   2272012203D 1   1.00000     0.00000
 Structure written by MMmdl.
 44 46  0  0  0  0  0  0  0  0  1 V2000
  144.8240  132.1041  150.1276 C   0  0  0  0  0  0  0  0  0  0  0  0
  144.5471  133.1877  151.1484 C   0  0  0  0  0  0  0  0  0  0  0  0
  143.2550  133.3732  151.6762 C   0  0  0  0  0  0  0  0  0  0  0  0
  143.0644  134.4005  152.6212 C   0  0  0  0  0  0  0  0  0  0  0  0
  141.7025  134.6543  153.2330 C   0  0  0  0  0  0  0  0  0  0  0  0
  144.0600  135.2111  153.0398 N   0  0  0  0  0  0  0  0  0  0  0  0
  145.3080  135.0422  152.5368 C   0  0  0  0  0  0  0  0  0  0  0  0
  146.4225  135.8392  152.9091 N   0  0  0  0  0  0  0  0  0  0  0  0
  146.5291  136.6875  153.9467 C   0  0  0  0  0  0  0  0  0  0  0  0
  145.6446  136.9237  154.7703 O   0  0  0  0  0  0  0  0  0  0  0  0
  147.7377  137.2650  153.9755 N   0  0  0  0  0  0  0  0  0  0  0  0
  148.1608  138.2506  154.9632 C   0  0  2  0  0  0  0  0  0  0  0  0
  148.5860  139.5715  154.3212 C   0  0  1  0  0  0  0  0  0  0  0  0
  148.0479  140.9577  154.3263 C   0  0  0  0  0  0  0  0  0  0  0  0
  149.3830  141.7028  154.5952 C   0  0  0  0  0  0  0  0  0  0  0  0
  150.3453  140.6793  154.9496 O   0  0  0  0  0  0  0  0  0  0  0  0
  149.5504  139.6431  155.4888 C   0  0  2  0  0  0  0  0  0  0  0  0
  149.6677  138.1080  155.4011 C   0  0  0  0  0  0  0  0  0  0  0  0
  149.8960  137.3964  156.7350 C   0  0  0  0  0  0  0  0  0  0  0  0
  150.6979  137.5207  154.4147 C   0  0  0  0  0  0  0  0  0  0  0  0
  145.5857  134.0327  151.5880 C   0  0  0  0  0  0  0  0  0  0  0  0
  143.9114  131.5740  149.8531 H   0  0  0  0  0  0  0  0  0  0  0  0
  145.5323  131.3795  150.5295 H   0  0  0  0  0  0  0  0  0  0  0  0
  145.2512  132.5373  149.2228 H   0  0  0  0  0  0  0  0  0  0  0  0
  142.4326  132.7453  151.3653 H   0  0  0  0  0  0  0  0  0  0  0  0
  140.9406  134.0182  152.7814 H   0  0  0  0  0  0  0  0  0  0  0  0
  141.4074  135.6939  153.0870 H   0  0  0  0  0  0  0  0  0  0  0  0
  141.7262  134.4503  154.3037 H   0  0  0  0  0  0  0  0  0  0  0  0
  147.2283  135.7655  152.3064 H   0  0  0  0  0  0  0  0  0  0  0  0
  148.4075  137.0135  153.2635 H   0  0  0  0  0  0  0  0  0  0  0  0
  147.4609  138.3821  155.7936 H   0  0  0  0  0  0  0  0  0  0  0  0
  149.0832  139.3859  153.3662 H   0  0  0  0  0  0  0  0  0  0  0  0
  147.5945  141.2407  153.3760 H   0  0  0  0  0  0  0  0  0  0  0  0
  147.3241  141.1123  155.1279 H   0  0  0  0  0  0  0  0  0  0  0  0
  149.7328  142.2429  153.7150 H   0  0  0  0  0  0  0  0  0  0  0  0
  149.2707  142.4194  155.4099 H   0  0  0  0  0  0  0  0  0  0  0  0
  149.0846  139.9641  156.4278 H   0  0  0  0  0  0  0  0  0  0  0  0
  150.8979  137.5840  157.1223 H   0  0  0  0  0  0  0  0  0  0  0  0
  149.7749  136.3167  156.6406 H   0  0  0  0  0  0  0  0  0  0  0  0
  149.1888  137.7321  157.4942 H   0  0  0  0  0  0  0  0  0  0  0  0
  151.7166  137.6945  154.7625 H   0  0  0  0  0  0  0  0  0  0  0  0
  150.6367  137.9416  153.4130 H   0  0  0  0  0  0  0  0  0  0  0  0
  150.5739  136.4426  154.3084 H   0  0  0  0  0  0  0  0  0  0  0  0
  146.5847  133.9074  151.1955 H   0  0  0  0  0  0  0  0  0  0  0  0
  1  2  1  0  0  0  0
  1 22  1  0  0  0  0
  1 23  1  0  0  0  0
  1 24  1  0  0  0  0
  2 21  1  0  0  0  0
  2  3  2  0  0  0  0
  3  4  1  0  0  0  0
  3 25  1  0  0  0  0
  4  5  1  0  0  0  0
  4  6  2  0  0  0  0
  5 26  1  0  0  0  0
  5 27  1  0  0  0  0
  5 28  1  0  0  0  0
  6  7  1  0  0  0  0
  7  8  1  0  0  0  0
  7 21  2  0  0  0  0
  8  9  1  0  0  0  0
  8 29  1  0  0  0  0
  9 10  2  0  0  0  0
  9 11  1  0  0  0  0
 11 12  1  0  0  0  0
 11 30  1  0  0  0  0
 12 18  1  0  0  0  0
 12 13  1  0  0  0  0
 12 31  1  0  0  0  0
 13 17  1  0  0  0  0
 13 14  1  0  0  0  0
 13 32  1  0  0  0  0
 14 15  1  0  0  0  0
 14 33  1  0  0  0  0
 14 34  1  0  0  0  0
 15 16  1  0  0  0  0
 15 35  1  0  0  0  0
 15 36  1  0  0  0  0
 16 17  1  0  0  0  0
 17 18  1  0  0  0  0
 17 37  1  0  0  0  0
 18 19  1  0  0  0  0
 18 20  1  0  0  0  0
 19 38  1  0  0  0  0
 19 39  1  0  0  0  0
 19 40  1  0  0  0  0
 20 41  1  0  0  0  0
 20 42  1  0  0  0  0
 20 43  1  0  0  0  0
 21 44  1  0  0  0  0
M  END
> <s_m_source_file>
AV-unprocessed.smi

> <i_m_source_file_index>
2224

> <i_lp_mmshare_version>
43012

> <i_f3d_flags>
0

> <s_epik_input>
W0NIM11jMVtjSF1jKFtDSDNdKW5jKFtjSF0xKVtOSF1DKD1PKVtOSF1bQ0BIXTJDKFtDSDNdKShbQ0gzXSlbQ0BIXShbQ0BASF0yMylPW0NIMl1bQ0gyXTM=

> <s_epik_cmdline>
J2VwaWtfcHl0aG9uJywgJy1waCcsICc3LjAnLCAnLXRuJywgJzgnLCAnLW1hJywgJzIwMCcsICctbWV0YWxfYmluZGluZycsICctaW1hZScsICc8aW5maWxlLm1hZT4nLCAnLW9tYWUnLCAnPG91dGZpbGUubWFlPic=

> <r_lp_tautomer_probability>
1

> <r_epik_Ionization_Penalty>
0.000276544

> <r_epik_Ionization_Penalty_Charging>
0

> <r_epik_Ionization_Penalty_Neutral>
0.000276544

> <r_epik_State_Penalty>
-0

> <r_epik_Charging_Adjusted_Penalty>
0

> <i_epik_Tot_Q>
0

> <i_epik_Tot_abs_Q>
0

> <r_epik_Metal_State_Penalty>
-0

> <b_epik_Metal_Only>
0

> <s_lp_Force_Field>
OPLS_2005

> <r_lp_Energy>
62.2425

> <b_lp_Chiralities_Consistent>
1

> <s_lp_Variant>
AV-unprocessed.smi:2224-1

> <Gold.Version>
5.8.1

> <Gold.Id.Protein>
6NUR|6NUR_protein|mol2

> <Gold.PLP.Fitness>
39.7094

> <Gold.PLP.PLP>
-31.1165

> <Gold.PLP.part.hbond>
-3.0000

> <Gold.PLP.part.metal>
0.0000

> <Gold.PLP.part.buried>
-2.8153

> <Gold.PLP.part.nonpolar>
-25.0995

> <Gold.PLP.part.repulsive>
0.2052

> <Gold.PLP.ligand.clash>
0.0000

> <Gold.PLP.ligand.torsion>
0.2048

> <Gold.PLP.Chemscore.Hbond>
2.9120

> <Gold.PLP.Chemscore.CHOScore>
0.0000

> <Gold.PLP.Chemscore.Metal>
0.0000

> <Gold.Chemscore.Hbonds>
donor molecule, donor type, donor heavy atom, donor atom, acceptor molecule, acceptor atom, score
      L1  H     8    29       P1  7948  1.00
      L1  H    11    30       P1  7948  1.00
      P1  H  7989  7998       L1    16  0.90

> <Gold.PLP.Chemscore.Internal.Correction>
0.2664

> <Gold.Rescore>
     Score         DG    S(hbond)    S(metal)    S(lipo)     H(rot)  DE(clash)    DE(int)     intcor
     19.45     -21.26       2.54        0.00      84.26       1.00       0.34       1.47       ----

> <Gold.Chemscore.Fitness>
19.4463

> <Gold.Chemscore.DG>
-21.2632

> <Gold.Chemscore.ZeroCoef>
-5.4800

> <Gold.Chemscore.Hbond>
2.5404

> <Gold.Chemscore.Metal>
0.0000

> <Gold.Chemscore.Lipo>
84.2587

> <Gold.Chemscore.Internal_Hbond>
0.0000

> <Gold.Chemscore.DEClash>
0.3429

> <Gold.Chemscore.DEInternal>
1.4740

> <Gold.Chemscore.Rot>
1.0000

> <Gold.Chemscore.Internal.Correction>
   9.000000E+99

> <Gold.Chemscore.Hbonds>
donor molecule, donor type, donor heavy atom, donor atom, acceptor molecule, acceptor atom, score
      L1  H     8    29       P1  7948  0.96
      L1  H    11    30       P1  7948  0.99
      P1  H  7989  7998       L1    16  0.22

> <Gold.Chemscore.Hbond.Weighted>
-8.4849

> <Gold.Chemscore.Metal.Weighted>
-0.0000

> <Gold.Chemscore.Lipo.Weighted>
-9.8583

> <Gold.Chemscore.Internal_Hbond.Weighted>
0.0000

> <Gold.Chemscore.DEClash.Weighted>
0.3429

> <Gold.Chemscore.DEInternal.Weighted>
1.4740

> <Gold.Chemscore.Rot.Weighted>
2.5600

> <Gold.Chemscore.Internal.Correction.Weighted>
   9.000000E+99

> <Gold.Protein.RotatedTorsions>
[ 6907 6896 6895 6894 ] final  -27.85 input  -60.11 | X-H torsion
[ 7974 7965 7964 7962 ] final -162.38 input  175.53 | X-H torsion
[ 8008 7997 7996 7995 ] final  179.54 input   59.86 | X-H torsion
[ 10167 10162 10161 10158 ] final  -68.70 input  -65.29 | X-H torsion
[ 10718 10713 10712 10709 ] final -173.85 input   66.30 | X-H torsion
[ 10763 10752 10751 10750 ] final  -17.86 input  -60.55 | X-H torsion
[ 11005 11000 10999 10996 ] final -167.42 input  -57.11 | X-H torsion

> <Gold.Protein.ActiveResidues>
 VAL166  LYS551  ARG553  GLY616  TRP617  ASP618  TYR619  PRO620  LYS621  CYS622 
 ASP623  PHE694  ASN695  SER759  ASP760  ASP761  ALA762  ILE779  LEU786  VAL792 
 PHE793  MET794  SER795  GLU796  ALA797  LYS798  CYS799  TRP800  GLU811  SER814 

> <Gold.Protein.RotatedAtoms>
  151.1412  135.0180  159.8626 H   0  0  0  0  0  0  0  0  0  0  0  0  # atno 6907 bound_to 6896
  152.5452  134.1497  159.8523 H   0  0  0  0  0  0  0  0  0  0  0  0  # atno 6908 bound_to 6896
  151.1573  133.4823  159.2627 H   0  0  0  0  0  0  0  0  0  0  0  0  # atno 6909 bound_to 6896
  144.7359  140.3260  143.6162 H   0  0  0  0  0  0  0  0  0  0  0  0  # atno 7974 bound_to 7965
  156.0423  140.1306  157.0142 H   0  0  0  0  0  0  0  0  0  0  0  0  # atno 8008 bound_to 7997
  154.4396  140.1028  156.6325 H   0  0  0  0  0  0  0  0  0  0  0  0  # atno 8009 bound_to 7997
  155.5649  140.3465  155.4502 H   0  0  0  0  0  0  0  0  0  0  0  0  # atno 8010 bound_to 7997
  140.5487  143.2312  151.6952 H   0  0  0  0  0  0  0  0  0  0  0  0  # atno 10167 bound_to 10162
  156.7764  130.9467  151.3120 H   0  0  0  0  0  0  0  0  0  0  0  0  # atno 10718 bound_to 10713
  153.5804  135.7005  153.5466 H   0  0  0  0  0  0  0  0  0  0  0  0  # atno 10763 bound_to 10752
  153.3266  135.4059  155.1461 H   0  0  0  0  0  0  0  0  0  0  0  0  # atno 10764 bound_to 10752
  154.8618  135.3708  154.5331 H   0  0  0  0  0  0  0  0  0  0  0  0  # atno 10765 bound_to 10752
  140.5535  134.5405  157.5128 H   0  0  0  0  0  0  0  0  0  0  0  0  # atno 11005 bound_to 11000
  145.7520  139.1796  143.2316 LP  0  0  0  0  0  0  0  0  0  0  0  0  # atno 17320 bound_to 7965
  146.1053  140.7494  142.9529 LP  0  0  0  0  0  0  0  0  0  0  0  0  # atno 17321 bound_to 7965
  139.5018  144.3852  152.0336 LP  0  0  0  0  0  0  0  0  0  0  0  0  # atno 17342 bound_to 10162
  140.2967  144.3692  150.6072 LP  0  0  0  0  0  0  0  0  0  0  0  0  # atno 17343 bound_to 10162
  157.6667  130.9014  149.9948 LP  0  0  0  0  0  0  0  0  0  0  0  0  # atno 17370 bound_to 10713
  156.1245  130.3645  149.9832 LP  0  0  0  0  0  0  0  0  0  0  0  0  # atno 17371 bound_to 10713
  139.9443  134.7730  156.0600 LP  0  0  0  0  0  0  0  0  0  0  0  0  # atno 17394 bound_to 11000
  141.1157  133.6628  156.3089 LP  0  0  0  0  0  0  0  0  0  0  0  0  # atno 17395 bound_to 11000

$$$$
