AV-unprocessed.smi:2302|AV-procd|sdf|9240|dock10
  -GOLD-   2272012453D 1   1.00000     0.00000
 Structure written by MMmdl.
 39 40  0  0  0  0  0  0  0  0  1 V2000
  142.5593  144.8592  159.7985 C   0  0  0  0  0  0  0  0  0  0  0  0
  143.8526  144.3775  160.4222 C   0  0  0  0  0  0  0  0  0  0  0  0
  143.8459  143.5716  161.5775 C   0  0  0  0  0  0  0  0  0  0  0  0
  145.0823  143.1531  162.1007 C   0  0  0  0  0  0  0  0  0  0  0  0
  146.2660  143.5553  161.4523 C   0  0  0  0  0  0  0  0  0  0  0  0
  146.1855  144.3666  160.2980 C   0  0  0  0  0  0  0  0  0  0  0  0
  147.4344  144.7152  159.7184 N   0  0  0  0  0  0  0  0  0  0  0  0
  148.6455  144.7333  160.3023 C   0  0  0  0  0  0  0  0  0  0  0  0
  148.8794  144.4120  161.4680 O   0  0  0  0  0  0  0  0  0  0  0  0
  149.5884  145.1532  159.4465 N   0  0  0  0  0  0  0  0  0  0  0  0
  151.0005  145.3283  159.7700 C   0  0  0  0  0  0  0  0  0  0  0  0
  151.8079  144.0504  159.4851 C   0  0  2  0  0  0  0  0  0  0  0  0
  151.2398  143.2671  158.2847 C   0  0  0  0  0  0  0  0  0  0  0  0
  151.9662  142.0243  158.0558 N   0  0  0  0  0  0  0  0  0  0  0  0
  151.4300  141.2891  156.9204 C   0  0  0  0  0  0  0  0  0  0  0  0
  151.9530  141.2197  159.2700 C   0  0  0  0  0  0  0  0  0  0  0  0
  152.5050  142.0004  160.4744 C   0  0  0  0  0  0  0  0  0  0  0  0
  151.7661  143.2067  160.6350 O   0  0  0  0  0  0  0  0  0  0  0  0
  144.9875  144.7648  159.8015 N   0  0  0  0  0  0  0  0  0  0  0  0
  141.6939  144.5234  160.3703 H   0  0  0  0  0  0  0  0  0  0  0  0
  142.4647  144.4762  158.7821 H   0  0  0  0  0  0  0  0  0  0  0  0
  142.5395  145.9485  159.7586 H   0  0  0  0  0  0  0  0  0  0  0  0
  142.9199  143.2790  162.0504 H   0  0  0  0  0  0  0  0  0  0  0  0
  145.1232  142.5330  162.9840 H   0  0  0  0  0  0  0  0  0  0  0  0
  147.2239  143.2411  161.8407 H   0  0  0  0  0  0  0  0  0  0  0  0
  147.3996  144.9979  158.7504 H   0  0  0  0  0  0  0  0  0  0  0  0
  149.3059  145.3927  158.5075 H   0  0  0  0  0  0  0  0  0  0  0  0
  151.4238  146.1798  159.2344 H   0  0  0  0  0  0  0  0  0  0  0  0
  151.0632  145.5715  160.8310 H   0  0  0  0  0  0  0  0  0  0  0  0
  152.8449  144.3225  159.2788 H   0  0  0  0  0  0  0  0  0  0  0  0
  150.1843  143.0509  158.4591 H   0  0  0  0  0  0  0  0  0  0  0  0
  151.2866  143.8892  157.3902 H   0  0  0  0  0  0  0  0  0  0  0  0
  152.0082  140.3823  156.7406 H   0  0  0  0  0  0  0  0  0  0  0  0
  151.4711  141.8940  156.0140 H   0  0  0  0  0  0  0  0  0  0  0  0
  150.3914  141.0018  157.0912 H   0  0  0  0  0  0  0  0  0  0  0  0
  150.9338  140.8967  159.4885 H   0  0  0  0  0  0  0  0  0  0  0  0
  152.5427  140.3143  159.1216 H   0  0  0  0  0  0  0  0  0  0  0  0
  152.4195  141.4062  161.3841 H   0  0  0  0  0  0  0  0  0  0  0  0
  153.5632  142.2288  160.3376 H   0  0  0  0  0  0  0  0  0  0  0  0
  1  2  1  0  0  0  0
  1 20  1  0  0  0  0
  1 21  1  0  0  0  0
  1 22  1  0  0  0  0
  2 19  1  0  0  0  0
  2  3  2  0  0  0  0
  3  4  1  0  0  0  0
  3 23  1  0  0  0  0
  4  5  2  0  0  0  0
  4 24  1  0  0  0  0
  5  6  1  0  0  0  0
  5 25  1  0  0  0  0
  6  7  1  0  0  0  0
  6 19  2  0  0  0  0
  7  8  1  0  0  0  0
  7 26  1  0  0  0  0
  8  9  2  0  0  0  0
  8 10  1  0  0  0  0
 10 11  1  0  0  0  0
 10 27  1  0  0  0  0
 11 12  1  0  0  0  0
 11 28  1  0  0  0  0
 11 29  1  0  0  0  0
 12 18  1  0  0  0  0
 12 13  1  0  0  0  0
 12 30  1  0  0  0  0
 13 14  1  0  0  0  0
 13 31  1  0  0  0  0
 13 32  1  0  0  0  0
 14 15  1  0  0  0  0
 14 16  1  0  0  0  0
 15 33  1  0  0  0  0
 15 34  1  0  0  0  0
 15 35  1  0  0  0  0
 16 17  1  0  0  0  0
 16 36  1  0  0  0  0
 16 37  1  0  0  0  0
 17 18  1  0  0  0  0
 17 38  1  0  0  0  0
 17 39  1  0  0  0  0
M  END
> <s_m_source_file>
AV-unprocessed.smi

> <i_m_source_file_index>
2302

> <i_lp_mmshare_version>
43012

> <i_f3d_flags>
0

> <s_epik_input>
W0NIM11jMVtjSF1bY0hdW2NIXWMobjEpW05IXUMoPU8pW05IXVtDSDJdW0NAQEhdMltDSDJdTihbQ0gzXSlbQ0gyXVtDSDJdTzI=

> <s_epik_cmdline>
J2VwaWtfcHl0aG9uJywgJy1waCcsICc3LjAnLCAnLXRuJywgJzgnLCAnLW1hJywgJzIwMCcsICctbWV0YWxfYmluZGluZycsICctaW1hZScsICc8aW5maWxlLm1hZT4nLCAnLW9tYWUnLCAnPG91dGZpbGUubWFlPic=

> <r_epik_Ionization_Penalty>
0.729465

> <r_epik_Ionization_Penalty_Charging>
0

> <r_epik_Ionization_Penalty_Neutral>
0.729465

> <r_epik_State_Penalty>
0.754525

> <r_epik_Charging_Adjusted_Penalty>
0.754525

> <i_epik_Tot_Q>
0

> <i_epik_Tot_abs_Q>
0

> <r_epik_Metal_State_Penalty>
0.754521

> <b_epik_Metal_Only>
0

> <s_lp_Force_Field>
OPLS_2005

> <r_lp_Energy>
19.6921

> <b_lp_Chiralities_Consistent>
1

> <s_lp_Variant>
AV-unprocessed.smi:2302-5

> <Gold.Version>
5.8.1

> <Gold.Id.Protein>
6NUR|6NUR_protein|mol2

> <Gold.PLP.Fitness>
43.1842

> <Gold.PLP.PLP>
-37.2219

> <Gold.PLP.part.hbond>
-3.1360

> <Gold.PLP.part.metal>
0.0000

> <Gold.PLP.part.buried>
-7.8862

> <Gold.PLP.part.nonpolar>
-28.0252

> <Gold.PLP.part.repulsive>
0.8210

> <Gold.PLP.ligand.clash>
0.0000

> <Gold.PLP.ligand.torsion>
0.6146

> <Gold.PLP.Chemscore.Hbond>
2.3971

> <Gold.PLP.Chemscore.CHOScore>
0.0000

> <Gold.PLP.Chemscore.Metal>
0.0000

> <Gold.Chemscore.Hbonds>
donor molecule, donor type, donor heavy atom, donor atom, acceptor molecule, acceptor atom, score
      L1  H     7    26       P1  8029  1.00
      L1  H    10    27       P1  8029  0.99
      P1  H  6933  6944       L1     9  0.59

> <Gold.PLP.Chemscore.Internal.Correction>
0.0002

> <Gold.Rescore>
     Score         DG    S(hbond)    S(metal)    S(lipo)     H(rot)  DE(clash)    DE(int)     intcor
     17.73     -20.02       2.26        0.00      87.15       1.25       0.16       2.14       ----

> <Gold.Chemscore.Fitness>
17.7255

> <Gold.Chemscore.DG>
-20.0158

> <Gold.Chemscore.ZeroCoef>
-5.4800

> <Gold.Chemscore.Hbond>
2.2578

> <Gold.Chemscore.Metal>
0.0000

> <Gold.Chemscore.Lipo>
87.1474

> <Gold.Chemscore.Internal_Hbond>
0.0000

> <Gold.Chemscore.DEClash>
0.1552

> <Gold.Chemscore.DEInternal>
2.1351

> <Gold.Chemscore.Rot>
1.2506

> <Gold.Chemscore.Internal.Correction>
   9.000000E+99

> <Gold.Chemscore.Hbonds>
donor molecule, donor type, donor heavy atom, donor atom, acceptor molecule, acceptor atom, score
      L1  H     7    26       P1  8029  0.99
      L1  H    10    27       P1  8029  0.85
      P1  H  6933  6944       L1     9  0.22

> <Gold.Chemscore.Hbond.Weighted>
-7.5410

> <Gold.Chemscore.Metal.Weighted>
-0.0000

> <Gold.Chemscore.Lipo.Weighted>
-10.1962

> <Gold.Chemscore.Internal_Hbond.Weighted>
0.0000

> <Gold.Chemscore.DEClash.Weighted>
0.1552

> <Gold.Chemscore.DEInternal.Weighted>
2.1351

> <Gold.Chemscore.Rot.Weighted>
3.2015

> <Gold.Chemscore.Internal.Correction.Weighted>
   9.000000E+99

> <Gold.Protein.RotatedTorsions>
[ 6907 6896 6895 6894 ] final  125.26 input  -60.11 | X-H torsion
[ 7974 7965 7964 7962 ] final   54.50 input  175.53 | X-H torsion
[ 8008 7997 7996 7995 ] final  -54.75 input   59.86 | X-H torsion
[ 10167 10162 10161 10158 ] final   94.76 input  -65.29 | X-H torsion
[ 10718 10713 10712 10709 ] final -106.09 input   66.30 | X-H torsion
[ 10763 10752 10751 10750 ] final   82.03 input  -60.55 | X-H torsion
[ 11005 11000 10999 10996 ] final -100.78 input  -57.11 | X-H torsion

> <Gold.Protein.ActiveResidues>
 VAL166  LYS551  ARG553  GLY616  TRP617  ASP618  TYR619  PRO620  LYS621  CYS622 
 ASP623  PHE694  ASN695  SER759  ASP760  ASP761  ALA762  ILE779  LEU786  VAL792 
 PHE793  MET794  SER795  GLU796  ALA797  LYS798  CYS799  TRP800  GLU811  SER814 

> <Gold.Protein.RotatedAtoms>
  152.4007  133.6813  159.6313 H   0  0  0  0  0  0  0  0  0  0  0  0  # atno 6907 bound_to 6896
  150.7899  133.8796  159.3291 H   0  0  0  0  0  0  0  0  0  0  0  0  # atno 6908 bound_to 6896
  151.6562  135.0997  160.0222 H   0  0  0  0  0  0  0  0  0  0  0  0  # atno 6909 bound_to 6896
  145.9601  139.4051  143.0253 H   0  0  0  0  0  0  0  0  0  0  0  0  # atno 7974 bound_to 7965
  154.4172  140.1169  156.5366 H   0  0  0  0  0  0  0  0  0  0  0  0  # atno 8008 bound_to 7997
  155.6551  140.3496  155.4743 H   0  0  0  0  0  0  0  0  0  0  0  0  # atno 8009 bound_to 7997
  155.9760  140.1151  157.0759 H   0  0  0  0  0  0  0  0  0  0  0  0  # atno 8010 bound_to 7997
  139.8053  144.6796  150.9711 H   0  0  0  0  0  0  0  0  0  0  0  0  # atno 10167 bound_to 10162
  156.0374  130.5595  150.7631 H   0  0  0  0  0  0  0  0  0  0  0  0  # atno 10718 bound_to 10713
  153.1167  135.4743  154.9128 H   0  0  0  0  0  0  0  0  0  0  0  0  # atno 10763 bound_to 10752
  154.7536  135.3112  154.8515 H   0  0  0  0  0  0  0  0  0  0  0  0  # atno 10764 bound_to 10752
  153.9089  135.6867  153.4805 H   0  0  0  0  0  0  0  0  0  0  0  0  # atno 10765 bound_to 10752
  141.1257  133.8425  157.1146 H   0  0  0  0  0  0  0  0  0  0  0  0  # atno 11005 bound_to 11000
  145.8051  140.9752  143.0978 LP  0  0  0  0  0  0  0  0  0  0  0  0  # atno 17320 bound_to 7965
  144.6813  139.9850  143.7484 LP  0  0  0  0  0  0  0  0  0  0  0  0  # atno 17321 bound_to 7965
  140.7819  143.4240  151.0797 LP  0  0  0  0  0  0  0  0  0  0  0  0  # atno 17342 bound_to 10162
  139.7909  143.8219  152.3151 LP  0  0  0  0  0  0  0  0  0  0  0  0  # atno 17343 bound_to 10162
  157.5145  131.0927  151.0156 LP  0  0  0  0  0  0  0  0  0  0  0  0  # atno 17370 bound_to 10713
  157.0503  130.5784  149.5369 LP  0  0  0  0  0  0  0  0  0  0  0  0  # atno 17371 bound_to 10713
  140.0254  134.9926  157.0675 LP  0  0  0  0  0  0  0  0  0  0  0  0  # atno 17394 bound_to 11000
  140.4371  134.1719  155.7171 LP  0  0  0  0  0  0  0  0  0  0  0  0  # atno 17395 bound_to 11000

$$$$
