AV-unprocessed.smi:1467|AV-procd|sdf|5956|dock2
  -GOLD-   22720 6 43D 1   1.00000     0.00000
 Structure written by MMmdl.
 41 42  0  0  0  0  0  0  0  0  2 V2000
  151.3863  141.5212  157.9450 C   0  0  0  0  0  0  0  0  0  0  0  0
  151.7837  140.4249  156.9541 C   0  0  0  0  0  0  0  0  0  0  0  0
  152.5990  139.5797  157.3228 O   0  0  0  0  0  0  0  0  0  0  0  0
  151.2330  140.4173  155.7164 N   0  0  0  0  0  0  0  0  0  0  0  0
  150.1938  141.3345  155.2396 C   0  0  0  0  0  0  0  0  0  0  0  0
  148.8928  140.5434  155.0122 C   0  0  0  0  0  0  0  0  0  0  0  0
  149.1020  139.3985  154.0846 N   0  3  0  0  0  0  0  0  0  0  0  0
  147.8496  138.6361  153.8514 C   0  0  0  0  0  0  0  0  0  0  0  0
  146.9996  139.2260  152.7095 C   0  0  0  0  0  0  0  0  0  0  0  0
  145.5967  138.8492  152.8395 N   0  0  0  0  0  0  0  0  0  0  0  0
  145.1612  137.6248  153.1692 C   0  0  0  0  0  0  0  0  0  0  0  0
  145.9137  136.6760  153.3908 O   0  0  0  0  0  0  0  0  0  0  0  0
  143.8198  137.5759  153.2143 N   0  0  0  0  0  0  0  0  0  0  0  0
  143.0106  136.4607  153.5504 C   0  0  0  0  0  0  0  0  0  0  0  0
  141.6384  136.5358  153.9145 C   0  0  0  0  0  0  0  0  0  0  0  0
  141.1426  135.3360  154.1813 N   0  0  0  0  0  0  0  0  0  0  0  0
  142.1856  134.4960  153.9936 N   0  0  0  0  0  0  0  0  0  0  0  0
  143.3432  135.1364  153.6100 C   0  0  0  0  0  0  0  0  0  0  0  0
  150.2544  138.5419  154.4810 C   0  0  0  0  0  0  0  0  0  0  0  0
  151.5235  139.3791  154.7237 C   0  0  0  0  0  0  0  0  0  0  0  0
  142.0935  133.4995  154.1316 H   0  0  0  0  0  0  0  0  0  0  0  0
  150.3177  141.4836  158.1572 H   0  0  0  0  0  0  0  0  0  0  0  0
  151.6373  142.5070  157.5532 H   0  0  0  0  0  0  0  0  0  0  0  0
  151.9171  141.3950  158.8893 H   0  0  0  0  0  0  0  0  0  0  0  0
  150.0011  142.1683  155.9130 H   0  0  0  0  0  0  0  0  0  0  0  0
  150.5227  141.7865  154.3026 H   0  0  0  0  0  0  0  0  0  0  0  0
  148.5155  140.1709  155.9663 H   0  0  0  0  0  0  0  0  0  0  0  0
  148.1295  141.2091  154.6070 H   0  0  0  0  0  0  0  0  0  0  0  0
  148.0853  137.5888  153.6562 H   0  0  0  0  0  0  0  0  0  0  0  0
  147.2563  138.6525  154.7669 H   0  0  0  0  0  0  0  0  0  0  0  0
  147.0942  140.3131  152.6830 H   0  0  0  0  0  0  0  0  0  0  0  0
  147.3411  138.8601  151.7419 H   0  0  0  0  0  0  0  0  0  0  0  0
  144.9106  139.5718  152.6759 H   0  0  0  0  0  0  0  0  0  0  0  0
  143.3236  138.4253  152.9878 H   0  0  0  0  0  0  0  0  0  0  0  0
  140.9990  137.4028  153.9919 H   0  0  0  0  0  0  0  0  0  0  0  0
  144.2640  134.6035  153.4246 H   0  0  0  0  0  0  0  0  0  0  0  0
  150.0002  137.9893  155.3871 H   0  0  0  0  0  0  0  0  0  0  0  0
  150.4622  137.8039  153.7074 H   0  0  0  0  0  0  0  0  0  0  0  0
  151.8440  139.8527  153.7947 H   0  0  0  0  0  0  0  0  0  0  0  0
  152.3447  138.7253  155.0208 H   0  0  0  0  0  0  0  0  0  0  0  0
  149.3496  139.8135  153.1976 H   0  0  0  0  0  0  0  0  0  0  0  0
  1  2  1  0  0  0  0
  1 22  1  0  0  0  0
  1 23  1  0  0  0  0
  1 24  1  0  0  0  0
  2  3  2  0  0  0  0
  2  4  1  0  0  0  0
  4 20  1  0  0  0  0
  4  5  1  0  0  0  0
  5  6  1  0  0  0  0
  5 25  1  0  0  0  0
  5 26  1  0  0  0  0
  6  7  1  0  0  0  0
  6 27  1  0  0  0  0
  6 28  1  0  0  0  0
  7  8  1  0  0  0  0
  7 19  1  0  0  0  0
  7 41  1  0  0  0  0
  8  9  1  0  0  0  0
  8 29  1  0  0  0  0
  8 30  1  0  0  0  0
  9 10  1  0  0  0  0
  9 31  1  0  0  0  0
  9 32  1  0  0  0  0
 10 11  1  0  0  0  0
 10 33  1  0  0  0  0
 11 12  2  0  0  0  0
 11 13  1  0  0  0  0
 13 14  1  0  0  0  0
 13 34  1  0  0  0  0
 14 18  2  0  0  0  0
 14 15  1  0  0  0  0
 15 16  2  0  0  0  0
 15 35  1  0  0  0  0
 16 17  1  0  0  0  0
 17 21  1  0  0  0  0
 17 18  1  0  0  0  0
 18 36  1  0  0  0  0
 19 20  1  0  0  0  0
 19 37  1  0  0  0  0
 19 38  1  0  0  0  0
 20 39  1  0  0  0  0
 20 40  1  0  0  0  0
M  CHG  1   7   1
M  END
> <s_m_source_file>
AV-unprocessed.smi

> <i_m_source_file_index>
1467

> <i_lp_mmshare_version>
43012

> <i_f3d_flags>
0

> <s_epik_input>
W0NIM11DKD1PKU4xW0NIMl1bQ0gyXU4oW0NIMl1bQ0gyXTEpW0NIMl1bQ0gyXVtOSF1DKD1PKVtOSF1jMltjSF1uW25IXVtjSF0y

> <s_epik_cmdline>
J2VwaWtfcHl0aG9uJywgJy1waCcsICc3LjAnLCAnLXRuJywgJzgnLCAnLW1hJywgJzIwMCcsICctbWV0YWxfYmluZGluZycsICctaW1hZScsICc8aW5maWxlLm1hZT4nLCAnLW9tYWUnLCAnPG91dGZpbGUubWFlPic=

> <r_lp_tautomer_probability>
0.5

> <r_epik_Ionization_Penalty>
0.630073

> <r_epik_Ionization_Penalty_Charging>
0.630034

> <r_epik_Ionization_Penalty_Neutral>
3.91951e-05

> <r_epik_State_Penalty>
0.646805

> <r_epik_Charging_Adjusted_Penalty>
1.27684

> <i_epik_Tot_Q>
1

> <i_epik_Tot_abs_Q>
1

> <r_epik_Metal_State_Penalty>
0.646807

> <b_epik_Metal_Only>
0

> <s_lp_Force_Field>
OPLS_2005

> <r_lp_Energy>
42.6294

> <b_lp_Chiralities_Consistent>
1

> <s_lp_Variant>
AV-unprocessed.smi:1467-2

> <Gold.Version>
5.8.1

> <Gold.Id.Protein>
6NUR|6NUR_protein|mol2

> <Gold.PLP.Fitness>
46.9915

> <Gold.PLP.PLP>
-31.6749

> <Gold.PLP.part.hbond>
-6.2060

> <Gold.PLP.part.metal>
0.0000

> <Gold.PLP.part.buried>
-0.5226

> <Gold.PLP.part.nonpolar>
-24.0964

> <Gold.PLP.part.repulsive>
0.3949

> <Gold.PLP.ligand.clash>
0.0000

> <Gold.PLP.ligand.torsion>
0.6949

> <Gold.PLP.Chemscore.Hbond>
5.5532

> <Gold.PLP.Chemscore.CHOScore>
0.0000

> <Gold.PLP.Chemscore.Metal>
0.0000

> <Gold.Chemscore.Hbonds>
donor molecule, donor type, donor heavy atom, donor atom, acceptor molecule, acceptor atom, score
      L1  H     7    41       P1  7957  0.91
      L1  H    10    33       P1 10175  1.00
      L1  H    13    34       P1 10175  0.70
      L1  H    17    21       P1 10957  1.00
      P1  H  7997  8009       L1     3  1.00
      P1  H 11000 11005       L1    16  0.87

> <Gold.PLP.Chemscore.Internal.Correction>
0.0469

> <Gold.Rescore>
     Score         DG    S(hbond)    S(metal)    S(lipo)     H(rot)  DE(clash)    DE(int)     intcor
     19.84     -24.49       4.89        0.00      61.14       1.75       1.64       3.02       ----

> <Gold.Chemscore.Fitness>
19.8356

> <Gold.Chemscore.DG>
-24.4923

> <Gold.Chemscore.ZeroCoef>
-5.4800

> <Gold.Chemscore.Hbond>
4.8930

> <Gold.Chemscore.Metal>
0.0000

> <Gold.Chemscore.Lipo>
61.1366

> <Gold.Chemscore.Internal_Hbond>
0.0000

> <Gold.Chemscore.DEClash>
1.6376

> <Gold.Chemscore.DEInternal>
3.0192

> <Gold.Chemscore.Rot>
1.7513

> <Gold.Chemscore.Internal.Correction>
   9.000000E+99

> <Gold.Chemscore.Hbonds>
donor molecule, donor type, donor heavy atom, donor atom, acceptor molecule, acceptor atom, score
      L1  H     7    41       P1  7957  0.87
      L1  H    10    33       P1 10175  0.93
      L1  H    13    34       P1 10175  0.70
      L1  H    17    21       P1 10957  0.98
      P1  H  7997  8009       L1     3  0.47
      P1  H 11000 11005       L1    16  0.20

> <Gold.Chemscore.Hbond.Weighted>
-16.3426

> <Gold.Chemscore.Metal.Weighted>
-0.0000

> <Gold.Chemscore.Lipo.Weighted>
-7.1530

> <Gold.Chemscore.Internal_Hbond.Weighted>
0.0000

> <Gold.Chemscore.DEClash.Weighted>
1.6376

> <Gold.Chemscore.DEInternal.Weighted>
3.0192

> <Gold.Chemscore.Rot.Weighted>
4.4833

> <Gold.Chemscore.Internal.Correction.Weighted>
   9.000000E+99

> <Gold.Protein.RotatedTorsions>
[ 6907 6896 6895 6894 ] final  -51.59 input  -60.11 | X-H torsion
[ 7974 7965 7964 7962 ] final   84.91 input  175.53 | X-H torsion
[ 8008 7997 7996 7995 ] final -168.66 input   59.86 | X-H torsion
[ 10167 10162 10161 10158 ] final -169.37 input  -65.29 | X-H torsion
[ 10718 10713 10712 10709 ] final -110.55 input   66.30 | X-H torsion
[ 10763 10752 10751 10750 ] final   87.31 input  -60.55 | X-H torsion
[ 11005 11000 10999 10996 ] final   39.73 input  -57.11 | X-H torsion

> <Gold.Protein.ActiveResidues>
 VAL166  LYS551  ARG553  GLY616  TRP617  ASP618  TYR619  PRO620  LYS621  CYS622 
 ASP623  PHE694  ASN695  SER759  ASP760  ASP761  ALA762  ILE779  LEU786  VAL792 
 PHE793  MET794  SER795  GLU796  ALA797  LYS798  CYS799  TRP800  GLU811  SER814 

> <Gold.Protein.RotatedAtoms>
  150.8597  134.7946  159.7072 H   0  0  0  0  0  0  0  0  0  0  0  0  # atno 6907 bound_to 6896
  152.4638  134.5120  159.9766 H   0  0  0  0  0  0  0  0  0  0  0  0  # atno 6908 bound_to 6896
  151.5226  133.3425  159.2939 H   0  0  0  0  0  0  0  0  0  0  0  0  # atno 6909 bound_to 6896
  145.5924  139.2340  143.2292 H   0  0  0  0  0  0  0  0  0  0  0  0  # atno 7974 bound_to 7965
  155.8944  140.1030  157.1395 H   0  0  0  0  0  0  0  0  0  0  0  0  # atno 8008 bound_to 7997
  154.4018  140.1304  156.4420 H   0  0  0  0  0  0  0  0  0  0  0  0  # atno 8009 bound_to 7997
  155.7496  140.3465  155.5146 H   0  0  0  0  0  0  0  0  0  0  0  0  # atno 8010 bound_to 7997
  139.5927  144.1179  152.1653 H   0  0  0  0  0  0  0  0  0  0  0  0  # atno 10167 bound_to 10162
  156.0597  130.5821  150.8253 H   0  0  0  0  0  0  0  0  0  0  0  0  # atno 10718 bound_to 10713
  153.1656  135.4548  154.9832 H   0  0  0  0  0  0  0  0  0  0  0  0  # atno 10763 bound_to 10752
  154.7929  135.3227  154.7737 H   0  0  0  0  0  0  0  0  0  0  0  0  # atno 10764 bound_to 10752
  153.8221  135.6946  153.4880 H   0  0  0  0  0  0  0  0  0  0  0  0  # atno 10765 bound_to 10752
  140.1999  134.3883  155.8102 H   0  0  0  0  0  0  0  0  0  0  0  0  # atno 11005 bound_to 11000
  146.1637  140.6750  142.9265 LP  0  0  0  0  0  0  0  0  0  0  0  0  # atno 17320 bound_to 7965
  144.7345  140.4769  143.6913 LP  0  0  0  0  0  0  0  0  0  0  0  0  # atno 17321 bound_to 7965
  140.0757  144.5742  150.7159 LP  0  0  0  0  0  0  0  0  0  0  0  0  # atno 17342 bound_to 10162
  140.7186  143.2567  151.4352 LP  0  0  0  0  0  0  0  0  0  0  0  0  # atno 17343 bound_to 10162
  157.5596  131.0945  150.9578 LP  0  0  0  0  0  0  0  0  0  0  0  0  # atno 17370 bound_to 10713
  156.9818  130.5530  149.5297 LP  0  0  0  0  0  0  0  0  0  0  0  0  # atno 17371 bound_to 10713
  141.2227  133.7088  156.8240 LP  0  0  0  0  0  0  0  0  0  0  0  0  # atno 17394 bound_to 11000
  140.2066  134.8858  157.3228 LP  0  0  0  0  0  0  0  0  0  0  0  0  # atno 17395 bound_to 11000

$$$$
