AV-unprocessed.smi:604|AV-procd|sdf|3038|dock2
  -GOLD-   2262023553D 1   1.00000     0.00000
 Structure written by MMmdl.
 49 51  0  0  0  0  0  0  0  0  2 V2000
  143.0548  135.9073  152.7520 O   0  0  0  0  0  0  0  0  0  0  0  0
  143.1506  137.1321  152.6810 C   0  0  0  0  0  0  0  0  0  0  0  0
  142.1658  138.0069  152.9483 N   0  0  0  0  0  0  0  0  0  0  0  0
  140.8358  137.7367  153.3706 C   0  0  0  0  0  0  0  0  0  0  0  0
  139.7092  138.5116  153.0019 C   0  0  0  0  0  0  0  0  0  0  0  0
  138.4381  138.1300  153.4733 C   0  0  0  0  0  0  0  0  0  0  0  0
  138.3380  136.9862  154.2887 C   0  0  0  0  0  0  0  0  0  0  0  0
  139.4007  136.2303  154.6362 N   0  0  0  0  0  0  0  0  0  0  0  0
  140.6158  136.6011  154.1793 C   0  0  0  0  0  0  0  0  0  0  0  0
  144.2692  137.7628  152.2943 N   0  0  0  0  0  0  0  0  0  0  0  0
  145.5196  137.1062  151.9124 C   0  0  2  0  0  0  0  0  0  0  0  0
  146.1393  136.3807  153.1197 C   0  0  0  0  0  0  0  0  0  0  0  0
  146.7230  137.3632  154.1530 C   0  0  0  0  0  0  0  0  0  0  0  0
  147.7040  138.2878  153.5271 N   0  3  2  0  0  0  0  0  0  0  0  0
  148.3929  139.1563  154.5172 C   0  0  0  0  0  0  0  0  0  0  0  0
  149.9228  139.1498  154.3294 C   0  0  0  0  0  0  0  0  0  0  0  0
  150.4993  137.7426  154.1501 C   0  0  0  0  0  0  0  0  0  0  0  0
  151.9951  137.8794  154.4523 C   0  0  0  0  0  0  0  0  0  0  0  0
  152.1403  139.1246  155.3386 C   0  0  0  0  0  0  0  0  0  0  0  0
  150.7288  139.6948  155.5132 C   0  0  0  0  0  0  0  0  0  0  0  0
  147.0921  139.0523  152.4089 C   0  0  0  0  0  0  0  0  0  0  0  0
  146.5393  138.1055  151.3301 C   0  0  0  0  0  0  0  0  0  0  0  0
  142.3717  138.9786  152.7684 H   0  0  0  0  0  0  0  0  0  0  0  0
  139.7902  139.3754  152.3610 H   0  0  0  0  0  0  0  0  0  0  0  0
  137.5585  138.6995  153.2116 H   0  0  0  0  0  0  0  0  0  0  0  0
  137.3781  136.6665  154.6666 H   0  0  0  0  0  0  0  0  0  0  0  0
  141.4423  135.9713  154.4753 H   0  0  0  0  0  0  0  0  0  0  0  0
  144.2569  138.7720  152.2688 H   0  0  0  0  0  0  0  0  0  0  0  0
  145.2852  136.3586  151.1523 H   0  0  0  0  0  0  0  0  0  0  0  0
  145.3998  135.7332  153.5930 H   0  0  0  0  0  0  0  0  0  0  0  0
  146.9353  135.7225  152.7689 H   0  0  0  0  0  0  0  0  0  0  0  0
  145.9254  137.9404  154.6235 H   0  0  0  0  0  0  0  0  0  0  0  0
  147.2112  136.7934  154.9448 H   0  0  0  0  0  0  0  0  0  0  0  0
  147.9944  140.1717  154.4869 H   0  0  0  0  0  0  0  0  0  0  0  0
  148.1866  138.7919  155.5249 H   0  0  0  0  0  0  0  0  0  0  0  0
  150.1762  139.7294  153.4398 H   0  0  0  0  0  0  0  0  0  0  0  0
  150.0464  137.0614  154.8722 H   0  0  0  0  0  0  0  0  0  0  0  0
  150.3133  137.3373  153.1549 H   0  0  0  0  0  0  0  0  0  0  0  0
  152.3873  136.9844  154.9363 H   0  0  0  0  0  0  0  0  0  0  0  0
  152.5539  138.0202  153.5265 H   0  0  0  0  0  0  0  0  0  0  0  0
  152.5936  138.8890  156.3018 H   0  0  0  0  0  0  0  0  0  0  0  0
  152.7837  139.8546  154.8461 H   0  0  0  0  0  0  0  0  0  0  0  0
  150.7312  140.7845  155.5528 H   0  0  0  0  0  0  0  0  0  0  0  0
  150.3068  139.3284  156.4503 H   0  0  0  0  0  0  0  0  0  0  0  0
  146.2955  139.6906  152.7941 H   0  0  0  0  0  0  0  0  0  0  0  0
  147.8277  139.7154  151.9563 H   0  0  0  0  0  0  0  0  0  0  0  0
  147.3676  137.5527  150.8849 H   0  0  0  0  0  0  0  0  0  0  0  0
  146.0952  138.6824  150.5181 H   0  0  0  0  0  0  0  0  0  0  0  0
  148.4202  137.7003  153.1241 H   0  0  0  0  0  0  0  0  0  0  0  0
  1  2  2  0  0  0  0
  2  3  1  0  0  0  0
  2 10  1  0  0  0  0
  3  4  1  0  0  0  0
  3 23  1  0  0  0  0
  4  9  1  0  0  0  0
  4  5  2  0  0  0  0
  5  6  1  0  0  0  0
  5 24  1  0  0  0  0
  6  7  2  0  0  0  0
  6 25  1  0  0  0  0
  7  8  1  0  0  0  0
  7 26  1  0  0  0  0
  8  9  2  0  0  0  0
  9 27  1  0  0  0  0
 10 11  1  0  0  0  0
 10 28  1  0  0  0  0
 11 22  1  0  0  0  0
 11 12  1  0  0  0  0
 11 29  1  0  0  0  0
 12 13  1  0  0  0  0
 12 30  1  0  0  0  0
 12 31  1  0  0  0  0
 13 14  1  0  0  0  0
 13 32  1  0  0  0  0
 13 33  1  0  0  0  0
 14 15  1  0  0  0  0
 14 21  1  0  0  0  0
 14 49  1  0  0  0  0
 15 16  1  0  0  0  0
 15 34  1  0  0  0  0
 15 35  1  0  0  0  0
 16 20  1  0  0  0  0
 16 17  1  0  0  0  0
 16 36  1  0  0  0  0
 17 18  1  0  0  0  0
 17 37  1  0  0  0  0
 17 38  1  0  0  0  0
 18 19  1  0  0  0  0
 18 39  1  0  0  0  0
 18 40  1  0  0  0  0
 19 20  1  0  0  0  0
 19 41  1  0  0  0  0
 19 42  1  0  0  0  0
 20 43  1  0  0  0  0
 20 44  1  0  0  0  0
 21 22  1  0  0  0  0
 21 45  1  0  0  0  0
 21 46  1  0  0  0  0
 22 47  1  0  0  0  0
 22 48  1  0  0  0  0
M  CHG  1  14   1
M  END
> <s_m_source_file>
AV-unprocessed.smi

> <i_m_source_file_index>
604

> <i_lp_mmshare_version>
43012

> <i_f3d_flags>
0

> <s_epik_input>
W2NIXTFuW2NIXVtjSF1bY0hdYzFbTkhdQyg9TylbTkhdW0NIXTJbQ0gyXVtDSDJdTihbQ0gyXVtDSDJdMilbQ0gyXVtDSF0zW0NIMl1bQ0gyXVtDSDJdW0NIMl0z

> <s_epik_cmdline>
J2VwaWtfcHl0aG9uJywgJy1waCcsICc3LjAnLCAnLXRuJywgJzgnLCAnLW1hJywgJzIwMCcsICctbWV0YWxfYmluZGluZycsICctaW1hZScsICc8aW5maWxlLm1hZT4nLCAnLW9tYWUnLCAnPG91dGZpbGUubWFlPic=

> <r_lp_tautomer_probability>
1

> <r_epik_Ionization_Penalty>
0.00608112

> <r_epik_Ionization_Penalty_Charging>
0.00207989

> <r_epik_Ionization_Penalty_Neutral>
0.00400122

> <r_epik_State_Penalty>
-0

> <r_epik_Charging_Adjusted_Penalty>
0.00207989

> <i_epik_Tot_Q>
1

> <i_epik_Tot_abs_Q>
1

> <r_epik_Metal_State_Penalty>
-0

> <b_epik_Metal_Only>
0

> <s_lp_Force_Field>
OPLS_2005

> <r_lp_Energy>
40.9588

> <b_lp_Chiralities_Consistent>
1

> <s_lp_Variant>
AV-unprocessed.smi:604-2

> <Gold.Version>
5.8.1

> <Gold.Id.Protein>
6NUR|6NUR_protein|mol2

> <Gold.PLP.Fitness>
54.1797

> <Gold.PLP.PLP>
-41.2770

> <Gold.PLP.part.hbond>
-5.0000

> <Gold.PLP.part.metal>
0.0000

> <Gold.PLP.part.buried>
4.3827

> <Gold.PLP.part.nonpolar>
-41.4893

> <Gold.PLP.part.repulsive>
0.3257

> <Gold.PLP.ligand.clash>
0.0000

> <Gold.PLP.ligand.torsion>
1.0172

> <Gold.PLP.Chemscore.Hbond>
4.9666

> <Gold.PLP.Chemscore.CHOScore>
0.0000

> <Gold.PLP.Chemscore.Metal>
0.0000

> <Gold.Chemscore.Hbonds>
donor molecule, donor type, donor heavy atom, donor atom, acceptor molecule, acceptor atom, score
      L1  H     3    23       P1 10175  1.00
      L1  H    10    28       P1 10175  1.00
      L1  H    14    49       P1  7948  2.00
      P1  H 11000 11005       L1     8  0.80

> <Gold.PLP.Chemscore.Internal.Correction>
0.0371

> <Gold.Rescore>
     Score         DG    S(hbond)    S(metal)    S(lipo)     H(rot)  DE(clash)    DE(int)     intcor
     21.82     -24.49       3.07        0.00     104.34       1.35       0.38       2.28       ----

> <Gold.Chemscore.Fitness>
21.8232

> <Gold.Chemscore.DG>
-24.4876

> <Gold.Chemscore.ZeroCoef>
-5.4800

> <Gold.Chemscore.Hbond>
3.0671

> <Gold.Chemscore.Metal>
0.0000

> <Gold.Chemscore.Lipo>
104.3406

> <Gold.Chemscore.Internal_Hbond>
0.0000

> <Gold.Chemscore.DEClash>
0.3802

> <Gold.Chemscore.DEInternal>
2.2842

> <Gold.Chemscore.Rot>
1.3455

> <Gold.Chemscore.Internal.Correction>
   9.000000E+99

> <Gold.Chemscore.Hbonds>
donor molecule, donor type, donor heavy atom, donor atom, acceptor molecule, acceptor atom, score
      L1  H     3    23       P1 10175  0.96
      L1  H    10    28       P1 10175  0.99
      L1  H    14    49       P1  7948  0.91
      P1  H 11000 11005       L1     8  0.27

> <Gold.Chemscore.Hbond.Weighted>
-10.2442

> <Gold.Chemscore.Metal.Weighted>
-0.0000

> <Gold.Chemscore.Lipo.Weighted>
-12.2079

> <Gold.Chemscore.Internal_Hbond.Weighted>
0.0000

> <Gold.Chemscore.DEClash.Weighted>
0.3802

> <Gold.Chemscore.DEInternal.Weighted>
2.2842

> <Gold.Chemscore.Rot.Weighted>
3.4445

> <Gold.Chemscore.Internal.Correction.Weighted>
   9.000000E+99

> <Gold.Protein.RotatedTorsions>
[ 6907 6896 6895 6894 ] final  -89.15 input  -60.11 | X-H torsion
[ 7974 7965 7964 7962 ] final  119.87 input  175.53 | X-H torsion
[ 8008 7997 7996 7995 ] final   69.20 input   59.86 | X-H torsion
[ 10167 10162 10161 10158 ] final  -20.19 input  -65.29 | X-H torsion
[ 10718 10713 10712 10709 ] final -125.42 input   66.30 | X-H torsion
[ 10763 10752 10751 10750 ] final  138.42 input  -60.55 | X-H torsion
[ 11005 11000 10999 10996 ] final   81.12 input  -57.11 | X-H torsion

> <Gold.Protein.ActiveResidues>
 VAL166  LYS551  ARG553  GLY616  TRP617  ASP618  TYR619  PRO620  LYS621  CYS622 
 ASP623  PHE694  ASN695  SER759  ASP760  ASP761  ALA762  ILE779  LEU786  VAL792 
 PHE793  MET794  SER795  GLU796  ALA797  LYS798  CYS799  TRP800  GLU811  SER814 

> <Gold.Protein.RotatedAtoms>
  150.6872  134.2631  159.4557 H   0  0  0  0  0  0  0  0  0  0  0  0  # atno 6907 bound_to 6896
  152.0560  134.9622  160.0584 H   0  0  0  0  0  0  0  0  0  0  0  0  # atno 6908 bound_to 6896
  152.1067  133.4244  159.4649 H   0  0  0  0  0  0  0  0  0  0  0  0  # atno 6909 bound_to 6896
  145.1379  139.3286  143.4631 H   0  0  0  0  0  0  0  0  0  0  0  0  # atno 7974 bound_to 7965
  155.7200  140.3493  155.5012 H   0  0  0  0  0  0  0  0  0  0  0  0  # atno 8008 bound_to 7997
  155.9278  140.1078  157.1178 H   0  0  0  0  0  0  0  0  0  0  0  0  # atno 8009 bound_to 7997
  154.4080  140.1237  156.4750 H   0  0  0  0  0  0  0  0  0  0  0  0  # atno 8010 bound_to 7997
  140.7274  143.4746  151.0200 H   0  0  0  0  0  0  0  0  0  0  0  0  # atno 10167 bound_to 10162
  156.1674  130.6644  151.0133 H   0  0  0  0  0  0  0  0  0  0  0  0  # atno 10718 bound_to 10713
  153.8892  135.3035  155.3447 H   0  0  0  0  0  0  0  0  0  0  0  0  # atno 10763 bound_to 10752
  154.7724  135.4879  153.9679 H   0  0  0  0  0  0  0  0  0  0  0  0  # atno 10764 bound_to 10752
  153.1307  135.6803  153.9281 H   0  0  0  0  0  0  0  0  0  0  0  0  # atno 10765 bound_to 10752
  139.9110  134.7972  156.1999 H   0  0  0  0  0  0  0  0  0  0  0  0  # atno 11005 bound_to 11000
  146.3508  140.1404  142.8594 LP  0  0  0  0  0  0  0  0  0  0  0  0  # atno 17320 bound_to 7965
  145.0564  140.9055  143.4965 LP  0  0  0  0  0  0  0  0  0  0  0  0  # atno 17321 bound_to 7965
  139.8441  143.7525  152.3179 LP  0  0  0  0  0  0  0  0  0  0  0  0  # atno 17342 bound_to 10162
  139.7684  144.7484  151.0260 LP  0  0  0  0  0  0  0  0  0  0  0  0  # atno 17343 bound_to 10162
  157.6778  131.0846  150.7449 LP  0  0  0  0  0  0  0  0  0  0  0  0  # atno 17370 bound_to 10713
  156.7510  130.4768  149.5457 LP  0  0  0  0  0  0  0  0  0  0  0  0  # atno 17371 bound_to 10713
  141.0531  133.6878  156.1810 LP  0  0  0  0  0  0  0  0  0  0  0  0  # atno 17394 bound_to 11000
  140.6779  134.4799  157.5588 LP  0  0  0  0  0  0  0  0  0  0  0  0  # atno 17395 bound_to 11000

$$$$
