AV-unprocessed.smi:2083|AV-procd|sdf|8513|dock1
  -GOLD-   2272011233D 1   1.00000     0.00000
 Structure written by MMmdl.
 44 45  0  0  0  0  0  0  0  0  3 V2000
  147.2920  135.0030  162.3140 C   0  0  0  0  0  0  0  0  0  0  0  0
  147.7463  135.3426  160.9363 C   0  0  0  0  0  0  0  0  0  0  0  0
  148.0940  134.5804  159.8568 C   0  0  0  0  0  0  0  0  0  0  0  0
  148.4219  135.5496  158.8713 C   0  0  0  0  0  0  0  0  0  0  0  0
  148.8452  135.1498  157.5760 N   0  0  0  0  0  0  0  0  0  0  0  0
  149.3411  133.9630  157.1802 C   0  0  0  0  0  0  0  0  0  0  0  0
  149.4980  133.0480  157.9975 O   0  0  0  0  0  0  0  0  0  0  0  0
  149.6185  133.9398  155.8477 N   0  5  0  0  0  0  0  0  0  0  0  0
  148.7392  134.4717  154.8072 C   0  0  0  0  0  0  0  0  0  0  0  0
  148.0654  133.3154  154.0224 C   0  0  1  0  0  0  0  0  0  0  0  0
  147.2427  132.3407  154.9033 C   0  0  0  0  0  0  0  0  0  0  0  0
  147.2843  133.8532  152.8640 N   0  3  2  0  0  0  0  0  0  0  0  0
  146.1921  134.8152  153.1967 C   0  0  0  0  0  0  0  0  0  0  0  0
  145.6396  135.4726  151.9234 C   0  0  0  0  0  0  0  0  0  0  0  0
  145.1384  134.4112  150.9357 C   0  0  0  0  0  0  0  0  0  0  0  0
  146.2544  133.3988  150.6274 C   0  0  2  0  0  0  0  0  0  0  0  0
  145.7713  132.3073  149.6618 C   0  0  0  0  0  0  0  0  0  0  0  0
  146.8081  132.7932  151.9338 C   0  0  0  0  0  0  0  0  0  0  0  0
  148.2880  136.7917  159.3123 N   0  0  0  0  0  0  0  0  0  0  0  0
  147.8540  136.6653  160.6372 O   0  0  0  0  0  0  0  0  0  0  0  0
  147.2318  133.9231  162.4492 H   0  0  0  0  0  0  0  0  0  0  0  0
  146.3056  135.4241  162.5093 H   0  0  0  0  0  0  0  0  0  0  0  0
  147.9837  135.3990  163.0578 H   0  0  0  0  0  0  0  0  0  0  0  0
  148.1096  133.5032  159.7846 H   0  0  0  0  0  0  0  0  0  0  0  0
  148.7585  135.8500  156.8545 H   0  0  0  0  0  0  0  0  0  0  0  0
  147.9680  135.1226  155.2206 H   0  0  0  0  0  0  0  0  0  0  0  0
  149.2933  135.0878  154.0970 H   0  0  0  0  0  0  0  0  0  0  0  0
  148.8881  132.7340  153.6031 H   0  0  0  0  0  0  0  0  0  0  0  0
  147.8669  131.8378  155.6439 H   0  0  0  0  0  0  0  0  0  0  0  0
  146.7923  131.5556  154.2958 H   0  0  0  0  0  0  0  0  0  0  0  0
  146.4369  132.8378  155.4461 H   0  0  0  0  0  0  0  0  0  0  0  0
  145.3837  134.2994  153.7166 H   0  0  0  0  0  0  0  0  0  0  0  0
  146.5563  135.5928  153.8686 H   0  0  0  0  0  0  0  0  0  0  0  0
  144.8287  136.1552  152.1785 H   0  0  0  0  0  0  0  0  0  0  0  0
  146.4177  136.0766  151.4543 H   0  0  0  0  0  0  0  0  0  0  0  0
  144.2743  133.8963  151.3579 H   0  0  0  0  0  0  0  0  0  0  0  0
  144.7973  134.8911  150.0176 H   0  0  0  0  0  0  0  0  0  0  0  0
  147.0677  133.9344  150.1348 H   0  0  0  0  0  0  0  0  0  0  0  0
  144.9542  131.7285  150.0934 H   0  0  0  0  0  0  0  0  0  0  0  0
  146.5768  131.6148  149.4162 H   0  0  0  0  0  0  0  0  0  0  0  0
  145.4148  132.7402  148.7267 H   0  0  0  0  0  0  0  0  0  0  0  0
  147.6325  132.1237  151.6853 H   0  0  0  0  0  0  0  0  0  0  0  0
  146.0465  132.1893  152.4295 H   0  0  0  0  0  0  0  0  0  0  0  0
  147.9633  134.3795  152.3327 H   0  0  0  0  0  0  0  0  0  0  0  0
  1  2  1  0  0  0  0
  1 21  1  0  0  0  0
  1 22  1  0  0  0  0
  1 23  1  0  0  0  0
  2 20  1  0  0  0  0
  2  3  2  0  0  0  0
  3  4  1  0  0  0  0
  3 24  1  0  0  0  0
  4  5  1  0  0  0  0
  4 19  2  0  0  0  0
  5  6  1  0  0  0  0
  5 25  1  0  0  0  0
  6  7  2  0  0  0  0
  6  8  1  0  0  0  0
  8  9  1  0  0  0  0
  9 10  1  0  0  0  0
  9 26  1  0  0  0  0
  9 27  1  0  0  0  0
 10 11  1  0  0  0  0
 10 12  1  0  0  0  0
 10 28  1  0  0  0  0
 11 29  1  0  0  0  0
 11 30  1  0  0  0  0
 11 31  1  0  0  0  0
 12 18  1  0  0  0  0
 12 13  1  0  0  0  0
 12 44  1  0  0  0  0
 13 14  1  0  0  0  0
 13 32  1  0  0  0  0
 13 33  1  0  0  0  0
 14 15  1  0  0  0  0
 14 34  1  0  0  0  0
 14 35  1  0  0  0  0
 15 16  1  0  0  0  0
 15 36  1  0  0  0  0
 15 37  1  0  0  0  0
 16 17  1  0  0  0  0
 16 18  1  0  0  0  0
 16 38  1  0  0  0  0
 17 39  1  0  0  0  0
 17 40  1  0  0  0  0
 17 41  1  0  0  0  0
 18 42  1  0  0  0  0
 18 43  1  0  0  0  0
 19 20  1  0  0  0  0
M  CHG  1   8  -1
M  CHG  1  12   1
M  END
> <s_m_source_file>
AV-unprocessed.smi

> <i_m_source_file_index>
2083

> <i_lp_mmshare_version>
43012

> <i_f3d_flags>
0

> <s_epik_input>
W0NIM11jMVtjSF1jKG5vMSlbTkhdQyg9TylbTkhdW0NIMl1bQ0BIXShbQ0gzXSlOMltDSDJdW0NIMl1bQ0gyXVtDQEBIXShbQ0gzXSlbQ0gyXTI=

> <s_epik_cmdline>
J2VwaWtfcHl0aG9uJywgJy1waCcsICc3LjAnLCAnLXRuJywgJzgnLCAnLW1hJywgJzIwMCcsICctbWV0YWxfYmluZGluZycsICctaW1hZScsICc8aW5maWxlLm1hZT4nLCAnLW9tYWUnLCAnPG91dGZpbGUubWFlPic=

> <r_epik_Ionization_Penalty>
6.76934

> <r_epik_Ionization_Penalty_Charging>
6.76934

> <r_epik_Ionization_Penalty_Neutral>
5.77849e-06

> <r_epik_State_Penalty>
6.79457

> <r_epik_Charging_Adjusted_Penalty>
13.5639

> <i_epik_Tot_Q>
0

> <i_epik_Tot_abs_Q>
2

> <r_epik_Metal_State_Penalty>
2.72837

> <b_epik_Metal_Only>
1

> <s_lp_Force_Field>
OPLS_2005

> <r_lp_Energy>
18.0099

> <b_lp_Chiralities_Consistent>
1

> <s_lp_Variant>
AV-unprocessed.smi:2083-24

> <Gold.Version>
5.8.1

> <Gold.Id.Protein>
6NUR|6NUR_protein|mol2

> <Gold.PLP.Fitness>
44.1180

> <Gold.PLP.PLP>
-31.4293

> <Gold.PLP.part.hbond>
-4.0000

> <Gold.PLP.part.metal>
0.0000

> <Gold.PLP.part.buried>
-3.9151

> <Gold.PLP.part.nonpolar>
-23.6957

> <Gold.PLP.part.repulsive>
0.1002

> <Gold.PLP.ligand.clash>
0.0000

> <Gold.PLP.ligand.torsion>
0.5871

> <Gold.PLP.Chemscore.Hbond>
4.5453

> <Gold.PLP.Chemscore.CHOScore>
0.0000

> <Gold.PLP.Chemscore.Metal>
0.0000

> <Gold.Chemscore.Hbonds>
donor molecule, donor type, donor heavy atom, donor atom, acceptor molecule, acceptor atom, score
      L1  H    12    44       P1  7948  1.66
      P1  H  6896  6909       L1     7  1.00
      P1  H  6931  6943       L1    20  0.21

> <Gold.PLP.Chemscore.Internal.Correction>
0.2271

> <Gold.Rescore>
     Score         DG    S(hbond)    S(metal)    S(lipo)     H(rot)  DE(clash)    DE(int)     intcor
     17.89     -18.87       2.88        0.00      65.54       1.52       0.02       0.96       ----

> <Gold.Chemscore.Fitness>
17.8870

> <Gold.Chemscore.DG>
-18.8667

> <Gold.Chemscore.ZeroCoef>
-5.4800

> <Gold.Chemscore.Hbond>
2.8766

> <Gold.Chemscore.Metal>
0.0000

> <Gold.Chemscore.Lipo>
65.5351

> <Gold.Chemscore.Internal_Hbond>
0.0000

> <Gold.Chemscore.DEClash>
0.0228

> <Gold.Chemscore.DEInternal>
0.9569

> <Gold.Chemscore.Rot>
1.5190

> <Gold.Chemscore.Internal.Correction>
   9.000000E+99

> <Gold.Chemscore.Hbonds>
donor molecule, donor type, donor heavy atom, donor atom, acceptor molecule, acceptor atom, score
      L1  H    12    44       P1  7948  0.23
      P1  H  6896  6909       L1     7  0.64
      P1  H  6931  6943       L1    20  0.13

> <Gold.Chemscore.Hbond.Weighted>
-9.6078

> <Gold.Chemscore.Metal.Weighted>
-0.0000

> <Gold.Chemscore.Lipo.Weighted>
-7.6676

> <Gold.Chemscore.Internal_Hbond.Weighted>
0.0000

> <Gold.Chemscore.DEClash.Weighted>
0.0228

> <Gold.Chemscore.DEInternal.Weighted>
0.9569

> <Gold.Chemscore.Rot.Weighted>
3.8886

> <Gold.Chemscore.Internal.Correction.Weighted>
   9.000000E+99

> <Gold.Protein.RotatedTorsions>
[ 6907 6896 6895 6894 ] final  -14.84 input  -60.11 | X-H torsion
[ 7974 7965 7964 7962 ] final  -96.15 input  175.53 | X-H torsion
[ 8008 7997 7996 7995 ] final    7.13 input   59.86 | X-H torsion
[ 10167 10162 10161 10158 ] final   51.71 input  -65.29 | X-H torsion
[ 10718 10713 10712 10709 ] final   69.45 input   66.30 | X-H torsion
[ 10763 10752 10751 10750 ] final   71.30 input  -60.55 | X-H torsion
[ 11005 11000 10999 10996 ] final  -97.43 input  -57.11 | X-H torsion

> <Gold.Protein.ActiveResidues>
 VAL166  LYS551  ARG553  GLY616  TRP617  ASP618  TYR619  PRO620  LYS621  CYS622 
 ASP623  PHE694  ASN695  SER759  ASP760  ASP761  ALA762  ILE779  LEU786  VAL792 
 PHE793  MET794  SER795  GLU796  ALA797  LYS798  CYS799  TRP800  GLU811  SER814 

> <Gold.Protein.RotatedAtoms>
  151.3332  135.0846  159.9345 H   0  0  0  0  0  0  0  0  0  0  0  0  # atno 6907 bound_to 6896
  152.5229  133.9521  159.7687 H   0  0  0  0  0  0  0  0  0  0  0  0  # atno 6908 bound_to 6896
  150.9864  133.6140  159.2744 H   0  0  0  0  0  0  0  0  0  0  0  0  # atno 6909 bound_to 6896
  145.3507  140.9476  143.2556 H   0  0  0  0  0  0  0  0  0  0  0  0  # atno 7974 bound_to 7965
  154.7499  140.2765  155.6301 H   0  0  0  0  0  0  0  0  0  0  0  0  # atno 8008 bound_to 7997
  156.2893  140.2680  156.2176 H   0  0  0  0  0  0  0  0  0  0  0  0  # atno 8009 bound_to 7997
  155.0150  140.0372  157.2404 H   0  0  0  0  0  0  0  0  0  0  0  0  # atno 8010 bound_to 7997
  140.2590  144.3394  150.6324 H   0  0  0  0  0  0  0  0  0  0  0  0  # atno 10167 bound_to 10162
  157.6347  130.9426  150.0516 H   0  0  0  0  0  0  0  0  0  0  0  0  # atno 10718 bound_to 10713
  153.0391  135.5142  154.7573 H   0  0  0  0  0  0  0  0  0  0  0  0  # atno 10763 bound_to 10752
  154.6525  135.2927  154.9971 H   0  0  0  0  0  0  0  0  0  0  0  0  # atno 10764 bound_to 10752
  154.0851  135.6658  153.4896 H   0  0  0  0  0  0  0  0  0  0  0  0  # atno 10765 bound_to 10752
  141.1379  133.8170  157.0705 H   0  0  0  0  0  0  0  0  0  0  0  0  # atno 11005 bound_to 11000
  144.8720  139.5025  143.6763 LP  0  0  0  0  0  0  0  0  0  0  0  0  # atno 17320 bound_to 7965
  146.2969  139.7306  142.9120 LP  0  0  0  0  0  0  0  0  0  0  0  0  # atno 17321 bound_to 7965
  140.5981  143.2167  151.7126 LP  0  0  0  0  0  0  0  0  0  0  0  0  # atno 17342 bound_to 10162
  139.5022  144.3836  152.0351 LP  0  0  0  0  0  0  0  0  0  0  0  0  # atno 17343 bound_to 10162
  156.1576  130.3643  149.9346 LP  0  0  0  0  0  0  0  0  0  0  0  0  # atno 17370 bound_to 10713
  156.7352  130.9058  151.3628 LP  0  0  0  0  0  0  0  0  0  0  0  0  # atno 17371 bound_to 10713
  140.0514  134.9803  157.1143 LP  0  0  0  0  0  0  0  0  0  0  0  0  # atno 17394 bound_to 11000
  140.3984  134.2109  155.7164 LP  0  0  0  0  0  0  0  0  0  0  0  0  # atno 17395 bound_to 11000

$$$$
