AV-unprocessed.smi:2047|AV-procd|sdf|8319|dock3
  -GOLD-   2272010583D 1   1.00000     0.00000
 Structure written by MMmdl.
 42 44  0  0  0  0  0  0  0  0  3 V2000
  152.1628  138.0102  155.1423 O   0  0  0  0  0  0  0  0  0  0  0  0
  152.5255  138.6866  156.1116 C   0  0  0  0  0  0  0  0  0  0  0  0
  151.8907  139.8313  156.4160 N   0  0  0  0  0  0  0  0  0  0  0  0
  150.7851  140.4422  155.7599 C   0  0  0  0  0  0  0  0  0  0  0  0
  150.1426  139.8338  154.6522 C   0  0  0  0  0  0  0  0  0  0  0  0
  149.0584  140.4818  154.0298 C   0  0  0  0  0  0  0  0  0  0  0  0
  148.6409  141.7329  154.5173 C   0  0  0  0  0  0  0  0  0  0  0  0
  149.2865  142.2942  155.5607 N   0  3  0  0  0  0  0  0  0  0  0  0
  150.3349  141.7171  156.1993 C   0  0  0  0  0  0  0  0  0  0  0  0
  150.9515  142.4099  157.2633 N   0  0  0  0  0  0  0  0  0  0  0  0
  151.5858  143.6680  156.8770 C   0  0  0  0  0  0  0  0  0  0  0  0
  151.3558  144.6443  158.0329 C   0  0  0  0  0  0  0  0  0  0  0  0
  150.0841  144.1173  158.6859 C   0  0  0  0  0  0  0  0  0  0  0  0
  150.2319  142.6064  158.5204 C   0  0  0  0  0  0  0  0  0  0  0  0
  153.5318  138.4165  156.9852 N   0  5  0  0  0  0  0  0  0  0  0  0
  153.3839  137.6424  158.2209 C   0  0  2  0  0  0  0  0  0  0  0  0
  153.1881  138.5761  159.4317 C   0  0  0  0  0  0  0  0  0  0  0  0
  153.3931  137.7628  160.7178 C   0  0  0  0  0  0  0  0  0  0  0  0
  154.6451  136.4866  160.3054 S   0  0  0  0  0  0  0  0  0  0  0  0
  155.9530  136.8880  160.8468 O   0  0  0  0  0  0  0  0  0  0  0  0
  154.0867  135.1568  160.5966 O   0  0  0  0  0  0  0  0  0  0  0  0
  154.6291  136.7835  158.4934 C   0  0  0  0  0  0  0  0  0  0  0  0
  152.1776  140.2623  157.2824 H   0  0  0  0  0  0  0  0  0  0  0  0
  150.4741  138.8829  154.2633 H   0  0  0  0  0  0  0  0  0  0  0  0
  148.5589  140.0261  153.1875 H   0  0  0  0  0  0  0  0  0  0  0  0
  147.8227  142.3029  154.1015 H   0  0  0  0  0  0  0  0  0  0  0  0
  152.6499  143.5307  156.6836 H   0  0  0  0  0  0  0  0  0  0  0  0
  151.1272  144.0548  155.9652 H   0  0  0  0  0  0  0  0  0  0  0  0
  152.1846  144.5826  158.7397 H   0  0  0  0  0  0  0  0  0  0  0  0
  151.2702  145.6799  157.7030 H   0  0  0  0  0  0  0  0  0  0  0  0
  149.9787  144.4230  159.7271 H   0  0  0  0  0  0  0  0  0  0  0  0
  149.2098  144.4696  158.1368 H   0  0  0  0  0  0  0  0  0  0  0  0
  149.2705  142.0972  158.5815 H   0  0  0  0  0  0  0  0  0  0  0  0
  150.8527  142.2051  159.3221 H   0  0  0  0  0  0  0  0  0  0  0  0
  152.5193  136.9775  158.1858 H   0  0  0  0  0  0  0  0  0  0  0  0
  153.9340  139.3718  159.4019 H   0  0  0  0  0  0  0  0  0  0  0  0
  152.2094  139.0568  159.4177 H   0  0  0  0  0  0  0  0  0  0  0  0
  153.7389  138.3734  161.5516 H   0  0  0  0  0  0  0  0  0  0  0  0
  152.4748  137.2555  161.0176 H   0  0  0  0  0  0  0  0  0  0  0  0
  154.6156  135.8356  157.9555 H   0  0  0  0  0  0  0  0  0  0  0  0
  155.5448  137.3173  158.2371 H   0  0  0  0  0  0  0  0  0  0  0  0
  148.9706  143.2081  155.8849 H   0  0  0  0  0  0  0  0  0  0  0  0
  1  2  2  0  0  0  0
  2  3  1  0  0  0  0
  2 15  1  0  0  0  0
  3  4  1  0  0  0  0
  3 23  1  0  0  0  0
  4  9  1  0  0  0  0
  4  5  2  0  0  0  0
  5  6  1  0  0  0  0
  5 24  1  0  0  0  0
  6  7  2  0  0  0  0
  6 25  1  0  0  0  0
  7  8  1  0  0  0  0
  7 26  1  0  0  0  0
  8  9  2  0  0  0  0
  8 42  1  0  0  0  0
  9 10  1  0  0  0  0
 10 14  1  0  0  0  0
 10 11  1  0  0  0  0
 11 12  1  0  0  0  0
 11 27  1  0  0  0  0
 11 28  1  0  0  0  0
 12 13  1  0  0  0  0
 12 29  1  0  0  0  0
 12 30  1  0  0  0  0
 13 14  1  0  0  0  0
 13 31  1  0  0  0  0
 13 32  1  0  0  0  0
 14 33  1  0  0  0  0
 14 34  1  0  0  0  0
 15 16  1  0  0  0  0
 16 22  1  0  0  0  0
 16 17  1  0  0  0  0
 16 35  1  0  0  0  0
 17 18  1  0  0  0  0
 17 36  1  0  0  0  0
 17 37  1  0  0  0  0
 18 19  1  0  0  0  0
 18 38  1  0  0  0  0
 18 39  1  0  0  0  0
 19 20  2  0  0  0  0
 19 21  2  0  0  0  0
 19 22  1  0  0  0  0
 22 40  1  0  0  0  0
 22 41  1  0  0  0  0
M  CHG  1   8   1
M  CHG  1  15  -1
M  END
> <s_m_source_file>
AV-unprocessed.smi

> <i_m_source_file_index>
2047

> <i_lp_mmshare_version>
43012

> <i_f3d_flags>
0

> <s_epik_input>
Tz1TMSg9TylbQ0gyXVtDSDJdW0NASF0oW0NIMl0xKVtOSF1DKD1PKVtOSF1jMltjSF1bY0hdW2NIXW5jMk4zW0NIMl1bQ0gyXVtDSDJdW0NIMl0z

> <s_epik_cmdline>
J2VwaWtfcHl0aG9uJywgJy1waCcsICc3LjAnLCAnLXRuJywgJzgnLCAnLW1hJywgJzIwMCcsICctbWV0YWxfYmluZGluZycsICctaW1hZScsICc8aW5maWxlLm1hZT4nLCAnLW9tYWUnLCAnPG91dGZpbGUubWFlPic=

> <r_lp_tautomer_probability>
0.999994

> <r_epik_Ionization_Penalty>
8.27033

> <r_epik_Ionization_Penalty_Charging>
8.27033

> <r_epik_Ionization_Penalty_Neutral>
3.23223e-06

> <r_epik_State_Penalty>
7.90314

> <r_epik_Charging_Adjusted_Penalty>
16.1735

> <i_epik_Tot_Q>
0

> <i_epik_Tot_abs_Q>
2

> <r_epik_Metal_State_Penalty>
3.89381

> <b_epik_Metal_Only>
1

> <s_lp_Force_Field>
OPLS_2005

> <r_lp_Energy>
38.7939

> <b_lp_Chiralities_Consistent>
1

> <s_lp_Variant>
AV-unprocessed.smi:2047-5

> <Gold.Version>
5.8.1

> <Gold.Id.Protein>
6NUR|6NUR_protein|mol2

> <Gold.PLP.Fitness>
43.3454

> <Gold.PLP.PLP>
-32.4288

> <Gold.PLP.part.hbond>
-3.2102

> <Gold.PLP.part.metal>
0.0000

> <Gold.PLP.part.buried>
-1.9262

> <Gold.PLP.part.nonpolar>
-27.3361

> <Gold.PLP.part.repulsive>
0.4550

> <Gold.PLP.ligand.clash>
0.0000

> <Gold.PLP.ligand.torsion>
1.1712

> <Gold.PLP.Chemscore.Hbond>
4.3600

> <Gold.PLP.Chemscore.CHOScore>
0.0000

> <Gold.PLP.Chemscore.Metal>
0.0000

> <Gold.Chemscore.Hbonds>
donor molecule, donor type, donor heavy atom, donor atom, acceptor molecule, acceptor atom, score
      L1  H     8    42       P1  8028  1.93
      P1  H  6896  6908       L1    21  1.00
      P1  H  7997  8010       L1    15  1.46

> <Gold.PLP.Chemscore.Internal.Correction>
0.1791

> <Gold.Rescore>
     Score         DG    S(hbond)    S(metal)    S(lipo)     H(rot)  DE(clash)    DE(int)     intcor
     16.13     -18.96       2.15        0.00      81.23       1.25       0.51       2.33       ----

> <Gold.Chemscore.Fitness>
16.1293

> <Gold.Chemscore.DG>
-18.9642

> <Gold.Chemscore.ZeroCoef>
-5.4800

> <Gold.Chemscore.Hbond>
2.1483

> <Gold.Chemscore.Metal>
0.0000

> <Gold.Chemscore.Lipo>
81.2294

> <Gold.Chemscore.Internal_Hbond>
0.0000

> <Gold.Chemscore.DEClash>
0.5099

> <Gold.Chemscore.DEInternal>
2.3250

> <Gold.Chemscore.Rot>
1.2480

> <Gold.Chemscore.Internal.Correction>
   9.000000E+99

> <Gold.Chemscore.Hbonds>
donor molecule, donor type, donor heavy atom, donor atom, acceptor molecule, acceptor atom, score
      L1  H     8    42       P1  8028  0.86
      P1  H  6896  6908       L1    21  0.97
      P1  H  7997  8010       L1    15  0.11

> <Gold.Chemscore.Hbond.Weighted>
-7.1752

> <Gold.Chemscore.Metal.Weighted>
-0.0000

> <Gold.Chemscore.Lipo.Weighted>
-9.5038

> <Gold.Chemscore.Internal_Hbond.Weighted>
0.0000

> <Gold.Chemscore.DEClash.Weighted>
0.5099

> <Gold.Chemscore.DEInternal.Weighted>
2.3250

> <Gold.Chemscore.Rot.Weighted>
3.1948

> <Gold.Chemscore.Internal.Correction.Weighted>
   9.000000E+99

> <Gold.Protein.RotatedTorsions>
[ 6907 6896 6895 6894 ] final  -62.60 input  -60.11 | X-H torsion
[ 7974 7965 7964 7962 ] final   90.27 input  175.53 | X-H torsion
[ 8008 7997 7996 7995 ] final   53.04 input   59.86 | X-H torsion
[ 10167 10162 10161 10158 ] final   65.74 input  -65.29 | X-H torsion
[ 10718 10713 10712 10709 ] final    8.35 input   66.30 | X-H torsion
[ 10763 10752 10751 10750 ] final  157.24 input  -60.55 | X-H torsion
[ 11005 11000 10999 10996 ] final  165.49 input  -57.11 | X-H torsion

> <Gold.Protein.ActiveResidues>
 VAL166  LYS551  ARG553  GLY616  TRP617  ASP618  TYR619  PRO620  LYS621  CYS622 
 ASP623  PHE694  ASN695  SER759  ASP760  ASP761  ALA762  ILE779  LEU786  VAL792 
 PHE793  MET794  SER795  GLU796  ALA797  LYS798  CYS799  TRP800  GLU811  SER814 

> <Gold.Protein.RotatedAtoms>
  150.7705  134.6549  159.6307 H   0  0  0  0  0  0  0  0  0  0  0  0  # atno 6907 bound_to 6896
  152.3755  134.6666  160.0170 H   0  0  0  0  0  0  0  0  0  0  0  0  # atno 6908 bound_to 6896
  151.7013  133.3275  159.3303 H   0  0  0  0  0  0  0  0  0  0  0  0  # atno 6909 bound_to 6896
  145.5212  139.2279  143.2671 H   0  0  0  0  0  0  0  0  0  0  0  0  # atno 7974 bound_to 7965
  155.4617  140.3462  155.4313 H   0  0  0  0  0  0  0  0  0  0  0  0  # atno 8008 bound_to 7997
  156.1156  140.1473  156.9306 H   0  0  0  0  0  0  0  0  0  0  0  0  # atno 8009 bound_to 7997
  154.4787  140.0877  156.7304 H   0  0  0  0  0  0  0  0  0  0  0  0  # atno 8010 bound_to 7997
  140.1080  144.4844  150.6996 H   0  0  0  0  0  0  0  0  0  0  0  0  # atno 10167 bound_to 10162
  156.9503  130.5894  149.5656 H   0  0  0  0  0  0  0  0  0  0  0  0  # atno 10718 bound_to 10713
  154.1971  135.2792  155.3003 H   0  0  0  0  0  0  0  0  0  0  0  0  # atno 10763 bound_to 10752
  154.5883  135.5568  153.7257 H   0  0  0  0  0  0  0  0  0  0  0  0  # atno 10764 bound_to 10752
  153.0097  135.6362  154.2109 H   0  0  0  0  0  0  0  0  0  0  0  0  # atno 10765 bound_to 10752
  140.2566  134.7935  157.3552 H   0  0  0  0  0  0  0  0  0  0  0  0  # atno 11005 bound_to 11000
  146.2105  140.6024  142.9062 LP  0  0  0  0  0  0  0  0  0  0  0  0  # atno 17320 bound_to 7965
  144.7675  140.5563  143.6693 LP  0  0  0  0  0  0  0  0  0  0  0  0  # atno 17321 bound_to 7965
  140.6941  143.2393  151.5049 LP  0  0  0  0  0  0  0  0  0  0  0  0  # atno 17342 bound_to 10162
  139.5635  144.2099  152.1728 LP  0  0  0  0  0  0  0  0  0  0  0  0  # atno 17343 bound_to 10162
  156.0365  130.5452  150.8667 LP  0  0  0  0  0  0  0  0  0  0  0  0  # atno 17370 bound_to 10713
  157.5726  131.0946  150.9394 LP  0  0  0  0  0  0  0  0  0  0  0  0  # atno 17371 bound_to 10713
  140.1505  134.4856  155.7965 LP  0  0  0  0  0  0  0  0  0  0  0  0  # atno 17394 bound_to 11000
  141.2195  133.6860  156.7370 LP  0  0  0  0  0  0  0  0  0  0  0  0  # atno 17395 bound_to 11000

$$$$
