AV-unprocessed.smi:1633|AV-procd|sdf|6533|dock2
  -GOLD-   22720 7213D 1   1.00000     0.00000
 Structure written by MMmdl.
 51 53  0  0  0  0  0  0  0  0  2 V2000
  142.3171  143.1394  155.3909 C   0  0  0  0  0  0  0  0  0  0  0  0
  143.4643  142.7741  156.3354 C   0  0  0  0  0  0  0  0  0  0  0  0
  143.1977  142.1245  157.3461 O   0  0  0  0  0  0  0  0  0  0  0  0
  144.7239  143.1701  156.0333 N   0  0  0  0  0  0  0  0  0  0  0  0
  145.1298  143.8541  154.8026 C   0  0  0  0  0  0  0  0  0  0  0  0
  145.9820  142.8909  153.9560 C   0  0  0  0  0  0  0  0  0  0  0  0
  147.1467  142.3673  154.7254 N   0  3  0  0  0  0  0  0  0  0  0  0
  147.9790  141.4093  153.9542 C   0  0  0  0  0  0  0  0  0  0  0  0
  149.1899  140.8695  154.7502 C   0  0  1  0  0  0  0  0  0  0  0  0
  150.0383  140.1527  153.8758 O   0  0  0  0  0  0  0  0  0  0  0  0
  150.0330  141.9831  155.4024 C   0  0  0  0  0  0  0  0  0  0  0  0
  150.9009  141.4778  156.4502 N   0  0  0  0  0  0  0  0  0  0  0  0
  151.5636  140.3053  156.4561 C   0  0  0  0  0  0  0  0  0  0  0  0
  152.2937  140.0246  157.5311 N   0  0  0  0  0  0  0  0  0  0  0  0
  152.0889  141.1503  158.3103 C   0  0  0  0  0  0  0  0  0  0  0  0
  152.5845  141.4827  159.5899 C   0  0  0  0  0  0  0  0  0  0  0  0
  152.2332  142.7037  160.2086 C   0  0  0  0  0  0  0  0  0  0  0  0
  152.7886  143.0199  161.5862 C   0  0  0  0  0  0  0  0  0  0  0  0
  151.3733  143.6154  159.5449 C   0  0  0  0  0  0  0  0  0  0  0  0
  150.9827  144.9331  160.1905 C   0  0  0  0  0  0  0  0  0  0  0  0
  150.8699  143.2994  158.2657 C   0  0  0  0  0  0  0  0  0  0  0  0
  151.2258  142.0808  157.6610 C   0  0  0  0  0  0  0  0  0  0  0  0
  146.7594  141.8175  156.0532 C   0  0  0  0  0  0  0  0  0  0  0  0
  145.8873  142.8075  156.8463 C   0  0  0  0  0  0  0  0  0  0  0  0
  142.4827  142.7198  154.3983 H   0  0  0  0  0  0  0  0  0  0  0  0
  142.2146  144.2215  155.3071 H   0  0  0  0  0  0  0  0  0  0  0  0
  141.3723  142.7441  155.7650 H   0  0  0  0  0  0  0  0  0  0  0  0
  144.2937  144.2246  154.2111 H   0  0  0  0  0  0  0  0  0  0  0  0
  145.7148  144.7372  155.0633 H   0  0  0  0  0  0  0  0  0  0  0  0
  145.3642  142.0560  153.6204 H   0  0  0  0  0  0  0  0  0  0  0  0
  146.3203  143.4120  153.0614 H   0  0  0  0  0  0  0  0  0  0  0  0
  147.3689  140.5607  153.6396 H   0  0  0  0  0  0  0  0  0  0  0  0
  148.2998  141.9045  153.0373 H   0  0  0  0  0  0  0  0  0  0  0  0
  148.8640  140.1898  155.5368 H   0  0  0  0  0  0  0  0  0  0  0  0
  149.6748  140.1769  153.0042 H   0  0  0  0  0  0  0  0  0  0  0  0
  150.6555  142.4750  154.6534 H   0  0  0  0  0  0  0  0  0  0  0  0
  149.3886  142.7549  155.8253 H   0  0  0  0  0  0  0  0  0  0  0  0
  151.4987  139.6147  155.6278 H   0  0  0  0  0  0  0  0  0  0  0  0
  153.2395  140.7884  160.0955 H   0  0  0  0  0  0  0  0  0  0  0  0
  153.3731  143.9397  161.5612 H   0  0  0  0  0  0  0  0  0  0  0  0
  153.4381  142.2218  161.9466 H   0  0  0  0  0  0  0  0  0  0  0  0
  151.9787  143.1430  162.3053 H   0  0  0  0  0  0  0  0  0  0  0  0
  150.3237  145.5135  159.5443 H   0  0  0  0  0  0  0  0  0  0  0  0
  151.8677  145.5366  160.3928 H   0  0  0  0  0  0  0  0  0  0  0  0
  150.4602  144.7580  161.1312 H   0  0  0  0  0  0  0  0  0  0  0  0
  150.2139  143.9854  157.7505 H   0  0  0  0  0  0  0  0  0  0  0  0
  146.2170  140.8811  155.9109 H   0  0  0  0  0  0  0  0  0  0  0  0
  147.6558  141.5806  156.6275 H   0  0  0  0  0  0  0  0  0  0  0  0
  146.4576  143.7077  157.0799 H   0  0  0  0  0  0  0  0  0  0  0  0
  145.6143  142.3714  157.8082 H   0  0  0  0  0  0  0  0  0  0  0  0
  147.7374  143.1612  154.9262 H   0  0  0  0  0  0  0  0  0  0  0  0
  1  2  1  0  0  0  0
  1 25  1  0  0  0  0
  1 26  1  0  0  0  0
  1 27  1  0  0  0  0
  2  3  2  0  0  0  0
  2  4  1  0  0  0  0
  4 24  1  0  0  0  0
  4  5  1  0  0  0  0
  5  6  1  0  0  0  0
  5 28  1  0  0  0  0
  5 29  1  0  0  0  0
  6  7  1  0  0  0  0
  6 30  1  0  0  0  0
  6 31  1  0  0  0  0
  7  8  1  0  0  0  0
  7 23  1  0  0  0  0
  7 51  1  0  0  0  0
  8  9  1  0  0  0  0
  8 32  1  0  0  0  0
  8 33  1  0  0  0  0
  9 10  1  0  0  0  0
  9 11  1  0  0  0  0
  9 34  1  0  0  0  0
 10 35  1  0  0  0  0
 11 12  1  0  0  0  0
 11 36  1  0  0  0  0
 11 37  1  0  0  0  0
 12 22  1  0  0  0  0
 12 13  1  0  0  0  0
 13 14  2  0  0  0  0
 13 38  1  0  0  0  0
 14 15  1  0  0  0  0
 15 22  2  0  0  0  0
 15 16  1  0  0  0  0
 16 17  2  0  0  0  0
 16 39  1  0  0  0  0
 17 18  1  0  0  0  0
 17 19  1  0  0  0  0
 18 40  1  0  0  0  0
 18 41  1  0  0  0  0
 18 42  1  0  0  0  0
 19 20  1  0  0  0  0
 19 21  2  0  0  0  0
 20 43  1  0  0  0  0
 20 44  1  0  0  0  0
 20 45  1  0  0  0  0
 21 22  1  0  0  0  0
 21 46  1  0  0  0  0
 23 24  1  0  0  0  0
 23 47  1  0  0  0  0
 23 48  1  0  0  0  0
 24 49  1  0  0  0  0
 24 50  1  0  0  0  0
M  CHG  1   7   1
M  END
> <s_m_source_file>
AV-unprocessed.smi

> <i_m_source_file_index>
1633

> <i_lp_mmshare_version>
43012

> <i_f3d_flags>
0

> <s_epik_input>
W0NIM11DKD1PKU4xW0NIMl1bQ0gyXU4oW0NIMl1bQ0gyXTEpW0NIMl1bQ0BIXShbT0hdKVtDSDJdbihbY0hdbjIpYyhjMjMpW2NIXWMoW0NIM10pYyhbY0hdMylbQ0gzXQ==

> <s_epik_cmdline>
J2VwaWtfcHl0aG9uJywgJy1waCcsICc3LjAnLCAnLXRuJywgJzgnLCAnLW1hJywgJzIwMCcsICctbWV0YWxfYmluZGluZycsICctaW1hZScsICc8aW5maWxlLm1hZT4nLCAnLW9tYWUnLCAnPG91dGZpbGUubWFlPic=

> <r_epik_Ionization_Penalty>
0.0939669

> <r_epik_Ionization_Penalty_Charging>
0.00645254

> <r_epik_Ionization_Penalty_Neutral>
0.0875144

> <r_epik_State_Penalty>
0.0777239

> <r_epik_Charging_Adjusted_Penalty>
0.0841764

> <i_epik_Tot_Q>
1

> <i_epik_Tot_abs_Q>
1

> <r_epik_Metal_State_Penalty>
7.71307e-05

> <b_epik_Metal_Only>
0

> <s_lp_Force_Field>
OPLS_2005

> <r_lp_Energy>
45.1144

> <b_lp_Chiralities_Consistent>
1

> <s_lp_Variant>
AV-unprocessed.smi:1633-2

> <Gold.Version>
5.8.1

> <Gold.Id.Protein>
6NUR|6NUR_protein|mol2

> <Gold.PLP.Fitness>
62.1862

> <Gold.PLP.PLP>
-48.8223

> <Gold.PLP.part.hbond>
-4.0000

> <Gold.PLP.part.metal>
0.0000

> <Gold.PLP.part.buried>
-5.9743

> <Gold.PLP.part.nonpolar>
-38.0234

> <Gold.PLP.part.repulsive>
0.1091

> <Gold.PLP.ligand.clash>
0.0000

> <Gold.PLP.ligand.torsion>
0.5307

> <Gold.PLP.Chemscore.Hbond>
4.7593

> <Gold.PLP.Chemscore.CHOScore>
0.0000

> <Gold.PLP.Chemscore.Metal>
0.0000

> <Gold.Chemscore.Hbonds>
donor molecule, donor type, donor heavy atom, donor atom, acceptor molecule, acceptor atom, score
      L1  H     7    51       P1  8028  1.98
      L1  H    10    35       P1  7957  1.00
      P1  H  7989  7998       L1    10  0.69
      P1  H  7997  8010       L1    14  0.41

> <Gold.PLP.Chemscore.Internal.Correction>
0.1477

> <Gold.Rescore>
     Score         DG    S(hbond)    S(metal)    S(lipo)     H(rot)  DE(clash)    DE(int)     intcor
     18.27     -21.13       2.23        0.00     117.27       2.16       1.34       1.53       ----

> <Gold.Chemscore.Fitness>
18.2655

> <Gold.Chemscore.DG>
-21.1271

> <Gold.Chemscore.ZeroCoef>
-5.4800

> <Gold.Chemscore.Hbond>
2.2331

> <Gold.Chemscore.Metal>
0.0000

> <Gold.Chemscore.Lipo>
117.2675

> <Gold.Chemscore.Internal_Hbond>
0.0000

> <Gold.Chemscore.DEClash>
1.3359

> <Gold.Chemscore.DEInternal>
1.5258

> <Gold.Chemscore.Rot>
2.1608

> <Gold.Chemscore.Internal.Correction>
   9.000000E+99

> <Gold.Chemscore.Hbonds>
donor molecule, donor type, donor heavy atom, donor atom, acceptor molecule, acceptor atom, score
      L1  H     7    51       P1  8028  0.60
      L1  H    10    35       P1  7957  0.99
      P1  H  7989  7998       L1    10  0.11
      P1  H  7997  8010       L1    14  0.07

> <Gold.Chemscore.Hbond.Weighted>
-7.4585

> <Gold.Chemscore.Metal.Weighted>
-0.0000

> <Gold.Chemscore.Lipo.Weighted>
-13.7203

> <Gold.Chemscore.Internal_Hbond.Weighted>
0.0000

> <Gold.Chemscore.DEClash.Weighted>
1.3359

> <Gold.Chemscore.DEInternal.Weighted>
1.5258

> <Gold.Chemscore.Rot.Weighted>
5.5317

> <Gold.Chemscore.Internal.Correction.Weighted>
   9.000000E+99

> <Gold.Protein.RotatedTorsions>
[ 6907 6896 6895 6894 ] final  -20.69 input  -60.11 | X-H torsion
[ 7974 7965 7964 7962 ] final  -84.79 input  175.53 | X-H torsion
[ 8008 7997 7996 7995 ] final   61.91 input   59.86 | X-H torsion
[ 10167 10162 10161 10158 ] final   96.95 input  -65.29 | X-H torsion
[ 10718 10713 10712 10709 ] final   58.47 input   66.30 | X-H torsion
[ 10763 10752 10751 10750 ] final  172.52 input  -60.55 | X-H torsion
[ 11005 11000 10999 10996 ] final   79.88 input  -57.11 | X-H torsion

> <Gold.Protein.ActiveResidues>
 VAL166  LYS551  ARG553  GLY616  TRP617  ASP618  TYR619  PRO620  LYS621  CYS622 
 ASP623  PHE694  ASN695  SER759  ASP760  ASP761  ALA762  ILE779  LEU786  VAL792 
 PHE793  MET794  SER795  GLU796  ALA797  LYS798  CYS799  TRP800  GLU811  SER814 

> <Gold.Protein.RotatedAtoms>
  151.2444  135.0600  159.9037 H   0  0  0  0  0  0  0  0  0  0  0  0  # atno 6907 bound_to 6896
  152.5389  134.0400  159.8073 H   0  0  0  0  0  0  0  0  0  0  0  0  # atno 6908 bound_to 6896
  151.0598  133.5504  159.2666 H   0  0  0  0  0  0  0  0  0  0  0  0  # atno 6909 bound_to 6896
  145.5020  140.9546  143.1754 H   0  0  0  0  0  0  0  0  0  0  0  0  # atno 7974 bound_to 7965
  155.6059  140.3494  155.4607 H   0  0  0  0  0  0  0  0  0  0  0  0  # atno 8008 bound_to 7997
  156.0192  140.1250  157.0399 H   0  0  0  0  0  0  0  0  0  0  0  0  # atno 8009 bound_to 7997
  154.4309  140.1066  156.5926 H   0  0  0  0  0  0  0  0  0  0  0  0  # atno 8010 bound_to 7997
  139.7847  144.6875  150.9974 H   0  0  0  0  0  0  0  0  0  0  0  0  # atno 10167 bound_to 10162
  157.5599  130.8828  149.9094 H   0  0  0  0  0  0  0  0  0  0  0  0  # atno 10718 bound_to 10713
  154.4273  135.2759  155.1936 H   0  0  0  0  0  0  0  0  0  0  0  0  # atno 10763 bound_to 10752
  154.3857  135.6077  153.5819 H   0  0  0  0  0  0  0  0  0  0  0  0  # atno 10764 bound_to 10752
  152.9835  135.5891  154.4578 H   0  0  0  0  0  0  0  0  0  0  0  0  # atno 10765 bound_to 10752
  139.9155  134.7877  156.1836 H   0  0  0  0  0  0  0  0  0  0  0  0  # atno 11005 bound_to 11000
  144.7775  139.6598  143.7168 LP  0  0  0  0  0  0  0  0  0  0  0  0  # atno 17320 bound_to 7965
  146.2220  139.5653  142.9612 LP  0  0  0  0  0  0  0  0  0  0  0  0  # atno 17321 bound_to 7965
  140.7819  143.4445  151.0502 LP  0  0  0  0  0  0  0  0  0  0  0  0  # atno 17342 bound_to 10162
  139.8124  143.7932  152.3172 LP  0  0  0  0  0  0  0  0  0  0  0  0  # atno 17343 bound_to 10162
  156.0653  130.3693  150.0892 LP  0  0  0  0  0  0  0  0  0  0  0  0  # atno 17370 bound_to 10713
  156.9057  130.9635  151.3570 LP  0  0  0  0  0  0  0  0  0  0  0  0  # atno 17371 bound_to 10713
  141.0627  133.6834  156.1983 LP  0  0  0  0  0  0  0  0  0  0  0  0  # atno 17394 bound_to 11000
  140.6635  134.4942  157.5584 LP  0  0  0  0  0  0  0  0  0  0  0  0  # atno 17395 bound_to 11000

$$$$
