AV-unprocessed.smi:1930|AV-procd|sdf|7810|dock2
  -GOLD-   22720 9553D 1   1.00000     0.00000
 Structure written by MMmdl.
 42 43  0  0  0  0  0  0  0  0  2 V2000
  154.7791  133.4050  162.2539 C   0  0  0  0  0  0  0  0  0  0  0  0
  155.2738  134.5350  163.6182 S   0  0  0  0  0  0  0  0  0  0  0  0
  154.1528  134.6315  164.5657 O   0  0  0  0  0  0  0  0  0  0  0  0
  156.6018  134.1237  164.0987 O   0  0  0  0  0  0  0  0  0  0  0  0
  155.4445  136.0783  162.8347 N   0  0  0  0  0  0  0  0  0  0  0  0
  154.4900  137.1638  163.1570 C   0  0  0  0  0  0  0  0  0  0  0  0
  153.4653  137.3728  162.0248 C   0  0  0  0  0  0  0  0  0  0  0  0
  154.1891  137.5902  160.7649 N   0  0  0  0  0  0  0  0  0  0  0  0
  154.3509  138.7694  160.1155 C   0  0  0  0  0  0  0  0  0  0  0  0
  154.9366  138.8710  159.0370 O   0  0  0  0  0  0  0  0  0  0  0  0
  153.7759  139.8244  160.7171 N   0  0  0  0  0  0  0  0  0  0  0  0
  153.7774  141.1933  160.2086 C   0  0  0  0  0  0  0  0  0  0  0  0
  152.8012  141.4043  159.0337 C   0  0  0  0  0  0  0  0  0  0  0  0
  152.1920  142.7951  158.9901 C   0  0  0  0  0  0  0  0  0  0  0  0
  152.4810  143.7382  160.0010 C   0  0  0  0  0  0  0  0  0  0  0  0
  151.8969  145.0204  159.9379 C   0  0  0  0  0  0  0  0  0  0  0  0
  151.0366  145.3309  158.8649 C   0  0  0  0  0  0  0  0  0  0  0  0
  150.7838  144.4033  157.9155 N   0  3  0  0  0  0  0  0  0  0  0  0
  151.3242  143.1653  157.9393 C   0  0  0  0  0  0  0  0  0  0  0  0
  154.9427  136.3870  160.4063 C   0  0  0  0  0  0  0  0  0  0  0  0
  156.0260  136.1389  161.4742 C   0  0  0  0  0  0  0  0  0  0  0  0
  154.6496  132.3993  162.6529 H   0  0  0  0  0  0  0  0  0  0  0  0
  155.5547  133.3865  161.4899 H   0  0  0  0  0  0  0  0  0  0  0  0
  153.8372  133.7390  161.8214 H   0  0  0  0  0  0  0  0  0  0  0  0
  153.9781  136.9550  164.0960 H   0  0  0  0  0  0  0  0  0  0  0  0
  155.0550  138.0834  163.3129 H   0  0  0  0  0  0  0  0  0  0  0  0
  152.8268  136.4953  161.9236 H   0  0  0  0  0  0  0  0  0  0  0  0
  152.7893  138.1852  162.2904 H   0  0  0  0  0  0  0  0  0  0  0  0
  153.3059  139.6662  161.5965 H   0  0  0  0  0  0  0  0  0  0  0  0
  153.4932  141.8442  161.0360 H   0  0  0  0  0  0  0  0  0  0  0  0
  154.7883  141.4865  159.9208 H   0  0  0  0  0  0  0  0  0  0  0  0
  153.3163  141.2150  158.0913 H   0  0  0  0  0  0  0  0  0  0  0  0
  151.9973  140.6689  159.0862 H   0  0  0  0  0  0  0  0  0  0  0  0
  153.1414  143.4821  160.8167 H   0  0  0  0  0  0  0  0  0  0  0  0
  152.1067  145.7552  160.7015 H   0  0  0  0  0  0  0  0  0  0  0  0
  150.5472  146.2855  158.7376 H   0  0  0  0  0  0  0  0  0  0  0  0
  151.0440  142.5117  157.1256 H   0  0  0  0  0  0  0  0  0  0  0  0
  154.2625  135.5377  160.3440 H   0  0  0  0  0  0  0  0  0  0  0  0
  155.4053  136.4609  159.4210 H   0  0  0  0  0  0  0  0  0  0  0  0
  156.7559  136.9491  161.4488 H   0  0  0  0  0  0  0  0  0  0  0  0
  156.5745  135.2241  161.2519 H   0  0  0  0  0  0  0  0  0  0  0  0
  150.1601  144.6491  157.1464 H   0  0  0  0  0  0  0  0  0  0  0  0
  1  2  1  0  0  0  0
  1 22  1  0  0  0  0
  1 23  1  0  0  0  0
  1 24  1  0  0  0  0
  2  3  2  0  0  0  0
  2  4  2  0  0  0  0
  2  5  1  0  0  0  0
  5 21  1  0  0  0  0
  5  6  1  0  0  0  0
  6  7  1  0  0  0  0
  6 25  1  0  0  0  0
  6 26  1  0  0  0  0
  7  8  1  0  0  0  0
  7 27  1  0  0  0  0
  7 28  1  0  0  0  0
  8  9  1  0  0  0  0
  8 20  1  0  0  0  0
  9 10  2  0  0  0  0
  9 11  1  0  0  0  0
 11 12  1  0  0  0  0
 11 29  1  0  0  0  0
 12 13  1  0  0  0  0
 12 30  1  0  0  0  0
 12 31  1  0  0  0  0
 13 14  1  0  0  0  0
 13 32  1  0  0  0  0
 13 33  1  0  0  0  0
 14 19  1  0  0  0  0
 14 15  2  0  0  0  0
 15 16  1  0  0  0  0
 15 34  1  0  0  0  0
 16 17  2  0  0  0  0
 16 35  1  0  0  0  0
 17 18  1  0  0  0  0
 17 36  1  0  0  0  0
 18 19  2  0  0  0  0
 18 42  1  0  0  0  0
 19 37  1  0  0  0  0
 20 21  1  0  0  0  0
 20 38  1  0  0  0  0
 20 39  1  0  0  0  0
 21 40  1  0  0  0  0
 21 41  1  0  0  0  0
M  CHG  1  18   1
M  END
> <s_m_source_file>
AV-unprocessed.smi

> <i_m_source_file_index>
1930

> <i_lp_mmshare_version>
43012

> <i_f3d_flags>
0

> <s_epik_input>
W0NIM11TKD1PKSg9TylOMVtDSDJdW0NIMl1OKFtDSDJdW0NIMl0xKUMoPU8pW05IXVtDSDJdW0NIMl1jMltjSF1bY0hdW2NIXW5bY0hdMg==

> <s_epik_cmdline>
J2VwaWtfcHl0aG9uJywgJy1waCcsICc3LjAnLCAnLXRuJywgJzgnLCAnLW1hJywgJzIwMCcsICctbWV0YWxfYmluZGluZycsICctaW1hZScsICc8aW5maWxlLm1hZT4nLCAnLW9tYWUnLCAnPG91dGZpbGUubWFlPic=

> <r_epik_Ionization_Penalty>
2.21237

> <r_epik_Ionization_Penalty_Charging>
2.21233

> <r_epik_Ionization_Penalty_Neutral>
3.86464e-05

> <r_epik_State_Penalty>
2.35665

> <r_epik_Charging_Adjusted_Penalty>
4.56898

> <i_epik_Tot_Q>
1

> <i_epik_Tot_abs_Q>
1

> <r_epik_Metal_State_Penalty>
2.37073

> <b_epik_Metal_Only>
0

> <s_lp_Force_Field>
OPLS_2005

> <r_lp_Energy>
33.224

> <b_lp_Chiralities_Consistent>
1

> <s_lp_Variant>
AV-unprocessed.smi:1930-2

> <Gold.Version>
5.8.1

> <Gold.Id.Protein>
6NUR|6NUR_protein|mol2

> <Gold.PLP.Fitness>
46.1848

> <Gold.PLP.PLP>
-37.9616

> <Gold.PLP.part.hbond>
-2.0591

> <Gold.PLP.part.metal>
0.0000

> <Gold.PLP.part.buried>
-5.1133

> <Gold.PLP.part.nonpolar>
-31.0329

> <Gold.PLP.part.repulsive>
0.2226

> <Gold.PLP.ligand.clash>
0.0000

> <Gold.PLP.ligand.torsion>
1.4542

> <Gold.PLP.Chemscore.Hbond>
3.0000

> <Gold.PLP.Chemscore.CHOScore>
0.0000

> <Gold.PLP.Chemscore.Metal>
0.0000

> <Gold.Chemscore.Hbonds>
donor molecule, donor type, donor heavy atom, donor atom, acceptor molecule, acceptor atom, score
      L1  H    18    42       P1  8028  2.00
      P1  H  7997  8009       L1    10  0.96

> <Gold.PLP.Chemscore.Internal.Correction>
2.1316

> <Gold.Rescore>
     Score         DG    S(hbond)    S(metal)    S(lipo)     H(rot)  DE(clash)    DE(int)     intcor
     18.48     -19.92       1.84        0.00     103.10       1.47       0.02       1.42       ----

> <Gold.Chemscore.Fitness>
18.4812

> <Gold.Chemscore.DG>
-19.9245

> <Gold.Chemscore.ZeroCoef>
-5.4800

> <Gold.Chemscore.Hbond>
1.8408

> <Gold.Chemscore.Metal>
0.0000

> <Gold.Chemscore.Lipo>
103.1029

> <Gold.Chemscore.Internal_Hbond>
0.0000

> <Gold.Chemscore.DEClash>
0.0243

> <Gold.Chemscore.DEInternal>
1.4190

> <Gold.Chemscore.Rot>
1.4714

> <Gold.Chemscore.Internal.Correction>
   9.000000E+99

> <Gold.Chemscore.Hbonds>
donor molecule, donor type, donor heavy atom, donor atom, acceptor molecule, acceptor atom, score
      L1  H    18    42       P1  8028  0.40
      P1  H  7997  8009       L1    10  0.91

> <Gold.Chemscore.Hbond.Weighted>
-6.1482

> <Gold.Chemscore.Metal.Weighted>
-0.0000

> <Gold.Chemscore.Lipo.Weighted>
-12.0630

> <Gold.Chemscore.Internal_Hbond.Weighted>
0.0000

> <Gold.Chemscore.DEClash.Weighted>
0.0243

> <Gold.Chemscore.DEInternal.Weighted>
1.4190

> <Gold.Chemscore.Rot.Weighted>
3.7667

> <Gold.Chemscore.Internal.Correction.Weighted>
   9.000000E+99

> <Gold.Protein.RotatedTorsions>
[ 6907 6896 6895 6894 ] final   97.85 input  -60.11 | X-H torsion
[ 7974 7965 7964 7962 ] final  177.65 input  175.53 | X-H torsion
[ 8008 7997 7996 7995 ] final  114.80 input   59.86 | X-H torsion
[ 10167 10162 10161 10158 ] final  -96.72 input  -65.29 | X-H torsion
[ 10718 10713 10712 10709 ] final   86.72 input   66.30 | X-H torsion
[ 10763 10752 10751 10750 ] final  -42.39 input  -60.55 | X-H torsion
[ 11005 11000 10999 10996 ] final  170.57 input  -57.11 | X-H torsion

> <Gold.Protein.ActiveResidues>
 VAL166  LYS551  ARG553  GLY616  TRP617  ASP618  TYR619  PRO620  LYS621  CYS622 
 ASP623  PHE694  ASN695  SER759  ASP760  ASP761  ALA762  ILE779  LEU786  VAL792 
 PHE793  MET794  SER795  GLU796  ALA797  LYS798  CYS799  TRP800  GLU811  SER814 

> <Gold.Protein.RotatedAtoms>
  152.5418  134.0670  159.8176 H   0  0  0  0  0  0  0  0  0  0  0  0  # atno 6907 bound_to 6896
  151.0790  133.5398  159.2629 H   0  0  0  0  0  0  0  0  0  0  0  0  # atno 6908 bound_to 6896
  151.2232  135.0535  159.9012 H   0  0  0  0  0  0  0  0  0  0  0  0  # atno 6909 bound_to 6896
  144.7166  140.0279  143.6439 H   0  0  0  0  0  0  0  0  0  0  0  0  # atno 7974 bound_to 7965
  156.2343  140.2952  156.0271 H   0  0  0  0  0  0  0  0  0  0  0  0  # atno 8008 bound_to 7997
  155.2136  140.0413  157.2954 H   0  0  0  0  0  0  0  0  0  0  0  0  # atno 8009 bound_to 7997
  154.6051  140.2437  155.7749 H   0  0  0  0  0  0  0  0  0  0  0  0  # atno 8010 bound_to 7997
  140.2908  143.3222  152.0347 H   0  0  0  0  0  0  0  0  0  0  0  0  # atno 10167 bound_to 10162
  157.6932  131.0227  150.3015 H   0  0  0  0  0  0  0  0  0  0  0  0  # atno 10718 bound_to 10713
  153.9782  135.6720  153.4749 H   0  0  0  0  0  0  0  0  0  0  0  0  # atno 10763 bound_to 10752
  153.0761  135.4948  154.8403 H   0  0  0  0  0  0  0  0  0  0  0  0  # atno 10764 bound_to 10752
  154.7180  135.3111  154.9054 H   0  0  0  0  0  0  0  0  0  0  0  0  # atno 10765 bound_to 10752
  140.3097  134.7527  157.3981 H   0  0  0  0  0  0  0  0  0  0  0  0  # atno 11005 bound_to 11000
  146.0126  139.3183  143.0861 LP  0  0  0  0  0  0  0  0  0  0  0  0  # atno 17320 bound_to 7965
  145.8663  140.9446  143.0674 LP  0  0  0  0  0  0  0  0  0  0  0  0  # atno 17321 bound_to 7965
  139.4938  144.6526  151.6643 LP  0  0  0  0  0  0  0  0  0  0  0  0  # atno 17342 bound_to 10162
  140.5733  144.0071  150.6228 LP  0  0  0  0  0  0  0  0  0  0  0  0  # atno 17343 bound_to 10162
  156.3530  130.3834  149.7313 LP  0  0  0  0  0  0  0  0  0  0  0  0  # atno 17370 bound_to 10713
  156.4785  130.8030  151.3045 LP  0  0  0  0  0  0  0  0  0  0  0  0  # atno 17371 bound_to 10713
  140.1036  134.5440  155.8330 LP  0  0  0  0  0  0  0  0  0  0  0  0  # atno 17394 bound_to 11000
  141.2111  133.6702  156.6556 LP  0  0  0  0  0  0  0  0  0  0  0  0  # atno 17395 bound_to 11000

$$$$
