AV-unprocessed.smi:1534|AV-procd|sdf|6168|dock5
  -GOLD-   22720 6313D 1   1.00000     0.00000
 Structure written by MMmdl.
 37 38  0  0  0  0  0  0  0  0  2 V2000
  147.2247  140.9189  155.3127 O   0  0  0  0  0  0  0  0  0  0  0  0
  147.8188  141.8918  154.8523 C   0  0  0  0  0  0  0  0  0  0  0  0
  149.1527  142.0420  154.9201 N   0  0  0  0  0  0  0  0  0  0  0  0
  150.0705  141.0886  155.5320 C   0  0  0  0  0  0  0  0  0  0  0  0
  149.8653  141.0018  157.0540 C   0  0  0  0  0  0  0  0  0  0  0  0
  150.7372  141.9869  157.8076 C   0  0  0  0  0  0  0  0  0  0  0  0
  151.5539  141.5904  158.8888 C   0  0  0  0  0  0  0  0  0  0  0  0
  152.3366  142.5582  159.5525 C   0  0  0  0  0  0  0  0  0  0  0  0
  152.2853  143.9005  159.1223 C   0  0  0  0  0  0  0  0  0  0  0  0
  151.4505  144.2413  158.0385 C   0  0  0  0  0  0  0  0  0  0  0  0
  150.7150  143.2854  157.4288 N   0  3  0  0  0  0  0  0  0  0  0  0
  147.1693  142.8886  154.2253 N   0  0  0  0  0  0  0  0  0  0  0  0
  145.7314  143.0225  153.9879 C   0  0  2  0  0  0  0  0  0  0  0  0
  145.4178  144.3306  153.2381 C   0  0  0  0  0  0  0  0  0  0  0  0
  143.9108  144.6042  153.3265 C   0  0  0  0  0  0  0  0  0  0  0  0
  143.3472  143.8619  154.9053 S   0  0  0  0  0  0  0  0  0  0  0  0
  143.0977  144.9228  155.8928 O   0  0  0  0  0  0  0  0  0  0  0  0
  142.3279  142.8426  154.6133 O   0  0  0  0  0  0  0  0  0  0  0  0
  144.9321  143.0351  155.3012 C   0  0  0  0  0  0  0  0  0  0  0  0
  149.5586  142.8738  154.5163 H   0  0  0  0  0  0  0  0  0  0  0  0
  149.9007  140.1135  155.0745 H   0  0  0  0  0  0  0  0  0  0  0  0
  151.1005  141.3657  155.3004 H   0  0  0  0  0  0  0  0  0  0  0  0
  148.8217  141.1932  157.3079 H   0  0  0  0  0  0  0  0  0  0  0  0
  150.0853  139.9921  157.4039 H   0  0  0  0  0  0  0  0  0  0  0  0
  151.5797  140.5585  159.2087 H   0  0  0  0  0  0  0  0  0  0  0  0
  152.9674  142.2743  160.3821 H   0  0  0  0  0  0  0  0  0  0  0  0
  152.8767  144.6571  159.6173 H   0  0  0  0  0  0  0  0  0  0  0  0
  151.3495  145.2417  157.6438 H   0  0  0  0  0  0  0  0  0  0  0  0
  147.7439  143.6315  153.8536 H   0  0  0  0  0  0  0  0  0  0  0  0
  145.3787  142.1972  153.3668 H   0  0  0  0  0  0  0  0  0  0  0  0
  145.9480  145.1549  153.7176 H   0  0  0  0  0  0  0  0  0  0  0  0
  145.7567  144.2960  152.2021 H   0  0  0  0  0  0  0  0  0  0  0  0
  143.6707  145.6672  153.3023 H   0  0  0  0  0  0  0  0  0  0  0  0
  143.3788  144.1095  152.5135 H   0  0  0  0  0  0  0  0  0  0  0  0
  144.7433  142.0403  155.7044 H   0  0  0  0  0  0  0  0  0  0  0  0
  145.4356  143.6304  156.0638 H   0  0  0  0  0  0  0  0  0  0  0  0
  150.1172  143.5551  156.6471 H   0  0  0  0  0  0  0  0  0  0  0  0
  1  2  2  0  0  0  0
  2  3  1  0  0  0  0
  2 12  1  0  0  0  0
  3  4  1  0  0  0  0
  3 20  1  0  0  0  0
  4  5  1  0  0  0  0
  4 21  1  0  0  0  0
  4 22  1  0  0  0  0
  5  6  1  0  0  0  0
  5 23  1  0  0  0  0
  5 24  1  0  0  0  0
  6 11  1  0  0  0  0
  6  7  2  0  0  0  0
  7  8  1  0  0  0  0
  7 25  1  0  0  0  0
  8  9  2  0  0  0  0
  8 26  1  0  0  0  0
  9 10  1  0  0  0  0
  9 27  1  0  0  0  0
 10 11  2  0  0  0  0
 10 28  1  0  0  0  0
 11 37  1  0  0  0  0
 12 13  1  0  0  0  0
 12 29  1  0  0  0  0
 13 19  1  0  0  0  0
 13 14  1  0  0  0  0
 13 30  1  0  0  0  0
 14 15  1  0  0  0  0
 14 31  1  0  0  0  0
 14 32  1  0  0  0  0
 15 16  1  0  0  0  0
 15 33  1  0  0  0  0
 15 34  1  0  0  0  0
 16 17  2  0  0  0  0
 16 18  2  0  0  0  0
 16 19  1  0  0  0  0
 19 35  1  0  0  0  0
 19 36  1  0  0  0  0
M  CHG  1  11   1
M  END
> <s_m_source_file>
AV-unprocessed.smi

> <i_m_source_file_index>
1534

> <i_lp_mmshare_version>
43012

> <i_f3d_flags>
0

> <s_epik_input>
Tz1TMSg9TylbQ0gyXVtDSDJdW0NASF0oW0NIMl0xKVtOSF1DKD1PKVtOSF1bQ0gyXVtDSDJdYzJbY0hdW2NIXVtjSF1bY0hdbjI=

> <s_epik_cmdline>
J2VwaWtfcHl0aG9uJywgJy1waCcsICc3LjAnLCAnLXRuJywgJzgnLCAnLW1hJywgJzIwMCcsICctbWV0YWxfYmluZGluZycsICctaW1hZScsICc8aW5maWxlLm1hZT4nLCAnLW9tYWUnLCAnPG91dGZpbGUubWFlPic=

> <r_epik_Ionization_Penalty>
1.58466

> <r_epik_Ionization_Penalty_Charging>
1.58462

> <r_epik_Ionization_Penalty_Neutral>
3.4911e-05

> <r_epik_State_Penalty>
1.6815

> <r_epik_Charging_Adjusted_Penalty>
3.26612

> <i_epik_Tot_Q>
1

> <i_epik_Tot_abs_Q>
1

> <r_epik_Metal_State_Penalty>
1.72144

> <b_epik_Metal_Only>
0

> <s_lp_Force_Field>
OPLS_2005

> <r_lp_Energy>
16.0644

> <b_lp_Chiralities_Consistent>
1

> <s_lp_Variant>
AV-unprocessed.smi:1534-3

> <Gold.Version>
5.8.1

> <Gold.Id.Protein>
6NUR|6NUR_protein|mol2

> <Gold.PLP.Fitness>
42.4698

> <Gold.PLP.PLP>
-36.9157

> <Gold.PLP.part.hbond>
-3.0000

> <Gold.PLP.part.metal>
0.0000

> <Gold.PLP.part.buried>
-3.3213

> <Gold.PLP.part.nonpolar>
-32.2525

> <Gold.PLP.part.repulsive>
0.6024

> <Gold.PLP.ligand.clash>
0.0000

> <Gold.PLP.ligand.torsion>
0.2924

> <Gold.PLP.Chemscore.Hbond>
2.0434

> <Gold.PLP.Chemscore.CHOScore>
0.0000

> <Gold.PLP.Chemscore.Metal>
0.0000

> <Gold.Chemscore.Hbonds>
donor molecule, donor type, donor heavy atom, donor atom, acceptor molecule, acceptor atom, score
      L1  H     3    20       P1  8028  0.10
      L1  H    11    37       P1  8028  2.00
      L1  H    12    29       P1  8028  0.05

> <Gold.PLP.Chemscore.Internal.Correction>
0.0087

> <Gold.Rescore>
     Score         DG    S(hbond)    S(metal)    S(lipo)     H(rot)  DE(clash)    DE(int)     intcor
     14.64     -15.60       1.19        0.00      92.35       1.82       0.70       0.26       ----

> <Gold.Chemscore.Fitness>
14.6353

> <Gold.Chemscore.DG>
-15.5952

> <Gold.Chemscore.ZeroCoef>
-5.4800

> <Gold.Chemscore.Hbond>
1.1899

> <Gold.Chemscore.Metal>
0.0000

> <Gold.Chemscore.Lipo>
92.3512

> <Gold.Chemscore.Internal_Hbond>
0.0000

> <Gold.Chemscore.DEClash>
0.6985

> <Gold.Chemscore.DEInternal>
0.2614

> <Gold.Chemscore.Rot>
1.8220

> <Gold.Chemscore.Internal.Correction>
   9.000000E+99

> <Gold.Chemscore.Hbonds>
donor molecule, donor type, donor heavy atom, donor atom, acceptor molecule, acceptor atom, score
      L1  H     3    20       P1  8028  0.10
      L1  H    11    37       P1  8028  0.97
      L1  H    12    29       P1  8028  0.03

> <Gold.Chemscore.Hbond.Weighted>
-3.9743

> <Gold.Chemscore.Metal.Weighted>
-0.0000

> <Gold.Chemscore.Lipo.Weighted>
-10.8051

> <Gold.Chemscore.Internal_Hbond.Weighted>
0.0000

> <Gold.Chemscore.DEClash.Weighted>
0.6985

> <Gold.Chemscore.DEInternal.Weighted>
0.2614

> <Gold.Chemscore.Rot.Weighted>
4.6642

> <Gold.Chemscore.Internal.Correction.Weighted>
   9.000000E+99

> <Gold.Protein.RotatedTorsions>
[ 6907 6896 6895 6894 ] final -124.27 input  -60.11 | X-H torsion
[ 7974 7965 7964 7962 ] final -145.40 input  175.53 | X-H torsion
[ 8008 7997 7996 7995 ] final  -42.50 input   59.86 | X-H torsion
[ 10167 10162 10161 10158 ] final -147.23 input  -65.29 | X-H torsion
[ 10718 10713 10712 10709 ] final -100.49 input   66.30 | X-H torsion
[ 10763 10752 10751 10750 ] final -130.37 input  -60.55 | X-H torsion
[ 11005 11000 10999 10996 ] final -111.55 input  -57.11 | X-H torsion

> <Gold.Protein.ActiveResidues>
 VAL166  LYS551  ARG553  GLY616  TRP617  ASP618  TYR619  PRO620  LYS621  CYS622 
 ASP623  PHE694  ASN695  SER759  ASP760  ASP761  ALA762  ILE779  LEU786  VAL792 
 PHE793  MET794  SER795  GLU796  ALA797  LYS798  CYS799  TRP800  GLU811  SER814 

> <Gold.Protein.RotatedAtoms>
  150.8751  133.7450  159.2948 H   0  0  0  0  0  0  0  0  0  0  0  0  # atno 6907 bound_to 6896
  151.5049  135.1061  159.9848 H   0  0  0  0  0  0  0  0  0  0  0  0  # atno 6908 bound_to 6896
  152.4722  133.8011  159.7009 H   0  0  0  0  0  0  0  0  0  0  0  0  # atno 6909 bound_to 6896
  144.8230  140.5588  143.5566 H   0  0  0  0  0  0  0  0  0  0  0  0  # atno 7974 bound_to 7965
  154.3999  140.1472  156.3365 H   0  0  0  0  0  0  0  0  0  0  0  0  # atno 8008 bound_to 7997
  155.8395  140.3462  155.5602 H   0  0  0  0  0  0  0  0  0  0  0  0  # atno 8009 bound_to 7997
  155.8102  140.0883  157.1898 H   0  0  0  0  0  0  0  0  0  0  0  0  # atno 8010 bound_to 7997
  139.7641  143.8334  152.2613 H   0  0  0  0  0  0  0  0  0  0  0  0  # atno 10167 bound_to 10162
  156.0165  130.5330  150.6825 H   0  0  0  0  0  0  0  0  0  0  0  0  # atno 10718 bound_to 10713
  154.8755  135.3865  154.4072 H   0  0  0  0  0  0  0  0  0  0  0  0  # atno 10763 bound_to 10752
  153.4790  135.7030  153.5954 H   0  0  0  0  0  0  0  0  0  0  0  0  # atno 10764 bound_to 10752
  153.4378  135.3863  155.2177 H   0  0  0  0  0  0  0  0  0  0  0  0  # atno 10765 bound_to 10752
  141.0728  133.9351  157.2451 H   0  0  0  0  0  0  0  0  0  0  0  0  # atno 11005 bound_to 11000
  145.5063  139.1481  143.3629 LP  0  0  0  0  0  0  0  0  0  0  0  0  # atno 17320 bound_to 7965
  146.2535  140.5203  142.8883 LP  0  0  0  0  0  0  0  0  0  0  0  0  # atno 17321 bound_to 7965
  139.8349  144.7237  150.9404 LP  0  0  0  0  0  0  0  0  0  0  0  0  # atno 17342 bound_to 10162
  140.7809  143.4036  151.1108 LP  0  0  0  0  0  0  0  0  0  0  0  0  # atno 17343 bound_to 10162
  157.4524  131.0874  151.0832 LP  0  0  0  0  0  0  0  0  0  0  0  0  # atno 17370 bound_to 10713
  157.1344  130.6116  149.5538 LP  0  0  0  0  0  0  0  0  0  0  0  0  # atno 17371 bound_to 10713
  139.9541  135.0169  156.9077 LP  0  0  0  0  0  0  0  0  0  0  0  0  # atno 17394 bound_to 11000
  140.5638  134.0510  155.7407 LP  0  0  0  0  0  0  0  0  0  0  0  0  # atno 17395 bound_to 11000

$$$$
