AV-unprocessed.smi:265|AV-procd|sdf|2022|dock10
  -GOLD-   2262021223D 1   1.00000     0.00000
 Structure written by MMmdl.
 52 56  0  0  0  0  0  0  0  0  1 V2000
  153.4994  141.9572  159.6340 C   0  0  0  0  0  0  0  0  0  0  0  0
  152.1794  142.7140  159.8487 C   0  0  1  0  0  0  0  0  0  0  0  0
  152.5106  144.0050  160.3562 O   0  0  0  0  0  0  0  0  0  0  0  0
  151.5668  144.9481  159.8800 C   0  0  0  0  0  0  0  0  0  0  0  0
  151.3310  144.4844  158.4509 C   0  0  0  0  0  0  0  0  0  0  0  0
  151.3056  142.9651  158.5871 C   0  0  2  0  0  0  0  0  0  0  0  0
  149.9773  142.5803  158.9015 O   0  0  0  0  0  0  0  0  0  0  0  0
  151.7250  142.2131  157.2964 C   0  0  0  0  0  0  0  0  0  0  0  0
  151.3715  140.8013  157.3070 N   0  0  0  0  0  0  0  0  0  0  0  0
  151.5541  139.9149  158.3445 C   0  0  0  0  0  0  0  0  0  0  0  0
  151.1552  138.6946  158.1109 N   0  0  0  0  0  0  0  0  0  0  0  0
  150.6637  138.7398  156.8113 C   0  0  0  0  0  0  0  0  0  0  0  0
  150.0885  137.7761  155.9346 C   0  0  0  0  0  0  0  0  0  0  0  0
  149.8859  136.4832  156.2957 N   0  0  0  0  0  0  0  0  0  0  0  0
  148.8257  136.2827  157.2811 C   0  0  0  0  0  0  0  0  0  0  0  0
  148.9616  134.9082  157.9528 C   0  0  0  0  0  0  0  0  0  0  0  0
  149.0263  133.7711  156.9199 C   0  0  1  0  0  0  0  0  0  0  0  0
  147.7742  133.6326  156.2608 O   0  0  0  0  0  0  0  0  0  0  0  0
  147.6917  132.4835  155.4157 C   0  0  0  0  0  0  0  0  0  0  0  0
  148.9031  132.3614  154.4724 C   0  0  0  0  0  0  0  0  0  0  0  0
  148.8499  131.6104  153.5011 O   0  0  0  0  0  0  0  0  0  0  0  0
  150.0105  133.0596  154.7711 N   0  0  0  0  0  0  0  0  0  0  0  0
  150.0943  134.0497  155.8399 C   0  0  1  0  0  0  0  0  0  0  0  0
  149.9461  135.4656  155.2457 C   0  0  0  0  0  0  0  0  0  0  0  0
  149.7386  138.1962  154.6890 N   0  0  0  0  0  0  0  0  0  0  0  0
  149.9291  139.4678  154.3260 C   0  0  0  0  0  0  0  0  0  0  0  0
  150.4464  140.4700  155.0384 N   0  0  0  0  0  0  0  0  0  0  0  0
  150.8040  140.0563  156.2874 C   0  0  0  0  0  0  0  0  0  0  0  0
  149.2525  132.8400  157.4432 H   0  0  0  0  0  0  0  0  0  0  0  0
  151.0814  133.9667  156.2963 H   0  0  0  0  0  0  0  0  0  0  0  0
  153.3259  140.9498  159.2555 H   0  0  0  0  0  0  0  0  0  0  0  0
  154.0435  141.8611  160.5737 H   0  0  0  0  0  0  0  0  0  0  0  0
  154.1501  142.4800  158.9327 H   0  0  0  0  0  0  0  0  0  0  0  0
  151.6034  142.1907  160.6144 H   0  0  0  0  0  0  0  0  0  0  0  0
  150.6520  144.8868  160.4715 H   0  0  0  0  0  0  0  0  0  0  0  0
  151.9505  145.9668  159.9372 H   0  0  0  0  0  0  0  0  0  0  0  0
  150.4292  144.9054  158.0041 H   0  0  0  0  0  0  0  0  0  0  0  0
  152.1803  144.7923  157.8401 H   0  0  0  0  0  0  0  0  0  0  0  0
  149.5865  142.1991  158.1303 H   0  0  0  0  0  0  0  0  0  0  0  0
  151.2587  142.6647  156.4204 H   0  0  0  0  0  0  0  0  0  0  0  0
  152.8027  142.2897  157.1460 H   0  0  0  0  0  0  0  0  0  0  0  0
  151.9931  140.2053  159.2881 H   0  0  0  0  0  0  0  0  0  0  0  0
  148.8344  137.0588  158.0455 H   0  0  0  0  0  0  0  0  0  0  0  0
  147.8614  136.3559  156.7762 H   0  0  0  0  0  0  0  0  0  0  0  0
  149.8711  134.8961  158.5548 H   0  0  0  0  0  0  0  0  0  0  0  0
  148.1333  134.7435  158.6425 H   0  0  0  0  0  0  0  0  0  0  0  0
  147.6308  131.5844  156.0301 H   0  0  0  0  0  0  0  0  0  0  0  0
  146.7729  132.5379  154.8314 H   0  0  0  0  0  0  0  0  0  0  0  0
  150.8185  132.9525  154.1754 H   0  0  0  0  0  0  0  0  0  0  0  0
  149.0370  135.5274  154.6451 H   0  0  0  0  0  0  0  0  0  0  0  0
  150.7857  135.6663  154.5782 H   0  0  0  0  0  0  0  0  0  0  0  0
  149.6226  139.7181  153.3209 H   0  0  0  0  0  0  0  0  0  0  0  0
  1  2  1  0  0  0  0
  1 31  1  0  0  0  0
  1 32  1  0  0  0  0
  1 33  1  0  0  0  0
  2  6  1  0  0  0  0
  2  3  1  0  0  0  0
  2 34  1  0  0  0  0
  3  4  1  0  0  0  0
  4  5  1  0  0  0  0
  4 35  1  0  0  0  0
  4 36  1  0  0  0  0
  5  6  1  0  0  0  0
  5 37  1  0  0  0  0
  5 38  1  0  0  0  0
  6  7  1  0  0  0  0
  6  8  1  0  0  0  0
  7 39  1  0  0  0  0
  8  9  1  0  0  0  0
  8 40  1  0  0  0  0
  8 41  1  0  0  0  0
  9 28  1  0  0  0  0
  9 10  1  0  0  0  0
 10 11  2  0  0  0  0
 10 42  1  0  0  0  0
 11 12  1  0  0  0  0
 12 28  2  0  0  0  0
 12 13  1  0  0  0  0
 13 14  1  0  0  0  0
 13 25  2  0  0  0  0
 14 24  1  0  0  0  0
 14 15  1  0  0  0  0
 15 16  1  0  0  0  0
 15 43  1  0  0  0  0
 15 44  1  0  0  0  0
 16 17  1  0  0  0  0
 16 45  1  0  0  0  0
 16 46  1  0  0  0  0
 17 29  1  0  0  0  0
 17 23  1  0  0  0  0
 17 18  1  0  0  0  0
 18 19  1  0  0  0  0
 19 20  1  0  0  0  0
 19 47  1  0  0  0  0
 19 48  1  0  0  0  0
 20 21  2  0  0  0  0
 20 22  1  0  0  0  0
 22 23  1  0  0  0  0
 22 49  1  0  0  0  0
 23 30  1  0  0  0  0
 23 24  1  0  0  0  0
 24 50  1  0  0  0  0
 24 51  1  0  0  0  0
 25 26  1  0  0  0  0
 26 27  2  0  0  0  0
 26 52  1  0  0  0  0
 27 28  1  0  0  0  0
M  END
> <s_m_source_file>
AV-unprocessed.smi

> <i_m_source_file_index>
265

> <i_lp_mmshare_version>
43012

> <i_f3d_flags>
0

> <s_epik_input>
W0NIMl0xW0NIMl1PW0NAQEhdKFtDSDNdKVtDQEBdMShbT0hdKVtDSDJdbihbY0hdbjIpYyhjMjMpbltjSF1uYzNOKFtDSDJdW0NIMl00KVtDSDJdW0NAQEhdKFtDQEhdNDUpW05IXUMoPU8pW0NIMl1PNQ==

> <s_epik_cmdline>
J2VwaWtfcHl0aG9uJywgJy1waCcsICc3LjAnLCAnLXRuJywgJzgnLCAnLW1hJywgJzIwMCcsICctbWV0YWxfYmluZGluZycsICctaW1hZScsICc8aW5maWxlLm1hZT4nLCAnLW9tYWUnLCAnPG91dGZpbGUubWFlPic=

> <r_lp_tautomer_probability>
1

> <r_epik_Ionization_Penalty>
0.00221504

> <r_epik_Ionization_Penalty_Charging>
0

> <r_epik_Ionization_Penalty_Neutral>
0.00221504

> <r_epik_State_Penalty>
-0

> <r_epik_Charging_Adjusted_Penalty>
0

> <i_epik_Tot_Q>
0

> <i_epik_Tot_abs_Q>
0

> <r_epik_Metal_State_Penalty>
-0

> <b_epik_Metal_Only>
0

> <s_lp_Force_Field>
OPLS_2005

> <r_lp_Energy>
44.6863

> <b_lp_Chiralities_Consistent>
1

> <s_lp_Variant>
AV-unprocessed.smi:265-8

> <Gold.Version>
5.8.1

> <Gold.Id.Protein>
6NUR|6NUR_protein|mol2

> <Gold.PLP.Fitness>
40.0388

> <Gold.PLP.PLP>
-36.9965

> <Gold.PLP.part.hbond>
-1.6504

> <Gold.PLP.part.metal>
0.0000

> <Gold.PLP.part.buried>
-7.4648

> <Gold.PLP.part.nonpolar>
-28.7611

> <Gold.PLP.part.repulsive>
0.4462

> <Gold.PLP.ligand.clash>
0.0000

> <Gold.PLP.ligand.torsion>
0.8364

> <Gold.PLP.Chemscore.Hbond>
0.4500

> <Gold.PLP.Chemscore.CHOScore>
1.0000

> <Gold.PLP.Chemscore.Metal>
0.0000

> <Gold.Chemscore.Hbonds>
donor molecule, donor type, donor heavy atom, donor atom, acceptor molecule, acceptor atom, score
      P1  H  7989  7998       L1    27  0.45
      L1  C    26    52       P1  7957  1.00

> <Gold.PLP.Chemscore.Internal.Correction>
0.3651

> <Gold.Rescore>
     Score         DG    S(hbond)    S(metal)    S(lipo)     H(rot)  DE(clash)    DE(int)     intcor
      9.85     -10.91       0.51        0.00      80.84       2.25       0.20       0.85       ----

> <Gold.Chemscore.Fitness>
9.8521

> <Gold.Chemscore.DG>
-10.9075

> <Gold.Chemscore.ZeroCoef>
-5.4800

> <Gold.Chemscore.Hbond>
0.5142

> <Gold.Chemscore.Metal>
0.0000

> <Gold.Chemscore.Lipo>
80.8390

> <Gold.Chemscore.Internal_Hbond>
0.0000

> <Gold.Chemscore.DEClash>
0.2025

> <Gold.Chemscore.DEInternal>
0.8530

> <Gold.Chemscore.Rot>
2.2453

> <Gold.Chemscore.Internal.Correction>
   9.000000E+99

> <Gold.Chemscore.Hbonds>
donor molecule, donor type, donor heavy atom, donor atom, acceptor molecule, acceptor atom, score
      P1  H  7989  7998       L1    27  0.01

> <Gold.Chemscore.Hbond.Weighted>
-1.7173

> <Gold.Chemscore.Metal.Weighted>
-0.0000

> <Gold.Chemscore.Lipo.Weighted>
-9.4582

> <Gold.Chemscore.Internal_Hbond.Weighted>
0.0000

> <Gold.Chemscore.DEClash.Weighted>
0.2025

> <Gold.Chemscore.DEInternal.Weighted>
0.8530

> <Gold.Chemscore.Rot.Weighted>
5.7479

> <Gold.Chemscore.Internal.Correction.Weighted>
   9.000000E+99

> <Gold.Protein.RotatedTorsions>
[ 6907 6896 6895 6894 ] final   41.61 input  -60.11 | X-H torsion
[ 7974 7965 7964 7962 ] final -106.86 input  175.53 | X-H torsion
[ 8008 7997 7996 7995 ] final -121.62 input   59.86 | X-H torsion
[ 10167 10162 10161 10158 ] final  117.28 input  -65.29 | X-H torsion
[ 10718 10713 10712 10709 ] final   67.96 input   66.30 | X-H torsion
[ 10763 10752 10751 10750 ] final -121.20 input  -60.55 | X-H torsion
[ 11005 11000 10999 10996 ] final -109.39 input  -57.11 | X-H torsion

> <Gold.Protein.ActiveResidues>
 VAL166  LYS551  ARG553  GLY616  TRP617  ASP618  TYR619  PRO620  LYS621  CYS622 
 ASP623  PHE694  ASN695  SER759  ASP760  ASP761  ALA762  ILE779  LEU786  VAL792 
 PHE793  MET794  SER795  GLU796  ALA797  LYS798  CYS799  TRP800  GLU811  SER814 

> <Gold.Protein.RotatedAtoms>
  152.1974  134.8618  160.0511 H   0  0  0  0  0  0  0  0  0  0  0  0  # atno 6907 bound_to 6896
  151.9484  133.3653  159.3999 H   0  0  0  0  0  0  0  0  0  0  0  0  # atno 6908 bound_to 6896
  150.6947  134.4290  159.5283 H   0  0  0  0  0  0  0  0  0  0  0  0  # atno 6909 bound_to 6896
  145.2126  140.9102  143.3306 H   0  0  0  0  0  0  0  0  0  0  0  0  # atno 7974 bound_to 7965
  155.1510  140.0404  157.2821 H   0  0  0  0  0  0  0  0  0  0  0  0  # atno 8008 bound_to 7997
  154.6404  140.2545  155.7302 H   0  0  0  0  0  0  0  0  0  0  0  0  # atno 8009 bound_to 7997
  156.2529  140.2857  156.0795 H   0  0  0  0  0  0  0  0  0  0  0  0  # atno 8010 bound_to 7997
  139.6190  144.7097  151.2677 H   0  0  0  0  0  0  0  0  0  0  0  0  # atno 10167 bound_to 10162
  157.6261  130.9348  150.0313 H   0  0  0  0  0  0  0  0  0  0  0  0  # atno 10718 bound_to 10713
  154.8662  135.4176  154.2582 H   0  0  0  0  0  0  0  0  0  0  0  0  # atno 10763 bound_to 10752
  153.3515  135.6999  153.6790 H   0  0  0  0  0  0  0  0  0  0  0  0  # atno 10764 bound_to 10752
  153.5728  135.3588  155.2817 H   0  0  0  0  0  0  0  0  0  0  0  0  # atno 10765 bound_to 10752
  141.0850  133.9155  157.2205 H   0  0  0  0  0  0  0  0  0  0  0  0  # atno 11005 bound_to 11000
  144.9842  139.3753  143.6247 LP  0  0  0  0  0  0  0  0  0  0  0  0  # atno 17320 bound_to 7965
  146.3394  139.8996  142.8796 LP  0  0  0  0  0  0  0  0  0  0  0  0  # atno 17321 bound_to 7965
  140.7369  143.6693  150.8096 LP  0  0  0  0  0  0  0  0  0  0  0  0  # atno 17342 bound_to 10162
  140.0300  143.5453  152.2764 LP  0  0  0  0  0  0  0  0  0  0  0  0  # atno 17343 bound_to 10162
  156.1434  130.3642  149.9547 LP  0  0  0  0  0  0  0  0  0  0  0  0  # atno 17370 bound_to 10713
  156.7582  130.9141  151.3640 LP  0  0  0  0  0  0  0  0  0  0  0  0  # atno 17371 bound_to 10713
  139.9667  135.0140  156.9406 LP  0  0  0  0  0  0  0  0  0  0  0  0  # atno 17394 bound_to 11000
  140.5383  134.0745  155.7334 LP  0  0  0  0  0  0  0  0  0  0  0  0  # atno 17395 bound_to 11000

$$$$
