AV-unprocessed.smi:1672|AV-procd|sdf|6705|dock6
  -GOLD-   22720 7443D 1   1.00000     0.00000
 Structure written by MMmdl.
 49 51  0  0  0  0  0  0  0  0  3 V2000
  146.1386  132.0140  152.7780 C   0  0  0  0  0  0  0  0  0  0  0  0
  145.6091  133.4547  152.7585 C   0  0  2  0  0  0  0  0  0  0  0  0
  145.7811  134.1054  151.3757 C   0  0  0  0  0  0  0  0  0  0  0  0
  145.2774  135.5581  151.3757 C   0  0  0  0  0  0  0  0  0  0  0  0
  145.9702  136.3652  152.4154 N   0  3  1  0  0  0  0  0  0  0  0  0
  145.6119  137.8059  152.3716 C   0  0  0  0  0  0  0  0  0  0  0  0
  146.4156  138.6517  153.3847 C   0  0  2  0  0  0  0  0  0  0  0  0
  145.5171  139.4095  154.1692 O   0  0  0  0  0  0  0  0  0  0  0  0
  147.3899  139.6445  152.7186 C   0  0  0  0  0  0  0  0  0  0  0  0
  148.0425  140.5462  153.6811 N   0  0  0  0  0  0  0  0  0  0  0  0
  147.6840  141.7847  154.1335 C   0  0  0  0  0  0  0  0  0  0  0  0
  146.4828  142.5846  153.7412 C   0  0  0  0  0  0  0  0  0  0  0  0
  145.2918  142.0859  154.3098 O   0  0  0  0  0  0  0  0  0  0  0  0
  148.6384  142.1780  155.0243 N   0  3  0  0  0  0  0  0  0  0  0  0
  149.6124  141.1873  155.1463 C   0  0  0  0  0  0  0  0  0  0  0  0
  150.7656  141.1330  155.9230 C   0  0  0  0  0  0  0  0  0  0  0  0
  151.5476  139.9644  155.8136 C   0  0  0  0  0  0  0  0  0  0  0  0
  151.1734  138.9081  154.9580 C   0  0  0  0  0  0  0  0  0  0  0  0
  150.0022  138.9754  154.1746 C   0  0  0  0  0  0  0  0  0  0  0  0
  149.2349  140.1346  154.2885 C   0  0  0  0  0  0  0  0  0  0  0  0
  145.7870  135.7790  153.7679 C   0  0  0  0  0  0  0  0  0  0  0  0
  146.2989  134.3294  153.8186 C   0  0  0  0  0  0  0  0  0  0  0  0
  147.2054  131.9793  152.5544 H   0  0  0  0  0  0  0  0  0  0  0  0
  145.6240  131.3971  152.0408 H   0  0  0  0  0  0  0  0  0  0  0  0
  145.9880  131.5537  153.7550 H   0  0  0  0  0  0  0  0  0  0  0  0
  144.5430  133.4193  152.9878 H   0  0  0  0  0  0  0  0  0  0  0  0
  146.8321  134.0845  151.0834 H   0  0  0  0  0  0  0  0  0  0  0  0
  145.2404  133.5304  150.6230 H   0  0  0  0  0  0  0  0  0  0  0  0
  145.4392  135.9876  150.3879 H   0  0  0  0  0  0  0  0  0  0  0  0
  144.2011  135.5794  151.5536 H   0  0  0  0  0  0  0  0  0  0  0  0
  145.7593  138.1652  151.3526 H   0  0  0  0  0  0  0  0  0  0  0  0
  144.5494  137.9350  152.5837 H   0  0  0  0  0  0  0  0  0  0  0  0
  146.9830  138.0094  154.0565 H   0  0  0  0  0  0  0  0  0  0  0  0
  144.7297  139.5680  153.6719 H   0  0  0  0  0  0  0  0  0  0  0  0
  148.1691  139.1102  152.1746 H   0  0  0  0  0  0  0  0  0  0  0  0
  146.8739  140.2555  151.9765 H   0  0  0  0  0  0  0  0  0  0  0  0
  146.6006  143.6221  154.0514 H   0  0  0  0  0  0  0  0  0  0  0  0
  146.3904  142.5792  152.6551 H   0  0  0  0  0  0  0  0  0  0  0  0
  144.8907  141.4907  153.6942 H   0  0  0  0  0  0  0  0  0  0  0  0
  151.0535  141.9400  156.5809 H   0  0  0  0  0  0  0  0  0  0  0  0
  152.4515  139.8756  156.3991 H   0  0  0  0  0  0  0  0  0  0  0  0
  151.7969  138.0274  154.9026 H   0  0  0  0  0  0  0  0  0  0  0  0
  149.7242  138.1589  153.5245 H   0  0  0  0  0  0  0  0  0  0  0  0
  146.3303  136.3731  154.5039 H   0  0  0  0  0  0  0  0  0  0  0  0
  144.7320  135.8176  154.0444 H   0  0  0  0  0  0  0  0  0  0  0  0
  146.1282  133.9154  154.8131 H   0  0  0  0  0  0  0  0  0  0  0  0
  147.3785  134.3196  153.6621 H   0  0  0  0  0  0  0  0  0  0  0  0
  146.9601  136.3114  152.2231 H   0  0  0  0  0  0  0  0  0  0  0  0
  148.6200  143.0653  155.5112 H   0  0  0  0  0  0  0  0  0  0  0  0
  1  2  1  0  0  0  0
  1 23  1  0  0  0  0
  1 24  1  0  0  0  0
  1 25  1  0  0  0  0
  2 22  1  0  0  0  0
  2  3  1  0  0  0  0
  2 26  1  0  0  0  0
  3  4  1  0  0  0  0
  3 27  1  0  0  0  0
  3 28  1  0  0  0  0
  4  5  1  0  0  0  0
  4 29  1  0  0  0  0
  4 30  1  0  0  0  0
  5  6  1  0  0  0  0
  5 21  1  0  0  0  0
  5 48  1  0  0  0  0
  6  7  1  0  0  0  0
  6 31  1  0  0  0  0
  6 32  1  0  0  0  0
  7  8  1  0  0  0  0
  7  9  1  0  0  0  0
  7 33  1  0  0  0  0
  8 34  1  0  0  0  0
  9 10  1  0  0  0  0
  9 35  1  0  0  0  0
  9 36  1  0  0  0  0
 10 20  1  0  0  0  0
 10 11  1  0  0  0  0
 11 12  1  0  0  0  0
 11 14  2  0  0  0  0
 12 13  1  0  0  0  0
 12 37  1  0  0  0  0
 12 38  1  0  0  0  0
 13 39  1  0  0  0  0
 14 15  1  0  0  0  0
 14 49  1  0  0  0  0
 15 20  2  0  0  0  0
 15 16  1  0  0  0  0
 16 17  2  0  0  0  0
 16 40  1  0  0  0  0
 17 18  1  0  0  0  0
 17 41  1  0  0  0  0
 18 19  2  0  0  0  0
 18 42  1  0  0  0  0
 19 20  1  0  0  0  0
 19 43  1  0  0  0  0
 21 22  1  0  0  0  0
 21 44  1  0  0  0  0
 21 45  1  0  0  0  0
 22 46  1  0  0  0  0
 22 47  1  0  0  0  0
M  CHG  1   5   1
M  CHG  1  14   1
M  END
> <s_m_source_file>
AV-unprocessed.smi

> <i_m_source_file_index>
1672

> <i_lp_mmshare_version>
43012

> <i_f3d_flags>
0

> <s_epik_input>
W0NIM11bQ0hdMVtDSDJdW0NIMl1OKFtDSDJdW0NIMl0xKVtDSDJdW0NASF0oW09IXSlbQ0gyXW4oYyhuMilbQ0gyXVtPSF0pYyhjMjMpW2NIXVtjSF1bY0hdW2NIXTM=

> <s_epik_cmdline>
J2VwaWtfcHl0aG9uJywgJy1waCcsICc3LjAnLCAnLXRuJywgJzgnLCAnLW1hJywgJzIwMCcsICctbWV0YWxfYmluZGluZycsICctaW1hZScsICc8aW5maWxlLm1hZT4nLCAnLW9tYWUnLCAnPG91dGZpbGUubWFlPic=

> <r_epik_Ionization_Penalty>
1.51642

> <r_epik_Ionization_Penalty_Charging>
1.51557

> <r_epik_Ionization_Penalty_Neutral>
0.000856474

> <r_epik_State_Penalty>
1.6048

> <r_epik_Charging_Adjusted_Penalty>
3.12037

> <i_epik_Tot_Q>
2

> <i_epik_Tot_abs_Q>
2

> <r_epik_Metal_State_Penalty>
5.65673

> <b_epik_Metal_Only>
0

> <s_lp_Force_Field>
OPLS_2005

> <r_lp_Energy>
31.4563

> <b_lp_Chiralities_Consistent>
1

> <s_lp_Variant>
AV-unprocessed.smi:1672-5

> <Gold.Version>
5.8.1

> <Gold.Id.Protein>
6NUR|6NUR_protein|mol2

> <Gold.PLP.Fitness>
59.5260

> <Gold.PLP.PLP>
-44.6895

> <Gold.PLP.part.hbond>
-3.8667

> <Gold.PLP.part.metal>
0.0000

> <Gold.PLP.part.buried>
0.4719

> <Gold.PLP.part.nonpolar>
-41.5800

> <Gold.PLP.part.repulsive>
0.2108

> <Gold.PLP.ligand.clash>
0.0000

> <Gold.PLP.ligand.torsion>
1.2935

> <Gold.PLP.Chemscore.Hbond>
5.7920

> <Gold.PLP.Chemscore.CHOScore>
0.0000

> <Gold.PLP.Chemscore.Metal>
0.0000

> <Gold.Chemscore.Hbonds>
donor molecule, donor type, donor heavy atom, donor atom, acceptor molecule, acceptor atom, score
      L1  H     5    48       P1  7948  2.00
      L1  H     8    34       P1 10175  1.00
      L1  H    13    39       P1 10175  0.85
      L1  H    14    49       P1  8028  2.00

> <Gold.PLP.Chemscore.Internal.Correction>
0.0475

> <Gold.Rescore>
     Score         DG    S(hbond)    S(metal)    S(lipo)     H(rot)  DE(clash)    DE(int)     intcor
     17.59     -20.49       3.45        0.00      94.49       2.96       1.48       1.42       ----

> <Gold.Chemscore.Fitness>
17.5890

> <Gold.Chemscore.DG>
-20.4859

> <Gold.Chemscore.ZeroCoef>
-5.4800

> <Gold.Chemscore.Hbond>
3.4481

> <Gold.Chemscore.Metal>
0.0000

> <Gold.Chemscore.Lipo>
94.4906

> <Gold.Chemscore.Internal_Hbond>
0.0000

> <Gold.Chemscore.DEClash>
1.4778

> <Gold.Chemscore.DEInternal>
1.4192

> <Gold.Chemscore.Rot>
2.9555

> <Gold.Chemscore.Internal.Correction>
   9.000000E+99

> <Gold.Chemscore.Hbonds>
donor molecule, donor type, donor heavy atom, donor atom, acceptor molecule, acceptor atom, score
      L1  H     5    48       P1  7948  0.95
      L1  H     8    34       P1 10175  0.98
      L1  H    13    39       P1 10175  0.14
      L1  H    14    49       P1  8028  0.97

> <Gold.Chemscore.Hbond.Weighted>
-11.5165

> <Gold.Chemscore.Metal.Weighted>
-0.0000

> <Gold.Chemscore.Lipo.Weighted>
-11.0554

> <Gold.Chemscore.Internal_Hbond.Weighted>
0.0000

> <Gold.Chemscore.DEClash.Weighted>
1.4778

> <Gold.Chemscore.DEInternal.Weighted>
1.4192

> <Gold.Chemscore.Rot.Weighted>
7.5660

> <Gold.Chemscore.Internal.Correction.Weighted>
   9.000000E+99

> <Gold.Protein.RotatedTorsions>
[ 6907 6896 6895 6894 ] final  -50.98 input  -60.11 | X-H torsion
[ 7974 7965 7964 7962 ] final   87.37 input  175.53 | X-H torsion
[ 8008 7997 7996 7995 ] final -148.11 input   59.86 | X-H torsion
[ 10167 10162 10161 10158 ] final  -67.62 input  -65.29 | X-H torsion
[ 10718 10713 10712 10709 ] final   22.71 input   66.30 | X-H torsion
[ 10763 10752 10751 10750 ] final  156.47 input  -60.55 | X-H torsion
[ 11005 11000 10999 10996 ] final   28.36 input  -57.11 | X-H torsion

> <Gold.Protein.ActiveResidues>
 VAL166  LYS551  ARG553  GLY616  TRP617  ASP618  TYR619  PRO620  LYS621  CYS622 
 ASP623  PHE694  ASN695  SER759  ASP760  ASP761  ALA762  ILE779  LEU786  VAL792 
 PHE793  MET794  SER795  GLU796  ALA797  LYS798  CYS799  TRP800  GLU811  SER814 

> <Gold.Protein.RotatedAtoms>
  150.8655  134.8017  159.7114 H   0  0  0  0  0  0  0  0  0  0  0  0  # atno 6907 bound_to 6896
  152.4678  134.5031  159.9741 H   0  0  0  0  0  0  0  0  0  0  0  0  # atno 6908 bound_to 6896
  151.5128  133.3443  159.2923 H   0  0  0  0  0  0  0  0  0  0  0  0  # atno 6909 bound_to 6896
  145.5599  139.2303  143.2465 H   0  0  0  0  0  0  0  0  0  0  0  0  # atno 7974 bound_to 7965
  155.5863  140.0648  157.2770 H   0  0  0  0  0  0  0  0  0  0  0  0  # atno 8008 bound_to 7997
  154.4318  140.1843  156.1075 H   0  0  0  0  0  0  0  0  0  0  0  0  # atno 8009 bound_to 7997
  156.0266  140.3311  155.7099 H   0  0  0  0  0  0  0  0  0  0  0  0  # atno 8010 bound_to 7997
  140.5569  143.2312  151.6803 H   0  0  0  0  0  0  0  0  0  0  0  0  # atno 10167 bound_to 10162
  157.1561  130.6696  149.6028 H   0  0  0  0  0  0  0  0  0  0  0  0  # atno 10718 bound_to 10713
  154.1849  135.2797  155.3040 H   0  0  0  0  0  0  0  0  0  0  0  0  # atno 10763 bound_to 10752
  154.5974  135.5540  153.7343 H   0  0  0  0  0  0  0  0  0  0  0  0  # atno 10764 bound_to 10752
  153.0128  135.6383  154.1988 H   0  0  0  0  0  0  0  0  0  0  0  0  # atno 10765 bound_to 10752
  140.3164  134.2592  155.7725 H   0  0  0  0  0  0  0  0  0  0  0  0  # atno 11005 bound_to 11000
  146.1858  140.6424  142.9168 LP  0  0  0  0  0  0  0  0  0  0  0  0  # atno 17320 bound_to 7965
  144.7488  140.5137  143.6817 LP  0  0  0  0  0  0  0  0  0  0  0  0  # atno 17321 bound_to 7965
  139.5052  144.3726  152.0455 LP  0  0  0  0  0  0  0  0  0  0  0  0  # atno 17342 bound_to 10162
  140.2848  144.3819  150.6107 LP  0  0  0  0  0  0  0  0  0  0  0  0  # atno 17343 bound_to 10162
  155.9762  130.4727  150.6510 LP  0  0  0  0  0  0  0  0  0  0  0  0  # atno 17370 bound_to 10713
  157.4175  131.0832  151.1162 LP  0  0  0  0  0  0  0  0  0  0  0  0  # atno 17371 bound_to 10713
  141.2097  133.7742  156.9982 LP  0  0  0  0  0  0  0  0  0  0  0  0  # atno 17394 bound_to 11000
  140.0980  134.9553  157.1879 LP  0  0  0  0  0  0  0  0  0  0  0  0  # atno 17395 bound_to 11000

$$$$
