AV-unprocessed.smi:2921|AV-procd|sdf|11197|dock10
  -GOLD-   2272016 93D 1   1.00000     0.00000
 Structure written by MMmdl.
 41 42  0  0  0  0  0  0  0  0  1 V2000
  150.6810  137.0597  154.9157 C   0  0  0  0  0  0  0  0  0  0  0  0
  151.1698  138.2929  154.1405 C   0  0  0  0  0  0  0  0  0  0  0  0
  152.6094  138.6763  154.5212 C   0  0  0  0  0  0  0  0  0  0  0  0
  150.2554  139.4169  154.3179 N   0  0  0  0  0  0  0  0  0  0  0  0
  150.6901  140.5603  154.8982 N   0  0  0  0  0  0  0  0  0  0  0  0
  149.6350  141.3634  154.9218 C   0  0  0  0  0  0  0  0  0  0  0  0
  148.4697  140.7672  154.3633 C   0  0  0  0  0  0  0  0  0  0  0  0
  148.9171  139.5278  153.9944 C   0  0  0  0  0  0  0  0  0  0  0  0
  148.2204  138.5142  153.4145 N   0  0  0  0  0  0  0  0  0  0  0  0
  146.9260  138.4822  153.0526 C   0  0  0  0  0  0  0  0  0  0  0  0
  146.1209  139.4029  153.1934 O   0  0  0  0  0  0  0  0  0  0  0  0
  146.6112  137.3053  152.4936 N   0  0  0  0  0  0  0  0  0  0  0  0
  145.3049  136.9577  151.9445 C   0  0  0  0  0  0  0  0  0  0  0  0
  144.6763  135.7234  152.6210 C   0  0  0  0  0  0  0  0  0  0  0  0
  144.9082  134.4184  151.8771 C   0  0  0  0  0  0  0  0  0  0  0  0
  143.9724  133.6619  151.3047 C   0  0  0  0  0  0  0  0  0  0  0  0
  144.5414  132.4501  150.6193 C   0  0  0  0  0  0  0  0  0  0  0  0
  146.0683  132.6114  150.7852 C   0  0  0  0  0  0  0  0  0  0  0  0
  146.2931  133.8562  151.6718 C   0  0  0  0  0  0  0  0  0  0  0  0
  151.3280  136.2012  154.7332 H   0  0  0  0  0  0  0  0  0  0  0  0
  149.6711  136.7814  154.6126 H   0  0  0  0  0  0  0  0  0  0  0  0
  150.6680  137.2418  155.9907 H   0  0  0  0  0  0  0  0  0  0  0  0
  151.1763  138.0322  153.0821 H   0  0  0  0  0  0  0  0  0  0  0  0
  153.2998  137.8597  154.3089 H   0  0  0  0  0  0  0  0  0  0  0  0
  152.6964  138.9131  155.5822 H   0  0  0  0  0  0  0  0  0  0  0  0
  152.9452  139.5463  153.9564 H   0  0  0  0  0  0  0  0  0  0  0  0
  149.7450  142.3504  155.3462 H   0  0  0  0  0  0  0  0  0  0  0  0
  147.4826  141.1927  154.2650 H   0  0  0  0  0  0  0  0  0  0  0  0
  148.7590  137.6863  153.2077 H   0  0  0  0  0  0  0  0  0  0  0  0
  147.3341  136.6044  152.4204 H   0  0  0  0  0  0  0  0  0  0  0  0
  144.6434  137.8179  152.0517 H   0  0  0  0  0  0  0  0  0  0  0  0
  145.4015  136.7810  150.8720 H   0  0  0  0  0  0  0  0  0  0  0  0
  145.1042  135.6224  153.6190 H   0  0  0  0  0  0  0  0  0  0  0  0
  143.6046  135.8630  152.7668 H   0  0  0  0  0  0  0  0  0  0  0  0
  142.9126  133.8701  151.3125 H   0  0  0  0  0  0  0  0  0  0  0  0
  144.1755  131.5440  151.1028 H   0  0  0  0  0  0  0  0  0  0  0  0
  144.2479  132.4287  149.5693 H   0  0  0  0  0  0  0  0  0  0  0  0
  146.5135  131.7219  151.2323 H   0  0  0  0  0  0  0  0  0  0  0  0
  146.5394  132.7541  149.8120 H   0  0  0  0  0  0  0  0  0  0  0  0
  146.9385  134.5882  151.1855 H   0  0  0  0  0  0  0  0  0  0  0  0
  146.7405  133.5766  152.6249 H   0  0  0  0  0  0  0  0  0  0  0  0
  1  2  1  0  0  0  0
  1 20  1  0  0  0  0
  1 21  1  0  0  0  0
  1 22  1  0  0  0  0
  2  3  1  0  0  0  0
  2  4  1  0  0  0  0
  2 23  1  0  0  0  0
  3 24  1  0  0  0  0
  3 25  1  0  0  0  0
  3 26  1  0  0  0  0
  4  8  1  0  0  0  0
  4  5  1  0  0  0  0
  5  6  2  0  0  0  0
  6  7  1  0  0  0  0
  6 27  1  0  0  0  0
  7  8  2  0  0  0  0
  7 28  1  0  0  0  0
  8  9  1  0  0  0  0
  9 10  1  0  0  0  0
  9 29  1  0  0  0  0
 10 11  2  0  0  0  0
 10 12  1  0  0  0  0
 12 13  1  0  0  0  0
 12 30  1  0  0  0  0
 13 14  1  0  0  0  0
 13 31  1  0  0  0  0
 13 32  1  0  0  0  0
 14 15  1  0  0  0  0
 14 33  1  0  0  0  0
 14 34  1  0  0  0  0
 15 19  1  0  0  0  0
 15 16  2  0  0  0  0
 16 17  1  0  0  0  0
 16 35  1  0  0  0  0
 17 18  1  0  0  0  0
 17 36  1  0  0  0  0
 17 37  1  0  0  0  0
 18 19  1  0  0  0  0
 18 38  1  0  0  0  0
 18 39  1  0  0  0  0
 19 40  1  0  0  0  0
 19 41  1  0  0  0  0
M  END
> <s_m_source_file>
AV-unprocessed.smi

> <i_m_source_file_index>
2921

> <i_lp_mmshare_version>
43012

> <i_f3d_flags>
0

> <s_epik_input>
W0NIM11bQ0hdKFtDSDNdKW4xbltjSF1bY0hdYzFbTkhdQyg9TylbTkhdW0NIMl1bQ0gyXUMyPVtDSF1bQ0gyXVtDSDJdW0NIMl0y

> <s_epik_cmdline>
J2VwaWtfcHl0aG9uJywgJy1waCcsICc3LjAnLCAnLXRuJywgJzgnLCAnLW1hJywgJzIwMCcsICctbWV0YWxfYmluZGluZycsICctaW1hZScsICc8aW5maWxlLm1hZT4nLCAnLW9tYWUnLCAnPG91dGZpbGUubWFlPic=

> <r_lp_tautomer_probability>
1

> <r_epik_Ionization_Penalty>
4.14613e-05

> <r_epik_Ionization_Penalty_Charging>
0

> <r_epik_Ionization_Penalty_Neutral>
4.14613e-05

> <r_epik_State_Penalty>
-0

> <r_epik_Charging_Adjusted_Penalty>
0

> <i_epik_Tot_Q>
0

> <i_epik_Tot_abs_Q>
0

> <r_epik_Metal_State_Penalty>
-0

> <b_epik_Metal_Only>
0

> <s_lp_Force_Field>
OPLS_2005

> <r_lp_Energy>
26.255

> <b_lp_Chiralities_Consistent>
1

> <s_lp_Variant>
AV-unprocessed.smi:2921-1

> <Gold.Version>
5.8.1

> <Gold.Id.Protein>
6NUR|6NUR_protein|mol2

> <Gold.PLP.Fitness>
46.1210

> <Gold.PLP.PLP>
-37.2134

> <Gold.PLP.part.hbond>
-4.0000

> <Gold.PLP.part.metal>
0.0000

> <Gold.PLP.part.buried>
-1.2308

> <Gold.PLP.part.nonpolar>
-35.3974

> <Gold.PLP.part.repulsive>
2.8170

> <Gold.PLP.ligand.clash>
0.0000

> <Gold.PLP.ligand.torsion>
0.3061

> <Gold.PLP.Chemscore.Hbond>
2.2140

> <Gold.PLP.Chemscore.CHOScore>
0.9404

> <Gold.PLP.Chemscore.Metal>
0.0000

> <Gold.Chemscore.Hbonds>
donor molecule, donor type, donor heavy atom, donor atom, acceptor molecule, acceptor atom, score
      L1  H     9    29       P1  7948  0.85
      L1  H    12    30       P1  7948  0.93
      P1  H  7989  7998       L1     5  0.45
      L1  C     6    27       P1  8028  0.99

> <Gold.PLP.Chemscore.Internal.Correction>
0.0567

> <Gold.Rescore>
     Score         DG    S(hbond)    S(metal)    S(lipo)     H(rot)  DE(clash)    DE(int)     intcor
     13.63     -17.66       1.88        0.00      83.32       1.50       2.55       1.48       ----

> <Gold.Chemscore.Fitness>
13.6313

> <Gold.Chemscore.DG>
-17.6631

> <Gold.Chemscore.ZeroCoef>
-5.4800

> <Gold.Chemscore.Hbond>
1.8801

> <Gold.Chemscore.Metal>
0.0000

> <Gold.Chemscore.Lipo>
83.3169

> <Gold.Chemscore.Internal_Hbond>
0.0000

> <Gold.Chemscore.DEClash>
2.5477

> <Gold.Chemscore.DEInternal>
1.4841

> <Gold.Chemscore.Rot>
1.5018

> <Gold.Chemscore.Internal.Correction>
   9.000000E+99

> <Gold.Chemscore.Hbonds>
donor molecule, donor type, donor heavy atom, donor atom, acceptor molecule, acceptor atom, score
      L1  H     9    29       P1  7948  0.81
      L1  H    12    30       P1  7948  0.90
      P1  H  7989  7998       L1     5  0.01

> <Gold.Chemscore.Hbond.Weighted>
-6.2796

> <Gold.Chemscore.Metal.Weighted>
-0.0000

> <Gold.Chemscore.Lipo.Weighted>
-9.7481

> <Gold.Chemscore.Internal_Hbond.Weighted>
0.0000

> <Gold.Chemscore.DEClash.Weighted>
2.5477

> <Gold.Chemscore.DEInternal.Weighted>
1.4841

> <Gold.Chemscore.Rot.Weighted>
3.8446

> <Gold.Chemscore.Internal.Correction.Weighted>
   9.000000E+99

> <Gold.Protein.RotatedTorsions>
[ 6907 6896 6895 6894 ] final  146.12 input  -60.11 | X-H torsion
[ 7974 7965 7964 7962 ] final  123.61 input  175.53 | X-H torsion
[ 8008 7997 7996 7995 ] final   61.13 input   59.86 | X-H torsion
[ 10167 10162 10161 10158 ] final  173.29 input  -65.29 | X-H torsion
[ 10718 10713 10712 10709 ] final  162.30 input   66.30 | X-H torsion
[ 10763 10752 10751 10750 ] final   42.57 input  -60.55 | X-H torsion
[ 11005 11000 10999 10996 ] final  172.79 input  -57.11 | X-H torsion

> <Gold.Protein.ActiveResidues>
 VAL166  LYS551  ARG553  GLY616  TRP617  ASP618  TYR619  PRO620  LYS621  CYS622 
 ASP623  PHE694  ASN695  SER759  ASP760  ASP761  ALA762  ILE779  LEU786  VAL792 
 PHE793  MET794  SER795  GLU796  ALA797  LYS798  CYS799  TRP800  GLU811  SER814 

> <Gold.Protein.RotatedAtoms>
  152.1721  133.4650  159.4914 H   0  0  0  0  0  0  0  0  0  0  0  0  # atno 6907 bound_to 6896
  150.6921  134.1940  159.4305 H   0  0  0  0  0  0  0  0  0  0  0  0  # atno 6908 bound_to 6896
  151.9848  135.0010  160.0609 H   0  0  0  0  0  0  0  0  0  0  0  0  # atno 6909 bound_to 6896
  145.0940  139.3566  143.4846 H   0  0  0  0  0  0  0  0  0  0  0  0  # atno 7974 bound_to 7965
  155.5935  140.3493  155.4573 H   0  0  0  0  0  0  0  0  0  0  0  0  # atno 8008 bound_to 7997
  156.0283  140.1269  157.0309 H   0  0  0  0  0  0  0  0  0  0  0  0  # atno 8009 bound_to 7997
  154.4342  140.1048  156.6049 H   0  0  0  0  0  0  0  0  0  0  0  0  # atno 8010 bound_to 7997
  139.5103  144.3277  152.0141 H   0  0  0  0  0  0  0  0  0  0  0  0  # atno 10167 bound_to 10162
  157.1245  131.0501  151.2400 H   0  0  0  0  0  0  0  0  0  0  0  0  # atno 10718 bound_to 10713
  152.9880  135.6128  154.2970 H   0  0  0  0  0  0  0  0  0  0  0  0  # atno 10763 bound_to 10752
  154.2693  135.2780  155.2747 H   0  0  0  0  0  0  0  0  0  0  0  0  # atno 10764 bound_to 10752
  154.5137  135.5834  153.6682 H   0  0  0  0  0  0  0  0  0  0  0  0  # atno 10765 bound_to 10752
  140.3335  134.7337  157.4151 H   0  0  0  0  0  0  0  0  0  0  0  0  # atno 11005 bound_to 11000
  146.3531  140.0787  142.8619 LP  0  0  0  0  0  0  0  0  0  0  0  0  # atno 17320 bound_to 7965
  145.1033  140.9359  143.4700 LP  0  0  0  0  0  0  0  0  0  0  0  0  # atno 17321 bound_to 7965
  140.2717  144.3956  150.6149 LP  0  0  0  0  0  0  0  0  0  0  0  0  # atno 17342 bound_to 10162
  140.6083  143.2168  151.6937 LP  0  0  0  0  0  0  0  0  0  0  0  0  # atno 17343 bound_to 10162
  157.4447  130.7564  149.7099 LP  0  0  0  0  0  0  0  0  0  0  0  0  # atno 17370 bound_to 10713
  155.9821  130.4013  150.3435 LP  0  0  0  0  0  0  0  0  0  0  0  0  # atno 17371 bound_to 10713
  140.0841  134.5691  155.8510 LP  0  0  0  0  0  0  0  0  0  0  0  0  # atno 17394 bound_to 11000
  141.2057  133.6649  156.6198 LP  0  0  0  0  0  0  0  0  0  0  0  0  # atno 17395 bound_to 11000

$$$$
