AV-unprocessed.smi:750|AV-procd|sdf|3589|dock1
  -GOLD-   22720 0583D 1   1.00000     0.00000
 Structure written by MMmdl.
 23 24  0  0  0  0  0  0  0  0  1 V2000
  147.8773  138.9566  154.4865 C   0  0  0  0  0  0  0  0  0  0  0  0
  148.8750  139.8105  155.2946 C   0  0  2  0  0  0  0  0  0  0  0  0
  150.3246  139.3253  155.1365 C   0  0  0  0  0  0  0  0  0  0  0  0
  150.6238  138.2059  154.3249 C   0  0  0  0  0  0  0  0  0  0  0  0
  151.9592  137.7798  154.1972 C   0  0  0  0  0  0  0  0  0  0  0  0
  152.9573  138.4896  154.8901 C   0  0  0  0  0  0  0  0  0  0  0  0
  152.6955  139.5586  155.6702 N   0  0  0  0  0  0  0  0  0  0  0  0
  151.4116  139.9607  155.7860 C   0  0  0  0  0  0  0  0  0  0  0  0
  148.4322  139.9077  156.6803 N   0  0  0  0  0  0  0  0  0  0  0  0
  148.1809  141.1663  157.0648 C   0  0  0  0  0  0  0  0  0  0  0  0
  147.8153  141.5220  158.1825 O   0  0  0  0  0  0  0  0  0  0  0  0
  148.3896  141.9640  156.0141 N   0  0  0  0  0  0  0  0  0  0  0  0
  148.7710  141.2895  154.9310 C   0  0  0  0  0  0  0  0  0  0  0  0
  148.9994  141.7613  153.8180 O   0  0  0  0  0  0  0  0  0  0  0  0
  148.1008  138.9670  153.4194 H   0  0  0  0  0  0  0  0  0  0  0  0
  146.8542  139.3171  154.6039 H   0  0  0  0  0  0  0  0  0  0  0  0
  147.8970  137.9174  154.8161 H   0  0  0  0  0  0  0  0  0  0  0  0
  149.8424  137.6783  153.7987 H   0  0  0  0  0  0  0  0  0  0  0  0
  152.2117  136.9295  153.5813 H   0  0  0  0  0  0  0  0  0  0  0  0
  153.9927  138.1919  154.8152 H   0  0  0  0  0  0  0  0  0  0  0  0
  151.2639  140.8202  156.4224 H   0  0  0  0  0  0  0  0  0  0  0  0
  148.3462  139.1026  157.2837 H   0  0  0  0  0  0  0  0  0  0  0  0
  148.2564  142.9645  156.0339 H   0  0  0  0  0  0  0  0  0  0  0  0
  1  2  1  0  0  0  0
  1 15  1  0  0  0  0
  1 16  1  0  0  0  0
  1 17  1  0  0  0  0
  2 13  1  0  0  0  0
  2  3  1  0  0  0  0
  2  9  1  0  0  0  0
  3  8  1  0  0  0  0
  3  4  2  0  0  0  0
  4  5  1  0  0  0  0
  4 18  1  0  0  0  0
  5  6  2  0  0  0  0
  5 19  1  0  0  0  0
  6  7  1  0  0  0  0
  6 20  1  0  0  0  0
  7  8  2  0  0  0  0
  8 21  1  0  0  0  0
  9 10  1  0  0  0  0
  9 22  1  0  0  0  0
 10 11  2  0  0  0  0
 10 12  1  0  0  0  0
 12 13  1  0  0  0  0
 12 23  1  0  0  0  0
 13 14  2  0  0  0  0
M  END
> <s_m_source_file>
AV-unprocessed.smi

> <i_m_source_file_index>
750

> <i_lp_mmshare_version>
43012

> <i_f3d_flags>
0

> <s_epik_input>
Tz1DMVtOSF1DKD1PKVtOSF1bQ0BAXTEoW0NIM10pYzJbY0hdW2NIXVtjSF1uW2NIXTI=

> <s_epik_cmdline>
J2VwaWtfcHl0aG9uJywgJy1waCcsICc3LjAnLCAnLXRuJywgJzgnLCAnLW1hJywgJzIwMCcsICctbWV0YWxfYmluZGluZycsICctaW1hZScsICc8aW5maWxlLm1hZT4nLCAnLW9tYWUnLCAnPG91dGZpbGUubWFlPic=

> <r_lp_tautomer_probability>
1

> <r_epik_Ionization_Penalty>
0.0296909

> <r_epik_Ionization_Penalty_Charging>
0

> <r_epik_Ionization_Penalty_Neutral>
0.0296909

> <r_epik_State_Penalty>
0.022996

> <r_epik_Charging_Adjusted_Penalty>
0.022996

> <i_epik_Tot_Q>
0

> <i_epik_Tot_abs_Q>
0

> <r_epik_Metal_State_Penalty>
0.427807

> <b_epik_Metal_Only>
0

> <s_lp_Force_Field>
OPLS_2005

> <r_lp_Energy>
18.5111

> <b_lp_Chiralities_Consistent>
1

> <s_lp_Variant>
AV-unprocessed.smi:750-2

> <Gold.Version>
5.8.1

> <Gold.Id.Protein>
6NUR|6NUR_protein|mol2

> <Gold.PLP.Fitness>
31.5904

> <Gold.PLP.PLP>
-23.8144

> <Gold.PLP.part.hbond>
-3.9071

> <Gold.PLP.part.metal>
0.0000

> <Gold.PLP.part.buried>
-3.4808

> <Gold.PLP.part.nonpolar>
-17.5173

> <Gold.PLP.part.repulsive>
0.3496

> <Gold.PLP.ligand.clash>
0.0000

> <Gold.PLP.ligand.torsion>
0.0591

> <Gold.PLP.Chemscore.Hbond>
2.5920

> <Gold.PLP.Chemscore.CHOScore>
0.0000

> <Gold.PLP.Chemscore.Metal>
0.0000

> <Gold.Chemscore.Hbonds>
donor molecule, donor type, donor heavy atom, donor atom, acceptor molecule, acceptor atom, score
      L1  H    12    23       P1  8028  1.00
      P1  H  7997  8009       L1     7  1.00
      P1  H  8011  8017       L1    14  0.59

> <Gold.PLP.Chemscore.Internal.Correction>
0.1182

> <Gold.Rescore>
     Score         DG    S(hbond)    S(metal)    S(lipo)     H(rot)  DE(clash)    DE(int)     intcor
     16.69     -16.81       2.57        0.00      45.37       1.00       0.06       0.06       ----

> <Gold.Chemscore.Fitness>
16.6854

> <Gold.Chemscore.DG>
-16.8078

> <Gold.Chemscore.ZeroCoef>
-5.4800

> <Gold.Chemscore.Hbond>
2.5689

> <Gold.Chemscore.Metal>
0.0000

> <Gold.Chemscore.Lipo>
45.3656

> <Gold.Chemscore.Internal_Hbond>
0.0000

> <Gold.Chemscore.DEClash>
0.0581

> <Gold.Chemscore.DEInternal>
0.0642

> <Gold.Chemscore.Rot>
1.0000

> <Gold.Chemscore.Internal.Correction>
   9.000000E+99

> <Gold.Chemscore.Hbonds>
donor molecule, donor type, donor heavy atom, donor atom, acceptor molecule, acceptor atom, score
      L1  H    12    23       P1  8028  0.81
      P1  H  7997  8009       L1     7  0.50
      P1  H  8011  8017       L1    14  0.60

> <Gold.Chemscore.Hbond.Weighted>
-8.5800

> <Gold.Chemscore.Metal.Weighted>
-0.0000

> <Gold.Chemscore.Lipo.Weighted>
-5.3078

> <Gold.Chemscore.Internal_Hbond.Weighted>
0.0000

> <Gold.Chemscore.DEClash.Weighted>
0.0581

> <Gold.Chemscore.DEInternal.Weighted>
0.0642

> <Gold.Chemscore.Rot.Weighted>
2.5600

> <Gold.Chemscore.Internal.Correction.Weighted>
   9.000000E+99

> <Gold.Protein.RotatedTorsions>
[ 6907 6896 6895 6894 ] final    3.56 input  -60.11 | X-H torsion
[ 7974 7965 7964 7962 ] final   35.56 input  175.53 | X-H torsion
[ 8008 7997 7996 7995 ] final -160.65 input   59.86 | X-H torsion
[ 10167 10162 10161 10158 ] final   49.03 input  -65.29 | X-H torsion
[ 10718 10713 10712 10709 ] final  -66.28 input   66.30 | X-H torsion
[ 10763 10752 10751 10750 ] final   48.26 input  -60.55 | X-H torsion
[ 11005 11000 10999 10996 ] final  -35.78 input  -57.11 | X-H torsion

> <Gold.Protein.ActiveResidues>
 VAL166  LYS551  ARG553  GLY616  TRP617  ASP618  TYR619  PRO620  LYS621  CYS622 
 ASP623  PHE694  ASN695  SER759  ASP760  ASP761  ALA762  ILE779  LEU786  VAL792 
 PHE793  MET794  SER795  GLU796  ALA797  LYS798  CYS799  TRP800  GLU811  SER814 

> <Gold.Protein.RotatedAtoms>
  151.6270  135.1026  160.0113 H   0  0  0  0  0  0  0  0  0  0  0  0  # atno 6907 bound_to 6896
  152.4127  133.6984  159.6420 H   0  0  0  0  0  0  0  0  0  0  0  0  # atno 6908 bound_to 6896
  150.8016  133.8513  159.3247 H   0  0  0  0  0  0  0  0  0  0  0  0  # atno 6909 bound_to 6896
  146.1274  139.6128  142.9249 H   0  0  0  0  0  0  0  0  0  0  0  0  # atno 7974 bound_to 7965
  155.7805  140.0864  157.2061 H   0  0  0  0  0  0  0  0  0  0  0  0  # atno 8008 bound_to 7997
  154.3990  140.1508  156.3104 H   0  0  0  0  0  0  0  0  0  0  0  0  # atno 8009 bound_to 7997
  155.8658  140.3428  155.5790 H   0  0  0  0  0  0  0  0  0  0  0  0  # atno 8010 bound_to 7997
  140.2871  144.3089  150.6249 H   0  0  0  0  0  0  0  0  0  0  0  0  # atno 10167 bound_to 10162
  156.0621  130.4259  150.1685 H   0  0  0  0  0  0  0  0  0  0  0  0  # atno 10718 bound_to 10713
  152.9793  135.5950  154.3896 H   0  0  0  0  0  0  0  0  0  0  0  0  # atno 10763 bound_to 10752
  154.3553  135.2767  155.2352 H   0  0  0  0  0  0  0  0  0  0  0  0  # atno 10764 bound_to 10752
  154.4373  135.6022  153.6161 H   0  0  0  0  0  0  0  0  0  0  0  0  # atno 10765 bound_to 10752
  140.9823  133.7049  156.1705 H   0  0  0  0  0  0  0  0  0  0  0  0  # atno 11005 bound_to 11000
  145.5334  141.0425  143.2370 LP  0  0  0  0  0  0  0  0  0  0  0  0  # atno 17320 bound_to 7965
  144.7656  139.6852  143.7216 LP  0  0  0  0  0  0  0  0  0  0  0  0  # atno 17321 bound_to 7965
  140.5763  143.2176  151.7509 LP  0  0  0  0  0  0  0  0  0  0  0  0  # atno 17342 bound_to 10162
  139.4947  144.4144  152.0045 LP  0  0  0  0  0  0  0  0  0  0  0  0  # atno 17343 bound_to 10162
  156.9752  130.9847  151.3450 LP  0  0  0  0  0  0  0  0  0  0  0  0  # atno 17370 bound_to 10713
  157.5638  130.8263  149.8300 LP  0  0  0  0  0  0  0  0  0  0  0  0  # atno 17371 bound_to 10713
  140.7168  134.4402  157.5578 LP  0  0  0  0  0  0  0  0  0  0  0  0  # atno 17394 bound_to 11000
  139.8955  134.8680  156.2127 LP  0  0  0  0  0  0  0  0  0  0  0  0  # atno 17395 bound_to 11000

$$$$
