AV-unprocessed.smi:287|AV-procd|sdf|2180|dock7
  -GOLD-   2262021553D 1   1.00000     0.00000
 Structure written by MMmdl.
 55 58  0  0  0  0  0  0  0  0  1 V2000
  152.5881  141.1040  159.0412 C   0  0  0  0  0  0  0  0  0  0  0  0
  151.8212  140.5123  157.9088 C   0  0  0  0  0  0  0  0  0  0  0  0
  150.4919  140.4136  157.6185 C   0  0  0  0  0  0  0  0  0  0  0  0
  150.3771  139.7313  156.3706 C   0  0  0  0  0  0  0  0  0  0  0  0
  149.0769  139.3915  155.6542 C   0  0  2  0  0  0  0  0  0  0  0  0
  149.0010  140.1590  154.3240 C   0  0  0  0  0  0  0  0  0  0  0  0
  147.9291  139.7866  156.3805 O   0  0  0  0  0  0  0  0  0  0  0  0
  148.9201  137.8744  155.4025 C   0  0  0  0  0  0  0  0  0  0  0  0
  147.5547  137.4942  155.0548 N   0  0  0  0  0  0  0  0  0  0  0  0
  147.2500  136.2017  154.8152 C   0  0  0  0  0  0  0  0  0  0  0  0
  147.6897  135.2138  155.6385 N   0  0  0  0  0  0  0  0  0  0  0  0
  147.3725  133.9406  155.3819 C   0  0  0  0  0  0  0  0  0  0  0  0
  146.6415  133.4474  154.3792 N   0  0  0  0  0  0  0  0  0  0  0  0
  146.2009  134.4384  153.5511 C   0  0  0  0  0  0  0  0  0  0  0  0
  146.4598  135.8286  153.6979 C   0  0  0  0  0  0  0  0  0  0  0  0
  145.8492  136.5315  152.6672 N   0  0  0  0  0  0  0  0  0  0  0  0
  145.2653  135.6050  151.9547 C   0  0  0  0  0  0  0  0  0  0  0  0
  145.4326  134.3149  152.4147 N   0  0  0  0  0  0  0  0  0  0  0  0
  144.9085  133.0261  151.8558 C   0  0  1  0  0  0  0  0  0  0  0  0
  144.1014  133.3211  150.7546 O   0  0  0  0  0  0  0  0  0  0  0  0
  144.8153  133.0617  149.5508 C   0  0  2  0  0  0  0  0  0  0  0  0
  143.8294  132.8737  148.3881 C   0  0  0  0  0  0  0  0  0  0  0  0
  142.7365  132.0850  148.8079 O   0  0  0  0  0  0  0  0  0  0  0  0
  145.5766  131.7915  149.9286 C   0  0  1  0  0  0  0  0  0  0  0  0
  146.6402  131.5009  149.0406 O   0  0  0  0  0  0  0  0  0  0  0  0
  146.0359  132.0904  151.3542 C   0  0  1  0  0  0  0  0  0  0  0  0
  147.3305  132.6740  151.3898 O   0  0  0  0  0  0  0  0  0  0  0  0
  151.6722  139.4572  156.0010 C   0  0  0  0  0  0  0  0  0  0  0  0
  152.2939  138.7669  154.8317 C   0  0  0  0  0  0  0  0  0  0  0  0
  152.5533  139.9299  156.9265 O   0  0  0  0  0  0  0  0  0  0  0  0
  144.3075  132.6009  152.6606 H   0  0  0  0  0  0  0  0  0  0  0  0
  145.5210  133.8696  149.3463 H   0  0  0  0  0  0  0  0  0  0  0  0
  144.8878  130.9455  149.9451 H   0  0  0  0  0  0  0  0  0  0  0  0
  146.0511  131.1839  151.9599 H   0  0  0  0  0  0  0  0  0  0  0  0
  151.9322  141.6738  159.6996 H   0  0  0  0  0  0  0  0  0  0  0  0
  153.3645  141.7759  158.6746 H   0  0  0  0  0  0  0  0  0  0  0  0
  153.0664  140.3236  159.6331 H   0  0  0  0  0  0  0  0  0  0  0  0
  149.6875  140.7926  158.2315 H   0  0  0  0  0  0  0  0  0  0  0  0
  149.8308  139.8944  153.6673 H   0  0  0  0  0  0  0  0  0  0  0  0
  149.0426  141.2372  154.4854 H   0  0  0  0  0  0  0  0  0  0  0  0
  148.0772  139.9402  153.7867 H   0  0  0  0  0  0  0  0  0  0  0  0
  148.1426  139.7861  157.3009 H   0  0  0  0  0  0  0  0  0  0  0  0
  149.6183  137.5328  154.6365 H   0  0  0  0  0  0  0  0  0  0  0  0
  149.1772  137.3409  156.3188 H   0  0  0  0  0  0  0  0  0  0  0  0
  146.8728  138.2396  155.0481 H   0  0  0  0  0  0  0  0  0  0  0  0
  147.7606  133.2132  156.0793 H   0  0  0  0  0  0  0  0  0  0  0  0
  144.6927  135.8461  151.0711 H   0  0  0  0  0  0  0  0  0  0  0  0
  143.4330  133.8388  148.0717 H   0  0  0  0  0  0  0  0  0  0  0  0
  144.3149  132.4225  147.5223 H   0  0  0  0  0  0  0  0  0  0  0  0
  142.0181  132.6587  149.0266 H   0  0  0  0  0  0  0  0  0  0  0  0
  147.4220  131.3491  149.5494 H   0  0  0  0  0  0  0  0  0  0  0  0
  147.9592  132.0207  151.1231 H   0  0  0  0  0  0  0  0  0  0  0  0
  151.9003  137.7560  154.7258 H   0  0  0  0  0  0  0  0  0  0  0  0
  153.3759  138.6949  154.9442 H   0  0  0  0  0  0  0  0  0  0  0  0
  152.0881  139.3096  153.9093 H   0  0  0  0  0  0  0  0  0  0  0  0
  1  2  1  0  0  0  0
  1 35  1  0  0  0  0
  1 36  1  0  0  0  0
  1 37  1  0  0  0  0
  2 30  1  0  0  0  0
  2  3  2  0  0  0  0
  3  4  1  0  0  0  0
  3 38  1  0  0  0  0
  4  5  1  0  0  0  0
  4 28  2  0  0  0  0
  5  6  1  0  0  0  0
  5  7  1  0  0  0  0
  5  8  1  0  0  0  0
  6 39  1  0  0  0  0
  6 40  1  0  0  0  0
  6 41  1  0  0  0  0
  7 42  1  0  0  0  0
  8  9  1  0  0  0  0
  8 43  1  0  0  0  0
  8 44  1  0  0  0  0
  9 10  1  0  0  0  0
  9 45  1  0  0  0  0
 10 15  1  0  0  0  0
 10 11  2  0  0  0  0
 11 12  1  0  0  0  0
 12 13  2  0  0  0  0
 12 46  1  0  0  0  0
 13 14  1  0  0  0  0
 14 18  1  0  0  0  0
 14 15  2  0  0  0  0
 15 16  1  0  0  0  0
 16 17  2  0  0  0  0
 17 18  1  0  0  0  0
 17 47  1  0  0  0  0
 18 19  1  0  0  0  0
 19 31  1  0  0  0  0
 19 26  1  0  0  0  0
 19 20  1  0  0  0  0
 20 21  1  0  0  0  0
 21 32  1  0  0  0  0
 21 22  1  0  0  0  0
 21 24  1  0  0  0  0
 22 23  1  0  0  0  0
 22 48  1  0  0  0  0
 22 49  1  0  0  0  0
 23 50  1  0  0  0  0
 24 33  1  0  0  0  0
 24 25  1  0  0  0  0
 24 26  1  0  0  0  0
 25 51  1  0  0  0  0
 26 34  1  0  0  0  0
 26 27  1  0  0  0  0
 27 52  1  0  0  0  0
 28 29  1  0  0  0  0
 28 30  1  0  0  0  0
 29 53  1  0  0  0  0
 29 54  1  0  0  0  0
 29 55  1  0  0  0  0
M  END
> <s_m_source_file>
AV-unprocessed.smi

> <i_m_source_file_index>
287

> <i_lp_mmshare_version>
43012

> <i_f3d_flags>
0

> <s_epik_input>
W0NIM11jMVtjSF1jKGMobzEpW0NIM10pW0NAQF0oW0NIM10pKFtPSF0pW0NIMl1bTkhdYyhuW2NIXW4yKWMoYzIzKW5bY0hdbjNbQ0BASF00T1tDQEhdKFtDSDJdW09IXSlbQ0BASF0oW09IXSlbQ0BIXTRbT0hd

> <s_epik_cmdline>
J2VwaWtfcHl0aG9uJywgJy1waCcsICc3LjAnLCAnLXRuJywgJzgnLCAnLW1hJywgJzIwMCcsICctbWV0YWxfYmluZGluZycsICctaW1hZScsICc8aW5maWxlLm1hZT4nLCAnLW9tYWUnLCAnPG91dGZpbGUubWFlPic=

> <r_lp_tautomer_probability>
1

> <r_epik_Ionization_Penalty>
0.000992612

> <r_epik_Ionization_Penalty_Charging>
0

> <r_epik_Ionization_Penalty_Neutral>
0.000992612

> <r_epik_State_Penalty>
-0

> <r_epik_Charging_Adjusted_Penalty>
0

> <i_epik_Tot_Q>
0

> <i_epik_Tot_abs_Q>
0

> <r_epik_Metal_State_Penalty>
-0

> <b_epik_Metal_Only>
0

> <s_epik_Chemistry_Notes>
This compound contains an acetal/aminal-like group ( X-CH(R)-Y where X, Y are N, S, or O) that may be acid/base labile, releasing an aldehyde.

> <s_lp_Force_Field>
OPLS_2005

> <r_lp_Energy>
46.7929

> <b_lp_Chiralities_Consistent>
1

> <s_lp_Variant>
AV-unprocessed.smi:287-4

> <Gold.Version>
5.8.1

> <Gold.Id.Protein>
6NUR|6NUR_protein|mol2

> <Gold.PLP.Fitness>
55.3471

> <Gold.PLP.PLP>
-41.6725

> <Gold.PLP.part.hbond>
-6.0000

> <Gold.PLP.part.metal>
0.0000

> <Gold.PLP.part.buried>
-3.6457

> <Gold.PLP.part.nonpolar>
-31.9594

> <Gold.PLP.part.repulsive>
0.4550

> <Gold.PLP.ligand.clash>
0.0000

> <Gold.PLP.ligand.torsion>
0.7536

> <Gold.PLP.Chemscore.Hbond>
5.0000

> <Gold.PLP.Chemscore.CHOScore>
0.0000

> <Gold.PLP.Chemscore.Metal>
0.0000

> <Gold.Chemscore.Hbonds>
donor molecule, donor type, donor heavy atom, donor atom, acceptor molecule, acceptor atom, score
      L1  H    23    50       P1 10186  0.88
      L1  H    25    51       P1 10747  1.00
      L1  H    27    52       P1 10747  1.00
      P1  H  7997  8008       L1    30  1.00
      P1  H 10785 10796       L1    23  1.00

> <Gold.PLP.Chemscore.Internal.Correction>
0.1819

> <Gold.Rescore>
     Score         DG    S(hbond)    S(metal)    S(lipo)     H(rot)  DE(clash)    DE(int)     intcor
     16.43     -18.69       4.57        0.00      97.56       5.27       0.42       1.84       ----

> <Gold.Chemscore.Fitness>
16.4308

> <Gold.Chemscore.DG>
-18.6855

> <Gold.Chemscore.ZeroCoef>
-5.4800

> <Gold.Chemscore.Hbond>
4.5733

> <Gold.Chemscore.Metal>
0.0000

> <Gold.Chemscore.Lipo>
97.5611

> <Gold.Chemscore.Internal_Hbond>
0.0000

> <Gold.Chemscore.DEClash>
0.4170

> <Gold.Chemscore.DEInternal>
1.8376

> <Gold.Chemscore.Rot>
5.2672

> <Gold.Chemscore.Internal.Correction>
   9.000000E+99

> <Gold.Chemscore.Hbonds>
donor molecule, donor type, donor heavy atom, donor atom, acceptor molecule, acceptor atom, score
      L1  H    23    50       P1 10186  0.85
      L1  H    25    51       P1 10747  1.00
      L1  H    27    52       P1 10747  1.00
      P1  H  7997  8008       L1    30  0.97
      P1  H 10785 10796       L1    23  0.74

> <Gold.Chemscore.Hbond.Weighted>
-15.2748

> <Gold.Chemscore.Metal.Weighted>
-0.0000

> <Gold.Chemscore.Lipo.Weighted>
-11.4147

> <Gold.Chemscore.Internal_Hbond.Weighted>
0.0000

> <Gold.Chemscore.DEClash.Weighted>
0.4170

> <Gold.Chemscore.DEInternal.Weighted>
1.8376

> <Gold.Chemscore.Rot.Weighted>
13.4839

> <Gold.Chemscore.Internal.Correction.Weighted>
   9.000000E+99

> <Gold.Protein.RotatedTorsions>
[ 6907 6896 6895 6894 ] final  -81.25 input  -60.11 | X-H torsion
[ 7974 7965 7964 7962 ] final   35.13 input  175.53 | X-H torsion
[ 8008 7997 7996 7995 ] final  -51.76 input   59.86 | X-H torsion
[ 10167 10162 10161 10158 ] final  174.85 input  -65.29 | X-H torsion
[ 10718 10713 10712 10709 ] final  -76.48 input   66.30 | X-H torsion
[ 10763 10752 10751 10750 ] final   64.27 input  -60.55 | X-H torsion
[ 11005 11000 10999 10996 ] final  -56.15 input  -57.11 | X-H torsion

> <Gold.Protein.ActiveResidues>
 VAL166  LYS551  ARG553  GLY616  TRP617  ASP618  TYR619  PRO620  LYS621  CYS622 
 ASP623  PHE694  ASN695  SER759  ASP760  ASP761  ALA762  ILE779  LEU786  VAL792 
 PHE793  MET794  SER795  GLU796  ALA797  LYS798  CYS799  TRP800  GLU811  SER814 

> <Gold.Protein.RotatedAtoms>
  150.6915  134.3847  159.5049 H   0  0  0  0  0  0  0  0  0  0  0  0  # atno 6907 bound_to 6896
  152.1644  134.8883  160.0548 H   0  0  0  0  0  0  0  0  0  0  0  0  # atno 6908 bound_to 6896
  151.9933  133.3764  159.4190 H   0  0  0  0  0  0  0  0  0  0  0  0  # atno 6909 bound_to 6896
  146.1305  139.6182  142.9230 H   0  0  0  0  0  0  0  0  0  0  0  0  # atno 7974 bound_to 7965
  154.4090  140.1240  156.4882 H   0  0  0  0  0  0  0  0  0  0  0  0  # atno 8008 bound_to 7997
  155.7017  140.3494  155.4916 H   0  0  0  0  0  0  0  0  0  0  0  0  # atno 8009 bound_to 7997
  155.9379  140.1082  157.1069 H   0  0  0  0  0  0  0  0  0  0  0  0  # atno 8010 bound_to 7997
  139.5156  144.3099  152.0301 H   0  0  0  0  0  0  0  0  0  0  0  0  # atno 10167 bound_to 10162
  156.0174  130.4466  150.3200 H   0  0  0  0  0  0  0  0  0  0  0  0  # atno 10718 bound_to 10713
  153.0049  135.5399  154.6483 H   0  0  0  0  0  0  0  0  0  0  0  0  # atno 10763 bound_to 10752
  154.5721  135.2842  155.0819 H   0  0  0  0  0  0  0  0  0  0  0  0  # atno 10764 bound_to 10752
  154.1980  135.6489  153.5131 H   0  0  0  0  0  0  0  0  0  0  0  0  # atno 10765 bound_to 10752
  141.1107  133.6611  156.4577 H   0  0  0  0  0  0  0  0  0  0  0  0  # atno 11005 bound_to 11000
  145.5271  141.0429  143.2403 LP  0  0  0  0  0  0  0  0  0  0  0  0  # atno 17320 bound_to 7965
  144.7685  139.6788  143.7204 LP  0  0  0  0  0  0  0  0  0  0  0  0  # atno 17321 bound_to 7965
  140.2544  144.4134  150.6209 LP  0  0  0  0  0  0  0  0  0  0  0  0  # atno 17342 bound_to 10162
  140.6202  143.2175  151.6710 LP  0  0  0  0  0  0  0  0  0  0  0  0  # atno 17343 bound_to 10162
  157.1300  131.0269  151.2973 LP  0  0  0  0  0  0  0  0  0  0  0  0  # atno 17370 bound_to 10713
  157.4558  130.7624  149.7192 LP  0  0  0  0  0  0  0  0  0  0  0  0  # atno 17371 bound_to 10713
  140.4783  134.6689  157.5159 LP  0  0  0  0  0  0  0  0  0  0  0  0  # atno 17394 bound_to 11000
  139.9999  134.6852  155.9547 LP  0  0  0  0  0  0  0  0  0  0  0  0  # atno 17395 bound_to 11000

$$$$
