AV-unprocessed.smi:682|AV-procd|sdf|3327|dock6
  -GOLD-   22720 0293D 1   1.00000     0.00000
 Structure written by MMmdl.
 41 42  0  0  0  0  0  0  0  0  1 V2000
  154.2045  141.2680  160.0963 C   0  0  0  0  0  0  0  0  0  0  0  0
  153.7907  142.3586  159.2825 O   0  0  0  0  0  0  0  0  0  0  0  0
  152.4670  142.8704  159.4904 C   0  0  2  0  0  0  0  0  0  0  0  0
  152.2949  143.3494  160.9374 C   0  0  0  0  0  0  0  0  0  0  0  0
  151.4245  141.9117  158.8831 C   0  0  0  0  0  0  0  0  0  0  0  0
  151.6934  142.5886  157.5405 C   0  0  1  0  0  0  0  0  0  0  0  0
  150.4865  142.7481  156.7361 N   0  0  0  0  0  0  0  0  0  0  0  0
  149.8837  141.7505  156.0756 C   0  0  0  0  0  0  0  0  0  0  0  0
  150.2786  140.5846  156.0974 O   0  0  0  0  0  0  0  0  0  0  0  0
  148.8148  142.1916  155.3926 N   0  0  0  0  0  0  0  0  0  0  0  0
  147.9469  141.4303  154.5693 C   0  0  0  0  0  0  0  0  0  0  0  0
  146.8084  141.9463  153.8973 C   0  0  0  0  0  0  0  0  0  0  0  0
  146.1928  141.0015  153.2022 N   0  0  0  0  0  0  0  0  0  0  0  0
  146.9202  139.8783  153.4170 N   0  0  0  0  0  0  0  0  0  0  0  0
  146.5132  138.6398  152.7887 C   0  0  0  0  0  0  0  0  0  0  0  0
  147.9990  140.1031  154.2488 C   0  0  0  0  0  0  0  0  0  0  0  0
  152.1294  143.8545  158.3227 C   0  0  0  0  0  0  0  0  0  0  0  0
  151.0353  144.8988  158.6167 C   0  0  0  0  0  0  0  0  0  0  0  0
  153.3026  144.6396  157.7254 C   0  0  0  0  0  0  0  0  0  0  0  0
  155.1506  140.8813  159.7175 H   0  0  0  0  0  0  0  0  0  0  0  0
  153.4868  140.4483  160.0908 H   0  0  0  0  0  0  0  0  0  0  0  0
  154.3741  141.5789  161.1271 H   0  0  0  0  0  0  0  0  0  0  0  0
  151.3283  143.8270  161.0939 H   0  0  0  0  0  0  0  0  0  0  0  0
  153.0642  144.0724  161.2091 H   0  0  0  0  0  0  0  0  0  0  0  0
  152.3417  142.5256  161.6491 H   0  0  0  0  0  0  0  0  0  0  0  0
  151.6746  140.8516  158.9067 H   0  0  0  0  0  0  0  0  0  0  0  0
  150.4169  142.0841  159.2659 H   0  0  0  0  0  0  0  0  0  0  0  0
  152.5200  142.1111  157.0088 H   0  0  0  0  0  0  0  0  0  0  0  0
  150.0976  143.6771  156.6685 H   0  0  0  0  0  0  0  0  0  0  0  0
  148.6057  143.1767  155.4598 H   0  0  0  0  0  0  0  0  0  0  0  0
  146.4168  142.9528  153.8889 H   0  0  0  0  0  0  0  0  0  0  0  0
  147.1974  137.8371  153.0651 H   0  0  0  0  0  0  0  0  0  0  0  0
  146.5234  138.7554  151.7046 H   0  0  0  0  0  0  0  0  0  0  0  0
  145.5064  138.3742  153.1125 H   0  0  0  0  0  0  0  0  0  0  0  0
  148.6845  139.3159  154.5259 H   0  0  0  0  0  0  0  0  0  0  0  0
  150.7310  145.4293  157.7138 H   0  0  0  0  0  0  0  0  0  0  0  0
  151.3813  145.6491  159.3283 H   0  0  0  0  0  0  0  0  0  0  0  0
  150.1368  144.4477  159.0380 H   0  0  0  0  0  0  0  0  0  0  0  0
  152.9891  145.2425  156.8727 H   0  0  0  0  0  0  0  0  0  0  0  0
  154.0940  143.9815  157.3664 H   0  0  0  0  0  0  0  0  0  0  0  0
  153.7473  145.3114  158.4599 H   0  0  0  0  0  0  0  0  0  0  0  0
  1  2  1  0  0  0  0
  1 20  1  0  0  0  0
  1 21  1  0  0  0  0
  1 22  1  0  0  0  0
  2  3  1  0  0  0  0
  3 17  1  0  0  0  0
  3  4  1  0  0  0  0
  3  5  1  0  0  0  0
  4 23  1  0  0  0  0
  4 24  1  0  0  0  0
  4 25  1  0  0  0  0
  5  6  1  0  0  0  0
  5 26  1  0  0  0  0
  5 27  1  0  0  0  0
  6  7  1  0  0  0  0
  6 17  1  0  0  0  0
  6 28  1  0  0  0  0
  7  8  1  0  0  0  0
  7 29  1  0  0  0  0
  8  9  2  0  0  0  0
  8 10  1  0  0  0  0
 10 11  1  0  0  0  0
 10 30  1  0  0  0  0
 11 16  2  0  0  0  0
 11 12  1  0  0  0  0
 12 13  2  0  0  0  0
 12 31  1  0  0  0  0
 13 14  1  0  0  0  0
 14 15  1  0  0  0  0
 14 16  1  0  0  0  0
 15 32  1  0  0  0  0
 15 33  1  0  0  0  0
 15 34  1  0  0  0  0
 16 35  1  0  0  0  0
 17 18  1  0  0  0  0
 17 19  1  0  0  0  0
 18 36  1  0  0  0  0
 18 37  1  0  0  0  0
 18 38  1  0  0  0  0
 19 39  1  0  0  0  0
 19 40  1  0  0  0  0
 19 41  1  0  0  0  0
M  END
> <s_m_source_file>
AV-unprocessed.smi

> <i_m_source_file_index>
682

> <i_lp_mmshare_version>
43012

> <i_f3d_flags>
0

> <s_epik_input>
W0NIM11PW0NAQF0xKFtDSDNdKVtDSDJdW0NASF0oQzEoW0NIM10pW0NIM10pW05IXUMoPU8pW05IXWMyW2NIXW5uKFtDSDNdKVtjSF0y

> <s_epik_cmdline>
J2VwaWtfcHl0aG9uJywgJy1waCcsICc3LjAnLCAnLXRuJywgJzgnLCAnLW1hJywgJzIwMCcsICctbWV0YWxfYmluZGluZycsICctaW1hZScsICc8aW5maWxlLm1hZT4nLCAnLW9tYWUnLCAnPG91dGZpbGUubWFlPic=

> <r_lp_tautomer_probability>
1

> <r_epik_Ionization_Penalty>
0.000192302

> <r_epik_Ionization_Penalty_Charging>
0

> <r_epik_Ionization_Penalty_Neutral>
0.000192302

> <r_epik_State_Penalty>
-0

> <r_epik_Charging_Adjusted_Penalty>
0

> <i_epik_Tot_Q>
0

> <i_epik_Tot_abs_Q>
0

> <r_epik_Metal_State_Penalty>
-0

> <b_epik_Metal_Only>
0

> <s_lp_Force_Field>
OPLS_2005

> <r_lp_Energy>
24.7984

> <b_lp_Chiralities_Consistent>
1

> <s_lp_Variant>
AV-unprocessed.smi:682-2

> <Gold.Version>
5.8.1

> <Gold.Id.Protein>
6NUR|6NUR_protein|mol2

> <Gold.PLP.Fitness>
45.2815

> <Gold.PLP.PLP>
-39.8588

> <Gold.PLP.part.hbond>
-1.8609

> <Gold.PLP.part.metal>
0.0000

> <Gold.PLP.part.buried>
-3.6340

> <Gold.PLP.part.nonpolar>
-35.4122

> <Gold.PLP.part.repulsive>
2.0757

> <Gold.PLP.ligand.clash>
0.0000

> <Gold.PLP.ligand.torsion>
0.1999

> <Gold.PLP.Chemscore.Hbond>
1.8160

> <Gold.PLP.Chemscore.CHOScore>
0.0000

> <Gold.PLP.Chemscore.Metal>
0.0000

> <Gold.Chemscore.Hbonds>
donor molecule, donor type, donor heavy atom, donor atom, acceptor molecule, acceptor atom, score
      L1  H     7    29       P1  8028  0.86
      L1  H    10    30       P1  8028  1.00

> <Gold.PLP.Chemscore.Internal.Correction>
0.3744

> <Gold.Rescore>
     Score         DG    S(hbond)    S(metal)    S(lipo)     H(rot)  DE(clash)    DE(int)     intcor
     19.92     -21.81       1.93        0.00     111.37       1.23       0.55       1.33       ----

> <Gold.Chemscore.Fitness>
19.9226

> <Gold.Chemscore.DG>
-21.8108

> <Gold.Chemscore.ZeroCoef>
-5.4800

> <Gold.Chemscore.Hbond>
1.9338

> <Gold.Chemscore.Metal>
0.0000

> <Gold.Chemscore.Lipo>
111.3682

> <Gold.Chemscore.Internal_Hbond>
0.0000

> <Gold.Chemscore.DEClash>
0.5547

> <Gold.Chemscore.DEInternal>
1.3335

> <Gold.Chemscore.Rot>
1.2336

> <Gold.Chemscore.Internal.Correction>
   9.000000E+99

> <Gold.Chemscore.Hbonds>
donor molecule, donor type, donor heavy atom, donor atom, acceptor molecule, acceptor atom, score
      L1  H     7    29       P1  8028  0.85
      L1  H    10    30       P1  8028  0.96

> <Gold.Chemscore.Hbond.Weighted>
-6.4588

> <Gold.Chemscore.Metal.Weighted>
-0.0000

> <Gold.Chemscore.Lipo.Weighted>
-13.0301

> <Gold.Chemscore.Internal_Hbond.Weighted>
0.0000

> <Gold.Chemscore.DEClash.Weighted>
0.5547

> <Gold.Chemscore.DEInternal.Weighted>
1.3335

> <Gold.Chemscore.Rot.Weighted>
3.1581

> <Gold.Chemscore.Internal.Correction.Weighted>
   9.000000E+99

> <Gold.Protein.RotatedTorsions>
[ 6907 6896 6895 6894 ] final   14.89 input  -60.11 | X-H torsion
[ 7974 7965 7964 7962 ] final  139.01 input  175.53 | X-H torsion
[ 8008 7997 7996 7995 ] final   31.16 input   59.86 | X-H torsion
[ 10167 10162 10161 10158 ] final  -36.08 input  -65.29 | X-H torsion
[ 10718 10713 10712 10709 ] final  -50.36 input   66.30 | X-H torsion
[ 10763 10752 10751 10750 ] final -124.60 input  -60.55 | X-H torsion
[ 11005 11000 10999 10996 ] final  -70.62 input  -57.11 | X-H torsion

> <Gold.Protein.ActiveResidues>
 VAL166  LYS551  ARG553  GLY616  TRP617  ASP618  TYR619  PRO620  LYS621  CYS622 
 ASP623  PHE694  ASN695  SER759  ASP760  ASP761  ALA762  ILE779  LEU786  VAL792 
 PHE793  MET794  SER795  GLU796  ALA797  LYS798  CYS799  TRP800  GLU811  SER814 

> <Gold.Protein.RotatedAtoms>
  151.8094  135.0685  160.0410 H   0  0  0  0  0  0  0  0  0  0  0  0  # atno 6907 bound_to 6896
  152.3031  133.5671  159.5640 H   0  0  0  0  0  0  0  0  0  0  0  0  # atno 6908 bound_to 6896
  150.7283  134.0178  159.3733 H   0  0  0  0  0  0  0  0  0  0  0  0  # atno 6909 bound_to 6896
  144.9319  139.5037  143.5613 H   0  0  0  0  0  0  0  0  0  0  0  0  # atno 7974 bound_to 7965
  155.1020  140.3230  155.4544 H   0  0  0  0  0  0  0  0  0  0  0  0  # atno 8008 bound_to 7997
  156.2714  140.2059  156.6093 H   0  0  0  0  0  0  0  0  0  0  0  0  # atno 8009 bound_to 7997
  154.6822  140.0525  157.0264 H   0  0  0  0  0  0  0  0  0  0  0  0  # atno 8010 bound_to 7997
  140.7151  143.3433  151.2311 H   0  0  0  0  0  0  0  0  0  0  0  0  # atno 10167 bound_to 10162
  156.1807  130.4150  149.9511 H   0  0  0  0  0  0  0  0  0  0  0  0  # atno 10718 bound_to 10713
  154.8725  135.4058  154.3132 H   0  0  0  0  0  0  0  0  0  0  0  0  # atno 10763 bound_to 10752
  153.3973  135.7017  153.6457 H   0  0  0  0  0  0  0  0  0  0  0  0  # atno 10764 bound_to 10752
  153.5214  135.3686  155.2605 H   0  0  0  0  0  0  0  0  0  0  0  0  # atno 10765 bound_to 10752
  141.1577  133.6795  156.6780 H   0  0  0  0  0  0  0  0  0  0  0  0  # atno 11005 bound_to 11000
  146.3250  139.8276  142.8914 LP  0  0  0  0  0  0  0  0  0  0  0  0  # atno 17320 bound_to 7965
  145.3128  141.0224  143.3545 LP  0  0  0  0  0  0  0  0  0  0  0  0  # atno 17321 bound_to 7965
  139.6946  143.9635  152.2876 LP  0  0  0  0  0  0  0  0  0  0  0  0  # atno 17342 bound_to 10162
  139.9308  144.6743  150.8365 LP  0  0  0  0  0  0  0  0  0  0  0  0  # atno 17343 bound_to 10162
  156.7282  130.9033  151.3623 LP  0  0  0  0  0  0  0  0  0  0  0  0  # atno 17370 bound_to 10713
  157.6866  130.9192  150.0403 LP  0  0  0  0  0  0  0  0  0  0  0  0  # atno 17371 bound_to 10713
  140.3124  134.8075  157.4187 LP  0  0  0  0  0  0  0  0  0  0  0  0  # atno 17394 bound_to 11000
  140.1167  134.5273  155.8218 LP  0  0  0  0  0  0  0  0  0  0  0  0  # atno 17395 bound_to 11000

$$$$
