AV-unprocessed.smi:1047|AV-procd|sdf|4589|dock5
  -GOLD-   22720 3 63D 1   1.00000     0.00000
 Structure written by MMmdl.
 57 59  0  0  0  0  0  0  0  0  3 V2000
  151.3374  129.7157  154.6359 C   0  0  0  0  0  0  0  0  0  0  0  0
  150.0191  130.0959  155.3248 C   0  0  0  0  0  0  0  0  0  0  0  0
  149.4901  131.4099  154.9624 N   0  0  0  0  0  0  0  0  0  0  0  0
  149.1975  131.4774  153.5347 C   0  0  0  0  0  0  0  0  0  0  0  0
  148.6427  132.8519  153.1258 C   0  0  0  0  0  0  0  0  0  0  0  0
  149.5649  133.8665  153.5094 O   0  0  0  0  0  0  0  0  0  0  0  0
  149.8332  133.8723  154.9092 C   0  0  2  0  0  0  0  0  0  0  0  0
  150.8068  135.0191  155.2117 C   0  0  0  0  0  0  0  0  0  0  0  0
  150.2731  136.2875  154.6845 N   0  3  0  0  0  0  0  0  0  0  0  0
  151.2698  137.3561  154.4794 C   0  0  0  0  0  0  0  0  0  0  0  0
  150.7127  138.7222  154.9329 C   0  0  2  0  0  0  0  0  0  0  0  0
  150.2033  139.3992  153.8039 O   0  0  0  0  0  0  0  0  0  0  0  0
  151.7326  139.6620  155.6236 C   0  0  0  0  0  0  0  0  0  0  0  0
  151.1429  140.8656  156.2285 N   0  0  0  0  0  0  0  0  0  0  0  0
  150.1408  141.6680  155.7746 C   0  0  0  0  0  0  0  0  0  0  0  0
  149.9729  142.6685  156.6829 N   0  3  0  0  0  0  0  0  0  0  0  0
  150.8693  142.4944  157.7395 C   0  0  0  0  0  0  0  0  0  0  0  0
  151.0848  143.2513  158.8844 C   0  0  0  0  0  0  0  0  0  0  0  0
  152.0865  142.8028  159.7743 C   0  0  0  0  0  0  0  0  0  0  0  0
  152.3544  143.6129  161.0313 C   0  0  0  0  0  0  0  0  0  0  0  0
  152.8278  141.6229  159.5052 C   0  0  0  0  0  0  0  0  0  0  0  0
  153.9010  141.1496  160.4708 C   0  0  0  0  0  0  0  0  0  0  0  0
  152.5901  140.8636  158.3371 C   0  0  0  0  0  0  0  0  0  0  0  0
  151.6095  141.3278  157.4644 C   0  0  0  0  0  0  0  0  0  0  0  0
  150.4009  132.4974  155.3126 C   0  0  0  0  0  0  0  0  0  0  0  0
  151.7200  128.7772  155.0370 H   0  0  0  0  0  0  0  0  0  0  0  0
  152.1000  130.4781  154.7967 H   0  0  0  0  0  0  0  0  0  0  0  0
  151.2137  129.5801  153.5618 H   0  0  0  0  0  0  0  0  0  0  0  0
  149.2707  129.3268  155.1286 H   0  0  0  0  0  0  0  0  0  0  0  0
  150.1958  130.0731  156.4010 H   0  0  0  0  0  0  0  0  0  0  0  0
  150.1025  131.2696  152.9614 H   0  0  0  0  0  0  0  0  0  0  0  0
  148.4764  130.7042  153.2672 H   0  0  0  0  0  0  0  0  0  0  0  0
  148.4924  132.8956  152.0472 H   0  0  0  0  0  0  0  0  0  0  0  0
  147.6734  133.0344  153.5927 H   0  0  0  0  0  0  0  0  0  0  0  0
  148.9007  134.0473  155.4498 H   0  0  0  0  0  0  0  0  0  0  0  0
  150.9385  135.1102  156.2907 H   0  0  0  0  0  0  0  0  0  0  0  0
  151.7881  134.8225  154.7783 H   0  0  0  0  0  0  0  0  0  0  0  0
  149.8098  136.1009  153.8061 H   0  0  0  0  0  0  0  0  0  0  0  0
  152.1945  137.1256  155.0102 H   0  0  0  0  0  0  0  0  0  0  0  0
  151.5087  137.3793  153.4149 H   0  0  0  0  0  0  0  0  0  0  0  0
  149.8641  138.5517  155.5958 H   0  0  0  0  0  0  0  0  0  0  0  0
  149.4026  139.8395  154.0456 H   0  0  0  0  0  0  0  0  0  0  0  0
  152.2391  139.1282  156.4296 H   0  0  0  0  0  0  0  0  0  0  0  0
  152.5102  139.9742  154.9249 H   0  0  0  0  0  0  0  0  0  0  0  0
  149.5873  141.5418  154.8549 H   0  0  0  0  0  0  0  0  0  0  0  0
  150.5131  144.1457  159.0862 H   0  0  0  0  0  0  0  0  0  0  0  0
  153.3839  143.9714  161.0433 H   0  0  0  0  0  0  0  0  0  0  0  0
  152.1882  143.0060  161.9215 H   0  0  0  0  0  0  0  0  0  0  0  0
  151.6986  144.4819  161.0941 H   0  0  0  0  0  0  0  0  0  0  0  0
  154.3784  140.2338  160.1212 H   0  0  0  0  0  0  0  0  0  0  0  0
  153.4715  140.9469  161.4521 H   0  0  0  0  0  0  0  0  0  0  0  0
  154.6765  141.9076  160.5819 H   0  0  0  0  0  0  0  0  0  0  0  0
  153.1528  139.9643  158.1340 H   0  0  0  0  0  0  0  0  0  0  0  0
  150.5887  132.4988  156.3858 H   0  0  0  0  0  0  0  0  0  0  0  0
  151.3654  132.3430  154.8261 H   0  0  0  0  0  0  0  0  0  0  0  0
  149.5875  136.6326  155.3408 H   0  0  0  0  0  0  0  0  0  0  0  0
  149.2898  143.4100  156.5899 H   0  0  0  0  0  0  0  0  0  0  0  0
  1  2  1  0  0  0  0
  1 26  1  0  0  0  0
  1 27  1  0  0  0  0
  1 28  1  0  0  0  0
  2  3  1  0  0  0  0
  2 29  1  0  0  0  0
  2 30  1  0  0  0  0
  3 25  1  0  0  0  0
  3  4  1  0  0  0  0
  4  5  1  0  0  0  0
  4 31  1  0  0  0  0
  4 32  1  0  0  0  0
  5  6  1  0  0  0  0
  5 33  1  0  0  0  0
  5 34  1  0  0  0  0
  6  7  1  0  0  0  0
  7  8  1  0  0  0  0
  7 25  1  0  0  0  0
  7 35  1  0  0  0  0
  8  9  1  0  0  0  0
  8 36  1  0  0  0  0
  8 37  1  0  0  0  0
  9 10  1  0  0  0  0
  9 38  1  0  0  0  0
  9 56  1  0  0  0  0
 10 11  1  0  0  0  0
 10 39  1  0  0  0  0
 10 40  1  0  0  0  0
 11 12  1  0  0  0  0
 11 13  1  0  0  0  0
 11 41  1  0  0  0  0
 12 42  1  0  0  0  0
 13 14  1  0  0  0  0
 13 43  1  0  0  0  0
 13 44  1  0  0  0  0
 14 24  1  0  0  0  0
 14 15  1  0  0  0  0
 15 16  2  0  0  0  0
 15 45  1  0  0  0  0
 16 17  1  0  0  0  0
 16 57  1  0  0  0  0
 17 24  2  0  0  0  0
 17 18  1  0  0  0  0
 18 19  2  0  0  0  0
 18 46  1  0  0  0  0
 19 20  1  0  0  0  0
 19 21  1  0  0  0  0
 20 47  1  0  0  0  0
 20 48  1  0  0  0  0
 20 49  1  0  0  0  0
 21 22  1  0  0  0  0
 21 23  2  0  0  0  0
 22 50  1  0  0  0  0
 22 51  1  0  0  0  0
 22 52  1  0  0  0  0
 23 24  1  0  0  0  0
 23 53  1  0  0  0  0
 25 54  1  0  0  0  0
 25 55  1  0  0  0  0
M  CHG  1   9   1
M  CHG  1  16   1
M  END
> <s_m_source_file>
AV-unprocessed.smi

> <i_m_source_file_index>
1047

> <i_lp_mmshare_version>
43012

> <i_f3d_flags>
0

> <s_epik_input>
W0NIM11bQ0gyXU4xW0NIMl1bQ0gyXU9bQ0BIXShbQ0gyXTEpW0NIMl1bTkhdW0NIMl1bQ0BIXShbT0hdKVtDSDJdbihbY0hdbjIpYyhjMjMpW2NIXWMoW0NIM10pYyhbY0hdMylbQ0gzXQ==

> <s_epik_cmdline>
J2VwaWtfcHl0aG9uJywgJy1waCcsICc3LjAnLCAnLXRuJywgJzgnLCAnLW1hJywgJzIwMCcsICctbWV0YWxfYmluZGluZycsICctaW1hZScsICc8aW5maWxlLm1hZT4nLCAnLW9tYWUnLCAnPG91dGZpbGUubWFlPic=

> <r_epik_Ionization_Penalty>
1.75732

> <r_epik_Ionization_Penalty_Charging>
1.18089

> <r_epik_Ionization_Penalty_Neutral>
0.576429

> <r_epik_State_Penalty>
1.69377

> <r_epik_Charging_Adjusted_Penalty>
2.87466

> <i_epik_Tot_Q>
2

> <i_epik_Tot_abs_Q>
2

> <r_epik_Metal_State_Penalty>
5.70174

> <b_epik_Metal_Only>
0

> <s_lp_Force_Field>
OPLS_2005

> <r_lp_Energy>
41.9229

> <b_lp_Chiralities_Consistent>
1

> <s_lp_Variant>
AV-unprocessed.smi:1047-30

> <Gold.Version>
5.8.1

> <Gold.Id.Protein>
6NUR|6NUR_protein|mol2

> <Gold.PLP.Fitness>
65.0363

> <Gold.PLP.PLP>
-52.3770

> <Gold.PLP.part.hbond>
-3.7818

> <Gold.PLP.part.metal>
0.0000

> <Gold.PLP.part.buried>
-4.4721

> <Gold.PLP.part.nonpolar>
-46.2183

> <Gold.PLP.part.repulsive>
2.2568

> <Gold.PLP.ligand.clash>
0.0000

> <Gold.PLP.ligand.torsion>
1.2412

> <Gold.PLP.Chemscore.Hbond>
4.9440

> <Gold.PLP.Chemscore.CHOScore>
0.0000

> <Gold.PLP.Chemscore.Metal>
0.0000

> <Gold.Chemscore.Hbonds>
donor molecule, donor type, donor heavy atom, donor atom, acceptor molecule, acceptor atom, score
      L1  H     9    38       P1  7948  1.69
      L1  H    16    57       P1  8028  1.73
      P1  H  7989  7998       L1    12  0.90

> <Gold.PLP.Chemscore.Internal.Correction>
0.3096

> <Gold.Rescore>
     Score         DG    S(hbond)    S(metal)    S(lipo)     H(rot)  DE(clash)    DE(int)     intcor
     17.18     -19.84       1.87        0.00     128.27       2.69       0.21       2.45       ----

> <Gold.Chemscore.Fitness>
17.1847

> <Gold.Chemscore.DG>
-19.8435

> <Gold.Chemscore.ZeroCoef>
-5.4800

> <Gold.Chemscore.Hbond>
1.8702

> <Gold.Chemscore.Metal>
0.0000

> <Gold.Chemscore.Lipo>
128.2709

> <Gold.Chemscore.Internal_Hbond>
0.0000

> <Gold.Chemscore.DEClash>
0.2132

> <Gold.Chemscore.DEInternal>
2.4456

> <Gold.Chemscore.Rot>
2.6917

> <Gold.Chemscore.Internal.Correction>
   9.000000E+99

> <Gold.Chemscore.Hbonds>
donor molecule, donor type, donor heavy atom, donor atom, acceptor molecule, acceptor atom, score
      L1  H     9    38       P1  7948  0.21
      L1  H    16    57       P1  8028  0.84
      P1  H  7989  7998       L1    12  0.20

> <Gold.Chemscore.Hbond.Weighted>
-6.2465

> <Gold.Chemscore.Metal.Weighted>
-0.0000

> <Gold.Chemscore.Lipo.Weighted>
-15.0077

> <Gold.Chemscore.Internal_Hbond.Weighted>
0.0000

> <Gold.Chemscore.DEClash.Weighted>
0.2132

> <Gold.Chemscore.DEInternal.Weighted>
2.4456

> <Gold.Chemscore.Rot.Weighted>
6.8907

> <Gold.Chemscore.Internal.Correction.Weighted>
   9.000000E+99

> <Gold.Protein.RotatedTorsions>
[ 6907 6896 6895 6894 ] final  -92.95 input  -60.11 | X-H torsion
[ 7974 7965 7964 7962 ] final  141.71 input  175.53 | X-H torsion
[ 8008 7997 7996 7995 ] final -129.27 input   59.86 | X-H torsion
[ 10167 10162 10161 10158 ] final  -80.07 input  -65.29 | X-H torsion
[ 10718 10713 10712 10709 ] final   38.22 input   66.30 | X-H torsion
[ 10763 10752 10751 10750 ] final  132.65 input  -60.55 | X-H torsion
[ 11005 11000 10999 10996 ] final  141.02 input  -57.11 | X-H torsion

> <Gold.Protein.ActiveResidues>
 VAL166  LYS551  ARG553  GLY616  TRP617  ASP618  TYR619  PRO620  LYS621  CYS622 
 ASP623  PHE694  ASN695  SER759  ASP760  ASP761  ALA762  ILE779  LEU786  VAL792 
 PHE793  MET794  SER795  GLU796  ALA797  LYS798  CYS799  TRP800  GLU811  SER814 

> <Gold.Protein.RotatedAtoms>
  150.6914  134.2043  159.4333 H   0  0  0  0  0  0  0  0  0  0  0  0  # atno 6907 bound_to 6896
  152.0008  134.9927  160.0574 H   0  0  0  0  0  0  0  0  0  0  0  0  # atno 6908 bound_to 6896
  152.1581  133.4529  159.4884 H   0  0  0  0  0  0  0  0  0  0  0  0  # atno 6909 bound_to 6896
  144.9072  139.5341  143.5725 H   0  0  0  0  0  0  0  0  0  0  0  0  # atno 7974 bound_to 7965
  155.2765  140.0442  157.3011 H   0  0  0  0  0  0  0  0  0  0  0  0  # atno 8008 bound_to 7997
  154.5622  140.2349  155.8286 H   0  0  0  0  0  0  0  0  0  0  0  0  # atno 8009 bound_to 7997
  156.2057  140.3013  155.9628 H   0  0  0  0  0  0  0  0  0  0  0  0  # atno 8010 bound_to 7997
  140.4536  143.2475  151.8453 H   0  0  0  0  0  0  0  0  0  0  0  0  # atno 10167 bound_to 10162
  157.3562  130.7625  149.7014 H   0  0  0  0  0  0  0  0  0  0  0  0  # atno 10718 bound_to 10713
  153.7943  135.3151  155.3382 H   0  0  0  0  0  0  0  0  0  0  0  0  # atno 10763 bound_to 10752
  154.8114  135.4665  154.0529 H   0  0  0  0  0  0  0  0  0  0  0  0  # atno 10764 bound_to 10752
  153.1856  135.6900  153.8506 H   0  0  0  0  0  0  0  0  0  0  0  0  # atno 10765 bound_to 10752
  140.0370  134.9324  157.0772 H   0  0  0  0  0  0  0  0  0  0  0  0  # atno 11005 bound_to 11000
  146.3140  139.7850  142.8998 LP  0  0  0  0  0  0  0  0  0  0  0  0  # atno 17320 bound_to 7965
  145.3515  141.0308  143.3336 LP  0  0  0  0  0  0  0  0  0  0  0  0  # atno 17321 bound_to 7965
  139.4799  144.5091  151.8957 LP  0  0  0  0  0  0  0  0  0  0  0  0  # atno 17342 bound_to 10162
  140.4178  144.2284  150.5887 LP  0  0  0  0  0  0  0  0  0  0  0  0  # atno 17343 bound_to 10162
  155.9729  130.4126  150.4043 LP  0  0  0  0  0  0  0  0  0  0  0  0  # atno 17370 bound_to 10713
  157.2113  131.0461  151.2597 LP  0  0  0  0  0  0  0  0  0  0  0  0  # atno 17371 bound_to 10713
  140.4131  134.1960  155.7163 LP  0  0  0  0  0  0  0  0  0  0  0  0  # atno 17394 bound_to 11000
  141.1863  133.8306  157.1074 LP  0  0  0  0  0  0  0  0  0  0  0  0  # atno 17395 bound_to 11000

$$$$
