AV-unprocessed.smi:3228|AV-procd|sdf|12323|dock2
  -GOLD-   2272018173D 1   1.00000     0.00000
 Structure written by MMmdl.
 30 31  0  0  0  0  0  0  0  0  2 V2000
  151.8159  138.9580  159.0874 O   0  0  0  0  0  0  0  0  0  0  0  0
  152.3527  139.5498  158.1481 C   0  0  0  0  0  0  0  0  0  0  0  0
  152.6391  140.8537  158.2583 N   0  0  0  0  0  0  0  0  0  0  0  0
  152.3698  141.6777  159.4304 C   0  0  0  0  0  0  0  0  0  0  0  0
  152.3452  143.1714  159.0611 C   0  0  2  0  0  0  0  0  0  0  0  0
  152.4117  144.1164  160.2726 C   0  0  0  0  0  0  0  0  0  0  0  0
  151.6587  145.3949  159.8713 C   0  0  0  0  0  0  0  0  0  0  0  0
  151.0702  145.1312  158.4804 C   0  0  0  0  0  0  0  0  0  0  0  0
  151.0701  143.6092  158.3334 C   0  0  1  0  0  0  0  0  0  0  0  0
  151.0664  143.2227  156.9745 O   0  0  0  0  0  0  0  0  0  0  0  0
  152.7071  139.0127  156.9583 N   0  5  0  0  0  0  0  0  0  0  0  0
  151.8202  138.9672  155.9507 C   0  0  0  0  0  0  0  0  0  0  0  0
  150.7240  139.7335  155.9085 N   0  0  0  0  0  0  0  0  0  0  0  0
  149.9469  139.5282  154.7670 C   0  0  0  0  0  0  0  0  0  0  0  0
  150.4685  138.5907  153.9155 C   0  0  0  0  0  0  0  0  0  0  0  0
  151.9603  137.9333  154.5258 S   0  0  0  0  0  0  0  0  0  0  0  0
  153.0778  141.3043  157.4689 H   0  0  0  0  0  0  0  0  0  0  0  0
  151.4102  141.3837  159.8583 H   0  0  0  0  0  0  0  0  0  0  0  0
  153.1301  141.4898  160.1905 H   0  0  0  0  0  0  0  0  0  0  0  0
  153.1998  143.3922  158.4182 H   0  0  0  0  0  0  0  0  0  0  0  0
  151.9179  143.6638  161.1338 H   0  0  0  0  0  0  0  0  0  0  0  0
  153.4422  144.3233  160.5641 H   0  0  0  0  0  0  0  0  0  0  0  0
  150.8637  145.5986  160.5895 H   0  0  0  0  0  0  0  0  0  0  0  0
  152.3170  146.2641  159.8592 H   0  0  0  0  0  0  0  0  0  0  0  0
  150.0768  145.5636  158.3555 H   0  0  0  0  0  0  0  0  0  0  0  0
  151.7218  145.5789  157.7283 H   0  0  0  0  0  0  0  0  0  0  0  0
  150.1920  143.1935  158.8305 H   0  0  0  0  0  0  0  0  0  0  0  0
  150.6133  143.8854  156.4759 H   0  0  0  0  0  0  0  0  0  0  0  0
  149.0364  140.0951  154.6415 H   0  0  0  0  0  0  0  0  0  0  0  0
  150.0707  138.2495  152.9719 H   0  0  0  0  0  0  0  0  0  0  0  0
  1  2  2  0  0  0  0
  2  3  1  0  0  0  0
  2 11  1  0  0  0  0
  3  4  1  0  0  0  0
  3 17  1  0  0  0  0
  4  5  1  0  0  0  0
  4 18  1  0  0  0  0
  4 19  1  0  0  0  0
  5  9  1  0  0  0  0
  5  6  1  0  0  0  0
  5 20  1  0  0  0  0
  6  7  1  0  0  0  0
  6 21  1  0  0  0  0
  6 22  1  0  0  0  0
  7  8  1  0  0  0  0
  7 23  1  0  0  0  0
  7 24  1  0  0  0  0
  8  9  1  0  0  0  0
  8 25  1  0  0  0  0
  8 26  1  0  0  0  0
  9 10  1  0  0  0  0
  9 27  1  0  0  0  0
 10 28  1  0  0  0  0
 11 12  1  0  0  0  0
 12 16  1  0  0  0  0
 12 13  2  0  0  0  0
 13 14  1  0  0  0  0
 14 15  2  0  0  0  0
 14 29  1  0  0  0  0
 15 16  1  0  0  0  0
 15 30  1  0  0  0  0
M  CHG  1  11  -1
M  END
> <s_m_source_file>
AV-unprocessed.smi

> <i_m_source_file_index>
3228

> <i_lp_mmshare_version>
43012

> <i_f3d_flags>
0

> <s_epik_input>
czFbY0hdW2NIXW5jMVtOSF1DKD1PKVtOSF1bQ0gyXVtDQEBIXTJbQ0gyXVtDSDJdW0NIMl1bQ0BIXTJbT0hd

> <s_epik_cmdline>
J2VwaWtfcHl0aG9uJywgJy1waCcsICc3LjAnLCAnLXRuJywgJzgnLCAnLW1hJywgJzIwMCcsICctbWV0YWxfYmluZGluZycsICctaW1hZScsICc8aW5maWxlLm1hZT4nLCAnLW9tYWUnLCAnPG91dGZpbGUubWFlPic=

> <r_lp_tautomer_probability>
0.999

> <r_epik_Ionization_Penalty>
8.49756

> <r_epik_Ionization_Penalty_Charging>
6.79645

> <r_epik_Ionization_Penalty_Neutral>
1.70111

> <r_epik_State_Penalty>
6.79662

> <r_epik_Charging_Adjusted_Penalty>
13.5931

> <i_epik_Tot_Q>
-1

> <i_epik_Tot_abs_Q>
1

> <r_epik_Metal_State_Penalty>
2.71629

> <b_epik_Metal_Only>
1

> <s_lp_Force_Field>
OPLS_2005

> <r_lp_Energy>
18.1026

> <b_lp_Chiralities_Consistent>
1

> <s_lp_Variant>
AV-unprocessed.smi:3228-5

> <Gold.Version>
5.8.1

> <Gold.Id.Protein>
6NUR|6NUR_protein|mol2

> <Gold.PLP.Fitness>
46.4344

> <Gold.PLP.PLP>
-34.4620

> <Gold.PLP.part.hbond>
-2.0000

> <Gold.PLP.part.metal>
0.0000

> <Gold.PLP.part.buried>
-3.8557

> <Gold.PLP.part.nonpolar>
-28.2754

> <Gold.PLP.part.repulsive>
0.1104

> <Gold.PLP.ligand.clash>
0.0000

> <Gold.PLP.ligand.torsion>
1.0741

> <Gold.PLP.Chemscore.Hbond>
2.9913

> <Gold.PLP.Chemscore.CHOScore>
1.7128

> <Gold.PLP.Chemscore.Metal>
0.0000

> <Gold.Chemscore.Hbonds>
donor molecule, donor type, donor heavy atom, donor atom, acceptor molecule, acceptor atom, score
      L1  H    10    28       P1  8028  0.91
      P1  H  7997  8008       L1    11  2.00
      L1  C    15    30       P1  7948  1.00
      L1  C    15    30       P1  7949  0.01
      L1  C    15    30       P1  7957  0.70

> <Gold.PLP.Chemscore.Internal.Correction>
0.0085

> <Gold.Rescore>
     Score         DG    S(hbond)    S(metal)    S(lipo)     H(rot)  DE(clash)    DE(int)     intcor
     15.93     -16.99       1.78        0.00      87.96       1.85       0.02       1.04       ----

> <Gold.Chemscore.Fitness>
15.9306

> <Gold.Chemscore.DG>
-16.9899

> <Gold.Chemscore.ZeroCoef>
-5.4800

> <Gold.Chemscore.Hbond>
1.7815

> <Gold.Chemscore.Metal>
0.0000

> <Gold.Chemscore.Lipo>
87.9562

> <Gold.Chemscore.Internal_Hbond>
0.0000

> <Gold.Chemscore.DEClash>
0.0186

> <Gold.Chemscore.DEInternal>
1.0407

> <Gold.Chemscore.Rot>
1.8481

> <Gold.Chemscore.Internal.Correction>
   9.000000E+99

> <Gold.Chemscore.Hbonds>
donor molecule, donor type, donor heavy atom, donor atom, acceptor molecule, acceptor atom, score
      L1  H    10    28       P1  8028  0.84
      P1  H  7997  8008       L1    11  0.28

> <Gold.Chemscore.Hbond.Weighted>
-5.9503

> <Gold.Chemscore.Metal.Weighted>
-0.0000

> <Gold.Chemscore.Lipo.Weighted>
-10.2909

> <Gold.Chemscore.Internal_Hbond.Weighted>
0.0000

> <Gold.Chemscore.DEClash.Weighted>
0.0186

> <Gold.Chemscore.DEInternal.Weighted>
1.0407

> <Gold.Chemscore.Rot.Weighted>
4.7313

> <Gold.Chemscore.Internal.Correction.Weighted>
   9.000000E+99

> <Gold.Protein.RotatedTorsions>
[ 6907 6896 6895 6894 ] final   98.75 input  -60.11 | X-H torsion
[ 7974 7965 7964 7962 ] final  165.86 input  175.53 | X-H torsion
[ 8008 7997 7996 7995 ] final  -51.10 input   59.86 | X-H torsion
[ 10167 10162 10161 10158 ] final -132.46 input  -65.29 | X-H torsion
[ 10718 10713 10712 10709 ] final   44.32 input   66.30 | X-H torsion
[ 10763 10752 10751 10750 ] final  170.83 input  -60.55 | X-H torsion
[ 11005 11000 10999 10996 ] final  124.30 input  -57.11 | X-H torsion

> <Gold.Protein.ActiveResidues>
 VAL166  LYS551  ARG553  GLY616  TRP617  ASP618  TYR619  PRO620  LYS621  CYS622 
 ASP623  PHE694  ASN695  SER759  ASP760  ASP761  ALA762  ILE779  LEU786  VAL792 
 PHE793  MET794  SER795  GLU796  ALA797  LYS798  CYS799  TRP800  GLU811  SER814 

> <Gold.Protein.RotatedAtoms>
  152.5404  134.0533  159.8119 H   0  0  0  0  0  0  0  0  0  0  0  0  # atno 6907 bound_to 6896
  151.0671  133.5488  159.2637 H   0  0  0  0  0  0  0  0  0  0  0  0  # atno 6908 bound_to 6896
  151.2365  135.0582  159.9062 H   0  0  0  0  0  0  0  0  0  0  0  0  # atno 6909 bound_to 6896
  144.7485  139.8532  143.6374 H   0  0  0  0  0  0  0  0  0  0  0  0  # atno 7974 bound_to 7965
  154.4075  140.1256  156.4774 H   0  0  0  0  0  0  0  0  0  0  0  0  # atno 8008 bound_to 7997
  155.7119  140.3493  155.4958 H   0  0  0  0  0  0  0  0  0  0  0  0  # atno 8009 bound_to 7997
  155.9292  140.1066  157.1135 H   0  0  0  0  0  0  0  0  0  0  0  0  # atno 8010 bound_to 7997
  139.9083  143.6525  152.2581 H   0  0  0  0  0  0  0  0  0  0  0  0  # atno 10167 bound_to 10162
  157.4255  130.7994  149.7555 H   0  0  0  0  0  0  0  0  0  0  0  0  # atno 10718 bound_to 10713
  154.4032  135.2755  155.2083 H   0  0  0  0  0  0  0  0  0  0  0  0  # atno 10763 bound_to 10752
  154.4100  135.6024  153.5951 H   0  0  0  0  0  0  0  0  0  0  0  0  # atno 10764 bound_to 10752
  152.9831  135.5947  154.4303 H   0  0  0  0  0  0  0  0  0  0  0  0  # atno 10765 bound_to 10752
  139.9352  134.9640  156.8388 H   0  0  0  0  0  0  0  0  0  0  0  0  # atno 11005 bound_to 11000
  146.1401  139.4456  143.0114 LP  0  0  0  0  0  0  0  0  0  0  0  0  # atno 17320 bound_to 7965
  145.7031  141.0130  143.1493 LP  0  0  0  0  0  0  0  0  0  0  0  0  # atno 17321 bound_to 7965
  139.6965  144.7640  151.1348 LP  0  0  0  0  0  0  0  0  0  0  0  0  # atno 17342 bound_to 10162
  140.7691  143.5517  150.9197 LP  0  0  0  0  0  0  0  0  0  0  0  0  # atno 17343 bound_to 10162
  155.9895  130.3951  150.3070 LP  0  0  0  0  0  0  0  0  0  0  0  0  # atno 17370 bound_to 10713
  157.1222  131.0250  151.3004 LP  0  0  0  0  0  0  0  0  0  0  0  0  # atno 17371 bound_to 10713
  140.6095  134.0096  155.7570 LP  0  0  0  0  0  0  0  0  0  0  0  0  # atno 17394 bound_to 11000
  141.0962  133.9840  157.3156 LP  0  0  0  0  0  0  0  0  0  0  0  0  # atno 17395 bound_to 11000

$$$$
