AV-unprocessed.smi:2708|AV-procd|sdf|10459|dock9
  -GOLD-   2272014503D 1   1.00000     0.00000
 Structure written by MMmdl.
 35 35  0  0  0  0  0  0  0  0  2 V2000
  149.3176  139.2394  154.5683 C   0  0  0  0  0  0  0  0  0  0  0  0
  150.5795  139.9613  155.0716 C   0  0  1  0  0  0  0  0  0  0  0  0
  150.5742  139.9229  156.5323 N   0  0  0  0  0  0  0  0  0  0  0  0
  150.9378  138.8762  157.2911 C   0  0  0  0  0  0  0  0  0  0  0  0
  151.3412  137.8073  156.8322 O   0  0  0  0  0  0  0  0  0  0  0  0
  150.8364  139.0690  158.8046 C   0  0  0  0  0  0  0  0  0  0  0  0
  151.6436  140.2620  159.2267 C   0  0  0  0  0  0  0  0  0  0  0  0
  152.8866  140.2509  159.8074 C   0  0  0  0  0  0  0  0  0  0  0  0
  153.4689  141.8608  160.1240 S   0  0  0  0  0  0  0  0  0  0  0  0
  151.9718  142.5143  159.4488 C   0  0  0  0  0  0  0  0  0  0  0  0
  151.6487  143.9831  159.3160 C   0  0  0  0  0  0  0  0  0  0  0  0
  151.6924  144.6527  160.7034 C   0  0  0  0  0  0  0  0  0  0  0  0
  150.2336  144.1961  158.7359 C   0  0  0  0  0  0  0  0  0  0  0  0
  152.6500  144.6555  158.3568 C   0  0  0  0  0  0  0  0  0  0  0  0
  151.1371  141.5522  159.0398 N   0  0  0  0  0  0  0  0  0  0  0  0
  151.8128  139.2275  154.5211 C   0  0  0  0  0  0  0  0  0  0  0  0
  152.9245  139.7665  154.7145 O   0  0  0  0  0  0  0  0  0  0  0  0
  151.6281  138.1482  153.9143 O   0  5  0  0  0  0  0  0  0  0  0  0
  150.5728  140.9951  154.7207 H   0  0  0  0  0  0  0  0  0  0  0  0
  149.2789  139.2243  153.4784 H   0  0  0  0  0  0  0  0  0  0  0  0
  148.4169  139.7452  154.9180 H   0  0  0  0  0  0  0  0  0  0  0  0
  149.2706  138.2067  154.9179 H   0  0  0  0  0  0  0  0  0  0  0  0
  150.2468  140.7542  157.0021 H   0  0  0  0  0  0  0  0  0  0  0  0
  149.7897  139.1863  159.0889 H   0  0  0  0  0  0  0  0  0  0  0  0
  151.1911  138.1672  159.3050 H   0  0  0  0  0  0  0  0  0  0  0  0
  153.4952  139.3954  160.0599 H   0  0  0  0  0  0  0  0  0  0  0  0
  151.4468  145.7133  160.6421 H   0  0  0  0  0  0  0  0  0  0  0  0
  152.6824  144.5741  161.1546 H   0  0  0  0  0  0  0  0  0  0  0  0
  150.9823  144.1889  161.3890 H   0  0  0  0  0  0  0  0  0  0  0  0
  149.4654  143.7623  159.3773 H   0  0  0  0  0  0  0  0  0  0  0  0
  150.1333  143.7491  157.7460 H   0  0  0  0  0  0  0  0  0  0  0  0
  150.0027  145.2572  158.6337 H   0  0  0  0  0  0  0  0  0  0  0  0
  152.4291  145.7159  158.2294 H   0  0  0  0  0  0  0  0  0  0  0  0
  152.6257  144.1922  157.3696 H   0  0  0  0  0  0  0  0  0  0  0  0
  153.6724  144.5811  158.7294 H   0  0  0  0  0  0  0  0  0  0  0  0
  1  2  1  0  0  0  0
  1 20  1  0  0  0  0
  1 21  1  0  0  0  0
  1 22  1  0  0  0  0
  2 19  1  0  0  0  0
  2  3  1  0  0  0  0
  2 16  1  0  0  0  0
  3  4  1  0  0  0  0
  3 23  1  0  0  0  0
  4  5  2  0  0  0  0
  4  6  1  0  0  0  0
  6  7  1  0  0  0  0
  6 24  1  0  0  0  0
  6 25  1  0  0  0  0
  7 15  1  0  0  0  0
  7  8  2  0  0  0  0
  8  9  1  0  0  0  0
  8 26  1  0  0  0  0
  9 10  1  0  0  0  0
 10 11  1  0  0  0  0
 10 15  2  0  0  0  0
 11 12  1  0  0  0  0
 11 13  1  0  0  0  0
 11 14  1  0  0  0  0
 12 27  1  0  0  0  0
 12 28  1  0  0  0  0
 12 29  1  0  0  0  0
 13 30  1  0  0  0  0
 13 31  1  0  0  0  0
 13 32  1  0  0  0  0
 14 33  1  0  0  0  0
 14 34  1  0  0  0  0
 14 35  1  0  0  0  0
 16 17  2  0  0  0  0
 16 18  1  0  0  0  0
M  CHG  1  18  -1
M  END
> <s_m_source_file>
AV-unprocessed.smi

> <i_m_source_file_index>
2708

> <i_lp_mmshare_version>
43012

> <i_f3d_flags>
0

> <s_epik_input>
Tz1DKFtPSF0pW0NASF0oW0NIM10pW05IXUMoPU8pW0NIMl1jMVtjSF1zYyhuMSlDKFtDSDNdKShbQ0gzXSlbQ0gzXQ==

> <s_epik_cmdline>
J2VwaWtfcHl0aG9uJywgJy1waCcsICc3LjAnLCAnLXRuJywgJzgnLCAnLW1hJywgJzIwMCcsICctbWV0YWxfYmluZGluZycsICctaW1hZScsICc8aW5maWxlLm1hZT4nLCAnLW9tYWUnLCAnPG91dGZpbGUubWFlPic=

> <r_lp_tautomer_probability>
1

> <r_epik_Ionization_Penalty>
0.000214174

> <r_epik_Ionization_Penalty_Charging>
0.000167453

> <r_epik_Ionization_Penalty_Neutral>
4.67216e-05

> <r_epik_State_Penalty>
-0

> <r_epik_Charging_Adjusted_Penalty>
0.000167453

> <i_epik_Tot_Q>
-1

> <i_epik_Tot_abs_Q>
1

> <r_epik_Metal_State_Penalty>
-0

> <b_epik_Metal_Only>
0

> <s_lp_Force_Field>
OPLS_2005

> <r_lp_Energy>
-5.21837

> <b_lp_Chiralities_Consistent>
1

> <s_lp_Variant>
AV-unprocessed.smi:2708-2

> <Gold.Version>
5.8.1

> <Gold.Id.Protein>
6NUR|6NUR_protein|mol2

> <Gold.PLP.Fitness>
48.4270

> <Gold.PLP.PLP>
-38.9129

> <Gold.PLP.part.hbond>
-2.8616

> <Gold.PLP.part.metal>
0.0000

> <Gold.PLP.part.buried>
-6.9173

> <Gold.PLP.part.nonpolar>
-30.9654

> <Gold.PLP.part.repulsive>
0.2218

> <Gold.PLP.ligand.clash>
0.0000

> <Gold.PLP.ligand.torsion>
0.7033

> <Gold.PLP.Chemscore.Hbond>
3.6320

> <Gold.PLP.Chemscore.CHOScore>
0.0000

> <Gold.PLP.Chemscore.Metal>
0.0000

> <Gold.Chemscore.Hbonds>
donor molecule, donor type, donor heavy atom, donor atom, acceptor molecule, acceptor atom, score
      P1  H  7997  8009       L1    17  2.00

> <Gold.PLP.Chemscore.Internal.Correction>
0.0247

> <Gold.Rescore>
     Score         DG    S(hbond)    S(metal)    S(lipo)     H(rot)  DE(clash)    DE(int)     intcor
     15.25     -17.38       1.86        0.00      97.80       2.25       0.05       2.08       ----

> <Gold.Chemscore.Fitness>
15.2490

> <Gold.Chemscore.DG>
-17.3819

> <Gold.Chemscore.ZeroCoef>
-5.4800

> <Gold.Chemscore.Hbond>
1.8605

> <Gold.Chemscore.Metal>
0.0000

> <Gold.Chemscore.Lipo>
97.7967

> <Gold.Chemscore.Internal_Hbond>
0.0000

> <Gold.Chemscore.DEClash>
0.0484

> <Gold.Chemscore.DEInternal>
2.0845

> <Gold.Chemscore.Rot>
2.2478

> <Gold.Chemscore.Internal.Correction>
   9.000000E+99

> <Gold.Chemscore.Hbonds>
donor molecule, donor type, donor heavy atom, donor atom, acceptor molecule, acceptor atom, score
      P1  H  7997  8009       L1    17  0.98

> <Gold.Chemscore.Hbond.Weighted>
-6.2141

> <Gold.Chemscore.Metal.Weighted>
-0.0000

> <Gold.Chemscore.Lipo.Weighted>
-11.4422

> <Gold.Chemscore.Internal_Hbond.Weighted>
0.0000

> <Gold.Chemscore.DEClash.Weighted>
0.0484

> <Gold.Chemscore.DEInternal.Weighted>
2.0845

> <Gold.Chemscore.Rot.Weighted>
5.7544

> <Gold.Chemscore.Internal.Correction.Weighted>
   9.000000E+99

> <Gold.Protein.RotatedTorsions>
[ 6907 6896 6895 6894 ] final  -57.93 input  -60.11 | X-H torsion
[ 7974 7965 7964 7962 ] final  -43.00 input  175.53 | X-H torsion
[ 8008 7997 7996 7995 ] final -134.69 input   59.86 | X-H torsion
[ 10167 10162 10161 10158 ] final  -13.82 input  -65.29 | X-H torsion
[ 10718 10713 10712 10709 ] final -126.70 input   66.30 | X-H torsion
[ 10763 10752 10751 10750 ] final  158.33 input  -60.55 | X-H torsion
[ 11005 11000 10999 10996 ] final  140.46 input  -57.11 | X-H torsion

> <Gold.Protein.ActiveResidues>
 VAL166  LYS551  ARG553  GLY616  TRP617  ASP618  TYR619  PRO620  LYS621  CYS622 
 ASP623  PHE694  ASN695  SER759  ASP760  ASP761  ALA762  ILE779  LEU786  VAL792 
 PHE793  MET794  SER795  GLU796  ALA797  LYS798  CYS799  TRP800  GLU811  SER814 

> <Gold.Protein.RotatedAtoms>
  150.8047  134.7163  159.6632 H   0  0  0  0  0  0  0  0  0  0  0  0  # atno 6907 bound_to 6896
  152.4165  134.6028  160.0014 H   0  0  0  0  0  0  0  0  0  0  0  0  # atno 6908 bound_to 6896
  151.6256  133.3299  159.3133 H   0  0  0  0  0  0  0  0  0  0  0  0  # atno 6909 bound_to 6896
  146.0061  140.7018  142.9247 H   0  0  0  0  0  0  0  0  0  0  0  0  # atno 7974 bound_to 7965
  155.3662  140.0485  157.3046 H   0  0  0  0  0  0  0  0  0  0  0  0  # atno 8008 bound_to 7997
  154.5153  140.2206  155.9041 H   0  0  0  0  0  0  0  0  0  0  0  0  # atno 8009 bound_to 7997
  156.1629  140.3112  155.8844 H   0  0  0  0  0  0  0  0  0  0  0  0  # atno 8010 bound_to 7997
  140.7189  143.5386  150.9436 H   0  0  0  0  0  0  0  0  0  0  0  0  # atno 10167 bound_to 10162
  156.1789  130.6718  151.0279 H   0  0  0  0  0  0  0  0  0  0  0  0  # atno 10718 bound_to 10713
  154.2144  135.2784  155.2947 H   0  0  0  0  0  0  0  0  0  0  0  0  # atno 10763 bound_to 10752
  154.5753  135.5606  153.7136 H   0  0  0  0  0  0  0  0  0  0  0  0  # atno 10764 bound_to 10752
  153.0056  135.6331  154.2283 H   0  0  0  0  0  0  0  0  0  0  0  0  # atno 10765 bound_to 10752
  140.0329  134.9343  157.0697 H   0  0  0  0  0  0  0  0  0  0  0  0  # atno 11005 bound_to 11000
  144.6936  140.3317  143.7215 LP  0  0  0  0  0  0  0  0  0  0  0  0  # atno 17320 bound_to 7965
  145.7414  139.1765  143.2374 LP  0  0  0  0  0  0  0  0  0  0  0  0  # atno 17321 bound_to 7965
  139.9108  143.6723  152.3115 LP  0  0  0  0  0  0  0  0  0  0  0  0  # atno 17342 bound_to 10162
  139.7105  144.7621  151.1120 LP  0  0  0  0  0  0  0  0  0  0  0  0  # atno 17343 bound_to 10162
  157.6855  131.0826  150.7255 LP  0  0  0  0  0  0  0  0  0  0  0  0  # atno 17370 bound_to 10713
  156.7312  130.4710  149.5499 LP  0  0  0  0  0  0  0  0  0  0  0  0  # atno 17371 bound_to 10713
  140.4196  134.1895  155.7164 LP  0  0  0  0  0  0  0  0  0  0  0  0  # atno 17394 bound_to 11000
  141.1841  133.8351  157.1152 LP  0  0  0  0  0  0  0  0  0  0  0  0  # atno 17395 bound_to 11000

$$$$
