AV-unprocessed.smi:69|AV-procd|sdf|654|dock6
  -GOLD-   2262016553D 1   1.00000     0.00000
 Structure written by MMmdl.
 32 34  0  0  0  0  0  0  0  0  1 V2000
  144.5901  141.3536  155.1659 N   0  0  0  0  0  0  0  0  0  0  0  0
  145.8602  141.0535  155.4713 C   0  0  0  0  0  0  0  0  0  0  0  0
  146.3631  141.5059  156.6434 N   0  0  0  0  0  0  0  0  0  0  0  0
  147.6276  141.2212  156.9693 C   0  0  0  0  0  0  0  0  0  0  0  0
  148.5292  140.5181  156.2795 N   0  0  0  0  0  0  0  0  0  0  0  0
  148.0239  140.0614  155.0963 C   0  0  0  0  0  0  0  0  0  0  0  0
  146.7001  140.2869  154.6241 C   0  0  0  0  0  0  0  0  0  0  0  0
  146.5261  139.6789  153.3892 N   0  0  0  0  0  0  0  0  0  0  0  0
  147.6843  139.1272  153.1476 C   0  0  0  0  0  0  0  0  0  0  0  0
  148.6465  139.3094  154.1170 N   0  0  0  0  0  0  0  0  0  0  0  0
  150.0479  138.7828  154.0877 C   0  0  1  0  0  0  0  0  0  0  0  0
  150.9406  139.8133  154.3775 O   0  0  0  0  0  0  0  0  0  0  0  0
  151.9702  139.3773  155.2690 C   0  0  1  0  0  0  0  0  0  0  0  0
  151.8611  140.2063  156.5664 C   0  0  0  0  0  0  0  0  0  0  0  0
  152.8314  139.7738  157.4962 O   0  0  0  0  0  0  0  0  0  0  0  0
  151.7267  137.8637  155.4358 C   0  0  1  0  0  0  0  0  0  0  0  0
  152.0610  137.3672  156.7181 O   0  0  0  0  0  0  0  0  0  0  0  0
  150.2427  137.7016  155.1484 C   0  0  2  0  0  0  0  0  0  0  0  0
  150.0044  136.4059  154.6330 O   0  0  0  0  0  0  0  0  0  0  0  0
  150.2101  138.4368  153.0652 H   0  0  0  0  0  0  0  0  0  0  0  0
  152.9487  139.5391  154.8142 H   0  0  0  0  0  0  0  0  0  0  0  0
  152.3130  137.3322  154.6839 H   0  0  0  0  0  0  0  0  0  0  0  0
  149.6319  137.9204  156.0263 H   0  0  0  0  0  0  0  0  0  0  0  0
  144.1920  141.0287  154.2966 H   0  0  0  0  0  0  0  0  0  0  0  0
  144.0354  141.9054  155.8038 H   0  0  0  0  0  0  0  0  0  0  0  0
  147.9659  141.6125  157.9172 H   0  0  0  0  0  0  0  0  0  0  0  0
  147.8718  138.5630  152.2455 H   0  0  0  0  0  0  0  0  0  0  0  0
  151.9557  141.2744  156.3754 H   0  0  0  0  0  0  0  0  0  0  0  0
  150.8940  140.0544  157.0454 H   0  0  0  0  0  0  0  0  0  0  0  0
  152.8056  140.3481  158.2461 H   0  0  0  0  0  0  0  0  0  0  0  0
  151.5561  136.5846  156.8793 H   0  0  0  0  0  0  0  0  0  0  0  0
  149.6075  136.4895  153.7798 H   0  0  0  0  0  0  0  0  0  0  0  0
  1  2  1  0  0  0  0
  1 24  1  0  0  0  0
  1 25  1  0  0  0  0
  2  7  1  0  0  0  0
  2  3  2  0  0  0  0
  3  4  1  0  0  0  0
  4  5  2  0  0  0  0
  4 26  1  0  0  0  0
  5  6  1  0  0  0  0
  6 10  1  0  0  0  0
  6  7  2  0  0  0  0
  7  8  1  0  0  0  0
  8  9  2  0  0  0  0
  9 10  1  0  0  0  0
  9 27  1  0  0  0  0
 10 11  1  0  0  0  0
 11 20  1  0  0  0  0
 11 18  1  0  0  0  0
 11 12  1  0  0  0  0
 12 13  1  0  0  0  0
 13 21  1  0  0  0  0
 13 14  1  0  0  0  0
 13 16  1  0  0  0  0
 14 15  1  0  0  0  0
 14 28  1  0  0  0  0
 14 29  1  0  0  0  0
 15 30  1  0  0  0  0
 16 22  1  0  0  0  0
 16 17  1  0  0  0  0
 16 18  1  0  0  0  0
 17 31  1  0  0  0  0
 18 23  1  0  0  0  0
 18 19  1  0  0  0  0
 19 32  1  0  0  0  0
M  END
> <s_m_source_file>
AV-unprocessed.smi

> <i_m_source_file_index>
69

> <i_lp_mmshare_version>
43012

> <i_f3d_flags>
0

> <s_epik_input>
bjFbY0hdbmMoW05IMl0pYyhjMTIpbltjSF1uMltDQEBIXTNPW0NASF0oW0NIMl1bT0hdKVtDQEBIXShbT0hdKVtDQEhdM1tPSF0=

> <s_epik_cmdline>
J2VwaWtfcHl0aG9uJywgJy1waCcsICc3LjAnLCAnLXRuJywgJzgnLCAnLW1hJywgJzIwMCcsICctbWV0YWxfYmluZGluZycsICctaW1hZScsICc8aW5maWxlLm1hZT4nLCAnLW9tYWUnLCAnPG91dGZpbGUubWFlPic=

> <r_lp_tautomer_probability>
1

> <r_epik_Ionization_Penalty>
0.000428445

> <r_epik_Ionization_Penalty_Charging>
0

> <r_epik_Ionization_Penalty_Neutral>
0.000428445

> <r_epik_State_Penalty>
-0

> <r_epik_Charging_Adjusted_Penalty>
0

> <i_epik_Tot_Q>
0

> <i_epik_Tot_abs_Q>
0

> <r_epik_Metal_State_Penalty>
-0

> <b_epik_Metal_Only>
0

> <s_epik_Chemistry_Notes>
This compound contains an acetal/aminal-like group ( X-CH(R)-Y where X, Y are N, S, or O) that may be acid/base labile, releasing an aldehyde.

> <s_lp_Force_Field>
OPLS_2005

> <r_lp_Energy>
41.5942

> <b_lp_Chiralities_Consistent>
1

> <s_lp_Variant>
AV-unprocessed.smi:69-12

> <Gold.Version>
5.8.1

> <Gold.Id.Protein>
6NUR|6NUR_protein|mol2

> <Gold.PLP.Fitness>
37.4399

> <Gold.PLP.PLP>
-21.4287

> <Gold.PLP.part.hbond>
-4.1035

> <Gold.PLP.part.metal>
0.0000

> <Gold.PLP.part.buried>
-0.9532

> <Gold.PLP.part.nonpolar>
-16.6433

> <Gold.PLP.part.repulsive>
0.5383

> <Gold.PLP.ligand.clash>
0.0000

> <Gold.PLP.ligand.torsion>
0.1676

> <Gold.PLP.Chemscore.Hbond>
4.0000

> <Gold.PLP.Chemscore.CHOScore>
1.4465

> <Gold.PLP.Chemscore.Metal>
0.0000

> <Gold.Chemscore.Hbonds>
donor molecule, donor type, donor heavy atom, donor atom, acceptor molecule, acceptor atom, score
      L1  H     1    24       P1 10175  1.00
      L1  H    19    32       P1  7948  1.00
      P1  H  7989  7998       L1    12  1.00
      P1  H  7997  8010       L1    15  1.00
      L1  C     9    27       P1  7948  0.90
      L1  C     9    27       P1  7957  0.42

> <Gold.PLP.Chemscore.Internal.Correction>
0.0070

> <Gold.Rescore>
     Score         DG    S(hbond)    S(metal)    S(lipo)     H(rot)  DE(clash)    DE(int)     intcor
      7.51      -8.14       2.89        0.00      28.27       4.03       0.50       0.13       ----

> <Gold.Chemscore.Fitness>
7.5122

> <Gold.Chemscore.DG>
-8.1401

> <Gold.Chemscore.ZeroCoef>
-5.4800

> <Gold.Chemscore.Hbond>
2.8932

> <Gold.Chemscore.Metal>
0.0000

> <Gold.Chemscore.Lipo>
28.2713

> <Gold.Chemscore.Internal_Hbond>
0.0000

> <Gold.Chemscore.DEClash>
0.5027

> <Gold.Chemscore.DEInternal>
0.1251

> <Gold.Chemscore.Rot>
4.0277

> <Gold.Chemscore.Internal.Correction>
   9.000000E+99

> <Gold.Chemscore.Hbonds>
donor molecule, donor type, donor heavy atom, donor atom, acceptor molecule, acceptor atom, score
      L1  H     1    24       P1 10175  0.85
      L1  H    19    32       P1  7948  0.62
      P1  H  7989  7998       L1    12  0.42
      P1  H  7997  8010       L1    15  0.29

> <Gold.Chemscore.Hbond.Weighted>
-9.6633

> <Gold.Chemscore.Metal.Weighted>
-0.0000

> <Gold.Chemscore.Lipo.Weighted>
-3.3077

> <Gold.Chemscore.Internal_Hbond.Weighted>
0.0000

> <Gold.Chemscore.DEClash.Weighted>
0.5027

> <Gold.Chemscore.DEInternal.Weighted>
0.1251

> <Gold.Chemscore.Rot.Weighted>
10.3110

> <Gold.Chemscore.Internal.Correction.Weighted>
   9.000000E+99

> <Gold.Protein.RotatedTorsions>
[ 6907 6896 6895 6894 ] final  116.94 input  -60.11 | X-H torsion
[ 7974 7965 7964 7962 ] final  -60.31 input  175.53 | X-H torsion
[ 8008 7997 7996 7995 ] final   47.13 input   59.86 | X-H torsion
[ 10167 10162 10161 10158 ] final -172.96 input  -65.29 | X-H torsion
[ 10718 10713 10712 10709 ] final -168.75 input   66.30 | X-H torsion
[ 10763 10752 10751 10750 ] final  135.87 input  -60.55 | X-H torsion
[ 11005 11000 10999 10996 ] final  179.39 input  -57.11 | X-H torsion

> <Gold.Protein.ActiveResidues>
 VAL166  LYS551  ARG553  GLY616  TRP617  ASP618  TYR619  PRO620  LYS621  CYS622 
 ASP623  PHE694  ASN695  SER759  ASP760  ASP761  ALA762  ILE779  LEU786  VAL792 
 PHE793  MET794  SER795  GLU796  ALA797  LYS798  CYS799  TRP800  GLU811  SER814 

> <Gold.Protein.RotatedAtoms>
  152.4645  133.7892  159.6892 H   0  0  0  0  0  0  0  0  0  0  0  0  # atno 6907 bound_to 6896
  150.8603  133.7644  159.3001 H   0  0  0  0  0  0  0  0  0  0  0  0  # atno 6908 bound_to 6896
  151.5212  135.1070  159.9931 H   0  0  0  0  0  0  0  0  0  0  0  0  # atno 6909 bound_to 6896
  145.8170  140.8564  143.0152 H   0  0  0  0  0  0  0  0  0  0  0  0  # atno 7974 bound_to 7965
  155.3640  140.3420  155.4241 H   0  0  0  0  0  0  0  0  0  0  0  0  # atno 8008 bound_to 7997
  156.1698  140.1628  156.8501 H   0  0  0  0  0  0  0  0  0  0  0  0  # atno 8009 bound_to 7997
  154.5222  140.0764  156.8175 H   0  0  0  0  0  0  0  0  0  0  0  0  # atno 8010 bound_to 7997
  139.5715  144.1630  152.1391 H   0  0  0  0  0  0  0  0  0  0  0  0  # atno 10167 bound_to 10162
  156.7015  130.9198  151.3080 H   0  0  0  0  0  0  0  0  0  0  0  0  # atno 10718 bound_to 10713
  153.8471  135.3084  155.3430 H   0  0  0  0  0  0  0  0  0  0  0  0  # atno 10763 bound_to 10752
  154.7907  135.4784  154.0050 H   0  0  0  0  0  0  0  0  0  0  0  0  # atno 10764 bound_to 10752
  153.1540  135.6848  153.8932 H   0  0  0  0  0  0  0  0  0  0  0  0  # atno 10765 bound_to 10752
  140.4056  134.6738  157.4586 H   0  0  0  0  0  0  0  0  0  0  0  0  # atno 11005 bound_to 11000
  144.6751  140.0478  143.7479 LP  0  0  0  0  0  0  0  0  0  0  0  0  # atno 17320 bound_to 7965
  145.9716  139.2874  143.1095 LP  0  0  0  0  0  0  0  0  0  0  0  0  # atno 17321 bound_to 7965
  140.1164  144.5412  150.6891 LP  0  0  0  0  0  0  0  0  0  0  0  0  # atno 17342 bound_to 10162
  140.6999  143.2428  151.4893 LP  0  0  0  0  0  0  0  0  0  0  0  0  # atno 17343 bound_to 10162
  157.6971  130.9293  150.0676 LP  0  0  0  0  0  0  0  0  0  0  0  0  # atno 17370 bound_to 10713
  156.1725  130.3647  149.9145 LP  0  0  0  0  0  0  0  0  0  0  0  0  # atno 17371 bound_to 10713
  140.0304  134.6414  155.9114 LP  0  0  0  0  0  0  0  0  0  0  0  0  # atno 17394 bound_to 11000
  141.1840  133.6552  156.5141 LP  0  0  0  0  0  0  0  0  0  0  0  0  # atno 17395 bound_to 11000

$$$$
