AV-unprocessed.smi:3240|AV-procd|sdf|12382|dock1
  -GOLD-   2272018243D 1   1.00000     0.00000
 Structure written by MMmdl.
 44 45  0  0  0  0  0  0  0  0  2 V2000
  153.6436  142.7958  163.3589 C   0  0  0  0  0  0  0  0  0  0  0  0
  152.9601  142.9585  162.0317 C   0  0  0  0  0  0  0  0  0  0  0  0
  152.2394  144.0881  161.5503 C   0  0  0  0  0  0  0  0  0  0  0  0
  151.7556  143.9074  160.3320 N   0  0  0  0  0  0  0  0  0  0  0  0
  152.1474  142.6611  159.9941 N   0  0  0  0  0  0  0  0  0  0  0  0
  151.7912  142.1130  158.6981 C   0  0  0  0  0  0  0  0  0  0  0  0
  151.0454  143.1393  157.8097 C   0  0  1  0  0  0  0  0  0  0  0  0
  151.9115  144.3797  157.5471 C   0  0  0  0  0  0  0  0  0  0  0  0
  150.6385  142.5479  156.5152 N   0  3  0  0  0  0  0  0  0  0  0  0
  149.7879  141.3409  156.6060 C   0  0  0  0  0  0  0  0  0  0  0  0
  149.5921  140.6556  155.2319 C   0  0  0  0  0  0  0  0  0  0  0  0
  150.8722  140.2534  154.7819 O   0  0  0  0  0  0  0  0  0  0  0  0
  148.6811  139.4043  155.2915 C   0  0  0  0  0  0  0  0  0  0  0  0
  147.2069  139.7641  155.5482 C   0  0  0  0  0  0  0  0  0  0  0  0
  146.6854  140.7566  154.4972 C   0  0  0  0  0  0  0  0  0  0  0  0
  147.5672  142.0129  154.4236 C   0  0  0  0  0  0  0  0  0  0  0  0
  149.0431  141.6479  154.1796 C   0  0  0  0  0  0  0  0  0  0  0  0
  152.8770  142.0659  161.0010 C   0  0  0  0  0  0  0  0  0  0  0  0
  153.5940  143.7066  163.9560 H   0  0  0  0  0  0  0  0  0  0  0  0
  154.6985  142.5471  163.2402 H   0  0  0  0  0  0  0  0  0  0  0  0
  153.1890  142.0004  163.9496 H   0  0  0  0  0  0  0  0  0  0  0  0
  152.0543  145.0287  162.0481 H   0  0  0  0  0  0  0  0  0  0  0  0
  152.7139  141.7844  158.2178 H   0  0  0  0  0  0  0  0  0  0  0  0
  151.2021  141.2063  158.8482 H   0  0  0  0  0  0  0  0  0  0  0  0
  150.1419  143.4851  158.3160 H   0  0  0  0  0  0  0  0  0  0  0  0
  152.1875  144.8697  158.4816 H   0  0  0  0  0  0  0  0  0  0  0  0
  151.3781  145.1117  156.9396 H   0  0  0  0  0  0  0  0  0  0  0  0
  152.8320  144.1195  157.0231 H   0  0  0  0  0  0  0  0  0  0  0  0
  150.1078  143.2429  156.0094 H   0  0  0  0  0  0  0  0  0  0  0  0
  150.2407  140.6440  157.3074 H   0  0  0  0  0  0  0  0  0  0  0  0
  148.8205  141.6217  157.0255 H   0  0  0  0  0  0  0  0  0  0  0  0
  151.2754  139.7252  155.4546 H   0  0  0  0  0  0  0  0  0  0  0  0
  148.7425  138.8678  154.3434 H   0  0  0  0  0  0  0  0  0  0  0  0
  149.0283  138.7020  156.0498 H   0  0  0  0  0  0  0  0  0  0  0  0
  146.5987  138.8591  155.5317 H   0  0  0  0  0  0  0  0  0  0  0  0
  147.0923  140.1884  156.5461 H   0  0  0  0  0  0  0  0  0  0  0  0
  146.6620  140.2720  153.5202 H   0  0  0  0  0  0  0  0  0  0  0  0
  145.6569  141.0366  154.7269 H   0  0  0  0  0  0  0  0  0  0  0  0
  147.2127  142.6642  153.6241 H   0  0  0  0  0  0  0  0  0  0  0  0
  147.4687  142.5871  155.3450 H   0  0  0  0  0  0  0  0  0  0  0  0
  149.6486  142.5549  154.1578 H   0  0  0  0  0  0  0  0  0  0  0  0
  149.1267  141.2075  153.1844 H   0  0  0  0  0  0  0  0  0  0  0  0
  153.2729  141.0656  160.9028 H   0  0  0  0  0  0  0  0  0  0  0  0
  151.4666  142.3282  155.9808 H   0  0  0  0  0  0  0  0  0  0  0  0
  1  2  1  0  0  0  0
  1 19  1  0  0  0  0
  1 20  1  0  0  0  0
  1 21  1  0  0  0  0
  2 18  2  0  0  0  0
  2  3  1  0  0  0  0
  3  4  2  0  0  0  0
  3 22  1  0  0  0  0
  4  5  1  0  0  0  0
  5  6  1  0  0  0  0
  5 18  1  0  0  0  0
  6  7  1  0  0  0  0
  6 23  1  0  0  0  0
  6 24  1  0  0  0  0
  7  8  1  0  0  0  0
  7  9  1  0  0  0  0
  7 25  1  0  0  0  0
  8 26  1  0  0  0  0
  8 27  1  0  0  0  0
  8 28  1  0  0  0  0
  9 10  1  0  0  0  0
  9 29  1  0  0  0  0
  9 44  1  0  0  0  0
 10 11  1  0  0  0  0
 10 30  1  0  0  0  0
 10 31  1  0  0  0  0
 11 17  1  0  0  0  0
 11 12  1  0  0  0  0
 11 13  1  0  0  0  0
 12 32  1  0  0  0  0
 13 14  1  0  0  0  0
 13 33  1  0  0  0  0
 13 34  1  0  0  0  0
 14 15  1  0  0  0  0
 14 35  1  0  0  0  0
 14 36  1  0  0  0  0
 15 16  1  0  0  0  0
 15 37  1  0  0  0  0
 15 38  1  0  0  0  0
 16 17  1  0  0  0  0
 16 39  1  0  0  0  0
 16 40  1  0  0  0  0
 17 41  1  0  0  0  0
 17 42  1  0  0  0  0
 18 43  1  0  0  0  0
M  CHG  1   9   1
M  END
> <s_m_source_file>
AV-unprocessed.smi

> <i_m_source_file_index>
3240

> <i_lp_mmshare_version>
43012

> <i_f3d_flags>
0

> <s_epik_input>
W0NIM11jMVtjSF1ubihbY0hdMSlbQ0gyXVtDQEhdKFtDSDNdKVtOSF1bQ0gyXUMyKFtPSF0pW0NIMl1bQ0gyXVtDSDJdW0NIMl1bQ0gyXTI=

> <s_epik_cmdline>
J2VwaWtfcHl0aG9uJywgJy1waCcsICc3LjAnLCAnLXRuJywgJzgnLCAnLW1hJywgJzIwMCcsICctbWV0YWxfYmluZGluZycsICctaW1hZScsICc8aW5maWxlLm1hZT4nLCAnLW9tYWUnLCAnPG91dGZpbGUubWFlPic=

> <r_lp_tautomer_probability>
1

> <r_epik_Ionization_Penalty>
0.0111573

> <r_epik_Ionization_Penalty_Charging>
0.0111472

> <r_epik_Ionization_Penalty_Neutral>
1.01652e-05

> <r_epik_State_Penalty>
0.00856328

> <r_epik_Charging_Adjusted_Penalty>
0.0197104

> <i_epik_Tot_Q>
1

> <i_epik_Tot_abs_Q>
1

> <r_epik_Metal_State_Penalty>
0.00856448

> <b_epik_Metal_Only>
0

> <s_lp_Force_Field>
OPLS_2005

> <r_lp_Energy>
18.8853

> <b_lp_Chiralities_Consistent>
1

> <s_lp_Variant>
AV-unprocessed.smi:3240-2

> <Gold.Version>
5.8.1

> <Gold.Id.Protein>
6NUR|6NUR_protein|mol2

> <Gold.PLP.Fitness>
52.0234

> <Gold.PLP.PLP>
-43.0892

> <Gold.PLP.part.hbond>
-2.0000

> <Gold.PLP.part.metal>
0.0000

> <Gold.PLP.part.buried>
-3.4132

> <Gold.PLP.part.nonpolar>
-37.0536

> <Gold.PLP.part.repulsive>
0.1508

> <Gold.PLP.ligand.clash>
0.0000

> <Gold.PLP.ligand.torsion>
0.0494

> <Gold.PLP.Chemscore.Hbond>
3.0000

> <Gold.PLP.Chemscore.CHOScore>
0.0000

> <Gold.PLP.Chemscore.Metal>
0.0000

> <Gold.Chemscore.Hbonds>
donor molecule, donor type, donor heavy atom, donor atom, acceptor molecule, acceptor atom, score
      L1  H     9    29       P1  8028  2.00
      P1  H  7989  7998       L1    12  1.00

> <Gold.PLP.Chemscore.Internal.Correction>
0.0331

> <Gold.Rescore>
     Score         DG    S(hbond)    S(metal)    S(lipo)     H(rot)  DE(clash)    DE(int)     intcor
     18.35     -20.18       1.96        0.00     115.98       2.12       0.40       1.42       ----

> <Gold.Chemscore.Fitness>
18.3550

> <Gold.Chemscore.DG>
-20.1845

> <Gold.Chemscore.ZeroCoef>
-5.4800

> <Gold.Chemscore.Hbond>
1.9641

> <Gold.Chemscore.Metal>
0.0000

> <Gold.Chemscore.Lipo>
115.9826

> <Gold.Chemscore.Internal_Hbond>
0.0000

> <Gold.Chemscore.DEClash>
0.4046

> <Gold.Chemscore.DEInternal>
1.4249

> <Gold.Chemscore.Rot>
2.1193

> <Gold.Chemscore.Internal.Correction>
   9.000000E+99

> <Gold.Chemscore.Hbonds>
donor molecule, donor type, donor heavy atom, donor atom, acceptor molecule, acceptor atom, score
      L1  H     9    29       P1  8028  0.99
      P1  H  7989  7998       L1    12  0.98

> <Gold.Chemscore.Hbond.Weighted>
-6.5600

> <Gold.Chemscore.Metal.Weighted>
-0.0000

> <Gold.Chemscore.Lipo.Weighted>
-13.5700

> <Gold.Chemscore.Internal_Hbond.Weighted>
0.0000

> <Gold.Chemscore.DEClash.Weighted>
0.4046

> <Gold.Chemscore.DEInternal.Weighted>
1.4249

> <Gold.Chemscore.Rot.Weighted>
5.4254

> <Gold.Chemscore.Internal.Correction.Weighted>
   9.000000E+99

> <Gold.Protein.RotatedTorsions>
[ 6907 6896 6895 6894 ] final -112.73 input  -60.11 | X-H torsion
[ 7974 7965 7964 7962 ] final   69.77 input  175.53 | X-H torsion
[ 8008 7997 7996 7995 ] final  -82.22 input   59.86 | X-H torsion
[ 10167 10162 10161 10158 ] final   -5.27 input  -65.29 | X-H torsion
[ 10718 10713 10712 10709 ] final  -71.60 input   66.30 | X-H torsion
[ 10763 10752 10751 10750 ] final  -20.88 input  -60.55 | X-H torsion
[ 11005 11000 10999 10996 ] final   80.79 input  -57.11 | X-H torsion

> <Gold.Protein.ActiveResidues>
 VAL166  LYS551  ARG553  GLY616  TRP617  ASP618  TYR619  PRO620  LYS621  CYS622 
 ASP623  PHE694  ASN695  SER759  ASP760  ASP761  ALA762  ILE779  LEU786  VAL792 
 PHE793  MET794  SER795  GLU796  ALA797  LYS798  CYS799  TRP800  GLU811  SER814 

> <Gold.Protein.RotatedAtoms>
  150.7779  133.9047  159.3351 H   0  0  0  0  0  0  0  0  0  0  0  0  # atno 6907 bound_to 6896
  151.6917  135.0943  160.0244 H   0  0  0  0  0  0  0  0  0  0  0  0  # atno 6908 bound_to 6896
  152.3821  133.6522  159.6205 H   0  0  0  0  0  0  0  0  0  0  0  0  # atno 6909 bound_to 6896
  145.7863  139.2912  143.1236 H   0  0  0  0  0  0  0  0  0  0  0  0  # atno 7974 bound_to 7965
  154.6064  140.0636  156.9436 H   0  0  0  0  0  0  0  0  0  0  0  0  # atno 8008 bound_to 7997
  155.2047  140.3318  155.4319 H   0  0  0  0  0  0  0  0  0  0  0  0  # atno 8009 bound_to 7997
  156.2350  140.1858  156.7127 H   0  0  0  0  0  0  0  0  0  0  0  0  # atno 8010 bound_to 7997
  140.6957  143.6327  150.8507 H   0  0  0  0  0  0  0  0  0  0  0  0  # atno 10167 bound_to 10162
  156.0356  130.4355  150.2468 H   0  0  0  0  0  0  0  0  0  0  0  0  # atno 10718 bound_to 10713
  153.6273  135.6990  153.5288 H   0  0  0  0  0  0  0  0  0  0  0  0  # atno 10763 bound_to 10752
  153.2888  135.4163  155.1147 H   0  0  0  0  0  0  0  0  0  0  0  0  # atno 10764 bound_to 10752
  154.8530  135.3620  154.5815 H   0  0  0  0  0  0  0  0  0  0  0  0  # atno 10765 bound_to 10752
  139.9121  134.7947  156.1955 H   0  0  0  0  0  0  0  0  0  0  0  0  # atno 11005 bound_to 11000
  146.0022  140.8510  143.0012 LP  0  0  0  0  0  0  0  0  0  0  0  0  # atno 17320 bound_to 7965
  144.6788  140.2369  143.7348 LP  0  0  0  0  0  0  0  0  0  0  0  0  # atno 17321 bound_to 7965
  140.0045  143.5708  152.2863 LP  0  0  0  0  0  0  0  0  0  0  0  0  # atno 17342 bound_to 10162
  139.6410  144.7654  151.2340 LP  0  0  0  0  0  0  0  0  0  0  0  0  # atno 17343 bound_to 10162
  157.0568  131.0078  151.3236 LP  0  0  0  0  0  0  0  0  0  0  0  0  # atno 17370 bound_to 10713
  157.5100  130.7932  149.7695 LP  0  0  0  0  0  0  0  0  0  0  0  0  # atno 17371 bound_to 10713
  141.0557  133.6866  156.1856 LP  0  0  0  0  0  0  0  0  0  0  0  0  # atno 17394 bound_to 11000
  140.6741  134.4837  157.5588 LP  0  0  0  0  0  0  0  0  0  0  0  0  # atno 17395 bound_to 11000

$$$$
