AV-unprocessed.smi:2721|AV-procd|sdf|10503|dock8
  -GOLD-   2272014543D 1   1.00000     0.00000
 Structure written by MMmdl.
 29 30  0  0  0  0  0  0  0  0  2 V2000
  148.6959  141.0443  154.2810 C   0  0  0  0  0  0  0  0  0  0  0  0
  149.8175  141.0412  155.1956 N   0  0  0  0  0  0  0  0  0  0  0  0
  150.0870  141.9109  156.2302 C   0  0  0  0  0  0  0  0  0  0  0  0
  151.2557  141.5064  156.8129 C   0  0  0  0  0  0  0  0  0  0  0  0
  152.0000  142.1249  157.9673 C   0  0  2  0  0  0  0  0  0  0  0  0
  151.9901  141.2358  159.0828 O   0  0  0  0  0  0  0  0  0  0  0  0
  152.7535  141.6906  160.1950 C   0  0  0  0  0  0  0  0  0  0  0  0
  152.1566  142.9992  160.7308 C   0  0  0  0  0  0  0  0  0  0  0  0
  152.0978  144.0477  159.6163 C   0  0  0  0  0  0  0  0  0  0  0  0
  151.3681  143.4737  158.3922 C   0  0  1  0  0  0  0  0  0  0  0  0
  151.3805  144.4507  157.2867 N   0  3  0  0  0  0  0  0  0  0  0  0
  151.6264  140.3636  156.0476 C   0  0  0  0  0  0  0  0  0  0  0  0
  150.7658  140.0890  155.0820 N   0  0  0  0  0  0  0  0  0  0  0  0
  153.0403  142.2920  157.6812 H   0  0  0  0  0  0  0  0  0  0  0  0
  150.3242  143.3033  158.6604 H   0  0  0  0  0  0  0  0  0  0  0  0
  148.1415  141.9787  154.3728 H   0  0  0  0  0  0  0  0  0  0  0  0
  148.0308  140.2120  154.5127 H   0  0  0  0  0  0  0  0  0  0  0  0
  149.0517  140.9441  153.2550 H   0  0  0  0  0  0  0  0  0  0  0  0
  149.4331  142.7385  156.4641 H   0  0  0  0  0  0  0  0  0  0  0  0
  152.7349  140.9251  160.9708 H   0  0  0  0  0  0  0  0  0  0  0  0
  153.7969  141.8252  159.9057 H   0  0  0  0  0  0  0  0  0  0  0  0
  151.1528  142.8123  161.1148 H   0  0  0  0  0  0  0  0  0  0  0  0
  152.7484  143.3699  161.5683 H   0  0  0  0  0  0  0  0  0  0  0  0
  151.5964  144.9472  159.9757 H   0  0  0  0  0  0  0  0  0  0  0  0
  153.1123  144.3418  159.3424 H   0  0  0  0  0  0  0  0  0  0  0  0
  152.2066  144.3139  156.7218 H   0  0  0  0  0  0  0  0  0  0  0  0
  151.3822  145.3876  157.6639 H   0  0  0  0  0  0  0  0  0  0  0  0
  152.4946  139.7318  156.1626 H   0  0  0  0  0  0  0  0  0  0  0  0
  150.5574  144.3210  156.7154 H   0  0  0  0  0  0  0  0  0  0  0  0
  1  2  1  0  0  0  0
  1 16  1  0  0  0  0
  1 17  1  0  0  0  0
  1 18  1  0  0  0  0
  2 13  1  0  0  0  0
  2  3  1  0  0  0  0
  3  4  2  0  0  0  0
  3 19  1  0  0  0  0
  4  5  1  0  0  0  0
  4 12  1  0  0  0  0
  5 14  1  0  0  0  0
  5 10  1  0  0  0  0
  5  6  1  0  0  0  0
  6  7  1  0  0  0  0
  7  8  1  0  0  0  0
  7 20  1  0  0  0  0
  7 21  1  0  0  0  0
  8  9  1  0  0  0  0
  8 22  1  0  0  0  0
  8 23  1  0  0  0  0
  9 10  1  0  0  0  0
  9 24  1  0  0  0  0
  9 25  1  0  0  0  0
 10 15  1  0  0  0  0
 10 11  1  0  0  0  0
 11 26  1  0  0  0  0
 11 27  1  0  0  0  0
 11 29  1  0  0  0  0
 12 13  2  0  0  0  0
 12 28  1  0  0  0  0
M  CHG  1  11   1
M  END
> <s_m_source_file>
AV-unprocessed.smi

> <i_m_source_file_index>
2721

> <i_lp_mmshare_version>
43012

> <i_f3d_flags>
0

> <s_epik_input>
W0NIM11uMVtjSF1jKFtjSF1uMSlbQ0BIXTJPW0NIMl1bQ0gyXVtDSDJdW0NAQEhdMltOSDJd

> <s_epik_cmdline>
J2VwaWtfcHl0aG9uJywgJy1waCcsICc3LjAnLCAnLXRuJywgJzgnLCAnLW1hJywgJzIwMCcsICctbWV0YWxfYmluZGluZycsICctaW1hZScsICc8aW5maWxlLm1hZT4nLCAnLW9tYWUnLCAnPG91dGZpbGUubWFlPic=

> <r_lp_tautomer_probability>
1

> <r_epik_Ionization_Penalty>
0.0061467

> <r_epik_Ionization_Penalty_Charging>
0.00611941

> <r_epik_Ionization_Penalty_Neutral>
2.72888e-05

> <r_epik_State_Penalty>
0.00451057

> <r_epik_Charging_Adjusted_Penalty>
0.01063

> <i_epik_Tot_Q>
1

> <i_epik_Tot_abs_Q>
1

> <r_epik_Metal_State_Penalty>
-0

> <b_epik_Metal_Only>
0

> <s_lp_Force_Field>
OPLS_2005

> <r_lp_Energy>
11.0235

> <b_lp_Chiralities_Consistent>
1

> <s_lp_Variant>
AV-unprocessed.smi:2721-4

> <Gold.Version>
5.8.1

> <Gold.Id.Protein>
6NUR|6NUR_protein|mol2

> <Gold.PLP.Fitness>
41.4295

> <Gold.PLP.PLP>
-29.6218

> <Gold.PLP.part.hbond>
-2.0000

> <Gold.PLP.part.metal>
0.0000

> <Gold.PLP.part.buried>
-2.7959

> <Gold.PLP.part.nonpolar>
-24.6602

> <Gold.PLP.part.repulsive>
0.0987

> <Gold.PLP.ligand.clash>
0.0000

> <Gold.PLP.ligand.torsion>
0.0980

> <Gold.PLP.Chemscore.Hbond>
3.0000

> <Gold.PLP.Chemscore.CHOScore>
1.0000

> <Gold.PLP.Chemscore.Metal>
0.0000

> <Gold.Chemscore.Hbonds>
donor molecule, donor type, donor heavy atom, donor atom, acceptor molecule, acceptor atom, score
      L1  H    11    29       P1  8028  2.00
      P1  H  7989  7998       L1    13  0.75
      L1  C     3    19       P1  8028  1.00

> <Gold.PLP.Chemscore.Internal.Correction>
0.0037

> <Gold.Rescore>
     Score         DG    S(hbond)    S(metal)    S(lipo)     H(rot)  DE(clash)    DE(int)     intcor
     16.17     -16.53       1.32        0.00      78.77       1.00       0.02       0.34       ----

> <Gold.Chemscore.Fitness>
16.1726

> <Gold.Chemscore.DG>
-16.5289

> <Gold.Chemscore.ZeroCoef>
-5.4800

> <Gold.Chemscore.Hbond>
1.3152

> <Gold.Chemscore.Metal>
0.0000

> <Gold.Chemscore.Lipo>
78.7688

> <Gold.Chemscore.Internal_Hbond>
0.0000

> <Gold.Chemscore.DEClash>
0.0155

> <Gold.Chemscore.DEInternal>
0.3407

> <Gold.Chemscore.Rot>
1.0000

> <Gold.Chemscore.Internal.Correction>
   9.000000E+99

> <Gold.Chemscore.Hbonds>
donor molecule, donor type, donor heavy atom, donor atom, acceptor molecule, acceptor atom, score
      L1  H    11    29       P1  8028  0.96
      P1  H  7989  7998       L1    13  0.03

> <Gold.Chemscore.Hbond.Weighted>
-4.3929

> <Gold.Chemscore.Metal.Weighted>
-0.0000

> <Gold.Chemscore.Lipo.Weighted>
-9.2160

> <Gold.Chemscore.Internal_Hbond.Weighted>
0.0000

> <Gold.Chemscore.DEClash.Weighted>
0.0155

> <Gold.Chemscore.DEInternal.Weighted>
0.3407

> <Gold.Chemscore.Rot.Weighted>
2.5600

> <Gold.Chemscore.Internal.Correction.Weighted>
   9.000000E+99

> <Gold.Protein.RotatedTorsions>
[ 6907 6896 6895 6894 ] final  135.56 input  -60.11 | X-H torsion
[ 7974 7965 7964 7962 ] final  130.51 input  175.53 | X-H torsion
[ 8008 7997 7996 7995 ] final  -81.04 input   59.86 | X-H torsion
[ 10167 10162 10161 10158 ] final  156.62 input  -65.29 | X-H torsion
[ 10718 10713 10712 10709 ] final  -40.35 input   66.30 | X-H torsion
[ 10763 10752 10751 10750 ] final  102.97 input  -60.55 | X-H torsion
[ 11005 11000 10999 10996 ] final  108.24 input  -57.11 | X-H torsion

> <Gold.Protein.ActiveResidues>
 VAL166  LYS551  ARG553  GLY616  TRP617  ASP618  TYR619  PRO620  LYS621  CYS622 
 ASP623  PHE694  ASN695  SER759  ASP760  ASP761  ALA762  ILE779  LEU786  VAL792 
 PHE793  MET794  SER795  GLU796  ALA797  LYS798  CYS799  TRP800  GLU811  SER814 

> <Gold.Protein.RotatedAtoms>
  152.2990  133.5637  159.5606 H   0  0  0  0  0  0  0  0  0  0  0  0  # atno 6907 bound_to 6896
  150.7269  134.0318  159.3745 H   0  0  0  0  0  0  0  0  0  0  0  0  # atno 6908 bound_to 6896
  151.8219  135.0649  160.0477 H   0  0  0  0  0  0  0  0  0  0  0  0  # atno 6909 bound_to 6896
  145.0172  139.4165  143.5215 H   0  0  0  0  0  0  0  0  0  0  0  0  # atno 7974 bound_to 7965
  154.5943  140.0654  156.9282 H   0  0  0  0  0  0  0  0  0  0  0  0  # atno 8008 bound_to 7997
  155.2241  140.3332  155.4293 H   0  0  0  0  0  0  0  0  0  0  0  0  # atno 8009 bound_to 7997
  156.2277  140.1826  156.7306 H   0  0  0  0  0  0  0  0  0  0  0  0  # atno 8010 bound_to 7997
  139.4821  144.4992  151.8194 H   0  0  0  0  0  0  0  0  0  0  0  0  # atno 10167 bound_to 10162
  156.2823  130.4218  149.8324 H   0  0  0  0  0  0  0  0  0  0  0  0  # atno 10718 bound_to 10713
  153.3465  135.3992  155.1613 H   0  0  0  0  0  0  0  0  0  0  0  0  # atno 10763 bound_to 10752
  154.8654  135.3646  154.5277 H   0  0  0  0  0  0  0  0  0  0  0  0  # atno 10764 bound_to 10752
  153.5725  135.7078  153.5558 H   0  0  0  0  0  0  0  0  0  0  0  0  # atno 10765 bound_to 10752
  139.8841  134.9424  156.5941 H   0  0  0  0  0  0  0  0  0  0  0  0  # atno 11005 bound_to 11000
  146.3479  139.9649  142.8713 LP  0  0  0  0  0  0  0  0  0  0  0  0  # atno 17320 bound_to 7965
  145.1944  140.9826  143.4192 LP  0  0  0  0  0  0  0  0  0  0  0  0  # atno 17321 bound_to 7965
  140.4483  144.1890  150.5895 LP  0  0  0  0  0  0  0  0  0  0  0  0  # atno 17342 bound_to 10162
  140.4611  143.2448  151.9218 LP  0  0  0  0  0  0  0  0  0  0  0  0  # atno 17343 bound_to 10162
  156.5767  130.8448  151.3371 LP  0  0  0  0  0  0  0  0  0  0  0  0  # atno 17370 bound_to 10713
  157.7318  130.9706  150.1898 LP  0  0  0  0  0  0  0  0  0  0  0  0  # atno 17371 bound_to 10713
  140.7933  133.8565  155.8664 LP  0  0  0  0  0  0  0  0  0  0  0  0  # atno 17394 bound_to 11000
  140.9658  134.1596  157.4617 LP  0  0  0  0  0  0  0  0  0  0  0  0  # atno 17395 bound_to 11000

$$$$
