AV-unprocessed.smi:2590|AV-procd|sdf|10152|dock3
  -GOLD-   2272014163D 1   1.00000     0.00000
 Structure written by MMmdl.
 27 28  0  0  0  0  0  0  0  0  1 V2000
  152.4856  139.4456  155.8543 N   0  0  0  0  0  0  0  0  0  0  0  0
  151.2640  140.1126  155.7450 C   0  0  0  0  0  0  0  0  0  0  0  0
  150.6532  140.0275  154.5417 N   0  0  0  0  0  0  0  0  0  0  0  0
  149.4870  140.6932  154.3972 C   0  0  0  0  0  0  0  0  0  0  0  0
  148.9317  141.4497  155.4488 C   0  0  0  0  0  0  0  0  0  0  0  0
  149.5348  141.5383  156.6538 N   0  0  0  0  0  0  0  0  0  0  0  0
  150.6969  140.8621  156.8133 C   0  0  0  0  0  0  0  0  0  0  0  0
  151.3492  140.9653  158.1626 C   0  0  0  0  0  0  0  0  0  0  0  0
  151.8753  139.9723  158.6645 O   0  0  0  0  0  0  0  0  0  0  0  0
  151.3457  142.1753  158.7580 N   0  0  0  0  0  0  0  0  0  0  0  0
  150.6973  143.4073  158.3024 C   0  0  0  0  0  0  0  0  0  0  0  0
  151.6381  144.6059  158.4900 C   0  0  0  0  0  0  0  0  0  0  0  0
  152.2027  144.6256  159.9131 C   0  0  0  0  0  0  0  0  0  0  0  0
  152.7928  143.2509  160.2536 C   0  0  0  0  0  0  0  0  0  0  0  0
  151.7882  142.2530  160.0963 O   0  0  0  0  0  0  0  0  0  0  0  0
  153.0259  139.4669  156.7072 H   0  0  0  0  0  0  0  0  0  0  0  0
  152.8922  138.9638  155.0653 H   0  0  0  0  0  0  0  0  0  0  0  0
  148.9972  140.6265  153.4372 H   0  0  0  0  0  0  0  0  0  0  0  0
  148.0017  141.9838  155.3230 H   0  0  0  0  0  0  0  0  0  0  0  0
  150.3980  143.3322  157.2560 H   0  0  0  0  0  0  0  0  0  0  0  0
  149.7847  143.5515  158.8819 H   0  0  0  0  0  0  0  0  0  0  0  0
  152.4596  144.5343  157.7759 H   0  0  0  0  0  0  0  0  0  0  0  0
  151.1158  145.5380  158.2731 H   0  0  0  0  0  0  0  0  0  0  0  0
  152.9614  145.4024  160.0107 H   0  0  0  0  0  0  0  0  0  0  0  0
  151.4093  144.8671  160.6214 H   0  0  0  0  0  0  0  0  0  0  0  0
  153.6533  143.0319  159.6211 H   0  0  0  0  0  0  0  0  0  0  0  0
  153.1441  143.2368  161.2854 H   0  0  0  0  0  0  0  0  0  0  0  0
  1  2  1  0  0  0  0
  1 16  1  0  0  0  0
  1 17  1  0  0  0  0
  2  7  1  0  0  0  0
  2  3  2  0  0  0  0
  3  4  1  0  0  0  0
  4  5  2  0  0  0  0
  4 18  1  0  0  0  0
  5  6  1  0  0  0  0
  5 19  1  0  0  0  0
  6  7  2  0  0  0  0
  7  8  1  0  0  0  0
  8  9  2  0  0  0  0
  8 10  1  0  0  0  0
 10 15  1  0  0  0  0
 10 11  1  0  0  0  0
 11 12  1  0  0  0  0
 11 20  1  0  0  0  0
 11 21  1  0  0  0  0
 12 13  1  0  0  0  0
 12 22  1  0  0  0  0
 12 23  1  0  0  0  0
 13 14  1  0  0  0  0
 13 24  1  0  0  0  0
 13 25  1  0  0  0  0
 14 15  1  0  0  0  0
 14 26  1  0  0  0  0
 14 27  1  0  0  0  0
M  END
> <s_m_source_file>
AV-unprocessed.smi

> <i_m_source_file_index>
2590

> <i_lp_mmshare_version>
43012

> <i_f3d_flags>
0

> <s_epik_input>
W05IMl1jMW5bY0hdW2NIXW5jMUMoPU8pTjJbQ0gyXVtDSDJdW0NIMl1bQ0gyXU8y

> <s_epik_cmdline>
J2VwaWtfcHl0aG9uJywgJy1waCcsICc3LjAnLCAnLXRuJywgJzgnLCAnLW1hJywgJzIwMCcsICctbWV0YWxfYmluZGluZycsICctaW1hZScsICc8aW5maWxlLm1hZT4nLCAnLW9tYWUnLCAnPG91dGZpbGUubWFlPic=

> <r_lp_tautomer_probability>
1

> <r_epik_Ionization_Penalty>
4.08043e-05

> <r_epik_Ionization_Penalty_Charging>
0

> <r_epik_Ionization_Penalty_Neutral>
4.08043e-05

> <r_epik_State_Penalty>
-0

> <r_epik_Charging_Adjusted_Penalty>
0

> <i_epik_Tot_Q>
0

> <i_epik_Tot_abs_Q>
0

> <r_epik_Metal_State_Penalty>
-0

> <b_epik_Metal_Only>
0

> <s_epik_Chemistry_Notes>
This compound has a N-S or N-O group and may undergo hydrolysis at high or low pH.

> <s_lp_Force_Field>
OPLS_2005

> <r_lp_Energy>
28.4776

> <b_lp_Chiralities_Consistent>
1

> <s_lp_Variant>
AV-unprocessed.smi:2590-1

> <Gold.Version>
5.8.1

> <Gold.Id.Protein>
6NUR|6NUR_protein|mol2

> <Gold.PLP.Fitness>
37.2727

> <Gold.PLP.PLP>
-31.3687

> <Gold.PLP.part.hbond>
-1.5797

> <Gold.PLP.part.metal>
0.0000

> <Gold.PLP.part.buried>
-4.4668

> <Gold.PLP.part.nonpolar>
-25.9789

> <Gold.PLP.part.repulsive>
0.8701

> <Gold.PLP.ligand.clash>
0.0007

> <Gold.PLP.ligand.torsion>
0.6609

> <Gold.PLP.Chemscore.Hbond>
1.0000

> <Gold.PLP.Chemscore.CHOScore>
1.0856

> <Gold.PLP.Chemscore.Metal>
0.0000

> <Gold.Chemscore.Hbonds>
donor molecule, donor type, donor heavy atom, donor atom, acceptor molecule, acceptor atom, score
      P1  H  7989  7998       L1     3  1.00
      L1  C     4    18       P1  7957  1.00
      L1  C     5    19       P1  8028  0.06

> <Gold.PLP.Chemscore.Internal.Correction>
0.9697

> <Gold.Rescore>
     Score         DG    S(hbond)    S(metal)    S(lipo)     H(rot)  DE(clash)    DE(int)     intcor
     10.83     -14.40       0.32        0.00      67.05       0.00       0.36       3.22       ----

> <Gold.Chemscore.Fitness>
10.8255

> <Gold.Chemscore.DG>
-14.4014

> <Gold.Chemscore.ZeroCoef>
-5.4800

> <Gold.Chemscore.Hbond>
0.3223

> <Gold.Chemscore.Metal>
0.0000

> <Gold.Chemscore.Lipo>
67.0505

> <Gold.Chemscore.Internal_Hbond>
0.0000

> <Gold.Chemscore.DEClash>
0.3599

> <Gold.Chemscore.DEInternal>
3.2160

> <Gold.Chemscore.Rot>
0.0000

> <Gold.Chemscore.Internal.Correction>
   9.000000E+99

> <Gold.Chemscore.Hbonds>
donor molecule, donor type, donor heavy atom, donor atom, acceptor molecule, acceptor atom, score
      P1  H  7989  7998       L1     3  0.17

> <Gold.Chemscore.Hbond.Weighted>
-1.0765

> <Gold.Chemscore.Metal.Weighted>
-0.0000

> <Gold.Chemscore.Lipo.Weighted>
-7.8449

> <Gold.Chemscore.Internal_Hbond.Weighted>
0.0000

> <Gold.Chemscore.DEClash.Weighted>
0.3599

> <Gold.Chemscore.DEInternal.Weighted>
3.2160

> <Gold.Chemscore.Rot.Weighted>
0.0000

> <Gold.Chemscore.Internal.Correction.Weighted>
   9.000000E+99

> <Gold.Protein.RotatedTorsions>
[ 6907 6896 6895 6894 ] final   18.22 input  -60.11 | X-H torsion
[ 7974 7965 7964 7962 ] final   15.07 input  175.53 | X-H torsion
[ 8008 7997 7996 7995 ] final  -30.64 input   59.86 | X-H torsion
[ 10167 10162 10161 10158 ] final   14.16 input  -65.29 | X-H torsion
[ 10718 10713 10712 10709 ] final  121.89 input   66.30 | X-H torsion
[ 10763 10752 10751 10750 ] final  129.91 input  -60.55 | X-H torsion
[ 11005 11000 10999 10996 ] final -106.60 input  -57.11 | X-H torsion

> <Gold.Protein.ActiveResidues>
 VAL166  LYS551  ARG553  GLY616  TRP617  ASP618  TYR619  PRO620  LYS621  CYS622 
 ASP623  PHE694  ASN695  SER759  ASP760  ASP761  ALA762  ILE779  LEU786  VAL792 
 PHE793  MET794  SER795  GLU796  ALA797  LYS798  CYS799  TRP800  GLU811  SER814 

> <Gold.Protein.RotatedAtoms>
  151.8618  135.0521  160.0469 H   0  0  0  0  0  0  0  0  0  0  0  0  # atno 6907 bound_to 6896
  152.2657  133.5332  159.5416 H   0  0  0  0  0  0  0  0  0  0  0  0  # atno 6908 bound_to 6896
  150.7132  134.0685  159.3898 H   0  0  0  0  0  0  0  0  0  0  0  0  # atno 6909 bound_to 6896
  146.2288  139.8948  142.8549 H   0  0  0  0  0  0  0  0  0  0  0  0  # atno 7974 bound_to 7965
  154.4243  140.1786  156.1439 H   0  0  0  0  0  0  0  0  0  0  0  0  # atno 8008 bound_to 7997
  155.9970  140.3363  155.6783 H   0  0  0  0  0  0  0  0  0  0  0  0  # atno 8009 bound_to 7997
  155.6295  140.0668  157.2644 H   0  0  0  0  0  0  0  0  0  0  0  0  # atno 8010 bound_to 7997
  140.5954  143.8711  150.6913 H   0  0  0  0  0  0  0  0  0  0  0  0  # atno 10167 bound_to 10162
  157.5783  131.1077  150.8236 H   0  0  0  0  0  0  0  0  0  0  0  0  # atno 10718 bound_to 10713
  153.7494  135.3212  155.3318 H   0  0  0  0  0  0  0  0  0  0  0  0  # atno 10763 bound_to 10752
  154.8268  135.4564  154.0947 H   0  0  0  0  0  0  0  0  0  0  0  0  # atno 10764 bound_to 10752
  153.2145  135.6940  153.8156 H   0  0  0  0  0  0  0  0  0  0  0  0  # atno 10765 bound_to 10752
  141.0996  133.8908  157.1875 H   0  0  0  0  0  0  0  0  0  0  0  0  # atno 11005 bound_to 11000
  145.2381  140.9999  143.3951 LP  0  0  0  0  0  0  0  0  0  0  0  0  # atno 17320 bound_to 7965
  144.9474  139.4120  143.6419 LP  0  0  0  0  0  0  0  0  0  0  0  0  # atno 17321 bound_to 7965
  140.2244  143.3784  152.1616 LP  0  0  0  0  0  0  0  0  0  0  0  0  # atno 17342 bound_to 10162
  139.5255  144.7096  151.5246 LP  0  0  0  0  0  0  0  0  0  0  0  0  # atno 17343 bound_to 10162
  156.8689  130.5139  149.5298 LP  0  0  0  0  0  0  0  0  0  0  0  0  # atno 17370 bound_to 10713
  156.0828  130.5834  150.9595 LP  0  0  0  0  0  0  0  0  0  0  0  0  # atno 17371 bound_to 10713
  139.9843  135.0087  156.9826 LP  0  0  0  0  0  0  0  0  0  0  0  0  # atno 17394 bound_to 11000
  140.5054  134.1055  155.7259 LP  0  0  0  0  0  0  0  0  0  0  0  0  # atno 17395 bound_to 11000

$$$$
