AV-unprocessed.smi:2837|AV-procd|sdf|10924|dock5
  -GOLD-   2272015373D 1   1.00000     0.00000
 Structure written by MMmdl.
 33 35  0  0  0  0  0  0  0  0  2 V2000
  153.4175  141.9957  162.0082 F   0  0  0  0  0  0  0  0  0  0  0  0
  152.6675  143.1237  161.9932 C   0  0  0  0  0  0  0  0  0  0  0  0
  153.1010  143.9152  163.0049 F   0  0  0  0  0  0  0  0  0  0  0  0
  152.8147  143.7563  160.7987 O   0  0  0  0  0  0  0  0  0  0  0  0
  152.0120  143.3980  159.7392 C   0  0  0  0  0  0  0  0  0  0  0  0
  151.9055  142.0294  159.4149 C   0  0  0  0  0  0  0  0  0  0  0  0
  151.1062  141.6238  158.3264 C   0  0  0  0  0  0  0  0  0  0  0  0
  150.4230  142.6007  157.5641 C   0  0  0  0  0  0  0  0  0  0  0  0
  149.6045  142.3186  156.4617 N   0  0  0  0  0  0  0  0  0  0  0  0
  149.3904  140.9511  156.0051 C   0  0  2  0  0  0  0  0  0  0  0  0
  150.6955  140.2099  155.6837 C   0  0  0  0  0  0  0  0  0  0  0  0
  150.4680  139.7819  154.2286 C   0  0  1  0  0  0  0  0  0  0  0  0
  149.3835  138.7034  154.1016 C   0  0  0  0  0  0  0  0  0  0  0  0
  148.1107  139.5080  154.3629 C   0  0  0  0  0  0  0  0  0  0  0  0
  148.6736  140.9077  154.6448 C   0  0  2  0  0  0  0  0  0  0  0  0
  149.7706  140.9159  153.7456 O   0  0  0  0  0  0  0  0  0  0  0  0
  150.5569  143.9023  157.9010 N   0  3  0  0  0  0  0  0  0  0  0  0
  151.3123  144.3307  158.9358 C   0  0  0  0  0  0  0  0  0  0  0  0
  151.6310  142.8367  162.1723 H   0  0  0  0  0  0  0  0  0  0  0  0
  152.4344  141.2918  160.0006 H   0  0  0  0  0  0  0  0  0  0  0  0
  151.0321  140.5723  158.0933 H   0  0  0  0  0  0  0  0  0  0  0  0
  149.2505  143.0749  155.8932 H   0  0  0  0  0  0  0  0  0  0  0  0
  148.7960  140.4174  156.7477 H   0  0  0  0  0  0  0  0  0  0  0  0
  151.5618  140.8704  155.7474 H   0  0  0  0  0  0  0  0  0  0  0  0
  150.8704  139.3595  156.3436 H   0  0  0  0  0  0  0  0  0  0  0  0
  151.3858  139.5545  153.6856 H   0  0  0  0  0  0  0  0  0  0  0  0
  149.3688  138.2817  153.0959 H   0  0  0  0  0  0  0  0  0  0  0  0
  149.5247  137.8885  154.8125 H   0  0  0  0  0  0  0  0  0  0  0  0
  147.4780  139.5187  153.4746 H   0  0  0  0  0  0  0  0  0  0  0  0
  147.5236  139.1168  155.1944 H   0  0  0  0  0  0  0  0  0  0  0  0
  147.9495  141.7080  154.4868 H   0  0  0  0  0  0  0  0  0  0  0  0
  151.3336  145.4016  159.0771 H   0  0  0  0  0  0  0  0  0  0  0  0
  150.0652  144.6009  157.3429 H   0  0  0  0  0  0  0  0  0  0  0  0
  1  2  1  0  0  0  0
  2  3  1  0  0  0  0
  2  4  1  0  0  0  0
  2 19  1  0  0  0  0
  4  5  1  0  0  0  0
  5 18  1  0  0  0  0
  5  6  2  0  0  0  0
  6  7  1  0  0  0  0
  6 20  1  0  0  0  0
  7  8  2  0  0  0  0
  7 21  1  0  0  0  0
  8  9  1  0  0  0  0
  8 17  1  0  0  0  0
  9 10  1  0  0  0  0
  9 22  1  0  0  0  0
 10 15  1  0  0  0  0
 10 11  1  0  0  0  0
 10 23  1  0  0  0  0
 11 12  1  0  0  0  0
 11 24  1  0  0  0  0
 11 25  1  0  0  0  0
 12 16  1  0  0  0  0
 12 13  1  0  0  0  0
 12 26  1  0  0  0  0
 13 14  1  0  0  0  0
 13 27  1  0  0  0  0
 13 28  1  0  0  0  0
 14 15  1  0  0  0  0
 14 29  1  0  0  0  0
 14 30  1  0  0  0  0
 15 16  1  0  0  0  0
 15 31  1  0  0  0  0
 17 18  2  0  0  0  0
 17 33  1  0  0  0  0
 18 32  1  0  0  0  0
M  CHG  1  17   1
M  END
> <s_m_source_file>
AV-unprocessed.smi

> <i_m_source_file_index>
2837

> <i_lp_mmshare_version>
43012

> <i_f3d_flags>
0

> <s_epik_input>
RltDSF0oRilPYzFbY0hdW2NIXWMobltjSF0xKVtOSF1bQ0BIXShbQ0gyXVtDQEBIXTIzKVtDQEBIXShPMylbQ0gyXVtDSDJdMg==

> <s_epik_cmdline>
J2VwaWtfcHl0aG9uJywgJy1waCcsICc3LjAnLCAnLXRuJywgJzgnLCAnLW1hJywgJzIwMCcsICctbWV0YWxfYmluZGluZycsICctaW1hZScsICc8aW5maWxlLm1hZT4nLCAnLW9tYWUnLCAnPG91dGZpbGUubWFlPic=

> <r_lp_tautomer_probability>
0.999429

> <r_epik_Ionization_Penalty>
2.29716

> <r_epik_Ionization_Penalty_Charging>
2.29716

> <r_epik_Ionization_Penalty_Neutral>
1.42285e-06

> <r_epik_State_Penalty>
2.44762

> <r_epik_Charging_Adjusted_Penalty>
4.74478

> <i_epik_Tot_Q>
1

> <i_epik_Tot_abs_Q>
1

> <r_epik_Metal_State_Penalty>
6.53078

> <b_epik_Metal_Only>
0

> <s_lp_Force_Field>
OPLS_2005

> <r_lp_Energy>
46.2914

> <b_lp_Chiralities_Consistent>
1

> <s_lp_Variant>
AV-unprocessed.smi:2837-5

> <Gold.Version>
5.8.1

> <Gold.Id.Protein>
6NUR|6NUR_protein|mol2

> <Gold.PLP.Fitness>
48.1315

> <Gold.PLP.PLP>
-35.2613

> <Gold.PLP.part.hbond>
-3.9057

> <Gold.PLP.part.metal>
0.0000

> <Gold.PLP.part.buried>
1.5184

> <Gold.PLP.part.nonpolar>
-33.8028

> <Gold.PLP.part.repulsive>
2.8162

> <Gold.PLP.ligand.clash>
0.0000

> <Gold.PLP.ligand.torsion>
0.4527

> <Gold.PLP.Chemscore.Hbond>
4.5839

> <Gold.PLP.Chemscore.CHOScore>
0.0000

> <Gold.PLP.Chemscore.Metal>
0.0000

> <Gold.Chemscore.Hbonds>
donor molecule, donor type, donor heavy atom, donor atom, acceptor molecule, acceptor atom, score
      L1  H     9    22       P1  8028  2.00
      L1  H    17    33       P1  8028  1.66
      P1  H  8011  8017       L1    16  0.92

> <Gold.PLP.Chemscore.Internal.Correction>
0.0240

> <Gold.Rescore>
     Score         DG    S(hbond)    S(metal)    S(lipo)     H(rot)  DE(clash)    DE(int)     intcor
     15.12     -19.02       2.11        0.00      84.86       1.34       2.80       1.09       ----

> <Gold.Chemscore.Fitness>
15.1231

> <Gold.Chemscore.DG>
-19.0201

> <Gold.Chemscore.ZeroCoef>
-5.4800

> <Gold.Chemscore.Hbond>
2.1059

> <Gold.Chemscore.Metal>
0.0000

> <Gold.Chemscore.Lipo>
84.8600

> <Gold.Chemscore.Internal_Hbond>
0.0000

> <Gold.Chemscore.DEClash>
2.8034

> <Gold.Chemscore.DEInternal>
1.0937

> <Gold.Chemscore.Rot>
1.3368

> <Gold.Chemscore.Internal.Correction>
   9.000000E+99

> <Gold.Chemscore.Hbonds>
donor molecule, donor type, donor heavy atom, donor atom, acceptor molecule, acceptor atom, score
      L1  H     9    22       P1  8028  0.96
      L1  H    17    33       P1  8028  0.20
      P1  H  8011  8017       L1    16  0.78

> <Gold.Chemscore.Hbond.Weighted>
-7.0338

> <Gold.Chemscore.Metal.Weighted>
-0.0000

> <Gold.Chemscore.Lipo.Weighted>
-9.9286

> <Gold.Chemscore.Internal_Hbond.Weighted>
0.0000

> <Gold.Chemscore.DEClash.Weighted>
2.8034

> <Gold.Chemscore.DEInternal.Weighted>
1.0937

> <Gold.Chemscore.Rot.Weighted>
3.4223

> <Gold.Chemscore.Internal.Correction.Weighted>
   9.000000E+99

> <Gold.Protein.RotatedTorsions>
[ 6907 6896 6895 6894 ] final -126.25 input  -60.11 | X-H torsion
[ 7974 7965 7964 7962 ] final -163.97 input  175.53 | X-H torsion
[ 8008 7997 7996 7995 ] final   24.84 input   59.86 | X-H torsion
[ 10167 10162 10161 10158 ] final  -83.55 input  -65.29 | X-H torsion
[ 10718 10713 10712 10709 ] final -137.23 input   66.30 | X-H torsion
[ 10763 10752 10751 10750 ] final   19.60 input  -60.55 | X-H torsion
[ 11005 11000 10999 10996 ] final -154.17 input  -57.11 | X-H torsion

> <Gold.Protein.ActiveResidues>
 VAL166  LYS551  ARG553  GLY616  TRP617  ASP618  TYR619  PRO620  LYS621  CYS622 
 ASP623  PHE694  ASN695  SER759  ASP760  ASP761  ALA762  ILE779  LEU786  VAL792 
 PHE793  MET794  SER795  GLU796  ALA797  LYS798  CYS799  TRP800  GLU811  SER814 

> <Gold.Protein.RotatedAtoms>
  150.8950  133.7193  159.2894 H   0  0  0  0  0  0  0  0  0  0  0  0  # atno 6907 bound_to 6896
  151.4730  135.1046  159.9766 H   0  0  0  0  0  0  0  0  0  0  0  0  # atno 6908 bound_to 6896
  152.4843  133.8285  159.7146 H   0  0  0  0  0  0  0  0  0  0  0  0  # atno 6909 bound_to 6896
  144.7310  140.3030  143.6201 H   0  0  0  0  0  0  0  0  0  0  0  0  # atno 7974 bound_to 7965
  155.0024  140.3127  155.4862 H   0  0  0  0  0  0  0  0  0  0  0  0  # atno 8008 bound_to 7997
  156.2923  140.2229  156.5076 H   0  0  0  0  0  0  0  0  0  0  0  0  # atno 8009 bound_to 7997
  154.7606  140.0459  157.0958 H   0  0  0  0  0  0  0  0  0  0  0  0  # atno 8010 bound_to 7997
  140.4216  143.2582  151.8882 H   0  0  0  0  0  0  0  0  0  0  0  0  # atno 10167 bound_to 10162
  156.2859  130.7347  151.1358 H   0  0  0  0  0  0  0  0  0  0  0  0  # atno 10718 bound_to 10713
  153.1148  135.6705  153.9437 H   0  0  0  0  0  0  0  0  0  0  0  0  # atno 10763 bound_to 10752
  153.8970  135.3040  155.3449 H   0  0  0  0  0  0  0  0  0  0  0  0  # atno 10764 bound_to 10752
  154.7565  135.5009  153.9463 H   0  0  0  0  0  0  0  0  0  0  0  0  # atno 10765 bound_to 10752
  140.7003  134.3945  157.5210 H   0  0  0  0  0  0  0  0  0  0  0  0  # atno 11005 bound_to 11000
  145.7741  139.1868  143.2195 LP  0  0  0  0  0  0  0  0  0  0  0  0  # atno 17320 bound_to 7965
  146.0887  140.7681  142.9606 LP  0  0  0  0  0  0  0  0  0  0  0  0  # atno 17321 bound_to 7965
  139.4783  144.5431  151.8499 LP  0  0  0  0  0  0  0  0  0  0  0  0  # atno 17342 bound_to 10162
  140.4527  144.1833  150.5899 LP  0  0  0  0  0  0  0  0  0  0  0  0  # atno 17343 bound_to 10162
  157.7328  131.0596  150.5609 LP  0  0  0  0  0  0  0  0  0  0  0  0  # atno 17370 bound_to 10713
  156.5719  130.4282  149.6015 LP  0  0  0  0  0  0  0  0  0  0  0  0  # atno 17371 bound_to 10713
  139.8899  134.8819  156.2399 LP  0  0  0  0  0  0  0  0  0  0  0  0  # atno 17394 bound_to 11000
  141.0169  133.7063  156.1204 LP  0  0  0  0  0  0  0  0  0  0  0  0  # atno 17395 bound_to 11000

$$$$
