AV-unprocessed.smi:1643|AV-procd|sdf|6581|dock1
  -GOLD-   22720 7273D 1   1.00000     0.00000
 Structure written by MMmdl.
 55 57  0  0  0  0  0  0  0  0  3 V2000
  148.7564  133.1724  152.7417 C   0  0  0  0  0  0  0  0  0  0  0  0
  147.9098  133.7925  153.8575 C   0  0  0  0  0  0  0  0  0  0  0  0
  146.6856  133.6882  153.7806 O   0  0  0  0  0  0  0  0  0  0  0  0
  148.5310  134.4228  154.8848 N   0  0  0  0  0  0  0  0  0  0  0  0
  147.7604  134.9785  156.0080 C   0  0  0  0  0  0  0  0  0  0  0  0
  147.5578  136.4964  155.8530 C   0  0  0  0  0  0  0  0  0  0  0  0
  148.7440  137.2387  155.2013 C   0  0  0  0  0  0  0  0  0  0  0  0
  150.0490  137.0290  155.8859 N   0  3  1  0  0  0  0  0  0  0  0  0
  150.1402  137.7659  157.1756 C   0  0  0  0  0  0  0  0  0  0  0  0
  151.5324  138.3803  157.4229 C   0  0  1  0  0  0  0  0  0  0  0  0
  152.4903  137.3413  157.4878 O   0  0  0  0  0  0  0  0  0  0  0  0
  151.9304  139.3680  156.3083 C   0  0  0  0  0  0  0  0  0  0  0  0
  151.3733  140.7114  156.5136 N   0  0  0  0  0  0  0  0  0  0  0  0
  150.4929  141.4216  155.7566 C   0  0  0  0  0  0  0  0  0  0  0  0
  150.2987  142.6216  156.3707 N   0  3  0  0  0  0  0  0  0  0  0  0
  151.0630  142.6771  157.5382 C   0  0  0  0  0  0  0  0  0  0  0  0
  151.2012  143.6799  158.4902 C   0  0  0  0  0  0  0  0  0  0  0  0
  152.0695  143.4240  159.5755 C   0  0  0  0  0  0  0  0  0  0  0  0
  152.2448  144.5005  160.6328 C   0  0  0  0  0  0  0  0  0  0  0  0
  152.7644  142.1909  159.6801 C   0  0  0  0  0  0  0  0  0  0  0  0
  153.6961  141.9270  160.8509 C   0  0  0  0  0  0  0  0  0  0  0  0
  152.6089  141.1825  158.7019 C   0  0  0  0  0  0  0  0  0  0  0  0
  151.7520  141.4532  157.6379 C   0  0  0  0  0  0  0  0  0  0  0  0
  150.5350  135.6165  155.9770 C   0  0  0  0  0  0  0  0  0  0  0  0
  149.9952  134.6259  154.9109 C   0  0  0  0  0  0  0  0  0  0  0  0
  149.5273  132.5176  153.1489 H   0  0  0  0  0  0  0  0  0  0  0  0
  149.2309  133.9475  152.1396 H   0  0  0  0  0  0  0  0  0  0  0  0
  148.1325  132.5720  152.0782 H   0  0  0  0  0  0  0  0  0  0  0  0
  146.7875  134.4969  156.1169 H   0  0  0  0  0  0  0  0  0  0  0  0
  148.2566  134.7516  156.9501 H   0  0  0  0  0  0  0  0  0  0  0  0
  146.6765  136.6676  155.2337 H   0  0  0  0  0  0  0  0  0  0  0  0
  147.3243  136.9320  156.8249 H   0  0  0  0  0  0  0  0  0  0  0  0
  148.8419  136.9507  154.1541 H   0  0  0  0  0  0  0  0  0  0  0  0
  148.5243  138.3065  155.1676 H   0  0  0  0  0  0  0  0  0  0  0  0
  149.3971  138.5645  157.1996 H   0  0  0  0  0  0  0  0  0  0  0  0
  149.8806  137.0868  157.9893 H   0  0  0  0  0  0  0  0  0  0  0  0
  151.5448  138.9116  158.3740 H   0  0  0  0  0  0  0  0  0  0  0  0
  152.0731  136.5275  157.2484 H   0  0  0  0  0  0  0  0  0  0  0  0
  153.0157  139.4668  156.2550 H   0  0  0  0  0  0  0  0  0  0  0  0
  151.6039  139.0085  155.3315 H   0  0  0  0  0  0  0  0  0  0  0  0
  150.0349  141.0962  154.8336 H   0  0  0  0  0  0  0  0  0  0  0  0
  150.6690  144.6162  158.4047 H   0  0  0  0  0  0  0  0  0  0  0  0
  153.2860  144.8200  160.6845 H   0  0  0  0  0  0  0  0  0  0  0  0
  151.9460  144.1280  161.6130 H   0  0  0  0  0  0  0  0  0  0  0  0
  151.6380  145.3792  160.4115 H   0  0  0  0  0  0  0  0  0  0  0  0
  154.1627  140.9441  160.7771 H   0  0  0  0  0  0  0  0  0  0  0  0
  153.1483  141.9658  161.7928 H   0  0  0  0  0  0  0  0  0  0  0  0
  154.4924  142.6712  160.8819 H   0  0  0  0  0  0  0  0  0  0  0  0
  153.1362  140.2437  158.7815 H   0  0  0  0  0  0  0  0  0  0  0  0
  151.6208  135.6459  155.8831 H   0  0  0  0  0  0  0  0  0  0  0  0
  150.3558  135.2180  156.9758 H   0  0  0  0  0  0  0  0  0  0  0  0
  150.4691  133.6566  155.0706 H   0  0  0  0  0  0  0  0  0  0  0  0
  150.3348  134.9763  153.9352 H   0  0  0  0  0  0  0  0  0  0  0  0
  150.7107  137.4907  155.2777 H   0  0  0  0  0  0  0  0  0  0  0  0
  149.6892  143.3479  156.0164 H   0  0  0  0  0  0  0  0  0  0  0  0
  1  2  1  0  0  0  0
  1 26  1  0  0  0  0
  1 27  1  0  0  0  0
  1 28  1  0  0  0  0
  2  3  2  0  0  0  0
  2  4  1  0  0  0  0
  4 25  1  0  0  0  0
  4  5  1  0  0  0  0
  5  6  1  0  0  0  0
  5 29  1  0  0  0  0
  5 30  1  0  0  0  0
  6  7  1  0  0  0  0
  6 31  1  0  0  0  0
  6 32  1  0  0  0  0
  7  8  1  0  0  0  0
  7 33  1  0  0  0  0
  7 34  1  0  0  0  0
  8  9  1  0  0  0  0
  8 24  1  0  0  0  0
  8 54  1  0  0  0  0
  9 10  1  0  0  0  0
  9 35  1  0  0  0  0
  9 36  1  0  0  0  0
 10 11  1  0  0  0  0
 10 12  1  0  0  0  0
 10 37  1  0  0  0  0
 11 38  1  0  0  0  0
 12 13  1  0  0  0  0
 12 39  1  0  0  0  0
 12 40  1  0  0  0  0
 13 23  1  0  0  0  0
 13 14  1  0  0  0  0
 14 15  2  0  0  0  0
 14 41  1  0  0  0  0
 15 16  1  0  0  0  0
 15 55  1  0  0  0  0
 16 23  2  0  0  0  0
 16 17  1  0  0  0  0
 17 18  2  0  0  0  0
 17 42  1  0  0  0  0
 18 19  1  0  0  0  0
 18 20  1  0  0  0  0
 19 43  1  0  0  0  0
 19 44  1  0  0  0  0
 19 45  1  0  0  0  0
 20 21  1  0  0  0  0
 20 22  2  0  0  0  0
 21 46  1  0  0  0  0
 21 47  1  0  0  0  0
 21 48  1  0  0  0  0
 22 23  1  0  0  0  0
 22 49  1  0  0  0  0
 24 25  1  0  0  0  0
 24 50  1  0  0  0  0
 24 51  1  0  0  0  0
 25 52  1  0  0  0  0
 25 53  1  0  0  0  0
M  CHG  1   8   1
M  CHG  1  15   1
M  END
> <s_m_source_file>
AV-unprocessed.smi

> <i_m_source_file_index>
1643

> <i_lp_mmshare_version>
43012

> <i_f3d_flags>
0

> <s_epik_input>
W0NIM11DKD1PKU4xW0NIMl1bQ0gyXVtDSDJdTihbQ0gyXVtDSDJdMSlbQ0gyXVtDQEhdKFtPSF0pW0NIMl1uKFtjSF1uMiljKGMyMylbY0hdYyhbQ0gzXSljKFtjSF0zKVtDSDNd

> <s_epik_cmdline>
J2VwaWtfcHl0aG9uJywgJy1waCcsICc3LjAnLCAnLXRuJywgJzgnLCAnLW1hJywgJzIwMCcsICctbWV0YWxfYmluZGluZycsICctaW1hZScsICc8aW5maWxlLm1hZT4nLCAnLW9tYWUnLCAnPG91dGZpbGUubWFlPic=

> <r_epik_Ionization_Penalty>
1.2865

> <r_epik_Ionization_Penalty_Charging>
1.2865

> <r_epik_Ionization_Penalty_Neutral>
2.89706e-06

> <r_epik_State_Penalty>
1.3566

> <r_epik_Charging_Adjusted_Penalty>
2.6431

> <i_epik_Tot_Q>
2

> <i_epik_Tot_abs_Q>
2

> <r_epik_Metal_State_Penalty>
5.37339

> <b_epik_Metal_Only>
0

> <s_lp_Force_Field>
OPLS_2005

> <r_lp_Energy>
56.7844

> <b_lp_Chiralities_Consistent>
1

> <s_lp_Variant>
AV-unprocessed.smi:1643-10

> <Gold.Version>
5.8.1

> <Gold.Id.Protein>
6NUR|6NUR_protein|mol2

> <Gold.PLP.Fitness>
47.7966

> <Gold.PLP.PLP>
-42.9816

> <Gold.PLP.part.hbond>
-1.0000

> <Gold.PLP.part.metal>
0.0000

> <Gold.PLP.part.buried>
-6.3932

> <Gold.PLP.part.nonpolar>
-35.7066

> <Gold.PLP.part.repulsive>
0.1918

> <Gold.PLP.ligand.clash>
0.0000

> <Gold.PLP.ligand.torsion>
0.6774

> <Gold.PLP.Chemscore.Hbond>
2.0000

> <Gold.PLP.Chemscore.CHOScore>
0.0000

> <Gold.PLP.Chemscore.Metal>
0.0000

> <Gold.Chemscore.Hbonds>
donor molecule, donor type, donor heavy atom, donor atom, acceptor molecule, acceptor atom, score
      L1  H    15    55       P1  8028  2.00

> <Gold.PLP.Chemscore.Internal.Correction>
0.1697

> <Gold.Rescore>
     Score         DG    S(hbond)    S(metal)    S(lipo)     H(rot)  DE(clash)    DE(int)     intcor
     15.02     -16.89       1.00        0.00     116.60       2.17       0.07       1.80       ----

> <Gold.Chemscore.Fitness>
15.0225

> <Gold.Chemscore.DG>
-16.8935

> <Gold.Chemscore.ZeroCoef>
-5.4800

> <Gold.Chemscore.Hbond>
0.9992

> <Gold.Chemscore.Metal>
0.0000

> <Gold.Chemscore.Lipo>
116.6044

> <Gold.Chemscore.Internal_Hbond>
0.0000

> <Gold.Chemscore.DEClash>
0.0673

> <Gold.Chemscore.DEInternal>
1.8038

> <Gold.Chemscore.Rot>
2.1744

> <Gold.Chemscore.Internal.Correction>
   9.000000E+99

> <Gold.Chemscore.Hbonds>
donor molecule, donor type, donor heavy atom, donor atom, acceptor molecule, acceptor atom, score
      L1  H    15    55       P1  8028  0.99

> <Gold.Chemscore.Hbond.Weighted>
-3.3374

> <Gold.Chemscore.Metal.Weighted>
-0.0000

> <Gold.Chemscore.Lipo.Weighted>
-13.6427

> <Gold.Chemscore.Internal_Hbond.Weighted>
0.0000

> <Gold.Chemscore.DEClash.Weighted>
0.0673

> <Gold.Chemscore.DEInternal.Weighted>
1.8038

> <Gold.Chemscore.Rot.Weighted>
5.5666

> <Gold.Chemscore.Internal.Correction.Weighted>
   9.000000E+99

> <Gold.Protein.RotatedTorsions>
[ 6907 6896 6895 6894 ] final   99.34 input  -60.11 | X-H torsion
[ 7974 7965 7964 7962 ] final  153.21 input  175.53 | X-H torsion
[ 8008 7997 7996 7995 ] final   91.67 input   59.86 | X-H torsion
[ 10167 10162 10161 10158 ] final -176.77 input  -65.29 | X-H torsion
[ 10718 10713 10712 10709 ] final  -85.88 input   66.30 | X-H torsion
[ 10763 10752 10751 10750 ] final  103.13 input  -60.55 | X-H torsion
[ 11005 11000 10999 10996 ] final  -34.40 input  -57.11 | X-H torsion

> <Gold.Protein.ActiveResidues>
 VAL166  LYS551  ARG553  GLY616  TRP617  ASP618  TYR619  PRO620  LYS621  CYS622 
 ASP623  PHE694  ASN695  SER759  ASP760  ASP761  ALA762  ILE779  LEU786  VAL792 
 PHE793  MET794  SER795  GLU796  ALA797  LYS798  CYS799  TRP800  GLU811  SER814 

> <Gold.Protein.RotatedAtoms>
  152.5394  134.0444  159.8081 H   0  0  0  0  0  0  0  0  0  0  0  0  # atno 6907 bound_to 6896
  151.0595  133.5549  159.2643 H   0  0  0  0  0  0  0  0  0  0  0  0  # atno 6908 bound_to 6896
  151.2453  135.0611  159.9094 H   0  0  0  0  0  0  0  0  0  0  0  0  # atno 6909 bound_to 6896
  144.8170  139.6770  143.6117 H   0  0  0  0  0  0  0  0  0  0  0  0  # atno 7974 bound_to 7965
  156.0265  140.3335  155.7094 H   0  0  0  0  0  0  0  0  0  0  0  0  # atno 8008 bound_to 7997
  155.5947  140.0649  157.2767 H   0  0  0  0  0  0  0  0  0  0  0  0  # atno 8009 bound_to 7997
  154.4336  140.1821  156.1099 H   0  0  0  0  0  0  0  0  0  0  0  0  # atno 8010 bound_to 7997
  139.5513  144.2103  152.1081 H   0  0  0  0  0  0  0  0  0  0  0  0  # atno 10167 bound_to 10162
  155.9993  130.4746  150.4630 H   0  0  0  0  0  0  0  0  0  0  0  0  # atno 10718 bound_to 10713
  153.3486  135.3987  155.1628 H   0  0  0  0  0  0  0  0  0  0  0  0  # atno 10763 bound_to 10752
  154.8658  135.3651  154.5251 H   0  0  0  0  0  0  0  0  0  0  0  0  # atno 10764 bound_to 10752
  153.5702  135.7079  153.5568 H   0  0  0  0  0  0  0  0  0  0  0  0  # atno 10765 bound_to 10752
  140.9713  133.7108  156.1528 H   0  0  0  0  0  0  0  0  0  0  0  0  # atno 11005 bound_to 11000
  146.2473  139.6126  142.9451 LP  0  0  0  0  0  0  0  0  0  0  0  0  # atno 17320 bound_to 7965
  145.5192  141.0432  143.2445 LP  0  0  0  0  0  0  0  0  0  0  0  0  # atno 17321 bound_to 7965
  140.1598  144.5036  150.6639 LP  0  0  0  0  0  0  0  0  0  0  0  0  # atno 17342 bound_to 10162
  140.6776  143.2312  151.5468 LP  0  0  0  0  0  0  0  0  0  0  0  0  # atno 17343 bound_to 10162
  157.2652  131.0575  151.2295 LP  0  0  0  0  0  0  0  0  0  0  0  0  # atno 17370 bound_to 10713
  157.3395  130.7026  149.6373 LP  0  0  0  0  0  0  0  0  0  0  0  0  # atno 17371 bound_to 10713
  140.7325  134.4239  157.5564 LP  0  0  0  0  0  0  0  0  0  0  0  0  # atno 17394 bound_to 11000
  139.8913  134.8783  156.2326 LP  0  0  0  0  0  0  0  0  0  0  0  0  # atno 17395 bound_to 11000

$$$$
