AV-unprocessed.smi:390|AV-procd|sdf|2478|dock9
  -GOLD-   2262022423D 1   1.00000     0.00000
 Structure written by MMmdl.
 31 32  0  0  0  0  0  0  0  0  1 V2000
  149.1599  141.5728  154.0635 N   0  0  0  0  0  0  0  0  0  0  0  0
  149.8507  141.4522  154.9840 C   0  0  0  0  0  0  0  0  0  0  0  0
  150.6796  141.2867  156.1317 C   0  0  0  0  0  0  0  0  0  0  0  0
  151.0021  142.3261  156.9315 C   0  0  0  0  0  0  0  0  0  0  0  0
  151.7978  142.1908  158.0508 N   0  0  0  0  0  0  0  0  0  0  0  0
  152.2541  143.3362  158.7860 C   0  0  0  0  0  0  0  0  0  0  0  0
  151.2578  144.2691  159.4464 C   0  0  0  0  0  0  0  0  0  0  0  0
  152.0107  144.7171  158.2174 C   0  0  0  0  0  0  0  0  0  0  0  0
  152.3802  140.9427  158.3625 C   0  0  0  0  0  0  0  0  0  0  0  0
  153.1785  140.8228  159.2958 O   0  0  0  0  0  0  0  0  0  0  0  0
  152.0195  139.8456  157.5427 N   0  0  0  0  0  0  0  0  0  0  0  0
  152.6017  138.5461  157.8507 C   0  0  0  0  0  0  0  0  0  0  0  0
  151.5940  137.4995  158.3529 C   0  0  0  0  0  0  0  0  0  0  0  0
  151.6534  137.0828  159.5129 O   0  0  0  0  0  0  0  0  0  0  0  0
  150.6854  137.1069  157.4374 N   0  0  0  0  0  0  0  0  0  0  0  0
  149.6927  136.2109  157.6006 C   0  0  0  0  0  0  0  0  0  0  0  0
  149.0221  136.0064  156.4654 N   0  0  0  0  0  0  0  0  0  0  0  0
  149.4034  135.6287  158.6460 O   0  0  0  0  0  0  0  0  0  0  0  0
  151.1773  139.9404  156.4052 C   0  0  0  0  0  0  0  0  0  0  0  0
  150.9132  138.9596  155.7068 O   0  0  0  0  0  0  0  0  0  0  0  0
  150.6194  143.3071  156.6893 H   0  0  0  0  0  0  0  0  0  0  0  0
  153.1962  143.2013  159.3146 H   0  0  0  0  0  0  0  0  0  0  0  0
  150.1967  144.0571  159.3288 H   0  0  0  0  0  0  0  0  0  0  0  0
  151.5410  144.7111  160.3995 H   0  0  0  0  0  0  0  0  0  0  0  0
  152.7943  145.4600  158.3509 H   0  0  0  0  0  0  0  0  0  0  0  0
  151.4457  144.7981  157.2906 H   0  0  0  0  0  0  0  0  0  0  0  0
  153.1138  138.1872  156.9565 H   0  0  0  0  0  0  0  0  0  0  0  0
  153.3950  138.7013  158.5837 H   0  0  0  0  0  0  0  0  0  0  0  0
  150.7600  137.5344  156.5264 H   0  0  0  0  0  0  0  0  0  0  0  0
  148.2494  135.3577  156.4379 H   0  0  0  0  0  0  0  0  0  0  0  0
  149.2944  136.5070  155.6316 H   0  0  0  0  0  0  0  0  0  0  0  0
  1  2  3  0  0  0  0
  2  3  1  0  0  0  0
  3 19  1  0  0  0  0
  3  4  2  0  0  0  0
  4  5  1  0  0  0  0
  4 21  1  0  0  0  0
  5  6  1  0  0  0  0
  5  9  1  0  0  0  0
  6  8  1  0  0  0  0
  6  7  1  0  0  0  0
  6 22  1  0  0  0  0
  7  8  1  0  0  0  0
  7 23  1  0  0  0  0
  7 24  1  0  0  0  0
  8 25  1  0  0  0  0
  8 26  1  0  0  0  0
  9 10  2  0  0  0  0
  9 11  1  0  0  0  0
 11 12  1  0  0  0  0
 11 19  1  0  0  0  0
 12 13  1  0  0  0  0
 12 27  1  0  0  0  0
 12 28  1  0  0  0  0
 13 14  2  0  0  0  0
 13 15  1  0  0  0  0
 15 16  1  0  0  0  0
 15 29  1  0  0  0  0
 16 17  1  0  0  0  0
 16 18  2  0  0  0  0
 17 30  1  0  0  0  0
 17 31  1  0  0  0  0
 19 20  2  0  0  0  0
M  END
> <s_m_source_file>
AV-unprocessed.smi

> <i_m_source_file_index>
390

> <i_lp_mmshare_version>
43012

> <i_f3d_flags>
0

> <s_epik_input>
TiNDYzFbY0hdbihbQ0hdMltDSDJdW0NIMl0yKWMoPU8pbihjMT1PKVtDSDJdQyg9TylbTkhdQyg9TylbTkgyXQ==

> <s_epik_cmdline>
J2VwaWtfcHl0aG9uJywgJy1waCcsICc3LjAnLCAnLXRuJywgJzgnLCAnLW1hJywgJzIwMCcsICctbWV0YWxfYmluZGluZycsICctaW1hZScsICc8aW5maWxlLm1hZT4nLCAnLW9tYWUnLCAnPG91dGZpbGUubWFlPic=

> <r_lp_tautomer_probability>
1

> <r_epik_Ionization_Penalty>
3.12406e-05

> <r_epik_Ionization_Penalty_Charging>
4.21484e-11

> <r_epik_Ionization_Penalty_Neutral>
3.12406e-05

> <r_epik_State_Penalty>
-0

> <r_epik_Charging_Adjusted_Penalty>
4.21484e-11

> <i_epik_Tot_Q>
0

> <i_epik_Tot_abs_Q>
0

> <r_epik_Metal_State_Penalty>
-0

> <b_epik_Metal_Only>
0

> <s_lp_Force_Field>
OPLS_2005

> <r_lp_Energy>
30.8642

> <b_lp_Chiralities_Consistent>
1

> <s_lp_Variant>
AV-unprocessed.smi:390-1

> <Gold.Version>
5.8.1

> <Gold.Id.Protein>
6NUR|6NUR_protein|mol2

> <Gold.PLP.Fitness>
43.2654

> <Gold.PLP.PLP>
-33.9726

> <Gold.PLP.part.hbond>
-3.7621

> <Gold.PLP.part.metal>
0.0000

> <Gold.PLP.part.buried>
-4.5300

> <Gold.PLP.part.nonpolar>
-26.0034

> <Gold.PLP.part.repulsive>
0.2746

> <Gold.PLP.ligand.clash>
0.0000

> <Gold.PLP.ligand.torsion>
0.3326

> <Gold.PLP.Chemscore.Hbond>
2.2480

> <Gold.PLP.Chemscore.CHOScore>
1.0000

> <Gold.PLP.Chemscore.Metal>
0.0000

> <Gold.Chemscore.Hbonds>
donor molecule, donor type, donor heavy atom, donor atom, acceptor molecule, acceptor atom, score
      P1  H  6896  6908       L1    18  0.54
      P1  H  6896  6909       L1    14  0.95
      P1  H  8011  8017       L1     1  0.64
      L1  C     4    21       P1  8028  1.00

> <Gold.PLP.Chemscore.Internal.Correction>
0.2139

> <Gold.Rescore>
     Score         DG    S(hbond)    S(metal)    S(lipo)     H(rot)  DE(clash)    DE(int)     intcor
     10.19     -13.50       2.09        0.00      54.77       2.09       0.00       3.31       ----

> <Gold.Chemscore.Fitness>
10.1917

> <Gold.Chemscore.DG>
-13.5036

> <Gold.Chemscore.ZeroCoef>
-5.4800

> <Gold.Chemscore.Hbond>
2.0866

> <Gold.Chemscore.Metal>
0.0000

> <Gold.Chemscore.Lipo>
54.7688

> <Gold.Chemscore.Internal_Hbond>
0.0000

> <Gold.Chemscore.DEClash>
0.0000

> <Gold.Chemscore.DEInternal>
3.3119

> <Gold.Chemscore.Rot>
2.0913

> <Gold.Chemscore.Internal.Correction>
   9.000000E+99

> <Gold.Chemscore.Hbonds>
donor molecule, donor type, donor heavy atom, donor atom, acceptor molecule, acceptor atom, score
      P1  H  6896  6908       L1    18  0.51
      P1  H  6896  6909       L1    14  0.85
      P1  H  8011  8017       L1     1  0.59

> <Gold.Chemscore.Hbond.Weighted>
-6.9693

> <Gold.Chemscore.Metal.Weighted>
-0.0000

> <Gold.Chemscore.Lipo.Weighted>
-6.4079

> <Gold.Chemscore.Internal_Hbond.Weighted>
0.0000

> <Gold.Chemscore.DEClash.Weighted>
0.0000

> <Gold.Chemscore.DEInternal.Weighted>
3.3119

> <Gold.Chemscore.Rot.Weighted>
5.3537

> <Gold.Chemscore.Internal.Correction.Weighted>
   9.000000E+99

> <Gold.Protein.RotatedTorsions>
[ 6907 6896 6895 6894 ] final  138.25 input  -60.11 | X-H torsion
[ 7974 7965 7964 7962 ] final   -8.45 input  175.53 | X-H torsion
[ 8008 7997 7996 7995 ] final  -59.70 input   59.86 | X-H torsion
[ 10167 10162 10161 10158 ] final  154.12 input  -65.29 | X-H torsion
[ 10718 10713 10712 10709 ] final  -83.45 input   66.30 | X-H torsion
[ 10763 10752 10751 10750 ] final   79.17 input  -60.55 | X-H torsion
[ 11005 11000 10999 10996 ] final  124.49 input  -57.11 | X-H torsion

> <Gold.Protein.ActiveResidues>
 VAL166  LYS551  ARG553  GLY616  TRP617  ASP618  TYR619  PRO620  LYS621  CYS622 
 ASP623  PHE694  ASN695  SER759  ASP760  ASP761  ALA762  ILE779  LEU786  VAL792 
 PHE793  MET794  SER795  GLU796  ALA797  LYS798  CYS799  TRP800  GLU811  SER814 

> <Gold.Protein.RotatedAtoms>
  152.2688  133.5363  159.5425 H   0  0  0  0  0  0  0  0  0  0  0  0  # atno 6907 bound_to 6896
  150.7151  134.0727  159.3879 H   0  0  0  0  0  0  0  0  0  0  0  0  # atno 6908 bound_to 6896
  151.8643  135.0513  160.0523 H   0  0  0  0  0  0  0  0  0  0  0  0  # atno 6909 bound_to 6896
  146.2280  140.2470  142.8346 H   0  0  0  0  0  0  0  0  0  0  0  0  # atno 7974 bound_to 7965
  154.4364  140.1056  156.6157 H   0  0  0  0  0  0  0  0  0  0  0  0  # atno 8008 bound_to 7997
  155.5762  140.3490  155.4509 H   0  0  0  0  0  0  0  0  0  0  0  0  # atno 8009 bound_to 7997
  156.0353  140.1270  157.0204 H   0  0  0  0  0  0  0  0  0  0  0  0  # atno 8010 bound_to 7997
  139.4824  144.5214  151.7869 H   0  0  0  0  0  0  0  0  0  0  0  0  # atno 10167 bound_to 10162
  156.0018  130.4666  150.4260 H   0  0  0  0  0  0  0  0  0  0  0  0  # atno 10718 bound_to 10713
  153.0931  135.4850  154.8728 H   0  0  0  0  0  0  0  0  0  0  0  0  # atno 10763 bound_to 10752
  154.7293  135.3056  154.8921 H   0  0  0  0  0  0  0  0  0  0  0  0  # atno 10764 bound_to 10752
  153.9561  135.6817  153.4798 H   0  0  0  0  0  0  0  0  0  0  0  0  # atno 10765 bound_to 10752
  139.9361  134.9639  156.8417 H   0  0  0  0  0  0  0  0  0  0  0  0  # atno 11005 bound_to 11000
  144.9440  140.8109  143.5613 LP  0  0  0  0  0  0  0  0  0  0  0  0  # atno 17320 bound_to 7965
  145.2425  139.2066  143.4985 LP  0  0  0  0  0  0  0  0  0  0  0  0  # atno 17321 bound_to 7965
  140.4729  144.1561  150.5920 LP  0  0  0  0  0  0  0  0  0  0  0  0  # atno 17342 bound_to 10162
  140.4362  143.2546  151.9531 LP  0  0  0  0  0  0  0  0  0  0  0  0  # atno 17343 bound_to 10162
  157.2312  131.0504  151.2491 LP  0  0  0  0  0  0  0  0  0  0  0  0  # atno 17370 bound_to 10713
  157.3709  130.7180  149.6564 LP  0  0  0  0  0  0  0  0  0  0  0  0  # atno 17371 bound_to 10713
  140.6072  134.0116  155.7561 LP  0  0  0  0  0  0  0  0  0  0  0  0  # atno 17394 bound_to 11000
  141.0975  133.9820  157.3135 LP  0  0  0  0  0  0  0  0  0  0  0  0  # atno 17395 bound_to 11000

$$$$
