AV-unprocessed.smi:3173|AV-procd|sdf|12117|dock7
  -GOLD-   2272017553D 1   1.00000     0.00000
 Structure written by MMmdl.
 35 36  0  0  0  0  0  0  0  0  1 V2000
  153.9617  139.5226  158.5857 O   0  0  0  0  0  0  0  0  0  0  0  0
  153.6554  140.2977  159.4919 C   0  0  0  0  0  0  0  0  0  0  0  0
  152.6680  141.4409  159.2330 C   0  0  0  0  0  0  0  0  0  0  0  0
  153.0868  142.7684  159.8990 C   0  0  2  0  0  0  0  0  0  0  0  0
  152.7182  142.8192  161.3593 C   0  0  0  0  0  0  0  0  0  0  0  0
  152.0586  143.9286  161.6857 C   0  0  0  0  0  0  0  0  0  0  0  0
  151.8515  144.8415  160.5092 C   0  0  0  0  0  0  0  0  0  0  0  0
  152.3945  144.0287  159.3133 C   0  0  0  0  0  0  0  0  0  0  0  0
  154.1427  140.2011  160.7383 N   0  0  0  0  0  0  0  0  0  0  0  0
  155.0579  139.1641  161.2003 C   0  0  0  0  0  0  0  0  0  0  0  0
  154.6202  137.7727  160.7129 C   0  0  0  0  0  0  0  0  0  0  0  0
  154.4540  136.7881  161.8547 C   0  0  0  0  0  0  0  0  0  0  0  0
  154.0002  137.2217  163.1186 C   0  0  0  0  0  0  0  0  0  0  0  0
  153.8604  136.2678  164.1450 C   0  0  0  0  0  0  0  0  0  0  0  0
  154.1768  134.9236  163.8692 C   0  0  0  0  0  0  0  0  0  0  0  0
  154.6192  134.5918  162.5730 C   0  0  0  0  0  0  0  0  0  0  0  0
  154.7564  135.4985  161.5814 N   0  0  0  0  0  0  0  0  0  0  0  0
  152.5515  141.5895  158.1580 H   0  0  0  0  0  0  0  0  0  0  0  0
  151.6918  141.1321  159.6084 H   0  0  0  0  0  0  0  0  0  0  0  0
  154.1702  142.8850  159.8441 H   0  0  0  0  0  0  0  0  0  0  0  0
  152.9895  142.0334  162.0490 H   0  0  0  0  0  0  0  0  0  0  0  0
  151.7136  144.1793  162.6779 H   0  0  0  0  0  0  0  0  0  0  0  0
  150.7960  145.0872  160.3889 H   0  0  0  0  0  0  0  0  0  0  0  0
  152.4118  145.7653  160.6567 H   0  0  0  0  0  0  0  0  0  0  0  0
  153.0829  144.6169  158.7057 H   0  0  0  0  0  0  0  0  0  0  0  0
  151.5620  143.7461  158.6675 H   0  0  0  0  0  0  0  0  0  0  0  0
  153.8422  140.8819  161.4208 H   0  0  0  0  0  0  0  0  0  0  0  0
  156.0740  139.3834  160.8678 H   0  0  0  0  0  0  0  0  0  0  0  0
  155.0755  139.1898  162.2901 H   0  0  0  0  0  0  0  0  0  0  0  0
  153.6768  137.8470  160.1700 H   0  0  0  0  0  0  0  0  0  0  0  0
  155.3485  137.3743  160.0053 H   0  0  0  0  0  0  0  0  0  0  0  0
  153.7637  138.2602  163.2986 H   0  0  0  0  0  0  0  0  0  0  0  0
  153.5165  136.5621  165.1255 H   0  0  0  0  0  0  0  0  0  0  0  0
  154.0819  134.1652  164.6321 H   0  0  0  0  0  0  0  0  0  0  0  0
  154.8695  133.5707  162.3260 H   0  0  0  0  0  0  0  0  0  0  0  0
  1  2  2  0  0  0  0
  2  3  1  0  0  0  0
  2  9  1  0  0  0  0
  3  4  1  0  0  0  0
  3 18  1  0  0  0  0
  3 19  1  0  0  0  0
  4  8  1  0  0  0  0
  4  5  1  0  0  0  0
  4 20  1  0  0  0  0
  5  6  2  0  0  0  0
  5 21  1  0  0  0  0
  6  7  1  0  0  0  0
  6 22  1  0  0  0  0
  7  8  1  0  0  0  0
  7 23  1  0  0  0  0
  7 24  1  0  0  0  0
  8 25  1  0  0  0  0
  8 26  1  0  0  0  0
  9 10  1  0  0  0  0
  9 27  1  0  0  0  0
 10 11  1  0  0  0  0
 10 28  1  0  0  0  0
 10 29  1  0  0  0  0
 11 12  1  0  0  0  0
 11 30  1  0  0  0  0
 11 31  1  0  0  0  0
 12 17  1  0  0  0  0
 12 13  2  0  0  0  0
 13 14  1  0  0  0  0
 13 32  1  0  0  0  0
 14 15  2  0  0  0  0
 14 33  1  0  0  0  0
 15 16  1  0  0  0  0
 15 34  1  0  0  0  0
 16 17  2  0  0  0  0
 16 35  1  0  0  0  0
M  END
> <s_m_source_file>
AV-unprocessed.smi

> <i_m_source_file_index>
3173

> <i_lp_mmshare_version>
43012

> <i_f3d_flags>
0

> <s_epik_input>
W0NIMl0xW0NIMl1bQ0hdPVtDSF1bQ0BIXTFbQ0gyXUMoPU8pW05IXVtDSDJdW0NIMl1jMltjSF1bY0hdW2NIXVtjSF1uMg==

> <s_epik_cmdline>
J2VwaWtfcHl0aG9uJywgJy1waCcsICc3LjAnLCAnLXRuJywgJzgnLCAnLW1hJywgJzIwMCcsICctbWV0YWxfYmluZGluZycsICctaW1hZScsICc8aW5maWxlLm1hZT4nLCAnLW9tYWUnLCAnPG91dGZpbGUubWFlPic=

> <r_epik_Ionization_Penalty>
0.0258754

> <r_epik_Ionization_Penalty_Charging>
0

> <r_epik_Ionization_Penalty_Neutral>
0.0258754

> <r_epik_State_Penalty>
0.0210899

> <r_epik_Charging_Adjusted_Penalty>
0.0210899

> <i_epik_Tot_Q>
0

> <i_epik_Tot_abs_Q>
0

> <r_epik_Metal_State_Penalty>
0.0202045

> <b_epik_Metal_Only>
0

> <s_lp_Force_Field>
OPLS_2005

> <r_lp_Energy>
13.7226

> <b_lp_Chiralities_Consistent>
1

> <s_lp_Variant>
AV-unprocessed.smi:3173-1

> <Gold.Version>
5.8.1

> <Gold.Id.Protein>
6NUR|6NUR_protein|mol2

> <Gold.PLP.Fitness>
44.4822

> <Gold.PLP.PLP>
-43.9916

> <Gold.PLP.part.hbond>
-1.0000

> <Gold.PLP.part.metal>
0.0000

> <Gold.PLP.part.buried>
-4.8362

> <Gold.PLP.part.nonpolar>
-37.2200

> <Gold.PLP.part.repulsive>
0.0299

> <Gold.PLP.ligand.clash>
0.0000

> <Gold.PLP.ligand.torsion>
1.2662

> <Gold.PLP.Chemscore.Hbond>
1.0000

> <Gold.PLP.Chemscore.CHOScore>
0.0000

> <Gold.PLP.Chemscore.Metal>
0.0000

> <Gold.Chemscore.Hbonds>
donor molecule, donor type, donor heavy atom, donor atom, acceptor molecule, acceptor atom, score
      P1  H  7997  8009       L1     1  1.00

> <Gold.PLP.Chemscore.Internal.Correction>
0.0230

> <Gold.Rescore>
     Score         DG    S(hbond)    S(metal)    S(lipo)     H(rot)  DE(clash)    DE(int)     intcor
     17.17     -19.70       0.99        0.00     126.24       1.50       0.08       2.44       ----

> <Gold.Chemscore.Fitness>
17.1744

> <Gold.Chemscore.DG>
-19.6958

> <Gold.Chemscore.ZeroCoef>
-5.4800

> <Gold.Chemscore.Hbond>
0.9865

> <Gold.Chemscore.Metal>
0.0000

> <Gold.Chemscore.Lipo>
126.2430

> <Gold.Chemscore.Internal_Hbond>
0.0000

> <Gold.Chemscore.DEClash>
0.0821

> <Gold.Chemscore.DEInternal>
2.4393

> <Gold.Chemscore.Rot>
1.5037

> <Gold.Chemscore.Internal.Correction>
   9.000000E+99

> <Gold.Chemscore.Hbonds>
donor molecule, donor type, donor heavy atom, donor atom, acceptor molecule, acceptor atom, score
      P1  H  7997  8009       L1     1  0.98

> <Gold.Chemscore.Hbond.Weighted>
-3.2948

> <Gold.Chemscore.Metal.Weighted>
-0.0000

> <Gold.Chemscore.Lipo.Weighted>
-14.7704

> <Gold.Chemscore.Internal_Hbond.Weighted>
0.0000

> <Gold.Chemscore.DEClash.Weighted>
0.0821

> <Gold.Chemscore.DEInternal.Weighted>
2.4393

> <Gold.Chemscore.Rot.Weighted>
3.8494

> <Gold.Chemscore.Internal.Correction.Weighted>
   9.000000E+99

> <Gold.Protein.RotatedTorsions>
[ 6907 6896 6895 6894 ] final -115.55 input  -60.11 | X-H torsion
[ 7974 7965 7964 7962 ] final   51.46 input  175.53 | X-H torsion
[ 8008 7997 7996 7995 ] final  126.22 input   59.86 | X-H torsion
[ 10167 10162 10161 10158 ] final  -66.41 input  -65.29 | X-H torsion
[ 10718 10713 10712 10709 ] final  137.15 input   66.30 | X-H torsion
[ 10763 10752 10751 10750 ] final  -45.65 input  -60.55 | X-H torsion
[ 11005 11000 10999 10996 ] final  132.27 input  -57.11 | X-H torsion

> <Gold.Protein.ActiveResidues>
 VAL166  LYS551  ARG553  GLY616  TRP617  ASP618  TYR619  PRO620  LYS621  CYS622 
 ASP623  PHE694  ASN695  SER759  ASP760  ASP761  ALA762  ILE779  LEU786  VAL792 
 PHE793  MET794  SER795  GLU796  ALA797  LYS798  CYS799  TRP800  GLU811  SER814 

> <Gold.Protein.RotatedAtoms>
  150.7986  133.8643  159.3240 H   0  0  0  0  0  0  0  0  0  0  0  0  # atno 6907 bound_to 6896
  151.6461  135.1005  160.0161 H   0  0  0  0  0  0  0  0  0  0  0  0  # atno 6908 bound_to 6896
  152.4071  133.6866  159.6401 H   0  0  0  0  0  0  0  0  0  0  0  0  # atno 6909 bound_to 6896
  145.9911  139.4340  143.0073 H   0  0  0  0  0  0  0  0  0  0  0  0  # atno 7974 bound_to 7965
  156.2857  140.2698  156.2076 H   0  0  0  0  0  0  0  0  0  0  0  0  # atno 8008 bound_to 7997
  155.0297  140.0386  157.2487 H   0  0  0  0  0  0  0  0  0  0  0  0  # atno 8009 bound_to 7997
  154.7365  140.2717  155.6415 H   0  0  0  0  0  0  0  0  0  0  0  0  # atno 8010 bound_to 7997
  140.5659  143.2315  151.6636 H   0  0  0  0  0  0  0  0  0  0  0  0  # atno 10167 bound_to 10162
  157.4391  131.1056  151.0164 H   0  0  0  0  0  0  0  0  0  0  0  0  # atno 10718 bound_to 10713
  154.0320  135.6655  153.4781 H   0  0  0  0  0  0  0  0  0  0  0  0  # atno 10763 bound_to 10752
  153.0536  135.5069  154.7924 H   0  0  0  0  0  0  0  0  0  0  0  0  # atno 10764 bound_to 10752
  154.6872  135.3055  154.9495 H   0  0  0  0  0  0  0  0  0  0  0  0  # atno 10765 bound_to 10752
  139.9780  134.9557  156.9558 H   0  0  0  0  0  0  0  0  0  0  0  0  # atno 11005 bound_to 11000
  145.7628  140.9928  143.1191 LP  0  0  0  0  0  0  0  0  0  0  0  0  # atno 17320 bound_to 7965
  144.6889  139.9351  143.7473 LP  0  0  0  0  0  0  0  0  0  0  0  0  # atno 17321 bound_to 7965
  139.5092  144.3583  152.0586 LP  0  0  0  0  0  0  0  0  0  0  0  0  # atno 17342 bound_to 10162
  140.2715  144.3959  150.6150 LP  0  0  0  0  0  0  0  0  0  0  0  0  # atno 17343 bound_to 10162
  157.1033  130.5991  149.5465 LP  0  0  0  0  0  0  0  0  0  0  0  0  # atno 17370 bound_to 10713
  155.9942  130.5005  150.7409 LP  0  0  0  0  0  0  0  0  0  0  0  0  # atno 17371 bound_to 10713
  140.5155  134.0959  155.7280 LP  0  0  0  0  0  0  0  0  0  0  0  0  # atno 17394 bound_to 11000
  141.1455  133.9063  157.2226 LP  0  0  0  0  0  0  0  0  0  0  0  0  # atno 17395 bound_to 11000

$$$$
