AV-unprocessed.smi:285|AV-procd|sdf|2171|dock6
  -GOLD-   2262021533D 1   1.00000     0.00000
 Structure written by MMmdl.
 31 33  0  0  0  0  0  0  0  0  1 V2000
  156.7841  139.9769  162.1572 N   0  0  0  0  0  0  0  0  0  0  0  0
  155.7963  139.8169  161.2651 C   0  0  0  0  0  0  0  0  0  0  0  0
  155.8458  138.7485  160.4357 N   0  0  0  0  0  0  0  0  0  0  0  0
  154.8722  138.5647  159.5380 C   0  0  0  0  0  0  0  0  0  0  0  0
  153.7891  139.3139  159.3142 N   0  0  0  0  0  0  0  0  0  0  0  0
  153.7398  140.3928  160.1500 C   0  0  0  0  0  0  0  0  0  0  0  0
  154.7036  140.7131  161.1511 C   0  0  0  0  0  0  0  0  0  0  0  0
  154.3372  141.8767  161.8157 N   0  0  0  0  0  0  0  0  0  0  0  0
  153.2213  142.2044  161.2266 C   0  0  0  0  0  0  0  0  0  0  0  0
  152.2613  143.7546  161.7770 Br  0  0  0  0  0  0  0  0  0  0  0  0
  152.7778  141.3814  160.2158 N   0  0  0  0  0  0  0  0  0  0  0  0
  151.5496  141.5039  159.3730 C   0  0  2  0  0  0  0  0  0  0  0  0
  151.9009  141.6942  157.9055 C   0  0  0  0  0  0  0  0  0  0  0  0
  150.6236  142.3439  157.4208 C   0  0  2  0  0  0  0  0  0  0  0  0
  150.8210  143.0251  156.1978 O   0  0  0  0  0  0  0  0  0  0  0  0
  150.2214  143.2363  158.6157 C   0  0  2  0  0  0  0  0  0  0  0  0
  150.6965  144.7017  158.5533 C   0  0  0  0  0  0  0  0  0  0  0  0
  149.8830  145.5276  159.3609 O   0  0  0  0  0  0  0  0  0  0  0  0
  150.8452  142.6416  159.7577 O   0  0  0  0  0  0  0  0  0  0  0  0
  156.7698  140.7657  162.7878 H   0  0  0  0  0  0  0  0  0  0  0  0
  157.5402  139.3089  162.1975 H   0  0  0  0  0  0  0  0  0  0  0  0
  154.9750  137.6928  158.9091 H   0  0  0  0  0  0  0  0  0  0  0  0
  150.9525  140.6124  159.5638 H   0  0  0  0  0  0  0  0  0  0  0  0
  152.7516  142.3709  157.8089 H   0  0  0  0  0  0  0  0  0  0  0  0
  152.1318  140.7443  157.4227 H   0  0  0  0  0  0  0  0  0  0  0  0
  149.8640  141.5744  157.2750 H   0  0  0  0  0  0  0  0  0  0  0  0
  150.3113  143.8211  156.2127 H   0  0  0  0  0  0  0  0  0  0  0  0
  149.1407  143.2076  158.7616 H   0  0  0  0  0  0  0  0  0  0  0  0
  151.7158  144.7768  158.9328 H   0  0  0  0  0  0  0  0  0  0  0  0
  150.7108  145.0732  157.5281 H   0  0  0  0  0  0  0  0  0  0  0  0
  149.0596  145.6626  158.9172 H   0  0  0  0  0  0  0  0  0  0  0  0
  1  2  1  0  0  0  0
  1 20  1  0  0  0  0
  1 21  1  0  0  0  0
  2  7  1  0  0  0  0
  2  3  2  0  0  0  0
  3  4  1  0  0  0  0
  4  5  2  0  0  0  0
  4 22  1  0  0  0  0
  5  6  1  0  0  0  0
  6 11  1  0  0  0  0
  6  7  2  0  0  0  0
  7  8  1  0  0  0  0
  8  9  2  0  0  0  0
  9 10  1  0  0  0  0
  9 11  1  0  0  0  0
 11 12  1  0  0  0  0
 12 19  1  0  0  0  0
 12 13  1  0  0  0  0
 12 23  1  0  0  0  0
 13 14  1  0  0  0  0
 13 24  1  0  0  0  0
 13 25  1  0  0  0  0
 14 15  1  0  0  0  0
 14 16  1  0  0  0  0
 14 26  1  0  0  0  0
 15 27  1  0  0  0  0
 16 17  1  0  0  0  0
 16 19  1  0  0  0  0
 16 28  1  0  0  0  0
 17 18  1  0  0  0  0
 17 29  1  0  0  0  0
 17 30  1  0  0  0  0
 18 31  1  0  0  0  0
M  END
> <s_m_source_file>
AV-unprocessed.smi

> <i_m_source_file_index>
285

> <i_lp_mmshare_version>
43012

> <i_f3d_flags>
0

> <s_epik_input>
bjFbY0hdbmMoW05IMl0pYyhjMTIpbmMoQnIpbjJbQ0BASF0zW0NIMl1bQ0BASF0oW09IXSlbQ0BIXShPMylbQ0gyXVtPSF0=

> <s_epik_cmdline>
J2VwaWtfcHl0aG9uJywgJy1waCcsICc3LjAnLCAnLXRuJywgJzgnLCAnLW1hJywgJzIwMCcsICctbWV0YWxfYmluZGluZycsICctaW1hZScsICc8aW5maWxlLm1hZT4nLCAnLW9tYWUnLCAnPG91dGZpbGUubWFlPic=

> <r_lp_tautomer_probability>
1

> <r_epik_Ionization_Penalty>
0.000103242

> <r_epik_Ionization_Penalty_Charging>
0

> <r_epik_Ionization_Penalty_Neutral>
0.000103242

> <r_epik_State_Penalty>
-0

> <r_epik_Charging_Adjusted_Penalty>
0

> <i_epik_Tot_Q>
0

> <i_epik_Tot_abs_Q>
0

> <r_epik_Metal_State_Penalty>
-0

> <b_epik_Metal_Only>
0

> <s_epik_Chemistry_Notes>
This compound contains an acetal/aminal-like group ( X-CH(R)-Y where X, Y are N, S, or O) that may be acid/base labile, releasing an aldehyde.

> <s_lp_Force_Field>
OPLS_2005

> <r_lp_Energy>
36.2712

> <b_lp_Chiralities_Consistent>
1

> <s_lp_Variant>
AV-unprocessed.smi:285-7

> <Gold.Version>
5.8.1

> <Gold.Id.Protein>
6NUR|6NUR_protein|mol2

> <Gold.PLP.Fitness>
37.7717

> <Gold.PLP.PLP>
-32.3329

> <Gold.PLP.part.hbond>
-5.9312

> <Gold.PLP.part.metal>
0.0000

> <Gold.PLP.part.buried>
-0.9436

> <Gold.PLP.part.nonpolar>
-25.9049

> <Gold.PLP.part.repulsive>
0.0118

> <Gold.PLP.ligand.clash>
0.0000

> <Gold.PLP.ligand.torsion>
0.2741

> <Gold.PLP.Chemscore.Hbond>
1.9920

> <Gold.PLP.Chemscore.CHOScore>
0.0000

> <Gold.PLP.Chemscore.Metal>
0.0000

> <Gold.Chemscore.Hbonds>
donor molecule, donor type, donor heavy atom, donor atom, acceptor molecule, acceptor atom, score
      L1  H    15    27       P1  8028  0.99
      L1  H    18    31       P1  8029  1.00

> <Gold.PLP.Chemscore.Internal.Correction>
0.0110

> <Gold.Rescore>
     Score         DG    S(hbond)    S(metal)    S(lipo)     H(rot)  DE(clash)    DE(int)     intcor
      7.64     -10.13       1.94        0.00      51.41       3.06       0.69       1.79       ----

> <Gold.Chemscore.Fitness>
7.6416

> <Gold.Chemscore.DG>
-10.1258

> <Gold.Chemscore.ZeroCoef>
-5.4800

> <Gold.Chemscore.Hbond>
1.9358

> <Gold.Chemscore.Metal>
0.0000

> <Gold.Chemscore.Lipo>
51.4145

> <Gold.Chemscore.Internal_Hbond>
0.0000

> <Gold.Chemscore.DEClash>
0.6929

> <Gold.Chemscore.DEInternal>
1.7912

> <Gold.Chemscore.Rot>
3.0607

> <Gold.Chemscore.Internal.Correction>
   9.000000E+99

> <Gold.Chemscore.Hbonds>
donor molecule, donor type, donor heavy atom, donor atom, acceptor molecule, acceptor atom, score
      L1  H    15    27       P1  8028  0.94
      L1  H    18    31       P1  8029  0.91

> <Gold.Chemscore.Hbond.Weighted>
-6.4656

> <Gold.Chemscore.Metal.Weighted>
-0.0000

> <Gold.Chemscore.Lipo.Weighted>
-6.0155

> <Gold.Chemscore.Internal_Hbond.Weighted>
0.0000

> <Gold.Chemscore.DEClash.Weighted>
0.6929

> <Gold.Chemscore.DEInternal.Weighted>
1.7912

> <Gold.Chemscore.Rot.Weighted>
7.8354

> <Gold.Chemscore.Internal.Correction.Weighted>
   9.000000E+99

> <Gold.Protein.RotatedTorsions>
[ 6907 6896 6895 6894 ] final   -9.62 input  -60.11 | X-H torsion
[ 7974 7965 7964 7962 ] final  151.80 input  175.53 | X-H torsion
[ 8008 7997 7996 7995 ] final  122.91 input   59.86 | X-H torsion
[ 10167 10162 10161 10158 ] final   59.62 input  -65.29 | X-H torsion
[ 10718 10713 10712 10709 ] final -104.36 input   66.30 | X-H torsion
[ 10763 10752 10751 10750 ] final   82.02 input  -60.55 | X-H torsion
[ 11005 11000 10999 10996 ] final -139.00 input  -57.11 | X-H torsion

> <Gold.Protein.ActiveResidues>
 VAL166  LYS551  ARG553  GLY616  TRP617  ASP618  TYR619  PRO620  LYS621  CYS622 
 ASP623  PHE694  ASN695  SER759  ASP760  ASP761  ALA762  ILE779  LEU786  VAL792 
 PHE793  MET794  SER795  GLU796  ALA797  LYS798  CYS799  TRP800  GLU811  SER814 

> <Gold.Protein.RotatedAtoms>
  151.4149  135.0990  159.9596 H   0  0  0  0  0  0  0  0  0  0  0  0  # atno 6907 bound_to 6896
  152.5008  133.8762  159.7334 H   0  0  0  0  0  0  0  0  0  0  0  0  # atno 6908 bound_to 6896
  150.9265  133.6760  159.2848 H   0  0  0  0  0  0  0  0  0  0  0  0  # atno 6909 bound_to 6896
  144.8267  139.6585  143.6077 H   0  0  0  0  0  0  0  0  0  0  0  0  # atno 7974 bound_to 7965
  156.2746  140.2775  156.1543 H   0  0  0  0  0  0  0  0  0  0  0  0  # atno 8008 bound_to 7997
  155.0820  140.0388  157.2660 H   0  0  0  0  0  0  0  0  0  0  0  0  # atno 8009 bound_to 7997
  154.6957  140.2638  155.6774 H   0  0  0  0  0  0  0  0  0  0  0  0  # atno 8010 bound_to 7997
  140.1744  144.4245  150.6645 H   0  0  0  0  0  0  0  0  0  0  0  0  # atno 10167 bound_to 10162
  156.0301  130.5511  150.7386 H   0  0  0  0  0  0  0  0  0  0  0  0  # atno 10718 bound_to 10713
  153.1166  135.4744  154.9126 H   0  0  0  0  0  0  0  0  0  0  0  0  # atno 10763 bound_to 10752
  154.7534  135.3112  154.8517 H   0  0  0  0  0  0  0  0  0  0  0  0  # atno 10764 bound_to 10752
  153.9092  135.6867  153.4805 H   0  0  0  0  0  0  0  0  0  0  0  0  # atno 10765 bound_to 10752
  140.8562  134.2225  157.4733 H   0  0  0  0  0  0  0  0  0  0  0  0  # atno 11005 bound_to 11000
  146.2572  139.6328  142.9387 LP  0  0  0  0  0  0  0  0  0  0  0  0  # atno 17320 bound_to 7965
  145.4985  141.0438  143.2553 LP  0  0  0  0  0  0  0  0  0  0  0  0  # atno 17321 bound_to 7965
  140.6561  143.2238  151.5965 LP  0  0  0  0  0  0  0  0  0  0  0  0  # atno 17342 bound_to 10162
  139.5324  144.2879  152.1176 LP  0  0  0  0  0  0  0  0  0  0  0  0  # atno 17343 bound_to 10162
  157.4960  131.0915  151.0371 LP  0  0  0  0  0  0  0  0  0  0  0  0  # atno 17370 bound_to 10713
  157.0764  130.5885  149.5412 LP  0  0  0  0  0  0  0  0  0  0  0  0  # atno 17371 bound_to 10713
  139.8705  134.9707  156.4712 LP  0  0  0  0  0  0  0  0  0  0  0  0  # atno 17394 bound_to 11000
  140.8735  133.7971  155.9389 LP  0  0  0  0  0  0  0  0  0  0  0  0  # atno 17395 bound_to 11000

$$$$
