AV-unprocessed.smi:2505|AV-procd|sdf|9858|dock1
  -GOLD-   2272013483D 1   1.00000     0.00000
 Structure written by MMmdl.
 48 52  0  0  0  0  0  0  0  0  1 V2000
  147.5273  138.2835  152.6875 O   0  0  0  0  0  0  0  0  0  0  0  0
  146.4563  138.8843  152.7326 C   0  0  0  0  0  0  0  0  0  0  0  0
  145.2549  138.3336  152.4722 N   0  0  0  0  0  0  0  0  0  0  0  0
  144.9486  136.9837  152.1558 C   0  0  0  0  0  0  0  0  0  0  0  0
  143.7086  136.4510  152.5664 C   0  0  0  0  0  0  0  0  0  0  0  0
  143.3604  135.1711  152.3145 N   0  0  0  0  0  0  0  0  0  0  0  0
  144.2565  134.4184  151.6704 C   0  0  0  0  0  0  0  0  0  0  0  0
  143.8526  133.0118  151.3542 C   0  0  0  0  0  0  0  0  0  0  0  0
  144.8674  132.0022  150.8575 C   0  0  0  0  0  0  0  0  0  0  0  0
  143.8135  132.5229  149.9206 C   0  0  0  0  0  0  0  0  0  0  0  0
  145.4571  134.8086  151.2337 N   0  0  0  0  0  0  0  0  0  0  0  0
  145.8129  136.0885  151.4789 C   0  0  0  0  0  0  0  0  0  0  0  0
  146.4011  140.1891  153.0517 N   0  0  0  0  0  0  0  0  0  0  0  0
  147.5187  141.0808  153.3883 C   0  0  1  0  0  0  0  0  0  0  0  0
  147.0775  142.4226  154.0234 C   0  0  1  0  0  0  0  0  0  0  0  0
  145.6474  142.9068  154.0304 C   0  0  0  0  0  0  0  0  0  0  0  0
  145.1390  142.4559  155.4030 C   0  0  0  0  0  0  0  0  0  0  0  0
  146.0392  141.4273  155.8094 O   0  0  0  0  0  0  0  0  0  0  0  0
  147.3476  141.7990  155.3834 C   0  0  1  0  0  0  0  0  0  0  0  0
  148.1948  140.6916  154.7246 C   0  0  0  0  0  0  0  0  0  0  0  0
  148.0641  139.2712  155.2787 C   0  0  0  0  0  0  0  0  0  0  0  0
  149.1332  139.1078  156.3637 C   0  0  0  0  0  0  0  0  0  0  0  0
  150.1786  140.1915  156.0838 C   0  0  0  0  0  0  0  0  0  0  0  0
  149.7056  140.8973  154.8112 C   0  0  0  0  0  0  0  0  0  0  0  0
  144.4700  138.9687  152.4718 H   0  0  0  0  0  0  0  0  0  0  0  0
  142.9880  137.0557  153.0973 H   0  0  0  0  0  0  0  0  0  0  0  0
  143.0766  132.6610  152.0319 H   0  0  0  0  0  0  0  0  0  0  0  0
  145.8889  132.3430  150.6997 H   0  0  0  0  0  0  0  0  0  0  0  0
  144.7667  130.9772  151.2083 H   0  0  0  0  0  0  0  0  0  0  0  0
  143.0068  131.8473  149.6440 H   0  0  0  0  0  0  0  0  0  0  0  0
  144.1348  133.2100  149.1400 H   0  0  0  0  0  0  0  0  0  0  0  0
  146.7986  136.3686  151.1427 H   0  0  0  0  0  0  0  0  0  0  0  0
  145.4838  140.6113  153.0689 H   0  0  0  0  0  0  0  0  0  0  0  0
  148.2463  141.2075  152.5849 H   0  0  0  0  0  0  0  0  0  0  0  0
  147.8038  143.2068  153.8038 H   0  0  0  0  0  0  0  0  0  0  0  0
  145.5807  143.9900  153.9266 H   0  0  0  0  0  0  0  0  0  0  0  0
  145.0568  142.4705  153.2264 H   0  0  0  0  0  0  0  0  0  0  0  0
  145.1931  143.2764  156.1198 H   0  0  0  0  0  0  0  0  0  0  0  0
  144.1104  142.0962  155.3725 H   0  0  0  0  0  0  0  0  0  0  0  0
  147.8659  142.4568  156.0827 H   0  0  0  0  0  0  0  0  0  0  0  0
  147.0692  139.0599  155.6717 H   0  0  0  0  0  0  0  0  0  0  0  0
  148.2468  138.5457  154.4847 H   0  0  0  0  0  0  0  0  0  0  0  0
  148.6984  139.2575  157.3527 H   0  0  0  0  0  0  0  0  0  0  0  0
  149.5677  138.1078  156.3435 H   0  0  0  0  0  0  0  0  0  0  0  0
  150.2067  140.8982  156.9141 H   0  0  0  0  0  0  0  0  0  0  0  0
  151.1814  139.7792  155.9685 H   0  0  0  0  0  0  0  0  0  0  0  0
  150.1915  140.4430  153.9465 H   0  0  0  0  0  0  0  0  0  0  0  0
  149.9876  141.9510  154.8118 H   0  0  0  0  0  0  0  0  0  0  0  0
  1  2  2  0  0  0  0
  2  3  1  0  0  0  0
  2 13  1  0  0  0  0
  3  4  1  0  0  0  0
  3 25  1  0  0  0  0
  4 12  1  0  0  0  0
  4  5  2  0  0  0  0
  5  6  1  0  0  0  0
  5 26  1  0  0  0  0
  6  7  2  0  0  0  0
  7  8  1  0  0  0  0
  7 11  1  0  0  0  0
  8 10  1  0  0  0  0
  8  9  1  0  0  0  0
  8 27  1  0  0  0  0
  9 10  1  0  0  0  0
  9 28  1  0  0  0  0
  9 29  1  0  0  0  0
 10 30  1  0  0  0  0
 10 31  1  0  0  0  0
 11 12  2  0  0  0  0
 12 32  1  0  0  0  0
 13 14  1  0  0  0  0
 13 33  1  0  0  0  0
 14 20  1  0  0  0  0
 14 15  1  0  0  0  0
 14 34  1  0  0  0  0
 15 19  1  0  0  0  0
 15 16  1  0  0  0  0
 15 35  1  0  0  0  0
 16 17  1  0  0  0  0
 16 36  1  0  0  0  0
 16 37  1  0  0  0  0
 17 18  1  0  0  0  0
 17 38  1  0  0  0  0
 17 39  1  0  0  0  0
 18 19  1  0  0  0  0
 19 20  1  0  0  0  0
 19 40  1  0  0  0  0
 20 24  1  0  0  0  0
 20 21  1  0  0  0  0
 21 22  1  0  0  0  0
 21 41  1  0  0  0  0
 21 42  1  0  0  0  0
 22 23  1  0  0  0  0
 22 43  1  0  0  0  0
 22 44  1  0  0  0  0
 23 24  1  0  0  0  0
 23 45  1  0  0  0  0
 23 46  1  0  0  0  0
 24 47  1  0  0  0  0
 24 48  1  0  0  0  0
M  END
> <s_m_source_file>
AV-unprocessed.smi

> <i_m_source_file_index>
2505

> <i_lp_mmshare_version>
43012

> <i_f3d_flags>
0

> <s_epik_input>
W0NIMl0xW0NIMl1bQ0hdMWMobltjSF0yKW5bY0hdYzJbTkhdQyg9TylbTkhdW0NAQEhdM1tDQEBIXShbQ0gyXVtDSDJdTzQpW0NASF00QzM1W0NIMl1bQ0gyXVtDSDJdW0NIMl01

> <s_epik_cmdline>
J2VwaWtfcHl0aG9uJywgJy1waCcsICc3LjAnLCAnLXRuJywgJzgnLCAnLW1hJywgJzIwMCcsICctbWV0YWxfYmluZGluZycsICctaW1hZScsICc8aW5maWxlLm1hZT4nLCAnLW9tYWUnLCAnPG91dGZpbGUubWFlPic=

> <r_lp_tautomer_probability>
1

> <r_epik_Ionization_Penalty>
2.6075e-05

> <r_epik_Ionization_Penalty_Charging>
0

> <r_epik_Ionization_Penalty_Neutral>
2.6075e-05

> <r_epik_State_Penalty>
-0

> <r_epik_Charging_Adjusted_Penalty>
0

> <i_epik_Tot_Q>
0

> <i_epik_Tot_abs_Q>
0

> <r_epik_Metal_State_Penalty>
-0

> <b_epik_Metal_Only>
0

> <s_lp_Force_Field>
OPLS_2005

> <r_lp_Energy>
64.3287

> <b_lp_Chiralities_Consistent>
1

> <s_lp_Variant>
AV-unprocessed.smi:2505-6

> <Gold.Version>
5.8.1

> <Gold.Id.Protein>
6NUR|6NUR_protein|mol2

> <Gold.PLP.Fitness>
45.6223

> <Gold.PLP.PLP>
-37.5110

> <Gold.PLP.part.hbond>
-3.0000

> <Gold.PLP.part.metal>
0.0000

> <Gold.PLP.part.buried>
-4.2268

> <Gold.PLP.part.nonpolar>
-35.3015

> <Gold.PLP.part.repulsive>
4.3306

> <Gold.PLP.ligand.clash>
0.0000

> <Gold.PLP.ligand.torsion>
0.4455

> <Gold.PLP.Chemscore.Hbond>
1.8960

> <Gold.PLP.Chemscore.CHOScore>
1.0000

> <Gold.PLP.Chemscore.Metal>
0.0000

> <Gold.Chemscore.Hbonds>
donor molecule, donor type, donor heavy atom, donor atom, acceptor molecule, acceptor atom, score
      L1  H     3    25       P1 10175  1.00
      L1  H    13    33       P1 10175  0.93
      L1  C    12    32       P1  7948  1.00

> <Gold.PLP.Chemscore.Internal.Correction>
0.3143

> <Gold.Rescore>
     Score         DG    S(hbond)    S(metal)    S(lipo)     H(rot)  DE(clash)    DE(int)     intcor
     14.23     -19.21       1.81        0.00      91.42       1.17       1.37       3.61       ----

> <Gold.Chemscore.Fitness>
14.2319

> <Gold.Chemscore.DG>
-19.2129

> <Gold.Chemscore.ZeroCoef>
-5.4800

> <Gold.Chemscore.Hbond>
1.8095

> <Gold.Chemscore.Metal>
0.0000

> <Gold.Chemscore.Lipo>
91.4169

> <Gold.Chemscore.Internal_Hbond>
0.0000

> <Gold.Chemscore.DEClash>
1.3727

> <Gold.Chemscore.DEInternal>
3.6084

> <Gold.Chemscore.Rot>
1.1744

> <Gold.Chemscore.Internal.Correction>
   9.000000E+99

> <Gold.Chemscore.Hbonds>
donor molecule, donor type, donor heavy atom, donor atom, acceptor molecule, acceptor atom, score
      L1  H     3    25       P1 10175  0.99
      L1  H    13    33       P1 10175  0.73

> <Gold.Chemscore.Hbond.Weighted>
-6.0436

> <Gold.Chemscore.Metal.Weighted>
-0.0000

> <Gold.Chemscore.Lipo.Weighted>
-10.6958

> <Gold.Chemscore.Internal_Hbond.Weighted>
0.0000

> <Gold.Chemscore.DEClash.Weighted>
1.3727

> <Gold.Chemscore.DEInternal.Weighted>
3.6084

> <Gold.Chemscore.Rot.Weighted>
3.0064

> <Gold.Chemscore.Internal.Correction.Weighted>
   9.000000E+99

> <Gold.Protein.RotatedTorsions>
[ 6907 6896 6895 6894 ] final   56.28 input  -60.11 | X-H torsion
[ 7974 7965 7964 7962 ] final  149.21 input  175.53 | X-H torsion
[ 8008 7997 7996 7995 ] final  113.48 input   59.86 | X-H torsion
[ 10167 10162 10161 10158 ] final  123.72 input  -65.29 | X-H torsion
[ 10718 10713 10712 10709 ] final  122.39 input   66.30 | X-H torsion
[ 10763 10752 10751 10750 ] final  -35.96 input  -60.55 | X-H torsion
[ 11005 11000 10999 10996 ] final  -69.20 input  -57.11 | X-H torsion

> <Gold.Protein.ActiveResidues>
 VAL166  LYS551  ARG553  GLY616  TRP617  ASP618  TYR619  PRO620  LYS621  CYS622 
 ASP623  PHE694  ASN695  SER759  ASP760  ASP761  ALA762  ILE779  LEU786  VAL792 
 PHE793  MET794  SER795  GLU796  ALA797  LYS798  CYS799  TRP800  GLU811  SER814 

> <Gold.Protein.RotatedAtoms>
  152.3620  134.6858  160.0203 H   0  0  0  0  0  0  0  0  0  0  0  0  # atno 6907 bound_to 6896
  151.7178  133.3308  159.3315 H   0  0  0  0  0  0  0  0  0  0  0  0  # atno 6908 bound_to 6896
  150.7612  134.6409  159.6281 H   0  0  0  0  0  0  0  0  0  0  0  0  # atno 6909 bound_to 6896
  144.8455  139.6251  143.5997 H   0  0  0  0  0  0  0  0  0  0  0  0  # atno 7974 bound_to 7965
  156.2260  140.2979  156.0069 H   0  0  0  0  0  0  0  0  0  0  0  0  # atno 8008 bound_to 7997
  155.2354  140.0420  157.2985 H   0  0  0  0  0  0  0  0  0  0  0  0  # atno 8009 bound_to 7997
  154.5917  140.2403  155.7920 H   0  0  0  0  0  0  0  0  0  0  0  0  # atno 8010 bound_to 7997
  139.5783  144.6974  151.3596 H   0  0  0  0  0  0  0  0  0  0  0  0  # atno 10167 bound_to 10162
  157.5746  131.1080  150.8304 H   0  0  0  0  0  0  0  0  0  0  0  0  # atno 10718 bound_to 10713
  153.8718  135.6830  153.4774 H   0  0  0  0  0  0  0  0  0  0  0  0  # atno 10763 bound_to 10752
  153.1283  135.4709  154.9305 H   0  0  0  0  0  0  0  0  0  0  0  0  # atno 10764 bound_to 10752
  154.7710  135.3239  154.8139 H   0  0  0  0  0  0  0  0  0  0  0  0  # atno 10765 bound_to 10752
  141.1549  133.6759  156.6563 H   0  0  0  0  0  0  0  0  0  0  0  0  # atno 11005 bound_to 11000
  146.2741  139.6707  142.9276 LP  0  0  0  0  0  0  0  0  0  0  0  0  # atno 17320 bound_to 7965
  145.4605  141.0432  143.2754 LP  0  0  0  0  0  0  0  0  0  0  0  0  # atno 17321 bound_to 7965
  140.7063  143.7504  150.7488 LP  0  0  0  0  0  0  0  0  0  0  0  0  # atno 17342 bound_to 10162
  140.1030  143.4770  152.2414 LP  0  0  0  0  0  0  0  0  0  0  0  0  # atno 17343 bound_to 10162
  156.8766  130.5165  149.5293 LP  0  0  0  0  0  0  0  0  0  0  0  0  # atno 17370 bound_to 10713
  156.0790  130.5805  150.9528 LP  0  0  0  0  0  0  0  0  0  0  0  0  # atno 17371 bound_to 10713
  140.3281  134.7951  157.4305 LP  0  0  0  0  0  0  0  0  0  0  0  0  # atno 17394 bound_to 11000
  140.1040  134.5435  155.8327 LP  0  0  0  0  0  0  0  0  0  0  0  0  # atno 17395 bound_to 11000

$$$$
