AV-unprocessed.smi:2243|AV-procd|sdf|9063|dock3
  -GOLD-   2272012273D 1   1.00000     0.00000
 Structure written by MMmdl.
 34 35  0  0  0  0  0  0  0  0  1 V2000
  144.5178  136.4254  153.3040 C   0  0  0  0  0  0  0  0  0  0  0  0
  145.3392  136.5582  152.0101 C   0  0  1  0  0  0  0  0  0  0  0  0
  146.6494  137.1068  152.3643 N   0  0  0  0  0  0  0  0  0  0  0  0
  146.8734  138.1722  153.1492 C   0  0  0  0  0  0  0  0  0  0  0  0
  145.9801  138.8419  153.6687 O   0  0  0  0  0  0  0  0  0  0  0  0
  148.1869  138.4100  153.2864 N   0  0  0  0  0  0  0  0  0  0  0  0
  148.7747  139.4595  154.0300 C   0  0  0  0  0  0  0  0  0  0  0  0
  149.9306  139.3249  154.6744 N   0  0  0  0  0  0  0  0  0  0  0  0
  150.1440  140.5646  155.2615 C   0  0  0  0  0  0  0  0  0  0  0  0
  149.0930  141.3826  154.9332 C   0  0  0  0  0  0  0  0  0  0  0  0
  148.2102  140.6924  154.1469 O   0  0  0  0  0  0  0  0  0  0  0  0
  145.4950  135.2188  151.2400 C   0  0  0  0  0  0  0  0  0  0  0  0
  144.1365  134.5788  150.8809 C   0  0  0  0  0  0  0  0  0  0  0  0
  144.3215  133.2171  150.1924 C   0  0  0  0  0  0  0  0  0  0  0  0
  145.0784  132.3486  151.0260 O   0  0  0  0  0  0  0  0  0  0  0  0
  146.3905  132.8367  151.2753 C   0  0  0  0  0  0  0  0  0  0  0  0
  146.3216  134.1780  152.0234 C   0  0  0  0  0  0  0  0  0  0  0  0
  143.4827  136.1529  153.1005 H   0  0  0  0  0  0  0  0  0  0  0  0
  144.4930  137.3697  153.8489 H   0  0  0  0  0  0  0  0  0  0  0  0
  144.9404  135.6707  153.9681 H   0  0  0  0  0  0  0  0  0  0  0  0
  144.8102  137.2603  151.3632 H   0  0  0  0  0  0  0  0  0  0  0  0
  147.4522  136.6274  151.9835 H   0  0  0  0  0  0  0  0  0  0  0  0
  148.8257  137.7880  152.8135 H   0  0  0  0  0  0  0  0  0  0  0  0
  151.0191  140.7669  155.8614 H   0  0  0  0  0  0  0  0  0  0  0  0
  148.8408  142.4079  155.1608 H   0  0  0  0  0  0  0  0  0  0  0  0
  146.0200  135.4254  150.3060 H   0  0  0  0  0  0  0  0  0  0  0  0
  143.5402  134.4490  151.7851 H   0  0  0  0  0  0  0  0  0  0  0  0
  143.5625  135.2301  150.2216 H   0  0  0  0  0  0  0  0  0  0  0  0
  143.3505  132.7608  149.9998 H   0  0  0  0  0  0  0  0  0  0  0  0
  144.8146  133.3334  149.2260 H   0  0  0  0  0  0  0  0  0  0  0  0
  146.9298  132.1024  151.8738 H   0  0  0  0  0  0  0  0  0  0  0  0
  146.9362  132.9428  150.3364 H   0  0  0  0  0  0  0  0  0  0  0  0
  147.3371  134.5359  152.1893 H   0  0  0  0  0  0  0  0  0  0  0  0
  145.8801  134.0201  153.0081 H   0  0  0  0  0  0  0  0  0  0  0  0
  1  2  1  0  0  0  0
  1 18  1  0  0  0  0
  1 19  1  0  0  0  0
  1 20  1  0  0  0  0
  2  3  1  0  0  0  0
  2 12  1  0  0  0  0
  2 21  1  0  0  0  0
  3  4  1  0  0  0  0
  3 22  1  0  0  0  0
  4  5  2  0  0  0  0
  4  6  1  0  0  0  0
  6  7  1  0  0  0  0
  6 23  1  0  0  0  0
  7 11  1  0  0  0  0
  7  8  2  0  0  0  0
  8  9  1  0  0  0  0
  9 10  2  0  0  0  0
  9 24  1  0  0  0  0
 10 11  1  0  0  0  0
 10 25  1  0  0  0  0
 12 17  1  0  0  0  0
 12 13  1  0  0  0  0
 12 26  1  0  0  0  0
 13 14  1  0  0  0  0
 13 27  1  0  0  0  0
 13 28  1  0  0  0  0
 14 15  1  0  0  0  0
 14 29  1  0  0  0  0
 14 30  1  0  0  0  0
 15 16  1  0  0  0  0
 16 17  1  0  0  0  0
 16 31  1  0  0  0  0
 16 32  1  0  0  0  0
 17 33  1  0  0  0  0
 17 34  1  0  0  0  0
M  END
> <s_m_source_file>
AV-unprocessed.smi

> <i_m_source_file_index>
2243

> <i_lp_mmshare_version>
43012

> <i_f3d_flags>
0

> <s_epik_input>
W0NIMl0xW0NIMl1PW0NIMl1bQ0gyXVtDSF0xW0NASF0oW0NIM10pW05IXUMoPU8pW05IXWMybltjSF1bY0hdbzI=

> <s_epik_cmdline>
J2VwaWtfcHl0aG9uJywgJy1waCcsICc3LjAnLCAnLXRuJywgJzgnLCAnLW1hJywgJzIwMCcsICctbWV0YWxfYmluZGluZycsICctaW1hZScsICc8aW5maWxlLm1hZT4nLCAnLW9tYWUnLCAnPG91dGZpbGUubWFlPic=

> <r_lp_tautomer_probability>
0.785861

> <r_epik_Ionization_Penalty>
5.17761e-05

> <r_epik_Ionization_Penalty_Charging>
0

> <r_epik_Ionization_Penalty_Neutral>
5.17761e-05

> <r_epik_State_Penalty>
0.0447104

> <r_epik_Charging_Adjusted_Penalty>
0.0447104

> <i_epik_Tot_Q>
0

> <i_epik_Tot_abs_Q>
0

> <r_epik_Metal_State_Penalty>
0.0593601

> <b_epik_Metal_Only>
0

> <s_lp_Force_Field>
OPLS_2005

> <r_lp_Energy>
9.3246

> <b_lp_Chiralities_Consistent>
1

> <s_lp_Variant>
AV-unprocessed.smi:2243-2

> <Gold.Version>
5.8.1

> <Gold.Id.Protein>
6NUR|6NUR_protein|mol2

> <Gold.PLP.Fitness>
33.6847

> <Gold.PLP.PLP>
-25.5694

> <Gold.PLP.part.hbond>
-2.9138

> <Gold.PLP.part.metal>
0.0000

> <Gold.PLP.part.buried>
-3.2058

> <Gold.PLP.part.nonpolar>
-22.3368

> <Gold.PLP.part.repulsive>
1.5018

> <Gold.PLP.ligand.clash>
0.0000

> <Gold.PLP.ligand.torsion>
0.3423

> <Gold.PLP.Chemscore.Hbond>
1.9280

> <Gold.PLP.Chemscore.CHOScore>
1.0000

> <Gold.PLP.Chemscore.Metal>
0.0000

> <Gold.Chemscore.Hbonds>
donor molecule, donor type, donor heavy atom, donor atom, acceptor molecule, acceptor atom, score
      L1  H     3    22       P1  7948  1.00
      L1  H     6    23       P1  7948  0.91
      L1  C    10    25       P1  8028  1.00

> <Gold.PLP.Chemscore.Internal.Correction>
0.0159

> <Gold.Rescore>
     Score         DG    S(hbond)    S(metal)    S(lipo)     H(rot)  DE(clash)    DE(int)     intcor
     11.92     -14.77       1.93        0.00      53.29       1.32       0.05       2.80       ----

> <Gold.Chemscore.Fitness>
11.9243

> <Gold.Chemscore.DG>
-14.7720

> <Gold.Chemscore.ZeroCoef>
-5.4800

> <Gold.Chemscore.Hbond>
1.9269

> <Gold.Chemscore.Metal>
0.0000

> <Gold.Chemscore.Lipo>
53.2944

> <Gold.Chemscore.Internal_Hbond>
0.0000

> <Gold.Chemscore.DEClash>
0.0480

> <Gold.Chemscore.DEInternal>
2.7997

> <Gold.Chemscore.Rot>
1.3201

> <Gold.Chemscore.Internal.Correction>
   9.000000E+99

> <Gold.Chemscore.Hbonds>
donor molecule, donor type, donor heavy atom, donor atom, acceptor molecule, acceptor atom, score
      L1  H     3    22       P1  7948  0.93
      L1  H     6    23       P1  7948  0.90

> <Gold.Chemscore.Hbond.Weighted>
-6.4360

> <Gold.Chemscore.Metal.Weighted>
-0.0000

> <Gold.Chemscore.Lipo.Weighted>
-6.2354

> <Gold.Chemscore.Internal_Hbond.Weighted>
0.0000

> <Gold.Chemscore.DEClash.Weighted>
0.0480

> <Gold.Chemscore.DEInternal.Weighted>
2.7997

> <Gold.Chemscore.Rot.Weighted>
3.3794

> <Gold.Chemscore.Internal.Correction.Weighted>
   9.000000E+99

> <Gold.Protein.RotatedTorsions>
[ 6907 6896 6895 6894 ] final  163.76 input  -60.11 | X-H torsion
[ 7974 7965 7964 7962 ] final   53.51 input  175.53 | X-H torsion
[ 8008 7997 7996 7995 ] final  -94.97 input   59.86 | X-H torsion
[ 10167 10162 10161 10158 ] final -156.82 input  -65.29 | X-H torsion
[ 10718 10713 10712 10709 ] final  -21.57 input   66.30 | X-H torsion
[ 10763 10752 10751 10750 ] final  -52.87 input  -60.55 | X-H torsion
[ 11005 11000 10999 10996 ] final  -19.64 input  -57.11 | X-H torsion

> <Gold.Protein.ActiveResidues>
 VAL166  LYS551  ARG553  GLY616  TRP617  ASP618  TYR619  PRO620  LYS621  CYS622 
 ASP623  PHE694  ASN695  SER759  ASP760  ASP761  ALA762  ILE779  LEU786  VAL792 
 PHE793  MET794  SER795  GLU796  ALA797  LYS798  CYS799  TRP800  GLU811  SER814 

> <Gold.Protein.RotatedAtoms>
  151.9203  133.3584  159.3894 H   0  0  0  0  0  0  0  0  0  0  0  0  # atno 6907 bound_to 6896
  150.7038  134.4642  159.5404 H   0  0  0  0  0  0  0  0  0  0  0  0  # atno 6908 bound_to 6896
  152.2264  134.8364  160.0530 H   0  0  0  0  0  0  0  0  0  0  0  0  # atno 6909 bound_to 6896
  145.9704  139.4144  143.0193 H   0  0  0  0  0  0  0  0  0  0  0  0  # atno 7974 bound_to 7965
  154.7552  140.0484  157.0927 H   0  0  0  0  0  0  0  0  0  0  0  0  # atno 8008 bound_to 7997
  155.0006  140.3124  155.4849 H   0  0  0  0  0  0  0  0  0  0  0  0  # atno 8009 bound_to 7997
  156.2893  140.2202  156.5116 H   0  0  0  0  0  0  0  0  0  0  0  0  # atno 8010 bound_to 7997
  139.6820  143.9566  152.2341 H   0  0  0  0  0  0  0  0  0  0  0  0  # atno 10167 bound_to 10162
  156.5163  130.4622  149.6620 H   0  0  0  0  0  0  0  0  0  0  0  0  # atno 10718 bound_to 10713
  154.1497  135.6492  153.4960 H   0  0  0  0  0  0  0  0  0  0  0  0  # atno 10763 bound_to 10752
  153.0141  135.5335  154.6820 H   0  0  0  0  0  0  0  0  0  0  0  0  # atno 10764 bound_to 10752
  154.6105  135.2953  155.0409 H   0  0  0  0  0  0  0  0  0  0  0  0  # atno 10765 bound_to 10752
  140.8386  133.7943  155.9836 H   0  0  0  0  0  0  0  0  0  0  0  0  # atno 11005 bound_to 11000
  145.7914  140.9813  143.1047 LP  0  0  0  0  0  0  0  0  0  0  0  0  # atno 17320 bound_to 7965
  144.6835  139.9687  143.7481 LP  0  0  0  0  0  0  0  0  0  0  0  0  # atno 17321 bound_to 7965
  139.9358  144.6713  150.8316 LP  0  0  0  0  0  0  0  0  0  0  0  0  # atno 17342 bound_to 10162
  140.7655  143.3277  151.2478 LP  0  0  0  0  0  0  0  0  0  0  0  0  # atno 17343 bound_to 10162
  156.3191  130.7271  151.2179 LP  0  0  0  0  0  0  0  0  0  0  0  0  # atno 17370 bound_to 10713
  157.7443  131.0460  150.4873 LP  0  0  0  0  0  0  0  0  0  0  0  0  # atno 17371 bound_to 10713
  140.8920  134.2484  157.5089 LP  0  0  0  0  0  0  0  0  0  0  0  0  # atno 17394 bound_to 11000
  139.8703  134.9666  156.4567 LP  0  0  0  0  0  0  0  0  0  0  0  0  # atno 17395 bound_to 11000

$$$$
