AV-unprocessed.smi:490|AV-procd|sdf|2703|dock6
  -GOLD-   2262023143D 1   1.00000     0.00000
 Structure written by MMmdl.
 49 51  0  0  0  0  0  0  0  0  1 V2000
  151.0840  145.4866  159.9578 C   0  0  0  0  0  0  0  0  0  0  0  0
  151.4330  144.0658  159.5494 C   0  0  0  0  0  0  0  0  0  0  0  0
  150.9529  143.5719  158.3195 C   0  0  0  0  0  0  0  0  0  0  0  0
  151.2582  142.2624  157.9098 C   0  0  0  0  0  0  0  0  0  0  0  0
  152.0386  141.4272  158.7322 C   0  0  0  0  0  0  0  0  0  0  0  0
  152.3622  140.0163  158.2774 C   0  0  0  0  0  0  0  0  0  0  0  0
  152.5107  141.9069  159.9754 C   0  0  0  0  0  0  0  0  0  0  0  0
  153.2594  141.0785  160.7713 O   0  0  0  0  0  0  0  0  0  0  0  0
  154.6068  140.9433  160.3420 C   0  0  0  0  0  0  0  0  0  0  0  0
  155.1631  139.6106  160.8611 C   0  0  2  0  0  0  0  0  0  0  0  0
  156.4983  139.4766  160.4165 O   0  0  0  0  0  0  0  0  0  0  0  0
  154.3249  138.4031  160.3938 C   0  0  0  0  0  0  0  0  0  0  0  0
  154.7076  137.1634  161.0556 N   0  0  0  0  0  0  0  0  0  0  0  0
  155.0488  135.9828  160.4803 C   0  0  0  0  0  0  0  0  0  0  0  0
  155.0815  135.8212  158.9865 C   0  0  0  0  0  0  0  0  0  0  0  0
  155.4209  134.5182  158.5568 O   0  0  0  0  0  0  0  0  0  0  0  0
  155.3621  134.9987  161.3266 N   0  0  0  0  0  0  0  0  0  0  0  0
  155.2075  135.5958  162.5622 C   0  0  0  0  0  0  0  0  0  0  0  0
  155.3881  135.0740  163.8630 C   0  0  0  0  0  0  0  0  0  0  0  0
  155.1705  135.8866  164.9949 C   0  0  0  0  0  0  0  0  0  0  0  0
  154.7703  137.2299  164.8424 C   0  0  0  0  0  0  0  0  0  0  0  0
  154.5835  137.7692  163.5550 C   0  0  0  0  0  0  0  0  0  0  0  0
  154.8013  136.9535  162.4283 C   0  0  0  0  0  0  0  0  0  0  0  0
  152.2279  143.2363  160.3797 C   0  0  0  0  0  0  0  0  0  0  0  0
  152.7743  143.7691  161.6975 C   0  0  0  0  0  0  0  0  0  0  0  0
  150.3455  145.9234  159.2847 H   0  0  0  0  0  0  0  0  0  0  0  0
  151.9725  146.1177  159.9358 H   0  0  0  0  0  0  0  0  0  0  0  0
  150.6672  145.5066  160.9650 H   0  0  0  0  0  0  0  0  0  0  0  0
  150.3492  144.1985  157.6794 H   0  0  0  0  0  0  0  0  0  0  0  0
  150.8877  141.9017  156.9614 H   0  0  0  0  0  0  0  0  0  0  0  0
  153.4209  139.7992  158.4211 H   0  0  0  0  0  0  0  0  0  0  0  0
  152.1320  139.8782  157.2207 H   0  0  0  0  0  0  0  0  0  0  0  0
  151.7814  139.2924  158.8488 H   0  0  0  0  0  0  0  0  0  0  0  0
  154.6795  140.9895  159.2541 H   0  0  0  0  0  0  0  0  0  0  0  0
  155.1941  141.7727  160.7393 H   0  0  0  0  0  0  0  0  0  0  0  0
  155.1894  139.6435  161.9505 H   0  0  0  0  0  0  0  0  0  0  0  0
  156.5144  138.8738  159.6891 H   0  0  0  0  0  0  0  0  0  0  0  0
  153.2650  138.5820  160.5766 H   0  0  0  0  0  0  0  0  0  0  0  0
  154.4230  138.2680  159.3161 H   0  0  0  0  0  0  0  0  0  0  0  0
  154.1061  136.0700  158.5697 H   0  0  0  0  0  0  0  0  0  0  0  0
  155.8025  136.5256  158.5711 H   0  0  0  0  0  0  0  0  0  0  0  0
  156.0696  134.1668  159.1468 H   0  0  0  0  0  0  0  0  0  0  0  0
  155.6947  134.0461  163.9896 H   0  0  0  0  0  0  0  0  0  0  0  0
  155.3109  135.4770  165.9844 H   0  0  0  0  0  0  0  0  0  0  0  0
  154.6058  137.8457  165.7145 H   0  0  0  0  0  0  0  0  0  0  0  0
  154.2737  138.7965  163.4356 H   0  0  0  0  0  0  0  0  0  0  0  0
  153.5944  143.1612  162.0778 H   0  0  0  0  0  0  0  0  0  0  0  0
  151.9863  143.7852  162.4506 H   0  0  0  0  0  0  0  0  0  0  0  0
  153.1601  144.7815  161.5808 H   0  0  0  0  0  0  0  0  0  0  0  0
  1  2  1  0  0  0  0
  1 26  1  0  0  0  0
  1 27  1  0  0  0  0
  1 28  1  0  0  0  0
  2 24  1  0  0  0  0
  2  3  2  0  0  0  0
  3  4  1  0  0  0  0
  3 29  1  0  0  0  0
  4  5  2  0  0  0  0
  4 30  1  0  0  0  0
  5  6  1  0  0  0  0
  5  7  1  0  0  0  0
  6 31  1  0  0  0  0
  6 32  1  0  0  0  0
  6 33  1  0  0  0  0
  7  8  1  0  0  0  0
  7 24  2  0  0  0  0
  8  9  1  0  0  0  0
  9 10  1  0  0  0  0
  9 34  1  0  0  0  0
  9 35  1  0  0  0  0
 10 11  1  0  0  0  0
 10 12  1  0  0  0  0
 10 36  1  0  0  0  0
 11 37  1  0  0  0  0
 12 13  1  0  0  0  0
 12 38  1  0  0  0  0
 12 39  1  0  0  0  0
 13 23  1  0  0  0  0
 13 14  1  0  0  0  0
 14 15  1  0  0  0  0
 14 17  2  0  0  0  0
 15 16  1  0  0  0  0
 15 40  1  0  0  0  0
 15 41  1  0  0  0  0
 16 42  1  0  0  0  0
 17 18  1  0  0  0  0
 18 23  2  0  0  0  0
 18 19  1  0  0  0  0
 19 20  2  0  0  0  0
 19 43  1  0  0  0  0
 20 21  1  0  0  0  0
 20 44  1  0  0  0  0
 21 22  2  0  0  0  0
 21 45  1  0  0  0  0
 22 23  1  0  0  0  0
 22 46  1  0  0  0  0
 24 25  1  0  0  0  0
 25 47  1  0  0  0  0
 25 48  1  0  0  0  0
 25 49  1  0  0  0  0
M  END
> <s_m_source_file>
AV-unprocessed.smi

> <i_m_source_file_index>
490

> <i_lp_mmshare_version>
43012

> <i_f3d_flags>
0

> <s_epik_input>
W0NIM11jMVtjSF1bY0hdYyhbQ0gzXSljKGMxW0NIM10pT1tDSDJdW0NASF0oW09IXSlbQ0gyXW4oYyhuMilbQ0gyXVtPSF0pYyhjMjMpW2NIXVtjSF1bY0hdW2NIXTM=

> <s_epik_cmdline>
J2VwaWtfcHl0aG9uJywgJy1waCcsICc3LjAnLCAnLXRuJywgJzgnLCAnLW1hJywgJzIwMCcsICctbWV0YWxfYmluZGluZycsICctaW1hZScsICc8aW5maWxlLm1hZT4nLCAnLW9tYWUnLCAnPG91dGZpbGUubWFlPic=

> <r_lp_tautomer_probability>
1

> <r_epik_Ionization_Penalty>
0.0555874

> <r_epik_Ionization_Penalty_Charging>
0

> <r_epik_Ionization_Penalty_Neutral>
0.0555874

> <r_epik_State_Penalty>
0.0478234

> <r_epik_Charging_Adjusted_Penalty>
0.0478234

> <i_epik_Tot_Q>
0

> <i_epik_Tot_abs_Q>
0

> <r_epik_Metal_State_Penalty>
4.98044e-05

> <b_epik_Metal_Only>
0

> <s_lp_Force_Field>
OPLS_2005

> <r_lp_Energy>
19.7492

> <b_lp_Chiralities_Consistent>
1

> <s_lp_Variant>
AV-unprocessed.smi:490-1

> <Gold.Version>
5.8.1

> <Gold.Id.Protein>
6NUR|6NUR_protein|mol2

> <Gold.PLP.Fitness>
51.1349

> <Gold.PLP.PLP>
-51.9730

> <Gold.PLP.part.hbond>
0.0000

> <Gold.PLP.part.metal>
0.0000

> <Gold.PLP.part.buried>
-5.6317

> <Gold.PLP.part.nonpolar>
-44.8314

> <Gold.PLP.part.repulsive>
0.0000

> <Gold.PLP.ligand.clash>
0.0000

> <Gold.PLP.ligand.torsion>
0.4697

> <Gold.PLP.Chemscore.Hbond>
0.0000

> <Gold.PLP.Chemscore.CHOScore>
0.0000

> <Gold.PLP.Chemscore.Metal>
0.0000

> <Gold.PLP.Chemscore.Internal.Correction>
0.1012

> <Gold.Rescore>
     Score         DG    S(hbond)    S(metal)    S(lipo)     H(rot)  DE(clash)    DE(int)     intcor
     16.40     -16.94       0.00        0.00     162.05       2.93       0.03       0.52       ----

> <Gold.Chemscore.Fitness>
16.3961

> <Gold.Chemscore.DG>
-16.9449

> <Gold.Chemscore.ZeroCoef>
-5.4800

> <Gold.Chemscore.Hbond>
0.0000

> <Gold.Chemscore.Metal>
0.0000

> <Gold.Chemscore.Lipo>
162.0539

> <Gold.Chemscore.Internal_Hbond>
0.0000

> <Gold.Chemscore.DEClash>
0.0311

> <Gold.Chemscore.DEInternal>
0.5177

> <Gold.Chemscore.Rot>
2.9279

> <Gold.Chemscore.Internal.Correction>
   9.000000E+99

> <Gold.Chemscore.Hbond.Weighted>
-0.0000

> <Gold.Chemscore.Metal.Weighted>
-0.0000

> <Gold.Chemscore.Lipo.Weighted>
-18.9603

> <Gold.Chemscore.Internal_Hbond.Weighted>
0.0000

> <Gold.Chemscore.DEClash.Weighted>
0.0311

> <Gold.Chemscore.DEInternal.Weighted>
0.5177

> <Gold.Chemscore.Rot.Weighted>
7.4954

> <Gold.Chemscore.Internal.Correction.Weighted>
   9.000000E+99

> <Gold.Protein.RotatedTorsions>
[ 6907 6896 6895 6894 ] final   50.83 input  -60.11 | X-H torsion
[ 7974 7965 7964 7962 ] final   65.95 input  175.53 | X-H torsion
[ 8008 7997 7996 7995 ] final   24.75 input   59.86 | X-H torsion
[ 10167 10162 10161 10158 ] final  -99.60 input  -65.29 | X-H torsion
[ 10718 10713 10712 10709 ] final   39.32 input   66.30 | X-H torsion
[ 10763 10752 10751 10750 ] final   94.94 input  -60.55 | X-H torsion
[ 11005 11000 10999 10996 ] final  -29.20 input  -57.11 | X-H torsion

> <Gold.Protein.ActiveResidues>
 VAL166  LYS551  ARG553  GLY616  TRP617  ASP618  TYR619  PRO620  LYS621  CYS622 
 ASP623  PHE694  ASN695  SER759  ASP760  ASP761  ALA762  ILE779  LEU786  VAL792 
 PHE793  MET794  SER795  GLU796  ALA797  LYS798  CYS799  TRP800  GLU811  SER814 

> <Gold.Protein.RotatedAtoms>
  152.3060  134.7554  160.0346 H   0  0  0  0  0  0  0  0  0  0  0  0  # atno 6907 bound_to 6896
  151.8051  133.3369  159.3546 H   0  0  0  0  0  0  0  0  0  0  0  0  # atno 6908 bound_to 6896
  150.7297  134.5647  159.5904 H   0  0  0  0  0  0  0  0  0  0  0  0  # atno 6909 bound_to 6896
  145.8324  139.3147  143.0979 H   0  0  0  0  0  0  0  0  0  0  0  0  # atno 7974 bound_to 7965
  155.0011  140.3125  155.4867 H   0  0  0  0  0  0  0  0  0  0  0  0  # atno 8008 bound_to 7997
  156.2925  140.2231  156.5062 H   0  0  0  0  0  0  0  0  0  0  0  0  # atno 8009 bound_to 7997
  154.7617  140.0458  157.0967 H   0  0  0  0  0  0  0  0  0  0  0  0  # atno 8010 bound_to 7997
  140.2607  143.3409  152.0628 H   0  0  0  0  0  0  0  0  0  0  0  0  # atno 10167 bound_to 10162
  157.3692  130.7692  149.7106 H   0  0  0  0  0  0  0  0  0  0  0  0  # atno 10718 bound_to 10713
  153.2475  135.4271  155.0762 H   0  0  0  0  0  0  0  0  0  0  0  0  # atno 10763 bound_to 10752
  154.8367  135.3417  154.6561 H   0  0  0  0  0  0  0  0  0  0  0  0  # atno 10764 bound_to 10752
  153.6983  135.7030  153.5127 H   0  0  0  0  0  0  0  0  0  0  0  0  # atno 10765 bound_to 10752
  140.9275  133.7359  156.0889 H   0  0  0  0  0  0  0  0  0  0  0  0  # atno 11005 bound_to 11000
  145.9556  140.8875  143.0237 LP  0  0  0  0  0  0  0  0  0  0  0  0  # atno 17320 bound_to 7965
  144.6739  140.1741  143.7411 LP  0  0  0  0  0  0  0  0  0  0  0  0  # atno 17321 bound_to 7965
  139.5017  144.6720  151.6219 LP  0  0  0  0  0  0  0  0  0  0  0  0  # atno 17342 bound_to 10162
  140.5968  143.9682  150.6359 LP  0  0  0  0  0  0  0  0  0  0  0  0  # atno 17343 bound_to 10162
  155.9752  130.4092  150.3867 LP  0  0  0  0  0  0  0  0  0  0  0  0  # atno 17370 bound_to 10713
  157.1955  131.0425  151.2678 LP  0  0  0  0  0  0  0  0  0  0  0  0  # atno 17371 bound_to 10713
  140.7906  134.3621  157.5465 LP  0  0  0  0  0  0  0  0  0  0  0  0  # atno 17394 bound_to 11000
  139.8789  134.9138  156.3092 LP  0  0  0  0  0  0  0  0  0  0  0  0  # atno 17395 bound_to 11000

$$$$
