AV-unprocessed.smi:2788|AV-procd|sdf|10761|dock1
  -GOLD-   2272015193D 1   1.00000     0.00000
 Structure written by MMmdl.
 47 48  0  0  0  0  0  0  0  0  1 V2000
  151.0782  136.5328  156.2037 C   0  0  0  0  0  0  0  0  0  0  0  0
  152.1011  136.2475  157.2654 C   0  0  0  0  0  0  0  0  0  0  0  0
  153.0476  135.3530  157.0357 N   0  0  0  0  0  0  0  0  0  0  0  0
  153.8425  135.3324  158.1854 O   0  0  0  0  0  0  0  0  0  0  0  0
  153.3388  136.2271  159.0722 C   0  0  0  0  0  0  0  0  0  0  0  0
  154.0746  136.3692  160.3613 C   0  0  0  0  0  0  0  0  0  0  0  0
  152.2305  136.8404  158.5540 C   0  0  0  0  0  0  0  0  0  0  0  0
  151.3653  137.9096  159.1721 C   0  0  0  0  0  0  0  0  0  0  0  0
  151.6578  139.2438  158.4887 C   0  0  0  0  0  0  0  0  0  0  0  0
  152.8206  139.6237  158.3590 O   0  0  0  0  0  0  0  0  0  0  0  0
  150.5814  139.9470  158.0907 N   0  0  0  0  0  0  0  0  0  0  0  0
  150.5227  141.3008  157.5179 C   0  0  2  0  0  0  0  0  0  0  0  0
  149.0516  141.5286  157.0987 C   0  0  0  0  0  0  0  0  0  0  0  0
  151.4237  141.3785  156.2507 C   0  0  0  0  0  0  0  0  0  0  0  0
  151.0163  140.4733  155.2416 O   0  0  0  0  0  0  0  0  0  0  0  0
  150.9727  142.3538  158.5954 C   0  0  0  0  0  0  0  0  0  0  0  0
  150.6028  143.8218  158.2455 C   0  0  0  0  0  0  0  0  0  0  0  0
  150.9497  144.7884  159.3883 C   0  0  0  0  0  0  0  0  0  0  0  0
  152.4355  144.6976  159.7609 C   0  0  0  0  0  0  0  0  0  0  0  0
  152.8238  143.2553  160.1133 C   0  0  0  0  0  0  0  0  0  0  0  0
  152.4748  142.2849  158.9726 C   0  0  0  0  0  0  0  0  0  0  0  0
  151.3302  137.4418  155.6577 H   0  0  0  0  0  0  0  0  0  0  0  0
  150.0879  136.6700  156.6379 H   0  0  0  0  0  0  0  0  0  0  0  0
  151.0101  135.7184  155.4818 H   0  0  0  0  0  0  0  0  0  0  0  0
  153.5091  136.9691  161.0739 H   0  0  0  0  0  0  0  0  0  0  0  0
  155.0368  136.8562  160.2012 H   0  0  0  0  0  0  0  0  0  0  0  0
  154.2584  135.3941  160.8122 H   0  0  0  0  0  0  0  0  0  0  0  0
  150.3051  137.6766  159.0668 H   0  0  0  0  0  0  0  0  0  0  0  0
  151.5474  138.0077  160.2428 H   0  0  0  0  0  0  0  0  0  0  0  0
  149.6848  139.5109  158.2479 H   0  0  0  0  0  0  0  0  0  0  0  0
  148.9116  142.4905  156.6064 H   0  0  0  0  0  0  0  0  0  0  0  0
  148.3712  141.4883  157.9488 H   0  0  0  0  0  0  0  0  0  0  0  0
  148.7159  140.7647  156.3965 H   0  0  0  0  0  0  0  0  0  0  0  0
  151.3944  142.3757  155.8133 H   0  0  0  0  0  0  0  0  0  0  0  0
  152.4680  141.1803  156.4918 H   0  0  0  0  0  0  0  0  0  0  0  0
  150.4731  139.8087  155.6365 H   0  0  0  0  0  0  0  0  0  0  0  0
  150.4301  142.1147  159.5108 H   0  0  0  0  0  0  0  0  0  0  0  0
  151.1283  144.1402  157.3456 H   0  0  0  0  0  0  0  0  0  0  0  0
  149.5400  143.9222  158.0300 H   0  0  0  0  0  0  0  0  0  0  0  0
  150.7019  145.8098  159.0978 H   0  0  0  0  0  0  0  0  0  0  0  0
  150.3365  144.5583  160.2606 H   0  0  0  0  0  0  0  0  0  0  0  0
  153.0448  145.0486  158.9270 H   0  0  0  0  0  0  0  0  0  0  0  0
  152.6501  145.3577  160.6017 H   0  0  0  0  0  0  0  0  0  0  0  0
  153.8907  143.2026  160.3318 H   0  0  0  0  0  0  0  0  0  0  0  0
  152.3072  142.9497  161.0242 H   0  0  0  0  0  0  0  0  0  0  0  0
  152.7524  141.2800  159.2869 H   0  0  0  0  0  0  0  0  0  0  0  0
  153.0945  142.5223  158.1079 H   0  0  0  0  0  0  0  0  0  0  0  0
  1  2  1  0  0  0  0
  1 22  1  0  0  0  0
  1 23  1  0  0  0  0
  1 24  1  0  0  0  0
  2  7  1  0  0  0  0
  2  3  2  0  0  0  0
  3  4  1  0  0  0  0
  4  5  1  0  0  0  0
  5  6  1  0  0  0  0
  5  7  2  0  0  0  0
  6 25  1  0  0  0  0
  6 26  1  0  0  0  0
  6 27  1  0  0  0  0
  7  8  1  0  0  0  0
  8  9  1  0  0  0  0
  8 28  1  0  0  0  0
  8 29  1  0  0  0  0
  9 10  2  0  0  0  0
  9 11  1  0  0  0  0
 11 12  1  0  0  0  0
 11 30  1  0  0  0  0
 12 13  1  0  0  0  0
 12 14  1  0  0  0  0
 12 16  1  0  0  0  0
 13 31  1  0  0  0  0
 13 32  1  0  0  0  0
 13 33  1  0  0  0  0
 14 15  1  0  0  0  0
 14 34  1  0  0  0  0
 14 35  1  0  0  0  0
 15 36  1  0  0  0  0
 16 21  1  0  0  0  0
 16 17  1  0  0  0  0
 16 37  1  0  0  0  0
 17 18  1  0  0  0  0
 17 38  1  0  0  0  0
 17 39  1  0  0  0  0
 18 19  1  0  0  0  0
 18 40  1  0  0  0  0
 18 41  1  0  0  0  0
 19 20  1  0  0  0  0
 19 42  1  0  0  0  0
 19 43  1  0  0  0  0
 20 21  1  0  0  0  0
 20 44  1  0  0  0  0
 20 45  1  0  0  0  0
 21 46  1  0  0  0  0
 21 47  1  0  0  0  0
M  END
> <s_m_source_file>
AV-unprocessed.smi

> <i_m_source_file_index>
2788

> <i_lp_mmshare_version>
43012

> <i_f3d_flags>
0

> <s_epik_input>
W0NIM11jMW5vYyhbQ0gzXSljMVtDSDJdQyg9TylbTkhdW0NAQF0oW0NIM10pKFtDSDJdW09IXSlbQ0hdMltDSDJdW0NIMl1bQ0gyXVtDSDJdW0NIMl0y

> <s_epik_cmdline>
J2VwaWtfcHl0aG9uJywgJy1waCcsICc3LjAnLCAnLXRuJywgJzgnLCAnLW1hJywgJzIwMCcsICctbWV0YWxfYmluZGluZycsICctaW1hZScsICc8aW5maWxlLm1hZT4nLCAnLW9tYWUnLCAnPG91dGZpbGUubWFlPic=

> <r_lp_tautomer_probability>
1

> <r_epik_Ionization_Penalty>
1.3408e-07

> <r_epik_Ionization_Penalty_Charging>
0

> <r_epik_Ionization_Penalty_Neutral>
1.3408e-07

> <r_epik_State_Penalty>
-0

> <r_epik_Charging_Adjusted_Penalty>
0

> <i_epik_Tot_Q>
0

> <i_epik_Tot_abs_Q>
0

> <r_epik_Metal_State_Penalty>
-0

> <b_epik_Metal_Only>
0

> <s_lp_Force_Field>
OPLS_2005

> <r_lp_Energy>
14.1961

> <b_lp_Chiralities_Consistent>
1

> <s_lp_Variant>
AV-unprocessed.smi:2788-2

> <Gold.Version>
5.8.1

> <Gold.Id.Protein>
6NUR|6NUR_protein|mol2

> <Gold.PLP.Fitness>
41.6428

> <Gold.PLP.PLP>
-33.4097

> <Gold.PLP.part.hbond>
-3.0000

> <Gold.PLP.part.metal>
0.0000

> <Gold.PLP.part.buried>
-5.5487

> <Gold.PLP.part.nonpolar>
-24.7085

> <Gold.PLP.part.repulsive>
0.1320

> <Gold.PLP.ligand.clash>
0.0000

> <Gold.PLP.ligand.torsion>
0.4977

> <Gold.PLP.Chemscore.Hbond>
3.0000

> <Gold.PLP.Chemscore.CHOScore>
0.0000

> <Gold.PLP.Chemscore.Metal>
0.0000

> <Gold.Chemscore.Hbonds>
donor molecule, donor type, donor heavy atom, donor atom, acceptor molecule, acceptor atom, score
      P1  H  7989  7998       L1    15  0.99
      P1  H  7997  8008       L1    10  0.34
      P1  H 10752 10765       L1     3  1.00

> <Gold.PLP.Chemscore.Internal.Correction>
0.2286

> <Gold.Rescore>
     Score         DG    S(hbond)    S(metal)    S(lipo)     H(rot)  DE(clash)    DE(int)     intcor
     17.07     -20.58       2.69        0.00     101.27       2.24       0.37       3.13       ----

> <Gold.Chemscore.Fitness>
17.0748

> <Gold.Chemscore.DG>
-20.5814

> <Gold.Chemscore.ZeroCoef>
-5.4800

> <Gold.Chemscore.Hbond>
2.6874

> <Gold.Chemscore.Metal>
0.0000

> <Gold.Chemscore.Lipo>
101.2726

> <Gold.Chemscore.Internal_Hbond>
0.0000

> <Gold.Chemscore.DEClash>
0.3733

> <Gold.Chemscore.DEInternal>
3.1332

> <Gold.Chemscore.Rot>
2.2357

> <Gold.Chemscore.Internal.Correction>
   9.000000E+99

> <Gold.Chemscore.Hbonds>
donor molecule, donor type, donor heavy atom, donor atom, acceptor molecule, acceptor atom, score
      P1  H  7989  7998       L1    15  0.85
      P1  H  7997  8008       L1    10  0.32
      P1  H 10752 10765       L1     3  0.90

> <Gold.Chemscore.Hbond.Weighted>
-8.9760

> <Gold.Chemscore.Metal.Weighted>
-0.0000

> <Gold.Chemscore.Lipo.Weighted>
-11.8489

> <Gold.Chemscore.Internal_Hbond.Weighted>
0.0000

> <Gold.Chemscore.DEClash.Weighted>
0.3733

> <Gold.Chemscore.DEInternal.Weighted>
3.1332

> <Gold.Chemscore.Rot.Weighted>
5.7235

> <Gold.Chemscore.Internal.Correction.Weighted>
   9.000000E+99

> <Gold.Protein.RotatedTorsions>
[ 6907 6896 6895 6894 ] final   -7.21 input  -60.11 | X-H torsion
[ 7974 7965 7964 7962 ] final  -72.45 input  175.53 | X-H torsion
[ 8008 7997 7996 7995 ] final  -97.52 input   59.86 | X-H torsion
[ 10167 10162 10161 10158 ] final    9.02 input  -65.29 | X-H torsion
[ 10718 10713 10712 10709 ] final  -29.68 input   66.30 | X-H torsion
[ 10763 10752 10751 10750 ] final -113.81 input  -60.55 | X-H torsion
[ 11005 11000 10999 10996 ] final  -67.49 input  -57.11 | X-H torsion

> <Gold.Protein.ActiveResidues>
 VAL166  LYS551  ARG553  GLY616  TRP617  ASP618  TYR619  PRO620  LYS621  CYS622 
 ASP623  PHE694  ASN695  SER759  ASP760  ASP761  ALA762  ILE779  LEU786  VAL792 
 PHE793  MET794  SER795  GLU796  ALA797  LYS798  CYS799  TRP800  GLU811  SER814 

> <Gold.Protein.RotatedAtoms>
  151.4532  135.1032  159.9703 H   0  0  0  0  0  0  0  0  0  0  0  0  # atno 6907 bound_to 6896
  152.4881  133.8421  159.7168 H   0  0  0  0  0  0  0  0  0  0  0  0  # atno 6908 bound_to 6896
  150.9008  133.7061  159.2907 H   0  0  0  0  0  0  0  0  0  0  0  0  # atno 6909 bound_to 6896
  145.6650  140.9240  143.0913 H   0  0  0  0  0  0  0  0  0  0  0  0  # atno 7974 bound_to 7965
  154.7889  140.0462  157.1185 H   0  0  0  0  0  0  0  0  0  0  0  0  # atno 8008 bound_to 7997
  154.9615  140.3078  155.5009 H   0  0  0  0  0  0  0  0  0  0  0  0  # atno 8009 bound_to 7997
  156.2947  140.2270  156.4701 H   0  0  0  0  0  0  0  0  0  0  0  0  # atno 8010 bound_to 7997
  140.6280  143.8058  150.7258 H   0  0  0  0  0  0  0  0  0  0  0  0  # atno 10167 bound_to 10162
  156.4094  130.4405  149.7263 H   0  0  0  0  0  0  0  0  0  0  0  0  # atno 10718 bound_to 10713
  154.8413  135.4440  154.1408 H   0  0  0  0  0  0  0  0  0  0  0  0  # atno 10763 bound_to 10752
  153.2594  135.6934  153.7601 H   0  0  0  0  0  0  0  0  0  0  0  0  # atno 10764 bound_to 10752
  153.6883  135.3391  155.3171 H   0  0  0  0  0  0  0  0  0  0  0  0  # atno 10765 bound_to 10752
  141.1509  133.6720  156.6301 H   0  0  0  0  0  0  0  0  0  0  0  0  # atno 11005 bound_to 11000
  144.7076  139.8498  143.7425 LP  0  0  0  0  0  0  0  0  0  0  0  0  # atno 17320 bound_to 7965
  146.1093  139.4096  143.0297 LP  0  0  0  0  0  0  0  0  0  0  0  0  # atno 17321 bound_to 7965
  140.1663  143.4233  152.2032 LP  0  0  0  0  0  0  0  0  0  0  0  0  # atno 17342 bound_to 10162
  139.5498  144.7328  151.4471 LP  0  0  0  0  0  0  0  0  0  0  0  0  # atno 17343 bound_to 10162
  156.4248  130.7786  151.2805 LP  0  0  0  0  0  0  0  0  0  0  0  0  # atno 17370 bound_to 10713
  157.7506  131.0172  150.3574 LP  0  0  0  0  0  0  0  0  0  0  0  0  # atno 17371 bound_to 10713
  140.3473  134.7798  157.4442 LP  0  0  0  0  0  0  0  0  0  0  0  0  # atno 17394 bound_to 11000
  140.0889  134.5628  155.8464 LP  0  0  0  0  0  0  0  0  0  0  0  0  # atno 17395 bound_to 11000

$$$$
