AV-unprocessed.smi:1467|AV-procd|sdf|5956|dock1
  -GOLD-   22720 6 43D 1   1.00000     0.00000
 Structure written by MMmdl.
 41 42  0  0  0  0  0  0  0  0  2 V2000
  148.8738  140.4991  157.3896 C   0  0  0  0  0  0  0  0  0  0  0  0
  148.2755  141.4131  156.3180 C   0  0  0  0  0  0  0  0  0  0  0  0
  147.5898  142.3661  156.6876 O   0  0  0  0  0  0  0  0  0  0  0  0
  148.5156  141.1495  155.0110 N   0  0  0  0  0  0  0  0  0  0  0  0
  147.9420  141.8769  153.8750 C   0  0  0  0  0  0  0  0  0  0  0  0
  146.9786  140.9449  153.1178 C   0  0  0  0  0  0  0  0  0  0  0  0
  147.6506  139.6849  152.6983 N   0  3  0  0  0  0  0  0  0  0  0  0
  146.7311  138.7845  151.9580 C   0  0  0  0  0  0  0  0  0  0  0  0
  146.1127  137.6974  152.8580 C   0  0  0  0  0  0  0  0  0  0  0  0
  146.1518  136.3882  152.2166 N   0  0  0  0  0  0  0  0  0  0  0  0
  145.0715  135.6687  151.8807 C   0  0  0  0  0  0  0  0  0  0  0  0
  143.9176  136.0424  152.0912 O   0  0  0  0  0  0  0  0  0  0  0  0
  145.4156  134.5056  151.3039 N   0  0  0  0  0  0  0  0  0  0  0  0
  144.5458  133.5056  150.7990 C   0  0  0  0  0  0  0  0  0  0  0  0
  144.6920  132.8665  149.5376 C   0  0  0  0  0  0  0  0  0  0  0  0
  143.7291  131.9796  149.3304 N   0  0  0  0  0  0  0  0  0  0  0  0
  142.9683  132.0482  150.4462 N   0  0  0  0  0  0  0  0  0  0  0  0
  143.4269  132.9641  151.3672 C   0  0  0  0  0  0  0  0  0  0  0  0
  148.3640  139.0139  153.8207 C   0  0  0  0  0  0  0  0  0  0  0  0
  149.2933  139.9908  154.5639 C   0  0  0  0  0  0  0  0  0  0  0  0
  142.1471  131.4714  150.5627 H   0  0  0  0  0  0  0  0  0  0  0  0
  149.9627  140.5032  157.3393 H   0  0  0  0  0  0  0  0  0  0  0  0
  148.5155  139.4764  157.2704 H   0  0  0  0  0  0  0  0  0  0  0  0
  148.5860  140.8369  158.3858 H   0  0  0  0  0  0  0  0  0  0  0  0
  147.4205  142.7904  154.1563 H   0  0  0  0  0  0  0  0  0  0  0  0
  148.7494  142.1941  153.2132 H   0  0  0  0  0  0  0  0  0  0  0  0
  146.1231  140.7043  153.7515 H   0  0  0  0  0  0  0  0  0  0  0  0
  146.5882  141.4621  152.2403 H   0  0  0  0  0  0  0  0  0  0  0  0
  145.9515  139.3719  151.4704 H   0  0  0  0  0  0  0  0  0  0  0  0
  147.2913  138.2943  151.1603 H   0  0  0  0  0  0  0  0  0  0  0  0
  146.6263  137.6582  153.8204 H   0  0  0  0  0  0  0  0  0  0  0  0
  145.0675  137.9182  153.0718 H   0  0  0  0  0  0  0  0  0  0  0  0
  147.0631  136.0076  152.0061 H   0  0  0  0  0  0  0  0  0  0  0  0
  146.4027  134.3151  151.2127 H   0  0  0  0  0  0  0  0  0  0  0  0
  145.4491  133.0132  148.7814 H   0  0  0  0  0  0  0  0  0  0  0  0
  142.9259  133.1379  152.3080 H   0  0  0  0  0  0  0  0  0  0  0  0
  147.6338  138.5995  154.5179 H   0  0  0  0  0  0  0  0  0  0  0  0
  148.9562  138.1790  153.4484 H   0  0  0  0  0  0  0  0  0  0  0  0
  150.0897  140.3298  153.8998 H   0  0  0  0  0  0  0  0  0  0  0  0
  149.7927  139.4724  155.3837 H   0  0  0  0  0  0  0  0  0  0  0  0
  148.3620  139.9667  152.0389 H   0  0  0  0  0  0  0  0  0  0  0  0
  1  2  1  0  0  0  0
  1 22  1  0  0  0  0
  1 23  1  0  0  0  0
  1 24  1  0  0  0  0
  2  3  2  0  0  0  0
  2  4  1  0  0  0  0
  4 20  1  0  0  0  0
  4  5  1  0  0  0  0
  5  6  1  0  0  0  0
  5 25  1  0  0  0  0
  5 26  1  0  0  0  0
  6  7  1  0  0  0  0
  6 27  1  0  0  0  0
  6 28  1  0  0  0  0
  7  8  1  0  0  0  0
  7 19  1  0  0  0  0
  7 41  1  0  0  0  0
  8  9  1  0  0  0  0
  8 29  1  0  0  0  0
  8 30  1  0  0  0  0
  9 10  1  0  0  0  0
  9 31  1  0  0  0  0
  9 32  1  0  0  0  0
 10 11  1  0  0  0  0
 10 33  1  0  0  0  0
 11 12  2  0  0  0  0
 11 13  1  0  0  0  0
 13 14  1  0  0  0  0
 13 34  1  0  0  0  0
 14 18  2  0  0  0  0
 14 15  1  0  0  0  0
 15 16  2  0  0  0  0
 15 35  1  0  0  0  0
 16 17  1  0  0  0  0
 17 21  1  0  0  0  0
 17 18  1  0  0  0  0
 18 36  1  0  0  0  0
 19 20  1  0  0  0  0
 19 37  1  0  0  0  0
 19 38  1  0  0  0  0
 20 39  1  0  0  0  0
 20 40  1  0  0  0  0
M  CHG  1   7   1
M  END
> <s_m_source_file>
AV-unprocessed.smi

> <i_m_source_file_index>
1467

> <i_lp_mmshare_version>
43012

> <i_f3d_flags>
0

> <s_epik_input>
W0NIM11DKD1PKU4xW0NIMl1bQ0gyXU4oW0NIMl1bQ0gyXTEpW0NIMl1bQ0gyXVtOSF1DKD1PKVtOSF1jMltjSF1uW25IXVtjSF0y

> <s_epik_cmdline>
J2VwaWtfcHl0aG9uJywgJy1waCcsICc3LjAnLCAnLXRuJywgJzgnLCAnLW1hJywgJzIwMCcsICctbWV0YWxfYmluZGluZycsICctaW1hZScsICc8aW5maWxlLm1hZT4nLCAnLW9tYWUnLCAnPG91dGZpbGUubWFlPic=

> <r_lp_tautomer_probability>
0.5

> <r_epik_Ionization_Penalty>
0.630073

> <r_epik_Ionization_Penalty_Charging>
0.630034

> <r_epik_Ionization_Penalty_Neutral>
3.91951e-05

> <r_epik_State_Penalty>
0.646805

> <r_epik_Charging_Adjusted_Penalty>
1.27684

> <i_epik_Tot_Q>
1

> <i_epik_Tot_abs_Q>
1

> <r_epik_Metal_State_Penalty>
0.646807

> <b_epik_Metal_Only>
0

> <s_lp_Force_Field>
OPLS_2005

> <r_lp_Energy>
42.6294

> <b_lp_Chiralities_Consistent>
1

> <s_lp_Variant>
AV-unprocessed.smi:1467-2

> <Gold.Version>
5.8.1

> <Gold.Id.Protein>
6NUR|6NUR_protein|mol2

> <Gold.PLP.Fitness>
47.5654

> <Gold.PLP.PLP>
-34.5867

> <Gold.PLP.part.hbond>
-4.7340

> <Gold.PLP.part.metal>
0.0000

> <Gold.PLP.part.buried>
-5.0150

> <Gold.PLP.part.nonpolar>
-26.5199

> <Gold.PLP.part.repulsive>
1.2558

> <Gold.PLP.ligand.clash>
0.0000

> <Gold.PLP.ligand.torsion>
1.1470

> <Gold.PLP.Chemscore.Hbond>
3.5996

> <Gold.PLP.Chemscore.CHOScore>
1.4756

> <Gold.PLP.Chemscore.Metal>
0.0000

> <Gold.Chemscore.Hbonds>
donor molecule, donor type, donor heavy atom, donor atom, acceptor molecule, acceptor atom, score
      L1  H     7    41       P1  7957  0.94
      L1  H    10    33       P1  7948  1.00
      L1  H    17    21       P1 10952  0.84
      P1  H 10785 10796       L1    16  0.82
      L1  C    15    35       P1  7921  0.72
      L1  C    18    36       P1 10957  0.27

> <Gold.PLP.Chemscore.Internal.Correction>
0.0469

> <Gold.Rescore>
     Score         DG    S(hbond)    S(metal)    S(lipo)     H(rot)  DE(clash)    DE(int)     intcor
     16.61     -18.61       2.84        0.00      69.49       1.75       0.94       1.06       ----

> <Gold.Chemscore.Fitness>
16.6117

> <Gold.Chemscore.DG>
-18.6070

> <Gold.Chemscore.ZeroCoef>
-5.4800

> <Gold.Chemscore.Hbond>
2.8382

> <Gold.Chemscore.Metal>
0.0000

> <Gold.Chemscore.Lipo>
69.4946

> <Gold.Chemscore.Internal_Hbond>
0.0000

> <Gold.Chemscore.DEClash>
0.9352

> <Gold.Chemscore.DEInternal>
1.0601

> <Gold.Chemscore.Rot>
1.7513

> <Gold.Chemscore.Internal.Correction>
   9.000000E+99

> <Gold.Chemscore.Hbonds>
donor molecule, donor type, donor heavy atom, donor atom, acceptor molecule, acceptor atom, score
      L1  H     7    41       P1  7957  0.90
      L1  H    10    33       P1  7948  0.95
      L1  H    17    21       P1 10952  0.18
      P1  H 10785 10796       L1    16  0.18

> <Gold.Chemscore.Hbond.Weighted>
-9.4795

> <Gold.Chemscore.Metal.Weighted>
-0.0000

> <Gold.Chemscore.Lipo.Weighted>
-8.1309

> <Gold.Chemscore.Internal_Hbond.Weighted>
0.0000

> <Gold.Chemscore.DEClash.Weighted>
0.9352

> <Gold.Chemscore.DEInternal.Weighted>
1.0601

> <Gold.Chemscore.Rot.Weighted>
4.4833

> <Gold.Chemscore.Internal.Correction.Weighted>
   9.000000E+99

> <Gold.Protein.RotatedTorsions>
[ 6907 6896 6895 6894 ] final   18.25 input  -60.11 | X-H torsion
[ 7974 7965 7964 7962 ] final -120.90 input  175.53 | X-H torsion
[ 8008 7997 7996 7995 ] final   94.72 input   59.86 | X-H torsion
[ 10167 10162 10161 10158 ] final  119.14 input  -65.29 | X-H torsion
[ 10718 10713 10712 10709 ] final  -97.98 input   66.30 | X-H torsion
[ 10763 10752 10751 10750 ] final  -70.11 input  -60.55 | X-H torsion
[ 11005 11000 10999 10996 ] final   53.37 input  -57.11 | X-H torsion

> <Gold.Protein.ActiveResidues>
 VAL166  LYS551  ARG553  GLY616  TRP617  ASP618  TYR619  PRO620  LYS621  CYS622 
 ASP623  PHE694  ASN695  SER759  ASP760  ASP761  ALA762  ILE779  LEU786  VAL792 
 PHE793  MET794  SER795  GLU796  ALA797  LYS798  CYS799  TRP800  GLU811  SER814 

> <Gold.Protein.RotatedAtoms>
  151.8623  135.0520  160.0470 H   0  0  0  0  0  0  0  0  0  0  0  0  # atno 6907 bound_to 6896
  152.2653  133.5329  159.5415 H   0  0  0  0  0  0  0  0  0  0  0  0  # atno 6908 bound_to 6896
  150.7131  134.0689  159.3900 H   0  0  0  0  0  0  0  0  0  0  0  0  # atno 6909 bound_to 6896
  145.0462  140.8183  143.4236 H   0  0  0  0  0  0  0  0  0  0  0  0  # atno 7974 bound_to 7965
  156.0610  140.3296  155.7462 H   0  0  0  0  0  0  0  0  0  0  0  0  # atno 8008 bound_to 7997
  155.5454  140.0605  157.2878 H   0  0  0  0  0  0  0  0  0  0  0  0  # atno 8009 bound_to 7997
  154.4481  140.1903  156.0621 H   0  0  0  0  0  0  0  0  0  0  0  0  # atno 8010 bound_to 7997
  139.6065  144.7071  151.2941 H   0  0  0  0  0  0  0  0  0  0  0  0  # atno 10167 bound_to 10162
  156.0096  130.5218  150.6454 H   0  0  0  0  0  0  0  0  0  0  0  0  # atno 10718 bound_to 10713
  154.4129  135.6004  153.5964 H   0  0  0  0  0  0  0  0  0  0  0  0  # atno 10763 bound_to 10752
  152.9791  135.5934  154.4048 H   0  0  0  0  0  0  0  0  0  0  0  0  # atno 10764 bound_to 10752
  154.3862  135.2841  155.2160 H   0  0  0  0  0  0  0  0  0  0  0  0  # atno 10765 bound_to 10752
  140.0773  134.5387  155.8983 H   0  0  0  0  0  0  0  0  0  0  0  0  # atno 11005 bound_to 11000
  145.1585  139.2472  143.5404 LP  0  0  0  0  0  0  0  0  0  0  0  0  # atno 17320 bound_to 7965
  146.3514  140.1305  142.8597 LP  0  0  0  0  0  0  0  0  0  0  0  0  # atno 17321 bound_to 7965
  140.7289  143.6923  150.7912 LP  0  0  0  0  0  0  0  0  0  0  0  0  # atno 17342 bound_to 10162
  140.0510  143.5250  152.2673 LP  0  0  0  0  0  0  0  0  0  0  0  0  # atno 17343 bound_to 10162
  157.4226  131.0839  151.1116 LP  0  0  0  0  0  0  0  0  0  0  0  0  # atno 17370 bound_to 10713
  157.1713  130.6269  149.5641 LP  0  0  0  0  0  0  0  0  0  0  0  0  # atno 17371 bound_to 10713
  141.2034  133.6631  156.6060 LP  0  0  0  0  0  0  0  0  0  0  0  0  # atno 17394 bound_to 11000
  140.3539  134.7745  157.4487 LP  0  0  0  0  0  0  0  0  0  0  0  0  # atno 17395 bound_to 11000

$$$$
