AV-unprocessed.smi:3085|AV-procd|sdf|11756|dock2
  -GOLD-   2272017143D 1   1.00000     0.00000
 Structure written by MMmdl.
 27 28  0  0  0  0  0  0  0  0  1 V2000
  153.2875  142.1422  160.6164 C   0  0  0  0  0  0  0  0  0  0  0  0
  152.1681  143.1401  160.2987 C   0  0  0  0  0  0  0  0  0  0  0  0
  151.5526  142.8927  158.9613 C   0  0  0  0  0  0  0  0  0  0  0  0
  151.9155  141.8430  158.1642 N   0  0  0  0  0  0  0  0  0  0  0  0
  151.0838  142.0235  157.1419 C   0  0  0  0  0  0  0  0  0  0  0  0
  150.9951  141.1554  155.9263 C   0  0  2  0  0  0  0  0  0  0  0  0
  149.8064  141.5350  155.0218 C   0  0  0  0  0  0  0  0  0  0  0  0
  149.7101  140.6068  153.8964 N   0  0  0  0  0  0  0  0  0  0  0  0
  149.6264  139.2229  154.3614 C   0  0  0  0  0  0  0  0  0  0  0  0
  150.8123  138.8964  155.2871 C   0  0  0  0  0  0  0  0  0  0  0  0
  150.8347  139.8127  156.3768 O   0  0  0  0  0  0  0  0  0  0  0  0
  150.2835  143.0773  157.3190 N   0  0  0  0  0  0  0  0  0  0  0  0
  150.5637  143.6594  158.5039 N   0  0  0  0  0  0  0  0  0  0  0  0
  149.5650  143.4145  156.6944 H   0  0  0  0  0  0  0  0  0  0  0  0
  153.7216  142.3446  161.5956 H   0  0  0  0  0  0  0  0  0  0  0  0
  154.0879  142.2016  159.8782 H   0  0  0  0  0  0  0  0  0  0  0  0
  152.9124  141.1184  160.6236 H   0  0  0  0  0  0  0  0  0  0  0  0
  151.3947  143.0847  161.0658 H   0  0  0  0  0  0  0  0  0  0  0  0
  152.5600  144.1573  160.3273 H   0  0  0  0  0  0  0  0  0  0  0  0
  151.9315  141.2409  155.3713 H   0  0  0  0  0  0  0  0  0  0  0  0
  148.8811  141.5111  155.5991 H   0  0  0  0  0  0  0  0  0  0  0  0
  149.9223  142.5557  154.6569 H   0  0  0  0  0  0  0  0  0  0  0  0
  148.8894  140.8289  153.3417 H   0  0  0  0  0  0  0  0  0  0  0  0
  148.6906  139.0678  154.8995 H   0  0  0  0  0  0  0  0  0  0  0  0
  149.6154  138.5420  153.5102 H   0  0  0  0  0  0  0  0  0  0  0  0
  150.7133  137.8844  155.6795 H   0  0  0  0  0  0  0  0  0  0  0  0
  151.7566  138.9339  154.7414 H   0  0  0  0  0  0  0  0  0  0  0  0
  1  2  1  0  0  0  0
  1 15  1  0  0  0  0
  1 16  1  0  0  0  0
  1 17  1  0  0  0  0
  2 18  1  0  0  0  0
  2 19  1  0  0  0  0
  2  3  1  0  0  0  0
  3  4  1  0  0  0  0
  3 13  2  0  0  0  0
  4  5  2  0  0  0  0
  5  6  1  0  0  0  0
  5 12  1  0  0  0  0
  6 11  1  0  0  0  0
  6  7  1  0  0  0  0
  6 20  1  0  0  0  0
  7  8  1  0  0  0  0
  7 21  1  0  0  0  0
  7 22  1  0  0  0  0
  8  9  1  0  0  0  0
  8 23  1  0  0  0  0
  9 10  1  0  0  0  0
  9 24  1  0  0  0  0
  9 25  1  0  0  0  0
 10 11  1  0  0  0  0
 10 26  1  0  0  0  0
 10 27  1  0  0  0  0
 12 13  1  0  0  0  0
 12 14  1  0  0  0  0
M  END
> <s_m_source_file>
AV-unprocessed.smi

> <i_m_source_file_index>
3085

> <i_lp_mmshare_version>
43012

> <i_f3d_flags>
0

> <s_epik_input>
W0NIM11bQ0gyXWMxbmMobltuSF0xKVtDQEBIXTJbQ0gyXVtOSF1bQ0gyXVtDSDJdTzI=

> <s_epik_cmdline>
J2VwaWtfcHl0aG9uJywgJy1waCcsICc3LjAnLCAnLXRuJywgJzgnLCAnLW1hJywgJzIwMCcsICctbWV0YWxfYmluZGluZycsICctaW1hZScsICc8aW5maWxlLm1hZT4nLCAnLW9tYWUnLCAnPG91dGZpbGUubWFlPic=

> <r_epik_Ionization_Penalty>
0.98256

> <r_epik_Ionization_Penalty_Charging>
0

> <r_epik_Ionization_Penalty_Neutral>
0.98256

> <r_epik_State_Penalty>
1.54989

> <r_epik_Charging_Adjusted_Penalty>
1.54989

> <i_epik_Tot_Q>
0

> <i_epik_Tot_abs_Q>
0

> <r_epik_Metal_State_Penalty>
1.76981

> <b_epik_Metal_Only>
0

> <s_lp_Force_Field>
OPLS_2005

> <r_lp_Energy>
9.52309

> <b_lp_Chiralities_Consistent>
1

> <s_lp_Variant>
AV-unprocessed.smi:3085-7

> <Gold.Version>
5.8.1

> <Gold.Id.Protein>
6NUR|6NUR_protein|mol2

> <Gold.PLP.Fitness>
31.1276

> <Gold.PLP.PLP>
-27.3572

> <Gold.PLP.part.hbond>
-3.0335

> <Gold.PLP.part.metal>
0.0000

> <Gold.PLP.part.buried>
-3.5077

> <Gold.PLP.part.nonpolar>
-20.3062

> <Gold.PLP.part.repulsive>
0.1612

> <Gold.PLP.ligand.clash>
0.0000

> <Gold.PLP.ligand.torsion>
0.0951

> <Gold.PLP.Chemscore.Hbond>
1.3176

> <Gold.PLP.Chemscore.CHOScore>
0.0000

> <Gold.PLP.Chemscore.Metal>
0.0000

> <Gold.Chemscore.Hbonds>
donor molecule, donor type, donor heavy atom, donor atom, acceptor molecule, acceptor atom, score
      L1  H    12    14       P1  8028  0.99
      P1  H  7989  7998       L1     8  0.32

> <Gold.PLP.Chemscore.Internal.Correction>
0.0078

> <Gold.Rescore>
     Score         DG    S(hbond)    S(metal)    S(lipo)     H(rot)  DE(clash)    DE(int)     intcor
     11.47     -11.58       1.00        0.00      51.62       1.28       0.00       0.11       ----

> <Gold.Chemscore.Fitness>
11.4744

> <Gold.Chemscore.DG>
-11.5818

> <Gold.Chemscore.ZeroCoef>
-5.4800

> <Gold.Chemscore.Hbond>
1.0009

> <Gold.Chemscore.Metal>
0.0000

> <Gold.Chemscore.Lipo>
51.6174

> <Gold.Chemscore.Internal_Hbond>
0.0000

> <Gold.Chemscore.DEClash>
0.0000

> <Gold.Chemscore.DEInternal>
0.1074

> <Gold.Chemscore.Rot>
1.2815

> <Gold.Chemscore.Internal.Correction>
   9.000000E+99

> <Gold.Chemscore.Hbonds>
donor molecule, donor type, donor heavy atom, donor atom, acceptor molecule, acceptor atom, score
      L1  H    12    14       P1  8028  0.94
      P1  H  7989  7998       L1     8  0.01

> <Gold.Chemscore.Hbond.Weighted>
-3.3431

> <Gold.Chemscore.Metal.Weighted>
-0.0000

> <Gold.Chemscore.Lipo.Weighted>
-6.0392

> <Gold.Chemscore.Internal_Hbond.Weighted>
0.0000

> <Gold.Chemscore.DEClash.Weighted>
0.0000

> <Gold.Chemscore.DEInternal.Weighted>
0.1074

> <Gold.Chemscore.Rot.Weighted>
3.2805

> <Gold.Chemscore.Internal.Correction.Weighted>
   9.000000E+99

> <Gold.Protein.RotatedTorsions>
[ 6907 6896 6895 6894 ] final  116.57 input  -60.11 | X-H torsion
[ 7974 7965 7964 7962 ] final   87.72 input  175.53 | X-H torsion
[ 8008 7997 7996 7995 ] final -151.93 input   59.86 | X-H torsion
[ 10167 10162 10161 10158 ] final -106.86 input  -65.29 | X-H torsion
[ 10718 10713 10712 10709 ] final  147.41 input   66.30 | X-H torsion
[ 10763 10752 10751 10750 ] final  128.59 input  -60.55 | X-H torsion
[ 11005 11000 10999 10996 ] final   51.85 input  -57.11 | X-H torsion

> <Gold.Protein.ActiveResidues>
 VAL166  LYS551  ARG553  GLY616  TRP617  ASP618  TYR619  PRO620  LYS621  CYS622 
 ASP623  PHE694  ASN695  SER759  ASP760  ASP761  ALA762  ILE779  LEU786  VAL792 
 PHE793  MET794  SER795  GLU796  ALA797  LYS798  CYS799  TRP800  GLU811  SER814 

> <Gold.Protein.RotatedAtoms>
  152.4669  133.7942  159.6918 H   0  0  0  0  0  0  0  0  0  0  0  0  # atno 6907 bound_to 6896
  150.8638  133.7595  159.2990 H   0  0  0  0  0  0  0  0  0  0  0  0  # atno 6908 bound_to 6896
  151.5152  135.1069  159.9916 H   0  0  0  0  0  0  0  0  0  0  0  0  # atno 6909 bound_to 6896
  145.5552  139.2299  143.2490 H   0  0  0  0  0  0  0  0  0  0  0  0  # atno 7974 bound_to 7965
  155.6471  140.0708  157.2599 H   0  0  0  0  0  0  0  0  0  0  0  0  # atno 8008 bound_to 7997
  154.4171  140.1740  156.1684 H   0  0  0  0  0  0  0  0  0  0  0  0  # atno 8009 bound_to 7997
  155.9808  140.3354  155.6664 H   0  0  0  0  0  0  0  0  0  0  0  0  # atno 8010 bound_to 7997
  140.1832  143.3950  152.1265 H   0  0  0  0  0  0  0  0  0  0  0  0  # atno 10167 bound_to 10162
  157.3213  131.0904  151.1238 H   0  0  0  0  0  0  0  0  0  0  0  0  # atno 10718 bound_to 10713
  153.7281  135.3243  155.3280 H   0  0  0  0  0  0  0  0  0  0  0  0  # atno 10763 bound_to 10752
  154.8335  135.4515  154.1150 H   0  0  0  0  0  0  0  0  0  0  0  0  # atno 10764 bound_to 10752
  153.2289  135.6957  153.7993 H   0  0  0  0  0  0  0  0  0  0  0  0  # atno 10765 bound_to 10752
  140.0898  134.5225  155.8863 H   0  0  0  0  0  0  0  0  0  0  0  0  # atno 11005 bound_to 11000
  146.1889  140.6376  142.9154 LP  0  0  0  0  0  0  0  0  0  0  0  0  # atno 17320 bound_to 7965
  144.7510  140.5190  143.6802 LP  0  0  0  0  0  0  0  0  0  0  0  0  # atno 17321 bound_to 7965
  139.5287  144.7134  151.5134 LP  0  0  0  0  0  0  0  0  0  0  0  0  # atno 17342 bound_to 10162
  140.6506  143.8705  150.6781 LP  0  0  0  0  0  0  0  0  0  0  0  0  # atno 17343 bound_to 10162
  157.2522  130.6619  149.5937 LP  0  0  0  0  0  0  0  0  0  0  0  0  # atno 17370 bound_to 10713
  155.9686  130.4534  150.5813 LP  0  0  0  0  0  0  0  0  0  0  0  0  # atno 17371 bound_to 10713
  141.2074  133.6664  156.6304 LP  0  0  0  0  0  0  0  0  0  0  0  0  # atno 17394 bound_to 11000
  140.3369  134.7882  157.4368 LP  0  0  0  0  0  0  0  0  0  0  0  0  # atno 17395 bound_to 11000

$$$$
