AV-unprocessed.smi:1527|AV-procd|sdf|6147|dock3
  -GOLD-   22720 6293D 1   1.00000     0.00000
 Structure written by MMmdl.
 30 30  0  0  0  0  0  0  0  0  2 V2000
  151.8486  144.0923  161.2742 C   0  0  0  0  0  0  0  0  0  0  0  0
  152.4564  142.7416  160.8688 C   0  0  0  0  0  0  0  0  0  0  0  0
  152.7912  142.6375  159.3688 C   0  0  2  0  0  0  0  0  0  0  0  0
  153.0770  144.0185  158.7571 C   0  0  0  0  0  0  0  0  0  0  0  0
  151.6967  141.9881  158.6510 N   0  0  0  0  0  0  0  0  0  0  0  0
  151.7702  140.8058  158.0206 C   0  0  0  0  0  0  0  0  0  0  0  0
  152.7967  140.1252  157.9831 O   0  0  0  0  0  0  0  0  0  0  0  0
  150.4738  140.3288  157.3470 C   0  0  0  0  0  0  0  0  0  0  0  0
  150.6768  139.2957  156.3206 N   0  0  0  0  0  0  0  0  0  0  0  0
  151.0567  137.9931  156.8605 N   0  5  0  0  0  0  0  0  0  0  0  0
  151.2944  136.9647  156.0036 C   0  0  0  0  0  0  0  0  0  0  0  0
  151.6351  135.8465  156.3828 O   0  0  0  0  0  0  0  0  0  0  0  0
  151.1306  137.2084  154.5801 C   0  0  0  0  0  0  0  0  0  0  0  0
  150.7529  138.4143  154.1116 C   0  0  0  0  0  0  0  0  0  0  0  0
  150.4927  139.5462  154.9927 C   0  0  0  0  0  0  0  0  0  0  0  0
  150.1367  140.6475  154.5723 O   0  0  0  0  0  0  0  0  0  0  0  0
  151.5887  144.0967  162.3328 H   0  0  0  0  0  0  0  0  0  0  0  0
  150.9399  144.2996  160.7086 H   0  0  0  0  0  0  0  0  0  0  0  0
  152.5448  144.9139  161.1036 H   0  0  0  0  0  0  0  0  0  0  0  0
  153.3530  142.5574  161.4619 H   0  0  0  0  0  0  0  0  0  0  0  0
  151.7520  141.9520  161.1329 H   0  0  0  0  0  0  0  0  0  0  0  0
  153.6917  142.0283  159.2704 H   0  0  0  0  0  0  0  0  0  0  0  0
  153.9026  144.5110  159.2711 H   0  0  0  0  0  0  0  0  0  0  0  0
  152.2058  144.6710  158.8250 H   0  0  0  0  0  0  0  0  0  0  0  0
  153.3500  143.9366  157.7045 H   0  0  0  0  0  0  0  0  0  0  0  0
  150.8118  142.4738  158.6356 H   0  0  0  0  0  0  0  0  0  0  0  0
  149.8042  139.9650  158.1283 H   0  0  0  0  0  0  0  0  0  0  0  0
  149.9645  141.1848  156.9012 H   0  0  0  0  0  0  0  0  0  0  0  0
  151.3130  136.4040  153.8830 H   0  0  0  0  0  0  0  0  0  0  0  0
  150.6417  138.5498  153.0462 H   0  0  0  0  0  0  0  0  0  0  0  0
  1  2  1  0  0  0  0
  1 17  1  0  0  0  0
  1 18  1  0  0  0  0
  1 19  1  0  0  0  0
  2  3  1  0  0  0  0
  2 20  1  0  0  0  0
  2 21  1  0  0  0  0
  3  4  1  0  0  0  0
  3  5  1  0  0  0  0
  3 22  1  0  0  0  0
  4 23  1  0  0  0  0
  4 24  1  0  0  0  0
  4 25  1  0  0  0  0
  5  6  1  0  0  0  0
  5 26  1  0  0  0  0
  6  7  2  0  0  0  0
  6  8  1  0  0  0  0
  8 27  1  0  0  0  0
  8 28  1  0  0  0  0
  8  9  1  0  0  0  0
  9 10  1  0  0  0  0
  9 15  1  0  0  0  0
 10 11  1  0  0  0  0
 11 12  2  0  0  0  0
 11 13  1  0  0  0  0
 13 29  1  0  0  0  0
 13 14  2  0  0  0  0
 14 30  1  0  0  0  0
 14 15  1  0  0  0  0
 15 16  2  0  0  0  0
M  CHG  1  10  -1
M  END
> <s_m_source_file>
AV-unprocessed.smi

> <i_m_source_file_index>
1527

> <i_lp_mmshare_version>
43012

> <i_f3d_flags>
0

> <s_epik_input>
W0NIM11bQ0gyXVtDQEhdKFtDSDNdKVtOSF1DKD1PKVtDSDJdbjFbbkhdYyg9TylbY0hdW2NIXWMxPU8=

> <s_epik_cmdline>
J2VwaWtfcHl0aG9uJywgJy1waCcsICc3LjAnLCAnLXRuJywgJzgnLCAnLW1hJywgJzIwMCcsICctbWV0YWxfYmluZGluZycsICctaW1hZScsICc8aW5maWxlLm1hZT4nLCAnLW9tYWUnLCAnPG91dGZpbGUubWFlPic=

> <r_lp_tautomer_probability>
1

> <r_epik_Ionization_Penalty>
0.0984334

> <r_epik_Ionization_Penalty_Charging>
0.0984334

> <r_epik_Ionization_Penalty_Neutral>
1.93017e-08

> <r_epik_State_Penalty>
0.0346952

> <r_epik_Charging_Adjusted_Penalty>
0.133129

> <i_epik_Tot_Q>
-1

> <i_epik_Tot_abs_Q>
1

> <r_epik_Metal_State_Penalty>
0.0346952

> <b_epik_Metal_Only>
0

> <s_lp_Force_Field>
OPLS_2005

> <r_lp_Energy>
18.7632

> <b_lp_Chiralities_Consistent>
1

> <s_lp_Variant>
AV-unprocessed.smi:1527-1

> <Gold.Version>
5.8.1

> <Gold.Id.Protein>
6NUR|6NUR_protein|mol2

> <Gold.PLP.Fitness>
37.9916

> <Gold.PLP.PLP>
-31.9133

> <Gold.PLP.part.hbond>
-3.0000

> <Gold.PLP.part.metal>
0.0000

> <Gold.PLP.part.buried>
-4.0787

> <Gold.PLP.part.nonpolar>
-25.4760

> <Gold.PLP.part.repulsive>
0.1976

> <Gold.PLP.ligand.clash>
0.0000

> <Gold.PLP.ligand.torsion>
0.8422

> <Gold.PLP.Chemscore.Hbond>
2.5824

> <Gold.PLP.Chemscore.CHOScore>
0.0000

> <Gold.PLP.Chemscore.Metal>
0.0000

> <Gold.Chemscore.Hbonds>
donor molecule, donor type, donor heavy atom, donor atom, acceptor molecule, acceptor atom, score
      P1  H  7989  7998       L1    16  0.62
      P1  H  7997  8010       L1     7  1.00
      P1  H 10752 10765       L1    12  0.91

> <Gold.PLP.Chemscore.Internal.Correction>
0.0156

> <Gold.Rescore>
     Score         DG    S(hbond)    S(metal)    S(lipo)     H(rot)  DE(clash)    DE(int)     intcor
     13.51     -15.33       1.96        0.00      70.83       1.94       0.09       1.73       ----

> <Gold.Chemscore.Fitness>
13.5052

> <Gold.Chemscore.DG>
-15.3273

> <Gold.Chemscore.ZeroCoef>
-5.4800

> <Gold.Chemscore.Hbond>
1.9580

> <Gold.Chemscore.Metal>
0.0000

> <Gold.Chemscore.Lipo>
70.8260

> <Gold.Chemscore.Internal_Hbond>
0.0000

> <Gold.Chemscore.DEClash>
0.0875

> <Gold.Chemscore.DEInternal>
1.7346

> <Gold.Chemscore.Rot>
1.9449

> <Gold.Chemscore.Internal.Correction>
   9.000000E+99

> <Gold.Chemscore.Hbonds>
donor molecule, donor type, donor heavy atom, donor atom, acceptor molecule, acceptor atom, score
      P1  H  7989  7998       L1    16  0.08
      P1  H  7997  8010       L1     7  0.92
      P1  H 10752 10765       L1    12  0.20

> <Gold.Chemscore.Hbond.Weighted>
-6.5397

> <Gold.Chemscore.Metal.Weighted>
-0.0000

> <Gold.Chemscore.Lipo.Weighted>
-8.2866

> <Gold.Chemscore.Internal_Hbond.Weighted>
0.0000

> <Gold.Chemscore.DEClash.Weighted>
0.0875

> <Gold.Chemscore.DEInternal.Weighted>
1.7346

> <Gold.Chemscore.Rot.Weighted>
4.9791

> <Gold.Chemscore.Internal.Correction.Weighted>
   9.000000E+99

> <Gold.Protein.RotatedTorsions>
[ 6907 6896 6895 6894 ] final   61.29 input  -60.11 | X-H torsion
[ 7974 7965 7964 7962 ] final  145.35 input  175.53 | X-H torsion
[ 8008 7997 7996 7995 ] final   44.62 input   59.86 | X-H torsion
[ 10167 10162 10161 10158 ] final -164.07 input  -65.29 | X-H torsion
[ 10718 10713 10712 10709 ] final   20.95 input   66.30 | X-H torsion
[ 10763 10752 10751 10750 ] final -154.47 input  -60.55 | X-H torsion
[ 11005 11000 10999 10996 ] final  -16.27 input  -57.11 | X-H torsion

> <Gold.Protein.ActiveResidues>
 VAL166  LYS551  ARG553  GLY616  TRP617  ASP618  TYR619  PRO620  LYS621  CYS622 
 ASP623  PHE694  ASN695  SER759  ASP760  ASP761  ALA762  ILE779  LEU786  VAL792 
 PHE793  MET794  SER795  GLU796  ALA797  LYS798  CYS799  TRP800  GLU811  SER814 

> <Gold.Protein.RotatedAtoms>
  152.4076  134.6179  160.0042 H   0  0  0  0  0  0  0  0  0  0  0  0  # atno 6907 bound_to 6896
  151.6366  133.3323  159.3129 H   0  0  0  0  0  0  0  0  0  0  0  0  # atno 6908 bound_to 6896
  150.7970  134.7077  159.6631 H   0  0  0  0  0  0  0  0  0  0  0  0  # atno 6909 bound_to 6896
  144.8759  139.5773  143.5865 H   0  0  0  0  0  0  0  0  0  0  0  0  # atno 7974 bound_to 7965
  155.3224  140.3397  155.4241 H   0  0  0  0  0  0  0  0  0  0  0  0  # atno 8008 bound_to 7997
  156.1902  140.1695  156.8143 H   0  0  0  0  0  0  0  0  0  0  0  0  # atno 8009 bound_to 7997
  154.5434  140.0720  156.8531 H   0  0  0  0  0  0  0  0  0  0  0  0  # atno 8010 bound_to 7997
  139.6276  144.0501  152.1988 H   0  0  0  0  0  0  0  0  0  0  0  0  # atno 10167 bound_to 10162
  157.1316  130.6593  149.5953 H   0  0  0  0  0  0  0  0  0  0  0  0  # atno 10718 bound_to 10713
  154.7856  135.3189  154.7893 H   0  0  0  0  0  0  0  0  0  0  0  0  # atno 10763 bound_to 10752
  153.8594  135.6855  153.4788 H   0  0  0  0  0  0  0  0  0  0  0  0  # atno 10764 bound_to 10752
  153.1507  135.4701  154.9571 H   0  0  0  0  0  0  0  0  0  0  0  0  # atno 10765 bound_to 10752
  140.8050  133.8184  155.9507 H   0  0  0  0  0  0  0  0  0  0  0  0  # atno 11005 bound_to 11000
  146.2962  139.7286  142.9125 LP  0  0  0  0  0  0  0  0  0  0  0  0  # atno 17320 bound_to 7965
  145.4043  141.0389  143.3053 LP  0  0  0  0  0  0  0  0  0  0  0  0  # atno 17321 bound_to 7965
  140.0159  144.6189  150.7608 LP  0  0  0  0  0  0  0  0  0  0  0  0  # atno 17342 bound_to 10162
  140.7420  143.2826  151.3554 LP  0  0  0  0  0  0  0  0  0  0  0  0  # atno 17343 bound_to 10162
  155.9807  130.4809  150.6786 LP  0  0  0  0  0  0  0  0  0  0  0  0  # atno 17370 bound_to 10713
  157.4387  131.0858  151.0965 LP  0  0  0  0  0  0  0  0  0  0  0  0  # atno 17371 bound_to 10713
  140.9256  134.2087  157.4898 LP  0  0  0  0  0  0  0  0  0  0  0  0  # atno 17394 bound_to 11000
  139.8718  134.9811  156.5102 LP  0  0  0  0  0  0  0  0  0  0  0  0  # atno 17395 bound_to 11000

$$$$
