AV-unprocessed.smi:39|AV-procd|sdf|361|dock5
  -GOLD-   2262016203D 1   1.00000     0.00000
 Structure written by MMmdl.
 31 32  0  0  0  0  0  0  0  0  4 V2000
  151.4577  144.4482  158.9490 C   0  0  0  0  0  0  0  0  0  0  0  0
  150.8659  143.1598  158.4048 C   0  0  0  0  0  0  0  0  0  0  0  0
  151.4449  142.4682  157.3985 C   0  0  0  0  0  0  0  0  0  0  0  0
  150.9087  141.2922  156.9020 N   0  0  0  0  0  0  0  0  0  0  0  0
  151.6477  140.5126  155.8323 C   0  0  1  0  0  0  0  0  0  0  0  0
  152.1377  139.1328  156.2858 C   0  0  0  0  0  0  0  0  0  0  0  0
  152.1967  138.4221  154.9454 C   0  0  1  0  0  0  0  0  0  0  0  0
  152.1842  136.9584  155.0389 N   0  0  0  0  0  0  0  0  0  0  0  0
  152.2520  136.4772  156.1774 N   0  3  0  0  0  0  0  0  0  0  0  0
  152.1983  135.9926  157.2057 N   0  5  0  0  0  0  0  0  0  0  0  0
  150.9907  139.0272  154.1974 C   0  0  1  0  0  0  0  0  0  0  0  0
  149.6502  138.2576  154.2120 C   0  0  0  0  0  0  0  0  0  0  0  0
  148.6085  138.9369  153.5413 O   0  0  0  0  0  0  0  0  0  0  0  0
  150.7866  140.3273  154.7508 O   0  0  0  0  0  0  0  0  0  0  0  0
  149.7641  140.7337  157.5360 C   0  0  0  0  0  0  0  0  0  0  0  0
  149.3512  139.6395  157.1518 O   0  0  0  0  0  0  0  0  0  0  0  0
  149.1618  141.4332  158.5401 N   0  5  0  0  0  0  0  0  0  0  0  0
  149.6353  142.6268  158.9981 C   0  0  0  0  0  0  0  0  0  0  0  0
  149.0676  143.2581  159.8894 O   0  0  0  0  0  0  0  0  0  0  0  0
  152.4940  141.1113  155.4972 H   0  0  0  0  0  0  0  0  0  0  0  0
  153.1008  138.7551  154.4306 H   0  0  0  0  0  0  0  0  0  0  0  0
  151.2696  139.1670  153.1522 H   0  0  0  0  0  0  0  0  0  0  0  0
  152.3700  144.7207  158.4175 H   0  0  0  0  0  0  0  0  0  0  0  0
  151.7028  144.3377  160.0056 H   0  0  0  0  0  0  0  0  0  0  0  0
  150.7472  145.2685  158.8428 H   0  0  0  0  0  0  0  0  0  0  0  0
  152.3674  142.8450  156.9877 H   0  0  0  0  0  0  0  0  0  0  0  0
  153.1027  139.2065  156.7876 H   0  0  0  0  0  0  0  0  0  0  0  0
  151.4301  138.6446  156.9529 H   0  0  0  0  0  0  0  0  0  0  0  0
  149.7772  137.2699  153.7684 H   0  0  0  0  0  0  0  0  0  0  0  0
  149.3305  138.0998  155.2422 H   0  0  0  0  0  0  0  0  0  0  0  0
  148.9056  139.1593  152.6724 H   0  0  0  0  0  0  0  0  0  0  0  0
  1  2  1  0  0  0  0
  1 23  1  0  0  0  0
  1 24  1  0  0  0  0
  1 25  1  0  0  0  0
  2 18  1  0  0  0  0
  2  3  2  0  0  0  0
  3  4  1  0  0  0  0
  3 26  1  0  0  0  0
  4  5  1  0  0  0  0
  4 15  1  0  0  0  0
  5 20  1  0  0  0  0
  5 14  1  0  0  0  0
  5  6  1  0  0  0  0
  6  7  1  0  0  0  0
  6 27  1  0  0  0  0
  6 28  1  0  0  0  0
  7 21  1  0  0  0  0
  7  8  1  0  0  0  0
  7 11  1  0  0  0  0
  8  9  2  0  0  0  0
  9 10  2  0  0  0  0
 11 22  1  0  0  0  0
 11 12  1  0  0  0  0
 11 14  1  0  0  0  0
 12 13  1  0  0  0  0
 12 29  1  0  0  0  0
 12 30  1  0  0  0  0
 13 31  1  0  0  0  0
 15 16  2  0  0  0  0
 15 17  1  0  0  0  0
 17 18  1  0  0  0  0
 18 19  2  0  0  0  0
M  CHG  1   9   1
M  CHG  1  10  -1
M  CHG  1  17  -1
M  END
> <s_m_source_file>
AV-unprocessed.smi

> <i_m_source_file_index>
39

> <i_lp_mmshare_version>
43012

> <i_f3d_flags>
0

> <s_epik_input>
Tz1jMVtuSF1jKD1PKW4oW2NIXWMxW0NIM10pW0NASF0yW0NIMl1bQ0BIXShOPVtOK109W04tXSlbQ0BIXShPMilbQ0gyXVtPSF0=

> <s_epik_cmdline>
J2VwaWtfcHl0aG9uJywgJy1waCcsICc3LjAnLCAnLXRuJywgJzgnLCAnLW1hJywgJzIwMCcsICctbWV0YWxfYmluZGluZycsICctaW1hZScsICc8aW5maWxlLm1hZT4nLCAnLW9tYWUnLCAnPG91dGZpbGUubWFlPic=

> <r_lp_tautomer_probability>
0.999537

> <r_epik_Ionization_Penalty>
3.6393

> <r_epik_Ionization_Penalty_Charging>
9.76484e-08

> <r_epik_Ionization_Penalty_Neutral>
3.6393

> <r_epik_State_Penalty>
3.63887

> <r_epik_Charging_Adjusted_Penalty>
3.63887

> <i_epik_Tot_Q>
-1

> <i_epik_Tot_abs_Q>
3

> <r_epik_Metal_State_Penalty>
0.225911

> <b_epik_Metal_Only>
1

> <s_epik_Chemistry_Notes>
This compound contains an acetal/aminal-like group ( X-CH(R)-Y where X, Y are N, S, or O) that may be acid/base labile, releasing an aldehyde.

> <s_lp_Force_Field>
OPLS_2005

> <r_lp_Energy>
41.1751

> <b_lp_Chiralities_Consistent>
1

> <s_lp_Variant>
AV-unprocessed.smi:39-11

> <Gold.Version>
5.8.1

> <Gold.Id.Protein>
6NUR|6NUR_protein|mol2

> <Gold.PLP.Fitness>
39.4096

> <Gold.PLP.PLP>
-30.0029

> <Gold.PLP.part.hbond>
-6.7794

> <Gold.PLP.part.metal>
0.0000

> <Gold.PLP.part.buried>
-4.4860

> <Gold.PLP.part.nonpolar>
-20.6637

> <Gold.PLP.part.repulsive>
0.3507

> <Gold.PLP.ligand.clash>
0.0000

> <Gold.PLP.ligand.torsion>
0.0761

> <Gold.PLP.Chemscore.Hbond>
3.1581

> <Gold.PLP.Chemscore.CHOScore>
0.0000

> <Gold.PLP.Chemscore.Metal>
0.0000

> <Gold.Chemscore.Hbonds>
donor molecule, donor type, donor heavy atom, donor atom, acceptor molecule, acceptor atom, score
      L1  H    13    31       P1  7957  1.00
      P1  H  6933  6944       L1    19  0.37
      P1  H  7989  7998       L1    14  0.30
      P1  H 10752 10763       L1     8  0.04

> <Gold.PLP.Chemscore.Internal.Correction>
0.0847

> <Gold.Rescore>
     Score         DG    S(hbond)    S(metal)    S(lipo)     H(rot)  DE(clash)    DE(int)     intcor
     10.60     -12.84       2.35        0.00      55.22       2.72       0.24       2.00       ----

> <Gold.Chemscore.Fitness>
10.5979

> <Gold.Chemscore.DG>
-12.8382

> <Gold.Chemscore.ZeroCoef>
-5.4800

> <Gold.Chemscore.Hbond>
2.3501

> <Gold.Chemscore.Metal>
0.0000

> <Gold.Chemscore.Lipo>
55.2152

> <Gold.Chemscore.Internal_Hbond>
0.0000

> <Gold.Chemscore.DEClash>
0.2407

> <Gold.Chemscore.DEInternal>
1.9996

> <Gold.Chemscore.Rot>
2.7153

> <Gold.Chemscore.Internal.Correction>
   9.000000E+99

> <Gold.Chemscore.Hbonds>
donor molecule, donor type, donor heavy atom, donor atom, acceptor molecule, acceptor atom, score
      L1  H    13    31       P1  7957  1.00
      P1  H  6933  6944       L1    19  0.36

> <Gold.Chemscore.Hbond.Weighted>
-7.8492

> <Gold.Chemscore.Metal.Weighted>
-0.0000

> <Gold.Chemscore.Lipo.Weighted>
-6.4602

> <Gold.Chemscore.Internal_Hbond.Weighted>
0.0000

> <Gold.Chemscore.DEClash.Weighted>
0.2407

> <Gold.Chemscore.DEInternal.Weighted>
1.9996

> <Gold.Chemscore.Rot.Weighted>
6.9512

> <Gold.Chemscore.Internal.Correction.Weighted>
   9.000000E+99

> <Gold.Protein.RotatedTorsions>
[ 6907 6896 6895 6894 ] final    6.20 input  -60.11 | X-H torsion
[ 7974 7965 7964 7962 ] final  126.12 input  175.53 | X-H torsion
[ 8008 7997 7996 7995 ] final -114.19 input   59.86 | X-H torsion
[ 10167 10162 10161 10158 ] final   57.47 input  -65.29 | X-H torsion
[ 10718 10713 10712 10709 ] final   11.61 input   66.30 | X-H torsion
[ 10763 10752 10751 10750 ] final   66.07 input  -60.55 | X-H torsion
[ 11005 11000 10999 10996 ] final -137.23 input  -57.11 | X-H torsion

> <Gold.Protein.ActiveResidues>
 VAL166  LYS551  ARG553  GLY616  TRP617  ASP618  TYR619  PRO620  LYS621  CYS622 
 ASP623  PHE694  ASN695  SER759  ASP760  ASP761  ALA762  ILE779  LEU786  VAL792 
 PHE793  MET794  SER795  GLU796  ALA797  LYS798  CYS799  TRP800  GLU811  SER814 

> <Gold.Protein.RotatedAtoms>
  151.6699  135.0977  160.0195 H   0  0  0  0  0  0  0  0  0  0  0  0  # atno 6907 bound_to 6896
  152.3898  133.6658  159.6236 H   0  0  0  0  0  0  0  0  0  0  0  0  # atno 6908 bound_to 6896
  150.7816  133.8891  159.3349 H   0  0  0  0  0  0  0  0  0  0  0  0  # atno 6909 bound_to 6896
  145.0652  139.3773  143.4985 H   0  0  0  0  0  0  0  0  0  0  0  0  # atno 7974 bound_to 7965
  155.0324  140.0393  157.2479 H   0  0  0  0  0  0  0  0  0  0  0  0  # atno 8008 bound_to 7997
  154.7285  140.2726  155.6453 H   0  0  0  0  0  0  0  0  0  0  0  0  # atno 8009 bound_to 7997
  156.2835  140.2689  156.1978 H   0  0  0  0  0  0  0  0  0  0  0  0  # atno 8010 bound_to 7997
  140.1977  144.4021  150.6543 H   0  0  0  0  0  0  0  0  0  0  0  0  # atno 10167 bound_to 10162
  156.9981  130.6069  149.5693 H   0  0  0  0  0  0  0  0  0  0  0  0  # atno 10718 bound_to 10713
  153.0124  135.5334  154.6766 H   0  0  0  0  0  0  0  0  0  0  0  0  # atno 10763 bound_to 10752
  154.5937  135.2861  155.0611 H   0  0  0  0  0  0  0  0  0  0  0  0  # atno 10764 bound_to 10752
  154.1694  135.6534  153.5058 H   0  0  0  0  0  0  0  0  0  0  0  0  # atno 10765 bound_to 10752
  140.8731  134.2026  157.4638 H   0  0  0  0  0  0  0  0  0  0  0  0  # atno 11005 bound_to 11000
  146.3526  140.0370  142.8646 LP  0  0  0  0  0  0  0  0  0  0  0  0  # atno 17320 bound_to 7965
  145.1359  140.9544  143.4517 LP  0  0  0  0  0  0  0  0  0  0  0  0  # atno 17321 bound_to 7965
  140.6412  143.2204  151.6285 LP  0  0  0  0  0  0  0  0  0  0  0  0  # atno 17342 bound_to 10162
  139.5230  144.3146  152.0963 LP  0  0  0  0  0  0  0  0  0  0  0  0  # atno 17343 bound_to 10162
  156.0181  130.5276  150.8196 LP  0  0  0  0  0  0  0  0  0  0  0  0  # atno 17370 bound_to 10713
  157.5410  131.0940  150.9827 LP  0  0  0  0  0  0  0  0  0  0  0  0  # atno 17371 bound_to 10713
  139.8713  134.9783  156.4993 LP  0  0  0  0  0  0  0  0  0  0  0  0  # atno 17394 bound_to 11000
  140.8550  133.8103  155.9207 LP  0  0  0  0  0  0  0  0  0  0  0  0  # atno 17395 bound_to 11000

$$$$
