AV-unprocessed.smi:229|AV-procd|sdf|1756|dock1
  -GOLD-   2262020283D 1   1.00000     0.00000
 Structure written by MMmdl.
 58 62  0  0  0  0  0  0  0  0  1 V2000
  152.2308  143.6052  159.2117 C   0  0  0  0  0  0  0  0  0  0  0  0
  152.9972  142.2767  159.2024 C   0  0  0  0  0  0  0  0  0  0  0  0
  152.1522  141.1032  158.6847 C   0  0  1  0  0  0  0  0  0  0  0  0
  151.2799  141.5107  157.4851 C   0  0  0  0  0  0  0  0  0  0  0  0
  150.5789  140.3428  156.9635 N   0  0  0  0  0  0  0  0  0  0  0  0
  149.5311  140.5384  156.1236 C   0  0  0  0  0  0  0  0  0  0  0  0
  149.5208  139.9443  154.8998 N   0  0  0  0  0  0  0  0  0  0  0  0
  148.4949  140.1336  154.0647 C   0  0  0  0  0  0  0  0  0  0  0  0
  147.3969  140.8700  154.2449 N   0  0  0  0  0  0  0  0  0  0  0  0
  147.4038  141.4730  155.4676 C   0  0  0  0  0  0  0  0  0  0  0  0
  148.4187  141.3610  156.4597 C   0  0  0  0  0  0  0  0  0  0  0  0
  148.0805  142.1291  157.5687 N   0  0  0  0  0  0  0  0  0  0  0  0
  146.9291  142.6566  157.2539 C   0  0  0  0  0  0  0  0  0  0  0  0
  146.4539  142.3215  156.0062 N   0  0  0  0  0  0  0  0  0  0  0  0
  145.2190  142.7756  155.3908 C   0  0  0  0  0  0  0  0  0  0  0  0
  144.4480  143.7687  156.2873 C   0  0  2  0  0  0  0  0  0  0  0  0
  143.8155  143.0305  157.3154 O   0  0  0  0  0  0  0  0  0  0  0  0
  143.3571  144.5506  155.5287 C   0  0  2  0  0  0  0  0  0  0  0  0
  143.8597  145.3509  154.3243 C   0  0  0  0  0  0  0  0  0  0  0  0
  142.8416  146.4713  154.1798 C   0  0  0  0  0  0  0  0  0  0  0  0
  142.1009  146.4698  155.5186 C   0  0  0  0  0  0  0  0  0  0  0  0
  142.8480  145.5926  156.3485 O   0  0  0  0  0  0  0  0  0  0  0  0
  151.4814  139.2574  156.5984 C   0  0  0  0  0  0  0  0  0  0  0  0
  152.3883  138.8766  157.7909 C   0  0  2  0  0  0  0  0  0  0  0  0
  153.4738  137.8948  157.3617 C   0  0  0  0  0  0  0  0  0  0  0  0
  152.8808  136.5404  157.7192 C   0  0  0  0  0  0  0  0  0  0  0  0
  152.2573  136.8018  158.9622 O   0  0  0  0  0  0  0  0  0  0  0  0
  151.6430  138.0834  158.8904 C   0  0  0  0  0  0  0  0  0  0  0  0
  153.0355  140.0511  158.2899 O   0  0  0  0  0  0  0  0  0  0  0  0
  152.8627  144.4144  159.5777 H   0  0  0  0  0  0  0  0  0  0  0  0
  151.3532  143.5518  159.8565 H   0  0  0  0  0  0  0  0  0  0  0  0
  151.8947  143.8733  158.2098 H   0  0  0  0  0  0  0  0  0  0  0  0
  153.8823  142.3886  158.5752 H   0  0  0  0  0  0  0  0  0  0  0  0
  153.3593  142.0559  160.2073 H   0  0  0  0  0  0  0  0  0  0  0  0
  151.5030  140.7633  159.4921 H   0  0  0  0  0  0  0  0  0  0  0  0
  150.5641  142.2731  157.7959 H   0  0  0  0  0  0  0  0  0  0  0  0
  151.8980  141.9434  156.6970 H   0  0  0  0  0  0  0  0  0  0  0  0
  148.5649  139.6229  153.1158 H   0  0  0  0  0  0  0  0  0  0  0  0
  146.3976  143.3184  157.9223 H   0  0  0  0  0  0  0  0  0  0  0  0
  145.4724  143.2351  154.4353 H   0  0  0  0  0  0  0  0  0  0  0  0
  144.6010  141.9057  155.1638 H   0  0  0  0  0  0  0  0  0  0  0  0
  145.1519  144.4685  156.7402 H   0  0  0  0  0  0  0  0  0  0  0  0
  144.4773  142.7384  157.9237 H   0  0  0  0  0  0  0  0  0  0  0  0
  142.5432  143.8910  155.2194 H   0  0  0  0  0  0  0  0  0  0  0  0
  144.8399  145.7786  154.5404 H   0  0  0  0  0  0  0  0  0  0  0  0
  143.9489  144.7447  153.4223 H   0  0  0  0  0  0  0  0  0  0  0  0
  143.3353  147.4251  153.9902 H   0  0  0  0  0  0  0  0  0  0  0  0
  142.1497  146.2806  153.3588 H   0  0  0  0  0  0  0  0  0  0  0  0
  142.0302  147.4638  155.9613 H   0  0  0  0  0  0  0  0  0  0  0  0
  141.0901  146.0771  155.3988 H   0  0  0  0  0  0  0  0  0  0  0  0
  150.9418  138.3793  156.2459 H   0  0  0  0  0  0  0  0  0  0  0  0
  152.0935  139.5988  155.7623 H   0  0  0  0  0  0  0  0  0  0  0  0
  153.7487  137.9750  156.3095 H   0  0  0  0  0  0  0  0  0  0  0  0
  154.3782  138.0520  157.9517 H   0  0  0  0  0  0  0  0  0  0  0  0
  152.1338  136.2301  156.9868 H   0  0  0  0  0  0  0  0  0  0  0  0
  153.6342  135.7569  157.8030 H   0  0  0  0  0  0  0  0  0  0  0  0
  151.7058  138.5538  159.8714 H   0  0  0  0  0  0  0  0  0  0  0  0
  150.5861  137.9629  158.6484 H   0  0  0  0  0  0  0  0  0  0  0  0
  1  2  1  0  0  0  0
  1 30  1  0  0  0  0
  1 31  1  0  0  0  0
  1 32  1  0  0  0  0
  2  3  1  0  0  0  0
  2 33  1  0  0  0  0
  2 34  1  0  0  0  0
  3 29  1  0  0  0  0
  3  4  1  0  0  0  0
  3 35  1  0  0  0  0
  4  5  1  0  0  0  0
  4 36  1  0  0  0  0
  4 37  1  0  0  0  0
  5  6  1  0  0  0  0
  5 23  1  0  0  0  0
  6 11  1  0  0  0  0
  6  7  2  0  0  0  0
  7  8  1  0  0  0  0
  8  9  2  0  0  0  0
  8 38  1  0  0  0  0
  9 10  1  0  0  0  0
 10 14  1  0  0  0  0
 10 11  2  0  0  0  0
 11 12  1  0  0  0  0
 12 13  2  0  0  0  0
 13 14  1  0  0  0  0
 13 39  1  0  0  0  0
 14 15  1  0  0  0  0
 15 16  1  0  0  0  0
 15 40  1  0  0  0  0
 15 41  1  0  0  0  0
 16 17  1  0  0  0  0
 16 18  1  0  0  0  0
 16 42  1  0  0  0  0
 17 43  1  0  0  0  0
 18 22  1  0  0  0  0
 18 19  1  0  0  0  0
 18 44  1  0  0  0  0
 19 20  1  0  0  0  0
 19 45  1  0  0  0  0
 19 46  1  0  0  0  0
 20 21  1  0  0  0  0
 20 47  1  0  0  0  0
 20 48  1  0  0  0  0
 21 22  1  0  0  0  0
 21 49  1  0  0  0  0
 21 50  1  0  0  0  0
 23 24  1  0  0  0  0
 23 51  1  0  0  0  0
 23 52  1  0  0  0  0
 24 28  1  0  0  0  0
 24 25  1  0  0  0  0
 24 29  1  0  0  0  0
 25 26  1  0  0  0  0
 25 53  1  0  0  0  0
 25 54  1  0  0  0  0
 26 27  1  0  0  0  0
 26 55  1  0  0  0  0
 26 56  1  0  0  0  0
 27 28  1  0  0  0  0
 28 57  1  0  0  0  0
 28 58  1  0  0  0  0
M  END
> <s_m_source_file>
AV-unprocessed.smi

> <i_m_source_file_index>
229

> <i_lp_mmshare_version>
43012

> <i_f3d_flags>
0

> <s_epik_input>
W0NIMl0xT1tDSDJdW0NIMl1bQ0BdMTJbQ0gyXU4oW0NIMl1bQ0BIXShPMilbQ0gyXVtDSDNdKWMobltjSF1uMyljKGMzNCluW2NIXW40W0NIMl1bQ0BIXShbT0hdKVtDQEBIXTVbQ0gyXVtDSDJdW0NIMl1PNQ==

> <s_epik_cmdline>
J2VwaWtfcHl0aG9uJywgJy1waCcsICc3LjAnLCAnLXRuJywgJzgnLCAnLW1hJywgJzIwMCcsICctbWV0YWxfYmluZGluZycsICctaW1hZScsICc8aW5maWxlLm1hZT4nLCAnLW9tYWUnLCAnPG91dGZpbGUubWFlPic=

> <r_lp_tautomer_probability>
1

> <r_epik_Ionization_Penalty>
0.00318402

> <r_epik_Ionization_Penalty_Charging>
0

> <r_epik_Ionization_Penalty_Neutral>
0.00318402

> <r_epik_State_Penalty>
0.00215642

> <r_epik_Charging_Adjusted_Penalty>
0.00215642

> <i_epik_Tot_Q>
0

> <i_epik_Tot_abs_Q>
0

> <r_epik_Metal_State_Penalty>
-0

> <b_epik_Metal_Only>
0

> <s_lp_Force_Field>
OPLS_2005

> <r_lp_Energy>
55.2871

> <b_lp_Chiralities_Consistent>
1

> <s_lp_Variant>
AV-unprocessed.smi:229-10

> <Gold.Version>
5.8.1

> <Gold.Id.Protein>
6NUR|6NUR_protein|mol2

> <Gold.PLP.Fitness>
46.1397

> <Gold.PLP.PLP>
-38.0430

> <Gold.PLP.part.hbond>
-2.0000

> <Gold.PLP.part.metal>
0.0000

> <Gold.PLP.part.buried>
-5.1030

> <Gold.PLP.part.nonpolar>
-31.3452

> <Gold.PLP.part.repulsive>
0.3710

> <Gold.PLP.ligand.clash>
0.0000

> <Gold.PLP.ligand.torsion>
0.5406

> <Gold.PLP.Chemscore.Hbond>
1.8800

> <Gold.PLP.Chemscore.CHOScore>
1.0000

> <Gold.PLP.Chemscore.Metal>
0.0000

> <Gold.Chemscore.Hbonds>
donor molecule, donor type, donor heavy atom, donor atom, acceptor molecule, acceptor atom, score
      P1  H  6896  6908       L1    27  0.86
      P1  H  7997  8010       L1    29  0.95
      L1  C     8    38       P1  7957  1.00

> <Gold.PLP.Chemscore.Internal.Correction>
0.5381

> <Gold.Rescore>
     Score         DG    S(hbond)    S(metal)    S(lipo)     H(rot)  DE(clash)    DE(int)     intcor
     15.04     -15.61       1.49        0.00      97.81       2.46       0.08       0.49       ----

> <Gold.Chemscore.Fitness>
15.0389

> <Gold.Chemscore.DG>
-15.6055

> <Gold.Chemscore.ZeroCoef>
-5.4800

> <Gold.Chemscore.Hbond>
1.4901

> <Gold.Chemscore.Metal>
0.0000

> <Gold.Chemscore.Lipo>
97.8107

> <Gold.Chemscore.Internal_Hbond>
0.0000

> <Gold.Chemscore.DEClash>
0.0780

> <Gold.Chemscore.DEInternal>
0.4886

> <Gold.Chemscore.Rot>
2.4591

> <Gold.Chemscore.Internal.Correction>
   9.000000E+99

> <Gold.Chemscore.Hbonds>
donor molecule, donor type, donor heavy atom, donor atom, acceptor molecule, acceptor atom, score
      P1  H  6896  6908       L1    27  0.71
      P1  H  7997  8010       L1    29  0.19

> <Gold.Chemscore.Hbond.Weighted>
-4.9770

> <Gold.Chemscore.Metal.Weighted>
-0.0000

> <Gold.Chemscore.Lipo.Weighted>
-11.4438

> <Gold.Chemscore.Internal_Hbond.Weighted>
0.0000

> <Gold.Chemscore.DEClash.Weighted>
0.0780

> <Gold.Chemscore.DEInternal.Weighted>
0.4886

> <Gold.Chemscore.Rot.Weighted>
6.2953

> <Gold.Chemscore.Internal.Correction.Weighted>
   9.000000E+99

> <Gold.Protein.RotatedTorsions>
[ 6907 6896 6895 6894 ] final -120.10 input  -60.11 | X-H torsion
[ 7974 7965 7964 7962 ] final    8.85 input  175.53 | X-H torsion
[ 8008 7997 7996 7995 ] final   28.23 input   59.86 | X-H torsion
[ 10167 10162 10161 10158 ] final -153.61 input  -65.29 | X-H torsion
[ 10718 10713 10712 10709 ] final   39.68 input   66.30 | X-H torsion
[ 10763 10752 10751 10750 ] final   42.08 input  -60.55 | X-H torsion
[ 11005 11000 10999 10996 ] final -132.65 input  -57.11 | X-H torsion

> <Gold.Protein.ActiveResidues>
 VAL166  LYS551  ARG553  GLY616  TRP617  ASP618  TYR619  PRO620  LYS621  CYS622 
 ASP623  PHE694  ASN695  SER759  ASP760  ASP761  ALA762  ILE779  LEU786  VAL792 
 PHE793  MET794  SER795  GLU796  ALA797  LYS798  CYS799  TRP800  GLU811  SER814 

> <Gold.Protein.RotatedAtoms>
  150.8364  133.8007  159.3077 H   0  0  0  0  0  0  0  0  0  0  0  0  # atno 6907 bound_to 6896
  151.5722  135.1060  160.0007 H   0  0  0  0  0  0  0  0  0  0  0  0  # atno 6908 bound_to 6896
  152.4435  133.7451  159.6719 H   0  0  0  0  0  0  0  0  0  0  0  0  # atno 6909 bound_to 6896
  146.2411  139.9872  142.8429 H   0  0  0  0  0  0  0  0  0  0  0  0  # atno 7974 bound_to 7965
  155.0554  140.3184  155.4678 H   0  0  0  0  0  0  0  0  0  0  0  0  # atno 8008 bound_to 7997
  156.2825  140.2138  156.5624 H   0  0  0  0  0  0  0  0  0  0  0  0  # atno 8009 bound_to 7997
  154.7176  140.0492  157.0597 H   0  0  0  0  0  0  0  0  0  0  0  0  # atno 8010 bound_to 7997
  139.7083  143.9150  152.2457 H   0  0  0  0  0  0  0  0  0  0  0  0  # atno 10167 bound_to 10162
  157.3733  130.7713  149.7136 H   0  0  0  0  0  0  0  0  0  0  0  0  # atno 10718 bound_to 10713
  152.9892  135.6142  154.2891 H   0  0  0  0  0  0  0  0  0  0  0  0  # atno 10763 bound_to 10752
  154.2617  135.2782  155.2777 H   0  0  0  0  0  0  0  0  0  0  0  0  # atno 10764 bound_to 10752
  154.5200  135.5817  153.6730 H   0  0  0  0  0  0  0  0  0  0  0  0  # atno 10765 bound_to 10752
  140.9151  134.1517  157.4359 H   0  0  0  0  0  0  0  0  0  0  0  0  # atno 11005 bound_to 11000
  145.1537  140.9636  143.4418 LP  0  0  0  0  0  0  0  0  0  0  0  0  # atno 17320 bound_to 7965
  145.0181  139.3448  143.6086 LP  0  0  0  0  0  0  0  0  0  0  0  0  # atno 17321 bound_to 7965
  139.9012  144.6910  150.8663 LP  0  0  0  0  0  0  0  0  0  0  0  0  # atno 17342 bound_to 10162
  140.7727  143.3512  151.2010 LP  0  0  0  0  0  0  0  0  0  0  0  0  # atno 17343 bound_to 10162
  155.9760  130.4081  150.3809 LP  0  0  0  0  0  0  0  0  0  0  0  0  # atno 17370 bound_to 10713
  157.1903  131.0414  151.2703 LP  0  0  0  0  0  0  0  0  0  0  0  0  # atno 17371 bound_to 10713
  139.8764  134.9950  156.5724 LP  0  0  0  0  0  0  0  0  0  0  0  0  # atno 17394 bound_to 11000
  140.8060  133.8467  155.8768 LP  0  0  0  0  0  0  0  0  0  0  0  0  # atno 17395 bound_to 11000

$$$$
