AV-unprocessed.smi:1669|AV-procd|sdf|6685|dock10
  -GOLD-   22720 7403D 1   1.00000     0.00000
 Structure written by MMmdl.
 48 50  0  0  0  0  0  0  0  0  2 V2000
  147.4572  138.3000  154.5107 C   0  0  0  0  0  0  0  0  0  0  0  0
  148.9111  138.1546  154.2707 N   0  3  1  0  0  0  0  0  0  0  0  0
  149.5492  139.4492  153.9256 C   0  0  0  0  0  0  0  0  0  0  0  0
  149.9540  140.2277  155.1658 C   0  0  0  0  0  0  0  0  0  0  0  0
  151.2994  140.2238  155.5912 C   0  0  0  0  0  0  0  0  0  0  0  0
  151.6782  140.9305  156.7491 C   0  0  0  0  0  0  0  0  0  0  0  0
  150.7144  141.6476  157.4836 C   0  0  0  0  0  0  0  0  0  0  0  0
  149.3719  141.6591  157.0591 C   0  0  0  0  0  0  0  0  0  0  0  0
  148.9919  140.9515  155.9021 C   0  0  0  0  0  0  0  0  0  0  0  0
  149.6021  137.4191  155.3627 C   0  0  0  0  0  0  0  0  0  0  0  0
  150.0866  136.0331  154.8995 C   0  0  1  0  0  0  0  0  0  0  0  0
  151.2995  136.1966  154.1893 O   0  0  0  0  0  0  0  0  0  0  0  0
  150.3105  135.0781  156.0883 C   0  0  0  0  0  0  0  0  0  0  0  0
  150.2523  133.6763  155.6949 N   0  0  0  0  0  0  0  0  0  0  0  0
  151.1461  132.6866  155.9494 C   0  0  0  0  0  0  0  0  0  0  0  0
  152.4011  132.9204  156.7335 C   0  0  0  0  0  0  0  0  0  0  0  0
  152.4675  132.1292  157.9002 O   0  0  0  0  0  0  0  0  0  0  0  0
  150.8372  131.4867  155.4568 N   0  0  0  0  0  0  0  0  0  0  0  0
  149.6287  131.7161  154.8289 C   0  0  0  0  0  0  0  0  0  0  0  0
  148.7831  130.8383  154.1138 C   0  0  0  0  0  0  0  0  0  0  0  0
  147.5780  131.3084  153.5520 C   0  0  0  0  0  0  0  0  0  0  0  0
  147.2022  132.6597  153.6961 C   0  0  0  0  0  0  0  0  0  0  0  0
  148.0308  133.5514  154.4037 C   0  0  0  0  0  0  0  0  0  0  0  0
  149.2328  133.0771  154.9620 C   0  0  0  0  0  0  0  0  0  0  0  0
  147.2662  138.9428  155.3709 H   0  0  0  0  0  0  0  0  0  0  0  0
  146.9882  137.3338  154.6965 H   0  0  0  0  0  0  0  0  0  0  0  0
  146.9657  138.7392  153.6420 H   0  0  0  0  0  0  0  0  0  0  0  0
  150.4531  139.2724  153.3406 H   0  0  0  0  0  0  0  0  0  0  0  0
  148.8812  140.0402  153.2970 H   0  0  0  0  0  0  0  0  0  0  0  0
  152.0437  139.6736  155.0343 H   0  0  0  0  0  0  0  0  0  0  0  0
  152.7081  140.9217  157.0744 H   0  0  0  0  0  0  0  0  0  0  0  0
  151.0047  142.1896  158.3716 H   0  0  0  0  0  0  0  0  0  0  0  0
  148.6332  142.2101  157.6223 H   0  0  0  0  0  0  0  0  0  0  0  0
  147.9592  140.9634  155.5857 H   0  0  0  0  0  0  0  0  0  0  0  0
  150.4644  137.9785  155.7253 H   0  0  0  0  0  0  0  0  0  0  0  0
  148.9310  137.3262  156.2182 H   0  0  0  0  0  0  0  0  0  0  0  0
  149.3571  135.5881  154.2226 H   0  0  0  0  0  0  0  0  0  0  0  0
  151.0954  136.3764  153.2836 H   0  0  0  0  0  0  0  0  0  0  0  0
  151.2648  135.2854  156.5722 H   0  0  0  0  0  0  0  0  0  0  0  0
  149.5466  135.2461  156.8485 H   0  0  0  0  0  0  0  0  0  0  0  0
  153.2645  132.6897  156.1084 H   0  0  0  0  0  0  0  0  0  0  0  0
  152.4835  133.9737  157.0010 H   0  0  0  0  0  0  0  0  0  0  0  0
  152.4143  131.2198  157.6498 H   0  0  0  0  0  0  0  0  0  0  0  0
  149.0619  129.8012  153.9981 H   0  0  0  0  0  0  0  0  0  0  0  0
  146.9388  130.6285  153.0081 H   0  0  0  0  0  0  0  0  0  0  0  0
  146.2771  133.0108  153.2627 H   0  0  0  0  0  0  0  0  0  0  0  0
  147.7449  134.5866  154.5154 H   0  0  0  0  0  0  0  0  0  0  0  0
  149.0096  137.5803  153.4452 H   0  0  0  0  0  0  0  0  0  0  0  0
  1  2  1  0  0  0  0
  1 25  1  0  0  0  0
  1 26  1  0  0  0  0
  1 27  1  0  0  0  0
  2  3  1  0  0  0  0
  2 10  1  0  0  0  0
  2 48  1  0  0  0  0
  3  4  1  0  0  0  0
  3 28  1  0  0  0  0
  3 29  1  0  0  0  0
  4  9  1  0  0  0  0
  4  5  2  0  0  0  0
  5  6  1  0  0  0  0
  5 30  1  0  0  0  0
  6  7  2  0  0  0  0
  6 31  1  0  0  0  0
  7  8  1  0  0  0  0
  7 32  1  0  0  0  0
  8  9  2  0  0  0  0
  8 33  1  0  0  0  0
  9 34  1  0  0  0  0
 10 11  1  0  0  0  0
 10 35  1  0  0  0  0
 10 36  1  0  0  0  0
 11 12  1  0  0  0  0
 11 13  1  0  0  0  0
 11 37  1  0  0  0  0
 12 38  1  0  0  0  0
 13 14  1  0  0  0  0
 13 39  1  0  0  0  0
 13 40  1  0  0  0  0
 14 24  1  0  0  0  0
 14 15  1  0  0  0  0
 15 16  1  0  0  0  0
 15 18  2  0  0  0  0
 16 17  1  0  0  0  0
 16 41  1  0  0  0  0
 16 42  1  0  0  0  0
 17 43  1  0  0  0  0
 18 19  1  0  0  0  0
 19 24  2  0  0  0  0
 19 20  1  0  0  0  0
 20 21  2  0  0  0  0
 20 44  1  0  0  0  0
 21 22  1  0  0  0  0
 21 45  1  0  0  0  0
 22 23  2  0  0  0  0
 22 46  1  0  0  0  0
 23 24  1  0  0  0  0
 23 47  1  0  0  0  0
M  CHG  1   2   1
M  END
> <s_m_source_file>
AV-unprocessed.smi

> <i_m_source_file_index>
1669

> <i_lp_mmshare_version>
43012

> <i_f3d_flags>
0

> <s_epik_input>
W2NIXTFbY0hdW2NIXVtjSF1bY0hdYzFbQ0gyXU4oW0NIM10pW0NIMl1bQ0BIXShbT0hdKVtDSDJdbihjKG4yKVtDSDJdW09IXSljKGMyMylbY0hdW2NIXVtjSF1bY0hdMw==

> <s_epik_cmdline>
J2VwaWtfcHl0aG9uJywgJy1waCcsICc3LjAnLCAnLXRuJywgJzgnLCAnLW1hJywgJzIwMCcsICctbWV0YWxfYmluZGluZycsICctaW1hZScsICc8aW5maWxlLm1hZT4nLCAnLW9tYWUnLCAnPG91dGZpbGUubWFlPic=

> <r_epik_Ionization_Penalty>
0.0949884

> <r_epik_Ionization_Penalty_Charging>
0.0475377

> <r_epik_Ionization_Penalty_Neutral>
0.0474507

> <r_epik_State_Penalty>
0.078247

> <r_epik_Charging_Adjusted_Penalty>
0.125785

> <i_epik_Tot_Q>
1

> <i_epik_Tot_abs_Q>
1

> <r_epik_Metal_State_Penalty>
0.0403451

> <b_epik_Metal_Only>
0

> <s_lp_Force_Field>
OPLS_2005

> <r_lp_Energy>
15.7652

> <b_lp_Chiralities_Consistent>
1

> <s_lp_Variant>
AV-unprocessed.smi:1669-3

> <Gold.Version>
5.8.1

> <Gold.Id.Protein>
6NUR|6NUR_protein|mol2

> <Gold.PLP.Fitness>
47.9935

> <Gold.PLP.PLP>
-36.0706

> <Gold.PLP.part.hbond>
-4.0000

> <Gold.PLP.part.metal>
0.0000

> <Gold.PLP.part.buried>
0.2813

> <Gold.PLP.part.nonpolar>
-32.3624

> <Gold.PLP.part.repulsive>
0.0172

> <Gold.PLP.ligand.clash>
0.0000

> <Gold.PLP.ligand.torsion>
1.7174

> <Gold.PLP.Chemscore.Hbond>
5.0000

> <Gold.PLP.Chemscore.CHOScore>
0.0000

> <Gold.PLP.Chemscore.Metal>
0.0000

> <Gold.Chemscore.Hbonds>
donor molecule, donor type, donor heavy atom, donor atom, acceptor molecule, acceptor atom, score
      L1  H     2    48       P1  7948  1.85
      L1  H    12    38       P1  7949  1.00
      P1  H  6896  6907       L1    17  1.00
      P1  H 10752 10763       L1    12  1.00

> <Gold.PLP.Chemscore.Internal.Correction>
0.3576

> <Gold.Rescore>
     Score         DG    S(hbond)    S(metal)    S(lipo)     H(rot)  DE(clash)    DE(int)     intcor
     14.38     -17.02       2.96        0.00      83.45       3.17       1.02       1.62       ----

> <Gold.Chemscore.Fitness>
14.3837

> <Gold.Chemscore.DG>
-17.0230

> <Gold.Chemscore.ZeroCoef>
-5.4800

> <Gold.Chemscore.Hbond>
2.9648

> <Gold.Chemscore.Metal>
0.0000

> <Gold.Chemscore.Lipo>
83.4490

> <Gold.Chemscore.Internal_Hbond>
0.0000

> <Gold.Chemscore.DEClash>
1.0196

> <Gold.Chemscore.DEInternal>
1.6198

> <Gold.Chemscore.Rot>
3.1731

> <Gold.Chemscore.Internal.Correction>
   9.000000E+99

> <Gold.Chemscore.Hbonds>
donor molecule, donor type, donor heavy atom, donor atom, acceptor molecule, acceptor atom, score
      L1  H     2    48       P1  7948  0.89
      L1  H    12    38       P1  7949  0.33
      P1  H  6896  6907       L1    17  0.49
      P1  H 10752 10763       L1    12  0.70

> <Gold.Chemscore.Hbond.Weighted>
-9.9026

> <Gold.Chemscore.Metal.Weighted>
-0.0000

> <Gold.Chemscore.Lipo.Weighted>
-9.7635

> <Gold.Chemscore.Internal_Hbond.Weighted>
0.0000

> <Gold.Chemscore.DEClash.Weighted>
1.0196

> <Gold.Chemscore.DEInternal.Weighted>
1.6198

> <Gold.Chemscore.Rot.Weighted>
8.1230

> <Gold.Chemscore.Internal.Correction.Weighted>
   9.000000E+99

> <Gold.Protein.RotatedTorsions>
[ 6907 6896 6895 6894 ] final  160.09 input  -60.11 | X-H torsion
[ 7974 7965 7964 7962 ] final -110.90 input  175.53 | X-H torsion
[ 8008 7997 7996 7995 ] final   25.78 input   59.86 | X-H torsion
[ 10167 10162 10161 10158 ] final  161.64 input  -65.29 | X-H torsion
[ 10718 10713 10712 10709 ] final  -29.44 input   66.30 | X-H torsion
[ 10763 10752 10751 10750 ] final   42.80 input  -60.55 | X-H torsion
[ 11005 11000 10999 10996 ] final -126.16 input  -57.11 | X-H torsion

> <Gold.Protein.ActiveResidues>
 VAL166  LYS551  ARG553  GLY616  TRP617  ASP618  TYR619  PRO620  LYS621  CYS622 
 ASP623  PHE694  ASN695  SER759  ASP760  ASP761  ALA762  ILE779  LEU786  VAL792 
 PHE793  MET794  SER795  GLU796  ALA797  LYS798  CYS799  TRP800  GLU811  SER814 

> <Gold.Protein.RotatedAtoms>
  151.9758  133.3741  159.4088 H   0  0  0  0  0  0  0  0  0  0  0  0  # atno 6907 bound_to 6896
  150.6942  134.4091  159.5163 H   0  0  0  0  0  0  0  0  0  0  0  0  # atno 6908 bound_to 6896
  152.1803  134.8760  160.0577 H   0  0  0  0  0  0  0  0  0  0  0  0  # atno 6909 bound_to 6896
  145.1626  140.8886  143.3582 H   0  0  0  0  0  0  0  0  0  0  0  0  # atno 7974 bound_to 7965
  155.0171  140.3143  155.4807 H   0  0  0  0  0  0  0  0  0  0  0  0  # atno 8008 bound_to 7997
  156.2899  140.2204  156.5229 H   0  0  0  0  0  0  0  0  0  0  0  0  # atno 8009 bound_to 7997
  154.7484  140.0468  157.0860 H   0  0  0  0  0  0  0  0  0  0  0  0  # atno 8010 bound_to 7997
  139.4851  144.4517  151.8821 H   0  0  0  0  0  0  0  0  0  0  0  0  # atno 10167 bound_to 10162
  156.4124  130.4410  149.7242 H   0  0  0  0  0  0  0  0  0  0  0  0  # atno 10718 bound_to 10713
  152.9874  135.6120  154.3009 H   0  0  0  0  0  0  0  0  0  0  0  0  # atno 10763 bound_to 10752
  154.2729  135.2779  155.2732 H   0  0  0  0  0  0  0  0  0  0  0  0  # atno 10764 bound_to 10752
  154.5106  135.5842  153.6659 H   0  0  0  0  0  0  0  0  0  0  0  0  # atno 10765 bound_to 10752
  140.9704  134.0814  157.3876 H   0  0  0  0  0  0  0  0  0  0  0  0  # atno 11005 bound_to 11000
  145.0315  139.3337  143.6022 LP  0  0  0  0  0  0  0  0  0  0  0  0  # atno 17320 bound_to 7965
  146.3480  139.9654  142.8712 LP  0  0  0  0  0  0  0  0  0  0  0  0  # atno 17321 bound_to 7965
  140.3974  144.2537  150.5895 LP  0  0  0  0  0  0  0  0  0  0  0  0  # atno 17342 bound_to 10162
  140.5089  143.2296  151.8565 LP  0  0  0  0  0  0  0  0  0  0  0  0  # atno 17343 bound_to 10162
  156.4216  130.7771  151.2788 LP  0  0  0  0  0  0  0  0  0  0  0  0  # atno 17370 bound_to 10713
  157.7507  131.0181  150.3613 LP  0  0  0  0  0  0  0  0  0  0  0  0  # atno 17371 bound_to 10713
  139.8910  135.0115  156.6767 LP  0  0  0  0  0  0  0  0  0  0  0  0  # atno 17394 bound_to 11000
  140.7337  133.9036  155.8229 LP  0  0  0  0  0  0  0  0  0  0  0  0  # atno 17395 bound_to 11000

$$$$
