AV-unprocessed.smi:1683|AV-procd|sdf|6750|dock6
  -GOLD-   22720 7503D 1   1.00000     0.00000
 Structure written by MMmdl.
 37 38  0  0  0  0  0  0  0  0  2 V2000
  144.3828  136.4769  151.8374 O   0  0  0  0  0  0  0  0  0  0  0  0
  145.6002  136.3130  151.7528 C   0  0  0  0  0  0  0  0  0  0  0  0
  146.4979  137.2043  152.1967 N   0  0  0  0  0  0  0  0  0  0  0  0
  146.1658  138.4811  152.8202 C   0  0  0  0  0  0  0  0  0  0  0  0
  147.4224  139.3114  153.1448 C   0  0  1  0  0  0  0  0  0  0  0  0
  147.1728  140.8050  153.3365 C   0  0  0  0  0  0  0  0  0  0  0  0
  148.4134  141.2509  154.1056 C   0  0  0  0  0  0  0  0  0  0  0  0
  148.7542  140.1226  155.0020 N   0  3  2  0  0  0  0  0  0  0  0  0
  150.1994  139.9712  155.3043 C   0  0  0  0  0  0  0  0  0  0  0  0
  150.6001  140.6030  156.6496 C   0  0  0  0  0  0  0  0  0  0  0  0
  150.6927  141.9232  156.4980 F   0  0  0  0  0  0  0  0  0  0  0  0
  149.6934  140.3507  157.5930 F   0  0  0  0  0  0  0  0  0  0  0  0
  151.7849  140.1337  157.0407 F   0  0  0  0  0  0  0  0  0  0  0  0
  148.1174  138.9018  154.4498 C   0  0  0  0  0  0  0  0  0  0  0  0
  146.2002  135.2357  151.2199 N   0  0  0  0  0  0  0  0  0  0  0  0
  145.5753  134.1083  150.6290 C   0  0  0  0  0  0  0  0  0  0  0  0
  146.2045  132.8510  150.4196 C   0  0  0  0  0  0  0  0  0  0  0  0
  145.3803  131.9875  149.8439 N   0  0  0  0  0  0  0  0  0  0  0  0
  144.2316  132.6820  149.6820 N   0  0  0  0  0  0  0  0  0  0  0  0
  144.3041  133.9774  150.1444 C   0  0  0  0  0  0  0  0  0  0  0  0
  143.4159  132.2636  149.2574 H   0  0  0  0  0  0  0  0  0  0  0  0
  147.4784  136.9898  152.0865 H   0  0  0  0  0  0  0  0  0  0  0  0
  145.5174  139.0321  152.1384 H   0  0  0  0  0  0  0  0  0  0  0  0
  145.5822  138.3093  153.7263 H   0  0  0  0  0  0  0  0  0  0  0  0
  148.1463  139.1948  152.3360 H   0  0  0  0  0  0  0  0  0  0  0  0
  147.0463  141.3396  152.3946 H   0  0  0  0  0  0  0  0  0  0  0  0
  146.2794  140.9673  153.9415 H   0  0  0  0  0  0  0  0  0  0  0  0
  149.2281  141.4285  153.4015 H   0  0  0  0  0  0  0  0  0  0  0  0
  148.2446  142.1716  154.6645 H   0  0  0  0  0  0  0  0  0  0  0  0
  150.4262  138.9049  155.3518 H   0  0  0  0  0  0  0  0  0  0  0  0
  150.7999  140.3793  154.4896 H   0  0  0  0  0  0  0  0  0  0  0  0
  147.3917  138.5453  155.1818 H   0  0  0  0  0  0  0  0  0  0  0  0
  148.8290  138.0930  154.2753 H   0  0  0  0  0  0  0  0  0  0  0  0
  147.2094  135.2222  151.2310 H   0  0  0  0  0  0  0  0  0  0  0  0
  147.2110  132.5424  150.6613 H   0  0  0  0  0  0  0  0  0  0  0  0
  143.4696  134.6602  150.0840 H   0  0  0  0  0  0  0  0  0  0  0  0
  148.2892  140.2987  155.8812 H   0  0  0  0  0  0  0  0  0  0  0  0
  1  2  2  0  0  0  0
  2  3  1  0  0  0  0
  2 15  1  0  0  0  0
  3  4  1  0  0  0  0
  3 22  1  0  0  0  0
  4  5  1  0  0  0  0
  4 23  1  0  0  0  0
  4 24  1  0  0  0  0
  5 14  1  0  0  0  0
  5  6  1  0  0  0  0
  5 25  1  0  0  0  0
  6  7  1  0  0  0  0
  6 26  1  0  0  0  0
  6 27  1  0  0  0  0
  7  8  1  0  0  0  0
  7 28  1  0  0  0  0
  7 29  1  0  0  0  0
  8  9  1  0  0  0  0
  8 14  1  0  0  0  0
  8 37  1  0  0  0  0
  9 10  1  0  0  0  0
  9 30  1  0  0  0  0
  9 31  1  0  0  0  0
 10 11  1  0  0  0  0
 10 12  1  0  0  0  0
 10 13  1  0  0  0  0
 14 32  1  0  0  0  0
 14 33  1  0  0  0  0
 15 16  1  0  0  0  0
 15 34  1  0  0  0  0
 16 20  2  0  0  0  0
 16 17  1  0  0  0  0
 17 18  2  0  0  0  0
 17 35  1  0  0  0  0
 18 19  1  0  0  0  0
 19 21  1  0  0  0  0
 19 20  1  0  0  0  0
 20 36  1  0  0  0  0
M  CHG  1   8   1
M  END
> <s_m_source_file>
AV-unprocessed.smi

> <i_m_source_file_index>
1683

> <i_lp_mmshare_version>
43012

> <i_f3d_flags>
0

> <s_epik_input>
W2NIXTFbbkhdbltjSF1jMVtOSF1DKD1PKVtOSF1bQ0gyXVtDQEBIXTJbQ0gyXVtDSDJdTihbQ0gyXTIpW0NIMl1DKEYpKEYpRg==

> <s_epik_cmdline>
J2VwaWtfcHl0aG9uJywgJy1waCcsICc3LjAnLCAnLXRuJywgJzgnLCAnLW1hJywgJzIwMCcsICctbWV0YWxfYmluZGluZycsICctaW1hZScsICc8aW5maWxlLm1hZT4nLCAnLW9tYWUnLCAnPG91dGZpbGUubWFlPic=

> <r_lp_tautomer_probability>
0.5

> <r_epik_Ionization_Penalty>
0.641865

> <r_epik_Ionization_Penalty_Charging>
0.64182

> <r_epik_Ionization_Penalty_Neutral>
4.50685e-05

> <r_epik_State_Penalty>
0.65957

> <r_epik_Charging_Adjusted_Penalty>
1.30139

> <i_epik_Tot_Q>
1

> <i_epik_Tot_abs_Q>
1

> <r_epik_Metal_State_Penalty>
0.659571

> <b_epik_Metal_Only>
0

> <s_lp_Force_Field>
OPLS_2005

> <r_lp_Energy>
31.4735

> <b_lp_Chiralities_Consistent>
1

> <s_lp_Variant>
AV-unprocessed.smi:1683-4

> <Gold.Version>
5.8.1

> <Gold.Id.Protein>
6NUR|6NUR_protein|mol2

> <Gold.PLP.Fitness>
42.5241

> <Gold.PLP.PLP>
-32.5300

> <Gold.PLP.part.hbond>
-2.0000

> <Gold.PLP.part.metal>
0.0000

> <Gold.PLP.part.buried>
-4.8858

> <Gold.PLP.part.nonpolar>
-27.5866

> <Gold.PLP.part.repulsive>
0.6191

> <Gold.PLP.ligand.clash>
0.0000

> <Gold.PLP.ligand.torsion>
1.0765

> <Gold.PLP.Chemscore.Hbond>
1.9051

> <Gold.PLP.Chemscore.CHOScore>
1.9934

> <Gold.PLP.Chemscore.Metal>
0.0000

> <Gold.Chemscore.Hbonds>
donor molecule, donor type, donor heavy atom, donor atom, acceptor molecule, acceptor atom, score
      L1  H     3    22       P1  7948  1.00
      L1  H    15    34       P1  7948  0.89
      L1  C    17    35       P1 10747  1.00
      L1  C    20    36       P1 10186  1.00

> <Gold.PLP.Chemscore.Internal.Correction>
0.4517

> <Gold.Rescore>
     Score         DG    S(hbond)    S(metal)    S(lipo)     H(rot)  DE(clash)    DE(int)     intcor
     13.24     -14.74       1.89        0.00      64.98       1.81       0.30       1.20       ----

> <Gold.Chemscore.Fitness>
13.2363

> <Gold.Chemscore.DG>
-14.7408

> <Gold.Chemscore.ZeroCoef>
-5.4800

> <Gold.Chemscore.Hbond>
1.8852

> <Gold.Chemscore.Metal>
0.0000

> <Gold.Chemscore.Lipo>
64.9760

> <Gold.Chemscore.Internal_Hbond>
0.0000

> <Gold.Chemscore.DEClash>
0.3022

> <Gold.Chemscore.DEInternal>
1.2023

> <Gold.Chemscore.Rot>
1.8116

> <Gold.Chemscore.Internal.Correction>
   9.000000E+99

> <Gold.Chemscore.Hbonds>
donor molecule, donor type, donor heavy atom, donor atom, acceptor molecule, acceptor atom, score
      L1  H     3    22       P1  7948  1.00
      L1  H    15    34       P1  7948  0.61

> <Gold.Chemscore.Hbond.Weighted>
-6.2964

> <Gold.Chemscore.Metal.Weighted>
-0.0000

> <Gold.Chemscore.Lipo.Weighted>
-7.6022

> <Gold.Chemscore.Internal_Hbond.Weighted>
0.0000

> <Gold.Chemscore.DEClash.Weighted>
0.3022

> <Gold.Chemscore.DEInternal.Weighted>
1.2023

> <Gold.Chemscore.Rot.Weighted>
4.6378

> <Gold.Chemscore.Internal.Correction.Weighted>
   9.000000E+99

> <Gold.Protein.RotatedTorsions>
[ 6907 6896 6895 6894 ] final  148.19 input  -60.11 | X-H torsion
[ 7974 7965 7964 7962 ] final  110.77 input  175.53 | X-H torsion
[ 8008 7997 7996 7995 ] final  160.53 input   59.86 | X-H torsion
[ 10167 10162 10161 10158 ] final   67.55 input  -65.29 | X-H torsion
[ 10718 10713 10712 10709 ] final   38.79 input   66.30 | X-H torsion
[ 10763 10752 10751 10750 ] final  -54.74 input  -60.55 | X-H torsion
[ 11005 11000 10999 10996 ] final  131.97 input  -57.11 | X-H torsion

> <Gold.Protein.ActiveResidues>
 VAL166  LYS551  ARG553  GLY616  TRP617  ASP618  TYR619  PRO620  LYS621  CYS622 
 ASP623  PHE694  ASN695  SER759  ASP760  ASP761  ALA762  ILE779  LEU786  VAL792 
 PHE793  MET794  SER795  GLU796  ALA797  LYS798  CYS799  TRP800  GLU811  SER814 

> <Gold.Protein.RotatedAtoms>
  152.1447  133.4485  159.4783 H   0  0  0  0  0  0  0  0  0  0  0  0  # atno 6907 bound_to 6896
  150.6889  134.2262  159.4425 H   0  0  0  0  0  0  0  0  0  0  0  0  # atno 6908 bound_to 6896
  152.0155  134.9852  160.0620 H   0  0  0  0  0  0  0  0  0  0  0  0  # atno 6909 bound_to 6896
  145.2508  139.2741  143.4068 H   0  0  0  0  0  0  0  0  0  0  0  0  # atno 7974 bound_to 7965
  156.2166  140.1802  156.7574 H   0  0  0  0  0  0  0  0  0  0  0  0  # atno 8008 bound_to 7997
  154.5801  140.0667  156.9120 H   0  0  0  0  0  0  0  0  0  0  0  0  # atno 8009 bound_to 7997
  155.2518  140.3329  155.4284 H   0  0  0  0  0  0  0  0  0  0  0  0  # atno 8010 bound_to 7997
  140.0883  144.5010  150.7115 H   0  0  0  0  0  0  0  0  0  0  0  0  # atno 10167 bound_to 10162
  157.3630  130.7660  149.7062 H   0  0  0  0  0  0  0  0  0  0  0  0  # atno 10718 bound_to 10713
  154.1797  135.6445  153.5031 H   0  0  0  0  0  0  0  0  0  0  0  0  # atno 10763 bound_to 10752
  153.0062  135.5403  154.6527 H   0  0  0  0  0  0  0  0  0  0  0  0  # atno 10764 bound_to 10752
  154.5888  135.2932  155.0629 H   0  0  0  0  0  0  0  0  0  0  0  0  # atno 10765 bound_to 10752
  139.9762  134.9563  156.9514 H   0  0  0  0  0  0  0  0  0  0  0  0  # atno 11005 bound_to 11000
  146.3303  140.2898  142.8614 LP  0  0  0  0  0  0  0  0  0  0  0  0  # atno 17320 bound_to 7965
  144.9505  140.8173  143.5575 LP  0  0  0  0  0  0  0  0  0  0  0  0  # atno 17321 bound_to 7965
  140.7042  143.2456  151.4776 LP  0  0  0  0  0  0  0  0  0  0  0  0  # atno 17342 bound_to 10162
  139.5739  144.1864  152.1876 LP  0  0  0  0  0  0  0  0  0  0  0  0  # atno 17343 bound_to 10162
  155.9741  130.4108  150.3951 LP  0  0  0  0  0  0  0  0  0  0  0  0  # atno 17370 bound_to 10713
  157.2031  131.0442  151.2640 LP  0  0  0  0  0  0  0  0  0  0  0  0  # atno 17371 bound_to 10713
  140.5191  134.0926  155.7288 LP  0  0  0  0  0  0  0  0  0  0  0  0  # atno 17394 bound_to 11000
  141.1438  133.9091  157.2263 LP  0  0  0  0  0  0  0  0  0  0  0  0  # atno 17395 bound_to 11000

$$$$
