AV-unprocessed.smi:2243|AV-procd|sdf|9066|dock5
  -GOLD-   2272012273D 1   1.00000     0.00000
 Structure written by MMmdl.
 34 35  0  0  0  0  0  0  0  0  1 V2000
  153.0129  140.2112  158.3342 C   0  0  0  0  0  0  0  0  0  0  0  0
  151.5609  140.7149  158.2710 C   0  0  2  0  0  0  0  0  0  0  0  0
  151.1380  140.6933  156.8697 N   0  0  0  0  0  0  0  0  0  0  0  0
  151.1364  139.6295  156.0507 C   0  0  0  0  0  0  0  0  0  0  0  0
  151.5089  138.5154  156.4318 O   0  0  0  0  0  0  0  0  0  0  0  0
  150.6666  140.0016  154.7995 N   0  0  0  0  0  0  0  0  0  0  0  0
  149.4805  140.5139  154.6828 C   0  0  0  0  0  0  0  0  0  0  0  0
  148.8549  140.9407  153.5223 N   0  0  0  0  0  0  0  0  0  0  0  0
  147.6149  141.4117  153.8555 C   0  0  0  0  0  0  0  0  0  0  0  0
  147.4643  141.2864  155.1708 C   0  0  0  0  0  0  0  0  0  0  0  0
  148.5903  140.7392  155.7077 O   0  0  0  0  0  0  0  0  0  0  0  0
  151.3762  142.1339  158.8722 C   0  0  0  0  0  0  0  0  0  0  0  0
  151.5555  143.2496  157.8226 C   0  0  0  0  0  0  0  0  0  0  0  0
  151.4359  144.6422  158.4627 C   0  0  0  0  0  0  0  0  0  0  0  0
  152.3917  144.7828  159.5060 O   0  0  0  0  0  0  0  0  0  0  0  0
  152.1883  143.8534  160.5630 C   0  0  0  0  0  0  0  0  0  0  0  0
  152.3459  142.4165  160.0401 C   0  0  0  0  0  0  0  0  0  0  0  0
  153.3464  140.0645  159.3610 H   0  0  0  0  0  0  0  0  0  0  0  0
  153.6979  140.9111  157.8546 H   0  0  0  0  0  0  0  0  0  0  0  0
  153.1144  139.2497  157.8295 H   0  0  0  0  0  0  0  0  0  0  0  0
  150.9521  140.0213  158.8533 H   0  0  0  0  0  0  0  0  0  0  0  0
  150.8193  141.5713  156.4860 H   0  0  0  0  0  0  0  0  0  0  0  0
  149.2112  140.9265  152.5776 H   0  0  0  0  0  0  0  0  0  0  0  0
  146.9541  141.7972  153.0933 H   0  0  0  0  0  0  0  0  0  0  0  0
  146.6551  141.5283  155.8434 H   0  0  0  0  0  0  0  0  0  0  0  0
  150.3597  142.2045  159.2630 H   0  0  0  0  0  0  0  0  0  0  0  0
  152.5310  143.1541  157.3440 H   0  0  0  0  0  0  0  0  0  0  0  0
  150.8098  143.1628  157.0331 H   0  0  0  0  0  0  0  0  0  0  0  0
  151.6175  145.4139  157.7146 H   0  0  0  0  0  0  0  0  0  0  0  0
  150.4295  144.8071  158.8510 H   0  0  0  0  0  0  0  0  0  0  0  0
  152.9213  144.0473  161.3460 H   0  0  0  0  0  0  0  0  0  0  0  0
  151.2028  144.0003  161.0075 H   0  0  0  0  0  0  0  0  0  0  0  0
  152.1758  141.7220  160.8630 H   0  0  0  0  0  0  0  0  0  0  0  0
  153.3745  142.2624  159.7114 H   0  0  0  0  0  0  0  0  0  0  0  0
  1  2  1  0  0  0  0
  1 18  1  0  0  0  0
  1 19  1  0  0  0  0
  1 20  1  0  0  0  0
  2  3  1  0  0  0  0
  2 12  1  0  0  0  0
  2 21  1  0  0  0  0
  3 22  1  0  0  0  0
  3  4  1  0  0  0  0
  4  6  1  0  0  0  0
  4  5  2  0  0  0  0
  6  7  2  0  0  0  0
  7 11  1  0  0  0  0
  7  8  1  0  0  0  0
  8 23  1  0  0  0  0
  8  9  1  0  0  0  0
  9 24  1  0  0  0  0
  9 10  2  0  0  0  0
 10 25  1  0  0  0  0
 10 11  1  0  0  0  0
 12 17  1  0  0  0  0
 12 13  1  0  0  0  0
 12 26  1  0  0  0  0
 13 14  1  0  0  0  0
 13 27  1  0  0  0  0
 13 28  1  0  0  0  0
 14 15  1  0  0  0  0
 14 29  1  0  0  0  0
 14 30  1  0  0  0  0
 15 16  1  0  0  0  0
 16 17  1  0  0  0  0
 16 31  1  0  0  0  0
 16 32  1  0  0  0  0
 17 33  1  0  0  0  0
 17 34  1  0  0  0  0
M  END
> <s_m_source_file>
AV-unprocessed.smi

> <i_m_source_file_index>
2243

> <i_lp_mmshare_version>
43012

> <i_f3d_flags>
0

> <s_epik_input>
W0NIMl0xW0NIMl1PW0NIMl1bQ0gyXVtDSF0xW0NASF0oW0NIM10pW05IXUMoPU8pW05IXWMybltjSF1bY0hdbzI=

> <s_epik_cmdline>
J2VwaWtfcHl0aG9uJywgJy1waCcsICc3LjAnLCAnLXRuJywgJzgnLCAnLW1hJywgJzIwMCcsICctbWV0YWxfYmluZGluZycsICctaW1hZScsICc8aW5maWxlLm1hZT4nLCAnLW9tYWUnLCAnPG91dGZpbGUubWFlPic=

> <r_lp_tautomer_probability>
0.107061

> <r_epik_Ionization_Penalty>
1.44639

> <r_epik_Ionization_Penalty_Charging>
1.44602

> <r_epik_Ionization_Penalty_Neutral>
0.000368208

> <r_epik_State_Penalty>
2.61815

> <r_epik_Charging_Adjusted_Penalty>
4.06418

> <i_epik_Tot_Q>
0

> <i_epik_Tot_abs_Q>
0

> <r_epik_Metal_State_Penalty>
3.54171

> <b_epik_Metal_Only>
0

> <s_lp_Force_Field>
OPLS_2005

> <r_lp_Energy>
34.6671

> <b_lp_Chiralities_Consistent>
1

> <s_lp_Variant>
AV-unprocessed.smi:2243-5

> <Gold.Version>
5.8.1

> <Gold.Id.Protein>
6NUR|6NUR_protein|mol2

> <Gold.PLP.Fitness>
35.4775

> <Gold.PLP.PLP>
-31.9436

> <Gold.PLP.part.hbond>
-2.0000

> <Gold.PLP.part.metal>
0.0000

> <Gold.PLP.part.buried>
-4.6949

> <Gold.PLP.part.nonpolar>
-25.8377

> <Gold.PLP.part.repulsive>
1.6407

> <Gold.PLP.ligand.clash>
0.0007

> <Gold.PLP.ligand.torsion>
1.2405

> <Gold.PLP.Chemscore.Hbond>
2.0000

> <Gold.PLP.Chemscore.CHOScore>
0.0000

> <Gold.PLP.Chemscore.Metal>
0.0000

> <Gold.Chemscore.Hbonds>
donor molecule, donor type, donor heavy atom, donor atom, acceptor molecule, acceptor atom, score
      L1  H     8    23       P1  7957  1.00
      P1  H  7989  7998       L1     6  1.00

> <Gold.PLP.Chemscore.Internal.Correction>
0.0156

> <Gold.Rescore>
     Score         DG    S(hbond)    S(metal)    S(lipo)     H(rot)  DE(clash)    DE(int)     intcor
     15.17     -17.25       1.77        0.00      79.06       1.32       0.75       1.33       ----

> <Gold.Chemscore.Fitness>
15.1730

> <Gold.Chemscore.DG>
-17.2470

> <Gold.Chemscore.ZeroCoef>
-5.4800

> <Gold.Chemscore.Hbond>
1.7656

> <Gold.Chemscore.Metal>
0.0000

> <Gold.Chemscore.Lipo>
79.0552

> <Gold.Chemscore.Internal_Hbond>
0.0000

> <Gold.Chemscore.DEClash>
0.7469

> <Gold.Chemscore.DEInternal>
1.3271

> <Gold.Chemscore.Rot>
1.3201

> <Gold.Chemscore.Internal.Correction>
   9.000000E+99

> <Gold.Chemscore.Hbonds>
donor molecule, donor type, donor heavy atom, donor atom, acceptor molecule, acceptor atom, score
      L1  H     8    23       P1  7957  0.95
      P1  H  7989  7998       L1     6  0.40

> <Gold.Chemscore.Hbond.Weighted>
-5.8969

> <Gold.Chemscore.Metal.Weighted>
-0.0000

> <Gold.Chemscore.Lipo.Weighted>
-9.2495

> <Gold.Chemscore.Internal_Hbond.Weighted>
0.0000

> <Gold.Chemscore.DEClash.Weighted>
0.7469

> <Gold.Chemscore.DEInternal.Weighted>
1.3271

> <Gold.Chemscore.Rot.Weighted>
3.3794

> <Gold.Chemscore.Internal.Correction.Weighted>
   9.000000E+99

> <Gold.Protein.RotatedTorsions>
[ 6907 6896 6895 6894 ] final  -92.21 input  -60.11 | X-H torsion
[ 7974 7965 7964 7962 ] final   89.56 input  175.53 | X-H torsion
[ 8008 7997 7996 7995 ] final  118.25 input   59.86 | X-H torsion
[ 10167 10162 10161 10158 ] final  -51.59 input  -65.29 | X-H torsion
[ 10718 10713 10712 10709 ] final   -4.68 input   66.30 | X-H torsion
[ 10763 10752 10751 10750 ] final  -47.90 input  -60.55 | X-H torsion
[ 11005 11000 10999 10996 ] final    7.22 input  -57.11 | X-H torsion

> <Gold.Protein.ActiveResidues>
 VAL166  LYS551  ARG553  GLY616  TRP617  ASP618  TYR619  PRO620  LYS621  CYS622 
 ASP623  PHE694  ASN695  SER759  ASP760  ASP761  ALA762  ILE779  LEU786  VAL792 
 PHE793  MET794  SER795  GLU796  ALA797  LYS798  CYS799  TRP800  GLU811  SER814 

> <Gold.Protein.RotatedAtoms>
  150.6903  134.2157  159.4376 H   0  0  0  0  0  0  0  0  0  0  0  0  # atno 6907 bound_to 6896
  152.0116  134.9871  160.0577 H   0  0  0  0  0  0  0  0  0  0  0  0  # atno 6908 bound_to 6896
  152.1483  133.4471  159.4838 H   0  0  0  0  0  0  0  0  0  0  0  0  # atno 6909 bound_to 6896
  145.5307  139.2283  143.2620 H   0  0  0  0  0  0  0  0  0  0  0  0  # atno 7974 bound_to 7965
  156.2536  140.2879  156.0805 H   0  0  0  0  0  0  0  0  0  0  0  0  # atno 8008 bound_to 7997
  155.1572  140.0398  157.2852 H   0  0  0  0  0  0  0  0  0  0  0  0  # atno 8009 bound_to 7997
  154.6419  140.2524  155.7319 H   0  0  0  0  0  0  0  0  0  0  0  0  # atno 8010 bound_to 7997
  140.6580  143.2614  151.4526 H   0  0  0  0  0  0  0  0  0  0  0  0  # atno 10167 bound_to 10162
  156.7578  130.5260  149.5791 H   0  0  0  0  0  0  0  0  0  0  0  0  # atno 10718 bound_to 10713
  154.0689  135.6607  153.4821 H   0  0  0  0  0  0  0  0  0  0  0  0  # atno 10763 bound_to 10752
  153.0398  135.5152  154.7586 H   0  0  0  0  0  0  0  0  0  0  0  0  # atno 10764 bound_to 10752
  154.6645  135.3020  154.9790 H   0  0  0  0  0  0  0  0  0  0  0  0  # atno 10765 bound_to 10752
  140.5507  134.0286  155.7936 H   0  0  0  0  0  0  0  0  0  0  0  0  # atno 11005 bound_to 11000
  146.2046  140.6123  142.9087 LP  0  0  0  0  0  0  0  0  0  0  0  0  # atno 17320 bound_to 7965
  144.7627  140.5460  143.6724 LP  0  0  0  0  0  0  0  0  0  0  0  0  # atno 17321 bound_to 7965
  139.5807  144.1716  152.1964 LP  0  0  0  0  0  0  0  0  0  0  0  0  # atno 17342 bound_to 10162
  140.1040  144.5515  150.6969 LP  0  0  0  0  0  0  0  0  0  0  0  0  # atno 17343 bound_to 10162
  156.1359  130.6210  151.0399 LP  0  0  0  0  0  0  0  0  0  0  0  0  # atno 17370 bound_to 10713
  157.6748  131.0853  150.7522 LP  0  0  0  0  0  0  0  0  0  0  0  0  # atno 17371 bound_to 10713
  141.1173  133.9519  157.2798 LP  0  0  0  0  0  0  0  0  0  0  0  0  # atno 17394 bound_to 11000
  139.9456  135.0184  156.8843 LP  0  0  0  0  0  0  0  0  0  0  0  0  # atno 17395 bound_to 11000

$$$$
