AV-unprocessed.smi:157|AV-procd|sdf|1319|dock7
  -GOLD-   2262019 13D 1   1.00000     0.00000
 Structure written by MMmdl.
 36 38  0  0  0  0  0  0  0  0  2 V2000
  150.3372  137.7867  153.8109 O   0  0  0  0  0  0  0  0  0  0  0  0
  150.9991  138.8742  154.4203 C   0  0  0  0  0  0  0  0  0  0  0  0
  152.0685  138.3523  155.4055 C   0  0  1  0  0  0  0  0  0  0  0  0
  152.7247  139.4782  155.9938 O   0  0  0  0  0  0  0  0  0  0  0  0
  152.2309  139.7392  157.2774 C   0  0  1  0  0  0  0  0  0  0  0  0
  151.7065  141.1396  157.3254 N   0  0  0  0  0  0  0  0  0  0  0  0
  150.8330  141.7105  156.4679 C   0  0  0  0  0  0  0  0  0  0  0  0
  150.5472  142.9724  156.7406 N   0  3  0  0  0  0  0  0  0  0  0  0
  151.2783  143.3058  157.8609 C   0  0  0  0  0  0  0  0  0  0  0  0
  151.9874  142.1541  158.2112 C   0  0  0  0  0  0  0  0  0  0  0  0
  152.8818  141.9363  159.2704 N   0  0  0  0  0  0  0  0  0  0  0  0
  152.9602  142.7207  160.2957 C   0  0  0  0  0  0  0  0  0  0  0  0
  152.3060  143.9187  160.5299 N   0  0  0  0  0  0  0  0  0  0  0  0
  152.2144  144.9758  159.5384 C   0  0  0  0  0  0  0  0  0  0  0  0
  151.1993  144.6912  158.4230 C   0  0  2  0  0  0  0  0  0  0  0  0
  149.9076  145.0109  158.8973 O   0  0  0  0  0  0  0  0  0  0  0  0
  151.1041  138.7406  157.5395 C   0  0  0  0  0  0  0  0  0  0  0  0
  151.5154  137.6055  156.6295 C   0  0  1  0  0  0  0  0  0  0  0  0
  150.4387  136.7336  156.3519 O   0  0  0  0  0  0  0  0  0  0  0  0
  152.7858  137.7235  154.8764 H   0  0  0  0  0  0  0  0  0  0  0  0
  153.0346  139.7051  158.0140 H   0  0  0  0  0  0  0  0  0  0  0  0
  151.4003  145.3888  157.6093 H   0  0  0  0  0  0  0  0  0  0  0  0
  152.3177  137.0360  157.1014 H   0  0  0  0  0  0  0  0  0  0  0  0
  150.9136  137.4074  153.1651 H   0  0  0  0  0  0  0  0  0  0  0  0
  151.4251  139.5280  153.6596 H   0  0  0  0  0  0  0  0  0  0  0  0
  150.2369  139.4491  154.9461 H   0  0  0  0  0  0  0  0  0  0  0  0
  150.4072  141.1835  155.6326 H   0  0  0  0  0  0  0  0  0  0  0  0
  153.6261  142.4512  161.1167 H   0  0  0  0  0  0  0  0  0  0  0  0
  152.3048  144.2925  161.4684 H   0  0  0  0  0  0  0  0  0  0  0  0
  151.9943  145.9237  160.0308 H   0  0  0  0  0  0  0  0  0  0  0  0
  153.2041  145.0899  159.0933 H   0  0  0  0  0  0  0  0  0  0  0  0
  149.3936  145.3449  158.1784 H   0  0  0  0  0  0  0  0  0  0  0  0
  151.0524  138.4670  158.5937 H   0  0  0  0  0  0  0  0  0  0  0  0
  150.1470  139.1659  157.2316 H   0  0  0  0  0  0  0  0  0  0  0  0
  150.1560  136.8785  155.4616 H   0  0  0  0  0  0  0  0  0  0  0  0
  149.9222  143.5733  156.2182 H   0  0  0  0  0  0  0  0  0  0  0  0
  1  2  1  0  0  0  0
  1 24  1  0  0  0  0
  2  3  1  0  0  0  0
  2 25  1  0  0  0  0
  2 26  1  0  0  0  0
  3 20  1  0  0  0  0
  3 18  1  0  0  0  0
  3  4  1  0  0  0  0
  4  5  1  0  0  0  0
  5 21  1  0  0  0  0
  5  6  1  0  0  0  0
  5 17  1  0  0  0  0
  6 10  1  0  0  0  0
  6  7  1  0  0  0  0
  7  8  2  0  0  0  0
  7 27  1  0  0  0  0
  8  9  1  0  0  0  0
  8 36  1  0  0  0  0
  9 15  1  0  0  0  0
  9 10  2  0  0  0  0
 10 11  1  0  0  0  0
 11 12  2  0  0  0  0
 12 13  1  0  0  0  0
 12 28  1  0  0  0  0
 13 14  1  0  0  0  0
 13 29  1  0  0  0  0
 14 15  1  0  0  0  0
 14 30  1  0  0  0  0
 14 31  1  0  0  0  0
 15 22  1  0  0  0  0
 15 16  1  0  0  0  0
 16 32  1  0  0  0  0
 17 18  1  0  0  0  0
 17 33  1  0  0  0  0
 17 34  1  0  0  0  0
 18 23  1  0  0  0  0
 18 19  1  0  0  0  0
 19 35  1  0  0  0  0
M  CHG  1   8   1
M  END
> <s_m_source_file>
AV-unprocessed.smi

> <i_m_source_file_index>
157

> <i_lp_mmshare_version>
43012

> <i_f3d_flags>
0

> <s_epik_input>
W09IXVtDSDJdW0NASF0xT1tDQEhdKFtDSDJdW0NAQEhdMVtPSF0pbihbY0hdbjIpYyhjMjMpTj1bQ0hdW05IXVtDSDJdW0NASF0zW09IXQ==

> <s_epik_cmdline>
J2VwaWtfcHl0aG9uJywgJy1waCcsICc3LjAnLCAnLXRuJywgJzgnLCAnLW1hJywgJzIwMCcsICctbWV0YWxfYmluZGluZycsICctaW1hZScsICc8aW5maWxlLm1hZT4nLCAnLW9tYWUnLCAnPG91dGZpbGUubWFlPic=

> <r_epik_Ionization_Penalty>
1.68594

> <r_epik_Ionization_Penalty_Charging>
0

> <r_epik_Ionization_Penalty_Neutral>
1.68594

> <r_epik_State_Penalty>
1.79006

> <r_epik_Charging_Adjusted_Penalty>
1.79006

> <i_epik_Tot_Q>
1

> <i_epik_Tot_abs_Q>
1

> <r_epik_Metal_State_Penalty>
5.85324

> <b_epik_Metal_Only>
0

> <s_epik_Chemistry_Notes>
This compound has an imine and may undergo hydrolysis. This compound contains an acetal/aminal-like group ( X-CH(R)-Y where X, Y are N, S, or O) that may be acid/base labile, releasing an aldehyde.

> <s_lp_Force_Field>
OPLS_2005

> <r_lp_Energy>
55.1144

> <b_lp_Chiralities_Consistent>
1

> <s_lp_Variant>
AV-unprocessed.smi:157-29

> <Gold.Version>
5.8.1

> <Gold.Id.Protein>
6NUR|6NUR_protein|mol2

> <Gold.PLP.Fitness>
50.6821

> <Gold.PLP.PLP>
-37.2631

> <Gold.PLP.part.hbond>
-4.9981

> <Gold.PLP.part.metal>
0.0000

> <Gold.PLP.part.buried>
-7.0066

> <Gold.PLP.part.nonpolar>
-24.9009

> <Gold.PLP.part.repulsive>
0.0941

> <Gold.PLP.ligand.clash>
0.0000

> <Gold.PLP.ligand.torsion>
0.1127

> <Gold.PLP.Chemscore.Hbond>
4.5429

> <Gold.PLP.Chemscore.CHOScore>
0.0000

> <Gold.PLP.Chemscore.Metal>
0.0000

> <Gold.Chemscore.Hbonds>
donor molecule, donor type, donor heavy atom, donor atom, acceptor molecule, acceptor atom, score
      L1  H     1    24       P1  7949  0.50
      L1  H     8    36       P1  8028  2.00
      L1  H    16    32       P1  8029  1.00
      P1  H  7997  8010       L1     4  1.00

> <Gold.PLP.Chemscore.Internal.Correction>
0.0157

> <Gold.Rescore>
     Score         DG    S(hbond)    S(metal)    S(lipo)     H(rot)  DE(clash)    DE(int)     intcor
     12.37     -12.44       2.84        0.00      58.54       3.67       0.01       0.06       ----

> <Gold.Chemscore.Fitness>
12.3679

> <Gold.Chemscore.DG>
-12.4364

> <Gold.Chemscore.ZeroCoef>
-5.4800

> <Gold.Chemscore.Hbond>
2.8421

> <Gold.Chemscore.Metal>
0.0000

> <Gold.Chemscore.Lipo>
58.5353

> <Gold.Chemscore.Internal_Hbond>
0.0000

> <Gold.Chemscore.DEClash>
0.0126

> <Gold.Chemscore.DEInternal>
0.0559

> <Gold.Chemscore.Rot>
3.6659

> <Gold.Chemscore.Internal.Correction>
   9.000000E+99

> <Gold.Chemscore.Hbonds>
donor molecule, donor type, donor heavy atom, donor atom, acceptor molecule, acceptor atom, score
      L1  H     1    24       P1  7949  0.11
      L1  H     8    36       P1  8028  1.00
      L1  H    16    32       P1  8029  0.55
      P1  H  7997  8010       L1     4  0.53

> <Gold.Chemscore.Hbond.Weighted>
-9.4926

> <Gold.Chemscore.Metal.Weighted>
-0.0000

> <Gold.Chemscore.Lipo.Weighted>
-6.8486

> <Gold.Chemscore.Internal_Hbond.Weighted>
0.0000

> <Gold.Chemscore.DEClash.Weighted>
0.0126

> <Gold.Chemscore.DEInternal.Weighted>
0.0559

> <Gold.Chemscore.Rot.Weighted>
9.3848

> <Gold.Chemscore.Internal.Correction.Weighted>
   9.000000E+99

> <Gold.Protein.RotatedTorsions>
[ 6907 6896 6895 6894 ] final -165.98 input  -60.11 | X-H torsion
[ 7974 7965 7964 7962 ] final  161.78 input  175.53 | X-H torsion
[ 8008 7997 7996 7995 ] final  102.00 input   59.86 | X-H torsion
[ 10167 10162 10161 10158 ] final  -93.56 input  -65.29 | X-H torsion
[ 10718 10713 10712 10709 ] final    7.39 input   66.30 | X-H torsion
[ 10763 10752 10751 10750 ] final   -1.29 input  -60.55 | X-H torsion
[ 11005 11000 10999 10996 ] final   29.00 input  -57.11 | X-H torsion

> <Gold.Protein.ActiveResidues>
 VAL166  LYS551  ARG553  GLY616  TRP617  ASP618  TYR619  PRO620  LYS621  CYS622 
 ASP623  PHE694  ASN695  SER759  ASP760  ASP761  ALA762  ILE779  LEU786  VAL792 
 PHE793  MET794  SER795  GLU796  ALA797  LYS798  CYS799  TRP800  GLU811  SER814 

> <Gold.Protein.RotatedAtoms>
  151.4362  133.3656  159.2775 H   0  0  0  0  0  0  0  0  0  0  0  0  # atno 6907 bound_to 6896
  150.9189  134.8609  159.7486 H   0  0  0  0  0  0  0  0  0  0  0  0  # atno 6908 bound_to 6896
  152.4972  134.4299  159.9560 H   0  0  0  0  0  0  0  0  0  0  0  0  # atno 6909 bound_to 6896
  144.7669  139.7947  143.6312 H   0  0  0  0  0  0  0  0  0  0  0  0  # atno 7974 bound_to 7965
  156.1352  140.3188  155.8410 H   0  0  0  0  0  0  0  0  0  0  0  0  # atno 8008 bound_to 7997
  155.4257  140.0515  157.3039 H   0  0  0  0  0  0  0  0  0  0  0  0  # atno 8009 bound_to 7997
  154.4931  140.2100  155.9518 H   0  0  0  0  0  0  0  0  0  0  0  0  # atno 8010 bound_to 7997
  140.3234  143.3036  152.0022 H   0  0  0  0  0  0  0  0  0  0  0  0  # atno 10167 bound_to 10162
  156.9363  130.5844  149.5651 H   0  0  0  0  0  0  0  0  0  0  0  0  # atno 10718 bound_to 10713
  153.3429  135.6981  153.6852 H   0  0  0  0  0  0  0  0  0  0  0  0  # atno 10763 bound_to 10752
  153.5610  135.3535  155.2800 H   0  0  0  0  0  0  0  0  0  0  0  0  # atno 10764 bound_to 10752
  154.8640  135.4249  154.2646 H   0  0  0  0  0  0  0  0  0  0  0  0  # atno 10765 bound_to 10752
  140.3095  134.2665  155.7737 H   0  0  0  0  0  0  0  0  0  0  0  0  # atno 11005 bound_to 11000
  146.1783  139.4964  142.9883 LP  0  0  0  0  0  0  0  0  0  0  0  0  # atno 17320 bound_to 7965
  145.6444  141.0277  143.1794 LP  0  0  0  0  0  0  0  0  0  0  0  0  # atno 17321 bound_to 7965
  139.4870  144.6293  151.7102 LP  0  0  0  0  0  0  0  0  0  0  0  0  # atno 17342 bound_to 10162
  140.5463  144.0498  150.6108 LP  0  0  0  0  0  0  0  0  0  0  0  0  # atno 17343 bound_to 10162
  156.0424  130.5505  150.8803 LP  0  0  0  0  0  0  0  0  0  0  0  0  # atno 17370 bound_to 10713
  157.5814  131.0946  150.9265 LP  0  0  0  0  0  0  0  0  0  0  0  0  # atno 17371 bound_to 10713
  141.2111  133.7699  156.9887 LP  0  0  0  0  0  0  0  0  0  0  0  0  # atno 17394 bound_to 11000
  140.1037  134.9520  157.1961 LP  0  0  0  0  0  0  0  0  0  0  0  0  # atno 17395 bound_to 11000

$$$$
