AV-unprocessed.smi:3162|AV-procd|sdf|12069|dock9
  -GOLD-   2272017503D 1   1.00000     0.00000
 Structure written by MMmdl.
 36 36  0  0  0  0  0  0  0  0  1 V2000
  147.3997  141.2902  154.2923 C   0  0  0  0  0  0  0  0  0  0  0  0
  148.9154  141.0615  154.1784 C   0  0  0  0  0  0  0  0  0  0  0  0
  149.4552  139.9088  155.0541 C   0  0  2  0  0  0  0  0  0  0  0  0
  150.9285  139.9789  155.0969 N   0  0  0  0  0  0  0  0  0  0  0  0
  151.5011  140.7544  156.1959 C   0  0  1  0  0  0  0  0  0  0  0  0
  150.5893  141.9568  156.5068 C   0  0  0  0  0  0  0  0  0  0  0  0
  151.6623  139.8042  157.4003 C   0  0  0  0  0  0  0  0  0  0  0  0
  152.3350  140.4281  158.5257 N   0  0  0  0  0  0  0  0  0  0  0  0
  151.8887  141.4542  159.3314 C   0  0  0  0  0  0  0  0  0  0  0  0
  152.8601  141.6998  160.2602 C   0  0  0  0  0  0  0  0  0  0  0  0
  152.8700  142.7182  161.3635 C   0  0  0  0  0  0  0  0  0  0  0  0
  153.8746  140.7548  159.9356 C   0  0  0  0  0  0  0  0  0  0  0  0
  153.5572  139.9942  158.9005 N   0  0  0  0  0  0  0  0  0  0  0  0
  148.9349  138.5385  154.5810 C   0  0  0  0  0  0  0  0  0  0  0  0
  149.1363  138.2169  153.3005 N   0  0  0  0  0  0  0  0  0  0  0  0
  148.3437  137.7901  155.3573 O   0  0  0  0  0  0  0  0  0  0  0  0
  147.0970  142.1619  153.7118 H   0  0  0  0  0  0  0  0  0  0  0  0
  147.1044  141.4634  155.3274 H   0  0  0  0  0  0  0  0  0  0  0  0
  146.8329  140.4374  153.9186 H   0  0  0  0  0  0  0  0  0  0  0  0
  149.1783  140.8950  153.1327 H   0  0  0  0  0  0  0  0  0  0  0  0
  149.4171  141.9866  154.4656 H   0  0  0  0  0  0  0  0  0  0  0  0
  149.0917  140.0773  156.0698 H   0  0  0  0  0  0  0  0  0  0  0  0
  151.3545  139.0640  155.0514 H   0  0  0  0  0  0  0  0  0  0  0  0
  152.4939  141.1173  155.9259 H   0  0  0  0  0  0  0  0  0  0  0  0
  151.0084  142.5764  157.2999 H   0  0  0  0  0  0  0  0  0  0  0  0
  149.6003  141.6308  156.8302 H   0  0  0  0  0  0  0  0  0  0  0  0
  150.4572  142.6010  155.6381 H   0  0  0  0  0  0  0  0  0  0  0  0
  150.6873  139.4493  157.7383 H   0  0  0  0  0  0  0  0  0  0  0  0
  152.2321  138.9192  157.1122 H   0  0  0  0  0  0  0  0  0  0  0  0
  150.9272  141.9216  159.1769 H   0  0  0  0  0  0  0  0  0  0  0  0
  153.4267  142.3670  162.2326 H   0  0  0  0  0  0  0  0  0  0  0  0
  151.8620  142.9563  161.7041 H   0  0  0  0  0  0  0  0  0  0  0  0
  153.3304  143.6527  161.0425 H   0  0  0  0  0  0  0  0  0  0  0  0
  154.8269  140.5987  160.4208 H   0  0  0  0  0  0  0  0  0  0  0  0
  148.8148  137.3270  152.9481 H   0  0  0  0  0  0  0  0  0  0  0  0
  149.6130  138.8646  152.6901 H   0  0  0  0  0  0  0  0  0  0  0  0
  1  2  1  0  0  0  0
  1 17  1  0  0  0  0
  1 18  1  0  0  0  0
  1 19  1  0  0  0  0
  2  3  1  0  0  0  0
  2 20  1  0  0  0  0
  2 21  1  0  0  0  0
  3  4  1  0  0  0  0
  3 14  1  0  0  0  0
  3 22  1  0  0  0  0
  4  5  1  0  0  0  0
  4 23  1  0  0  0  0
  5  6  1  0  0  0  0
  5  7  1  0  0  0  0
  5 24  1  0  0  0  0
  6 25  1  0  0  0  0
  6 26  1  0  0  0  0
  6 27  1  0  0  0  0
  7  8  1  0  0  0  0
  7 28  1  0  0  0  0
  7 29  1  0  0  0  0
  8 13  1  0  0  0  0
  8  9  1  0  0  0  0
  9 10  2  0  0  0  0
  9 30  1  0  0  0  0
 10 11  1  0  0  0  0
 10 12  1  0  0  0  0
 11 31  1  0  0  0  0
 11 32  1  0  0  0  0
 11 33  1  0  0  0  0
 12 13  2  0  0  0  0
 12 34  1  0  0  0  0
 14 15  1  0  0  0  0
 14 16  2  0  0  0  0
 15 35  1  0  0  0  0
 15 36  1  0  0  0  0
M  END
> <s_m_source_file>
AV-unprocessed.smi

> <i_m_source_file_index>
3162

> <i_lp_mmshare_version>
43012

> <i_f3d_flags>
0

> <s_epik_input>
W0NIM11bQ0gyXVtDQEBIXShDKD1PKVtOSDJdKVtOSF1bQ0BIXShbQ0gzXSlbQ0gyXW4xW2NIXWMoW0NIM10pW2NIXW4x

> <s_epik_cmdline>
J2VwaWtfcHl0aG9uJywgJy1waCcsICc3LjAnLCAnLXRuJywgJzgnLCAnLW1hJywgJzIwMCcsICctbWV0YWxfYmluZGluZycsICctaW1hZScsICc8aW5maWxlLm1hZT4nLCAnLW9tYWUnLCAnPG91dGZpbGUubWFlPic=

> <r_lp_tautomer_probability>
1

> <r_epik_Ionization_Penalty>
1.04167

> <r_epik_Ionization_Penalty_Charging>
0

> <r_epik_Ionization_Penalty_Neutral>
1.04167

> <r_epik_State_Penalty>
1.09367

> <r_epik_Charging_Adjusted_Penalty>
1.09367

> <i_epik_Tot_Q>
0

> <i_epik_Tot_abs_Q>
0

> <r_epik_Metal_State_Penalty>
1.09362

> <b_epik_Metal_Only>
0

> <s_lp_Force_Field>
OPLS_2005

> <r_lp_Energy>
3.23366

> <b_lp_Chiralities_Consistent>
1

> <s_lp_Variant>
AV-unprocessed.smi:3162-7

> <Gold.Version>
5.8.1

> <Gold.Id.Protein>
6NUR|6NUR_protein|mol2

> <Gold.PLP.Fitness>
44.9984

> <Gold.PLP.PLP>
-34.9251

> <Gold.PLP.part.hbond>
-3.9791

> <Gold.PLP.part.metal>
0.0000

> <Gold.PLP.part.buried>
-4.1168

> <Gold.PLP.part.nonpolar>
-27.2526

> <Gold.PLP.part.repulsive>
0.1509

> <Gold.PLP.ligand.clash>
0.0000

> <Gold.PLP.ligand.torsion>
0.9737

> <Gold.PLP.Chemscore.Hbond>
3.9680

> <Gold.PLP.Chemscore.CHOScore>
0.0000

> <Gold.PLP.Chemscore.Metal>
0.0000

> <Gold.Chemscore.Hbonds>
donor molecule, donor type, donor heavy atom, donor atom, acceptor molecule, acceptor atom, score
      L1  H    15    35       P1  7948  0.91
      L1  H    15    36       P1  7957  1.00
      P1  H  7989  7998       L1     4  1.00
      P1  H  7997  8009       L1    13  0.83

> <Gold.PLP.Chemscore.Internal.Correction>
0.1166

> <Gold.Rescore>
     Score         DG    S(hbond)    S(metal)    S(lipo)     H(rot)  DE(clash)    DE(int)     intcor
     16.44     -17.62       2.78        0.00      77.72       2.43       0.05       1.13       ----

> <Gold.Chemscore.Fitness>
16.4432

> <Gold.Chemscore.DG>
-17.6241

> <Gold.Chemscore.ZeroCoef>
-5.4800

> <Gold.Chemscore.Hbond>
2.7781

> <Gold.Chemscore.Metal>
0.0000

> <Gold.Chemscore.Lipo>
77.7199

> <Gold.Chemscore.Internal_Hbond>
0.0000

> <Gold.Chemscore.DEClash>
0.0489

> <Gold.Chemscore.DEInternal>
1.1321

> <Gold.Chemscore.Rot>
2.4328

> <Gold.Chemscore.Internal.Correction>
   9.000000E+99

> <Gold.Chemscore.Hbonds>
donor molecule, donor type, donor heavy atom, donor atom, acceptor molecule, acceptor atom, score
      L1  H    15    35       P1  7948  0.82
      L1  H    15    36       P1  7957  0.80
      P1  H  7989  7998       L1     4  0.12
      P1  H  7997  8009       L1    13  0.47

> <Gold.Chemscore.Hbond.Weighted>
-9.2788

> <Gold.Chemscore.Metal.Weighted>
-0.0000

> <Gold.Chemscore.Lipo.Weighted>
-9.0932

> <Gold.Chemscore.Internal_Hbond.Weighted>
0.0000

> <Gold.Chemscore.DEClash.Weighted>
0.0489

> <Gold.Chemscore.DEInternal.Weighted>
1.1321

> <Gold.Chemscore.Rot.Weighted>
6.2279

> <Gold.Chemscore.Internal.Correction.Weighted>
   9.000000E+99

> <Gold.Protein.RotatedTorsions>
[ 6907 6896 6895 6894 ] final   26.68 input  -60.11 | X-H torsion
[ 7974 7965 7964 7962 ] final   31.04 input  175.53 | X-H torsion
[ 8008 7997 7996 7995 ] final  139.90 input   59.86 | X-H torsion
[ 10167 10162 10161 10158 ] final  136.15 input  -65.29 | X-H torsion
[ 10718 10713 10712 10709 ] final   74.27 input   66.30 | X-H torsion
[ 10763 10752 10751 10750 ] final  -45.90 input  -60.55 | X-H torsion
[ 11005 11000 10999 10996 ] final  168.00 input  -57.11 | X-H torsion

> <Gold.Protein.ActiveResidues>
 VAL166  LYS551  ARG553  GLY616  TRP617  ASP618  TYR619  PRO620  LYS621  CYS622 
 ASP623  PHE694  ASN695  SER759  ASP760  ASP761  ALA762  ILE779  LEU786  VAL792 
 PHE793  MET794  SER795  GLU796  ALA797  LYS798  CYS799  TRP800  GLU811  SER814 

> <Gold.Protein.RotatedAtoms>
  151.9911  134.9979  160.0561 H   0  0  0  0  0  0  0  0  0  0  0  0  # atno 6907 bound_to 6896
  152.1607  133.4575  159.4868 H   0  0  0  0  0  0  0  0  0  0  0  0  # atno 6908 bound_to 6896
  150.6887  134.1992  159.4358 H   0  0  0  0  0  0  0  0  0  0  0  0  # atno 6909 bound_to 6896
  146.1575  139.6709  142.9056 H   0  0  0  0  0  0  0  0  0  0  0  0  # atno 7974 bound_to 7965
  156.2985  140.2355  156.4314 H   0  0  0  0  0  0  0  0  0  0  0  0  # atno 8008 bound_to 7997
  154.8267  140.0435  157.1469 H   0  0  0  0  0  0  0  0  0  0  0  0  # atno 8009 bound_to 7997
  154.9254  140.3009  155.5198 H   0  0  0  0  0  0  0  0  0  0  0  0  # atno 8010 bound_to 7997
  139.5190  144.6479  151.5386 H   0  0  0  0  0  0  0  0  0  0  0  0  # atno 10167 bound_to 10162
  157.6584  130.9669  150.1186 H   0  0  0  0  0  0  0  0  0  0  0  0  # atno 10718 bound_to 10713
  154.0362  135.6650  153.4785 H   0  0  0  0  0  0  0  0  0  0  0  0  # atno 10763 bound_to 10752
  153.0520  135.5079  154.7885 H   0  0  0  0  0  0  0  0  0  0  0  0  # atno 10764 bound_to 10752
  154.6847  135.3051  154.9530 H   0  0  0  0  0  0  0  0  0  0  0  0  # atno 10765 bound_to 10752
  140.2827  134.7737  157.3772 H   0  0  0  0  0  0  0  0  0  0  0  0  # atno 11005 bound_to 11000
  145.4672  141.0435  143.2719 LP  0  0  0  0  0  0  0  0  0  0  0  0  # atno 17320 bound_to 7965
  144.7982  139.6192  143.7083 LP  0  0  0  0  0  0  0  0  0  0  0  0  # atno 17321 bound_to 7965
  140.6272  143.9145  150.6575 LP  0  0  0  0  0  0  0  0  0  0  0  0  # atno 17342 bound_to 10162
  140.2438  143.3644  152.1464 LP  0  0  0  0  0  0  0  0  0  0  0  0  # atno 17343 bound_to 10162
  156.2064  130.3663  149.8724 LP  0  0  0  0  0  0  0  0  0  0  0  0  # atno 17370 bound_to 10713
  156.6615  130.8784  151.3548 LP  0  0  0  0  0  0  0  0  0  0  0  0  # atno 17371 bound_to 10713
  140.1268  134.5147  155.8138 LP  0  0  0  0  0  0  0  0  0  0  0  0  # atno 17394 bound_to 11000
  141.2160  133.6776  156.6967 LP  0  0  0  0  0  0  0  0  0  0  0  0  # atno 17395 bound_to 11000

$$$$
