AV-unprocessed.smi:99|AV-procd|sdf|887|dock5
  -GOLD-   2262017373D 1   1.00000     0.00000
 Structure written by MMmdl.
 52 55  0  0  0  0  0  0  0  0  2 V2000
  147.3645  136.8210  160.7494 O   0  0  0  0  0  0  0  0  0  0  0  0
  147.7071  135.7249  160.3007 C   0  0  0  0  0  0  0  0  0  0  0  0
  148.7219  135.5604  159.4308 O   0  0  0  0  0  0  0  0  0  0  0  0
  149.5471  136.6613  159.0881 C   0  0  0  0  0  0  0  0  0  0  0  0
  149.0971  137.2296  157.7390 C   0  0  2  0  0  0  0  0  0  0  0  0
  148.4616  136.2226  156.9702 O   0  0  0  0  0  0  0  0  0  0  0  0
  148.4962  136.5981  155.6293 C   0  0  2  0  0  0  0  0  0  0  0  0
  148.5795  135.3463  154.7832 N   0  0  0  0  0  0  0  0  0  0  0  0
  147.8509  135.2450  153.6103 C   0  0  0  0  0  0  0  0  0  0  0  0
  147.9059  134.1363  152.8439 C   0  0  0  0  0  0  0  0  0  0  0  0
  148.7483  133.0185  153.2605 C   0  0  0  0  0  0  0  0  0  0  0  0
  148.8026  132.0163  152.5499 O   0  0  0  0  0  0  0  0  0  0  0  0
  149.4419  133.1373  154.4299 N   0  5  0  0  0  0  0  0  0  0  0  0
  149.3818  134.2547  155.2122 C   0  0  0  0  0  0  0  0  0  0  0  0
  149.9855  134.3623  156.2802 O   0  0  0  0  0  0  0  0  0  0  0  0
  149.6975  137.5523  155.4400 C   0  0  2  0  0  0  0  0  0  0  0  0
  150.6943  137.0845  154.5489 O   0  0  0  0  0  0  0  0  0  0  0  0
  150.2634  137.6675  156.8530 C   0  0  1  0  0  0  0  0  0  0  0  0
  150.6092  139.0114  157.1670 O   0  0  0  0  0  0  0  0  0  0  0  0
  151.4106  139.2908  158.2168 C   0  0  0  0  0  0  0  0  0  0  0  0
  152.0364  138.4356  158.8463 O   0  0  0  0  0  0  0  0  0  0  0  0
  151.4623  140.7468  158.5351 C   0  0  0  0  0  0  0  0  0  0  0  0
  150.5965  141.6356  157.8559 C   0  0  0  0  0  0  0  0  0  0  0  0
  150.6236  143.0160  158.1334 C   0  0  0  0  0  0  0  0  0  0  0  0
  151.5180  143.5252  159.0928 C   0  0  0  0  0  0  0  0  0  0  0  0
  152.3849  142.6517  159.7750 C   0  0  0  0  0  0  0  0  0  0  0  0
  152.3584  141.2705  159.4997 C   0  0  0  0  0  0  0  0  0  0  0  0
  147.0388  134.4418  160.6629 C   0  0  0  0  0  0  0  0  0  0  0  0
  145.9238  134.4629  161.5332 C   0  0  0  0  0  0  0  0  0  0  0  0
  145.2712  133.2674  161.8923 C   0  0  0  0  0  0  0  0  0  0  0  0
  145.7265  132.0361  161.3861 C   0  0  0  0  0  0  0  0  0  0  0  0
  146.8355  132.0015  160.5209 C   0  0  0  0  0  0  0  0  0  0  0  0
  147.4887  133.1960  160.1598 C   0  0  0  0  0  0  0  0  0  0  0  0
  149.4513  137.4252  159.8610 H   0  0  0  0  0  0  0  0  0  0  0  0
  150.5960  136.3635  159.0467 H   0  0  0  0  0  0  0  0  0  0  0  0
  148.4007  138.0595  157.8762 H   0  0  0  0  0  0  0  0  0  0  0  0
  147.5410  137.0736  155.4012 H   0  0  0  0  0  0  0  0  0  0  0  0
  147.2175  136.0627  153.2998 H   0  0  0  0  0  0  0  0  0  0  0  0
  147.3290  134.0728  151.9331 H   0  0  0  0  0  0  0  0  0  0  0  0
  149.3101  138.5088  155.0858 H   0  0  0  0  0  0  0  0  0  0  0  0
  150.3752  137.1780  153.6642 H   0  0  0  0  0  0  0  0  0  0  0  0
  151.0979  136.9778  156.9942 H   0  0  0  0  0  0  0  0  0  0  0  0
  149.9014  141.2685  157.1144 H   0  0  0  0  0  0  0  0  0  0  0  0
  149.9573  143.6849  157.6085 H   0  0  0  0  0  0  0  0  0  0  0  0
  151.5394  144.5840  159.3050 H   0  0  0  0  0  0  0  0  0  0  0  0
  153.0727  143.0416  160.5109 H   0  0  0  0  0  0  0  0  0  0  0  0
  153.0382  140.6283  160.0405 H   0  0  0  0  0  0  0  0  0  0  0  0
  145.5560  135.3965  161.9345 H   0  0  0  0  0  0  0  0  0  0  0  0
  144.4205  133.2961  162.5570 H   0  0  0  0  0  0  0  0  0  0  0  0
  145.2261  131.1195  161.6612 H   0  0  0  0  0  0  0  0  0  0  0  0
  147.1869  131.0570  160.1327 H   0  0  0  0  0  0  0  0  0  0  0  0
  148.3371  133.1334  159.4940 H   0  0  0  0  0  0  0  0  0  0  0  0
  1  2  2  0  0  0  0
  2  3  1  0  0  0  0
  2 28  1  0  0  0  0
  3  4  1  0  0  0  0
  4  5  1  0  0  0  0
  4 34  1  0  0  0  0
  4 35  1  0  0  0  0
  5 18  1  0  0  0  0
  5  6  1  0  0  0  0
  5 36  1  0  0  0  0
  6  7  1  0  0  0  0
  7  8  1  0  0  0  0
  7 16  1  0  0  0  0
  7 37  1  0  0  0  0
  8 14  1  0  0  0  0
  8  9  1  0  0  0  0
  9 10  2  0  0  0  0
  9 38  1  0  0  0  0
 10 11  1  0  0  0  0
 10 39  1  0  0  0  0
 11 12  2  0  0  0  0
 11 13  1  0  0  0  0
 13 14  1  0  0  0  0
 14 15  2  0  0  0  0
 16 17  1  0  0  0  0
 16 18  1  0  0  0  0
 16 40  1  0  0  0  0
 17 41  1  0  0  0  0
 18 19  1  0  0  0  0
 18 42  1  0  0  0  0
 19 20  1  0  0  0  0
 20 21  2  0  0  0  0
 20 22  1  0  0  0  0
 22 27  1  0  0  0  0
 22 23  2  0  0  0  0
 23 24  1  0  0  0  0
 23 43  1  0  0  0  0
 24 25  2  0  0  0  0
 24 44  1  0  0  0  0
 25 26  1  0  0  0  0
 25 45  1  0  0  0  0
 26 27  2  0  0  0  0
 26 46  1  0  0  0  0
 27 47  1  0  0  0  0
 28 33  1  0  0  0  0
 28 29  2  0  0  0  0
 29 30  1  0  0  0  0
 29 48  1  0  0  0  0
 30 31  2  0  0  0  0
 30 49  1  0  0  0  0
 31 32  1  0  0  0  0
 31 50  1  0  0  0  0
 32 33  2  0  0  0  0
 32 51  1  0  0  0  0
 33 52  1  0  0  0  0
M  CHG  1  13  -1
M  END
> <s_m_source_file>
AV-unprocessed.smi

> <i_m_source_file_index>
99

> <i_lp_mmshare_version>
43012

> <i_f3d_flags>
0

> <s_epik_input>
W2NIXTFbY0hdW2NIXVtjSF1bY0hdYzFDKD1PKU9bQ0gyXVtDQEBIXTJPW0NAQEhdKG4zW2NIXVtjSF1jKD1PKVtuSF1jMz1PKVtDQEBIXShbT0hdKVtDQEhdMk9DKD1PKWM0W2NIXVtjSF1bY0hdW2NIXVtjSF00

> <s_epik_cmdline>
J2VwaWtfcHl0aG9uJywgJy1waCcsICc3LjAnLCAnLXRuJywgJzgnLCAnLW1hJywgJzIwMCcsICctbWV0YWxfYmluZGluZycsICctaW1hZScsICc8aW5maWxlLm1hZT4nLCAnLW9tYWUnLCAnPG91dGZpbGUubWFlPic=

> <r_lp_tautomer_probability>
1

> <r_epik_Ionization_Penalty>
2.89159

> <r_epik_Ionization_Penalty_Charging>
2.1077e-08

> <r_epik_Ionization_Penalty_Neutral>
2.89159

> <r_epik_State_Penalty>
2.88671

> <r_epik_Charging_Adjusted_Penalty>
2.88671

> <i_epik_Tot_Q>
-1

> <i_epik_Tot_abs_Q>
1

> <r_epik_Metal_State_Penalty>
0.0727308

> <b_epik_Metal_Only>
1

> <s_epik_Chemistry_Notes>
This compound has an ester and may undergo hydrolysis at high or low pH. This compound contains an acetal/aminal-like group ( X-CH(R)-Y where X, Y are N, S, or O) that may be acid/base labile, releasing an aldehyde.

> <s_lp_Force_Field>
OPLS_2005

> <r_lp_Energy>
47.3257

> <b_lp_Chiralities_Consistent>
1

> <s_lp_Variant>
AV-unprocessed.smi:99-23

> <Gold.Version>
5.8.1

> <Gold.Id.Protein>
6NUR|6NUR_protein|mol2

> <Gold.PLP.Fitness>
60.6335

> <Gold.PLP.PLP>
-51.4213

> <Gold.PLP.part.hbond>
-4.8539

> <Gold.PLP.part.metal>
0.0000

> <Gold.PLP.part.buried>
-4.5580

> <Gold.PLP.part.nonpolar>
-43.3108

> <Gold.PLP.part.repulsive>
0.0792

> <Gold.PLP.ligand.clash>
0.0000

> <Gold.PLP.ligand.torsion>
1.6832

> <Gold.PLP.Chemscore.Hbond>
3.1840

> <Gold.PLP.Chemscore.CHOScore>
0.7834

> <Gold.PLP.Chemscore.Metal>
0.0000

> <Gold.Chemscore.Hbonds>
donor molecule, donor type, donor heavy atom, donor atom, acceptor molecule, acceptor atom, score
      P1  H  6934  6947       L1     1  0.54

> <Gold.PLP.Chemscore.Internal.Correction>
0.6764

> <Gold.Rescore>
     Score         DG    S(hbond)    S(metal)    S(lipo)     H(rot)  DE(clash)    DE(int)     intcor
     14.58     -19.10       2.24        0.00     121.13       3.13       0.48       4.04       ----

> <Gold.Chemscore.Fitness>
14.5844

> <Gold.Chemscore.DG>
-19.0976

> <Gold.Chemscore.ZeroCoef>
-5.4800

> <Gold.Chemscore.Hbond>
2.2366

> <Gold.Chemscore.Metal>
0.0000

> <Gold.Chemscore.Lipo>
121.1281

> <Gold.Chemscore.Internal_Hbond>
0.0000

> <Gold.Chemscore.DEClash>
0.4768

> <Gold.Chemscore.DEInternal>
4.0365

> <Gold.Chemscore.Rot>
3.1346

> <Gold.Chemscore.Internal.Correction>
   9.000000E+99

> <Gold.Chemscore.Hbonds>
donor molecule, donor type, donor heavy atom, donor atom, acceptor molecule, acceptor atom, score
      L1  H    17    41       P1  7948  0.01
      P1  H  6931  6943       L1     1  0.02
      P1  H  6934  6947       L1     1  0.53

> <Gold.Chemscore.Hbond.Weighted>
-7.4702

> <Gold.Chemscore.Metal.Weighted>
-0.0000

> <Gold.Chemscore.Lipo.Weighted>
-14.1720

> <Gold.Chemscore.Internal_Hbond.Weighted>
0.0000

> <Gold.Chemscore.DEClash.Weighted>
0.4768

> <Gold.Chemscore.DEInternal.Weighted>
4.0365

> <Gold.Chemscore.Rot.Weighted>
8.0246

> <Gold.Chemscore.Internal.Correction.Weighted>
   9.000000E+99

> <Gold.Protein.RotatedTorsions>
[ 6907 6896 6895 6894 ] final   -6.83 input  -60.11 | X-H torsion
[ 7974 7965 7964 7962 ] final   75.57 input  175.53 | X-H torsion
[ 8008 7997 7996 7995 ] final  -59.67 input   59.86 | X-H torsion
[ 10167 10162 10161 10158 ] final -143.25 input  -65.29 | X-H torsion
[ 10718 10713 10712 10709 ] final -122.14 input   66.30 | X-H torsion
[ 10763 10752 10751 10750 ] final  -34.66 input  -60.55 | X-H torsion
[ 11005 11000 10999 10996 ] final  119.53 input  -57.11 | X-H torsion

> <Gold.Protein.ActiveResidues>
 VAL166  LYS551  ARG553  GLY616  TRP617  ASP618  TYR619  PRO620  LYS621  CYS622 
 ASP623  PHE694  ASN695  SER759  ASP760  ASP761  ALA762  ILE779  LEU786  VAL792 
 PHE793  MET794  SER795  GLU796  ALA797  LYS798  CYS799  TRP800  GLU811  SER814 

> <Gold.Protein.RotatedAtoms>
  151.4593  135.1037  159.9719 H   0  0  0  0  0  0  0  0  0  0  0  0  # atno 6907 bound_to 6896
  152.4859  133.8368  159.7142 H   0  0  0  0  0  0  0  0  0  0  0  0  # atno 6908 bound_to 6896
  150.8968  133.7110  159.2916 H   0  0  0  0  0  0  0  0  0  0  0  0  # atno 6909 bound_to 6896
  145.7140  139.2624  143.1634 H   0  0  0  0  0  0  0  0  0  0  0  0  # atno 7974 bound_to 7965
  154.4363  140.1056  156.6153 H   0  0  0  0  0  0  0  0  0  0  0  0  # atno 8008 bound_to 7997
  155.5766  140.3490  155.4510 H   0  0  0  0  0  0  0  0  0  0  0  0  # atno 8009 bound_to 7997
  156.0350  140.1269  157.0207 H   0  0  0  0  0  0  0  0  0  0  0  0  # atno 8010 bound_to 7997
  139.8011  143.7832  152.2658 H   0  0  0  0  0  0  0  0  0  0  0  0  # atno 10167 bound_to 10162
  156.1394  130.6455  150.9747 H   0  0  0  0  0  0  0  0  0  0  0  0  # atno 10718 bound_to 10713
  153.8504  135.6849  153.4793 H   0  0  0  0  0  0  0  0  0  0  0  0  # atno 10763 bound_to 10752
  153.1401  135.4661  154.9480 H   0  0  0  0  0  0  0  0  0  0  0  0  # atno 10764 bound_to 10752
  154.7805  135.3267  154.7948 H   0  0  0  0  0  0  0  0  0  0  0  0  # atno 10765 bound_to 10752
  139.9150  134.9629  156.7669 H   0  0  0  0  0  0  0  0  0  0  0  0  # atno 11005 bound_to 11000
  146.0687  140.7893  142.9699 LP  0  0  0  0  0  0  0  0  0  0  0  0  # atno 17320 bound_to 7965
  144.6934  140.3308  143.7216 LP  0  0  0  0  0  0  0  0  0  0  0  0  # atno 17321 bound_to 7965
  139.7952  144.7395  150.9900 LP  0  0  0  0  0  0  0  0  0  0  0  0  # atno 17342 bound_to 10162
  140.7820  143.4401  151.0564 LP  0  0  0  0  0  0  0  0  0  0  0  0  # atno 17343 bound_to 10162
  157.6562  131.0889  150.7942 LP  0  0  0  0  0  0  0  0  0  0  0  0  # atno 17370 bound_to 10713
  156.8019  130.4924  149.5368 LP  0  0  0  0  0  0  0  0  0  0  0  0  # atno 17371 bound_to 10713
  140.6652  133.9609  155.7826 LP  0  0  0  0  0  0  0  0  0  0  0  0  # atno 17394 bound_to 11000
  141.0616  134.0338  157.3651 LP  0  0  0  0  0  0  0  0  0  0  0  0  # atno 17395 bound_to 11000

$$$$
