AV-unprocessed.smi:1194|AV-procd|sdf|4990|dock4
  -GOLD-   22720 3593D 1   1.00000     0.00000
 Structure written by MMmdl.
 47 48  0  0  0  0  0  0  0  0  1 V2000
  148.1211  136.2413  161.2101 C   0  0  0  0  0  0  0  0  0  0  0  0
  147.7660  136.3411  159.7229 C   0  0  0  0  0  0  0  0  0  0  0  0
  148.5202  137.4830  159.0151 C   0  0  0  0  0  0  0  0  0  0  0  0
  149.8825  137.0661  158.4302 C   0  0  0  0  0  0  0  0  0  0  0  0
  150.2207  135.8847  158.5210 O   0  0  0  0  0  0  0  0  0  0  0  0
  150.6788  138.0050  157.8523 N   0  0  0  0  0  0  0  0  0  0  0  0
  150.2989  139.4262  157.6916 C   0  0  0  0  0  0  0  0  0  0  0  0
  150.3425  139.8306  156.2085 C   0  0  0  0  0  0  0  0  0  0  0  0
  151.7114  139.5201  155.5883 C   0  0  0  0  0  0  0  0  0  0  0  0
  152.0799  138.0478  155.8256 C   0  0  0  0  0  0  0  0  0  0  0  0
  152.0236  137.6573  157.3235 C   0  0  1  0  0  0  0  0  0  0  0  0
  153.1819  138.2477  158.1600 C   0  0  0  0  0  0  0  0  0  0  0  0
  154.3396  138.2038  157.7444 O   0  0  0  0  0  0  0  0  0  0  0  0
  152.8577  138.7805  159.3473 N   0  0  0  0  0  0  0  0  0  0  0  0
  153.7784  139.3749  160.3065 C   0  0  0  0  0  0  0  0  0  0  0  0
  154.2711  140.7488  159.8173 C   0  0  0  0  0  0  0  0  0  0  0  0
  153.5933  141.9182  160.5138 C   0  0  0  0  0  0  0  0  0  0  0  0
  153.5991  142.0257  161.9198 C   0  0  0  0  0  0  0  0  0  0  0  0
  152.9350  143.1130  162.5198 C   0  0  0  0  0  0  0  0  0  0  0  0
  152.2953  144.0514  161.6858 C   0  0  0  0  0  0  0  0  0  0  0  0
  152.2881  143.9618  160.3387 N   0  0  0  0  0  0  0  0  0  0  0  0
  152.9242  142.9151  159.7713 C   0  0  0  0  0  0  0  0  0  0  0  0
  147.5725  135.4289  161.6870 H   0  0  0  0  0  0  0  0  0  0  0  0
  147.8754  137.1641  161.7365 H   0  0  0  0  0  0  0  0  0  0  0  0
  149.1858  136.0490  161.3476 H   0  0  0  0  0  0  0  0  0  0  0  0
  147.9970  135.3890  159.2427 H   0  0  0  0  0  0  0  0  0  0  0  0
  146.6898  136.4877  159.6223 H   0  0  0  0  0  0  0  0  0  0  0  0
  147.9007  137.8858  158.2129 H   0  0  0  0  0  0  0  0  0  0  0  0
  148.6784  138.2834  159.7374 H   0  0  0  0  0  0  0  0  0  0  0  0
  149.3102  139.6721  158.0725 H   0  0  0  0  0  0  0  0  0  0  0  0
  150.9858  140.0515  158.2626 H   0  0  0  0  0  0  0  0  0  0  0  0
  149.5641  139.2948  155.6635 H   0  0  0  0  0  0  0  0  0  0  0  0
  150.1189  140.8927  156.1038 H   0  0  0  0  0  0  0  0  0  0  0  0
  151.6966  139.7354  154.5195 H   0  0  0  0  0  0  0  0  0  0  0  0
  152.4704  140.1708  156.0243 H   0  0  0  0  0  0  0  0  0  0  0  0
  151.3846  137.4157  155.2710 H   0  0  0  0  0  0  0  0  0  0  0  0
  153.0641  137.8382  155.4049 H   0  0  0  0  0  0  0  0  0  0  0  0
  152.1962  136.5809  157.3528 H   0  0  0  0  0  0  0  0  0  0  0  0
  151.8840  138.7631  159.6148 H   0  0  0  0  0  0  0  0  0  0  0  0
  153.2451  139.4893  161.2508 H   0  0  0  0  0  0  0  0  0  0  0  0
  154.6304  138.7208  160.4989 H   0  0  0  0  0  0  0  0  0  0  0  0
  155.3498  140.8277  159.9563 H   0  0  0  0  0  0  0  0  0  0  0  0
  154.0969  140.8314  158.7435 H   0  0  0  0  0  0  0  0  0  0  0  0
  154.0954  141.2841  162.5284 H   0  0  0  0  0  0  0  0  0  0  0  0
  152.9140  143.2239  163.5938 H   0  0  0  0  0  0  0  0  0  0  0  0
  151.7739  144.8958  162.1115 H   0  0  0  0  0  0  0  0  0  0  0  0
  152.8867  142.8675  158.6929 H   0  0  0  0  0  0  0  0  0  0  0  0
  1  2  1  0  0  0  0
  1 23  1  0  0  0  0
  1 24  1  0  0  0  0
  1 25  1  0  0  0  0
  2  3  1  0  0  0  0
  2 26  1  0  0  0  0
  2 27  1  0  0  0  0
  3  4  1  0  0  0  0
  3 28  1  0  0  0  0
  3 29  1  0  0  0  0
  4  5  2  0  0  0  0
  4  6  1  0  0  0  0
  6 11  1  0  0  0  0
  6  7  1  0  0  0  0
  7  8  1  0  0  0  0
  7 30  1  0  0  0  0
  7 31  1  0  0  0  0
  8  9  1  0  0  0  0
  8 32  1  0  0  0  0
  8 33  1  0  0  0  0
  9 10  1  0  0  0  0
  9 34  1  0  0  0  0
  9 35  1  0  0  0  0
 10 11  1  0  0  0  0
 10 36  1  0  0  0  0
 10 37  1  0  0  0  0
 11 12  1  0  0  0  0
 11 38  1  0  0  0  0
 12 13  2  0  0  0  0
 12 14  1  0  0  0  0
 14 15  1  0  0  0  0
 14 39  1  0  0  0  0
 15 16  1  0  0  0  0
 15 40  1  0  0  0  0
 15 41  1  0  0  0  0
 16 17  1  0  0  0  0
 16 42  1  0  0  0  0
 16 43  1  0  0  0  0
 17 22  1  0  0  0  0
 17 18  2  0  0  0  0
 18 19  1  0  0  0  0
 18 44  1  0  0  0  0
 19 20  2  0  0  0  0
 19 45  1  0  0  0  0
 20 21  1  0  0  0  0
 20 46  1  0  0  0  0
 21 22  2  0  0  0  0
 22 47  1  0  0  0  0
M  END
> <s_m_source_file>
AV-unprocessed.smi

> <i_m_source_file_index>
1194

> <i_lp_mmshare_version>
43012

> <i_f3d_flags>
0

> <s_epik_input>
W0NIM11bQ0gyXVtDSDJdQyg9TylOMVtDSDJdW0NIMl1bQ0gyXVtDSDJdW0NASF0xQyg9TylbTkhdW0NIMl1bQ0gyXWMyW2NIXVtjSF1bY0hdbltjSF0y

> <s_epik_cmdline>
J2VwaWtfcHl0aG9uJywgJy1waCcsICc3LjAnLCAnLXRuJywgJzgnLCAnLW1hJywgJzIwMCcsICctbWV0YWxfYmluZGluZycsICctaW1hZScsICc8aW5maWxlLm1hZT4nLCAnLW9tYWUnLCAnPG91dGZpbGUubWFlPic=

> <r_epik_Ionization_Penalty>
0.0130932

> <r_epik_Ionization_Penalty_Charging>
0

> <r_epik_Ionization_Penalty_Neutral>
0.0130932

> <r_epik_State_Penalty>
0.0101714

> <r_epik_Charging_Adjusted_Penalty>
0.0101714

> <i_epik_Tot_Q>
0

> <i_epik_Tot_abs_Q>
0

> <r_epik_Metal_State_Penalty>
0.00995056

> <b_epik_Metal_Only>
0

> <s_lp_Force_Field>
OPLS_2005

> <r_lp_Energy>
24.5515

> <b_lp_Chiralities_Consistent>
1

> <s_lp_Variant>
AV-unprocessed.smi:1194-1

> <Gold.Version>
5.8.1

> <Gold.Id.Protein>
6NUR|6NUR_protein|mol2

> <Gold.PLP.Fitness>
46.9521

> <Gold.PLP.PLP>
-43.2642

> <Gold.PLP.part.hbond>
-2.0000

> <Gold.PLP.part.metal>
0.0000

> <Gold.PLP.part.buried>
-6.6194

> <Gold.PLP.part.nonpolar>
-35.2808

> <Gold.PLP.part.repulsive>
0.1358

> <Gold.PLP.ligand.clash>
0.0000

> <Gold.PLP.ligand.torsion>
0.8933

> <Gold.PLP.Chemscore.Hbond>
1.7920

> <Gold.PLP.Chemscore.CHOScore>
0.0000

> <Gold.PLP.Chemscore.Metal>
0.0000

> <Gold.Chemscore.Hbonds>
donor molecule, donor type, donor heavy atom, donor atom, acceptor molecule, acceptor atom, score
      P1  H  6896  6907       L1     5  0.93
      P1  H  7997  8009       L1    13  0.82

> <Gold.PLP.Chemscore.Internal.Correction>
0.0984

> <Gold.Rescore>
     Score         DG    S(hbond)    S(metal)    S(lipo)     H(rot)  DE(clash)    DE(int)     intcor
     19.93     -20.87       1.83        0.00     116.07       1.68       0.03       0.91       ----

> <Gold.Chemscore.Fitness>
19.9326

> <Gold.Chemscore.DG>
-20.8750

> <Gold.Chemscore.ZeroCoef>
-5.4800

> <Gold.Chemscore.Hbond>
1.8328

> <Gold.Chemscore.Metal>
0.0000

> <Gold.Chemscore.Lipo>
116.0713

> <Gold.Chemscore.Internal_Hbond>
0.0000

> <Gold.Chemscore.DEClash>
0.0285

> <Gold.Chemscore.DEInternal>
0.9139

> <Gold.Chemscore.Rot>
1.6823

> <Gold.Chemscore.Internal.Correction>
   9.000000E+99

> <Gold.Chemscore.Hbonds>
donor molecule, donor type, donor heavy atom, donor atom, acceptor molecule, acceptor atom, score
      P1  H  6896  6907       L1     5  0.91
      P1  H  7997  8009       L1    13  0.57

> <Gold.Chemscore.Hbond.Weighted>
-6.1214

> <Gold.Chemscore.Metal.Weighted>
-0.0000

> <Gold.Chemscore.Lipo.Weighted>
-13.5803

> <Gold.Chemscore.Internal_Hbond.Weighted>
0.0000

> <Gold.Chemscore.DEClash.Weighted>
0.0285

> <Gold.Chemscore.DEInternal.Weighted>
0.9139

> <Gold.Chemscore.Rot.Weighted>
4.3068

> <Gold.Chemscore.Internal.Correction.Weighted>
   9.000000E+99

> <Gold.Protein.RotatedTorsions>
[ 6907 6896 6895 6894 ] final  -64.03 input  -60.11 | X-H torsion
[ 7974 7965 7964 7962 ] final  -46.19 input  175.53 | X-H torsion
[ 8008 7997 7996 7995 ] final  135.40 input   59.86 | X-H torsion
[ 10167 10162 10161 10158 ] final  128.67 input  -65.29 | X-H torsion
[ 10718 10713 10712 10709 ] final  -22.06 input   66.30 | X-H torsion
[ 10763 10752 10751 10750 ] final    1.74 input  -60.55 | X-H torsion
[ 11005 11000 10999 10996 ] final   25.33 input  -57.11 | X-H torsion

> <Gold.Protein.ActiveResidues>
 VAL166  LYS551  ARG553  GLY616  TRP617  ASP618  TYR619  PRO620  LYS621  CYS622 
 ASP623  PHE694  ASN695  SER759  ASP760  ASP761  ALA762  ILE779  LEU786  VAL792 
 PHE793  MET794  SER795  GLU796  ALA797  LYS798  CYS799  TRP800  GLU811  SER814 

> <Gold.Protein.RotatedAtoms>
  150.7611  134.6355  159.6208 H   0  0  0  0  0  0  0  0  0  0  0  0  # atno 6907 bound_to 6896
  152.3619  134.6856  160.0213 H   0  0  0  0  0  0  0  0  0  0  0  0  # atno 6908 bound_to 6896
  151.7244  133.3279  159.3360 H   0  0  0  0  0  0  0  0  0  0  0  0  # atno 6909 bound_to 6896
  145.9744  140.7349  142.9394 H   0  0  0  0  0  0  0  0  0  0  0  0  # atno 7974 bound_to 7965
  156.3003  140.2471  156.3575 H   0  0  0  0  0  0  0  0  0  0  0  0  # atno 8008 bound_to 7997
  154.8908  140.0409  157.1856 H   0  0  0  0  0  0  0  0  0  0  0  0  # atno 8009 bound_to 7997
  154.8600  140.2919  155.5549 H   0  0  0  0  0  0  0  0  0  0  0  0  # atno 8010 bound_to 7997
  139.5515  144.6817  151.4309 H   0  0  0  0  0  0  0  0  0  0  0  0  # atno 10167 bound_to 10162
  156.5097  130.4607  149.6655 H   0  0  0  0  0  0  0  0  0  0  0  0  # atno 10718 bound_to 10713
  153.3042  135.6958  153.7175 H   0  0  0  0  0  0  0  0  0  0  0  0  # atno 10763 bound_to 10752
  153.6077  135.3450  155.2968 H   0  0  0  0  0  0  0  0  0  0  0  0  # atno 10764 bound_to 10752
  154.8559  135.4356  154.2162 H   0  0  0  0  0  0  0  0  0  0  0  0  # atno 10765 bound_to 10752
  140.3490  134.2250  155.7682 H   0  0  0  0  0  0  0  0  0  0  0  0  # atno 11005 bound_to 11000
  144.6845  140.2803  143.7293 LP  0  0  0  0  0  0  0  0  0  0  0  0  # atno 17320 bound_to 7965
  145.7860  139.1909  143.2130 LP  0  0  0  0  0  0  0  0  0  0  0  0  # atno 17321 bound_to 7965
  140.6779  143.8148  150.7082 LP  0  0  0  0  0  0  0  0  0  0  0  0  # atno 17342 bound_to 10162
  140.1593  143.4289  152.2078 LP  0  0  0  0  0  0  0  0  0  0  0  0  # atno 17343 bound_to 10162
  156.3252  130.7302  151.2222 LP  0  0  0  0  0  0  0  0  0  0  0  0  # atno 17370 bound_to 10713
  157.7452  131.0445  150.4795 LP  0  0  0  0  0  0  0  0  0  0  0  0  # atno 17371 bound_to 10713
  141.2017  133.7955  157.0425 LP  0  0  0  0  0  0  0  0  0  0  0  0  # atno 17394 bound_to 11000
  140.0719  134.9698  157.1481 LP  0  0  0  0  0  0  0  0  0  0  0  0  # atno 17395 bound_to 11000

$$$$
