AV-unprocessed.smi:2707|AV-procd|sdf|10456|dock2
  -GOLD-   2272014493D 1   1.00000     0.00000
 Structure written by MMmdl.
 44 45  0  0  0  0  0  0  0  0  1 V2000
  148.2785  141.4326  153.8022 C   0  0  0  0  0  0  0  0  0  0  0  0
  146.9234  141.1253  154.4737 C   0  0  1  0  0  0  0  0  0  0  0  0
  146.1902  140.1055  153.7106 N   0  0  0  0  0  0  0  0  0  0  0  0
  146.4875  138.8042  153.5584 C   0  0  0  0  0  0  0  0  0  0  0  0
  147.4802  138.2638  154.0456 O   0  0  0  0  0  0  0  0  0  0  0  0
  145.5560  138.1840  152.8138 N   0  0  0  0  0  0  0  0  0  0  0  0
  145.5029  136.8156  152.4407 C   0  0  0  0  0  0  0  0  0  0  0  0
  144.9129  136.5532  151.1881 C   0  0  0  0  0  0  0  0  0  0  0  0
  144.8257  135.2197  150.7546 C   0  0  0  0  0  0  0  0  0  0  0  0
  145.3392  134.2159  151.6064 C   0  0  0  0  0  0  0  0  0  0  0  0
  145.3106  132.7172  151.2559 C   0  0  0  0  0  0  0  0  0  0  0  0
  145.8863  131.8352  152.3872 C   0  0  0  0  0  0  0  0  0  0  0  0
  146.1573  132.4613  149.9917 C   0  0  0  0  0  0  0  0  0  0  0  0
  143.8553  132.2672  151.0117 C   0  0  0  0  0  0  0  0  0  0  0  0
  145.8964  134.5314  152.8013 N   0  0  0  0  0  0  0  0  0  0  0  0
  145.9757  135.8016  153.2080 N   0  0  0  0  0  0  0  0  0  0  0  0
  147.1016  140.6918  155.9533 C   0  0  0  0  0  0  0  0  0  0  0  0
  145.7537  140.7807  156.6793 C   0  0  0  0  0  0  0  0  0  0  0  0
  144.8663  142.1778  155.8986 S   0  0  0  0  0  0  0  0  0  0  0  0
  143.5790  141.6928  155.3777 O   0  0  0  0  0  0  0  0  0  0  0  0
  144.9339  143.3589  156.7722 O   0  0  0  0  0  0  0  0  0  0  0  0
  146.0442  142.3921  154.5082 C   0  0  0  0  0  0  0  0  0  0  0  0
  148.7963  142.2463  154.3109 H   0  0  0  0  0  0  0  0  0  0  0  0
  148.1450  141.7300  152.7615 H   0  0  0  0  0  0  0  0  0  0  0  0
  148.9477  140.5723  153.8177 H   0  0  0  0  0  0  0  0  0  0  0  0
  145.3465  140.4291  153.2602 H   0  0  0  0  0  0  0  0  0  0  0  0
  144.7919  138.7542  152.4832 H   0  0  0  0  0  0  0  0  0  0  0  0
  144.5330  137.3536  150.5700 H   0  0  0  0  0  0  0  0  0  0  0  0
  144.3765  135.0022  149.7981 H   0  0  0  0  0  0  0  0  0  0  0  0
  145.8557  130.7786  152.1183 H   0  0  0  0  0  0  0  0  0  0  0  0
  145.3190  131.9447  153.3123 H   0  0  0  0  0  0  0  0  0  0  0  0
  146.9282  132.0795  152.5986 H   0  0  0  0  0  0  0  0  0  0  0  0
  147.1914  132.7762  150.1371 H   0  0  0  0  0  0  0  0  0  0  0  0
  145.7684  133.0007  149.1272 H   0  0  0  0  0  0  0  0  0  0  0  0
  146.1699  131.4028  149.7293 H   0  0  0  0  0  0  0  0  0  0  0  0
  143.8017  131.2030  150.7795 H   0  0  0  0  0  0  0  0  0  0  0  0
  143.4007  132.8006  150.1761 H   0  0  0  0  0  0  0  0  0  0  0  0
  143.2341  132.4436  151.8907 H   0  0  0  0  0  0  0  0  0  0  0  0
  147.5468  139.7033  156.0628 H   0  0  0  0  0  0  0  0  0  0  0  0
  147.7905  141.3850  156.4380 H   0  0  0  0  0  0  0  0  0  0  0  0
  145.1676  139.8750  156.5214 H   0  0  0  0  0  0  0  0  0  0  0  0
  145.8569  140.9485  157.7513 H   0  0  0  0  0  0  0  0  0  0  0  0
  146.6438  143.2755  154.7302 H   0  0  0  0  0  0  0  0  0  0  0  0
  145.5031  142.5803  153.5802 H   0  0  0  0  0  0  0  0  0  0  0  0
  1  2  1  0  0  0  0
  1 23  1  0  0  0  0
  1 24  1  0  0  0  0
  1 25  1  0  0  0  0
  2 22  1  0  0  0  0
  2  3  1  0  0  0  0
  2 17  1  0  0  0  0
  3  4  1  0  0  0  0
  3 26  1  0  0  0  0
  4  5  2  0  0  0  0
  4  6  1  0  0  0  0
  6  7  1  0  0  0  0
  6 27  1  0  0  0  0
  7 16  1  0  0  0  0
  7  8  2  0  0  0  0
  8  9  1  0  0  0  0
  8 28  1  0  0  0  0
  9 10  2  0  0  0  0
  9 29  1  0  0  0  0
 10 11  1  0  0  0  0
 10 15  1  0  0  0  0
 11 12  1  0  0  0  0
 11 13  1  0  0  0  0
 11 14  1  0  0  0  0
 12 30  1  0  0  0  0
 12 31  1  0  0  0  0
 12 32  1  0  0  0  0
 13 33  1  0  0  0  0
 13 34  1  0  0  0  0
 13 35  1  0  0  0  0
 14 36  1  0  0  0  0
 14 37  1  0  0  0  0
 14 38  1  0  0  0  0
 15 16  2  0  0  0  0
 17 18  1  0  0  0  0
 17 39  1  0  0  0  0
 17 40  1  0  0  0  0
 18 19  1  0  0  0  0
 18 41  1  0  0  0  0
 18 42  1  0  0  0  0
 19 20  2  0  0  0  0
 19 21  2  0  0  0  0
 19 22  1  0  0  0  0
 22 43  1  0  0  0  0
 22 44  1  0  0  0  0
M  END
> <s_m_source_file>
AV-unprocessed.smi

> <i_m_source_file_index>
2707

> <i_lp_mmshare_version>
43012

> <i_f3d_flags>
0

> <s_epik_input>
Tz1TKD1PKShbQ0gyXTEpW0NIMl1bQ0gyXVtDQEBdMShbQ0gzXSlbTkhdQyg9TylbTkhdYzJbY0hdW2NIXWMobm4yKUMoW0NIM10pKFtDSDNdKVtDSDNd

> <s_epik_cmdline>
J2VwaWtfcHl0aG9uJywgJy1waCcsICc3LjAnLCAnLXRuJywgJzgnLCAnLW1hJywgJzIwMCcsICctbWV0YWxfYmluZGluZycsICctaW1hZScsICc8aW5maWxlLm1hZT4nLCAnLW9tYWUnLCAnPG91dGZpbGUubWFlPic=

> <r_lp_tautomer_probability>
1

> <r_epik_Ionization_Penalty>
0.00910408

> <r_epik_Ionization_Penalty_Charging>
0

> <r_epik_Ionization_Penalty_Neutral>
0.00910408

> <r_epik_State_Penalty>
-0

> <r_epik_Charging_Adjusted_Penalty>
0

> <i_epik_Tot_Q>
0

> <i_epik_Tot_abs_Q>
0

> <r_epik_Metal_State_Penalty>
-0

> <b_epik_Metal_Only>
0

> <s_lp_Force_Field>
OPLS_2005

> <r_lp_Energy>
10.5571

> <b_lp_Chiralities_Consistent>
1

> <s_lp_Variant>
AV-unprocessed.smi:2707-1

> <Gold.Version>
5.8.1

> <Gold.Id.Protein>
6NUR|6NUR_protein|mol2

> <Gold.PLP.Fitness>
34.6866

> <Gold.PLP.PLP>
-29.2806

> <Gold.PLP.part.hbond>
-2.0000

> <Gold.PLP.part.metal>
0.0000

> <Gold.PLP.part.buried>
-1.1613

> <Gold.PLP.part.nonpolar>
-26.8372

> <Gold.PLP.part.repulsive>
1.1891

> <Gold.PLP.ligand.clash>
0.0000

> <Gold.PLP.ligand.torsion>
0.3055

> <Gold.PLP.Chemscore.Hbond>
2.0000

> <Gold.PLP.Chemscore.CHOScore>
0.0000

> <Gold.PLP.Chemscore.Metal>
0.0000

> <Gold.Chemscore.Hbonds>
donor molecule, donor type, donor heavy atom, donor atom, acceptor molecule, acceptor atom, score
      L1  H     3    26       P1 10175  1.00
      L1  H     6    27       P1 10175  0.99

> <Gold.PLP.Chemscore.Internal.Correction>
0.0169

> <Gold.Rescore>
     Score         DG    S(hbond)    S(metal)    S(lipo)     H(rot)  DE(clash)    DE(int)     intcor
     13.70     -17.06       1.96        0.00      69.91       1.22       2.04       1.32       ----

> <Gold.Chemscore.Fitness>
13.6995

> <Gold.Chemscore.DG>
-17.0646

> <Gold.Chemscore.ZeroCoef>
-5.4800

> <Gold.Chemscore.Hbond>
1.9580

> <Gold.Chemscore.Metal>
0.0000

> <Gold.Chemscore.Lipo>
69.9051

> <Gold.Chemscore.Internal_Hbond>
0.0000

> <Gold.Chemscore.DEClash>
2.0418

> <Gold.Chemscore.DEInternal>
1.3233

> <Gold.Chemscore.Rot>
1.2242

> <Gold.Chemscore.Internal.Correction>
   9.000000E+99

> <Gold.Chemscore.Hbonds>
donor molecule, donor type, donor heavy atom, donor atom, acceptor molecule, acceptor atom, score
      L1  H     3    26       P1 10175  0.98
      L1  H     6    27       P1 10175  0.90

> <Gold.Chemscore.Hbond.Weighted>
-6.5397

> <Gold.Chemscore.Metal.Weighted>
-0.0000

> <Gold.Chemscore.Lipo.Weighted>
-8.1789

> <Gold.Chemscore.Internal_Hbond.Weighted>
0.0000

> <Gold.Chemscore.DEClash.Weighted>
2.0418

> <Gold.Chemscore.DEInternal.Weighted>
1.3233

> <Gold.Chemscore.Rot.Weighted>
3.1340

> <Gold.Chemscore.Internal.Correction.Weighted>
   9.000000E+99

> <Gold.Protein.RotatedTorsions>
[ 6907 6896 6895 6894 ] final -106.82 input  -60.11 | X-H torsion
[ 7974 7965 7964 7962 ] final  -17.57 input  175.53 | X-H torsion
[ 8008 7997 7996 7995 ] final -112.46 input   59.86 | X-H torsion
[ 10167 10162 10161 10158 ] final   73.09 input  -65.29 | X-H torsion
[ 10718 10713 10712 10709 ] final  121.87 input   66.30 | X-H torsion
[ 10763 10752 10751 10750 ] final -179.66 input  -60.55 | X-H torsion
[ 11005 11000 10999 10996 ] final   48.69 input  -57.11 | X-H torsion

> <Gold.Protein.ActiveResidues>
 VAL166  LYS551  ARG553  GLY616  TRP617  ASP618  TYR619  PRO620  LYS621  CYS622 
 ASP623  PHE694  ASN695  SER759  ASP760  ASP761  ALA762  ILE779  LEU786  VAL792 
 PHE793  MET794  SER795  GLU796  ALA797  LYS798  CYS799  TRP800  GLU811  SER814 

> <Gold.Protein.RotatedAtoms>
  150.7410  133.9919  159.3609 H   0  0  0  0  0  0  0  0  0  0  0  0  # atno 6907 bound_to 6896
  151.7868  135.0745  160.0391 H   0  0  0  0  0  0  0  0  0  0  0  0  # atno 6908 bound_to 6896
  152.3236  133.5844  159.5797 H   0  0  0  0  0  0  0  0  0  0  0  0  # atno 6909 bound_to 6896
  146.1934  140.3798  142.8449 H   0  0  0  0  0  0  0  0  0  0  0  0  # atno 7974 bound_to 7965
  155.0056  140.0394  157.2378 H   0  0  0  0  0  0  0  0  0  0  0  0  # atno 8008 bound_to 7997
  154.7505  140.2766  155.6274 H   0  0  0  0  0  0  0  0  0  0  0  0  # atno 8009 bound_to 7997
  156.2884  140.2648  156.2257 H   0  0  0  0  0  0  0  0  0  0  0  0  # atno 8010 bound_to 7997
  140.0283  144.5486  150.7527 H   0  0  0  0  0  0  0  0  0  0  0  0  # atno 10167 bound_to 10162
  157.5785  131.1077  150.8232 H   0  0  0  0  0  0  0  0  0  0  0  0  # atno 10718 bound_to 10713
  154.5322  135.2800  155.1170 H   0  0  0  0  0  0  0  0  0  0  0  0  # atno 10763 bound_to 10752
  154.2685  135.6308  153.5305 H   0  0  0  0  0  0  0  0  0  0  0  0  # atno 10764 bound_to 10752
  152.9959  135.5622  154.5839 H   0  0  0  0  0  0  0  0  0  0  0  0  # atno 10765 bound_to 10752
  140.1169  134.4881  155.8630 H   0  0  0  0  0  0  0  0  0  0  0  0  # atno 11005 bound_to 11000
  144.8532  140.7032  143.6155 LP  0  0  0  0  0  0  0  0  0  0  0  0  # atno 17320 bound_to 7965
  145.3720  139.1656  143.4327 LP  0  0  0  0  0  0  0  0  0  0  0  0  # atno 17321 bound_to 7965
  140.7313  143.2693  151.3941 LP  0  0  0  0  0  0  0  0  0  0  0  0  # atno 17342 bound_to 10162
  139.6093  144.1131  152.2282 LP  0  0  0  0  0  0  0  0  0  0  0  0  # atno 17343 bound_to 10162
  156.8684  130.5137  149.5298 LP  0  0  0  0  0  0  0  0  0  0  0  0  # atno 17370 bound_to 10713
  156.0831  130.5836  150.9598 LP  0  0  0  0  0  0  0  0  0  0  0  0  # atno 17371 bound_to 10713
  141.2143  133.6746  156.6813 LP  0  0  0  0  0  0  0  0  0  0  0  0  # atno 17394 bound_to 11000
  140.3017  134.8158  157.4103 LP  0  0  0  0  0  0  0  0  0  0  0  0  # atno 17395 bound_to 11000

$$$$
