AV-unprocessed.smi:1763|AV-procd|sdf|7131|dock4
  -GOLD-   22720 8363D 1   1.00000     0.00000
 Structure written by MMmdl.
 42 43  0  0  0  0  0  0  0  0  3 V2000
  149.5368  133.1485  156.9917 C   0  0  0  0  0  0  0  0  0  0  0  0
  150.5256  134.1595  157.3483 N   0  5  0  0  0  0  0  0  0  0  0  0
  151.2203  134.8867  156.4301 C   0  0  0  0  0  0  0  0  0  0  0  0
  152.2447  135.5663  156.5483 O   0  0  0  0  0  0  0  0  0  0  0  0
  150.5622  134.8016  155.0472 C   0  0  0  0  0  0  0  0  0  0  0  0
  150.0112  136.1201  154.6410 N   0  3  2  0  0  0  0  0  0  0  0  0
  151.0458  137.1841  154.6163 C   0  0  0  0  0  0  0  0  0  0  0  0
  150.4824  138.4968  154.0421 C   0  0  0  0  0  0  0  0  0  0  0  0
  149.2271  138.9689  154.7965 C   0  0  2  0  0  0  0  0  0  0  0  0
  149.5827  139.4650  156.1260 N   0  0  0  0  0  0  0  0  0  0  0  0
  150.3605  140.5297  156.3728 C   0  0  0  0  0  0  0  0  0  0  0  0
  150.8634  141.2209  155.4866 O   0  0  0  0  0  0  0  0  0  0  0  0
  150.5074  140.7303  157.6945 N   0  0  0  0  0  0  0  0  0  0  0  0
  151.2473  141.7506  158.3501 C   0  0  0  0  0  0  0  0  0  0  0  0
  151.9265  141.3404  159.5198 C   0  0  0  0  0  0  0  0  0  0  0  0
  152.6885  142.2785  160.2431 C   0  0  0  0  0  0  0  0  0  0  0  0
  152.7520  143.6040  159.7776 C   0  0  0  0  0  0  0  0  0  0  0  0
  152.0458  143.9295  158.6048 C   0  0  0  0  0  0  0  0  0  0  0  0
  151.3148  143.0323  157.9103 N   0  0  0  0  0  0  0  0  0  0  0  0
  148.2006  137.8208  154.8689 C   0  0  0  0  0  0  0  0  0  0  0  0
  148.8189  136.5287  155.4303 C   0  0  0  0  0  0  0  0  0  0  0  0
  149.0755  132.7051  157.8740 H   0  0  0  0  0  0  0  0  0  0  0  0
  149.9720  132.3250  156.4249 H   0  0  0  0  0  0  0  0  0  0  0  0
  148.7241  133.5538  156.3881 H   0  0  0  0  0  0  0  0  0  0  0  0
  151.2728  134.4408  154.3018 H   0  0  0  0  0  0  0  0  0  0  0  0
  149.7657  134.0574  155.1030 H   0  0  0  0  0  0  0  0  0  0  0  0
  151.4311  137.3413  155.6248 H   0  0  0  0  0  0  0  0  0  0  0  0
  151.8880  136.8616  154.0028 H   0  0  0  0  0  0  0  0  0  0  0  0
  151.2486  139.2730  154.0576 H   0  0  0  0  0  0  0  0  0  0  0  0
  150.2296  138.3428  152.9921 H   0  0  0  0  0  0  0  0  0  0  0  0
  148.7895  139.7962  154.2348 H   0  0  0  0  0  0  0  0  0  0  0  0
  149.2164  138.9536  156.9156 H   0  0  0  0  0  0  0  0  0  0  0  0
  150.0358  140.0783  158.3033 H   0  0  0  0  0  0  0  0  0  0  0  0
  151.8676  140.3178  159.8637 H   0  0  0  0  0  0  0  0  0  0  0  0
  153.2149  141.9851  161.1393 H   0  0  0  0  0  0  0  0  0  0  0  0
  153.3257  144.3516  160.3053 H   0  0  0  0  0  0  0  0  0  0  0  0
  152.0680  144.9360  158.2137 H   0  0  0  0  0  0  0  0  0  0  0  0
  147.3367  138.1131  155.4671 H   0  0  0  0  0  0  0  0  0  0  0  0
  147.8174  137.6220  153.8671 H   0  0  0  0  0  0  0  0  0  0  0  0
  148.0666  135.7396  155.4109 H   0  0  0  0  0  0  0  0  0  0  0  0
  149.1010  136.6660  156.4753 H   0  0  0  0  0  0  0  0  0  0  0  0
  149.7052  135.9954  153.6858 H   0  0  0  0  0  0  0  0  0  0  0  0
  1  2  1  0  0  0  0
  1 22  1  0  0  0  0
  1 23  1  0  0  0  0
  1 24  1  0  0  0  0
  2  3  1  0  0  0  0
  3  4  2  0  0  0  0
  3  5  1  0  0  0  0
  5  6  1  0  0  0  0
  5 25  1  0  0  0  0
  5 26  1  0  0  0  0
  6 21  1  0  0  0  0
  6  7  1  0  0  0  0
  6 42  1  0  0  0  0
  7  8  1  0  0  0  0
  7 27  1  0  0  0  0
  7 28  1  0  0  0  0
  8  9  1  0  0  0  0
  8 29  1  0  0  0  0
  8 30  1  0  0  0  0
  9 10  1  0  0  0  0
  9 20  1  0  0  0  0
  9 31  1  0  0  0  0
 10 11  1  0  0  0  0
 10 32  1  0  0  0  0
 11 12  2  0  0  0  0
 11 13  1  0  0  0  0
 13 14  1  0  0  0  0
 13 33  1  0  0  0  0
 14 19  1  0  0  0  0
 14 15  2  0  0  0  0
 15 16  1  0  0  0  0
 15 34  1  0  0  0  0
 16 17  2  0  0  0  0
 16 35  1  0  0  0  0
 17 18  1  0  0  0  0
 17 36  1  0  0  0  0
 18 19  2  0  0  0  0
 18 37  1  0  0  0  0
 20 21  1  0  0  0  0
 20 38  1  0  0  0  0
 20 39  1  0  0  0  0
 21 40  1  0  0  0  0
 21 41  1  0  0  0  0
M  CHG  1   2  -1
M  CHG  1   6   1
M  END
> <s_m_source_file>
AV-unprocessed.smi

> <i_m_source_file_index>
1763

> <i_lp_mmshare_version>
43012

> <i_f3d_flags>
0

> <s_epik_input>
W0NIM11bTkhdQyg9TylbQ0gyXU4xW0NIMl1bQ0gyXVtDSF0oW0NIMl1bQ0gyXTEpW05IXUMoPU8pW05IXWMyW2NIXVtjSF1bY0hdW2NIXW4y

> <s_epik_cmdline>
J2VwaWtfcHl0aG9uJywgJy1waCcsICc3LjAnLCAnLXRuJywgJzgnLCAnLW1hJywgJzIwMCcsICctbWV0YWxfYmluZGluZycsICctaW1hZScsICc8aW5maWxlLm1hZT4nLCAnLW9tYWUnLCAnPG91dGZpbGUubWFlPic=

> <r_epik_Ionization_Penalty>
6.1395

> <r_epik_Ionization_Penalty_Charging>
6.13946

> <r_epik_Ionization_Penalty_Neutral>
3.77655e-05

> <r_epik_State_Penalty>
6.9595

> <r_epik_Charging_Adjusted_Penalty>
13.099

> <i_epik_Tot_Q>
0

> <i_epik_Tot_abs_Q>
2

> <r_epik_Metal_State_Penalty>
2.8914

> <b_epik_Metal_Only>
1

> <s_lp_Force_Field>
OPLS_2005

> <r_lp_Energy>
12.7162

> <b_lp_Chiralities_Consistent>
1

> <s_lp_Variant>
AV-unprocessed.smi:1763-5

> <Gold.Version>
5.8.1

> <Gold.Id.Protein>
6NUR|6NUR_protein|mol2

> <Gold.PLP.Fitness>
49.2305

> <Gold.PLP.PLP>
-33.6186

> <Gold.PLP.part.hbond>
-4.0000

> <Gold.PLP.part.metal>
0.0000

> <Gold.PLP.part.buried>
-3.8422

> <Gold.PLP.part.nonpolar>
-27.0840

> <Gold.PLP.part.repulsive>
0.2455

> <Gold.PLP.ligand.clash>
0.0000

> <Gold.PLP.ligand.torsion>
0.4409

> <Gold.PLP.Chemscore.Hbond>
5.4800

> <Gold.PLP.Chemscore.CHOScore>
0.0000

> <Gold.PLP.Chemscore.Metal>
0.0000

> <Gold.Chemscore.Hbonds>
donor molecule, donor type, donor heavy atom, donor atom, acceptor molecule, acceptor atom, score
      L1  H     6    42       P1  7948  2.00
      P1  H  6896  6908       L1     2  1.31
      P1  H  7989  7998       L1    12  0.42
      P1  H 10752 10764       L1     4  1.00

> <Gold.PLP.Chemscore.Internal.Correction>
0.0538

> <Gold.Rescore>
     Score         DG    S(hbond)    S(metal)    S(lipo)     H(rot)  DE(clash)    DE(int)     intcor
     16.98     -19.63       2.87        0.00      75.75       1.67       0.08       2.57       ----

> <Gold.Chemscore.Fitness>
16.9782

> <Gold.Chemscore.DG>
-19.6302

> <Gold.Chemscore.ZeroCoef>
-5.4800

> <Gold.Chemscore.Hbond>
2.8655

> <Gold.Chemscore.Metal>
0.0000

> <Gold.Chemscore.Lipo>
75.7461

> <Gold.Chemscore.Internal_Hbond>
0.0000

> <Gold.Chemscore.DEClash>
0.0815

> <Gold.Chemscore.DEInternal>
2.5705

> <Gold.Chemscore.Rot>
1.6730

> <Gold.Chemscore.Internal.Correction>
   9.000000E+99

> <Gold.Chemscore.Hbonds>
donor molecule, donor type, donor heavy atom, donor atom, acceptor molecule, acceptor atom, score
      L1  H     6    42       P1  7948  0.25
      P1  H  6896  6908       L1     2  0.29
      P1  H  7989  7998       L1    12  0.41
      P1  H 10752 10764       L1     4  0.85

> <Gold.Chemscore.Hbond.Weighted>
-9.5708

> <Gold.Chemscore.Metal.Weighted>
-0.0000

> <Gold.Chemscore.Lipo.Weighted>
-8.8623

> <Gold.Chemscore.Internal_Hbond.Weighted>
0.0000

> <Gold.Chemscore.DEClash.Weighted>
0.0815

> <Gold.Chemscore.DEInternal.Weighted>
2.5705

> <Gold.Chemscore.Rot.Weighted>
4.2830

> <Gold.Chemscore.Internal.Correction.Weighted>
   9.000000E+99

> <Gold.Protein.RotatedTorsions>
[ 6907 6896 6895 6894 ] final  128.74 input  -60.11 | X-H torsion
[ 7974 7965 7964 7962 ] final  179.20 input  175.53 | X-H torsion
[ 8008 7997 7996 7995 ] final   91.75 input   59.86 | X-H torsion
[ 10167 10162 10161 10158 ] final  133.82 input  -65.29 | X-H torsion
[ 10718 10713 10712 10709 ] final   96.26 input   66.30 | X-H torsion
[ 10763 10752 10751 10750 ] final  -15.37 input  -60.55 | X-H torsion
[ 11005 11000 10999 10996 ] final  -68.57 input  -57.11 | X-H torsion

> <Gold.Protein.ActiveResidues>
 VAL166  LYS551  ARG553  GLY616  TRP617  ASP618  TYR619  PRO620  LYS621  CYS622 
 ASP623  PHE694  ASN695  SER759  ASP760  ASP761  ALA762  ILE779  LEU786  VAL792 
 PHE793  MET794  SER795  GLU796  ALA797  LYS798  CYS799  TRP800  GLU811  SER814 

> <Gold.Protein.RotatedAtoms>
  152.3691  133.6395  159.6072 H   0  0  0  0  0  0  0  0  0  0  0  0  # atno 6907 bound_to 6896
  150.7655  133.9300  159.3433 H   0  0  0  0  0  0  0  0  0  0  0  0  # atno 6908 bound_to 6896
  151.7125  135.0911  160.0321 H   0  0  0  0  0  0  0  0  0  0  0  0  # atno 6909 bound_to 6896
  144.7148  140.0512  143.6435 H   0  0  0  0  0  0  0  0  0  0  0  0  # atno 7974 bound_to 7965
  156.0274  140.3334  155.7103 H   0  0  0  0  0  0  0  0  0  0  0  0  # atno 8008 bound_to 7997
  155.5935  140.0648  157.2770 H   0  0  0  0  0  0  0  0  0  0  0  0  # atno 8009 bound_to 7997
  154.4339  140.1823  156.1087 H   0  0  0  0  0  0  0  0  0  0  0  0  # atno 8010 bound_to 7997
  139.5281  144.6597  151.5050 H   0  0  0  0  0  0  0  0  0  0  0  0  # atno 10167 bound_to 10162
  157.6929  131.0572  150.4465 H   0  0  0  0  0  0  0  0  0  0  0  0  # atno 10718 bound_to 10713
  153.5423  135.7013  153.5631 H   0  0  0  0  0  0  0  0  0  0  0  0  # atno 10763 bound_to 10752
  153.3591  135.3974  155.1705 H   0  0  0  0  0  0  0  0  0  0  0  0  # atno 10764 bound_to 10752
  154.8672  135.3784  154.4928 H   0  0  0  0  0  0  0  0  0  0  0  0  # atno 10765 bound_to 10752
  141.1535  133.6744  156.6466 H   0  0  0  0  0  0  0  0  0  0  0  0  # atno 11005 bound_to 11000
  145.9943  139.3040  143.0966 LP  0  0  0  0  0  0  0  0  0  0  0  0  # atno 17320 bound_to 7965
  145.8867  140.9329  143.0573 LP  0  0  0  0  0  0  0  0  0  0  0  0  # atno 17321 bound_to 7965
  140.6440  143.8832  150.6719 LP  0  0  0  0  0  0  0  0  0  0  0  0  # atno 17342 bound_to 10162
  140.2175  143.3835  152.1669 LP  0  0  0  0  0  0  0  0  0  0  0  0  # atno 17343 bound_to 10162
  156.4819  130.4076  149.6456 LP  0  0  0  0  0  0  0  0  0  0  0  0  # atno 17370 bound_to 10713
  156.3499  130.7426  151.2384 LP  0  0  0  0  0  0  0  0  0  0  0  0  # atno 17371 bound_to 10713
  140.3352  134.7895  157.4357 LP  0  0  0  0  0  0  0  0  0  0  0  0  # atno 17394 bound_to 11000
  140.0983  134.5507  155.8377 LP  0  0  0  0  0  0  0  0  0  0  0  0  # atno 17395 bound_to 11000

$$$$
