AV-unprocessed.smi:1793|AV-procd|sdf|7229|dock10
  -GOLD-   22720 8473D 1   1.00000     0.00000
 Structure written by MMmdl.
 47 49  0  0  0  0  0  0  0  0  2 V2000
  146.7944  139.7619  151.1875 C   0  0  0  0  0  0  0  0  0  0  0  0
  146.5332  138.9723  152.4783 C   0  0  1  0  0  0  0  0  0  0  0  0
  146.7993  137.5562  152.2305 N   0  0  0  0  0  0  0  0  0  0  0  0
  145.8803  136.5822  152.1663 C   0  0  0  0  0  0  0  0  0  0  0  0
  144.6724  136.7664  152.3124 O   0  0  0  0  0  0  0  0  0  0  0  0
  146.4526  135.3947  151.9080 N   0  0  0  0  0  0  0  0  0  0  0  0
  145.8076  134.1459  151.6842 C   0  0  0  0  0  0  0  0  0  0  0  0
  144.5258  134.0841  151.0791 C   0  0  0  0  0  0  0  0  0  0  0  0
  143.8759  132.8443  150.9328 C   0  0  0  0  0  0  0  0  0  0  0  0
  144.5097  131.6844  151.4092 C   0  0  0  0  0  0  0  0  0  0  0  0
  145.7232  131.7770  151.9908 N   0  3  0  0  0  0  0  0  0  0  0  0
  146.4075  132.9381  152.1472 C   0  0  0  0  0  0  0  0  0  0  0  0
  147.6765  132.8733  152.7684 N   0  0  0  0  0  0  0  0  0  0  0  0
  147.9962  133.7498  153.8893 C   0  0  0  0  0  0  0  0  0  0  0  0
  149.2691  133.1680  154.4982 C   0  0  0  0  0  0  0  0  0  0  0  0
  149.0743  131.6685  154.2962 C   0  0  0  0  0  0  0  0  0  0  0  0
  148.3159  131.5764  152.9681 C   0  0  0  0  0  0  0  0  0  0  0  0
  147.4013  139.4770  153.6474 C   0  0  2  0  0  0  0  0  0  0  0  0
  147.5975  140.9925  153.6963 C   0  0  0  0  0  0  0  0  0  0  0  0
  148.8782  141.1515  154.4982 C   0  0  0  0  0  0  0  0  0  0  0  0
  149.5518  139.7792  154.3985 C   0  0  0  0  0  0  0  0  0  0  0  0
  148.7370  139.0159  153.5182 O   0  0  0  0  0  0  0  0  0  0  0  0
  146.5760  140.8214  151.3238 H   0  0  0  0  0  0  0  0  0  0  0  0
  146.1657  139.4013  150.3726 H   0  0  0  0  0  0  0  0  0  0  0  0
  147.8343  139.6750  150.8707 H   0  0  0  0  0  0  0  0  0  0  0  0
  145.4852  139.1170  152.7463 H   0  0  0  0  0  0  0  0  0  0  0  0
  147.7669  137.3017  152.0968 H   0  0  0  0  0  0  0  0  0  0  0  0
  147.4459  135.4110  151.7284 H   0  0  0  0  0  0  0  0  0  0  0  0
  144.0175  134.9757  150.7439 H   0  0  0  0  0  0  0  0  0  0  0  0
  142.8997  132.7875  150.4737 H   0  0  0  0  0  0  0  0  0  0  0  0
  144.0853  130.6928  151.3483 H   0  0  0  0  0  0  0  0  0  0  0  0
  148.1381  134.7804  153.5632 H   0  0  0  0  0  0  0  0  0  0  0  0
  147.1946  133.7291  154.6287 H   0  0  0  0  0  0  0  0  0  0  0  0
  150.1413  133.5090  153.9387 H   0  0  0  0  0  0  0  0  0  0  0  0
  149.4060  133.4453  155.5438 H   0  0  0  0  0  0  0  0  0  0  0  0
  150.0128  131.1137  154.2874 H   0  0  0  0  0  0  0  0  0  0  0  0
  148.4555  131.2683  155.1004 H   0  0  0  0  0  0  0  0  0  0  0  0
  147.5957  130.7574  152.9795 H   0  0  0  0  0  0  0  0  0  0  0  0
  149.0169  131.4032  152.1515 H   0  0  0  0  0  0  0  0  0  0  0  0
  146.9989  139.1273  154.6003 H   0  0  0  0  0  0  0  0  0  0  0  0
  147.7460  141.3842  152.6890 H   0  0  0  0  0  0  0  0  0  0  0  0
  146.7511  141.5169  154.1407 H   0  0  0  0  0  0  0  0  0  0  0  0
  149.5045  141.9473  154.0940 H   0  0  0  0  0  0  0  0  0  0  0  0
  148.6607  141.3909  155.5397 H   0  0  0  0  0  0  0  0  0  0  0  0
  150.5721  139.8427  154.0200 H   0  0  0  0  0  0  0  0  0  0  0  0
  149.5811  139.2942  155.3751 H   0  0  0  0  0  0  0  0  0  0  0  0
  146.1563  130.9170  152.3278 H   0  0  0  0  0  0  0  0  0  0  0  0
  1  2  1  0  0  0  0
  1 23  1  0  0  0  0
  1 24  1  0  0  0  0
  1 25  1  0  0  0  0
  2  3  1  0  0  0  0
  2 18  1  0  0  0  0
  2 26  1  0  0  0  0
  3  4  1  0  0  0  0
  3 27  1  0  0  0  0
  4  5  2  0  0  0  0
  4  6  1  0  0  0  0
  6  7  1  0  0  0  0
  6 28  1  0  0  0  0
  7 12  1  0  0  0  0
  7  8  2  0  0  0  0
  8  9  1  0  0  0  0
  8 29  1  0  0  0  0
  9 10  2  0  0  0  0
  9 30  1  0  0  0  0
 10 11  1  0  0  0  0
 10 31  1  0  0  0  0
 11 12  2  0  0  0  0
 11 47  1  0  0  0  0
 12 13  1  0  0  0  0
 13 17  1  0  0  0  0
 13 14  1  0  0  0  0
 14 15  1  0  0  0  0
 14 32  1  0  0  0  0
 14 33  1  0  0  0  0
 15 16  1  0  0  0  0
 15 34  1  0  0  0  0
 15 35  1  0  0  0  0
 16 17  1  0  0  0  0
 16 36  1  0  0  0  0
 16 37  1  0  0  0  0
 17 38  1  0  0  0  0
 17 39  1  0  0  0  0
 18 22  1  0  0  0  0
 18 19  1  0  0  0  0
 18 40  1  0  0  0  0
 19 20  1  0  0  0  0
 19 41  1  0  0  0  0
 19 42  1  0  0  0  0
 20 21  1  0  0  0  0
 20 43  1  0  0  0  0
 20 44  1  0  0  0  0
 21 22  1  0  0  0  0
 21 45  1  0  0  0  0
 21 46  1  0  0  0  0
M  CHG  1  11   1
M  END
> <s_m_source_file>
AV-unprocessed.smi

> <i_m_source_file_index>
1793

> <i_lp_mmshare_version>
43012

> <i_f3d_flags>
0

> <s_epik_input>
TzFbQ0gyXVtDSDJdW0NIMl1bQ0BIXTFbQ0BIXShbQ0gzXSlbTkhdQyg9TylbTkhdYzJbY0hdW2NIXVtjSF1uYzJOM1tDSDJdW0NIMl1bQ0gyXVtDSDJdMw==

> <s_epik_cmdline>
J2VwaWtfcHl0aG9uJywgJy1waCcsICc3LjAnLCAnLXRuJywgJzgnLCAnLW1hJywgJzIwMCcsICctbWV0YWxfYmluZGluZycsICctaW1hZScsICc8aW5maWxlLm1hZT4nLCAnLW9tYWUnLCAnPG91dGZpbGUubWFlPic=

> <r_lp_tautomer_probability>
0.999994

> <r_epik_Ionization_Penalty>
1.11092

> <r_epik_Ionization_Penalty_Charging>
1.1109

> <r_epik_Ionization_Penalty_Neutral>
1.9363e-05

> <r_epik_State_Penalty>
1.16888

> <r_epik_Charging_Adjusted_Penalty>
2.27978

> <i_epik_Tot_Q>
1

> <i_epik_Tot_abs_Q>
1

> <r_epik_Metal_State_Penalty>
1.25472

> <b_epik_Metal_Only>
0

> <s_lp_Force_Field>
OPLS_2005

> <r_lp_Energy>
51.9838

> <b_lp_Chiralities_Consistent>
1

> <s_lp_Variant>
AV-unprocessed.smi:1793-6

> <Gold.Version>
5.8.1

> <Gold.Id.Protein>
6NUR|6NUR_protein|mol2

> <Gold.PLP.Fitness>
40.3348

> <Gold.PLP.PLP>
-35.5753

> <Gold.PLP.part.hbond>
-2.0000

> <Gold.PLP.part.metal>
0.0000

> <Gold.PLP.part.buried>
-0.4967

> <Gold.PLP.part.nonpolar>
-36.1203

> <Gold.PLP.part.repulsive>
3.2921

> <Gold.PLP.ligand.clash>
0.0000

> <Gold.PLP.ligand.torsion>
0.8393

> <Gold.PLP.Chemscore.Hbond>
2.0000

> <Gold.PLP.Chemscore.CHOScore>
0.0000

> <Gold.PLP.Chemscore.Metal>
0.0000

> <Gold.Chemscore.Hbonds>
donor molecule, donor type, donor heavy atom, donor atom, acceptor molecule, acceptor atom, score
      L1  H     3    27       P1  7948  1.00
      L1  H     6    28       P1  7948  1.00

> <Gold.PLP.Chemscore.Internal.Correction>
0.4380

> <Gold.Rescore>
     Score         DG    S(hbond)    S(metal)    S(lipo)     H(rot)  DE(clash)    DE(int)     intcor
     15.87     -18.82       1.95        0.00      88.61       1.38       0.94       2.01       ----

> <Gold.Chemscore.Fitness>
15.8712

> <Gold.Chemscore.DG>
-18.8246

> <Gold.Chemscore.ZeroCoef>
-5.4800

> <Gold.Chemscore.Hbond>
1.9491

> <Gold.Chemscore.Metal>
0.0000

> <Gold.Chemscore.Lipo>
88.6141

> <Gold.Chemscore.Internal_Hbond>
0.0000

> <Gold.Chemscore.DEClash>
0.9432

> <Gold.Chemscore.DEInternal>
2.0102

> <Gold.Chemscore.Rot>
1.3802

> <Gold.Chemscore.Internal.Correction>
   9.000000E+99

> <Gold.Chemscore.Hbonds>
donor molecule, donor type, donor heavy atom, donor atom, acceptor molecule, acceptor atom, score
      L1  H     3    27       P1  7948  0.95
      L1  H     6    28       P1  7948  0.93

> <Gold.Chemscore.Hbond.Weighted>
-6.5099

> <Gold.Chemscore.Metal.Weighted>
-0.0000

> <Gold.Chemscore.Lipo.Weighted>
-10.3678

> <Gold.Chemscore.Internal_Hbond.Weighted>
0.0000

> <Gold.Chemscore.DEClash.Weighted>
0.9432

> <Gold.Chemscore.DEInternal.Weighted>
2.0102

> <Gold.Chemscore.Rot.Weighted>
3.5332

> <Gold.Chemscore.Internal.Correction.Weighted>
   9.000000E+99

> <Gold.Protein.RotatedTorsions>
[ 6907 6896 6895 6894 ] final -120.72 input  -60.11 | X-H torsion
[ 7974 7965 7964 7962 ] final -164.36 input  175.53 | X-H torsion
[ 8008 7997 7996 7995 ] final  -50.07 input   59.86 | X-H torsion
[ 10167 10162 10161 10158 ] final   47.23 input  -65.29 | X-H torsion
[ 10718 10713 10712 10709 ] final  -84.49 input   66.30 | X-H torsion
[ 10763 10752 10751 10750 ] final   28.85 input  -60.55 | X-H torsion
[ 11005 11000 10999 10996 ] final  116.98 input  -57.11 | X-H torsion

> <Gold.Protein.ActiveResidues>
 VAL166  LYS551  ARG553  GLY616  TRP617  ASP618  TYR619  PRO620  LYS621  CYS622 
 ASP623  PHE694  ASN695  SER759  ASP760  ASP761  ALA762  ILE779  LEU786  VAL792 
 PHE793  MET794  SER795  GLU796  ALA797  LYS798  CYS799  TRP800  GLU811  SER814 

> <Gold.Protein.RotatedAtoms>
  150.8418  133.7923  159.3057 H   0  0  0  0  0  0  0  0  0  0  0  0  # atno 6907 bound_to 6896
  151.5622  135.1063  159.9985 H   0  0  0  0  0  0  0  0  0  0  0  0  # atno 6908 bound_to 6896
  152.4481  133.7532  159.6762 H   0  0  0  0  0  0  0  0  0  0  0  0  # atno 6909 bound_to 6896
  144.7299  140.2972  143.6210 H   0  0  0  0  0  0  0  0  0  0  0  0  # atno 7974 bound_to 7965
  154.4055  140.1281  156.4605 H   0  0  0  0  0  0  0  0  0  0  0  0  # atno 8008 bound_to 7997
  155.7277  140.3492  155.5025 H   0  0  0  0  0  0  0  0  0  0  0  0  # atno 8009 bound_to 7997
  155.9156  140.1043  157.1236 H   0  0  0  0  0  0  0  0  0  0  0  0  # atno 8010 bound_to 7997
  140.3058  144.2880  150.6209 H   0  0  0  0  0  0  0  0  0  0  0  0  # atno 10167 bound_to 10162
  156.0006  130.4700  150.4418 H   0  0  0  0  0  0  0  0  0  0  0  0  # atno 10718 bound_to 10713
  153.0466  135.6503  154.0800 H   0  0  0  0  0  0  0  0  0  0  0  0  # atno 10763 bound_to 10752
  154.0497  135.2896  155.3344 H   0  0  0  0  0  0  0  0  0  0  0  0  # atno 10764 bound_to 10752
  154.6728  135.5350  153.8226 H   0  0  0  0  0  0  0  0  0  0  0  0  # atno 10765 bound_to 10752
  139.9059  134.9605  156.7281 H   0  0  0  0  0  0  0  0  0  0  0  0  # atno 11005 bound_to 11000
  145.7797  139.1887  143.2165 LP  0  0  0  0  0  0  0  0  0  0  0  0  # atno 17320 bound_to 7965
  146.0844  140.7727  142.9626 LP  0  0  0  0  0  0  0  0  0  0  0  0  # atno 17321 bound_to 7965
  140.5612  143.2192  151.7762 LP  0  0  0  0  0  0  0  0  0  0  0  0  # atno 17342 bound_to 10162
  139.4905  144.4346  151.9833 LP  0  0  0  0  0  0  0  0  0  0  0  0  # atno 17343 bound_to 10162
  157.2459  131.0535  151.2409 LP  0  0  0  0  0  0  0  0  0  0  0  0  # atno 17370 bound_to 10713
  157.3576  130.7114  149.6480 LP  0  0  0  0  0  0  0  0  0  0  0  0  # atno 17371 bound_to 10713
  140.6947  133.9359  155.7987 LP  0  0  0  0  0  0  0  0  0  0  0  0  # atno 17394 bound_to 11000
  141.0416  134.0613  157.3895 LP  0  0  0  0  0  0  0  0  0  0  0  0  # atno 17395 bound_to 11000

$$$$
