AV-unprocessed.smi:2346|AV-procd|sdf|9366|dock3
  -GOLD-   2272012593D 1   1.00000     0.00000
 Structure written by MMmdl.
 44 46  0  0  0  0  0  0  0  0  1 V2000
  157.2912  138.2876  163.3966 C   0  0  0  0  0  0  0  0  0  0  0  0
  156.4140  138.8561  162.4364 O   0  0  0  0  0  0  0  0  0  0  0  0
  155.7707  140.0359  162.7507 C   0  0  0  0  0  0  0  0  0  0  0  0
  155.9631  140.7378  163.9677 C   0  0  0  0  0  0  0  0  0  0  0  0
  155.2678  141.9372  164.2188 C   0  0  0  0  0  0  0  0  0  0  0  0
  155.4713  142.6497  165.4691 C   0  0  0  0  0  0  0  0  0  0  0  0
  155.6334  143.2171  166.4642 N   0  0  0  0  0  0  0  0  0  0  0  0
  154.3752  142.4445  163.2562 C   0  0  0  0  0  0  0  0  0  0  0  0
  154.1768  141.7543  162.0467 C   0  0  0  0  0  0  0  0  0  0  0  0
  154.8714  140.5469  161.7874 C   0  0  0  0  0  0  0  0  0  0  0  0
  154.7299  139.8184  160.6270 O   0  0  0  0  0  0  0  0  0  0  0  0
  154.3346  140.4879  159.4381 C   0  0  0  0  0  0  0  0  0  0  0  0
  152.8560  140.1722  159.1691 C   0  0  0  0  0  0  0  0  0  0  0  0
  152.1953  141.2455  158.4383 N   0  0  0  0  0  0  0  0  0  0  0  0
  151.5404  141.1812  157.2505 C   0  0  0  0  0  0  0  0  0  0  0  0
  151.3860  139.8963  156.4844 C   0  0  1  0  0  0  0  0  0  0  0  0
  150.6241  140.1026  155.1686 C   0  0  0  0  0  0  0  0  0  0  0  0
  152.6317  139.2975  156.1883 O   0  0  0  0  0  0  0  0  0  0  0  0
  151.0127  142.3301  156.8203 N   0  0  0  0  0  0  0  0  0  0  0  0
  151.3849  143.2259  157.8027 C   0  0  0  0  0  0  0  0  0  0  0  0
  151.1451  144.6138  157.9190 C   0  0  0  0  0  0  0  0  0  0  0  0
  151.6392  145.3332  159.0267 C   0  0  0  0  0  0  0  0  0  0  0  0
  152.3758  144.6762  160.0335 C   0  0  0  0  0  0  0  0  0  0  0  0
  152.6204  143.2930  159.9397 C   0  0  0  0  0  0  0  0  0  0  0  0
  152.1274  142.5796  158.8303 C   0  0  0  0  0  0  0  0  0  0  0  0
  157.7037  137.3602  162.9992 H   0  0  0  0  0  0  0  0  0  0  0  0
  156.7669  138.0450  164.3219 H   0  0  0  0  0  0  0  0  0  0  0  0
  158.1269  138.9531  163.6166 H   0  0  0  0  0  0  0  0  0  0  0  0
  156.6419  140.3694  164.7228 H   0  0  0  0  0  0  0  0  0  0  0  0
  153.8382  143.3646  163.4383 H   0  0  0  0  0  0  0  0  0  0  0  0
  153.4877  142.1737  161.3297 H   0  0  0  0  0  0  0  0  0  0  0  0
  154.4673  141.5655  159.5469 H   0  0  0  0  0  0  0  0  0  0  0  0
  154.9421  140.1542  158.5961 H   0  0  0  0  0  0  0  0  0  0  0  0
  152.7519  139.2362  158.6208 H   0  0  0  0  0  0  0  0  0  0  0  0
  152.3316  140.0266  160.1141 H   0  0  0  0  0  0  0  0  0  0  0  0
  150.8484  139.1736  157.0968 H   0  0  0  0  0  0  0  0  0  0  0  0
  149.6314  140.5144  155.3527 H   0  0  0  0  0  0  0  0  0  0  0  0
  150.4955  139.1601  154.6355 H   0  0  0  0  0  0  0  0  0  0  0  0
  151.1513  140.7916  154.5078 H   0  0  0  0  0  0  0  0  0  0  0  0
  152.5548  138.3667  156.3341 H   0  0  0  0  0  0  0  0  0  0  0  0
  150.5833  145.1262  157.1522 H   0  0  0  0  0  0  0  0  0  0  0  0
  151.4532  146.3944  159.1039 H   0  0  0  0  0  0  0  0  0  0  0  0
  152.7534  145.2344  160.8775 H   0  0  0  0  0  0  0  0  0  0  0  0
  153.1880  142.7879  160.7070 H   0  0  0  0  0  0  0  0  0  0  0  0
  1  2  1  0  0  0  0
  1 26  1  0  0  0  0
  1 27  1  0  0  0  0
  1 28  1  0  0  0  0
  2  3  1  0  0  0  0
  3 10  1  0  0  0  0
  3  4  2  0  0  0  0
  4  5  1  0  0  0  0
  4 29  1  0  0  0  0
  5  6  1  0  0  0  0
  5  8  2  0  0  0  0
  6  7  3  0  0  0  0
  8  9  1  0  0  0  0
  8 30  1  0  0  0  0
  9 10  2  0  0  0  0
  9 31  1  0  0  0  0
 10 11  1  0  0  0  0
 11 12  1  0  0  0  0
 12 13  1  0  0  0  0
 12 32  1  0  0  0  0
 12 33  1  0  0  0  0
 13 14  1  0  0  0  0
 13 34  1  0  0  0  0
 13 35  1  0  0  0  0
 14 25  1  0  0  0  0
 14 15  1  0  0  0  0
 15 16  1  0  0  0  0
 15 19  2  0  0  0  0
 16 17  1  0  0  0  0
 16 18  1  0  0  0  0
 16 36  1  0  0  0  0
 17 37  1  0  0  0  0
 17 38  1  0  0  0  0
 17 39  1  0  0  0  0
 18 40  1  0  0  0  0
 19 20  1  0  0  0  0
 20 25  2  0  0  0  0
 20 21  1  0  0  0  0
 21 22  2  0  0  0  0
 21 41  1  0  0  0  0
 22 23  1  0  0  0  0
 22 42  1  0  0  0  0
 23 24  2  0  0  0  0
 23 43  1  0  0  0  0
 24 25  1  0  0  0  0
 24 44  1  0  0  0  0
M  END
> <s_m_source_file>
AV-unprocessed.smi

> <i_m_source_file_index>
2346

> <i_lp_mmshare_version>
43012

> <i_f3d_flags>
0

> <s_epik_input>
W0NIM11PYzFbY0hdYyhDI04pW2NIXVtjSF1jMU9bQ0gyXVtDSDJdbihjKG4yKVtDQEhdKFtDSDNdKVtPSF0pYyhjMjMpW2NIXVtjSF1bY0hdW2NIXTM=

> <s_epik_cmdline>
J2VwaWtfcHl0aG9uJywgJy1waCcsICc3LjAnLCAnLXRuJywgJzgnLCAnLW1hJywgJzIwMCcsICctbWV0YWxfYmluZGluZycsICctaW1hZScsICc8aW5maWxlLm1hZT4nLCAnLW9tYWUnLCAnPG91dGZpbGUubWFlPic=

> <r_epik_Ionization_Penalty>
0.0419826

> <r_epik_Ionization_Penalty_Charging>
0

> <r_epik_Ionization_Penalty_Neutral>
0.0419826

> <r_epik_State_Penalty>
0.0354317

> <r_epik_Charging_Adjusted_Penalty>
0.0354317

> <i_epik_Tot_Q>
0

> <i_epik_Tot_abs_Q>
0

> <r_epik_Metal_State_Penalty>
3.65115e-05

> <b_epik_Metal_Only>
0

> <s_lp_Force_Field>
OPLS_2005

> <r_lp_Energy>
17.2355

> <b_lp_Chiralities_Consistent>
1

> <s_lp_Variant>
AV-unprocessed.smi:2346-2

> <Gold.Version>
5.8.1

> <Gold.Id.Protein>
6NUR|6NUR_protein|mol2

> <Gold.PLP.Fitness>
54.6048

> <Gold.PLP.PLP>
-53.2539

> <Gold.PLP.part.hbond>
-1.0000

> <Gold.PLP.part.metal>
0.0000

> <Gold.PLP.part.buried>
-1.3625

> <Gold.PLP.part.nonpolar>
-49.7229

> <Gold.PLP.part.repulsive>
0.1159

> <Gold.PLP.ligand.clash>
0.0000

> <Gold.PLP.ligand.torsion>
0.8764

> <Gold.PLP.Chemscore.Hbond>
1.0000

> <Gold.PLP.Chemscore.CHOScore>
0.0000

> <Gold.PLP.Chemscore.Metal>
0.0000

> <Gold.Chemscore.Hbonds>
donor molecule, donor type, donor heavy atom, donor atom, acceptor molecule, acceptor atom, score
      P1  H  7997  8009       L1    18  1.00

> <Gold.PLP.Chemscore.Internal.Correction>
0.1036

> <Gold.Rescore>
     Score         DG    S(hbond)    S(metal)    S(lipo)     H(rot)  DE(clash)    DE(int)     intcor
     19.21     -20.25       0.99        0.00     154.16       2.57       0.18       0.86       ----

> <Gold.Chemscore.Fitness>
19.2132

> <Gold.Chemscore.DG>
-20.2487

> <Gold.Chemscore.ZeroCoef>
-5.4800

> <Gold.Chemscore.Hbond>
0.9900

> <Gold.Chemscore.Metal>
0.0000

> <Gold.Chemscore.Lipo>
154.1581

> <Gold.Chemscore.Internal_Hbond>
0.0000

> <Gold.Chemscore.DEClash>
0.1763

> <Gold.Chemscore.DEInternal>
0.8591

> <Gold.Chemscore.Rot>
2.5681

> <Gold.Chemscore.Internal.Correction>
   9.000000E+99

> <Gold.Chemscore.Hbonds>
donor molecule, donor type, donor heavy atom, donor atom, acceptor molecule, acceptor atom, score
      P1  H  7997  8009       L1    18  0.95

> <Gold.Chemscore.Hbond.Weighted>
-3.3065

> <Gold.Chemscore.Metal.Weighted>
-0.0000

> <Gold.Chemscore.Lipo.Weighted>
-18.0365

> <Gold.Chemscore.Internal_Hbond.Weighted>
0.0000

> <Gold.Chemscore.DEClash.Weighted>
0.1763

> <Gold.Chemscore.DEInternal.Weighted>
0.8591

> <Gold.Chemscore.Rot.Weighted>
6.5743

> <Gold.Chemscore.Internal.Correction.Weighted>
   9.000000E+99

> <Gold.Protein.RotatedTorsions>
[ 6907 6896 6895 6894 ] final  -82.51 input  -60.11 | X-H torsion
[ 7974 7965 7964 7962 ] final   47.21 input  175.53 | X-H torsion
[ 8008 7997 7996 7995 ] final -169.53 input   59.86 | X-H torsion
[ 10167 10162 10161 10158 ] final -139.25 input  -65.29 | X-H torsion
[ 10718 10713 10712 10709 ] final  -38.66 input   66.30 | X-H torsion
[ 10763 10752 10751 10750 ] final  -75.11 input  -60.55 | X-H torsion
[ 11005 11000 10999 10996 ] final -116.36 input  -57.11 | X-H torsion

> <Gold.Protein.ActiveResidues>
 VAL166  LYS551  ARG553  GLY616  TRP617  ASP618  TYR619  PRO620  LYS621  CYS622 
 ASP623  PHE694  ASN695  SER759  ASP760  ASP761  ALA762  ILE779  LEU786  VAL792 
 PHE793  MET794  SER795  GLU796  ALA797  LYS798  CYS799  TRP800  GLU811  SER814 

> <Gold.Protein.RotatedAtoms>
  150.6896  134.3654  159.4968 H   0  0  0  0  0  0  0  0  0  0  0  0  # atno 6907 bound_to 6896
  152.1477  134.9010  160.0559 H   0  0  0  0  0  0  0  0  0  0  0  0  # atno 6908 bound_to 6896
  152.0119  133.3830  159.4260 H   0  0  0  0  0  0  0  0  0  0  0  0  # atno 6909 bound_to 6896
  146.0319  139.4774  142.9832 H   0  0  0  0  0  0  0  0  0  0  0  0  # atno 7974 bound_to 7965
  155.9062  140.1049  157.1313 H   0  0  0  0  0  0  0  0  0  0  0  0  # atno 8008 bound_to 7997
  154.4033  140.1283  156.4564 H   0  0  0  0  0  0  0  0  0  0  0  0  # atno 8009 bound_to 7997
  155.7364  140.3467  155.5086 H   0  0  0  0  0  0  0  0  0  0  0  0  # atno 8010 bound_to 7997
  139.8398  143.7336  152.2663 H   0  0  0  0  0  0  0  0  0  0  0  0  # atno 10167 bound_to 10162
  156.3012  130.4240  149.8141 H   0  0  0  0  0  0  0  0  0  0  0  0  # atno 10718 bound_to 10713
  154.4822  135.5842  153.6398 H   0  0  0  0  0  0  0  0  0  0  0  0  # atno 10763 bound_to 10752
  152.9849  135.6092  154.3232 H   0  0  0  0  0  0  0  0  0  0  0  0  # atno 10764 bound_to 10752
  154.3124  135.2845  155.2539 H   0  0  0  0  0  0  0  0  0  0  0  0  # atno 10765 bound_to 10752
  141.0427  133.9810  157.2968 H   0  0  0  0  0  0  0  0  0  0  0  0  # atno 11005 bound_to 11000
  145.7027  141.0131  143.1496 LP  0  0  0  0  0  0  0  0  0  0  0  0  # atno 17320 bound_to 7965
  144.7034  139.8663  143.7437 LP  0  0  0  0  0  0  0  0  0  0  0  0  # atno 17321 bound_to 7965
  139.7570  144.7518  151.0421 LP  0  0  0  0  0  0  0  0  0  0  0  0  # atno 17342 bound_to 10162
  140.7799  143.4794  151.0038 LP  0  0  0  0  0  0  0  0  0  0  0  0  # atno 17343 bound_to 10162
  156.5519  130.8345  151.3302 LP  0  0  0  0  0  0  0  0  0  0  0  0  # atno 17370 bound_to 10713
  157.7368  130.9785  150.2158 LP  0  0  0  0  0  0  0  0  0  0  0  0  # atno 17371 bound_to 10713
  139.9288  135.0201  156.8329 LP  0  0  0  0  0  0  0  0  0  0  0  0  # atno 17394 bound_to 11000
  140.6204  133.9999  155.7616 LP  0  0  0  0  0  0  0  0  0  0  0  0  # atno 17395 bound_to 11000

$$$$
