AV-unprocessed.smi:1661|AV-procd|sdf|6655|dock9
  -GOLD-   22720 7363D 1   1.00000     0.00000
 Structure written by MMmdl.
 37 38  0  0  0  0  0  0  0  0  3 V2000
  145.0517  132.3971  149.9920 C   0  0  0  0  0  0  0  0  0  0  0  0
  145.0383  133.4428  151.1159 C   0  0  2  0  0  0  0  0  0  0  0  0
  145.0152  134.8763  150.5598 C   0  0  0  0  0  0  0  0  0  0  0  0
  145.0351  135.9159  151.6932 C   0  0  0  0  0  0  0  0  0  0  0  0
  146.2127  135.7253  152.5791 N   0  3  1  0  0  0  0  0  0  0  0  0
  146.3249  136.7970  153.6001 C   0  0  0  0  0  0  0  0  0  0  0  0
  146.4447  138.1936  152.9709 C   0  0  0  0  0  0  0  0  0  0  0  0
  147.8138  138.6788  153.0713 N   0  0  0  0  0  0  0  0  0  0  0  0
  148.5004  138.8121  154.2133 C   0  0  0  0  0  0  0  0  0  0  0  0
  147.9715  138.5095  155.2854 O   0  0  0  0  0  0  0  0  0  0  0  0
  149.7546  139.2860  154.0408 N   0  5  0  0  0  0  0  0  0  0  0  0
  150.6557  139.1767  155.0312 C   0  0  0  0  0  0  0  0  0  0  0  0
  151.8245  139.8377  155.0141 N   0  0  0  0  0  0  0  0  0  0  0  0
  152.6126  139.5823  156.1281 N   0  0  0  0  0  0  0  0  0  0  0  0
  152.0181  138.7248  156.9575 C   0  0  0  0  0  0  0  0  0  0  0  0
  150.4441  138.1483  156.4512 S   0  0  0  0  0  0  0  0  0  0  0  0
  146.2398  134.3561  153.1592 C   0  0  0  0  0  0  0  0  0  0  0  0
  146.2456  133.2850  152.0554 C   0  0  0  0  0  0  0  0  0  0  0  0
  145.9395  132.4964  149.3667 H   0  0  0  0  0  0  0  0  0  0  0  0
  144.1778  132.5019  149.3484 H   0  0  0  0  0  0  0  0  0  0  0  0
  145.0417  131.3849  150.3977 H   0  0  0  0  0  0  0  0  0  0  0  0
  144.1298  133.2896  151.7004 H   0  0  0  0  0  0  0  0  0  0  0  0
  145.8744  135.0347  149.9062 H   0  0  0  0  0  0  0  0  0  0  0  0
  144.1276  135.0237  149.9433 H   0  0  0  0  0  0  0  0  0  0  0  0
  145.0589  136.9153  151.2571 H   0  0  0  0  0  0  0  0  0  0  0  0
  144.1196  135.8489  152.2834 H   0  0  0  0  0  0  0  0  0  0  0  0
  145.4333  136.7883  154.2289 H   0  0  0  0  0  0  0  0  0  0  0  0
  147.1697  136.5933  154.2599 H   0  0  0  0  0  0  0  0  0  0  0  0
  146.1606  138.1768  151.9188 H   0  0  0  0  0  0  0  0  0  0  0  0
  145.7764  138.8920  153.4772 H   0  0  0  0  0  0  0  0  0  0  0  0
  148.2799  138.9379  152.2141 H   0  0  0  0  0  0  0  0  0  0  0  0
  152.5108  138.4272  157.8709 H   0  0  0  0  0  0  0  0  0  0  0  0
  147.1250  134.2223  153.7798 H   0  0  0  0  0  0  0  0  0  0  0  0
  145.3753  134.2181  153.8105 H   0  0  0  0  0  0  0  0  0  0  0  0
  146.2387  132.2929  152.5082 H   0  0  0  0  0  0  0  0  0  0  0  0
  147.1725  133.3570  151.4842 H   0  0  0  0  0  0  0  0  0  0  0  0
  147.0265  135.8121  151.9870 H   0  0  0  0  0  0  0  0  0  0  0  0
  1  2  1  0  0  0  0
  1 19  1  0  0  0  0
  1 20  1  0  0  0  0
  1 21  1  0  0  0  0
  2 18  1  0  0  0  0
  2  3  1  0  0  0  0
  2 22  1  0  0  0  0
  3  4  1  0  0  0  0
  3 23  1  0  0  0  0
  3 24  1  0  0  0  0
  4  5  1  0  0  0  0
  4 25  1  0  0  0  0
  4 26  1  0  0  0  0
  5  6  1  0  0  0  0
  5 17  1  0  0  0  0
  5 37  1  0  0  0  0
  6  7  1  0  0  0  0
  6 27  1  0  0  0  0
  6 28  1  0  0  0  0
  7  8  1  0  0  0  0
  7 29  1  0  0  0  0
  7 30  1  0  0  0  0
  8  9  1  0  0  0  0
  8 31  1  0  0  0  0
  9 10  2  0  0  0  0
  9 11  1  0  0  0  0
 11 12  1  0  0  0  0
 12 16  1  0  0  0  0
 12 13  2  0  0  0  0
 13 14  1  0  0  0  0
 14 15  2  0  0  0  0
 15 16  1  0  0  0  0
 15 32  1  0  0  0  0
 17 18  1  0  0  0  0
 17 33  1  0  0  0  0
 17 34  1  0  0  0  0
 18 35  1  0  0  0  0
 18 36  1  0  0  0  0
M  CHG  1   5   1
M  CHG  1  11  -1
M  END
> <s_m_source_file>
AV-unprocessed.smi

> <i_m_source_file_index>
1661

> <i_lp_mmshare_version>
43012

> <i_f3d_flags>
0

> <s_epik_input>
W0NIM11bQ0hdMVtDSDJdW0NIMl1OKFtDSDJdW0NIMl0xKVtDSDJdW0NIMl1bTkhdQyg9TylbTkhdYzJubltjSF1zMg==

> <s_epik_cmdline>
J2VwaWtfcHl0aG9uJywgJy1waCcsICc3LjAnLCAnLXRuJywgJzgnLCAnLW1hJywgJzIwMCcsICctbWV0YWxfYmluZGluZycsICctaW1hZScsICc8aW5maWxlLm1hZT4nLCAnLW9tYWUnLCAnPG91dGZpbGUubWFlPic=

> <r_lp_tautomer_probability>
1

> <r_epik_Ionization_Penalty>
3.04466

> <r_epik_Ionization_Penalty_Charging>
3.01305

> <r_epik_Ionization_Penalty_Neutral>
0.0316037

> <r_epik_State_Penalty>
3.00821

> <r_epik_Charging_Adjusted_Penalty>
6.02127

> <i_epik_Tot_Q>
0

> <i_epik_Tot_abs_Q>
2

> <r_epik_Metal_State_Penalty>
0.454395

> <b_epik_Metal_Only>
1

> <s_lp_Force_Field>
OPLS_2005

> <r_lp_Energy>
9.82396

> <b_lp_Chiralities_Consistent>
1

> <s_lp_Variant>
AV-unprocessed.smi:1661-3

> <Gold.Version>
5.8.1

> <Gold.Id.Protein>
6NUR|6NUR_protein|mol2

> <Gold.PLP.Fitness>
40.7193

> <Gold.PLP.PLP>
-26.6430

> <Gold.PLP.part.hbond>
-5.0000

> <Gold.PLP.part.metal>
0.0000

> <Gold.PLP.part.buried>
-5.2447

> <Gold.PLP.part.nonpolar>
-18.7443

> <Gold.PLP.part.repulsive>
1.7112

> <Gold.PLP.ligand.clash>
0.0000

> <Gold.PLP.ligand.torsion>
0.4278

> <Gold.PLP.Chemscore.Hbond>
4.9600

> <Gold.PLP.Chemscore.CHOScore>
0.0000

> <Gold.PLP.Chemscore.Metal>
0.0000

> <Gold.Chemscore.Hbonds>
donor molecule, donor type, donor heavy atom, donor atom, acceptor molecule, acceptor atom, score
      L1  H     5    37       P1  7948  1.95
      L1  H     8    31       P1  7957  1.00
      P1  H  7989  7998       L1    13  0.98
      P1  H  7997  8010       L1    14  1.00

> <Gold.PLP.Chemscore.Internal.Correction>
0.0520

> <Gold.Rescore>
     Score         DG    S(hbond)    S(metal)    S(lipo)     H(rot)  DE(clash)    DE(int)     intcor
     14.40     -18.65       3.36        0.00      53.49       1.68       1.14       3.11       ----

> <Gold.Chemscore.Fitness>
14.4022

> <Gold.Chemscore.DG>
-18.6514

> <Gold.Chemscore.ZeroCoef>
-5.4800

> <Gold.Chemscore.Hbond>
3.3557

> <Gold.Chemscore.Metal>
0.0000

> <Gold.Chemscore.Lipo>
53.4905

> <Gold.Chemscore.Internal_Hbond>
0.0000

> <Gold.Chemscore.DEClash>
1.1359

> <Gold.Chemscore.DEInternal>
3.1134

> <Gold.Chemscore.Rot>
1.6777

> <Gold.Chemscore.Internal.Correction>
   9.000000E+99

> <Gold.Chemscore.Hbonds>
donor molecule, donor type, donor heavy atom, donor atom, acceptor molecule, acceptor atom, score
      L1  H     5    37       P1  7948  0.92
      L1  H     8    31       P1  7957  0.93
      P1  H  7989  7998       L1    13  0.32
      P1  H  7997  8010       L1    14  0.98

> <Gold.Chemscore.Hbond.Weighted>
-11.2080

> <Gold.Chemscore.Metal.Weighted>
-0.0000

> <Gold.Chemscore.Lipo.Weighted>
-6.2584

> <Gold.Chemscore.Internal_Hbond.Weighted>
0.0000

> <Gold.Chemscore.DEClash.Weighted>
1.1359

> <Gold.Chemscore.DEInternal.Weighted>
3.1134

> <Gold.Chemscore.Rot.Weighted>
4.2950

> <Gold.Chemscore.Internal.Correction.Weighted>
   9.000000E+99

> <Gold.Protein.RotatedTorsions>
[ 6907 6896 6895 6894 ] final  -85.37 input  -60.11 | X-H torsion
[ 7974 7965 7964 7962 ] final -162.04 input  175.53 | X-H torsion
[ 8008 7997 7996 7995 ] final   87.36 input   59.86 | X-H torsion
[ 10167 10162 10161 10158 ] final   92.27 input  -65.29 | X-H torsion
[ 10718 10713 10712 10709 ] final   78.72 input   66.30 | X-H torsion
[ 10763 10752 10751 10750 ] final  167.98 input  -60.55 | X-H torsion
[ 11005 11000 10999 10996 ] final   66.14 input  -57.11 | X-H torsion

> <Gold.Protein.ActiveResidues>
 VAL166  LYS551  ARG553  GLY616  TRP617  ASP618  TYR619  PRO620  LYS621  CYS622 
 ASP623  PHE694  ASN695  SER759  ASP760  ASP761  ALA762  ILE779  LEU786  VAL792 
 PHE793  MET794  SER795  GLU796  ALA797  LYS798  CYS799  TRP800  GLU811  SER814 

> <Gold.Protein.RotatedAtoms>
  150.6871  134.3215  159.4788 H   0  0  0  0  0  0  0  0  0  0  0  0  # atno 6907 bound_to 6896
  152.1090  134.9285  160.0576 H   0  0  0  0  0  0  0  0  0  0  0  0  # atno 6908 bound_to 6896
  152.0535  133.3995  159.4424 H   0  0  0  0  0  0  0  0  0  0  0  0  # atno 6909 bound_to 6896
  144.7370  140.3310  143.6153 H   0  0  0  0  0  0  0  0  0  0  0  0  # atno 7974 bound_to 7965
  155.9744  140.3383  155.6605 H   0  0  0  0  0  0  0  0  0  0  0  0  # atno 8008 bound_to 7997
  155.6632  140.0718  157.2565 H   0  0  0  0  0  0  0  0  0  0  0  0  # atno 8009 bound_to 7997
  154.4175  140.1705  156.1786 H   0  0  0  0  0  0  0  0  0  0  0  0  # atno 8010 bound_to 7997
  139.8293  144.6695  150.9420 H   0  0  0  0  0  0  0  0  0  0  0  0  # atno 10167 bound_to 10162
  157.6754  130.9881  150.1828 H   0  0  0  0  0  0  0  0  0  0  0  0  # atno 10718 bound_to 10713
  154.3619  135.2753  155.2315 H   0  0  0  0  0  0  0  0  0  0  0  0  # atno 10763 bound_to 10752
  154.4500  135.5933  153.6188 H   0  0  0  0  0  0  0  0  0  0  0  0  # atno 10764 bound_to 10752
  152.9843  135.6039  154.3840 H   0  0  0  0  0  0  0  0  0  0  0  0  # atno 10765 bound_to 10752
  139.9850  134.6682  156.0193 H   0  0  0  0  0  0  0  0  0  0  0  0  # atno 11005 bound_to 11000
  145.7472  139.1782  143.2342 LP  0  0  0  0  0  0  0  0  0  0  0  0  # atno 17320 bound_to 7965
  146.1089  140.7453  142.9513 LP  0  0  0  0  0  0  0  0  0  0  0  0  # atno 17321 bound_to 7965
  140.7808  143.4016  151.1139 LP  0  0  0  0  0  0  0  0  0  0  0  0  # atno 17342 bound_to 10162
  139.7671  143.8549  152.3113 LP  0  0  0  0  0  0  0  0  0  0  0  0  # atno 17343 bound_to 10162
  156.2557  130.3705  149.8185 LP  0  0  0  0  0  0  0  0  0  0  0  0  # atno 17370 bound_to 10713
  156.5944  130.8520  151.3416 LP  0  0  0  0  0  0  0  0  0  0  0  0  # atno 17371 bound_to 10713
  141.1516  133.6548  156.4032 LP  0  0  0  0  0  0  0  0  0  0  0  0  # atno 17394 bound_to 11000
  140.5020  134.6476  157.5252 LP  0  0  0  0  0  0  0  0  0  0  0  0  # atno 17395 bound_to 11000

$$$$
