AV-unprocessed.smi:2158|AV-procd|sdf|8787|dock3
  -GOLD-   2272011563D 1   1.00000     0.00000
 Structure written by MMmdl.
 31 31  0  0  0  0  0  0  0  0  1 V2000
  152.7503  144.7093  158.0619 C   0  0  0  0  0  0  0  0  0  0  0  0
  151.6100  144.1792  158.9434 C   0  0  0  0  0  0  0  0  0  0  0  0
  151.6880  142.6651  159.2156 C   0  0  2  0  0  0  0  0  0  0  0  0
  152.8482  142.3221  160.1638 C   0  0  0  0  0  0  0  0  0  0  0  0
  151.8371  141.9408  157.9572 N   0  0  0  0  0  0  0  0  0  0  0  0
  150.8385  141.4481  157.2047 C   0  0  0  0  0  0  0  0  0  0  0  0
  149.6533  141.5514  157.5190 O   0  0  0  0  0  0  0  0  0  0  0  0
  151.2058  140.7319  155.8933 C   0  0  0  0  0  0  0  0  0  0  0  0
  150.0532  140.2727  155.0998 N   0  0  0  0  0  0  0  0  0  0  0  0
  148.9849  141.1268  154.8650 C   0  0  0  0  0  0  0  0  0  0  0  0
  147.9008  140.7809  154.1312 C   0  0  0  0  0  0  0  0  0  0  0  0
  147.8051  139.4526  153.5358 C   0  0  0  0  0  0  0  0  0  0  0  0
  146.8662  139.0464  152.8551 O   0  0  0  0  0  0  0  0  0  0  0  0
  148.8993  138.6226  153.7942 N   0  0  0  0  0  0  0  0  0  0  0  0
  150.0198  138.9728  154.5487 C   0  0  0  0  0  0  0  0  0  0  0  0
  150.9358  138.1668  154.7062 O   0  0  0  0  0  0  0  0  0  0  0  0
  148.8785  137.6930  153.4005 H   0  0  0  0  0  0  0  0  0  0  0  0
  152.6217  145.7736  157.8636 H   0  0  0  0  0  0  0  0  0  0  0  0
  152.7767  144.1940  157.1015 H   0  0  0  0  0  0  0  0  0  0  0  0
  153.7219  144.5800  158.5395 H   0  0  0  0  0  0  0  0  0  0  0  0
  151.6048  144.7244  159.8880 H   0  0  0  0  0  0  0  0  0  0  0  0
  150.6604  144.4068  158.4579 H   0  0  0  0  0  0  0  0  0  0  0  0
  150.7538  142.3609  159.6914 H   0  0  0  0  0  0  0  0  0  0  0  0
  152.7471  142.8490  161.1127 H   0  0  0  0  0  0  0  0  0  0  0  0
  153.8097  142.5991  159.7300 H   0  0  0  0  0  0  0  0  0  0  0  0
  152.8782  141.2546  160.3851 H   0  0  0  0  0  0  0  0  0  0  0  0
  152.7811  141.8055  157.6251 H   0  0  0  0  0  0  0  0  0  0  0  0
  151.8388  141.3947  155.3006 H   0  0  0  0  0  0  0  0  0  0  0  0
  151.8435  139.8821  156.1414 H   0  0  0  0  0  0  0  0  0  0  0  0
  149.0152  142.1230  155.2830 H   0  0  0  0  0  0  0  0  0  0  0  0
  147.1005  141.4914  153.9825 H   0  0  0  0  0  0  0  0  0  0  0  0
  1  2  1  0  0  0  0
  1 18  1  0  0  0  0
  1 19  1  0  0  0  0
  1 20  1  0  0  0  0
  2  3  1  0  0  0  0
  2 21  1  0  0  0  0
  2 22  1  0  0  0  0
  3  4  1  0  0  0  0
  3  5  1  0  0  0  0
  3 23  1  0  0  0  0
  4 24  1  0  0  0  0
  4 25  1  0  0  0  0
  4 26  1  0  0  0  0
  5  6  1  0  0  0  0
  5 27  1  0  0  0  0
  6  7  2  0  0  0  0
  6  8  1  0  0  0  0
  8  9  1  0  0  0  0
  8 28  1  0  0  0  0
  8 29  1  0  0  0  0
  9 15  1  0  0  0  0
  9 10  1  0  0  0  0
 10 11  2  0  0  0  0
 10 30  1  0  0  0  0
 11 12  1  0  0  0  0
 11 31  1  0  0  0  0
 12 13  2  0  0  0  0
 12 14  1  0  0  0  0
 14 17  1  0  0  0  0
 14 15  1  0  0  0  0
 15 16  2  0  0  0  0
M  END
> <s_m_source_file>
AV-unprocessed.smi

> <i_m_source_file_index>
2158

> <i_lp_mmshare_version>
43012

> <i_f3d_flags>
0

> <s_epik_input>
W0NIM11bQ0gyXVtDQEhdKFtDSDNdKVtOSF1DKD1PKVtDSDJdbjFbY0hdW2NIXWMoPU8pW25IXWMxPU8=

> <s_epik_cmdline>
J2VwaWtfcHl0aG9uJywgJy1waCcsICc3LjAnLCAnLXRuJywgJzgnLCAnLW1hJywgJzIwMCcsICctbWV0YWxfYmluZGluZycsICctaW1hZScsICc8aW5maWxlLm1hZT4nLCAnLW9tYWUnLCAnPG91dGZpbGUubWFlPic=

> <r_lp_tautomer_probability>
0.999537

> <r_epik_Ionization_Penalty>
0.00326083

> <r_epik_Ionization_Penalty_Charging>
0.00326081

> <r_epik_Ionization_Penalty_Neutral>
1.93017e-08

> <r_epik_State_Penalty>
0.00230249

> <r_epik_Charging_Adjusted_Penalty>
0.0055633

> <i_epik_Tot_Q>
0

> <i_epik_Tot_abs_Q>
0

> <r_epik_Metal_State_Penalty>
0.364899

> <b_epik_Metal_Only>
0

> <s_lp_Force_Field>
OPLS_2005

> <r_lp_Energy>
3.24702

> <b_lp_Chiralities_Consistent>
1

> <s_lp_Variant>
AV-unprocessed.smi:2158-1

> <Gold.Version>
5.8.1

> <Gold.Id.Protein>
6NUR|6NUR_protein|mol2

> <Gold.PLP.Fitness>
39.4619

> <Gold.PLP.PLP>
-34.9045

> <Gold.PLP.part.hbond>
-1.8982

> <Gold.PLP.part.metal>
0.0000

> <Gold.PLP.part.buried>
-0.5891

> <Gold.PLP.part.nonpolar>
-32.2406

> <Gold.PLP.part.repulsive>
0.9258

> <Gold.PLP.ligand.clash>
0.0000

> <Gold.PLP.ligand.torsion>
0.5727

> <Gold.PLP.Chemscore.Hbond>
0.8938

> <Gold.PLP.Chemscore.CHOScore>
0.9998

> <Gold.PLP.Chemscore.Metal>
0.0000

> <Gold.Chemscore.Hbonds>
donor molecule, donor type, donor heavy atom, donor atom, acceptor molecule, acceptor atom, score
      L1  H    14    17       P1  7948  0.81
      L1  C    10    30       P1  8028  0.78

> <Gold.PLP.Chemscore.Internal.Correction>
0.0222

> <Gold.Rescore>
     Score         DG    S(hbond)    S(metal)    S(lipo)     H(rot)  DE(clash)    DE(int)     intcor
      9.67     -11.64       0.95        0.00      69.05       1.99       0.12       1.85       ----

> <Gold.Chemscore.Fitness>
9.6712

> <Gold.Chemscore.DG>
-11.6441

> <Gold.Chemscore.ZeroCoef>
-5.4800

> <Gold.Chemscore.Hbond>
0.9524

> <Gold.Chemscore.Metal>
0.0000

> <Gold.Chemscore.Lipo>
69.0463

> <Gold.Chemscore.Internal_Hbond>
0.0000

> <Gold.Chemscore.DEClash>
0.1192

> <Gold.Chemscore.DEInternal>
1.8537

> <Gold.Chemscore.Rot>
1.9904

> <Gold.Chemscore.Internal.Correction>
   9.000000E+99

> <Gold.Chemscore.Hbonds>
donor molecule, donor type, donor heavy atom, donor atom, acceptor molecule, acceptor atom, score
      L1  H    14    17       P1  7948  0.79

> <Gold.Chemscore.Hbond.Weighted>
-3.1812

> <Gold.Chemscore.Metal.Weighted>
-0.0000

> <Gold.Chemscore.Lipo.Weighted>
-8.0784

> <Gold.Chemscore.Internal_Hbond.Weighted>
0.0000

> <Gold.Chemscore.DEClash.Weighted>
0.1192

> <Gold.Chemscore.DEInternal.Weighted>
1.8537

> <Gold.Chemscore.Rot.Weighted>
5.0955

> <Gold.Chemscore.Internal.Correction.Weighted>
   9.000000E+99

> <Gold.Protein.RotatedTorsions>
[ 6907 6896 6895 6894 ] final   95.15 input  -60.11 | X-H torsion
[ 7974 7965 7964 7962 ] final  -12.37 input  175.53 | X-H torsion
[ 8008 7997 7996 7995 ] final -103.51 input   59.86 | X-H torsion
[ 10167 10162 10161 10158 ] final   74.10 input  -65.29 | X-H torsion
[ 10718 10713 10712 10709 ] final   48.36 input   66.30 | X-H torsion
[ 10763 10752 10751 10750 ] final  126.40 input  -60.55 | X-H torsion
[ 11005 11000 10999 10996 ] final   73.52 input  -57.11 | X-H torsion

> <Gold.Protein.ActiveResidues>
 VAL166  LYS551  ARG553  GLY616  TRP617  ASP618  TYR619  PRO620  LYS621  CYS622 
 ASP623  PHE694  ASN695  SER759  ASP760  ASP761  ALA762  ILE779  LEU786  VAL792 
 PHE793  MET794  SER795  GLU796  ALA797  LYS798  CYS799  TRP800  GLU811  SER814 

> <Gold.Protein.RotatedAtoms>
  152.5445  134.1085  159.8347 H   0  0  0  0  0  0  0  0  0  0  0  0  # atno 6907 bound_to 6896
  151.1154  133.5135  159.2611 H   0  0  0  0  0  0  0  0  0  0  0  0  # atno 6908 bound_to 6896
  151.1838  135.0382  159.8858 H   0  0  0  0  0  0  0  0  0  0  0  0  # atno 6909 bound_to 6896
  146.2154  140.3048  142.8378 H   0  0  0  0  0  0  0  0  0  0  0  0  # atno 7974 bound_to 7965
  154.8719  140.0422  157.1730 H   0  0  0  0  0  0  0  0  0  0  0  0  # atno 8008 bound_to 7997
  154.8730  140.2961  155.5449 H   0  0  0  0  0  0  0  0  0  0  0  0  # atno 8009 bound_to 7997
  156.2999  140.2425  156.3721 H   0  0  0  0  0  0  0  0  0  0  0  0  # atno 8010 bound_to 7997
  140.0173  144.5567  150.7610 H   0  0  0  0  0  0  0  0  0  0  0  0  # atno 10167 bound_to 10162
  157.4679  130.8237  149.7956 H   0  0  0  0  0  0  0  0  0  0  0  0  # atno 10718 bound_to 10713
  153.6926  135.3296  155.3206 H   0  0  0  0  0  0  0  0  0  0  0  0  # atno 10763 bound_to 10752
  154.8435  135.4435  154.1492 H   0  0  0  0  0  0  0  0  0  0  0  0  # atno 10764 bound_to 10752
  153.2538  135.6984  153.7728 H   0  0  0  0  0  0  0  0  0  0  0  0  # atno 10765 bound_to 10752
  139.9436  134.7353  156.1036 H   0  0  0  0  0  0  0  0  0  0  0  0  # atno 11005 bound_to 11000
  144.9031  140.7667  143.5854 LP  0  0  0  0  0  0  0  0  0  0  0  0  # atno 17320 bound_to 7965
  145.2975  139.1862  143.4707 LP  0  0  0  0  0  0  0  0  0  0  0  0  # atno 17321 bound_to 7965
  140.7357  143.2744  151.3788 LP  0  0  0  0  0  0  0  0  0  0  0  0  # atno 17342 bound_to 10162
  139.6163  144.0995  152.2349 LP  0  0  0  0  0  0  0  0  0  0  0  0  # atno 17343 bound_to 10162
  156.0059  130.3856  150.2433 LP  0  0  0  0  0  0  0  0  0  0  0  0  # atno 17370 bound_to 10713
  157.0614  131.0091  151.3221 LP  0  0  0  0  0  0  0  0  0  0  0  0  # atno 17371 bound_to 10713
  141.1079  133.6653  156.2908 LP  0  0  0  0  0  0  0  0  0  0  0  0  # atno 17394 bound_to 11000
  140.5890  134.5670  157.5495 LP  0  0  0  0  0  0  0  0  0  0  0  0  # atno 17395 bound_to 11000

$$$$
