AV-unprocessed.smi:1424|AV-procd|sdf|5801|dock7
  -GOLD-   22720 5453D 1   1.00000     0.00000
 Structure written by MMmdl.
 46 48  0  0  0  0  0  0  0  0  2 V2000
  146.1018  138.6556  154.3337 O   0  0  0  0  0  0  0  0  0  0  0  0
  146.8479  137.8302  153.8076 C   0  0  0  0  0  0  0  0  0  0  0  0
  148.1633  138.0228  153.6370 N   0  0  0  0  0  0  0  0  0  0  0  0
  148.8961  139.2165  154.0476 C   0  0  0  0  0  0  0  0  0  0  0  0
  149.1235  139.2817  155.5759 C   0  0  2  0  0  0  0  0  0  0  0  0
  149.2459  140.7307  156.1008 C   0  0  0  0  0  0  0  0  0  0  0  0
  150.6535  141.2620  155.7986 C   0  0  0  0  0  0  0  0  0  0  0  0
  151.7599  139.8012  155.8417 S   0  0  0  0  0  0  0  0  0  0  0  0
  152.4196  139.6667  154.5341 O   0  0  0  0  0  0  0  0  0  0  0  0
  152.5410  139.8064  157.0878 O   0  0  0  0  0  0  0  0  0  0  0  0
  150.4187  138.5586  155.9786 C   0  0  0  0  0  0  0  0  0  0  0  0
  146.4610  136.6424  153.3127 N   0  0  0  0  0  0  0  0  0  0  0  0
  145.1497  136.0873  153.2793 C   0  0  0  0  0  0  0  0  0  0  0  0
  144.0152  136.8920  152.9979 C   0  0  0  0  0  0  0  0  0  0  0  0
  142.7342  136.3108  152.9507 C   0  0  0  0  0  0  0  0  0  0  0  0
  142.6039  134.9325  153.1898 C   0  0  0  0  0  0  0  0  0  0  0  0
  143.6983  134.1975  153.4747 N   0  3  0  0  0  0  0  0  0  0  0  0
  144.9559  134.7009  153.5501 C   0  0  0  0  0  0  0  0  0  0  0  0
  146.0040  133.8089  153.8737 N   0  0  0  0  0  0  0  0  0  0  0  0
  146.6923  133.9113  155.1555 C   0  0  0  0  0  0  0  0  0  0  0  0
  147.9500  133.0612  154.9988 C   0  0  0  0  0  0  0  0  0  0  0  0
  148.3179  133.2870  153.5356 C   0  0  0  0  0  0  0  0  0  0  0  0
  146.9614  133.4330  152.8382 C   0  0  0  0  0  0  0  0  0  0  0  0
  148.7006  137.2922  153.1934 H   0  0  0  0  0  0  0  0  0  0  0  0
  149.8523  139.2514  153.5227 H   0  0  0  0  0  0  0  0  0  0  0  0
  148.3341  140.0869  153.7085 H   0  0  0  0  0  0  0  0  0  0  0  0
  148.2813  138.7901  156.0645 H   0  0  0  0  0  0  0  0  0  0  0  0
  148.4736  141.3918  155.7076 H   0  0  0  0  0  0  0  0  0  0  0  0
  149.1109  140.7142  157.1829 H   0  0  0  0  0  0  0  0  0  0  0  0
  150.7023  141.6938  154.7989 H   0  0  0  0  0  0  0  0  0  0  0  0
  150.9885  142.0096  156.5179 H   0  0  0  0  0  0  0  0  0  0  0  0
  150.3685  138.2397  157.0200 H   0  0  0  0  0  0  0  0  0  0  0  0
  150.6455  137.6864  155.3652 H   0  0  0  0  0  0  0  0  0  0  0  0
  147.1680  136.1175  152.8194 H   0  0  0  0  0  0  0  0  0  0  0  0
  144.1057  137.9531  152.8220 H   0  0  0  0  0  0  0  0  0  0  0  0
  141.8655  136.9147  152.7322 H   0  0  0  0  0  0  0  0  0  0  0  0
  141.6640  134.4000  153.1705 H   0  0  0  0  0  0  0  0  0  0  0  0
  146.9735  134.9457  155.3572 H   0  0  0  0  0  0  0  0  0  0  0  0
  146.0647  133.5588  155.9747 H   0  0  0  0  0  0  0  0  0  0  0  0
  148.7447  133.3451  155.6892 H   0  0  0  0  0  0  0  0  0  0  0  0
  147.7144  132.0090  155.1656 H   0  0  0  0  0  0  0  0  0  0  0  0
  148.8817  134.2160  153.4404 H   0  0  0  0  0  0  0  0  0  0  0  0
  148.9243  132.4824  153.1190 H   0  0  0  0  0  0  0  0  0  0  0  0
  146.6584  132.4765  152.4119 H   0  0  0  0  0  0  0  0  0  0  0  0
  147.0066  134.1677  152.0332 H   0  0  0  0  0  0  0  0  0  0  0  0
  143.5696  133.2015  153.6536 H   0  0  0  0  0  0  0  0  0  0  0  0
  1  2  2  0  0  0  0
  2  3  1  0  0  0  0
  2 12  1  0  0  0  0
  3  4  1  0  0  0  0
  3 24  1  0  0  0  0
  4  5  1  0  0  0  0
  4 25  1  0  0  0  0
  4 26  1  0  0  0  0
  5 11  1  0  0  0  0
  5  6  1  0  0  0  0
  5 27  1  0  0  0  0
  6  7  1  0  0  0  0
  6 28  1  0  0  0  0
  6 29  1  0  0  0  0
  7  8  1  0  0  0  0
  7 30  1  0  0  0  0
  7 31  1  0  0  0  0
  8  9  2  0  0  0  0
  8 10  2  0  0  0  0
  8 11  1  0  0  0  0
 11 32  1  0  0  0  0
 11 33  1  0  0  0  0
 12 13  1  0  0  0  0
 12 34  1  0  0  0  0
 13 18  1  0  0  0  0
 13 14  2  0  0  0  0
 14 15  1  0  0  0  0
 14 35  1  0  0  0  0
 15 16  2  0  0  0  0
 15 36  1  0  0  0  0
 16 17  1  0  0  0  0
 16 37  1  0  0  0  0
 17 18  2  0  0  0  0
 17 46  1  0  0  0  0
 18 19  1  0  0  0  0
 19 23  1  0  0  0  0
 19 20  1  0  0  0  0
 20 21  1  0  0  0  0
 20 38  1  0  0  0  0
 20 39  1  0  0  0  0
 21 22  1  0  0  0  0
 21 40  1  0  0  0  0
 21 41  1  0  0  0  0
 22 23  1  0  0  0  0
 22 42  1  0  0  0  0
 22 43  1  0  0  0  0
 23 44  1  0  0  0  0
 23 45  1  0  0  0  0
M  CHG  1  17   1
M  END
> <s_m_source_file>
AV-unprocessed.smi

> <i_m_source_file_index>
1424

> <i_lp_mmshare_version>
43012

> <i_f3d_flags>
0

> <s_epik_input>
Tz1TMSg9TylbQ0gyXVtDSDJdW0NASF0oW0NIMl0xKVtDSDJdW05IXUMoPU8pW05IXWMyW2NIXVtjSF1bY0hdbmMyTjNbQ0gyXVtDSDJdW0NIMl1bQ0gyXTM=

> <s_epik_cmdline>
J2VwaWtfcHl0aG9uJywgJy1waCcsICc3LjAnLCAnLXRuJywgJzgnLCAnLW1hJywgJzIwMCcsICctbWV0YWxfYmluZGluZycsICctaW1hZScsICc8aW5maWxlLm1hZT4nLCAnLW9tYWUnLCAnPG91dGZpbGUubWFlPic=

> <r_lp_tautomer_probability>
0.999994

> <r_epik_Ionization_Penalty>
1.12573

> <r_epik_Ionization_Penalty_Charging>
1.12571

> <r_epik_Ionization_Penalty_Neutral>
1.92863e-05

> <r_epik_State_Penalty>
1.18495

> <r_epik_Charging_Adjusted_Penalty>
2.31065

> <i_epik_Tot_Q>
1

> <i_epik_Tot_abs_Q>
1

> <r_epik_Metal_State_Penalty>
1.26881

> <b_epik_Metal_Only>
0

> <s_lp_Force_Field>
OPLS_2005

> <r_lp_Energy>
41.4787

> <b_lp_Chiralities_Consistent>
1

> <s_lp_Variant>
AV-unprocessed.smi:1424-3

> <Gold.Version>
5.8.1

> <Gold.Id.Protein>
6NUR|6NUR_protein|mol2

> <Gold.PLP.Fitness>
41.6411

> <Gold.PLP.PLP>
-26.6858

> <Gold.PLP.part.hbond>
-5.0000

> <Gold.PLP.part.metal>
0.0000

> <Gold.PLP.part.buried>
-4.9840

> <Gold.PLP.part.nonpolar>
-18.1553

> <Gold.PLP.part.repulsive>
0.2447

> <Gold.PLP.ligand.clash>
0.0000

> <Gold.PLP.ligand.torsion>
0.9225

> <Gold.PLP.Chemscore.Hbond>
5.4705

> <Gold.PLP.Chemscore.CHOScore>
0.0000

> <Gold.PLP.Chemscore.Metal>
0.0000

> <Gold.Chemscore.Hbonds>
donor molecule, donor type, donor heavy atom, donor atom, acceptor molecule, acceptor atom, score
      L1  H     3    24       P1  7948  1.00
      L1  H    12    34       P1  7948  0.91
      L1  H    17    46       P1 10957  1.90
      P1  H  7989  7998       L1     9  0.62
      P1  H  7997  8008       L1    10  1.00

> <Gold.PLP.Chemscore.Internal.Correction>
0.3888

> <Gold.Rescore>
     Score         DG    S(hbond)    S(metal)    S(lipo)     H(rot)  DE(clash)    DE(int)     intcor
     19.38     -21.34       4.02        0.00      53.67       1.50       0.11       1.84       ----

> <Gold.Chemscore.Fitness>
19.3841

> <Gold.Chemscore.DG>
-21.3404

> <Gold.Chemscore.ZeroCoef>
-5.4800

> <Gold.Chemscore.Hbond>
4.0152

> <Gold.Chemscore.Metal>
0.0000

> <Gold.Chemscore.Lipo>
53.6736

> <Gold.Chemscore.Internal_Hbond>
0.0000

> <Gold.Chemscore.DEClash>
0.1135

> <Gold.Chemscore.DEInternal>
1.8427

> <Gold.Chemscore.Rot>
1.4962

> <Gold.Chemscore.Internal.Correction>
   9.000000E+99

> <Gold.Chemscore.Hbonds>
donor molecule, donor type, donor heavy atom, donor atom, acceptor molecule, acceptor atom, score
      L1  H     3    24       P1  7948  0.94
      L1  H    12    34       P1  7948  0.83
      L1  H    17    46       P1 10957  0.83
      P1  H  7989  7998       L1     9  0.34
      P1  H  7997  8008       L1    10  0.87

> <Gold.Chemscore.Hbond.Weighted>
-13.4108

> <Gold.Chemscore.Metal.Weighted>
-0.0000

> <Gold.Chemscore.Lipo.Weighted>
-6.2798

> <Gold.Chemscore.Internal_Hbond.Weighted>
0.0000

> <Gold.Chemscore.DEClash.Weighted>
0.1135

> <Gold.Chemscore.DEInternal.Weighted>
1.8427

> <Gold.Chemscore.Rot.Weighted>
3.8303

> <Gold.Chemscore.Internal.Correction.Weighted>
   9.000000E+99

> <Gold.Protein.RotatedTorsions>
[ 6907 6896 6895 6894 ] final  -40.11 input  -60.11 | X-H torsion
[ 7974 7965 7964 7962 ] final   42.33 input  175.53 | X-H torsion
[ 8008 7997 7996 7995 ] final  -73.93 input   59.86 | X-H torsion
[ 10167 10162 10161 10158 ] final    9.97 input  -65.29 | X-H torsion
[ 10718 10713 10712 10709 ] final  173.15 input   66.30 | X-H torsion
[ 10763 10752 10751 10750 ] final  115.68 input  -60.55 | X-H torsion
[ 11005 11000 10999 10996 ] final  106.84 input  -57.11 | X-H torsion

> <Gold.Protein.ActiveResidues>
 VAL166  LYS551  ARG553  GLY616  TRP617  ASP618  TYR619  PRO620  LYS621  CYS622 
 ASP623  PHE694  ASN695  SER759  ASP760  ASP761  ALA762  ILE779  LEU786  VAL792 
 PHE793  MET794  SER795  GLU796  ALA797  LYS798  CYS799  TRP800  GLU811  SER814 

> <Gold.Protein.RotatedAtoms>
  150.9823  134.9176  159.7851 H   0  0  0  0  0  0  0  0  0  0  0  0  # atno 6907 bound_to 6896
  152.5225  134.3394  159.9221 H   0  0  0  0  0  0  0  0  0  0  0  0  # atno 6908 bound_to 6896
  151.3401  133.3925  159.2705 H   0  0  0  0  0  0  0  0  0  0  0  0  # atno 6909 bound_to 6896
  146.0749  139.5313  142.9574 H   0  0  0  0  0  0  0  0  0  0  0  0  # atno 7974 bound_to 7965
  154.5288  140.0770  156.8308 H   0  0  0  0  0  0  0  0  0  0  0  0  # atno 8008 bound_to 7997
  155.3418  140.3407  155.4221 H   0  0  0  0  0  0  0  0  0  0  0  0  # atno 8009 bound_to 7997
  156.1760  140.1636  156.8348 H   0  0  0  0  0  0  0  0  0  0  0  0  # atno 8010 bound_to 7997
  140.6222  143.8179  150.7189 H   0  0  0  0  0  0  0  0  0  0  0  0  # atno 10167 bound_to 10162
  156.9685  131.0082  151.2911 H   0  0  0  0  0  0  0  0  0  0  0  0  # atno 10718 bound_to 10713
  153.5258  135.3588  155.2653 H   0  0  0  0  0  0  0  0  0  0  0  0  # atno 10763 bound_to 10752
  154.8731  135.4056  154.3207 H   0  0  0  0  0  0  0  0  0  0  0  0  # atno 10764 bound_to 10752
  153.3887  135.7071  153.6578 H   0  0  0  0  0  0  0  0  0  0  0  0  # atno 10765 bound_to 10752
  139.8819  134.9382  156.5728 H   0  0  0  0  0  0  0  0  0  0  0  0  # atno 11005 bound_to 11000
  145.6324  141.0301  143.1856 LP  0  0  0  0  0  0  0  0  0  0  0  0  # atno 17320 bound_to 7965
  144.7255  139.7889  143.7366 LP  0  0  0  0  0  0  0  0  0  0  0  0  # atno 17321 bound_to 7965
  140.1771  143.4145  152.1959 LP  0  0  0  0  0  0  0  0  0  0  0  0  # atno 17342 bound_to 10162
  139.5449  144.7289  151.4616 LP  0  0  0  0  0  0  0  0  0  0  0  0  # atno 17343 bound_to 10162
  157.5609  130.8245  149.8264 LP  0  0  0  0  0  0  0  0  0  0  0  0  # atno 17370 bound_to 10713
  156.0292  130.3769  150.1734 LP  0  0  0  0  0  0  0  0  0  0  0  0  # atno 17371 bound_to 10713
  140.8086  133.8448  155.8789 LP  0  0  0  0  0  0  0  0  0  0  0  0  # atno 17394 bound_to 11000
  140.9527  134.1757  157.4715 LP  0  0  0  0  0  0  0  0  0  0  0  0  # atno 17395 bound_to 11000

$$$$
