AV-unprocessed.smi:1206|AV-procd|sdf|5048|dock6
  -GOLD-   22720 4 73D 1   1.00000     0.00000
 Structure written by MMmdl.
 40 41  0  0  0  0  0  0  0  0  3 V2000
  146.2522  138.0627  152.1764 C   0  0  0  0  0  0  0  0  0  0  0  0
  146.2932  136.8662  151.2955 N   0  3  0  0  0  0  0  0  0  0  0  0
  145.9549  137.2458  149.9005 C   0  0  0  0  0  0  0  0  0  0  0  0
  145.6204  135.6310  151.8497 C   0  0  0  0  0  0  0  0  0  0  0  0
  145.9995  135.5155  153.3611 C   0  0  0  0  0  0  0  0  0  0  0  0
  147.3484  134.9866  153.5678 N   0  0  0  0  0  0  0  0  0  0  0  0
  147.7200  134.0714  154.4742 C   0  0  0  0  0  0  0  0  0  0  0  0
  146.8770  133.5503  155.2072 O   0  0  0  0  0  0  0  0  0  0  0  0
  149.0492  133.8325  154.4889 N   0  5  0  0  0  0  0  0  0  0  0  0
  149.6078  133.2227  155.5476 C   0  0  0  0  0  0  0  0  0  0  0  0
  149.4585  133.6822  156.8004 N   0  0  0  0  0  0  0  0  0  0  0  0
  150.1137  132.9069  157.7476 N   0  0  0  0  0  0  0  0  0  0  0  0
  150.7522  131.8835  157.1805 C   0  0  0  0  0  0  0  0  0  0  0  0
  150.6106  131.7736  155.4387 S   0  0  0  0  0  0  0  0  0  0  0  0
  144.0725  135.7220  151.6901 C   0  0  0  0  0  0  0  0  0  0  0  0
  143.3232  134.4400  152.1031 C   0  0  0  0  0  0  0  0  0  0  0  0
  143.8484  133.2059  151.3584 C   0  0  0  0  0  0  0  0  0  0  0  0
  145.3652  133.0555  151.5332 C   0  0  0  0  0  0  0  0  0  0  0  0
  146.0960  134.3401  151.1017 C   0  0  0  0  0  0  0  0  0  0  0  0
  145.2662  138.5282  152.1676 H   0  0  0  0  0  0  0  0  0  0  0  0
  146.9706  138.8061  151.8300 H   0  0  0  0  0  0  0  0  0  0  0  0
  146.5104  137.8329  153.2086 H   0  0  0  0  0  0  0  0  0  0  0  0
  144.8817  137.3945  149.7778 H   0  0  0  0  0  0  0  0  0  0  0  0
  146.2954  136.4968  149.1856 H   0  0  0  0  0  0  0  0  0  0  0  0
  146.4540  138.1748  149.6230 H   0  0  0  0  0  0  0  0  0  0  0  0
  145.8838  136.4717  153.8715 H   0  0  0  0  0  0  0  0  0  0  0  0
  145.3216  134.8515  153.8926 H   0  0  0  0  0  0  0  0  0  0  0  0
  148.0775  135.3715  152.9846 H   0  0  0  0  0  0  0  0  0  0  0  0
  151.3122  131.1910  157.7910 H   0  0  0  0  0  0  0  0  0  0  0  0
  143.6700  136.5470  152.2780 H   0  0  0  0  0  0  0  0  0  0  0  0
  143.8264  135.9424  150.6506 H   0  0  0  0  0  0  0  0  0  0  0  0
  143.4071  134.2845  153.1788 H   0  0  0  0  0  0  0  0  0  0  0  0
  142.2582  134.5606  151.9024 H   0  0  0  0  0  0  0  0  0  0  0  0
  143.3404  132.3096  151.7151 H   0  0  0  0  0  0  0  0  0  0  0  0
  143.6108  133.2946  150.2976 H   0  0  0  0  0  0  0  0  0  0  0  0
  145.6037  132.7978  152.5647 H   0  0  0  0  0  0  0  0  0  0  0  0
  145.7174  132.2172  150.9314 H   0  0  0  0  0  0  0  0  0  0  0  0
  145.9107  134.4285  150.0315 H   0  0  0  0  0  0  0  0  0  0  0  0
  147.1724  134.2027  151.2094 H   0  0  0  0  0  0  0  0  0  0  0  0
  147.2707  136.6112  151.2544 H   0  0  0  0  0  0  0  0  0  0  0  0
  1  2  1  0  0  0  0
  1 20  1  0  0  0  0
  1 21  1  0  0  0  0
  1 22  1  0  0  0  0
  2  3  1  0  0  0  0
  2  4  1  0  0  0  0
  2 40  1  0  0  0  0
  3 23  1  0  0  0  0
  3 24  1  0  0  0  0
  3 25  1  0  0  0  0
  4 19  1  0  0  0  0
  4  5  1  0  0  0  0
  4 15  1  0  0  0  0
  5  6  1  0  0  0  0
  5 26  1  0  0  0  0
  5 27  1  0  0  0  0
  6  7  1  0  0  0  0
  6 28  1  0  0  0  0
  7  8  2  0  0  0  0
  7  9  1  0  0  0  0
  9 10  1  0  0  0  0
 10 14  1  0  0  0  0
 10 11  2  0  0  0  0
 11 12  1  0  0  0  0
 12 13  2  0  0  0  0
 13 14  1  0  0  0  0
 13 29  1  0  0  0  0
 15 16  1  0  0  0  0
 15 30  1  0  0  0  0
 15 31  1  0  0  0  0
 16 17  1  0  0  0  0
 16 32  1  0  0  0  0
 16 33  1  0  0  0  0
 17 18  1  0  0  0  0
 17 34  1  0  0  0  0
 17 35  1  0  0  0  0
 18 19  1  0  0  0  0
 18 36  1  0  0  0  0
 18 37  1  0  0  0  0
 19 38  1  0  0  0  0
 19 39  1  0  0  0  0
M  CHG  1   2   1
M  CHG  1   9  -1
M  END
> <s_m_source_file>
AV-unprocessed.smi

> <i_m_source_file_index>
1206

> <i_lp_mmshare_version>
43012

> <i_f3d_flags>
0

> <s_epik_input>
W0NIMl0xW0NIMl1bQ0gyXVtDSDJdW0NIMl1DMShOKFtDSDNdKVtDSDNdKVtDSDJdW05IXUMoPU8pW05IXWMybm5bY0hdczI=

> <s_epik_cmdline>
J2VwaWtfcHl0aG9uJywgJy1waCcsICc3LjAnLCAnLXRuJywgJzgnLCAnLW1hJywgJzIwMCcsICctbWV0YWxfYmluZGluZycsICctaW1hZScsICc8aW5maWxlLm1hZT4nLCAnLW9tYWUnLCAnPG91dGZpbGUubWFlPic=

> <r_lp_tautomer_probability>
1

> <r_epik_Ionization_Penalty>
3.99546

> <r_epik_Ionization_Penalty_Charging>
3.96229

> <r_epik_Ionization_Penalty_Neutral>
0.0331711

> <r_epik_State_Penalty>
3.95985

> <r_epik_Charging_Adjusted_Penalty>
7.92214

> <i_epik_Tot_Q>
0

> <i_epik_Tot_abs_Q>
2

> <r_epik_Metal_State_Penalty>
0.609364

> <b_epik_Metal_Only>
1

> <s_lp_Force_Field>
OPLS_2005

> <r_lp_Energy>
23.6676

> <b_lp_Chiralities_Consistent>
1

> <s_lp_Variant>
AV-unprocessed.smi:1206-2

> <Gold.Version>
5.8.1

> <Gold.Id.Protein>
6NUR|6NUR_protein|mol2

> <Gold.PLP.Fitness>
36.1081

> <Gold.PLP.PLP>
-26.3017

> <Gold.PLP.part.hbond>
-3.2516

> <Gold.PLP.part.metal>
0.0000

> <Gold.PLP.part.buried>
0.9862

> <Gold.PLP.part.nonpolar>
-25.0539

> <Gold.PLP.part.repulsive>
0.2582

> <Gold.PLP.ligand.clash>
0.0000

> <Gold.PLP.ligand.torsion>
1.1743

> <Gold.PLP.Chemscore.Hbond>
4.0000

> <Gold.PLP.Chemscore.CHOScore>
0.0000

> <Gold.PLP.Chemscore.Metal>
0.0000

> <Gold.Chemscore.Hbonds>
donor molecule, donor type, donor heavy atom, donor atom, acceptor molecule, acceptor atom, score
      L1  H     2    40       P1  7948  2.00
      L1  H     6    28       P1  7948  1.00
      P1  H  6896  6909       L1    12  1.00

> <Gold.PLP.Chemscore.Internal.Correction>
0.1550

> <Gold.Rescore>
     Score         DG    S(hbond)    S(metal)    S(lipo)     H(rot)  DE(clash)    DE(int)     intcor
     14.93     -18.56       2.94        0.00      63.58       1.64       1.70       1.93       ----

> <Gold.Chemscore.Fitness>
14.9298

> <Gold.Chemscore.DG>
-18.5632

> <Gold.Chemscore.ZeroCoef>
-5.4800

> <Gold.Chemscore.Hbond>
2.9446

> <Gold.Chemscore.Metal>
0.0000

> <Gold.Chemscore.Lipo>
63.5838

> <Gold.Chemscore.Internal_Hbond>
0.0000

> <Gold.Chemscore.DEClash>
1.7029

> <Gold.Chemscore.DEInternal>
1.9305

> <Gold.Chemscore.Rot>
1.6371

> <Gold.Chemscore.Internal.Correction>
   9.000000E+99

> <Gold.Chemscore.Hbonds>
donor molecule, donor type, donor heavy atom, donor atom, acceptor molecule, acceptor atom, score
      L1  H     2    40       P1  7948  1.00
      L1  H     6    28       P1  7948  0.99
      P1  H  6896  6909       L1    12  0.88

> <Gold.Chemscore.Hbond.Weighted>
-9.8349

> <Gold.Chemscore.Metal.Weighted>
-0.0000

> <Gold.Chemscore.Lipo.Weighted>
-7.4393

> <Gold.Chemscore.Internal_Hbond.Weighted>
0.0000

> <Gold.Chemscore.DEClash.Weighted>
1.7029

> <Gold.Chemscore.DEInternal.Weighted>
1.9305

> <Gold.Chemscore.Rot.Weighted>
4.1909

> <Gold.Chemscore.Internal.Correction.Weighted>
   9.000000E+99

> <Gold.Protein.RotatedTorsions>
[ 6907 6896 6895 6894 ] final  -15.82 input  -60.11 | X-H torsion
[ 7974 7965 7964 7962 ] final   18.61 input  175.53 | X-H torsion
[ 8008 7997 7996 7995 ] final   35.31 input   59.86 | X-H torsion
[ 10167 10162 10161 10158 ] final  -19.70 input  -65.29 | X-H torsion
[ 10718 10713 10712 10709 ] final   71.66 input   66.30 | X-H torsion
[ 10763 10752 10751 10750 ] final   44.59 input  -60.55 | X-H torsion
[ 11005 11000 10999 10996 ] final  107.10 input  -57.11 | X-H torsion

> <Gold.Protein.ActiveResidues>
 VAL166  LYS551  ARG553  GLY616  TRP617  ASP618  TYR619  PRO620  LYS621  CYS622 
 ASP623  PHE694  ASN695  SER759  ASP760  ASP761  ALA762  ILE779  LEU786  VAL792 
 PHE793  MET794  SER795  GLU796  ALA797  LYS798  CYS799  TRP800  GLU811  SER814 

> <Gold.Protein.RotatedAtoms>
  151.3181  135.0811  159.9295 H   0  0  0  0  0  0  0  0  0  0  0  0  # atno 6907 bound_to 6896
  152.5263  133.9667  159.7753 H   0  0  0  0  0  0  0  0  0  0  0  0  # atno 6908 bound_to 6896
  150.9983  133.6029  159.2728 H   0  0  0  0  0  0  0  0  0  0  0  0  # atno 6909 bound_to 6896
  146.2179  139.8432  142.8637 H   0  0  0  0  0  0  0  0  0  0  0  0  # atno 7974 bound_to 7965
  155.1690  140.3290  155.4396 H   0  0  0  0  0  0  0  0  0  0  0  0  # atno 8008 bound_to 7997
  156.2516  140.1947  156.6745 H   0  0  0  0  0  0  0  0  0  0  0  0  # atno 8009 bound_to 7997
  154.6351  140.0577  156.9765 H   0  0  0  0  0  0  0  0  0  0  0  0  # atno 8010 bound_to 7997
  140.7270  143.4793  151.0139 H   0  0  0  0  0  0  0  0  0  0  0  0  # atno 10167 bound_to 10162
  157.6462  130.9539  150.0819 H   0  0  0  0  0  0  0  0  0  0  0  0  # atno 10718 bound_to 10713
  152.9838  135.6066  154.3299 H   0  0  0  0  0  0  0  0  0  0  0  0  # atno 10763 bound_to 10752
  154.3003  135.2773  155.2616 H   0  0  0  0  0  0  0  0  0  0  0  0  # atno 10764 bound_to 10752
  154.4871  135.5902  153.6488 H   0  0  0  0  0  0  0  0  0  0  0  0  # atno 10765 bound_to 10752
  139.8823  134.9390  156.5767 H   0  0  0  0  0  0  0  0  0  0  0  0  # atno 11005 bound_to 11000
  145.2877  141.0158  143.3681 LP  0  0  0  0  0  0  0  0  0  0  0  0  # atno 17320 bound_to 7965
  144.9101  139.4539  143.6591 LP  0  0  0  0  0  0  0  0  0  0  0  0  # atno 17321 bound_to 7965
  139.8491  143.7462  152.3178 LP  0  0  0  0  0  0  0  0  0  0  0  0  # atno 17342 bound_to 10162
  139.7638  144.7498  151.0325 LP  0  0  0  0  0  0  0  0  0  0  0  0  # atno 17343 bound_to 10162
  156.1793  130.3649  149.9057 LP  0  0  0  0  0  0  0  0  0  0  0  0  # atno 17370 bound_to 10713
  156.7013  130.8934  151.3599 LP  0  0  0  0  0  0  0  0  0  0  0  0  # atno 17371 bound_to 10713
  140.8057  133.8469  155.8766 LP  0  0  0  0  0  0  0  0  0  0  0  0  # atno 17394 bound_to 11000
  140.9552  134.1727  157.4697 LP  0  0  0  0  0  0  0  0  0  0  0  0  # atno 17395 bound_to 11000

$$$$
