AV-unprocessed.smi:153|AV-procd|sdf|1261|dock3
  -GOLD-   2262018513D 1   1.00000     0.00000
 Structure written by MMmdl.
 59 62  0  0  0  0  0  0  0  0  1 V2000
  146.4331  133.9983  153.3922 C   0  0  0  0  0  0  0  0  0  0  0  0
  146.1227  134.6397  152.0308 C   0  0  1  0  0  0  0  0  0  0  0  0
  145.2209  133.7716  151.3479 O   0  0  0  0  0  0  0  0  0  0  0  0
  144.3641  134.5470  150.5289 C   0  0  0  0  0  0  0  0  0  0  0  0
  144.0800  135.7565  151.4059 C   0  0  0  0  0  0  0  0  0  0  0  0
  145.4328  136.0333  152.0553 C   0  0  2  0  0  0  0  0  0  0  0  0
  146.1608  136.8890  151.1896 O   0  0  0  0  0  0  0  0  0  0  0  0
  145.3333  136.7303  153.4379 C   0  0  0  0  0  0  0  0  0  0  0  0
  146.5007  137.5359  153.7645 N   0  0  0  0  0  0  0  0  0  0  0  0
  146.6405  138.8917  153.5839 C   0  0  0  0  0  0  0  0  0  0  0  0
  147.7859  139.3851  153.9648 N   0  0  0  0  0  0  0  0  0  0  0  0
  148.5015  138.2898  154.4403 C   0  0  0  0  0  0  0  0  0  0  0  0
  149.8034  138.1048  155.0039 C   0  0  0  0  0  0  0  0  0  0  0  0
  150.7061  139.1057  155.2320 N   0  0  0  0  0  0  0  0  0  0  0  0
  152.1160  138.7665  155.3844 C   0  0  0  0  0  0  0  0  0  0  0  0
  150.3867  140.4819  154.8439 C   0  0  0  0  0  0  0  0  0  0  0  0
  149.9859  141.3613  156.0500 C   0  0  2  0  0  0  0  0  0  0  0  0
  148.7239  141.9376  155.7794 O   0  0  0  0  0  0  0  0  0  0  0  0
  150.9896  142.5132  156.2712 C   0  0  0  0  0  0  0  0  0  0  0  0
  151.2696  142.8464  157.6690 N   0  0  0  0  0  0  0  0  0  0  0  0
  151.9028  144.1573  157.7722 C   0  0  0  0  0  0  0  0  0  0  0  0
  152.2201  144.5333  159.2301 C   0  0  0  0  0  0  0  0  0  0  0  0
  153.0489  143.5316  159.8096 O   0  0  0  0  0  0  0  0  0  0  0  0
  152.4512  142.2402  159.7743 C   0  0  0  0  0  0  0  0  0  0  0  0
  152.1307  141.8575  158.3189 C   0  0  0  0  0  0  0  0  0  0  0  0
  150.1480  136.8283  155.3299 N   0  0  0  0  0  0  0  0  0  0  0  0
  149.3000  135.8148  155.1431 C   0  0  0  0  0  0  0  0  0  0  0  0
  148.0653  135.8459  154.6449 N   0  0  0  0  0  0  0  0  0  0  0  0
  147.7039  137.1149  154.3040 C   0  0  0  0  0  0  0  0  0  0  0  0
  147.1286  134.6060  153.9710 H   0  0  0  0  0  0  0  0  0  0  0  0
  146.8917  133.0184  153.2583 H   0  0  0  0  0  0  0  0  0  0  0  0
  145.5282  133.8559  153.9832 H   0  0  0  0  0  0  0  0  0  0  0  0
  147.0470  134.6817  151.4513 H   0  0  0  0  0  0  0  0  0  0  0  0
  144.8853  134.8347  149.6147 H   0  0  0  0  0  0  0  0  0  0  0  0
  143.4611  133.9998  150.2581 H   0  0  0  0  0  0  0  0  0  0  0  0
  143.6704  136.6035  150.8536 H   0  0  0  0  0  0  0  0  0  0  0  0
  143.3510  135.4704  152.1647 H   0  0  0  0  0  0  0  0  0  0  0  0
  147.0741  136.8488  151.4285 H   0  0  0  0  0  0  0  0  0  0  0  0
  144.4596  137.3812  153.4773 H   0  0  0  0  0  0  0  0  0  0  0  0
  145.2020  135.9896  154.2276 H   0  0  0  0  0  0  0  0  0  0  0  0
  145.8586  139.5084  153.1641 H   0  0  0  0  0  0  0  0  0  0  0  0
  152.2991  138.3219  156.3625 H   0  0  0  0  0  0  0  0  0  0  0  0
  152.7439  139.6544  155.3052 H   0  0  0  0  0  0  0  0  0  0  0  0
  152.4361  138.0674  154.6110 H   0  0  0  0  0  0  0  0  0  0  0  0
  151.2473  140.9073  154.3263 H   0  0  0  0  0  0  0  0  0  0  0  0
  149.5952  140.4746  154.0932 H   0  0  0  0  0  0  0  0  0  0  0  0
  149.9001  140.7436  156.9427 H   0  0  0  0  0  0  0  0  0  0  0  0
  148.8449  142.8594  155.6114 H   0  0  0  0  0  0  0  0  0  0  0  0
  151.9338  142.2647  155.7842 H   0  0  0  0  0  0  0  0  0  0  0  0
  150.6187  143.3963  155.7484 H   0  0  0  0  0  0  0  0  0  0  0  0
  152.8251  144.1696  157.1890 H   0  0  0  0  0  0  0  0  0  0  0  0
  151.2510  144.9174  157.3402 H   0  0  0  0  0  0  0  0  0  0  0  0
  152.7375  145.4918  159.2709 H   0  0  0  0  0  0  0  0  0  0  0  0
  151.3028  144.6385  159.8113 H   0  0  0  0  0  0  0  0  0  0  0  0
  153.1385  141.5171  160.2136 H   0  0  0  0  0  0  0  0  0  0  0  0
  151.5462  142.2336  160.3835 H   0  0  0  0  0  0  0  0  0  0  0  0
  151.6605  140.8757  158.3181 H   0  0  0  0  0  0  0  0  0  0  0  0
  153.0632  141.7555  157.7615 H   0  0  0  0  0  0  0  0  0  0  0  0
  149.6630  134.8407  155.4364 H   0  0  0  0  0  0  0  0  0  0  0  0
  1  2  1  0  0  0  0
  1 30  1  0  0  0  0
  1 31  1  0  0  0  0
  1 32  1  0  0  0  0
  2  6  1  0  0  0  0
  2  3  1  0  0  0  0
  2 33  1  0  0  0  0
  3  4  1  0  0  0  0
  4  5  1  0  0  0  0
  4 34  1  0  0  0  0
  4 35  1  0  0  0  0
  5  6  1  0  0  0  0
  5 36  1  0  0  0  0
  5 37  1  0  0  0  0
  6  7  1  0  0  0  0
  6  8  1  0  0  0  0
  7 38  1  0  0  0  0
  8  9  1  0  0  0  0
  8 39  1  0  0  0  0
  8 40  1  0  0  0  0
  9 29  1  0  0  0  0
  9 10  1  0  0  0  0
 10 11  2  0  0  0  0
 10 41  1  0  0  0  0
 11 12  1  0  0  0  0
 12 29  2  0  0  0  0
 12 13  1  0  0  0  0
 13 14  1  0  0  0  0
 13 26  2  0  0  0  0
 14 15  1  0  0  0  0
 14 16  1  0  0  0  0
 15 42  1  0  0  0  0
 15 43  1  0  0  0  0
 15 44  1  0  0  0  0
 16 17  1  0  0  0  0
 16 45  1  0  0  0  0
 16 46  1  0  0  0  0
 17 18  1  0  0  0  0
 17 19  1  0  0  0  0
 17 47  1  0  0  0  0
 18 48  1  0  0  0  0
 19 20  1  0  0  0  0
 19 49  1  0  0  0  0
 19 50  1  0  0  0  0
 20 25  1  0  0  0  0
 20 21  1  0  0  0  0
 21 22  1  0  0  0  0
 21 51  1  0  0  0  0
 21 52  1  0  0  0  0
 22 23  1  0  0  0  0
 22 53  1  0  0  0  0
 22 54  1  0  0  0  0
 23 24  1  0  0  0  0
 24 25  1  0  0  0  0
 24 55  1  0  0  0  0
 24 56  1  0  0  0  0
 25 57  1  0  0  0  0
 25 58  1  0  0  0  0
 26 27  1  0  0  0  0
 27 28  2  0  0  0  0
 27 59  1  0  0  0  0
 28 29  1  0  0  0  0
M  END
> <s_m_source_file>
AV-unprocessed.smi

> <i_m_source_file_index>
153

> <i_lp_mmshare_version>
43012

> <i_f3d_flags>
0

> <s_epik_input>
W0NIMl0xW0NIMl1PW0NAQEhdKFtDSDNdKVtDQEBdMShbT0hdKVtDSDJdbihbY0hdbjIpYyhjMjMpbltjSF1uYzNOKFtDSDNdKVtDSDJdW0NASF0oW09IXSlbQ0gyXU40W0NIMl1bQ0gyXU9bQ0gyXVtDSDJdNA==

> <s_epik_cmdline>
J2VwaWtfcHl0aG9uJywgJy1waCcsICc3LjAnLCAnLXRuJywgJzgnLCAnLW1hJywgJzIwMCcsICctbWV0YWxfYmluZGluZycsICctaW1hZScsICc8aW5maWxlLm1hZT4nLCAnLW9tYWUnLCAnPG91dGZpbGUubWFlPic=

> <r_lp_tautomer_probability>
1

> <r_epik_Ionization_Penalty>
0.424123

> <r_epik_Ionization_Penalty_Charging>
0

> <r_epik_Ionization_Penalty_Neutral>
0.424123

> <r_epik_State_Penalty>
0.421495

> <r_epik_Charging_Adjusted_Penalty>
0.421495

> <i_epik_Tot_Q>
0

> <i_epik_Tot_abs_Q>
0

> <r_epik_Metal_State_Penalty>
0.421223

> <b_epik_Metal_Only>
0

> <s_lp_Force_Field>
OPLS_2005

> <r_lp_Energy>
56.2601

> <b_lp_Chiralities_Consistent>
1

> <s_lp_Variant>
AV-unprocessed.smi:153-12

> <Gold.Version>
5.8.1

> <Gold.Id.Protein>
6NUR|6NUR_protein|mol2

> <Gold.PLP.Fitness>
46.4368

> <Gold.PLP.PLP>
-41.8372

> <Gold.PLP.part.hbond>
-2.6231

> <Gold.PLP.part.metal>
0.0000

> <Gold.PLP.part.buried>
-2.0547

> <Gold.PLP.part.nonpolar>
-37.7821

> <Gold.PLP.part.repulsive>
1.5664

> <Gold.PLP.ligand.clash>
0.0000

> <Gold.PLP.ligand.torsion>
2.5414

> <Gold.PLP.Chemscore.Hbond>
2.0000

> <Gold.PLP.Chemscore.CHOScore>
1.0000

> <Gold.PLP.Chemscore.Metal>
0.0000

> <Gold.Chemscore.Hbonds>
donor molecule, donor type, donor heavy atom, donor atom, acceptor molecule, acceptor atom, score
      L1  H     7    38       P1  7948  1.00
      L1  H    18    48       P1  8028  1.00
      L1  C    10    41       P1 10175  1.00

> <Gold.PLP.Chemscore.Internal.Correction>
0.6823

> <Gold.Rescore>
     Score         DG    S(hbond)    S(metal)    S(lipo)     H(rot)  DE(clash)    DE(int)     intcor
      9.30     -14.70       1.98        0.00      99.16       3.52       0.32       5.08       ----

> <Gold.Chemscore.Fitness>
9.3009

> <Gold.Chemscore.DG>
-14.7020

> <Gold.Chemscore.ZeroCoef>
-5.4800

> <Gold.Chemscore.Hbond>
1.9831

> <Gold.Chemscore.Metal>
0.0000

> <Gold.Chemscore.Lipo>
99.1619

> <Gold.Chemscore.Internal_Hbond>
0.0000

> <Gold.Chemscore.DEClash>
0.3225

> <Gold.Chemscore.DEInternal>
5.0786

> <Gold.Chemscore.Rot>
3.5170

> <Gold.Chemscore.Internal.Correction>
   9.000000E+99

> <Gold.Chemscore.Hbonds>
donor molecule, donor type, donor heavy atom, donor atom, acceptor molecule, acceptor atom, score
      L1  H     7    38       P1  7948  0.97
      L1  H    18    48       P1  8028  1.00

> <Gold.Chemscore.Hbond.Weighted>
-6.6236

> <Gold.Chemscore.Metal.Weighted>
-0.0000

> <Gold.Chemscore.Lipo.Weighted>
-11.6019

> <Gold.Chemscore.Internal_Hbond.Weighted>
0.0000

> <Gold.Chemscore.DEClash.Weighted>
0.3225

> <Gold.Chemscore.DEInternal.Weighted>
5.0786

> <Gold.Chemscore.Rot.Weighted>
9.0036

> <Gold.Chemscore.Internal.Correction.Weighted>
   9.000000E+99

> <Gold.Protein.RotatedTorsions>
[ 6907 6896 6895 6894 ] final  157.45 input  -60.11 | X-H torsion
[ 7974 7965 7964 7962 ] final -135.31 input  175.53 | X-H torsion
[ 8008 7997 7996 7995 ] final  171.26 input   59.86 | X-H torsion
[ 10167 10162 10161 10158 ] final  -69.50 input  -65.29 | X-H torsion
[ 10718 10713 10712 10709 ] final  107.74 input   66.30 | X-H torsion
[ 10763 10752 10751 10750 ] final  -37.67 input  -60.55 | X-H torsion
[ 11005 11000 10999 10996 ] final   80.15 input  -57.11 | X-H torsion

> <Gold.Protein.ActiveResidues>
 VAL166  LYS551  ARG553  GLY616  TRP617  ASP618  TYR619  PRO620  LYS621  CYS622 
 ASP623  PHE694  ASN695  SER759  ASP760  ASP761  ALA762  ILE779  LEU786  VAL792 
 PHE793  MET794  SER795  GLU796  ALA797  LYS798  CYS799  TRP800  GLU811  SER814 

> <Gold.Protein.RotatedAtoms>
  152.0149  133.3876  159.4234 H   0  0  0  0  0  0  0  0  0  0  0  0  # atno 6907 bound_to 6896
  150.6896  134.3689  159.4992 H   0  0  0  0  0  0  0  0  0  0  0  0  # atno 6908 bound_to 6896
  152.1455  134.9029  160.0602 H   0  0  0  0  0  0  0  0  0  0  0  0  # atno 6909 bound_to 6896
  144.9025  140.6790  143.5076 H   0  0  0  0  0  0  0  0  0  0  0  0  # atno 7974 bound_to 7965
  156.1288  140.1516  156.9097 H   0  0  0  0  0  0  0  0  0  0  0  0  # atno 8008 bound_to 7997
  154.4892  140.0856  156.7597 H   0  0  0  0  0  0  0  0  0  0  0  0  # atno 8009 bound_to 7997
  155.4295  140.3426  155.4281 H   0  0  0  0  0  0  0  0  0  0  0  0  # atno 8010 bound_to 7997
  140.5426  143.2314  151.7061 H   0  0  0  0  0  0  0  0  0  0  0  0  # atno 10167 bound_to 10162
  157.6616  131.0879  150.6201 H   0  0  0  0  0  0  0  0  0  0  0  0  # atno 10718 bound_to 10713
  153.9001  135.6803  153.4756 H   0  0  0  0  0  0  0  0  0  0  0  0  # atno 10763 bound_to 10752
  153.1134  135.4772  154.9072 H   0  0  0  0  0  0  0  0  0  0  0  0  # atno 10764 bound_to 10752
  154.7580  135.3202  154.8388 H   0  0  0  0  0  0  0  0  0  0  0  0  # atno 10765 bound_to 10752
  139.9145  134.7898  156.1872 H   0  0  0  0  0  0  0  0  0  0  0  0  # atno 11005 bound_to 11000
  145.3592  139.1686  143.4392 LP  0  0  0  0  0  0  0  0  0  0  0  0  # atno 17320 bound_to 7965
  146.3116  140.3652  142.8669 LP  0  0  0  0  0  0  0  0  0  0  0  0  # atno 17321 bound_to 7965
  139.4994  144.3945  152.0245 LP  0  0  0  0  0  0  0  0  0  0  0  0  # atno 17342 bound_to 10162
  140.3055  144.3597  150.6048 LP  0  0  0  0  0  0  0  0  0  0  0  0  # atno 17343 bound_to 10162
  156.6504  130.4483  149.5721 LP  0  0  0  0  0  0  0  0  0  0  0  0  # atno 17370 bound_to 10713
  156.2142  130.6697  151.1301 LP  0  0  0  0  0  0  0  0  0  0  0  0  # atno 17371 bound_to 10713
  141.0606  133.6844  156.1945 LP  0  0  0  0  0  0  0  0  0  0  0  0  # atno 17394 bound_to 11000
  140.6667  134.4911  157.5586 LP  0  0  0  0  0  0  0  0  0  0  0  0  # atno 17395 bound_to 11000

$$$$
