AV-unprocessed.smi:528|AV-procd|sdf|2836|dock10
  -GOLD-   2262023323D 1   1.00000     0.00000
 Structure written by MMmdl.
 45 47  0  0  0  0  0  0  0  0  1 V2000
  150.8732  138.3787  158.4597 C   0  0  0  0  0  0  0  0  0  0  0  0
  149.6754  138.2719  157.5012 C   0  0  1  0  0  0  0  0  0  0  0  0
  148.5006  137.8825  158.2800 N   0  0  0  0  0  0  0  0  0  0  0  0
  148.4164  136.8341  159.1138 C   0  0  0  0  0  0  0  0  0  0  0  0
  149.3625  136.0882  159.3687 O   0  0  0  0  0  0  0  0  0  0  0  0
  147.0463  136.5999  159.7630 C   0  0  0  0  0  0  0  0  0  0  0  0
  147.0627  135.4972  160.7387 N   0  0  0  0  0  0  0  0  0  0  0  0
  146.7538  134.2081  160.2610 C   0  0  0  0  0  0  0  0  0  0  0  0
  146.7197  133.1209  161.0555 C   0  0  0  0  0  0  0  0  0  0  0  0
  146.4360  131.7328  160.5025 C   0  0  0  0  0  0  0  0  0  0  0  0
  145.2203  131.6731  159.9586 F   0  0  0  0  0  0  0  0  0  0  0  0
  147.3273  131.4303  159.5596 F   0  0  0  0  0  0  0  0  0  0  0  0
  146.5126  130.8069  161.4592 F   0  0  0  0  0  0  0  0  0  0  0  0
  147.0539  133.3304  162.4506 C   0  0  0  0  0  0  0  0  0  0  0  0
  147.3582  134.5553  162.9225 C   0  0  0  0  0  0  0  0  0  0  0  0
  147.3690  135.7319  162.0504 C   0  0  0  0  0  0  0  0  0  0  0  0
  147.6377  136.8577  162.4718 O   0  0  0  0  0  0  0  0  0  0  0  0
  149.3833  139.5955  156.7493 C   0  0  2  0  0  0  0  0  0  0  0  0
  148.2665  139.4780  155.6797 C   0  0  0  0  0  0  0  0  0  0  0  0
  148.9297  140.0355  154.4089 C   0  0  1  0  0  0  0  0  0  0  0  0
  149.1486  141.5515  154.5618 C   0  0  0  0  0  0  0  0  0  0  0  0
  150.3026  141.6244  155.5789 C   0  0  0  0  0  0  0  0  0  0  0  0
  150.5636  140.1409  155.9054 C   0  0  2  0  0  0  0  0  0  0  0  0
  150.3449  139.4907  154.5428 C   0  0  0  0  0  0  0  0  0  0  0  0
  151.8023  138.5804  157.9282 H   0  0  0  0  0  0  0  0  0  0  0  0
  151.0170  137.4469  159.0082 H   0  0  0  0  0  0  0  0  0  0  0  0
  150.7280  139.1742  159.1913 H   0  0  0  0  0  0  0  0  0  0  0  0
  149.9087  137.5000  156.7663 H   0  0  0  0  0  0  0  0  0  0  0  0
  147.6687  138.4382  158.1440 H   0  0  0  0  0  0  0  0  0  0  0  0
  146.7307  137.5327  160.2319 H   0  0  0  0  0  0  0  0  0  0  0  0
  146.2987  136.3995  158.9929 H   0  0  0  0  0  0  0  0  0  0  0  0
  146.5416  134.1588  159.2029 H   0  0  0  0  0  0  0  0  0  0  0  0
  147.0543  132.4918  163.1312 H   0  0  0  0  0  0  0  0  0  0  0  0
  147.5984  134.6749  163.9688 H   0  0  0  0  0  0  0  0  0  0  0  0
  149.0935  140.3419  157.4909 H   0  0  0  0  0  0  0  0  0  0  0  0
  147.9764  138.4403  155.5100 H   0  0  0  0  0  0  0  0  0  0  0  0
  147.3668  140.0285  155.9569 H   0  0  0  0  0  0  0  0  0  0  0  0
  148.4134  139.7580  153.4896 H   0  0  0  0  0  0  0  0  0  0  0  0
  149.4439  142.0008  153.6128 H   0  0  0  0  0  0  0  0  0  0  0  0
  148.2517  142.0640  154.9118 H   0  0  0  0  0  0  0  0  0  0  0  0
  151.1834  142.0801  155.1247 H   0  0  0  0  0  0  0  0  0  0  0  0
  150.0450  142.2097  156.4624 H   0  0  0  0  0  0  0  0  0  0  0  0
  151.5501  139.9731  156.3352 H   0  0  0  0  0  0  0  0  0  0  0  0
  150.3900  138.4007  154.5657 H   0  0  0  0  0  0  0  0  0  0  0  0
  151.0247  139.8597  153.7727 H   0  0  0  0  0  0  0  0  0  0  0  0
  1  2  1  0  0  0  0
  1 25  1  0  0  0  0
  1 26  1  0  0  0  0
  1 27  1  0  0  0  0
  2  3  1  0  0  0  0
  2 18  1  0  0  0  0
  2 28  1  0  0  0  0
  3  4  1  0  0  0  0
  3 29  1  0  0  0  0
  4  5  2  0  0  0  0
  4  6  1  0  0  0  0
  6  7  1  0  0  0  0
  6 30  1  0  0  0  0
  6 31  1  0  0  0  0
  7 16  1  0  0  0  0
  7  8  1  0  0  0  0
  8  9  2  0  0  0  0
  8 32  1  0  0  0  0
  9 10  1  0  0  0  0
  9 14  1  0  0  0  0
 10 11  1  0  0  0  0
 10 12  1  0  0  0  0
 10 13  1  0  0  0  0
 14 15  2  0  0  0  0
 14 33  1  0  0  0  0
 15 16  1  0  0  0  0
 15 34  1  0  0  0  0
 16 17  2  0  0  0  0
 18 23  1  0  0  0  0
 18 19  1  0  0  0  0
 18 35  1  0  0  0  0
 19 20  1  0  0  0  0
 19 36  1  0  0  0  0
 19 37  1  0  0  0  0
 20 24  1  0  0  0  0
 20 21  1  0  0  0  0
 20 38  1  0  0  0  0
 21 22  1  0  0  0  0
 21 39  1  0  0  0  0
 21 40  1  0  0  0  0
 22 23  1  0  0  0  0
 22 41  1  0  0  0  0
 22 42  1  0  0  0  0
 23 24  1  0  0  0  0
 23 43  1  0  0  0  0
 24 44  1  0  0  0  0
 24 45  1  0  0  0  0
M  END
> <s_m_source_file>
AV-unprocessed.smi

> <i_m_source_file_index>
528

> <i_lp_mmshare_version>
43012

> <i_f3d_flags>
0

> <s_epik_input>
W0NIMl0xW0NIMl1bQ0BASF0oW0NIMl0yKVtDQEBIXShbQ0gyXVtDQEhdMTIpW0NASF0oW0NIM10pW05IXUMoPU8pW0NIMl1uM1tjSF1jKEMoRikoRilGKVtjSF1bY0hdYzM9Tw==

> <s_epik_cmdline>
J2VwaWtfcHl0aG9uJywgJy1waCcsICc3LjAnLCAnLXRuJywgJzgnLCAnLW1hJywgJzIwMCcsICctbWV0YWxfYmluZGluZycsICctaW1hZScsICc8aW5maWxlLm1hZT4nLCAnLW9tYWUnLCAnPG91dGZpbGUubWFlPic=

> <r_lp_tautomer_probability>
1

> <r_epik_Ionization_Penalty>
4.09479e-08

> <r_epik_Ionization_Penalty_Charging>
1.9321e-08

> <r_epik_Ionization_Penalty_Neutral>
2.16269e-08

> <r_epik_State_Penalty>
-0

> <r_epik_Charging_Adjusted_Penalty>
1.9321e-08

> <i_epik_Tot_Q>
0

> <i_epik_Tot_abs_Q>
0

> <r_epik_Metal_State_Penalty>
-0

> <b_epik_Metal_Only>
0

> <s_lp_Force_Field>
OPLS_2005

> <r_lp_Energy>
62.8614

> <b_lp_Chiralities_Consistent>
1

> <s_lp_Variant>
AV-unprocessed.smi:528-6

> <Gold.Version>
5.8.1

> <Gold.Id.Protein>
6NUR|6NUR_protein|mol2

> <Gold.PLP.Fitness>
42.1700

> <Gold.PLP.PLP>
-37.1860

> <Gold.PLP.part.hbond>
-2.0408

> <Gold.PLP.part.metal>
0.0000

> <Gold.PLP.part.buried>
-2.9025

> <Gold.PLP.part.nonpolar>
-32.2623

> <Gold.PLP.part.repulsive>
0.1300

> <Gold.PLP.ligand.clash>
0.0000

> <Gold.PLP.ligand.torsion>
0.4574

> <Gold.PLP.Chemscore.Hbond>
1.9440

> <Gold.PLP.Chemscore.CHOScore>
0.0000

> <Gold.PLP.Chemscore.Metal>
0.0000

> <Gold.Chemscore.Hbonds>
donor molecule, donor type, donor heavy atom, donor atom, acceptor molecule, acceptor atom, score
      P1  H  6896  6908       L1     5  1.00
      P1  H  6931  6943       L1    17  0.97

> <Gold.PLP.Chemscore.Internal.Correction>
0.0669

> <Gold.Rescore>
     Score         DG    S(hbond)    S(metal)    S(lipo)     H(rot)  DE(clash)    DE(int)     intcor
     15.66     -17.32       1.95        0.00      82.89       1.71       0.10       1.55       ----

> <Gold.Chemscore.Fitness>
15.6579

> <Gold.Chemscore.DG>
-17.3163

> <Gold.Chemscore.ZeroCoef>
-5.4800

> <Gold.Chemscore.Hbond>
1.9526

> <Gold.Chemscore.Metal>
0.0000

> <Gold.Chemscore.Lipo>
82.8943

> <Gold.Chemscore.Internal_Hbond>
0.0000

> <Gold.Chemscore.DEClash>
0.1036

> <Gold.Chemscore.DEInternal>
1.5548

> <Gold.Chemscore.Rot>
1.7125

> <Gold.Chemscore.Internal.Correction>
   9.000000E+99

> <Gold.Chemscore.Hbonds>
donor molecule, donor type, donor heavy atom, donor atom, acceptor molecule, acceptor atom, score
      P1  H  6896  6908       L1     5  0.96
      P1  H  6931  6943       L1    17  0.87

> <Gold.Chemscore.Hbond.Weighted>
-6.5217

> <Gold.Chemscore.Metal.Weighted>
-0.0000

> <Gold.Chemscore.Lipo.Weighted>
-9.6986

> <Gold.Chemscore.Internal_Hbond.Weighted>
0.0000

> <Gold.Chemscore.DEClash.Weighted>
0.1036

> <Gold.Chemscore.DEInternal.Weighted>
1.5548

> <Gold.Chemscore.Rot.Weighted>
4.3840

> <Gold.Chemscore.Internal.Correction.Weighted>
   9.000000E+99

> <Gold.Protein.RotatedTorsions>
[ 6907 6896 6895 6894 ] final  171.14 input  -60.11 | X-H torsion
[ 7974 7965 7964 7962 ] final  152.01 input  175.53 | X-H torsion
[ 8008 7997 7996 7995 ] final  113.89 input   59.86 | X-H torsion
[ 10167 10162 10161 10158 ] final  -44.57 input  -65.29 | X-H torsion
[ 10718 10713 10712 10709 ] final  113.85 input   66.30 | X-H torsion
[ 10763 10752 10751 10750 ] final   25.05 input  -60.55 | X-H torsion
[ 11005 11000 10999 10996 ] final  145.30 input  -57.11 | X-H torsion

> <Gold.Protein.ActiveResidues>
 VAL166  LYS551  ARG553  GLY616  TRP617  ASP618  TYR619  PRO620  LYS621  CYS622 
 ASP623  PHE694  ASN695  SER759  ASP760  ASP761  ALA762  ILE779  LEU786  VAL792 
 PHE793  MET794  SER795  GLU796  ALA797  LYS798  CYS799  TRP800  GLU811  SER814 

> <Gold.Protein.RotatedAtoms>
  151.8049  133.3374  159.3537 H   0  0  0  0  0  0  0  0  0  0  0  0  # atno 6907 bound_to 6896
  150.7346  134.5719  159.5904 H   0  0  0  0  0  0  0  0  0  0  0  0  # atno 6908 bound_to 6896
  152.3117  134.7491  160.0386 H   0  0  0  0  0  0  0  0  0  0  0  0  # atno 6909 bound_to 6896
  144.8252  139.6612  143.6083 H   0  0  0  0  0  0  0  0  0  0  0  0  # atno 7974 bound_to 7965
  156.2287  140.2970  156.0131 H   0  0  0  0  0  0  0  0  0  0  0  0  # atno 8008 bound_to 7997
  155.2286  140.0418  157.2976 H   0  0  0  0  0  0  0  0  0  0  0  0  # atno 8009 bound_to 7997
  154.5958  140.2414  155.7866 H   0  0  0  0  0  0  0  0  0  0  0  0  # atno 8010 bound_to 7997
  140.6891  143.2923  151.3515 H   0  0  0  0  0  0  0  0  0  0  0  0  # atno 10167 bound_to 10162
  157.6315  131.0990  150.7100 H   0  0  0  0  0  0  0  0  0  0  0  0  # atno 10718 bound_to 10713
  153.0719  135.6591  154.0229 H   0  0  0  0  0  0  0  0  0  0  0  0  # atno 10763 bound_to 10752
  153.9872  135.2949  155.3416 H   0  0  0  0  0  0  0  0  0  0  0  0  # atno 10764 bound_to 10752
  154.7096  135.5211  153.8716 H   0  0  0  0  0  0  0  0  0  0  0  0  # atno 10765 bound_to 10752
  140.0701  134.9156  157.1331 H   0  0  0  0  0  0  0  0  0  0  0  0  # atno 11005 bound_to 11000
  146.2557  139.6298  142.9396 LP  0  0  0  0  0  0  0  0  0  0  0  0  # atno 17320 bound_to 7965
  145.5016  141.0437  143.2537 LP  0  0  0  0  0  0  0  0  0  0  0  0  # atno 17321 bound_to 7965
  139.6277  144.0781  152.2449 LP  0  0  0  0  0  0  0  0  0  0  0  0  # atno 17342 bound_to 10162
  140.0246  144.6127  150.7538 LP  0  0  0  0  0  0  0  0  0  0  0  0  # atno 17343 bound_to 10162
  156.7439  130.4747  149.5471 LP  0  0  0  0  0  0  0  0  0  0  0  0  # atno 17370 bound_to 10713
  156.1522  130.6317  151.0610 LP  0  0  0  0  0  0  0  0  0  0  0  0  # atno 17371 bound_to 10713
  140.3640  134.2463  155.7184 LP  0  0  0  0  0  0  0  0  0  0  0  0  # atno 17394 bound_to 11000
  141.2008  133.7977  157.0470 LP  0  0  0  0  0  0  0  0  0  0  0  0  # atno 17395 bound_to 11000

$$$$
