AV-unprocessed.smi:3193|AV-procd|sdf|12204|dock8
  -GOLD-   2272018 43D 1   1.00000     0.00000
 Structure written by MMmdl.
 40 41  0  0  0  0  0  0  0  0  2 V2000
  153.0610  141.4666  159.1250 C   0  0  0  0  0  0  0  0  0  0  0  0
  152.2040  142.7089  159.4334 C   0  0  1  0  0  0  0  0  0  0  0  0
  152.6363  143.3071  160.7892 C   0  0  0  0  0  0  0  0  0  0  0  0
  151.7792  144.5164  161.1859 C   0  0  0  0  0  0  0  0  0  0  0  0
  151.8151  145.5902  160.0934 C   0  0  0  0  0  0  0  0  0  0  0  0
  151.3764  145.0094  158.7421 C   0  0  0  0  0  0  0  0  0  0  0  0
  152.2366  143.7977  158.3183 C   0  0  2  0  0  0  0  0  0  0  0  0
  151.7580  143.2900  156.9394 C   0  0  0  0  0  0  0  0  0  0  0  0
  150.3582  142.8243  156.9797 N   0  3  0  0  0  0  0  0  0  0  0  0
  150.1251  141.5277  156.3137 C   0  0  0  0  0  0  0  0  0  0  0  0
  151.0648  140.4435  156.8635 C   0  0  0  0  0  0  0  0  0  0  0  0
  151.3200  139.4047  155.8826 N   0  0  0  0  0  0  0  0  0  0  0  0
  150.6053  139.1589  154.7175 C   0  0  0  0  0  0  0  0  0  0  0  0
  151.1961  138.0705  154.1160 C   0  0  0  0  0  0  0  0  0  0  0  0
  152.2711  137.6358  154.8874 N   0  0  0  0  0  0  0  0  0  0  0  0
  152.2878  138.4777  155.9120 C   0  0  0  0  0  0  0  0  0  0  0  0
  154.0898  141.7394  158.8881 H   0  0  0  0  0  0  0  0  0  0  0  0
  152.6585  140.8933  158.2905 H   0  0  0  0  0  0  0  0  0  0  0  0
  153.0892  140.7886  159.9785 H   0  0  0  0  0  0  0  0  0  0  0  0
  151.1731  142.3682  159.5422 H   0  0  0  0  0  0  0  0  0  0  0  0
  152.5676  142.5499  161.5711 H   0  0  0  0  0  0  0  0  0  0  0  0
  153.6848  143.6054  160.7431 H   0  0  0  0  0  0  0  0  0  0  0  0
  150.7500  144.1981  161.3557 H   0  0  0  0  0  0  0  0  0  0  0  0
  152.1351  144.9324  162.1288 H   0  0  0  0  0  0  0  0  0  0  0  0
  151.1671  146.4228  160.3689 H   0  0  0  0  0  0  0  0  0  0  0  0
  152.8238  145.9969  160.0094 H   0  0  0  0  0  0  0  0  0  0  0  0
  150.3271  144.7152  158.7978 H   0  0  0  0  0  0  0  0  0  0  0  0
  151.4345  145.7927  157.9856 H   0  0  0  0  0  0  0  0  0  0  0  0
  153.2625  144.1553  158.2126 H   0  0  0  0  0  0  0  0  0  0  0  0
  151.8749  144.0738  156.1897 H   0  0  0  0  0  0  0  0  0  0  0  0
  152.3686  142.4476  156.6111 H   0  0  0  0  0  0  0  0  0  0  0  0
  150.0591  142.7609  157.9423 H   0  0  0  0  0  0  0  0  0  0  0  0
  149.0877  141.2229  156.4587 H   0  0  0  0  0  0  0  0  0  0  0  0
  150.2758  141.6462  155.2402 H   0  0  0  0  0  0  0  0  0  0  0  0
  152.0202  140.8849  157.1492 H   0  0  0  0  0  0  0  0  0  0  0  0
  150.6453  139.9897  157.7626 H   0  0  0  0  0  0  0  0  0  0  0  0
  149.7568  139.7584  154.4218 H   0  0  0  0  0  0  0  0  0  0  0  0
  150.9318  137.5707  153.1955 H   0  0  0  0  0  0  0  0  0  0  0  0
  153.0143  138.4100  156.7087 H   0  0  0  0  0  0  0  0  0  0  0  0
  149.7919  143.5176  156.5117 H   0  0  0  0  0  0  0  0  0  0  0  0
  1  2  1  0  0  0  0
  1 17  1  0  0  0  0
  1 18  1  0  0  0  0
  1 19  1  0  0  0  0
  2  7  1  0  0  0  0
  2  3  1  0  0  0  0
  2 20  1  0  0  0  0
  3  4  1  0  0  0  0
  3 21  1  0  0  0  0
  3 22  1  0  0  0  0
  4  5  1  0  0  0  0
  4 23  1  0  0  0  0
  4 24  1  0  0  0  0
  5  6  1  0  0  0  0
  5 25  1  0  0  0  0
  5 26  1  0  0  0  0
  6  7  1  0  0  0  0
  6 27  1  0  0  0  0
  6 28  1  0  0  0  0
  7  8  1  0  0  0  0
  7 29  1  0  0  0  0
  8  9  1  0  0  0  0
  8 30  1  0  0  0  0
  8 31  1  0  0  0  0
  9 10  1  0  0  0  0
  9 32  1  0  0  0  0
  9 40  1  0  0  0  0
 10 11  1  0  0  0  0
 10 33  1  0  0  0  0
 10 34  1  0  0  0  0
 11 12  1  0  0  0  0
 11 35  1  0  0  0  0
 11 36  1  0  0  0  0
 12 16  1  0  0  0  0
 12 13  1  0  0  0  0
 13 14  2  0  0  0  0
 13 37  1  0  0  0  0
 14 15  1  0  0  0  0
 14 38  1  0  0  0  0
 15 16  2  0  0  0  0
 16 39  1  0  0  0  0
M  CHG  1   9   1
M  END
> <s_m_source_file>
AV-unprocessed.smi

> <i_m_source_file_index>
3193

> <i_lp_mmshare_version>
43012

> <i_f3d_flags>
0

> <s_epik_input>
W0NIM11bQ0BASF0xW0NIMl1bQ0gyXVtDSDJdW0NIMl1bQ0BIXTFbQ0gyXVtOSF1bQ0gyXVtDSDJdbjJbY0hdW2NIXW5bY0hdMg==

> <s_epik_cmdline>
J2VwaWtfcHl0aG9uJywgJy1waCcsICc3LjAnLCAnLXRuJywgJzgnLCAnLW1hJywgJzIwMCcsICctbWV0YWxfYmluZGluZycsICctaW1hZScsICc8aW5maWxlLm1hZT4nLCAnLW9tYWUnLCAnPG91dGZpbGUubWFlPic=

> <r_lp_tautomer_probability>
1

> <r_epik_Ionization_Penalty>
0.0503046

> <r_epik_Ionization_Penalty_Charging>
0.0503046

> <r_epik_Ionization_Penalty_Neutral>
0

> <r_epik_State_Penalty>
0.0981804

> <r_epik_Charging_Adjusted_Penalty>
0.148485

> <i_epik_Tot_Q>
1

> <i_epik_Tot_abs_Q>
1

> <r_epik_Metal_State_Penalty>
0.000105854

> <b_epik_Metal_Only>
0

> <s_lp_Force_Field>
OPLS_2005

> <r_lp_Energy>
18.894

> <b_lp_Chiralities_Consistent>
1

> <s_lp_Variant>
AV-unprocessed.smi:3193-4

> <Gold.Version>
5.8.1

> <Gold.Id.Protein>
6NUR|6NUR_protein|mol2

> <Gold.PLP.Fitness>
51.9202

> <Gold.PLP.PLP>
-42.5196

> <Gold.PLP.part.hbond>
-2.0000

> <Gold.PLP.part.metal>
0.0000

> <Gold.PLP.part.buried>
-5.4175

> <Gold.PLP.part.nonpolar>
-36.2515

> <Gold.PLP.part.repulsive>
0.0908

> <Gold.PLP.ligand.clash>
0.0000

> <Gold.PLP.ligand.torsion>
0.6918

> <Gold.PLP.Chemscore.Hbond>
2.4805

> <Gold.PLP.Chemscore.CHOScore>
1.1097

> <Gold.PLP.Chemscore.Metal>
0.0000

> <Gold.Chemscore.Hbonds>
donor molecule, donor type, donor heavy atom, donor atom, acceptor molecule, acceptor atom, score
      L1  H     9    40       P1  8028  2.00
      P1  H 10752 10763       L1    15  0.48
      L1  C    14    38       P1  7948  0.13
      L1  C    14    38       P1  7949  0.98

> <Gold.PLP.Chemscore.Internal.Correction>
0.0136

> <Gold.Rescore>
     Score         DG    S(hbond)    S(metal)    S(lipo)     H(rot)  DE(clash)    DE(int)     intcor
     19.06     -20.99       1.81        0.00     122.20       1.89       1.45       0.49       ----

> <Gold.Chemscore.Fitness>
19.0586

> <Gold.Chemscore.DG>
-20.9932

> <Gold.Chemscore.ZeroCoef>
-5.4800

> <Gold.Chemscore.Hbond>
1.8122

> <Gold.Chemscore.Metal>
0.0000

> <Gold.Chemscore.Lipo>
122.2017

> <Gold.Chemscore.Internal_Hbond>
0.0000

> <Gold.Chemscore.DEClash>
1.4460

> <Gold.Chemscore.DEInternal>
0.4887

> <Gold.Chemscore.Rot>
1.8895

> <Gold.Chemscore.Internal.Correction>
   9.000000E+99

> <Gold.Chemscore.Hbonds>
donor molecule, donor type, donor heavy atom, donor atom, acceptor molecule, acceptor atom, score
      L1  H     9    40       P1  8028  1.00
      P1  H 10752 10763       L1    15  0.44

> <Gold.Chemscore.Hbond.Weighted>
-6.0527

> <Gold.Chemscore.Metal.Weighted>
-0.0000

> <Gold.Chemscore.Lipo.Weighted>
-14.2976

> <Gold.Chemscore.Internal_Hbond.Weighted>
0.0000

> <Gold.Chemscore.DEClash.Weighted>
1.4460

> <Gold.Chemscore.DEInternal.Weighted>
0.4887

> <Gold.Chemscore.Rot.Weighted>
4.8371

> <Gold.Chemscore.Internal.Correction.Weighted>
   9.000000E+99

> <Gold.Protein.RotatedTorsions>
[ 6907 6896 6895 6894 ] final  160.68 input  -60.11 | X-H torsion
[ 7974 7965 7964 7962 ] final  167.24 input  175.53 | X-H torsion
[ 8008 7997 7996 7995 ] final -132.84 input   59.86 | X-H torsion
[ 10167 10162 10161 10158 ] final   37.22 input  -65.29 | X-H torsion
[ 10718 10713 10712 10709 ] final  -14.44 input   66.30 | X-H torsion
[ 10763 10752 10751 10750 ] final   50.08 input  -60.55 | X-H torsion
[ 11005 11000 10999 10996 ] final   41.11 input  -57.11 | X-H torsion

> <Gold.Protein.ActiveResidues>
 VAL166  LYS551  ARG553  GLY616  TRP617  ASP618  TYR619  PRO620  LYS621  CYS622 
 ASP623  PHE694  ASN695  SER759  ASP760  ASP761  ALA762  ILE779  LEU786  VAL792 
 PHE793  MET794  SER795  GLU796  ALA797  LYS798  CYS799  TRP800  GLU811  SER814 

> <Gold.Protein.RotatedAtoms>
  151.9670  133.3713  159.4056 H   0  0  0  0  0  0  0  0  0  0  0  0  # atno 6907 bound_to 6896
  150.6955  134.4180  159.5201 H   0  0  0  0  0  0  0  0  0  0  0  0  # atno 6908 bound_to 6896
  152.1878  134.8698  160.0571 H   0  0  0  0  0  0  0  0  0  0  0  0  # atno 6909 bound_to 6896
  144.7432  139.8731  143.6390 H   0  0  0  0  0  0  0  0  0  0  0  0  # atno 7974 bound_to 7965
  155.3357  140.0469  157.3044 H   0  0  0  0  0  0  0  0  0  0  0  0  # atno 8008 bound_to 7997
  154.5304  140.2255  155.8779 H   0  0  0  0  0  0  0  0  0  0  0  0  # atno 8009 bound_to 7997
  156.1783  140.3080  155.9106 H   0  0  0  0  0  0  0  0  0  0  0  0  # atno 8010 bound_to 7997
  140.4053  144.1667  150.6136 H   0  0  0  0  0  0  0  0  0  0  0  0  # atno 10167 bound_to 10162
  156.6159  130.4862  149.6183 H   0  0  0  0  0  0  0  0  0  0  0  0  # atno 10718 bound_to 10713
  152.9785  135.5890  154.4194 H   0  0  0  0  0  0  0  0  0  0  0  0  # atno 10763 bound_to 10752
  154.3821  135.2767  155.2207 H   0  0  0  0  0  0  0  0  0  0  0  0  # atno 10764 bound_to 10752
  154.4116  135.6080  153.6011 H   0  0  0  0  0  0  0  0  0  0  0  0  # atno 10765 bound_to 10752
  140.1866  134.4038  155.8170 H   0  0  0  0  0  0  0  0  0  0  0  0  # atno 11005 bound_to 11000
  146.1265  139.4292  143.0195 LP  0  0  0  0  0  0  0  0  0  0  0  0  # atno 17320 bound_to 7965
  145.7226  141.0069  143.1394 LP  0  0  0  0  0  0  0  0  0  0  0  0  # atno 17321 bound_to 7965
  140.4696  143.2418  151.9107 LP  0  0  0  0  0  0  0  0  0  0  0  0  # atno 17342 bound_to 10162
  139.4783  144.5383  151.8565 LP  0  0  0  0  0  0  0  0  0  0  0  0  # atno 17343 bound_to 10162
  156.2352  130.6818  151.1502 LP  0  0  0  0  0  0  0  0  0  0  0  0  # atno 17370 bound_to 10713
  157.7241  131.0662  150.6008 LP  0  0  0  0  0  0  0  0  0  0  0  0  # atno 17371 bound_to 10713
  141.2225  133.7026  156.8023 LP  0  0  0  0  0  0  0  0  0  0  0  0  # atno 17394 bound_to 11000
  140.2207  134.8759  157.3374 LP  0  0  0  0  0  0  0  0  0  0  0  0  # atno 17395 bound_to 11000

$$$$
