AV-unprocessed.smi:1031|AV-procd|sdf|4481|dock9
  -GOLD-   22720 2463D 1   1.00000     0.00000
 Structure written by MMmdl.
 35 36  0  0  0  0  0  0  0  0  1 V2000
  150.0872  140.2872  158.1045 C   0  0  0  0  0  0  0  0  0  0  0  0
  151.5864  140.2512  157.7788 C   0  0  1  0  0  0  0  0  0  0  0  0
  151.8431  140.5332  156.2828 C   0  0  0  0  0  0  0  0  0  0  0  0
  151.4232  139.4405  155.4234 N   0  0  0  0  0  0  0  0  0  0  0  0
  151.7493  138.1035  155.5151 C   0  0  0  0  0  0  0  0  0  0  0  0
  151.1061  137.4579  154.4986 C   0  0  0  0  0  0  0  0  0  0  0  0
  150.4051  138.4988  153.8277 C   0  0  0  0  0  0  0  0  0  0  0  0
  150.6002  139.6850  154.3808 N   0  0  0  0  0  0  0  0  0  0  0  0
  152.2758  141.2299  158.6190 N   0  0  0  0  0  0  0  0  0  0  0  0
  152.2320  142.5636  158.4691 C   0  0  0  0  0  0  0  0  0  0  0  0
  151.5976  143.1237  157.5742 O   0  0  0  0  0  0  0  0  0  0  0  0
  153.0188  143.3908  159.4982 C   0  0  0  0  0  0  0  0  0  0  0  0
  153.3372  142.5733  160.7724 C   0  0  0  0  0  0  0  0  0  0  0  0
  152.6698  143.2993  161.9478 C   0  0  0  0  0  0  0  0  0  0  0  0
  151.5967  144.1836  161.3197 C   0  0  0  0  0  0  0  0  0  0  0  0
  152.2101  144.6080  159.9865 C   0  0  0  0  0  0  0  0  0  0  0  0
  149.5411  139.5462  157.5202 H   0  0  0  0  0  0  0  0  0  0  0  0
  149.6559  141.2652  157.8879 H   0  0  0  0  0  0  0  0  0  0  0  0
  149.9088  140.0699  159.1582 H   0  0  0  0  0  0  0  0  0  0  0  0
  151.9408  139.2456  158.0127 H   0  0  0  0  0  0  0  0  0  0  0  0
  151.3050  141.4304  155.9731 H   0  0  0  0  0  0  0  0  0  0  0  0
  152.9013  140.7307  156.1054 H   0  0  0  0  0  0  0  0  0  0  0  0
  152.3980  137.7265  156.2923 H   0  0  0  0  0  0  0  0  0  0  0  0
  151.1306  136.4029  154.2702 H   0  0  0  0  0  0  0  0  0  0  0  0
  149.7651  138.4282  152.9605 H   0  0  0  0  0  0  0  0  0  0  0  0
  152.8241  140.8622  159.3831 H   0  0  0  0  0  0  0  0  0  0  0  0
  153.9459  143.7381  159.0383 H   0  0  0  0  0  0  0  0  0  0  0  0
  152.9555  141.5527  160.7072 H   0  0  0  0  0  0  0  0  0  0  0  0
  154.4129  142.4915  160.9314 H   0  0  0  0  0  0  0  0  0  0  0  0
  152.2606  142.6104  162.6875 H   0  0  0  0  0  0  0  0  0  0  0  0
  153.4056  143.9263  162.4528 H   0  0  0  0  0  0  0  0  0  0  0  0
  150.6917  143.6003  161.1442 H   0  0  0  0  0  0  0  0  0  0  0  0
  151.3302  145.0329  161.9493 H   0  0  0  0  0  0  0  0  0  0  0  0
  152.8840  145.4506  160.1462 H   0  0  0  0  0  0  0  0  0  0  0  0
  151.4493  144.9394  159.2778 H   0  0  0  0  0  0  0  0  0  0  0  0
  1  2  1  0  0  0  0
  1 17  1  0  0  0  0
  1 18  1  0  0  0  0
  1 19  1  0  0  0  0
  2  3  1  0  0  0  0
  2  9  1  0  0  0  0
  2 20  1  0  0  0  0
  3  4  1  0  0  0  0
  3 21  1  0  0  0  0
  3 22  1  0  0  0  0
  4  8  1  0  0  0  0
  4  5  1  0  0  0  0
  5  6  2  0  0  0  0
  5 23  1  0  0  0  0
  6  7  1  0  0  0  0
  6 24  1  0  0  0  0
  7  8  2  0  0  0  0
  7 25  1  0  0  0  0
  9 10  1  0  0  0  0
  9 26  1  0  0  0  0
 10 11  2  0  0  0  0
 10 12  1  0  0  0  0
 12 16  1  0  0  0  0
 12 13  1  0  0  0  0
 12 27  1  0  0  0  0
 13 14  1  0  0  0  0
 13 28  1  0  0  0  0
 13 29  1  0  0  0  0
 14 15  1  0  0  0  0
 14 30  1  0  0  0  0
 14 31  1  0  0  0  0
 15 16  1  0  0  0  0
 15 32  1  0  0  0  0
 15 33  1  0  0  0  0
 16 34  1  0  0  0  0
 16 35  1  0  0  0  0
M  END
> <s_m_source_file>
AV-unprocessed.smi

> <i_m_source_file_index>
1031

> <i_lp_mmshare_version>
43012

> <i_f3d_flags>
0

> <s_epik_input>
bjFbY0hdW2NIXVtjSF1uMVtDSDJdW0NAQEhdKFtDSDNdKVtOSF1DKD1PKVtDSF0yW0NIMl1bQ0gyXVtDSDJdW0NIMl0y

> <s_epik_cmdline>
J2VwaWtfcHl0aG9uJywgJy1waCcsICc3LjAnLCAnLXRuJywgJzgnLCAnLW1hJywgJzIwMCcsICctbWV0YWxfYmluZGluZycsICctaW1hZScsICc8aW5maWxlLm1hZT4nLCAnLW9tYWUnLCAnPG91dGZpbGUubWFlPic=

> <r_lp_tautomer_probability>
1

> <r_epik_Ionization_Penalty>
0.000326659

> <r_epik_Ionization_Penalty_Charging>
0

> <r_epik_Ionization_Penalty_Neutral>
0.000326659

> <r_epik_State_Penalty>
-0

> <r_epik_Charging_Adjusted_Penalty>
0

> <i_epik_Tot_Q>
0

> <i_epik_Tot_abs_Q>
0

> <r_epik_Metal_State_Penalty>
-0

> <b_epik_Metal_Only>
0

> <s_lp_Force_Field>
OPLS_2005

> <r_lp_Energy>
19.4397

> <b_lp_Chiralities_Consistent>
1

> <s_lp_Variant>
AV-unprocessed.smi:1031-2

> <Gold.Version>
5.8.1

> <Gold.Id.Protein>
6NUR|6NUR_protein|mol2

> <Gold.PLP.Fitness>
44.2153

> <Gold.PLP.PLP>
-36.9314

> <Gold.PLP.part.hbond>
-1.0000

> <Gold.PLP.part.metal>
0.0000

> <Gold.PLP.part.buried>
-3.7623

> <Gold.PLP.part.nonpolar>
-31.0394

> <Gold.PLP.part.repulsive>
0.3119

> <Gold.PLP.ligand.clash>
0.0000

> <Gold.PLP.ligand.torsion>
0.7346

> <Gold.PLP.Chemscore.Hbond>
1.0000

> <Gold.PLP.Chemscore.CHOScore>
1.9113

> <Gold.PLP.Chemscore.Metal>
0.0000

> <Gold.Chemscore.Hbonds>
donor molecule, donor type, donor heavy atom, donor atom, acceptor molecule, acceptor atom, score
      P1  H  7989  7998       L1     8  0.95
      L1  C     7    25       P1  7948  0.89
      L1  C     7    25       P1  7957  0.93

> <Gold.PLP.Chemscore.Internal.Correction>
0.0191

> <Gold.Rescore>
     Score         DG    S(hbond)    S(metal)    S(lipo)     H(rot)  DE(clash)    DE(int)     intcor
     14.64     -16.18       0.96        0.00      97.14       1.51       0.03       1.51       ----

> <Gold.Chemscore.Fitness>
14.6377

> <Gold.Chemscore.DG>
-16.1810

> <Gold.Chemscore.ZeroCoef>
-5.4800

> <Gold.Chemscore.Hbond>
0.9619

> <Gold.Chemscore.Metal>
0.0000

> <Gold.Chemscore.Lipo>
97.1421

> <Gold.Chemscore.Internal_Hbond>
0.0000

> <Gold.Chemscore.DEClash>
0.0294

> <Gold.Chemscore.DEInternal>
1.5139

> <Gold.Chemscore.Rot>
1.5146

> <Gold.Chemscore.Internal.Correction>
   9.000000E+99

> <Gold.Chemscore.Hbonds>
donor molecule, donor type, donor heavy atom, donor atom, acceptor molecule, acceptor atom, score
      P1  H  7989  7998       L1     8  0.20

> <Gold.Chemscore.Hbond.Weighted>
-3.2127

> <Gold.Chemscore.Metal.Weighted>
-0.0000

> <Gold.Chemscore.Lipo.Weighted>
-11.3656

> <Gold.Chemscore.Internal_Hbond.Weighted>
0.0000

> <Gold.Chemscore.DEClash.Weighted>
0.0294

> <Gold.Chemscore.DEInternal.Weighted>
1.5139

> <Gold.Chemscore.Rot.Weighted>
3.8773

> <Gold.Chemscore.Internal.Correction.Weighted>
   9.000000E+99

> <Gold.Protein.RotatedTorsions>
[ 6907 6896 6895 6894 ] final   82.83 input  -60.11 | X-H torsion
[ 7974 7965 7964 7962 ] final  148.69 input  175.53 | X-H torsion
[ 8008 7997 7996 7995 ] final   56.90 input   59.86 | X-H torsion
[ 10167 10162 10161 10158 ] final -151.24 input  -65.29 | X-H torsion
[ 10718 10713 10712 10709 ] final  -24.07 input   66.30 | X-H torsion
[ 10763 10752 10751 10750 ] final  -76.11 input  -60.55 | X-H torsion
[ 11005 11000 10999 10996 ] final   50.28 input  -57.11 | X-H torsion

> <Gold.Protein.ActiveResidues>
 VAL166  LYS551  ARG553  GLY616  TRP617  ASP618  TYR619  PRO620  LYS621  CYS622 
 ASP623  PHE694  ASN695  SER759  ASP760  ASP761  ALA762  ILE779  LEU786  VAL792 
 PHE793  MET794  SER795  GLU796  ALA797  LYS798  CYS799  TRP800  GLU811  SER814 

> <Gold.Protein.RotatedAtoms>
  152.5310  134.2989  159.9070 H   0  0  0  0  0  0  0  0  0  0  0  0  # atno 6907 bound_to 6896
  151.2940  133.4146  159.2642 H   0  0  0  0  0  0  0  0  0  0  0  0  # atno 6908 bound_to 6896
  151.0176  134.9461  159.8099 H   0  0  0  0  0  0  0  0  0  0  0  0  # atno 6909 bound_to 6896
  144.8494  139.6186  143.5980 H   0  0  0  0  0  0  0  0  0  0  0  0  # atno 7974 bound_to 7965
  155.5251  140.3480  155.4414 H   0  0  0  0  0  0  0  0  0  0  0  0  # atno 8008 bound_to 7997
  156.0758  140.1374  156.9801 H   0  0  0  0  0  0  0  0  0  0  0  0  # atno 8009 bound_to 7997
  154.4552  140.0956  156.6712 H   0  0  0  0  0  0  0  0  0  0  0  0  # atno 8010 bound_to 7997
  139.7285  143.8846  152.2527 H   0  0  0  0  0  0  0  0  0  0  0  0  # atno 10167 bound_to 10162
  156.4826  130.4548  149.6803 H   0  0  0  0  0  0  0  0  0  0  0  0  # atno 10718 bound_to 10713
  154.4955  135.5808  153.6491 H   0  0  0  0  0  0  0  0  0  0  0  0  # atno 10763 bound_to 10752
  152.9869  135.6123  154.3070 H   0  0  0  0  0  0  0  0  0  0  0  0  # atno 10764 bound_to 10752
  154.2973  135.2847  155.2606 H   0  0  0  0  0  0  0  0  0  0  0  0  # atno 10765 bound_to 10752
  140.1031  134.5054  155.8744 H   0  0  0  0  0  0  0  0  0  0  0  0  # atno 11005 bound_to 11000
  146.2772  139.6784  142.9254 LP  0  0  0  0  0  0  0  0  0  0  0  0  # atno 17320 bound_to 7965
  145.4530  141.0429  143.2794 LP  0  0  0  0  0  0  0  0  0  0  0  0  # atno 17321 bound_to 7965
  139.8762  144.7042  150.8930 LP  0  0  0  0  0  0  0  0  0  0  0  0  # atno 17342 bound_to 10162
  140.7767  143.3698  151.1671 LP  0  0  0  0  0  0  0  0  0  0  0  0  # atno 17343 bound_to 10162
  156.3506  130.7430  151.2389 LP  0  0  0  0  0  0  0  0  0  0  0  0  # atno 17370 bound_to 10713
  157.7482  131.0378  150.4473 LP  0  0  0  0  0  0  0  0  0  0  0  0  # atno 17371 bound_to 10713
  141.2111  133.6702  156.6558 LP  0  0  0  0  0  0  0  0  0  0  0  0  # atno 17394 bound_to 11000
  140.3192  134.8021  157.4239 LP  0  0  0  0  0  0  0  0  0  0  0  0  # atno 17395 bound_to 11000

$$$$
