AV-unprocessed.smi:1208|AV-procd|sdf|5068|dock10
  -GOLD-   22720 4113D 1   1.00000     0.00000
 Structure written by MMmdl.
 36 37  0  0  0  0  0  0  0  0  1 V2000
  151.0475  144.8566  159.5669 C   0  0  0  0  0  0  0  0  0  0  0  0
  151.3779  143.3581  159.4865 C   0  0  1  0  0  0  0  0  0  0  0  0
  151.4543  142.9769  158.0781 N   0  0  0  0  0  0  0  0  0  0  0  0
  150.5726  142.2013  157.4282 C   0  0  0  0  0  0  0  0  0  0  0  0
  149.5734  141.7201  157.9649 O   0  0  0  0  0  0  0  0  0  0  0  0
  150.8885  141.9306  155.9494 C   0  0  0  0  0  0  0  0  0  0  0  0
  150.8630  140.5046  155.5920 N   0  0  0  0  0  0  0  0  0  0  0  0
  149.8664  140.1675  154.6885 N   0  0  0  0  0  0  0  0  0  0  0  0
  149.7516  138.9493  154.2801 C   0  0  0  0  0  0  0  0  0  0  0  0
  148.7533  138.6609  153.3823 O   0  0  0  0  0  0  0  0  0  0  0  0
  150.6451  137.9144  154.7512 C   0  0  0  0  0  0  0  0  0  0  0  0
  151.6111  138.2517  155.6334 C   0  0  0  0  0  0  0  0  0  0  0  0
  151.7713  139.6249  156.1156 C   0  0  0  0  0  0  0  0  0  0  0  0
  152.6444  139.9607  156.9156 O   0  0  0  0  0  0  0  0  0  0  0  0
  152.7019  143.0115  160.2008 C   0  0  1  0  0  0  0  0  0  0  0  0
  152.6887  143.2273  161.7140 C   0  0  0  0  0  0  0  0  0  0  0  0
  153.7938  142.3101  162.2105 C   0  0  0  0  0  0  0  0  0  0  0  0
  153.9941  141.3162  161.0633 C   0  0  0  0  0  0  0  0  0  0  0  0
  152.9791  141.6214  160.1171 O   0  0  0  0  0  0  0  0  0  0  0  0
  149.0830  137.9432  152.8637 H   0  0  0  0  0  0  0  0  0  0  0  0
  150.9202  145.1818  160.5994 H   0  0  0  0  0  0  0  0  0  0  0  0
  150.1192  145.0818  159.0411 H   0  0  0  0  0  0  0  0  0  0  0  0
  151.8377  145.4626  159.1221 H   0  0  0  0  0  0  0  0  0  0  0  0
  150.5628  142.8144  159.9677 H   0  0  0  0  0  0  0  0  0  0  0  0
  152.2469  143.3245  157.5582 H   0  0  0  0  0  0  0  0  0  0  0  0
  150.1878  142.4921  155.3290 H   0  0  0  0  0  0  0  0  0  0  0  0
  151.8719  142.3488  155.7269 H   0  0  0  0  0  0  0  0  0  0  0  0
  150.5350  136.8990  154.3997 H   0  0  0  0  0  0  0  0  0  0  0  0
  152.2857  137.4890  155.9932 H   0  0  0  0  0  0  0  0  0  0  0  0
  153.5321  143.5636  159.7555 H   0  0  0  0  0  0  0  0  0  0  0  0
  152.8469  144.2686  161.9957 H   0  0  0  0  0  0  0  0  0  0  0  0
  151.7331  142.9059  162.1308 H   0  0  0  0  0  0  0  0  0  0  0  0
  154.7133  142.8672  162.3939 H   0  0  0  0  0  0  0  0  0  0  0  0
  153.5101  141.8138  163.1390 H   0  0  0  0  0  0  0  0  0  0  0  0
  154.9721  141.4555  160.6008 H   0  0  0  0  0  0  0  0  0  0  0  0
  153.9170  140.2793  161.3912 H   0  0  0  0  0  0  0  0  0  0  0  0
  1  2  1  0  0  0  0
  1 21  1  0  0  0  0
  1 22  1  0  0  0  0
  1 23  1  0  0  0  0
  2  3  1  0  0  0  0
  2 15  1  0  0  0  0
  2 24  1  0  0  0  0
  3  4  1  0  0  0  0
  3 25  1  0  0  0  0
  4  5  2  0  0  0  0
  4  6  1  0  0  0  0
  6 26  1  0  0  0  0
  6 27  1  0  0  0  0
  6  7  1  0  0  0  0
  7  8  1  0  0  0  0
  7 13  1  0  0  0  0
  8  9  2  0  0  0  0
  9 10  1  0  0  0  0
  9 11  1  0  0  0  0
 10 20  1  0  0  0  0
 11 28  1  0  0  0  0
 11 12  2  0  0  0  0
 12 29  1  0  0  0  0
 12 13  1  0  0  0  0
 13 14  2  0  0  0  0
 15 19  1  0  0  0  0
 15 16  1  0  0  0  0
 15 30  1  0  0  0  0
 16 17  1  0  0  0  0
 16 31  1  0  0  0  0
 16 32  1  0  0  0  0
 17 18  1  0  0  0  0
 17 33  1  0  0  0  0
 17 34  1  0  0  0  0
 18 19  1  0  0  0  0
 18 35  1  0  0  0  0
 18 36  1  0  0  0  0
M  END
> <s_m_source_file>
AV-unprocessed.smi

> <i_m_source_file_index>
1208

> <i_lp_mmshare_version>
43012

> <i_f3d_flags>
0

> <s_epik_input>
TzFbQ0gyXVtDSDJdW0NIMl1bQ0BIXTFbQ0BIXShbQ0gzXSlbTkhdQyg9TylbQ0gyXW4yW25IXWMoPU8pW2NIXVtjSF1jMj1P

> <s_epik_cmdline>
J2VwaWtfcHl0aG9uJywgJy1waCcsICc3LjAnLCAnLXRuJywgJzgnLCAnLW1hJywgJzIwMCcsICctbWV0YWxfYmluZGluZycsICctaW1hZScsICc8aW5maWxlLm1hZT4nLCAnLW9tYWUnLCAnPG91dGZpbGUubWFlPic=

> <r_lp_tautomer_probability>
0.9996

> <r_epik_Ionization_Penalty>
2.12735

> <r_epik_Ionization_Penalty_Charging>
3.86665e-08

> <r_epik_Ionization_Penalty_Neutral>
2.12735

> <r_epik_State_Penalty>
1.70441

> <r_epik_Charging_Adjusted_Penalty>
1.70441

> <i_epik_Tot_Q>
0

> <i_epik_Tot_abs_Q>
0

> <r_epik_Metal_State_Penalty>
1.70441

> <b_epik_Metal_Only>
0

> <s_lp_Force_Field>
OPLS_2005

> <r_lp_Energy>
29.9915

> <b_lp_Chiralities_Consistent>
1

> <s_lp_Variant>
AV-unprocessed.smi:1208-8

> <Gold.Version>
5.8.1

> <Gold.Id.Protein>
6NUR|6NUR_protein|mol2

> <Gold.PLP.Fitness>
48.9064

> <Gold.PLP.PLP>
-43.2563

> <Gold.PLP.part.hbond>
-4.0000

> <Gold.PLP.part.metal>
0.0000

> <Gold.PLP.part.buried>
-6.1598

> <Gold.PLP.part.nonpolar>
-32.5201

> <Gold.PLP.part.repulsive>
0.2060

> <Gold.PLP.ligand.clash>
0.0000

> <Gold.PLP.ligand.torsion>
0.1867

> <Gold.PLP.Chemscore.Hbond>
2.0000

> <Gold.PLP.Chemscore.CHOScore>
0.0000

> <Gold.PLP.Chemscore.Metal>
0.0000

> <Gold.Chemscore.Hbonds>
donor molecule, donor type, donor heavy atom, donor atom, acceptor molecule, acceptor atom, score
      L1  H    10    20       P1  7948  1.00
      P1  H  7997  8008       L1    14  1.00

> <Gold.PLP.Chemscore.Internal.Correction>
0.0235

> <Gold.Rescore>
     Score         DG    S(hbond)    S(metal)    S(lipo)     H(rot)  DE(clash)    DE(int)     intcor
     15.21     -15.46       2.00        0.00      85.80       2.63       0.02       0.24       ----

> <Gold.Chemscore.Fitness>
15.2051

> <Gold.Chemscore.DG>
-15.4620

> <Gold.Chemscore.ZeroCoef>
-5.4800

> <Gold.Chemscore.Hbond>
1.9962

> <Gold.Chemscore.Metal>
0.0000

> <Gold.Chemscore.Lipo>
85.7991

> <Gold.Chemscore.Internal_Hbond>
0.0000

> <Gold.Chemscore.DEClash>
0.0155

> <Gold.Chemscore.DEInternal>
0.2414

> <Gold.Chemscore.Rot>
2.6264

> <Gold.Chemscore.Internal.Correction>
   9.000000E+99

> <Gold.Chemscore.Hbonds>
donor molecule, donor type, donor heavy atom, donor atom, acceptor molecule, acceptor atom, score
      L1  H    10    20       P1  7948  0.97
      P1  H  7997  8008       L1    14  0.99

> <Gold.Chemscore.Hbond.Weighted>
-6.6672

> <Gold.Chemscore.Metal.Weighted>
-0.0000

> <Gold.Chemscore.Lipo.Weighted>
-10.0385

> <Gold.Chemscore.Internal_Hbond.Weighted>
0.0000

> <Gold.Chemscore.DEClash.Weighted>
0.0155

> <Gold.Chemscore.DEInternal.Weighted>
0.2414

> <Gold.Chemscore.Rot.Weighted>
6.7237

> <Gold.Chemscore.Internal.Correction.Weighted>
   9.000000E+99

> <Gold.Protein.RotatedTorsions>
[ 6907 6896 6895 6894 ] final  -38.43 input  -60.11 | X-H torsion
[ 7974 7965 7964 7962 ] final  -86.53 input  175.53 | X-H torsion
[ 8008 7997 7996 7995 ] final  -52.15 input   59.86 | X-H torsion
[ 10167 10162 10161 10158 ] final  117.50 input  -65.29 | X-H torsion
[ 10718 10713 10712 10709 ] final  -37.74 input   66.30 | X-H torsion
[ 10763 10752 10751 10750 ] final  -34.34 input  -60.55 | X-H torsion
[ 11005 11000 10999 10996 ] final -172.26 input  -57.11 | X-H torsion

> <Gold.Protein.ActiveResidues>
 VAL166  LYS551  ARG553  GLY616  TRP617  ASP618  TYR619  PRO620  LYS621  CYS622 
 ASP623  PHE694  ASN695  SER759  ASP760  ASP761  ALA762  ILE779  LEU786  VAL792 
 PHE793  MET794  SER795  GLU796  ALA797  LYS798  CYS799  TRP800  GLU811  SER814 

> <Gold.Protein.RotatedAtoms>
  151.0025  134.9333  159.7961 H   0  0  0  0  0  0  0  0  0  0  0  0  # atno 6907 bound_to 6896
  152.5282  134.3135  159.9132 H   0  0  0  0  0  0  0  0  0  0  0  0  # atno 6908 bound_to 6896
  151.3140  133.4026  159.2683 H   0  0  0  0  0  0  0  0  0  0  0  0  # atno 6909 bound_to 6896
  145.4786  140.9557  143.1877 H   0  0  0  0  0  0  0  0  0  0  0  0  # atno 7974 bound_to 7965
  154.4099  140.1231  156.4945 H   0  0  0  0  0  0  0  0  0  0  0  0  # atno 8008 bound_to 7997
  155.6957  140.3495  155.4892 H   0  0  0  0  0  0  0  0  0  0  0  0  # atno 8009 bound_to 7997
  155.9429  140.1090  157.1030 H   0  0  0  0  0  0  0  0  0  0  0  0  # atno 8010 bound_to 7997
  139.6175  144.7095  151.2708 H   0  0  0  0  0  0  0  0  0  0  0  0  # atno 10167 bound_to 10162
  156.3117  130.4253  149.8044 H   0  0  0  0  0  0  0  0  0  0  0  0  # atno 10718 bound_to 10713
  153.8451  135.6854  153.4798 H   0  0  0  0  0  0  0  0  0  0  0  0  # atno 10763 bound_to 10752
  153.1430  135.4649  154.9523 H   0  0  0  0  0  0  0  0  0  0  0  0  # atno 10764 bound_to 10752
  154.7827  135.3274  154.7901 H   0  0  0  0  0  0  0  0  0  0  0  0  # atno 10765 bound_to 10752
  140.4990  134.5912  157.4981 H   0  0  0  0  0  0  0  0  0  0  0  0  # atno 11005 bound_to 11000
  144.7902  139.6344  143.7116 LP  0  0  0  0  0  0  0  0  0  0  0  0  # atno 17320 bound_to 7965
  146.2354  139.5895  142.9527 LP  0  0  0  0  0  0  0  0  0  0  0  0  # atno 17321 bound_to 7965
  140.7360  143.6720  150.8074 LP  0  0  0  0  0  0  0  0  0  0  0  0  # atno 17342 bound_to 10162
  140.0325  143.5429  152.2754 LP  0  0  0  0  0  0  0  0  0  0  0  0  # atno 17343 bound_to 10162
  156.5385  130.8289  151.3261 LP  0  0  0  0  0  0  0  0  0  0  0  0  # atno 17370 bound_to 10713
  157.7392  130.9828  150.2301 LP  0  0  0  0  0  0  0  0  0  0  0  0  # atno 17371 bound_to 10713
  139.9724  134.7270  156.0015 LP  0  0  0  0  0  0  0  0  0  0  0  0  # atno 17394 bound_to 11000
  141.1445  133.6558  156.3827 LP  0  0  0  0  0  0  0  0  0  0  0  0  # atno 17395 bound_to 11000

$$$$
