AV-unprocessed.smi:1936|AV-procd|sdf|7829|dock2
  -GOLD-   22720 9573D 1   1.00000     0.00000
 Structure written by MMmdl.
 38 39  0  0  0  0  0  0  0  0  1 V2000
  150.3038  137.9679  156.7392 C   0  0  0  0  0  0  0  0  0  0  0  0
  149.7912  138.9363  157.8131 C   0  0  2  0  0  0  0  0  0  0  0  0
  150.9067  139.3400  158.8011 C   0  0  0  0  0  0  0  0  0  0  0  0
  150.9768  140.7683  159.1186 N   0  0  0  0  0  0  0  0  0  0  0  0
  150.8595  141.6207  157.9380 C   0  0  0  0  0  0  0  0  0  0  0  0
  150.9339  143.1134  158.3028 C   0  0  0  0  0  0  0  0  0  0  0  0
  152.1430  143.3760  159.0082 O   0  0  0  0  0  0  0  0  0  0  0  0
  152.2731  142.5914  160.1893 C   0  0  0  0  0  0  0  0  0  0  0  0
  152.2083  141.0983  159.8252 C   0  0  0  0  0  0  0  0  0  0  0  0
  148.6893  138.3204  158.5483 N   0  0  0  0  0  0  0  0  0  0  0  0
  148.6530  137.0542  158.9917 C   0  0  0  0  0  0  0  0  0  0  0  0
  149.6201  136.2934  158.9727 O   0  0  0  0  0  0  0  0  0  0  0  0
  147.2983  136.5582  159.4954 C   0  0  0  0  0  0  0  0  0  0  0  0
  147.4077  136.0862  160.8656 N   0  0  0  0  0  0  0  0  0  0  0  0
  147.3458  134.7897  161.3352 C   0  0  0  0  0  0  0  0  0  0  0  0
  147.5178  134.8376  162.6887 C   0  0  0  0  0  0  0  0  0  0  0  0
  147.6808  136.2250  162.9591 C   0  0  0  0  0  0  0  0  0  0  0  0
  147.6141  136.9694  161.8671 N   0  0  0  0  0  0  0  0  0  0  0  0
  151.1231  138.4111  156.1725 H   0  0  0  0  0  0  0  0  0  0  0  0
  149.5141  137.7131  156.0317 H   0  0  0  0  0  0  0  0  0  0  0  0
  150.6682  137.0396  157.1808 H   0  0  0  0  0  0  0  0  0  0  0  0
  149.4469  139.8349  157.2992 H   0  0  0  0  0  0  0  0  0  0  0  0
  150.7431  138.7884  159.7281 H   0  0  0  0  0  0  0  0  0  0  0  0
  151.8706  138.9994  158.4201 H   0  0  0  0  0  0  0  0  0  0  0  0
  151.6519  141.3808  157.2273 H   0  0  0  0  0  0  0  0  0  0  0  0
  149.9144  141.4360  157.4281 H   0  0  0  0  0  0  0  0  0  0  0  0
  150.9062  143.7258  157.4014 H   0  0  0  0  0  0  0  0  0  0  0  0
  150.0774  143.4037  158.9130 H   0  0  0  0  0  0  0  0  0  0  0  0
  153.2231  142.8247  160.6701 H   0  0  0  0  0  0  0  0  0  0  0  0
  151.4833  142.8514  160.8958 H   0  0  0  0  0  0  0  0  0  0  0  0
  152.2844  140.5031  160.7359 H   0  0  0  0  0  0  0  0  0  0  0  0
  153.0703  140.8380  159.2088 H   0  0  0  0  0  0  0  0  0  0  0  0
  147.8417  138.8638  158.6209 H   0  0  0  0  0  0  0  0  0  0  0  0
  146.5600  137.3601  159.4413 H   0  0  0  0  0  0  0  0  0  0  0  0
  146.9363  135.7425  158.8678 H   0  0  0  0  0  0  0  0  0  0  0  0
  147.1931  133.9497  160.6733 H   0  0  0  0  0  0  0  0  0  0  0  0
  147.5303  134.0079  163.3796 H   0  0  0  0  0  0  0  0  0  0  0  0
  147.8466  136.7100  163.9099 H   0  0  0  0  0  0  0  0  0  0  0  0
  1  2  1  0  0  0  0
  1 19  1  0  0  0  0
  1 20  1  0  0  0  0
  1 21  1  0  0  0  0
  2  3  1  0  0  0  0
  2 10  1  0  0  0  0
  2 22  1  0  0  0  0
  3  4  1  0  0  0  0
  3 23  1  0  0  0  0
  3 24  1  0  0  0  0
  4  9  1  0  0  0  0
  4  5  1  0  0  0  0
  5  6  1  0  0  0  0
  5 25  1  0  0  0  0
  5 26  1  0  0  0  0
  6  7  1  0  0  0  0
  6 27  1  0  0  0  0
  6 28  1  0  0  0  0
  7  8  1  0  0  0  0
  8  9  1  0  0  0  0
  8 29  1  0  0  0  0
  8 30  1  0  0  0  0
  9 31  1  0  0  0  0
  9 32  1  0  0  0  0
 10 11  1  0  0  0  0
 10 33  1  0  0  0  0
 11 12  2  0  0  0  0
 11 13  1  0  0  0  0
 13 14  1  0  0  0  0
 13 34  1  0  0  0  0
 13 35  1  0  0  0  0
 14 18  1  0  0  0  0
 14 15  1  0  0  0  0
 15 16  2  0  0  0  0
 15 36  1  0  0  0  0
 16 17  1  0  0  0  0
 16 37  1  0  0  0  0
 17 18  2  0  0  0  0
 17 38  1  0  0  0  0
M  END
> <s_m_source_file>
AV-unprocessed.smi

> <i_m_source_file_index>
1936

> <i_lp_mmshare_version>
43012

> <i_f3d_flags>
0

> <s_epik_input>
W0NIMl0xW0NIMl1PW0NIMl1bQ0gyXU4xW0NIMl1bQ0BASF0oW0NIM10pW05IXUMoPU8pW0NIMl1uMltjSF1bY0hdW2NIXW4y

> <s_epik_cmdline>
J2VwaWtfcHl0aG9uJywgJy1waCcsICc3LjAnLCAnLXRuJywgJzgnLCAnLW1hJywgJzIwMCcsICctbWV0YWxfYmluZGluZycsICctaW1hZScsICc8aW5maWxlLm1hZT4nLCAnLW9tYWUnLCAnPG91dGZpbGUubWFlPic=

> <r_lp_tautomer_probability>
1

> <r_epik_Ionization_Penalty>
0.196927

> <r_epik_Ionization_Penalty_Charging>
0

> <r_epik_Ionization_Penalty_Neutral>
0.196927

> <r_epik_State_Penalty>
0.186684

> <r_epik_Charging_Adjusted_Penalty>
0.186684

> <i_epik_Tot_Q>
0

> <i_epik_Tot_abs_Q>
0

> <r_epik_Metal_State_Penalty>
0.186682

> <b_epik_Metal_Only>
0

> <s_lp_Force_Field>
OPLS_2005

> <r_lp_Energy>
24.3888

> <b_lp_Chiralities_Consistent>
1

> <s_lp_Variant>
AV-unprocessed.smi:1936-1

> <Gold.Version>
5.8.1

> <Gold.Id.Protein>
6NUR|6NUR_protein|mol2

> <Gold.PLP.Fitness>
40.9990

> <Gold.PLP.PLP>
-35.0211

> <Gold.PLP.part.hbond>
-3.0000

> <Gold.PLP.part.metal>
0.0000

> <Gold.PLP.part.buried>
-5.4046

> <Gold.PLP.part.nonpolar>
-26.5846

> <Gold.PLP.part.repulsive>
0.1728

> <Gold.PLP.ligand.clash>
0.0000

> <Gold.PLP.ligand.torsion>
1.0729

> <Gold.PLP.Chemscore.Hbond>
2.6740

> <Gold.PLP.Chemscore.CHOScore>
0.0000

> <Gold.PLP.Chemscore.Metal>
0.0000

> <Gold.Chemscore.Hbonds>
donor molecule, donor type, donor heavy atom, donor atom, acceptor molecule, acceptor atom, score
      P1  H  6896  6908       L1    12  1.00
      P1  H  6931  6943       L1    18  1.00
      P1  H  6934  6947       L1    18  0.26

> <Gold.PLP.Chemscore.Internal.Correction>
0.1018

> <Gold.Rescore>
     Score         DG    S(hbond)    S(metal)    S(lipo)     H(rot)  DE(clash)    DE(int)     intcor
     14.62     -16.93       2.33        0.00      71.97       1.85       0.02       2.29       ----

> <Gold.Chemscore.Fitness>
14.6210

> <Gold.Chemscore.DG>
-16.9335

> <Gold.Chemscore.ZeroCoef>
-5.4800

> <Gold.Chemscore.Hbond>
2.3297

> <Gold.Chemscore.Metal>
0.0000

> <Gold.Chemscore.Lipo>
71.9725

> <Gold.Chemscore.Internal_Hbond>
0.0000

> <Gold.Chemscore.DEClash>
0.0217

> <Gold.Chemscore.DEInternal>
2.2908

> <Gold.Chemscore.Rot>
1.8549

> <Gold.Chemscore.Internal.Correction>
   9.000000E+99

> <Gold.Chemscore.Hbonds>
donor molecule, donor type, donor heavy atom, donor atom, acceptor molecule, acceptor atom, score
      P1  H  6896  6908       L1    12  0.93
      P1  H  6931  6943       L1    18  0.63
      P1  H  6934  6947       L1    18  0.13

> <Gold.Chemscore.Hbond.Weighted>
-7.7812

> <Gold.Chemscore.Metal.Weighted>
-0.0000

> <Gold.Chemscore.Lipo.Weighted>
-8.4208

> <Gold.Chemscore.Internal_Hbond.Weighted>
0.0000

> <Gold.Chemscore.DEClash.Weighted>
0.0217

> <Gold.Chemscore.DEInternal.Weighted>
2.2908

> <Gold.Chemscore.Rot.Weighted>
4.7485

> <Gold.Chemscore.Internal.Correction.Weighted>
   9.000000E+99

> <Gold.Protein.RotatedTorsions>
[ 6907 6896 6895 6894 ] final -179.93 input  -60.11 | X-H torsion
[ 7974 7965 7964 7962 ] final  153.18 input  175.53 | X-H torsion
[ 8008 7997 7996 7995 ] final   62.91 input   59.86 | X-H torsion
[ 10167 10162 10161 10158 ] final   -6.04 input  -65.29 | X-H torsion
[ 10718 10713 10712 10709 ] final  -69.56 input   66.30 | X-H torsion
[ 10763 10752 10751 10750 ] final  -70.30 input  -60.55 | X-H torsion
[ 11005 11000 10999 10996 ] final -169.22 input  -57.11 | X-H torsion

> <Gold.Protein.ActiveResidues>
 VAL166  LYS551  ARG553  GLY616  TRP617  ASP618  TYR619  PRO620  LYS621  CYS622 
 ASP623  PHE694  ASN695  SER759  ASP760  ASP761  ALA762  ILE779  LEU786  VAL792 
 PHE793  MET794  SER795  GLU796  ALA797  LYS798  CYS799  TRP800  GLU811  SER814 

> <Gold.Protein.RotatedAtoms>
  151.6614  133.3317  159.3174 H   0  0  0  0  0  0  0  0  0  0  0  0  # atno 6907 bound_to 6896
  150.7911  134.6940  159.6522 H   0  0  0  0  0  0  0  0  0  0  0  0  # atno 6908 bound_to 6896
  152.3991  134.6320  160.0129 H   0  0  0  0  0  0  0  0  0  0  0  0  # atno 6909 bound_to 6896
  144.8172  139.6767  143.6116 H   0  0  0  0  0  0  0  0  0  0  0  0  # atno 7974 bound_to 7965
  155.6218  140.3496  155.4654 H   0  0  0  0  0  0  0  0  0  0  0  0  # atno 8008 bound_to 7997
  156.0073  140.1226  157.0513 H   0  0  0  0  0  0  0  0  0  0  0  0  # atno 8009 bound_to 7997
  154.4268  140.1088  156.5766 H   0  0  0  0  0  0  0  0  0  0  0  0  # atno 8010 bound_to 7997
  140.6984  143.6239  150.8586 H   0  0  0  0  0  0  0  0  0  0  0  0  # atno 10167 bound_to 10162
  156.0449  130.4315  150.2166 H   0  0  0  0  0  0  0  0  0  0  0  0  # atno 10718 bound_to 10713
  154.4158  135.5998  153.5980 H   0  0  0  0  0  0  0  0  0  0  0  0  # atno 10763 bound_to 10752
  152.9792  135.5940  154.4015 H   0  0  0  0  0  0  0  0  0  0  0  0  # atno 10764 bound_to 10752
  154.3834  135.2841  155.2176 H   0  0  0  0  0  0  0  0  0  0  0  0  # atno 10765 bound_to 10752
  140.5332  134.5596  157.5080 H   0  0  0  0  0  0  0  0  0  0  0  0  # atno 11005 bound_to 11000
  146.2475  139.6130  142.9449 LP  0  0  0  0  0  0  0  0  0  0  0  0  # atno 17320 bound_to 7965
  145.5188  141.0433  143.2447 LP  0  0  0  0  0  0  0  0  0  0  0  0  # atno 17321 bound_to 7965
  139.9959  143.5796  152.2893 LP  0  0  0  0  0  0  0  0  0  0  0  0  # atno 17342 bound_to 10162
  139.6468  144.7658  151.2227 LP  0  0  0  0  0  0  0  0  0  0  0  0  # atno 17343 bound_to 10162
  157.0257  130.9992  151.3327 LP  0  0  0  0  0  0  0  0  0  0  0  0  # atno 17370 bound_to 10713
  157.5313  130.8060  149.7920 LP  0  0  0  0  0  0  0  0  0  0  0  0  # atno 17371 bound_to 10713
  139.9543  134.7562  156.0377 LP  0  0  0  0  0  0  0  0  0  0  0  0  # atno 17394 bound_to 11000
  141.1270  133.6596  156.3362 LP  0  0  0  0  0  0  0  0  0  0  0  0  # atno 17395 bound_to 11000

$$$$
