AV-unprocessed.smi:1807|AV-procd|sdf|7303|dock9
  -GOLD-   22720 8563D 1   1.00000     0.00000
 Structure written by MMmdl.
 44 45  0  0  0  0  0  0  0  0  1 V2000
  152.7335  139.5097  155.4660 C   0  0  0  0  0  0  0  0  0  0  0  0
  151.3886  140.2441  155.6021 C   0  0  2  0  0  0  0  0  0  0  0  0
  150.9455  140.3446  157.0764 C   0  0  0  0  0  0  0  0  0  0  0  0
  149.6368  141.1376  157.2197 C   0  0  0  0  0  0  0  0  0  0  0  0
  148.5194  140.5336  156.3561 C   0  0  0  0  0  0  0  0  0  0  0  0
  148.9506  140.4243  154.8829 C   0  0  0  0  0  0  0  0  0  0  0  0
  150.2680  139.6399  154.7162 C   0  0  2  0  0  0  0  0  0  0  0  0
  150.0396  138.2243  155.0133 N   0  0  0  0  0  0  0  0  0  0  0  0
  150.8208  137.1973  154.6451 C   0  0  0  0  0  0  0  0  0  0  0  0
  151.8550  137.3318  153.9887 O   0  0  0  0  0  0  0  0  0  0  0  0
  150.3412  135.8138  155.0915 C   0  0  0  0  0  0  0  0  0  0  0  0
  149.6604  135.0969  154.0222 N   0  0  0  0  0  0  0  0  0  0  0  0
  149.6036  133.6998  154.0526 C   0  0  0  0  0  0  0  0  0  0  0  0
  148.9569  132.9464  153.0356 C   0  0  0  0  0  0  0  0  0  0  0  0
  149.1394  131.6546  153.4411 C   0  0  0  0  0  0  0  0  0  0  0  0
  149.8504  131.6864  154.6253 N   0  0  0  0  0  0  0  0  0  0  0  0
  150.2959  130.5703  155.4401 C   0  0  0  0  0  0  0  0  0  0  0  0
  151.1823  129.6188  154.6345 C   0  0  0  0  0  0  0  0  0  0  0  0
  150.5856  128.8688  153.7042 N   0  0  0  0  0  0  0  0  0  0  0  0
  152.3911  129.5611  154.8488 O   0  0  0  0  0  0  0  0  0  0  0  0
  150.1362  132.9512  155.0064 N   0  0  0  0  0  0  0  0  0  0  0  0
  152.6824  138.4949  155.8612 H   0  0  0  0  0  0  0  0  0  0  0  0
  153.5199  140.0334  156.0097 H   0  0  0  0  0  0  0  0  0  0  0  0
  153.0421  139.4464  154.4221 H   0  0  0  0  0  0  0  0  0  0  0  0
  151.5564  141.2627  155.2487 H   0  0  0  0  0  0  0  0  0  0  0  0
  150.8154  139.3459  157.4955 H   0  0  0  0  0  0  0  0  0  0  0  0
  151.7261  140.8244  157.6677 H   0  0  0  0  0  0  0  0  0  0  0  0
  149.3274  141.1589  158.2652 H   0  0  0  0  0  0  0  0  0  0  0  0
  149.8050  142.1744  156.9259 H   0  0  0  0  0  0  0  0  0  0  0  0
  148.2538  139.5475  156.7389 H   0  0  0  0  0  0  0  0  0  0  0  0
  147.6197  141.1443  156.4340 H   0  0  0  0  0  0  0  0  0  0  0  0
  148.1575  139.9601  154.2952 H   0  0  0  0  0  0  0  0  0  0  0  0
  149.0794  141.4278  154.4757 H   0  0  0  0  0  0  0  0  0  0  0  0
  150.5709  139.7413  153.6725 H   0  0  0  0  0  0  0  0  0  0  0  0
  149.2120  138.0079  155.5497 H   0  0  0  0  0  0  0  0  0  0  0  0
  151.1988  135.2309  155.4319 H   0  0  0  0  0  0  0  0  0  0  0  0
  149.6648  135.9312  155.9391 H   0  0  0  0  0  0  0  0  0  0  0  0
  149.3084  135.6128  153.2283 H   0  0  0  0  0  0  0  0  0  0  0  0
  148.4456  133.2948  152.1505 H   0  0  0  0  0  0  0  0  0  0  0  0
  148.8284  130.7244  152.9892 H   0  0  0  0  0  0  0  0  0  0  0  0
  150.8475  130.9480  156.3027 H   0  0  0  0  0  0  0  0  0  0  0  0
  149.4219  130.0432  155.8256 H   0  0  0  0  0  0  0  0  0  0  0  0
  151.1293  128.2281  153.1446 H   0  0  0  0  0  0  0  0  0  0  0  0
  149.5890  128.9490  153.5618 H   0  0  0  0  0  0  0  0  0  0  0  0
  1  2  1  0  0  0  0
  1 22  1  0  0  0  0
  1 23  1  0  0  0  0
  1 24  1  0  0  0  0
  2  7  1  0  0  0  0
  2  3  1  0  0  0  0
  2 25  1  0  0  0  0
  3  4  1  0  0  0  0
  3 26  1  0  0  0  0
  3 27  1  0  0  0  0
  4  5  1  0  0  0  0
  4 28  1  0  0  0  0
  4 29  1  0  0  0  0
  5  6  1  0  0  0  0
  5 30  1  0  0  0  0
  5 31  1  0  0  0  0
  6  7  1  0  0  0  0
  6 32  1  0  0  0  0
  6 33  1  0  0  0  0
  7  8  1  0  0  0  0
  7 34  1  0  0  0  0
  8  9  1  0  0  0  0
  8 35  1  0  0  0  0
  9 10  2  0  0  0  0
  9 11  1  0  0  0  0
 11 12  1  0  0  0  0
 11 36  1  0  0  0  0
 11 37  1  0  0  0  0
 12 13  1  0  0  0  0
 12 38  1  0  0  0  0
 13 21  2  0  0  0  0
 13 14  1  0  0  0  0
 14 15  2  0  0  0  0
 14 39  1  0  0  0  0
 15 16  1  0  0  0  0
 15 40  1  0  0  0  0
 16 17  1  0  0  0  0
 16 21  1  0  0  0  0
 17 18  1  0  0  0  0
 17 41  1  0  0  0  0
 17 42  1  0  0  0  0
 18 19  1  0  0  0  0
 18 20  2  0  0  0  0
 19 43  1  0  0  0  0
 19 44  1  0  0  0  0
M  END
> <s_m_source_file>
AV-unprocessed.smi

> <i_m_source_file_index>
1807

> <i_lp_mmshare_version>
43012

> <i_f3d_flags>
0

> <s_epik_input>
W0NIM11bQ0BASF0xW0NIMl1bQ0gyXVtDSDJdW0NIMl1bQ0BIXTFbTkhdQyg9TylbQ0gyXVtOSF1jMltjSF1bY0hdbihuMilbQ0gyXUMoPU8pW05IMl0=

> <s_epik_cmdline>
J2VwaWtfcHl0aG9uJywgJy1waCcsICc3LjAnLCAnLXRuJywgJzgnLCAnLW1hJywgJzIwMCcsICctbWV0YWxfYmluZGluZycsICctaW1hZScsICc8aW5maWxlLm1hZT4nLCAnLW9tYWUnLCAnPG91dGZpbGUubWFlPic=

> <r_lp_tautomer_probability>
1

> <r_epik_Ionization_Penalty>
0.000167642

> <r_epik_Ionization_Penalty_Charging>
0

> <r_epik_Ionization_Penalty_Neutral>
0.000167642

> <r_epik_State_Penalty>
-0

> <r_epik_Charging_Adjusted_Penalty>
0

> <i_epik_Tot_Q>
0

> <i_epik_Tot_abs_Q>
0

> <r_epik_Metal_State_Penalty>
-0

> <b_epik_Metal_Only>
0

> <s_lp_Force_Field>
OPLS_2005

> <r_lp_Energy>
5.83979

> <b_lp_Chiralities_Consistent>
1

> <s_lp_Variant>
AV-unprocessed.smi:1807-3

> <Gold.Version>
5.8.1

> <Gold.Id.Protein>
6NUR|6NUR_protein|mol2

> <Gold.PLP.Fitness>
41.5899

> <Gold.PLP.PLP>
-33.3814

> <Gold.PLP.part.hbond>
-3.6396

> <Gold.PLP.part.metal>
0.0000

> <Gold.PLP.part.buried>
0.2493

> <Gold.PLP.part.nonpolar>
-30.1585

> <Gold.PLP.part.repulsive>
1.4504

> <Gold.PLP.ligand.clash>
0.0000

> <Gold.PLP.ligand.torsion>
0.8108

> <Gold.PLP.Chemscore.Hbond>
3.0000

> <Gold.PLP.Chemscore.CHOScore>
0.2656

> <Gold.PLP.Chemscore.Metal>
0.0000

> <Gold.Chemscore.Hbonds>
donor molecule, donor type, donor heavy atom, donor atom, acceptor molecule, acceptor atom, score
      L1  H    12    38       P1  7948  0.93
      L1  H    19    43       P1 10737  1.00
      P1  H 10752 10764       L1    10  1.00
      L1  C    15    40       P1 10747  0.38

> <Gold.PLP.Chemscore.Internal.Correction>
0.0332

> <Gold.Rescore>
     Score         DG    S(hbond)    S(metal)    S(lipo)     H(rot)  DE(clash)    DE(int)     intcor
      9.98     -13.87       2.42        0.00      60.28       2.64       1.68       2.20       ----

> <Gold.Chemscore.Fitness>
9.9809

> <Gold.Chemscore.DG>
-13.8673

> <Gold.Chemscore.ZeroCoef>
-5.4800

> <Gold.Chemscore.Hbond>
2.4206

> <Gold.Chemscore.Metal>
0.0000

> <Gold.Chemscore.Lipo>
60.2807

> <Gold.Chemscore.Internal_Hbond>
0.0000

> <Gold.Chemscore.DEClash>
1.6829

> <Gold.Chemscore.DEInternal>
2.2036

> <Gold.Chemscore.Rot>
2.6369

> <Gold.Chemscore.Internal.Correction>
   9.000000E+99

> <Gold.Chemscore.Hbonds>
donor molecule, donor type, donor heavy atom, donor atom, acceptor molecule, acceptor atom, score
      L1  H    12    38       P1  7948  0.23
      L1  H    19    43       P1 10737  0.98
      P1  H 10752 10764       L1    10  0.81

> <Gold.Chemscore.Hbond.Weighted>
-8.0849

> <Gold.Chemscore.Metal.Weighted>
-0.0000

> <Gold.Chemscore.Lipo.Weighted>
-7.0528

> <Gold.Chemscore.Internal_Hbond.Weighted>
0.0000

> <Gold.Chemscore.DEClash.Weighted>
1.6829

> <Gold.Chemscore.DEInternal.Weighted>
2.2036

> <Gold.Chemscore.Rot.Weighted>
6.7504

> <Gold.Chemscore.Internal.Correction.Weighted>
   9.000000E+99

> <Gold.Protein.RotatedTorsions>
[ 6907 6896 6895 6894 ] final -150.41 input  -60.11 | X-H torsion
[ 7974 7965 7964 7962 ] final -155.91 input  175.53 | X-H torsion
[ 8008 7997 7996 7995 ] final   27.39 input   59.86 | X-H torsion
[ 10167 10162 10161 10158 ] final   62.58 input  -65.29 | X-H torsion
[ 10718 10713 10712 10709 ] final    5.35 input   66.30 | X-H torsion
[ 10763 10752 10751 10750 ] final  -95.56 input  -60.55 | X-H torsion
[ 11005 11000 10999 10996 ] final   96.13 input  -57.11 | X-H torsion

> <Gold.Protein.ActiveResidues>
 VAL166  LYS551  ARG553  GLY616  TRP617  ASP618  TYR619  PRO620  LYS621  CYS622 
 ASP623  PHE694  ASN695  SER759  ASP760  ASP761  ALA762  ILE779  LEU786  VAL792 
 PHE793  MET794  SER795  GLU796  ALA797  LYS798  CYS799  TRP800  GLU811  SER814 

> <Gold.Protein.RotatedAtoms>
  151.1981  133.4627  159.2595 H   0  0  0  0  0  0  0  0  0  0  0  0  # atno 6907 bound_to 6896
  151.1096  135.0019  159.8498 H   0  0  0  0  0  0  0  0  0  0  0  0  # atno 6908 bound_to 6896
  152.5449  134.1902  159.8723 H   0  0  0  0  0  0  0  0  0  0  0  0  # atno 6909 bound_to 6896
  144.7618  140.4184  143.5971 H   0  0  0  0  0  0  0  0  0  0  0  0  # atno 7974 bound_to 7965
  155.0422  140.3170  155.4721 H   0  0  0  0  0  0  0  0  0  0  0  0  # atno 8008 bound_to 7997
  156.2852  140.2161  156.5489 H   0  0  0  0  0  0  0  0  0  0  0  0  # atno 8009 bound_to 7997
  154.7280  140.0484  157.0688 H   0  0  0  0  0  0  0  0  0  0  0  0  # atno 8010 bound_to 7997
  140.1423  144.4541  150.6804 H   0  0  0  0  0  0  0  0  0  0  0  0  # atno 10167 bound_to 10162
  156.9061  130.5739  149.5647 H   0  0  0  0  0  0  0  0  0  0  0  0  # atno 10718 bound_to 10713
  154.7159  135.5116  153.8737 H   0  0  0  0  0  0  0  0  0  0  0  0  # atno 10763 bound_to 10752
  153.0820  135.6634  154.0034 H   0  0  0  0  0  0  0  0  0  0  0  0  # atno 10764 bound_to 10752
  153.9867  135.3024  155.3395 H   0  0  0  0  0  0  0  0  0  0  0  0  # atno 10765 bound_to 10752
  139.8784  134.8935  156.4113 H   0  0  0  0  0  0  0  0  0  0  0  0  # atno 11005 bound_to 11000
  145.6596  139.1579  143.2816 LP  0  0  0  0  0  0  0  0  0  0  0  0  # atno 17320 bound_to 7965
  146.1688  140.6677  142.9243 LP  0  0  0  0  0  0  0  0  0  0  0  0  # atno 17321 bound_to 7965
  140.6753  143.2302  151.5524 LP  0  0  0  0  0  0  0  0  0  0  0  0  # atno 17342 bound_to 10162
  139.5466  144.2506  152.1453 LP  0  0  0  0  0  0  0  0  0  0  0  0  # atno 17343 bound_to 10162
  156.0558  130.5620  150.9089 LP  0  0  0  0  0  0  0  0  0  0  0  0  # atno 17370 bound_to 10713
  157.5996  131.0942  150.8982 LP  0  0  0  0  0  0  0  0  0  0  0  0  # atno 17371 bound_to 10713
  140.9198  133.7653  155.9893 LP  0  0  0  0  0  0  0  0  0  0  0  0  # atno 17394 bound_to 11000
  140.8452  134.3019  157.5298 LP  0  0  0  0  0  0  0  0  0  0  0  0  # atno 17395 bound_to 11000

$$$$
