AV-unprocessed.smi:229|AV-procd|sdf|1757|dock7
  -GOLD-   2262020283D 1   1.00000     0.00000
 Structure written by MMmdl.
 58 62  0  0  0  0  0  0  0  0  1 V2000
  152.4081  131.9624  157.2647 C   0  0  0  0  0  0  0  0  0  0  0  0
  150.9006  132.2335  157.3449 C   0  0  0  0  0  0  0  0  0  0  0  0
  150.4109  133.2127  156.2678 C   0  0  2  0  0  0  0  0  0  0  0  0
  150.9198  134.6424  156.5183 C   0  0  0  0  0  0  0  0  0  0  0  0
  150.3485  135.5501  155.5301 N   0  0  0  0  0  0  0  0  0  0  0  0
  150.8997  136.7815  155.3891 C   0  0  0  0  0  0  0  0  0  0  0  0
  151.7261  137.0419  154.3407 N   0  0  0  0  0  0  0  0  0  0  0  0
  152.2782  138.2509  154.2004 C   0  0  0  0  0  0  0  0  0  0  0  0
  152.1397  139.3275  154.9767 N   0  0  0  0  0  0  0  0  0  0  0  0
  151.3048  139.0750  156.0248 C   0  0  0  0  0  0  0  0  0  0  0  0
  150.6492  137.8428  156.3042 C   0  0  0  0  0  0  0  0  0  0  0  0
  149.8712  137.9709  157.4495 N   0  0  0  0  0  0  0  0  0  0  0  0
  150.0624  139.2050  157.8289 C   0  0  0  0  0  0  0  0  0  0  0  0
  150.9075  139.9396  157.0285 N   0  0  0  0  0  0  0  0  0  0  0  0
  151.2893  141.3295  157.2069 C   0  0  0  0  0  0  0  0  0  0  0  0
  151.9172  141.5930  158.5898 C   0  0  1  0  0  0  0  0  0  0  0  0
  153.1062  140.8353  158.7141 O   0  0  0  0  0  0  0  0  0  0  0  0
  152.2526  143.0803  158.8059 C   0  0  2  0  0  0  0  0  0  0  0  0
  152.3375  143.5053  160.2733 C   0  0  0  0  0  0  0  0  0  0  0  0
  152.0100  144.9905  160.2411 C   0  0  0  0  0  0  0  0  0  0  0  0
  151.4206  145.2122  158.8458 C   0  0  0  0  0  0  0  0  0  0  0  0
  151.2051  143.9084  158.3253 O   0  0  0  0  0  0  0  0  0  0  0  0
  148.8908  135.5176  155.5018 C   0  0  0  0  0  0  0  0  0  0  0  0
  148.3763  134.0741  155.3052 C   0  0  2  0  0  0  0  0  0  0  0  0
  148.5788  133.5429  153.8814 C   0  0  0  0  0  0  0  0  0  0  0  0
  147.1950  133.6439  153.2560 C   0  0  0  0  0  0  0  0  0  0  0  0
  146.3508  133.3128  154.3423 O   0  0  0  0  0  0  0  0  0  0  0  0
  146.8475  134.0007  155.4817 C   0  0  0  0  0  0  0  0  0  0  0  0
  148.9821  133.2174  156.2781 O   0  0  0  0  0  0  0  0  0  0  0  0
  152.7216  131.2770  158.0524 H   0  0  0  0  0  0  0  0  0  0  0  0
  152.9807  132.8833  157.3772 H   0  0  0  0  0  0  0  0  0  0  0  0
  152.6791  131.5141  156.3084 H   0  0  0  0  0  0  0  0  0  0  0  0
  150.3562  131.2921  157.2628 H   0  0  0  0  0  0  0  0  0  0  0  0
  150.6693  132.6370  158.3315 H   0  0  0  0  0  0  0  0  0  0  0  0
  150.7739  132.8707  155.2976 H   0  0  0  0  0  0  0  0  0  0  0  0
  150.6397  134.9740  157.5194 H   0  0  0  0  0  0  0  0  0  0  0  0
  152.0091  134.6598  156.4604 H   0  0  0  0  0  0  0  0  0  0  0  0
  152.9240  138.3731  153.3434 H   0  0  0  0  0  0  0  0  0  0  0  0
  149.5836  139.6176  158.7051 H   0  0  0  0  0  0  0  0  0  0  0  0
  151.9834  141.6067  156.4121 H   0  0  0  0  0  0  0  0  0  0  0  0
  150.3990  141.9448  157.0712 H   0  0  0  0  0  0  0  0  0  0  0  0
  151.2262  141.2624  159.3667 H   0  0  0  0  0  0  0  0  0  0  0  0
  153.6183  141.1953  159.4220 H   0  0  0  0  0  0  0  0  0  0  0  0
  153.1762  143.3444  158.2867 H   0  0  0  0  0  0  0  0  0  0  0  0
  151.5844  142.9805  160.8631 H   0  0  0  0  0  0  0  0  0  0  0  0
  153.3126  143.2961  160.7142 H   0  0  0  0  0  0  0  0  0  0  0  0
  151.2964  145.2469  161.0248 H   0  0  0  0  0  0  0  0  0  0  0  0
  152.9013  145.6021  160.3849 H   0  0  0  0  0  0  0  0  0  0  0  0
  150.4939  145.7860  158.8674 H   0  0  0  0  0  0  0  0  0  0  0  0
  152.1326  145.7393  158.2089 H   0  0  0  0  0  0  0  0  0  0  0  0
  148.5253  135.9131  156.4505 H   0  0  0  0  0  0  0  0  0  0  0  0
  148.4873  136.1618  154.7213 H   0  0  0  0  0  0  0  0  0  0  0  0
  149.3366  134.0844  153.3138 H   0  0  0  0  0  0  0  0  0  0  0  0
  148.8726  132.4927  153.9091 H   0  0  0  0  0  0  0  0  0  0  0  0
  146.9875  134.6608  152.9189 H   0  0  0  0  0  0  0  0  0  0  0  0
  147.0595  132.9630  152.4155 H   0  0  0  0  0  0  0  0  0  0  0  0
  146.5512  133.4921  156.3996 H   0  0  0  0  0  0  0  0  0  0  0  0
  146.4031  134.9971  155.5009 H   0  0  0  0  0  0  0  0  0  0  0  0
  1  2  1  0  0  0  0
  1 30  1  0  0  0  0
  1 31  1  0  0  0  0
  1 32  1  0  0  0  0
  2  3  1  0  0  0  0
  2 33  1  0  0  0  0
  2 34  1  0  0  0  0
  3 29  1  0  0  0  0
  3  4  1  0  0  0  0
  3 35  1  0  0  0  0
  4  5  1  0  0  0  0
  4 36  1  0  0  0  0
  4 37  1  0  0  0  0
  5  6  1  0  0  0  0
  5 23  1  0  0  0  0
  6 11  1  0  0  0  0
  6  7  2  0  0  0  0
  7  8  1  0  0  0  0
  8  9  2  0  0  0  0
  8 38  1  0  0  0  0
  9 10  1  0  0  0  0
 10 14  1  0  0  0  0
 10 11  2  0  0  0  0
 11 12  1  0  0  0  0
 12 13  2  0  0  0  0
 13 14  1  0  0  0  0
 13 39  1  0  0  0  0
 14 15  1  0  0  0  0
 15 16  1  0  0  0  0
 15 40  1  0  0  0  0
 15 41  1  0  0  0  0
 16 17  1  0  0  0  0
 16 18  1  0  0  0  0
 16 42  1  0  0  0  0
 17 43  1  0  0  0  0
 18 22  1  0  0  0  0
 18 19  1  0  0  0  0
 18 44  1  0  0  0  0
 19 20  1  0  0  0  0
 19 45  1  0  0  0  0
 19 46  1  0  0  0  0
 20 21  1  0  0  0  0
 20 47  1  0  0  0  0
 20 48  1  0  0  0  0
 21 22  1  0  0  0  0
 21 49  1  0  0  0  0
 21 50  1  0  0  0  0
 23 24  1  0  0  0  0
 23 51  1  0  0  0  0
 23 52  1  0  0  0  0
 24 28  1  0  0  0  0
 24 25  1  0  0  0  0
 24 29  1  0  0  0  0
 25 26  1  0  0  0  0
 25 53  1  0  0  0  0
 25 54  1  0  0  0  0
 26 27  1  0  0  0  0
 26 55  1  0  0  0  0
 26 56  1  0  0  0  0
 27 28  1  0  0  0  0
 28 57  1  0  0  0  0
 28 58  1  0  0  0  0
M  END
> <s_m_source_file>
AV-unprocessed.smi

> <i_m_source_file_index>
229

> <i_lp_mmshare_version>
43012

> <i_f3d_flags>
0

> <s_epik_input>
W0NIMl0xT1tDSDJdW0NIMl1bQ0BdMTJbQ0gyXU4oW0NIMl1bQ0BIXShPMilbQ0gyXVtDSDNdKWMobltjSF1uMyljKGMzNCluW2NIXW40W0NIMl1bQ0BIXShbT0hdKVtDQEBIXTVbQ0gyXVtDSDJdW0NIMl1PNQ==

> <s_epik_cmdline>
J2VwaWtfcHl0aG9uJywgJy1waCcsICc3LjAnLCAnLXRuJywgJzgnLCAnLW1hJywgJzIwMCcsICctbWV0YWxfYmluZGluZycsICctaW1hZScsICc8aW5maWxlLm1hZT4nLCAnLW9tYWUnLCAnPG91dGZpbGUubWFlPic=

> <r_lp_tautomer_probability>
1

> <r_epik_Ionization_Penalty>
0.00318402

> <r_epik_Ionization_Penalty_Charging>
0

> <r_epik_Ionization_Penalty_Neutral>
0.00318402

> <r_epik_State_Penalty>
0.00215642

> <r_epik_Charging_Adjusted_Penalty>
0.00215642

> <i_epik_Tot_Q>
0

> <i_epik_Tot_abs_Q>
0

> <r_epik_Metal_State_Penalty>
-0

> <b_epik_Metal_Only>
0

> <s_lp_Force_Field>
OPLS_2005

> <r_lp_Energy>
53.2063

> <b_lp_Chiralities_Consistent>
1

> <s_lp_Variant>
AV-unprocessed.smi:229-11

> <Gold.Version>
5.8.1

> <Gold.Id.Protein>
6NUR|6NUR_protein|mol2

> <Gold.PLP.Fitness>
47.2905

> <Gold.PLP.PLP>
-42.6391

> <Gold.PLP.part.hbond>
-2.9503

> <Gold.PLP.part.metal>
0.0000

> <Gold.PLP.part.buried>
-5.9969

> <Gold.PLP.part.nonpolar>
-34.3757

> <Gold.PLP.part.repulsive>
1.0671

> <Gold.PLP.ligand.clash>
0.0000

> <Gold.PLP.ligand.torsion>
0.6817

> <Gold.PLP.Chemscore.Hbond>
1.8850

> <Gold.PLP.Chemscore.CHOScore>
0.0000

> <Gold.PLP.Chemscore.Metal>
0.0000

> <Gold.Chemscore.Hbonds>
donor molecule, donor type, donor heavy atom, donor atom, acceptor molecule, acceptor atom, score
      P1  H  7989  7998       L1     9  0.56
      P1  H  7997  8009       L1    17  0.03
      P1  H 10752 10765       L1     7  1.00

> <Gold.PLP.Chemscore.Internal.Correction>
0.3596

> <Gold.Rescore>
     Score         DG    S(hbond)    S(metal)    S(lipo)     H(rot)  DE(clash)    DE(int)     intcor
     13.02     -13.78       0.78        0.00     102.58       2.46       0.00       0.76       ----

> <Gold.Chemscore.Fitness>
13.0175

> <Gold.Chemscore.DG>
-13.7769

> <Gold.Chemscore.ZeroCoef>
-5.4800

> <Gold.Chemscore.Hbond>
0.7755

> <Gold.Chemscore.Metal>
0.0000

> <Gold.Chemscore.Lipo>
102.5832

> <Gold.Chemscore.Internal_Hbond>
0.0000

> <Gold.Chemscore.DEClash>
0.0038

> <Gold.Chemscore.DEInternal>
0.7557

> <Gold.Chemscore.Rot>
2.4591

> <Gold.Chemscore.Internal.Correction>
   9.000000E+99

> <Gold.Chemscore.Hbonds>
donor molecule, donor type, donor heavy atom, donor atom, acceptor molecule, acceptor atom, score
      P1  H  7989  7998       L1     9  0.16
      P1  H  7997  8009       L1    17  0.02
      P1  H 10752 10765       L1     7  0.60

> <Gold.Chemscore.Hbond.Weighted>
-2.5900

> <Gold.Chemscore.Metal.Weighted>
-0.0000

> <Gold.Chemscore.Lipo.Weighted>
-12.0022

> <Gold.Chemscore.Internal_Hbond.Weighted>
0.0000

> <Gold.Chemscore.DEClash.Weighted>
0.0038

> <Gold.Chemscore.DEInternal.Weighted>
0.7557

> <Gold.Chemscore.Rot.Weighted>
6.2953

> <Gold.Chemscore.Internal.Correction.Weighted>
   9.000000E+99

> <Gold.Protein.RotatedTorsions>
[ 6907 6896 6895 6894 ] final  179.31 input  -60.11 | X-H torsion
[ 7974 7965 7964 7962 ] final -148.91 input  175.53 | X-H torsion
[ 8008 7997 7996 7995 ] final  135.21 input   59.86 | X-H torsion
[ 10167 10162 10161 10158 ] final -156.05 input  -65.29 | X-H torsion
[ 10718 10713 10712 10709 ] final -125.63 input   66.30 | X-H torsion
[ 10763 10752 10751 10750 ] final  154.08 input  -60.55 | X-H torsion
[ 11005 11000 10999 10996 ] final   46.76 input  -57.11 | X-H torsion

> <Gold.Protein.ActiveResidues>
 VAL166  LYS551  ARG553  GLY616  TRP617  ASP618  TYR619  PRO620  LYS621  CYS622 
 ASP623  PHE694  ASN695  SER759  ASP760  ASP761  ALA762  ILE779  LEU786  VAL792 
 PHE793  MET794  SER795  GLU796  ALA797  LYS798  CYS799  TRP800  GLU811  SER814 

> <Gold.Protein.RotatedAtoms>
  151.6737  133.3313  159.3202 H   0  0  0  0  0  0  0  0  0  0  0  0  # atno 6907 bound_to 6896
  150.7856  134.6841  159.6469 H   0  0  0  0  0  0  0  0  0  0  0  0  # atno 6908 bound_to 6896
  152.3924  134.6423  160.0154 H   0  0  0  0  0  0  0  0  0  0  0  0  # atno 6909 bound_to 6896
  144.8000  140.5134  143.5714 H   0  0  0  0  0  0  0  0  0  0  0  0  # atno 7974 bound_to 7965
  156.3002  140.2476  156.3544 H   0  0  0  0  0  0  0  0  0  0  0  0  # atno 8008 bound_to 7997
  154.8935  140.0408  157.1872 H   0  0  0  0  0  0  0  0  0  0  0  0  # atno 8009 bound_to 7997
  154.8573  140.2915  155.5565 H   0  0  0  0  0  0  0  0  0  0  0  0  # atno 8010 bound_to 7997
  139.6882  143.9466  152.2371 H   0  0  0  0  0  0  0  0  0  0  0  0  # atno 10167 bound_to 10162
  156.1692  130.6656  151.0157 H   0  0  0  0  0  0  0  0  0  0  0  0  # atno 10718 bound_to 10713
  154.1466  135.2817  155.3146 H   0  0  0  0  0  0  0  0  0  0  0  0  # atno 10763 bound_to 10752
  154.6248  135.5455  153.7618 H   0  0  0  0  0  0  0  0  0  0  0  0  # atno 10764 bound_to 10752
  153.0234  135.6448  154.1611 H   0  0  0  0  0  0  0  0  0  0  0  0  # atno 10765 bound_to 10752
  140.1340  134.4669  155.8500 H   0  0  0  0  0  0  0  0  0  0  0  0  # atno 11005 bound_to 11000
  145.5577  139.1478  143.3358 LP  0  0  0  0  0  0  0  0  0  0  0  0  # atno 17320 bound_to 7965
  146.2279  140.5714  142.8988 LP  0  0  0  0  0  0  0  0  0  0  0  0  # atno 17321 bound_to 7965
  139.9274  144.6762  150.8398 LP  0  0  0  0  0  0  0  0  0  0  0  0  # atno 17342 bound_to 10162
  140.7674  143.3332  151.2365 LP  0  0  0  0  0  0  0  0  0  0  0  0  # atno 17343 bound_to 10162
  157.6790  131.0843  150.7419 LP  0  0  0  0  0  0  0  0  0  0  0  0  # atno 17370 bound_to 10713
  156.7478  130.4759  149.5463 LP  0  0  0  0  0  0  0  0  0  0  0  0  # atno 17371 bound_to 10713
  141.2175  133.6807  156.7122 LP  0  0  0  0  0  0  0  0  0  0  0  0  # atno 17394 bound_to 11000
  140.2806  134.8319  157.3930 LP  0  0  0  0  0  0  0  0  0  0  0  0  # atno 17395 bound_to 11000

$$$$
