AV-unprocessed.smi:3101|AV-procd|sdf|11808|dock2
  -GOLD-   2272017183D 1   1.00000     0.00000
 Structure written by MMmdl.
 28 29  0  0  0  0  0  0  0  0  1 V2000
  152.5354  142.1957  160.7209 C   0  0  0  0  0  0  0  0  0  0  0  0
  152.5737  142.9052  159.3579 C   0  0  2  0  0  0  0  0  0  0  0  0
  152.2301  144.3799  159.4329 C   0  0  0  0  0  0  0  0  0  0  0  0
  151.8281  144.7078  157.9958 C   0  0  0  0  0  0  0  0  0  0  0  0
  151.4356  143.4756  157.3960 O   0  0  0  0  0  0  0  0  0  0  0  0
  151.5277  142.4171  158.3456 C   0  0  1  0  0  0  0  0  0  0  0  0
  151.8556  141.1039  157.6202 C   0  0  0  0  0  0  0  0  0  0  0  0
  152.8103  140.4147  157.9808 O   0  0  0  0  0  0  0  0  0  0  0  0
  151.0302  140.7852  156.6058 N   0  0  0  0  0  0  0  0  0  0  0  0
  151.0723  139.6415  155.7659 C   0  0  0  0  0  0  0  0  0  0  0  0
  151.7588  138.5203  156.2889 C   0  0  0  0  0  0  0  0  0  0  0  0
  151.8867  137.3600  155.6075 N   0  0  0  0  0  0  0  0  0  0  0  0
  151.3204  137.3134  154.3830 C   0  0  0  0  0  0  0  0  0  0  0  0
  150.6320  138.4197  153.8460 C   0  0  0  0  0  0  0  0  0  0  0  0
  150.5090  139.5766  154.5323 N   0  0  0  0  0  0  0  0  0  0  0  0
  151.5509  142.2746  161.1827 H   0  0  0  0  0  0  0  0  0  0  0  0
  153.2608  142.6337  161.4067 H   0  0  0  0  0  0  0  0  0  0  0  0
  152.7727  141.1363  160.6251 H   0  0  0  0  0  0  0  0  0  0  0  0
  153.5727  142.8046  158.9295 H   0  0  0  0  0  0  0  0  0  0  0  0
  151.3792  144.5367  160.0976 H   0  0  0  0  0  0  0  0  0  0  0  0
  153.0569  144.9936  159.7918 H   0  0  0  0  0  0  0  0  0  0  0  0
  151.0207  145.4393  157.9563 H   0  0  0  0  0  0  0  0  0  0  0  0
  152.6755  145.1090  157.4393 H   0  0  0  0  0  0  0  0  0  0  0  0
  150.5569  142.3185  158.8346 H   0  0  0  0  0  0  0  0  0  0  0  0
  150.2887  141.4427  156.4125 H   0  0  0  0  0  0  0  0  0  0  0  0
  152.2135  138.5524  157.2685 H   0  0  0  0  0  0  0  0  0  0  0  0
  151.4164  136.3912  153.8292 H   0  0  0  0  0  0  0  0  0  0  0  0
  150.1800  138.3767  152.8661 H   0  0  0  0  0  0  0  0  0  0  0  0
  1  2  1  0  0  0  0
  1 16  1  0  0  0  0
  1 17  1  0  0  0  0
  1 18  1  0  0  0  0
  2  6  1  0  0  0  0
  2  3  1  0  0  0  0
  2 19  1  0  0  0  0
  3  4  1  0  0  0  0
  3 20  1  0  0  0  0
  3 21  1  0  0  0  0
  4  5  1  0  0  0  0
  4 22  1  0  0  0  0
  4 23  1  0  0  0  0
  5  6  1  0  0  0  0
  6  7  1  0  0  0  0
  6 24  1  0  0  0  0
  7  8  2  0  0  0  0
  7  9  1  0  0  0  0
  9 10  1  0  0  0  0
  9 25  1  0  0  0  0
 10 15  1  0  0  0  0
 10 11  2  0  0  0  0
 11 12  1  0  0  0  0
 11 26  1  0  0  0  0
 12 13  2  0  0  0  0
 13 14  1  0  0  0  0
 13 27  1  0  0  0  0
 14 15  2  0  0  0  0
 14 28  1  0  0  0  0
M  END
> <s_m_source_file>
AV-unprocessed.smi

> <i_m_source_file_index>
3101

> <i_lp_mmshare_version>
43012

> <i_f3d_flags>
0

> <s_epik_input>
W0NIM11bQ0BASF0xW0NIMl1bQ0gyXU9bQ0BIXTFDKD1PKVtOSF1jMltjSF1uW2NIXVtjSF1uMg==

> <s_epik_cmdline>
J2VwaWtfcHl0aG9uJywgJy1waCcsICc3LjAnLCAnLXRuJywgJzgnLCAnLW1hJywgJzIwMCcsICctbWV0YWxfYmluZGluZycsICctaW1hZScsICc8aW5maWxlLm1hZT4nLCAnLW9tYWUnLCAnPG91dGZpbGUubWFlPic=

> <r_lp_tautomer_probability>
1

> <r_epik_Ionization_Penalty>
2.83174e-06

> <r_epik_Ionization_Penalty_Charging>
0

> <r_epik_Ionization_Penalty_Neutral>
2.83174e-06

> <r_epik_State_Penalty>
-0

> <r_epik_Charging_Adjusted_Penalty>
0

> <i_epik_Tot_Q>
0

> <i_epik_Tot_abs_Q>
0

> <r_epik_Metal_State_Penalty>
-0

> <b_epik_Metal_Only>
0

> <s_lp_Force_Field>
OPLS_2005

> <r_lp_Energy>
26.5454

> <b_lp_Chiralities_Consistent>
1

> <s_lp_Variant>
AV-unprocessed.smi:3101-1

> <Gold.Version>
5.8.1

> <Gold.Id.Protein>
6NUR|6NUR_protein|mol2

> <Gold.PLP.Fitness>
44.5358

> <Gold.PLP.PLP>
-30.7344

> <Gold.PLP.part.hbond>
-2.5197

> <Gold.PLP.part.metal>
0.0000

> <Gold.PLP.part.buried>
-2.8397

> <Gold.PLP.part.nonpolar>
-25.6185

> <Gold.PLP.part.repulsive>
0.3652

> <Gold.PLP.ligand.clash>
0.0371

> <Gold.PLP.ligand.torsion>
0.2320

> <Gold.PLP.Chemscore.Hbond>
1.9582

> <Gold.PLP.Chemscore.CHOScore>
2.8072

> <Gold.PLP.Chemscore.Metal>
0.0000

> <Gold.Chemscore.Hbonds>
donor molecule, donor type, donor heavy atom, donor atom, acceptor molecule, acceptor atom, score
      P1  H  7989  7998       L1    15  1.00
      P1  H  7997  8008       L1     8  0.88
      P1  H 10752 10764       L1    12  0.10
      L1  C    13    27       P1  7949  1.00
      L1  C    14    28       P1  7948  0.68
      L1  C    14    28       P1  7949  0.01
      L1  C    14    28       P1  7957  1.00

> <Gold.PLP.Chemscore.Internal.Correction>
0.0063

> <Gold.Rescore>
     Score         DG    S(hbond)    S(metal)    S(lipo)     H(rot)  DE(clash)    DE(int)     intcor
     15.02     -17.01       1.39        0.00      80.83       1.00       0.34       1.65       ----

> <Gold.Chemscore.Fitness>
15.0179

> <Gold.Chemscore.DG>
-17.0079

> <Gold.Chemscore.ZeroCoef>
-5.4800

> <Gold.Chemscore.Hbond>
1.3866

> <Gold.Chemscore.Metal>
0.0000

> <Gold.Chemscore.Lipo>
80.8254

> <Gold.Chemscore.Internal_Hbond>
0.0000

> <Gold.Chemscore.DEClash>
0.3447

> <Gold.Chemscore.DEInternal>
1.6453

> <Gold.Chemscore.Rot>
1.0000

> <Gold.Chemscore.Internal.Correction>
   9.000000E+99

> <Gold.Chemscore.Hbonds>
donor molecule, donor type, donor heavy atom, donor atom, acceptor molecule, acceptor atom, score
      P1  H  7989  7998       L1    15  0.13
      P1  H  7997  8008       L1     8  0.80

> <Gold.Chemscore.Hbond.Weighted>
-4.6314

> <Gold.Chemscore.Metal.Weighted>
-0.0000

> <Gold.Chemscore.Lipo.Weighted>
-9.4566

> <Gold.Chemscore.Internal_Hbond.Weighted>
0.0000

> <Gold.Chemscore.DEClash.Weighted>
0.3447

> <Gold.Chemscore.DEInternal.Weighted>
1.6453

> <Gold.Chemscore.Rot.Weighted>
2.5600

> <Gold.Chemscore.Internal.Correction.Weighted>
   9.000000E+99

> <Gold.Protein.RotatedTorsions>
[ 6907 6896 6895 6894 ] final -140.31 input  -60.11 | X-H torsion
[ 7974 7965 7964 7962 ] final   33.80 input  175.53 | X-H torsion
[ 8008 7997 7996 7995 ] final  -73.90 input   59.86 | X-H torsion
[ 10167 10162 10161 10158 ] final  -44.50 input  -65.29 | X-H torsion
[ 10718 10713 10712 10709 ] final  -27.13 input   66.30 | X-H torsion
[ 10763 10752 10751 10750 ] final  -34.39 input  -60.55 | X-H torsion
[ 11005 11000 10999 10996 ] final -119.89 input  -57.11 | X-H torsion

> <Gold.Protein.ActiveResidues>
 VAL166  LYS551  ARG553  GLY616  TRP617  ASP618  TYR619  PRO620  LYS621  CYS622 
 ASP623  PHE694  ASN695  SER759  ASP760  ASP761  ALA762  ILE779  LEU786  VAL792 
 PHE793  MET794  SER795  GLU796  ALA797  LYS798  CYS799  TRP800  GLU811  SER814 

> <Gold.Protein.RotatedAtoms>
  151.0590  133.5560  159.2635 H   0  0  0  0  0  0  0  0  0  0  0  0  # atno 6907 bound_to 6896
  151.2542  135.0632  159.9083 H   0  0  0  0  0  0  0  0  0  0  0  0  # atno 6908 bound_to 6896
  152.5394  134.0345  159.8094 H   0  0  0  0  0  0  0  0  0  0  0  0  # atno 6909 bound_to 6896
  146.1396  139.6351  142.9172 H   0  0  0  0  0  0  0  0  0  0  0  0  # atno 7974 bound_to 7965
  154.5286  140.0771  156.8303 H   0  0  0  0  0  0  0  0  0  0  0  0  # atno 8008 bound_to 7997
  155.3423  140.3408  155.4221 H   0  0  0  0  0  0  0  0  0  0  0  0  # atno 8009 bound_to 7997
  156.1757  140.1635  156.8353 H   0  0  0  0  0  0  0  0  0  0  0  0  # atno 8010 bound_to 7997
  140.6894  143.2927  151.3504 H   0  0  0  0  0  0  0  0  0  0  0  0  # atno 10167 bound_to 10162
  156.4422  130.4466  149.7045 H   0  0  0  0  0  0  0  0  0  0  0  0  # atno 10718 bound_to 10713
  153.8458  135.6853  153.4797 H   0  0  0  0  0  0  0  0  0  0  0  0  # atno 10763 bound_to 10752
  153.1426  135.4651  154.9517 H   0  0  0  0  0  0  0  0  0  0  0  0  # atno 10764 bound_to 10752
  154.7824  135.3273  154.7907 H   0  0  0  0  0  0  0  0  0  0  0  0  # atno 10765 bound_to 10752
  141.0183  134.0162  157.3318 H   0  0  0  0  0  0  0  0  0  0  0  0  # atno 11005 bound_to 11000
  145.5076  141.0436  143.2505 LP  0  0  0  0  0  0  0  0  0  0  0  0  # atno 17320 bound_to 7965
  144.7778  139.6592  143.7167 LP  0  0  0  0  0  0  0  0  0  0  0  0  # atno 17321 bound_to 7965
  139.6283  144.0771  152.2453 LP  0  0  0  0  0  0  0  0  0  0  0  0  # atno 17342 bound_to 10162
  140.0238  144.6133  150.7545 LP  0  0  0  0  0  0  0  0  0  0  0  0  # atno 17343 bound_to 10162
  156.3906  130.7625  151.2625 LP  0  0  0  0  0  0  0  0  0  0  0  0  # atno 17370 bound_to 10713
  157.7506  131.0269  150.3982 LP  0  0  0  0  0  0  0  0  0  0  0  0  # atno 17371 bound_to 10713
  139.9130  135.0193  156.7770 LP  0  0  0  0  0  0  0  0  0  0  0  0  # atno 17394 bound_to 11000
  140.6616  133.9640  155.7808 LP  0  0  0  0  0  0  0  0  0  0  0  0  # atno 17395 bound_to 11000

$$$$
