AV-unprocessed.smi:3057|AV-procd|sdf|11661|dock5
  -GOLD-   2272017 63D 1   1.00000     0.00000
 Structure written by MMmdl.
 40 42  0  0  0  0  0  0  0  0  1 V2000
  149.0923  141.1288  154.2767 C   0  0  0  0  0  0  0  0  0  0  0  0
  149.3732  139.9053  155.1701 C   0  0  1  0  0  0  0  0  0  0  0  0
  150.1044  138.7957  154.3925 C   0  0  0  0  0  0  0  0  0  0  0  0
  151.5908  139.0213  154.7056 C   0  0  0  0  0  0  0  0  0  0  0  0
  151.5359  139.7810  156.0210 C   0  0  0  0  0  0  0  0  0  0  0  0
  152.4971  139.8878  156.7809 O   0  0  0  0  0  0  0  0  0  0  0  0
  150.2953  140.2350  156.2403 N   0  0  0  0  0  0  0  0  0  0  0  0
  149.7382  140.6845  157.5184 C   0  0  1  0  0  0  0  0  0  0  0  0
  150.0957  142.1584  157.7747 C   0  0  0  0  0  0  0  0  0  0  0  0
  149.2159  142.9986  157.9674 O   0  0  0  0  0  0  0  0  0  0  0  0
  151.4034  142.4524  157.7835 N   0  0  0  0  0  0  0  0  0  0  0  0
  151.9531  143.7840  158.0005 C   0  0  0  0  0  0  0  0  0  0  0  0
  151.6781  144.2519  159.4365 C   0  0  0  0  0  0  0  0  0  0  0  0
  152.4320  143.4312  160.4659 C   0  0  0  0  0  0  0  0  0  0  0  0
  153.3514  142.4390  160.0635 C   0  0  0  0  0  0  0  0  0  0  0  0
  154.0242  141.7044  161.0591 C   0  0  0  0  0  0  0  0  0  0  0  0
  153.7523  141.9876  162.4114 C   0  0  0  0  0  0  0  0  0  0  0  0
  152.8151  142.9968  162.7094 C   0  0  0  0  0  0  0  0  0  0  0  0
  152.1655  143.7078  161.7624 N   0  0  0  0  0  0  0  0  0  0  0  0
  148.2015  140.5213  157.4086 C   0  0  0  0  0  0  0  0  0  0  0  0
  147.8892  139.3720  156.0394 S   0  0  0  0  0  0  0  0  0  0  0  0
  150.0109  141.5270  153.8443 H   0  0  0  0  0  0  0  0  0  0  0  0
  148.6139  141.9352  154.8323 H   0  0  0  0  0  0  0  0  0  0  0  0
  148.4276  140.8650  153.4537 H   0  0  0  0  0  0  0  0  0  0  0  0
  149.8035  137.8110  154.7536 H   0  0  0  0  0  0  0  0  0  0  0  0
  149.8985  138.8253  153.3218 H   0  0  0  0  0  0  0  0  0  0  0  0
  152.1434  138.0857  154.7960 H   0  0  0  0  0  0  0  0  0  0  0  0
  152.0692  139.6446  153.9494 H   0  0  0  0  0  0  0  0  0  0  0  0
  150.1226  140.0470  158.3172 H   0  0  0  0  0  0  0  0  0  0  0  0
  152.0618  141.7051  157.6165 H   0  0  0  0  0  0  0  0  0  0  0  0
  153.0283  143.7800  157.8132 H   0  0  0  0  0  0  0  0  0  0  0  0
  151.5030  144.4733  157.2849 H   0  0  0  0  0  0  0  0  0  0  0  0
  151.9525  145.3021  159.5456 H   0  0  0  0  0  0  0  0  0  0  0  0
  150.6100  144.1902  159.6507 H   0  0  0  0  0  0  0  0  0  0  0  0
  153.5384  142.2441  159.0175 H   0  0  0  0  0  0  0  0  0  0  0  0
  154.7359  140.9378  160.7903 H   0  0  0  0  0  0  0  0  0  0  0  0
  154.2497  141.4445  163.2013 H   0  0  0  0  0  0  0  0  0  0  0  0
  152.5818  143.2398  163.7356 H   0  0  0  0  0  0  0  0  0  0  0  0
  147.7621  140.1471  158.3332 H   0  0  0  0  0  0  0  0  0  0  0  0
  147.7035  141.4615  157.1658 H   0  0  0  0  0  0  0  0  0  0  0  0
  1  2  1  0  0  0  0
  1 22  1  0  0  0  0
  1 23  1  0  0  0  0
  1 24  1  0  0  0  0
  2  7  1  0  0  0  0
  2 21  1  0  0  0  0
  2  3  1  0  0  0  0
  3  4  1  0  0  0  0
  3 25  1  0  0  0  0
  3 26  1  0  0  0  0
  4  5  1  0  0  0  0
  4 27  1  0  0  0  0
  4 28  1  0  0  0  0
  5  6  2  0  0  0  0
  5  7  1  0  0  0  0
  7  8  1  0  0  0  0
  8  9  1  0  0  0  0
  8 20  1  0  0  0  0
  8 29  1  0  0  0  0
  9 10  2  0  0  0  0
  9 11  1  0  0  0  0
 11 12  1  0  0  0  0
 11 30  1  0  0  0  0
 12 13  1  0  0  0  0
 12 31  1  0  0  0  0
 12 32  1  0  0  0  0
 13 14  1  0  0  0  0
 13 33  1  0  0  0  0
 13 34  1  0  0  0  0
 14 19  1  0  0  0  0
 14 15  2  0  0  0  0
 15 16  1  0  0  0  0
 15 35  1  0  0  0  0
 16 17  2  0  0  0  0
 16 36  1  0  0  0  0
 17 18  1  0  0  0  0
 17 37  1  0  0  0  0
 18 19  2  0  0  0  0
 18 38  1  0  0  0  0
 20 21  1  0  0  0  0
 20 39  1  0  0  0  0
 20 40  1  0  0  0  0
M  END
> <s_m_source_file>
AV-unprocessed.smi

> <i_m_source_file_index>
3057

> <i_lp_mmshare_version>
43012

> <i_f3d_flags>
0

> <s_epik_input>
W0NIMl0xW0NIMl1DKD1PKU4oW0NAQF0xMltDSDNdKVtDQEhdKFtDSDJdUzIpQyg9TylbTkhdW0NIMl1bQ0gyXWMzW2NIXVtjSF1bY0hdW2NIXW4z

> <s_epik_cmdline>
J2VwaWtfcHl0aG9uJywgJy1waCcsICc3LjAnLCAnLXRuJywgJzgnLCAnLW1hJywgJzIwMCcsICctbWV0YWxfYmluZGluZycsICctaW1hZScsICc8aW5maWxlLm1hZT4nLCAnLW9tYWUnLCAnPG91dGZpbGUubWFlPic=

> <r_epik_Ionization_Penalty>
0.0249631

> <r_epik_Ionization_Penalty_Charging>
0

> <r_epik_Ionization_Penalty_Neutral>
0.0249631

> <r_epik_State_Penalty>
0.0202943

> <r_epik_Charging_Adjusted_Penalty>
0.0202943

> <i_epik_Tot_Q>
0

> <i_epik_Tot_abs_Q>
0

> <r_epik_Metal_State_Penalty>
0.0194661

> <b_epik_Metal_Only>
0

> <s_lp_Force_Field>
OPLS_2005

> <r_lp_Energy>
25.4312

> <b_lp_Chiralities_Consistent>
1

> <s_lp_Variant>
AV-unprocessed.smi:3057-1

> <Gold.Version>
5.8.1

> <Gold.Id.Protein>
6NUR|6NUR_protein|mol2

> <Gold.PLP.Fitness>
48.1572

> <Gold.PLP.PLP>
-45.3782

> <Gold.PLP.part.hbond>
-1.0000

> <Gold.PLP.part.metal>
0.0000

> <Gold.PLP.part.buried>
-4.4768

> <Gold.PLP.part.nonpolar>
-41.8897

> <Gold.PLP.part.repulsive>
1.7178

> <Gold.PLP.ligand.clash>
0.0368

> <Gold.PLP.ligand.torsion>
0.0980

> <Gold.PLP.Chemscore.Hbond>
1.0000

> <Gold.PLP.Chemscore.CHOScore>
0.0000

> <Gold.PLP.Chemscore.Metal>
0.0000

> <Gold.Chemscore.Hbonds>
donor molecule, donor type, donor heavy atom, donor atom, acceptor molecule, acceptor atom, score
      P1  H  7997  8010       L1     6  1.00

> <Gold.PLP.Chemscore.Internal.Correction>
0.0118

> <Gold.Rescore>
     Score         DG    S(hbond)    S(metal)    S(lipo)     H(rot)  DE(clash)    DE(int)     intcor
     16.91     -18.36       1.00        0.00     115.13       1.53       0.35       1.10       ----

> <Gold.Chemscore.Fitness>
16.9145

> <Gold.Chemscore.DG>
-18.3631

> <Gold.Chemscore.ZeroCoef>
-5.4800

> <Gold.Chemscore.Hbond>
0.9999

> <Gold.Chemscore.Metal>
0.0000

> <Gold.Chemscore.Lipo>
115.1285

> <Gold.Chemscore.Internal_Hbond>
0.0000

> <Gold.Chemscore.DEClash>
0.3460

> <Gold.Chemscore.DEInternal>
1.1027

> <Gold.Chemscore.Rot>
1.5339

> <Gold.Chemscore.Internal.Correction>
   9.000000E+99

> <Gold.Chemscore.Hbonds>
donor molecule, donor type, donor heavy atom, donor atom, acceptor molecule, acceptor atom, score
      P1  H  7997  8010       L1     6  0.99

> <Gold.Chemscore.Hbond.Weighted>
-3.3398

> <Gold.Chemscore.Metal.Weighted>
-0.0000

> <Gold.Chemscore.Lipo.Weighted>
-13.4700

> <Gold.Chemscore.Internal_Hbond.Weighted>
0.0000

> <Gold.Chemscore.DEClash.Weighted>
0.3460

> <Gold.Chemscore.DEInternal.Weighted>
1.1027

> <Gold.Chemscore.Rot.Weighted>
3.9267

> <Gold.Chemscore.Internal.Correction.Weighted>
   9.000000E+99

> <Gold.Protein.RotatedTorsions>
[ 6907 6896 6895 6894 ] final   74.98 input  -60.11 | X-H torsion
[ 7974 7965 7964 7962 ] final -179.15 input  175.53 | X-H torsion
[ 8008 7997 7996 7995 ] final   75.38 input   59.86 | X-H torsion
[ 10167 10162 10161 10158 ] final  122.63 input  -65.29 | X-H torsion
[ 10718 10713 10712 10709 ] final  145.38 input   66.30 | X-H torsion
[ 10763 10752 10751 10750 ] final  -29.62 input  -60.55 | X-H torsion
[ 11005 11000 10999 10996 ] final   90.88 input  -57.11 | X-H torsion

> <Gold.Protein.ActiveResidues>
 VAL166  LYS551  ARG553  GLY616  TRP617  ASP618  TYR619  PRO620  LYS621  CYS622 
 ASP623  PHE694  ASN695  SER759  ASP760  ASP761  ALA762  ILE779  LEU786  VAL792 
 PHE793  MET794  SER795  GLU796  ALA797  LYS798  CYS799  TRP800  GLU811  SER814 

> <Gold.Protein.RotatedAtoms>
  152.5003  134.4190  159.9473 H   0  0  0  0  0  0  0  0  0  0  0  0  # atno 6907 bound_to 6896
  151.4162  133.3706  159.2758 H   0  0  0  0  0  0  0  0  0  0  0  0  # atno 6908 bound_to 6896
  150.9256  134.8695  159.7577 H   0  0  0  0  0  0  0  0  0  0  0  0  # atno 6909 bound_to 6896
  144.7135  140.0760  143.6427 H   0  0  0  0  0  0  0  0  0  0  0  0  # atno 7974 bound_to 7965
  155.8120  140.3473  155.5463 H   0  0  0  0  0  0  0  0  0  0  0  0  # atno 8008 bound_to 7997
  155.8430  140.0944  157.1742 H   0  0  0  0  0  0  0  0  0  0  0  0  # atno 8009 bound_to 7997
  154.4005  140.1391  156.3739 H   0  0  0  0  0  0  0  0  0  0  0  0  # atno 8010 bound_to 7997
  139.5847  144.7001  151.3439 H   0  0  0  0  0  0  0  0  0  0  0  0  # atno 10167 bound_to 10162
  157.3459  131.0943  151.1042 H   0  0  0  0  0  0  0  0  0  0  0  0  # atno 10718 bound_to 10713
  153.7677  135.6914  153.4912 H   0  0  0  0  0  0  0  0  0  0  0  0  # atno 10763 bound_to 10752
  153.1895  135.4476  155.0130 H   0  0  0  0  0  0  0  0  0  0  0  0  # atno 10764 bound_to 10752
  154.8129  135.3386  154.7188 H   0  0  0  0  0  0  0  0  0  0  0  0  # atno 10765 bound_to 10752
  139.8848  134.8640  156.3348 H   0  0  0  0  0  0  0  0  0  0  0  0  # atno 11005 bound_to 11000
  145.9742  139.2893  143.1080 LP  0  0  0  0  0  0  0  0  0  0  0  0  # atno 17320 bound_to 7965
  145.9082  140.9198  143.0467 LP  0  0  0  0  0  0  0  0  0  0  0  0  # atno 17321 bound_to 7965
  140.7120  143.7365  150.7585 LP  0  0  0  0  0  0  0  0  0  0  0  0  # atno 17342 bound_to 10162
  140.0906  143.4881  152.2481 LP  0  0  0  0  0  0  0  0  0  0  0  0  # atno 17343 bound_to 10162
  157.2236  130.6493  149.5821 LP  0  0  0  0  0  0  0  0  0  0  0  0  # atno 17370 bound_to 10713
  155.9714  130.4621  150.6134 LP  0  0  0  0  0  0  0  0  0  0  0  0  # atno 17371 bound_to 10713
  140.9698  133.7334  156.0519 LP  0  0  0  0  0  0  0  0  0  0  0  0  # atno 17394 bound_to 11000
  140.7884  134.3645  157.5470 LP  0  0  0  0  0  0  0  0  0  0  0  0  # atno 17395 bound_to 11000

$$$$
