AV-unprocessed.smi:2591|AV-procd|sdf|10157|dock9
  -GOLD-   2272014173D 1   1.00000     0.00000
 Structure written by MMmdl.
 34 35  0  0  0  0  0  0  0  0  1 V2000
  150.7567  134.9575  155.6545 C   0  0  0  0  0  0  0  0  0  0  0  0
  151.6031  136.1284  155.4826 N   0  0  0  0  0  0  0  0  0  0  0  0
  151.0021  137.1005  154.5798 C   0  0  0  0  0  0  0  0  0  0  0  0
  151.8981  138.3379  154.4042 C   0  0  0  0  0  0  0  0  0  0  0  0
  152.1714  138.9155  155.6774 O   0  0  0  0  0  0  0  0  0  0  0  0
  152.8031  138.0095  156.5836 C   0  0  1  0  0  0  0  0  0  0  0  0
  153.0784  138.7407  157.9055 C   0  0  0  0  0  0  0  0  0  0  0  0
  153.6459  138.1551  158.8291 O   0  0  0  0  0  0  0  0  0  0  0  0
  152.6818  140.0271  157.9528 N   0  0  0  0  0  0  0  0  0  0  0  0
  152.8094  140.9515  159.0231 C   0  0  0  0  0  0  0  0  0  0  0  0
  152.1808  142.1992  158.8141 C   0  0  0  0  0  0  0  0  0  0  0  0
  152.2540  143.1960  159.8112 C   0  0  0  0  0  0  0  0  0  0  0  0
  151.5838  144.5470  159.6149 C   0  0  0  0  0  0  0  0  0  0  0  0
  150.2638  144.4079  159.4878 F   0  0  0  0  0  0  0  0  0  0  0  0
  151.8213  145.3490  160.6536 F   0  0  0  0  0  0  0  0  0  0  0  0
  152.0637  145.1194  158.5117 F   0  0  0  0  0  0  0  0  0  0  0  0
  152.9495  142.9002  161.0011 C   0  0  0  0  0  0  0  0  0  0  0  0
  153.5437  141.6320  161.1301 C   0  0  0  0  0  0  0  0  0  0  0  0
  153.4791  140.6852  160.1716 N   0  0  0  0  0  0  0  0  0  0  0  0
  151.9027  136.7649  156.7589 C   0  0  0  0  0  0  0  0  0  0  0  0
  150.5675  134.4732  154.6960 H   0  0  0  0  0  0  0  0  0  0  0  0
  149.7960  135.2267  156.0956 H   0  0  0  0  0  0  0  0  0  0  0  0
  151.2370  134.2271  156.3064 H   0  0  0  0  0  0  0  0  0  0  0  0
  150.8218  136.6412  153.6073 H   0  0  0  0  0  0  0  0  0  0  0  0
  150.0293  137.4112  154.9643 H   0  0  0  0  0  0  0  0  0  0  0  0
  152.8335  138.0706  153.9103 H   0  0  0  0  0  0  0  0  0  0  0  0
  151.4038  139.0781  153.7752 H   0  0  0  0  0  0  0  0  0  0  0  0
  153.7663  137.7077  156.1680 H   0  0  0  0  0  0  0  0  0  0  0  0
  152.2338  140.3823  157.1208 H   0  0  0  0  0  0  0  0  0  0  0  0
  151.6470  142.3912  157.8944 H   0  0  0  0  0  0  0  0  0  0  0  0
  153.0269  143.6236  161.7995 H   0  0  0  0  0  0  0  0  0  0  0  0
  154.0841  141.3695  162.0275 H   0  0  0  0  0  0  0  0  0  0  0  0
  150.9729  137.0524  157.2533 H   0  0  0  0  0  0  0  0  0  0  0  0
  152.3950  136.0454  157.4148 H   0  0  0  0  0  0  0  0  0  0  0  0
  1  2  1  0  0  0  0
  1 21  1  0  0  0  0
  1 22  1  0  0  0  0
  1 23  1  0  0  0  0
  2 20  1  0  0  0  0
  2  3  1  0  0  0  0
  3  4  1  0  0  0  0
  3 24  1  0  0  0  0
  3 25  1  0  0  0  0
  4  5  1  0  0  0  0
  4 26  1  0  0  0  0
  4 27  1  0  0  0  0
  5  6  1  0  0  0  0
  6  7  1  0  0  0  0
  6 20  1  0  0  0  0
  6 28  1  0  0  0  0
  7  8  2  0  0  0  0
  7  9  1  0  0  0  0
  9 10  1  0  0  0  0
  9 29  1  0  0  0  0
 10 19  1  0  0  0  0
 10 11  2  0  0  0  0
 11 12  1  0  0  0  0
 11 30  1  0  0  0  0
 12 13  1  0  0  0  0
 12 17  2  0  0  0  0
 13 14  1  0  0  0  0
 13 15  1  0  0  0  0
 13 16  1  0  0  0  0
 17 18  1  0  0  0  0
 17 31  1  0  0  0  0
 18 19  2  0  0  0  0
 18 32  1  0  0  0  0
 20 33  1  0  0  0  0
 20 34  1  0  0  0  0
M  END
> <s_m_source_file>
AV-unprocessed.smi

> <i_m_source_file_index>
2591

> <i_lp_mmshare_version>
43012

> <i_f3d_flags>
0

> <s_epik_input>
W0NIM11OMVtDSDJdW0NIMl1PW0NASF0oW0NIMl0xKUMoPU8pW05IXWMyW2NIXWMoQyhGKShGKUYpW2NIXVtjSF1uMg==

> <s_epik_cmdline>
J2VwaWtfcHl0aG9uJywgJy1waCcsICc3LjAnLCAnLXRuJywgJzgnLCAnLW1hJywgJzIwMCcsICctbWV0YWxfYmluZGluZycsICctaW1hZScsICc8aW5maWxlLm1hZT4nLCAnLW9tYWUnLCAnPG91dGZpbGUubWFlPic=

> <r_epik_Ionization_Penalty>
0.526245

> <r_epik_Ionization_Penalty_Charging>
0

> <r_epik_Ionization_Penalty_Neutral>
0.526245

> <r_epik_State_Penalty>
0.534659

> <r_epik_Charging_Adjusted_Penalty>
0.534659

> <i_epik_Tot_Q>
0

> <i_epik_Tot_abs_Q>
0

> <r_epik_Metal_State_Penalty>
0.534657

> <b_epik_Metal_Only>
0

> <s_lp_Force_Field>
OPLS_2005

> <r_lp_Energy>
21.9247

> <b_lp_Chiralities_Consistent>
1

> <s_lp_Variant>
AV-unprocessed.smi:2591-5

> <Gold.Version>
5.8.1

> <Gold.Id.Protein>
6NUR|6NUR_protein|mol2

> <Gold.PLP.Fitness>
45.2265

> <Gold.PLP.PLP>
-42.3369

> <Gold.PLP.part.hbond>
-1.0000

> <Gold.PLP.part.metal>
0.0000

> <Gold.PLP.part.buried>
-6.4205

> <Gold.PLP.part.nonpolar>
-35.6859

> <Gold.PLP.part.repulsive>
0.4853

> <Gold.PLP.ligand.clash>
1.1374

> <Gold.PLP.ligand.torsion>
0.0296

> <Gold.PLP.Chemscore.Hbond>
1.0000

> <Gold.PLP.Chemscore.CHOScore>
0.0000

> <Gold.PLP.Chemscore.Metal>
0.0000

> <Gold.Chemscore.Hbonds>
donor molecule, donor type, donor heavy atom, donor atom, acceptor molecule, acceptor atom, score
      P1  H 10752 10765       L1     2  1.00

> <Gold.PLP.Chemscore.Internal.Correction>
1.0861

> <Gold.Rescore>
     Score         DG    S(hbond)    S(metal)    S(lipo)     H(rot)  DE(clash)    DE(int)     intcor
     12.25     -13.79       0.27        0.00      85.10       1.00       0.22       1.32       ----

> <Gold.Chemscore.Fitness>
12.2511

> <Gold.Chemscore.DG>
-13.7933

> <Gold.Chemscore.ZeroCoef>
-5.4800

> <Gold.Chemscore.Hbond>
0.2743

> <Gold.Chemscore.Metal>
0.0000

> <Gold.Chemscore.Lipo>
85.1046

> <Gold.Chemscore.Internal_Hbond>
0.0000

> <Gold.Chemscore.DEClash>
0.2210

> <Gold.Chemscore.DEInternal>
1.3212

> <Gold.Chemscore.Rot>
1.0000

> <Gold.Chemscore.Internal.Correction>
   9.000000E+99

> <Gold.Chemscore.Hbonds>
donor molecule, donor type, donor heavy atom, donor atom, acceptor molecule, acceptor atom, score
      P1  H 10752 10765       L1     2  0.18

> <Gold.Chemscore.Hbond.Weighted>
-0.9160

> <Gold.Chemscore.Metal.Weighted>
-0.0000

> <Gold.Chemscore.Lipo.Weighted>
-9.9572

> <Gold.Chemscore.Internal_Hbond.Weighted>
0.0000

> <Gold.Chemscore.DEClash.Weighted>
0.2210

> <Gold.Chemscore.DEInternal.Weighted>
1.3212

> <Gold.Chemscore.Rot.Weighted>
2.5600

> <Gold.Chemscore.Internal.Correction.Weighted>
   9.000000E+99

> <Gold.Protein.RotatedTorsions>
[ 6907 6896 6895 6894 ] final  160.44 input  -60.11 | X-H torsion
[ 7974 7965 7964 7962 ] final  -26.58 input  175.53 | X-H torsion
[ 8008 7997 7996 7995 ] final  172.56 input   59.86 | X-H torsion
[ 10167 10162 10161 10158 ] final  -48.70 input  -65.29 | X-H torsion
[ 10718 10713 10712 10709 ] final  -22.92 input   66.30 | X-H torsion
[ 10763 10752 10751 10750 ] final -179.35 input  -60.55 | X-H torsion
[ 11005 11000 10999 10996 ] final   56.15 input  -57.11 | X-H torsion

> <Gold.Protein.ActiveResidues>
 VAL166  LYS551  ARG553  GLY616  TRP617  ASP618  TYR619  PRO620  LYS621  CYS622 
 ASP623  PHE694  ASN695  SER759  ASP760  ASP761  ALA762  ILE779  LEU786  VAL792 
 PHE793  MET794  SER795  GLU796  ALA797  LYS798  CYS799  TRP800  GLU811  SER814 

> <Gold.Protein.RotatedAtoms>
  151.9705  133.3724  159.4069 H   0  0  0  0  0  0  0  0  0  0  0  0  # atno 6907 bound_to 6896
  150.6949  134.4145  159.5186 H   0  0  0  0  0  0  0  0  0  0  0  0  # atno 6908 bound_to 6896
  152.1848  134.8723  160.0574 H   0  0  0  0  0  0  0  0  0  0  0  0  # atno 6909 bound_to 6896
  146.1416  140.5038  142.8649 H   0  0  0  0  0  0  0  0  0  0  0  0  # atno 7974 bound_to 7965
  156.1162  140.1483  156.9269 H   0  0  0  0  0  0  0  0  0  0  0  0  # atno 8008 bound_to 7997
  154.4802  140.0881  156.7402 H   0  0  0  0  0  0  0  0  0  0  0  0  # atno 8009 bound_to 7997
  155.4509  140.3434  155.4303 H   0  0  0  0  0  0  0  0  0  0  0  0  # atno 8010 bound_to 7997
  140.6719  143.2729  151.4108 H   0  0  0  0  0  0  0  0  0  0  0  0  # atno 10167 bound_to 10162
  156.4980  130.4581  149.6717 H   0  0  0  0  0  0  0  0  0  0  0  0  # atno 10718 bound_to 10713
  154.5362  135.2803  155.1136 H   0  0  0  0  0  0  0  0  0  0  0  0  # atno 10763 bound_to 10752
  154.2637  135.6317  153.5288 H   0  0  0  0  0  0  0  0  0  0  0  0  # atno 10764 bound_to 10752
  152.9968  135.5611  154.5889 H   0  0  0  0  0  0  0  0  0  0  0  0  # atno 10765 bound_to 10752
  140.0551  134.5681  155.9217 H   0  0  0  0  0  0  0  0  0  0  0  0  # atno 11005 bound_to 11000
  144.7799  140.5818  143.6613 LP  0  0  0  0  0  0  0  0  0  0  0  0  # atno 17320 bound_to 7965
  145.5034  139.1482  143.3645 LP  0  0  0  0  0  0  0  0  0  0  0  0  # atno 17321 bound_to 7965
  139.5991  144.1333  152.2178 LP  0  0  0  0  0  0  0  0  0  0  0  0  # atno 17342 bound_to 10162
  140.0711  144.5778  150.7191 LP  0  0  0  0  0  0  0  0  0  0  0  0  # atno 17343 bound_to 10162
  156.3361  130.7357  151.2294 LP  0  0  0  0  0  0  0  0  0  0  0  0  # atno 17370 bound_to 10713
  157.7466  131.0416  150.4657 LP  0  0  0  0  0  0  0  0  0  0  0  0  # atno 17371 bound_to 10713
  141.1948  133.6584  156.5614 LP  0  0  0  0  0  0  0  0  0  0  0  0  # atno 17394 bound_to 11000
  140.3856  134.7485  157.4689 LP  0  0  0  0  0  0  0  0  0  0  0  0  # atno 17395 bound_to 11000

$$$$
