AV-unprocessed.smi:38|AV-procd|sdf|339|dock2
  -GOLD-   2262016173D 1   1.00000     0.00000
 Structure written by MMmdl.
 28 29  0  0  0  0  0  0  0  0  1 V2000
  140.5143  134.7485  153.6846 O   0  0  0  0  0  0  0  0  0  0  0  0
  141.6262  135.2175  153.4496 C   0  0  0  0  0  0  0  0  0  0  0  0
  142.7641  134.4110  153.5459 N   0  0  0  0  0  0  0  0  0  0  0  0
  144.0759  134.8256  153.3071 C   0  0  0  0  0  0  0  0  0  0  0  0
  145.0000  134.0198  153.4072 O   0  0  0  0  0  0  0  0  0  0  0  0
  144.2680  136.1782  152.9467 N   0  0  0  0  0  0  0  0  0  0  0  0
  145.6646  136.6917  152.6817 C   0  0  1  0  0  0  0  0  0  0  0  0
  145.7270  137.4453  151.3491 C   0  0  0  0  0  0  0  0  0  0  0  0
  146.6421  138.6072  151.6811 C   0  0  2  0  0  0  0  0  0  0  0  0
  147.9969  138.2454  151.4880 O   0  0  0  0  0  0  0  0  0  0  0  0
  146.3108  138.8661  153.1579 C   0  0  2  0  0  0  0  0  0  0  0  0
  147.3793  139.5894  153.9959 C   0  0  0  0  0  0  0  0  0  0  0  0
  147.7891  140.7756  153.3491 O   0  0  0  0  0  0  0  0  0  0  0  0
  146.0208  137.5800  153.7008 O   0  0  0  0  0  0  0  0  0  0  0  0
  143.1648  137.0126  152.8260 C   0  0  0  0  0  0  0  0  0  0  0  0
  141.8971  136.5970  153.0566 C   0  0  0  0  0  0  0  0  0  0  0  0
  140.8790  137.4630  152.9167 F   0  0  0  0  0  0  0  0  0  0  0  0
  142.6247  133.4454  153.8066 H   0  0  0  0  0  0  0  0  0  0  0  0
  146.3540  135.8478  152.7315 H   0  0  0  0  0  0  0  0  0  0  0  0
  146.4296  139.4791  151.0616 H   0  0  0  0  0  0  0  0  0  0  0  0
  145.3841  139.4403  153.2016 H   0  0  0  0  0  0  0  0  0  0  0  0
  146.0824  136.8027  150.5426 H   0  0  0  0  0  0  0  0  0  0  0  0
  144.7347  137.8175  151.0897 H   0  0  0  0  0  0  0  0  0  0  0  0
  148.5353  139.0052  151.6513 H   0  0  0  0  0  0  0  0  0  0  0  0
  146.9673  139.8567  154.9692 H   0  0  0  0  0  0  0  0  0  0  0  0
  148.2438  138.9521  154.1823 H   0  0  0  0  0  0  0  0  0  0  0  0
  148.5518  140.5835  152.8251 H   0  0  0  0  0  0  0  0  0  0  0  0
  143.3092  138.0407  152.5306 H   0  0  0  0  0  0  0  0  0  0  0  0
  1  2  2  0  0  0  0
  2 16  1  0  0  0  0
  2  3  1  0  0  0  0
  3 18  1  0  0  0  0
  3  4  1  0  0  0  0
  4  5  2  0  0  0  0
  4  6  1  0  0  0  0
  6  7  1  0  0  0  0
  6 15  1  0  0  0  0
  7 19  1  0  0  0  0
  7 14  1  0  0  0  0
  7  8  1  0  0  0  0
  8  9  1  0  0  0  0
  8 22  1  0  0  0  0
  8 23  1  0  0  0  0
  9 20  1  0  0  0  0
  9 10  1  0  0  0  0
  9 11  1  0  0  0  0
 10 24  1  0  0  0  0
 11 21  1  0  0  0  0
 11 12  1  0  0  0  0
 11 14  1  0  0  0  0
 12 13  1  0  0  0  0
 12 25  1  0  0  0  0
 12 26  1  0  0  0  0
 13 27  1  0  0  0  0
 15 16  2  0  0  0  0
 15 28  1  0  0  0  0
 16 17  1  0  0  0  0
M  END
> <s_m_source_file>
AV-unprocessed.smi

> <i_m_source_file_index>
38

> <i_lp_mmshare_version>
43012

> <i_f3d_flags>
0

> <s_epik_input>
Tz1jMVtuSF1jKD1PKW4oW2NIXWMxRilbQ0BIXTJbQ0gyXVtDQEhdKFtPSF0pW0NASF0oTzIpW0NIMl1bT0hd

> <s_epik_cmdline>
J2VwaWtfcHl0aG9uJywgJy1waCcsICc3LjAnLCAnLXRuJywgJzgnLCAnLW1hJywgJzIwMCcsICctbWV0YWxfYmluZGluZycsICctaW1hZScsICc8aW5maWxlLm1hZT4nLCAnLW9tYWUnLCAnPG91dGZpbGUubWFlPic=

> <r_lp_tautomer_probability>
0.999537

> <r_epik_Ionization_Penalty>
0.0357432

> <r_epik_Ionization_Penalty_Charging>
0.0357431

> <r_epik_Ionization_Penalty_Neutral>
1.19946e-07

> <r_epik_State_Penalty>
0.0298169

> <r_epik_Charging_Adjusted_Penalty>
0.06556

> <i_epik_Tot_Q>
0

> <i_epik_Tot_abs_Q>
0

> <r_epik_Metal_State_Penalty>
2.348

> <b_epik_Metal_Only>
0

> <s_epik_Chemistry_Notes>
This compound contains an acetal/aminal-like group ( X-CH(R)-Y where X, Y are N, S, or O) that may be acid/base labile, releasing an aldehyde.

> <s_lp_Force_Field>
OPLS_2005

> <r_lp_Energy>
29.3974

> <b_lp_Chiralities_Consistent>
1

> <s_lp_Variant>
AV-unprocessed.smi:38-5

> <Gold.Version>
5.8.1

> <Gold.Id.Protein>
6NUR|6NUR_protein|mol2

> <Gold.PLP.Fitness>
40.3776

> <Gold.PLP.PLP>
-23.0122

> <Gold.PLP.part.hbond>
-5.7349

> <Gold.PLP.part.metal>
0.0000

> <Gold.PLP.part.buried>
2.8851

> <Gold.PLP.part.nonpolar>
-20.9102

> <Gold.PLP.part.repulsive>
0.4674

> <Gold.PLP.ligand.clash>
0.0000

> <Gold.PLP.ligand.torsion>
0.2172

> <Gold.PLP.Chemscore.Hbond>
4.9325

> <Gold.PLP.Chemscore.CHOScore>
1.0000

> <Gold.PLP.Chemscore.Metal>
0.0000

> <Gold.Chemscore.Hbonds>
donor molecule, donor type, donor heavy atom, donor atom, acceptor molecule, acceptor atom, score
      L1  H     3    18       P1 10957  1.00
      L1  H    10    24       P1  7957  0.96
      L1  H    13    27       P1  7957  0.98
      P1  H  7954  7966       L1    10  0.93
      P1  H 10995 11001       L1     1  0.04
      P1  H 11000 11005       L1     1  0.80
      L1  C    15    28       P1 10171  0.23
      L1  C    15    28       P1 10175  1.00

> <Gold.PLP.Chemscore.Internal.Correction>
0.0023

> <Gold.Rescore>
     Score         DG    S(hbond)    S(metal)    S(lipo)     H(rot)  DE(clash)    DE(int)     intcor
     14.19     -16.18       4.15        0.00      36.88       2.91       1.72       0.26       ----

> <Gold.Chemscore.Fitness>
14.1928

> <Gold.Chemscore.DG>
-16.1811

> <Gold.Chemscore.ZeroCoef>
-5.4800

> <Gold.Chemscore.Hbond>
4.1457

> <Gold.Chemscore.Metal>
0.0000

> <Gold.Chemscore.Lipo>
36.8766

> <Gold.Chemscore.Internal_Hbond>
0.0000

> <Gold.Chemscore.DEClash>
1.7233

> <Gold.Chemscore.DEInternal>
0.2650

> <Gold.Chemscore.Rot>
2.9141

> <Gold.Chemscore.Internal.Correction>
   9.000000E+99

> <Gold.Chemscore.Hbonds>
donor molecule, donor type, donor heavy atom, donor atom, acceptor molecule, acceptor atom, score
      L1  H     3    18       P1 10957  0.99
      L1  H    10    24       P1  7957  0.68
      L1  H    13    27       P1  7957  0.91
      P1  H  7954  7966       L1    10  0.32
      P1  H 10995 11001       L1     1  0.04
      P1  H 11000 11005       L1     1  0.64

> <Gold.Chemscore.Hbond.Weighted>
-13.8466

> <Gold.Chemscore.Metal.Weighted>
-0.0000

> <Gold.Chemscore.Lipo.Weighted>
-4.3146

> <Gold.Chemscore.Internal_Hbond.Weighted>
0.0000

> <Gold.Chemscore.DEClash.Weighted>
1.7233

> <Gold.Chemscore.DEInternal.Weighted>
0.2650

> <Gold.Chemscore.Rot.Weighted>
7.4601

> <Gold.Chemscore.Internal.Correction.Weighted>
   9.000000E+99

> <Gold.Protein.RotatedTorsions>
[ 6907 6896 6895 6894 ] final  133.95 input  -60.11 | X-H torsion
[ 7974 7965 7964 7962 ] final  -50.62 input  175.53 | X-H torsion
[ 8008 7997 7996 7995 ] final   49.26 input   59.86 | X-H torsion
[ 10167 10162 10161 10158 ] final   58.34 input  -65.29 | X-H torsion
[ 10718 10713 10712 10709 ] final    2.70 input   66.30 | X-H torsion
[ 10763 10752 10751 10750 ] final  -46.20 input  -60.55 | X-H torsion
[ 11005 11000 10999 10996 ] final   40.84 input  -57.11 | X-H torsion

> <Gold.Protein.ActiveResidues>
 VAL166  LYS551  ARG553  GLY616  TRP617  ASP618  TYR619  PRO620  LYS621  CYS622 
 ASP623  PHE694  ASN695  SER759  ASP760  ASP761  ALA762  ILE779  LEU786  VAL792 
 PHE793  MET794  SER795  GLU796  ALA797  LYS798  CYS799  TRP800  GLU811  SER814 

> <Gold.Protein.RotatedAtoms>
  152.3165  133.5808  159.5715 H   0  0  0  0  0  0  0  0  0  0  0  0  # atno 6907 bound_to 6896
  150.7349  134.0074  159.3667 H   0  0  0  0  0  0  0  0  0  0  0  0  # atno 6908 bound_to 6896
  151.7963  135.0722  160.0445 H   0  0  0  0  0  0  0  0  0  0  0  0  # atno 6909 bound_to 6896
  145.9278  140.7776  142.9615 H   0  0  0  0  0  0  0  0  0  0  0  0  # atno 7974 bound_to 7965
  155.3993  140.3437  155.4256 H   0  0  0  0  0  0  0  0  0  0  0  0  # atno 8008 bound_to 7997
  156.1513  140.1572  156.8798 H   0  0  0  0  0  0  0  0  0  0  0  0  # atno 8009 bound_to 7997
  154.5055  140.0803  156.7866 H   0  0  0  0  0  0  0  0  0  0  0  0  # atno 8010 bound_to 7997
  140.1883  144.4112  150.6583 H   0  0  0  0  0  0  0  0  0  0  0  0  # atno 10167 bound_to 10162
  156.8668  130.5606  149.5659 H   0  0  0  0  0  0  0  0  0  0  0  0  # atno 10718 bound_to 10713
  154.0411  135.6644  153.4790 H   0  0  0  0  0  0  0  0  0  0  0  0  # atno 10763 bound_to 10752
  153.0501  135.5090  154.7841 H   0  0  0  0  0  0  0  0  0  0  0  0  # atno 10764 bound_to 10752
  154.6818  135.3046  154.9569 H   0  0  0  0  0  0  0  0  0  0  0  0  # atno 10765 bound_to 10752
  140.1892  134.4008  155.8156 H   0  0  0  0  0  0  0  0  0  0  0  0  # atno 11005 bound_to 11000
  144.6761  140.2079  143.7380 LP  0  0  0  0  0  0  0  0  0  0  0  0  # atno 17320 bound_to 7965
  145.8466  139.2155  143.1797 LP  0  0  0  0  0  0  0  0  0  0  0  0  # atno 17321 bound_to 7965
  140.6473  143.2216  151.6156 LP  0  0  0  0  0  0  0  0  0  0  0  0  # atno 17342 bound_to 10162
  139.5267  144.3039  152.1050 LP  0  0  0  0  0  0  0  0  0  0  0  0  # atno 17343 bound_to 10162
  156.0747  130.5772  150.9451 LP  0  0  0  0  0  0  0  0  0  0  0  0  # atno 17370 bound_to 10713
  157.6218  131.0929  150.8607 LP  0  0  0  0  0  0  0  0  0  0  0  0  # atno 17371 bound_to 10713
  141.2226  133.7038  156.8065 LP  0  0  0  0  0  0  0  0  0  0  0  0  # atno 17394 bound_to 11000
  140.2179  134.8779  157.3346 LP  0  0  0  0  0  0  0  0  0  0  0  0  # atno 17395 bound_to 11000

$$$$
