AV-unprocessed.smi:226|AV-procd|sdf|1726|dock2
  -GOLD-   2262020213D 1   1.00000     0.00000
 Structure written by MMmdl.
 54 58  0  0  0  0  0  0  0  0  1 V2000
  149.2360  139.6431  156.6498 O   0  0  0  0  0  0  0  0  0  0  0  0
  148.7164  140.6700  156.2132 C   0  0  0  0  0  0  0  0  0  0  0  0
  149.3332  141.8631  156.2343 N   0  0  0  0  0  0  0  0  0  0  0  0
  150.6401  142.1201  156.7429 C   0  0  0  0  0  0  0  0  0  0  0  0
  151.6395  140.9843  156.7106 C   0  0  0  0  0  0  0  0  0  0  0  0
  151.0421  141.4172  158.0212 C   0  0  0  0  0  0  0  0  0  0  0  0
  147.3021  140.5946  155.5973 C   0  0  1  0  0  0  0  0  0  0  0  0
  146.8211  141.9673  155.0957 C   0  0  0  0  0  0  0  0  0  0  0  0
  147.2552  142.0040  153.6313 C   0  0  0  0  0  0  0  0  0  0  0  0
  147.0910  140.5518  153.1817 C   0  0  0  0  0  0  0  0  0  0  0  0
  147.2157  139.7562  154.3957 N   0  0  0  0  0  0  0  0  0  0  0  0
  147.1198  138.3981  154.4209 C   0  0  0  0  0  0  0  0  0  0  0  0
  147.6072  137.7390  155.5054 N   0  0  0  0  0  0  0  0  0  0  0  0
  147.5491  136.4075  155.5796 C   0  0  0  0  0  0  0  0  0  0  0  0
  147.0563  135.5456  154.6907 N   0  0  0  0  0  0  0  0  0  0  0  0
  146.5666  136.1918  153.5947 C   0  0  0  0  0  0  0  0  0  0  0  0
  146.5501  137.6017  153.3815 C   0  0  0  0  0  0  0  0  0  0  0  0
  145.9538  137.8745  152.1545 N   0  0  0  0  0  0  0  0  0  0  0  0
  145.6346  136.7033  151.6775 C   0  0  0  0  0  0  0  0  0  0  0  0
  145.9970  135.6340  152.4628 N   0  0  0  0  0  0  0  0  0  0  0  0
  145.7380  134.2486  152.1974 C   0  0  0  0  0  0  0  0  0  0  0  0
  146.2774  133.5715  150.9340 C   0  0  0  0  0  0  0  0  0  0  0  0
  144.9886  132.7284  150.8178 C   0  0  0  0  0  0  0  0  0  0  0  0
  144.3684  132.6756  149.4132 C   0  0  0  0  0  0  0  0  0  0  0  0
  143.0829  132.0890  149.4386 O   0  0  0  0  0  0  0  0  0  0  0  0
  145.0459  131.2765  151.3432 C   0  0  0  0  0  0  0  0  0  0  0  0
  146.2102  130.5825  150.9443 O   0  0  0  0  0  0  0  0  0  0  0  0
  144.3486  133.7728  151.7600 C   0  0  0  0  0  0  0  0  0  0  0  0
  148.8336  142.6519  155.8503 H   0  0  0  0  0  0  0  0  0  0  0  0
  151.0484  143.1189  156.5952 H   0  0  0  0  0  0  0  0  0  0  0  0
  151.3132  140.0308  156.2992 H   0  0  0  0  0  0  0  0  0  0  0  0
  152.6814  141.2385  156.5255 H   0  0  0  0  0  0  0  0  0  0  0  0
  151.6840  141.9611  158.7112 H   0  0  0  0  0  0  0  0  0  0  0  0
  150.3144  140.7550  158.4868 H   0  0  0  0  0  0  0  0  0  0  0  0
  146.6154  140.2405  156.3677 H   0  0  0  0  0  0  0  0  0  0  0  0
  145.7329  142.0161  155.1545 H   0  0  0  0  0  0  0  0  0  0  0  0
  147.2135  142.8090  155.6680 H   0  0  0  0  0  0  0  0  0  0  0  0
  146.6734  142.7031  153.0300 H   0  0  0  0  0  0  0  0  0  0  0  0
  148.3041  142.2965  153.5671 H   0  0  0  0  0  0  0  0  0  0  0  0
  146.1033  140.3946  152.7461 H   0  0  0  0  0  0  0  0  0  0  0  0
  147.8467  140.2866  152.4419 H   0  0  0  0  0  0  0  0  0  0  0  0
  147.9588  135.9709  156.4785 H   0  0  0  0  0  0  0  0  0  0  0  0
  145.1303  136.5880  150.7290 H   0  0  0  0  0  0  0  0  0  0  0  0
  146.0658  133.7121  153.0886 H   0  0  0  0  0  0  0  0  0  0  0  0
  146.3987  134.2752  150.1086 H   0  0  0  0  0  0  0  0  0  0  0  0
  147.1896  132.9946  151.0898 H   0  0  0  0  0  0  0  0  0  0  0  0
  144.2940  133.6721  148.9765 H   0  0  0  0  0  0  0  0  0  0  0  0
  144.9874  132.0874  148.7349 H   0  0  0  0  0  0  0  0  0  0  0  0
  142.4410  132.7774  149.5253 H   0  0  0  0  0  0  0  0  0  0  0  0
  145.0084  131.2586  152.4329 H   0  0  0  0  0  0  0  0  0  0  0  0
  144.1891  130.7004  150.9927 H   0  0  0  0  0  0  0  0  0  0  0  0
  146.9394  131.1833  150.9644 H   0  0  0  0  0  0  0  0  0  0  0  0
  143.7436  133.3554  152.5655 H   0  0  0  0  0  0  0  0  0  0  0  0
  143.7964  134.5454  151.2223 H   0  0  0  0  0  0  0  0  0  0  0  0
  1  2  2  0  0  0  0
  2  3  1  0  0  0  0
  2  7  1  0  0  0  0
  3  4  1  0  0  0  0
  3 29  1  0  0  0  0
  4  6  1  0  0  0  0
  4  5  1  0  0  0  0
  4 30  1  0  0  0  0
  5  6  1  0  0  0  0
  5 31  1  0  0  0  0
  5 32  1  0  0  0  0
  6 33  1  0  0  0  0
  6 34  1  0  0  0  0
  7 11  1  0  0  0  0
  7  8  1  0  0  0  0
  7 35  1  0  0  0  0
  8  9  1  0  0  0  0
  8 36  1  0  0  0  0
  8 37  1  0  0  0  0
  9 10  1  0  0  0  0
  9 38  1  0  0  0  0
  9 39  1  0  0  0  0
 10 11  1  0  0  0  0
 10 40  1  0  0  0  0
 10 41  1  0  0  0  0
 11 12  1  0  0  0  0
 12 17  1  0  0  0  0
 12 13  2  0  0  0  0
 13 14  1  0  0  0  0
 14 15  2  0  0  0  0
 14 42  1  0  0  0  0
 15 16  1  0  0  0  0
 16 20  1  0  0  0  0
 16 17  2  0  0  0  0
 17 18  1  0  0  0  0
 18 19  2  0  0  0  0
 19 20  1  0  0  0  0
 19 43  1  0  0  0  0
 20 21  1  0  0  0  0
 21 28  1  0  0  0  0
 21 22  1  0  0  0  0
 21 44  1  0  0  0  0
 22 23  1  0  0  0  0
 22 45  1  0  0  0  0
 22 46  1  0  0  0  0
 23 24  1  0  0  0  0
 23 26  1  0  0  0  0
 23 28  1  0  0  0  0
 24 25  1  0  0  0  0
 24 47  1  0  0  0  0
 24 48  1  0  0  0  0
 25 49  1  0  0  0  0
 26 27  1  0  0  0  0
 26 50  1  0  0  0  0
 26 51  1  0  0  0  0
 27 52  1  0  0  0  0
 28 53  1  0  0  0  0
 28 54  1  0  0  0  0
M  END
> <s_m_source_file>
AV-unprocessed.smi

> <i_m_source_file_index>
226

> <i_lp_mmshare_version>
43012

> <i_f3d_flags>
0

> <s_epik_input>
W0NIMl0xW0NIMl1bQ0hdMVtOSF1DKD1PKVtDQEBIXTJbQ0gyXVtDSDJdW0NIMl1OMmMobltjSF1uMyljKGMzNCluW2NIXW40W0NIXShbQ0gyXTUpW0NIMl1DNShbQ0gyXVtPSF0pW0NIMl1bT0hd

> <s_epik_cmdline>
J2VwaWtfcHl0aG9uJywgJy1waCcsICc3LjAnLCAnLXRuJywgJzgnLCAnLW1hJywgJzIwMCcsICctbWV0YWxfYmluZGluZycsICctaW1hZScsICc8aW5maWxlLm1hZT4nLCAnLW9tYWUnLCAnPG91dGZpbGUubWFlPic=

> <r_lp_tautomer_probability>
1

> <r_epik_Ionization_Penalty>
0.000818715

> <r_epik_Ionization_Penalty_Charging>
0

> <r_epik_Ionization_Penalty_Neutral>
0.000818715

> <r_epik_State_Penalty>
0.000426447

> <r_epik_Charging_Adjusted_Penalty>
0.000426447

> <i_epik_Tot_Q>
0

> <i_epik_Tot_abs_Q>
0

> <r_epik_Metal_State_Penalty>
-0

> <b_epik_Metal_Only>
0

> <s_lp_Force_Field>
OPLS_2005

> <r_lp_Energy>
62.928

> <b_lp_Chiralities_Consistent>
1

> <s_lp_Variant>
AV-unprocessed.smi:226-2

> <Gold.Version>
5.8.1

> <Gold.Id.Protein>
6NUR|6NUR_protein|mol2

> <Gold.PLP.Fitness>
47.5593

> <Gold.PLP.PLP>
-39.0019

> <Gold.PLP.part.hbond>
-4.6677

> <Gold.PLP.part.metal>
0.0000

> <Gold.PLP.part.buried>
-5.2452

> <Gold.PLP.part.nonpolar>
-29.0585

> <Gold.PLP.part.repulsive>
0.4629

> <Gold.PLP.ligand.clash>
0.0000

> <Gold.PLP.ligand.torsion>
1.1634

> <Gold.PLP.Chemscore.Hbond>
2.6572

> <Gold.PLP.Chemscore.CHOScore>
0.7810

> <Gold.PLP.Chemscore.Metal>
0.0000

> <Gold.Chemscore.Hbonds>
donor molecule, donor type, donor heavy atom, donor atom, acceptor molecule, acceptor atom, score
      L1  H     3    29       P1  8028  0.79
      L1  H    25    49       P1 10186  0.63
      L1  H    27    52       P1 10747  0.36
      P1  H 10785 10796       L1    25  0.89
      L1  C    19    43       P1 10171  0.77

> <Gold.PLP.Chemscore.Internal.Correction>
0.5695

> <Gold.Rescore>
     Score         DG    S(hbond)    S(metal)    S(lipo)     H(rot)  DE(clash)    DE(int)     intcor
      8.77     -14.69       2.43        0.00      86.52       3.52       0.56       5.36       ----

> <Gold.Chemscore.Fitness>
8.7698

> <Gold.Chemscore.DG>
-14.6894

> <Gold.Chemscore.ZeroCoef>
-5.4800

> <Gold.Chemscore.Hbond>
2.4280

> <Gold.Chemscore.Metal>
0.0000

> <Gold.Chemscore.Lipo>
86.5174

> <Gold.Chemscore.Internal_Hbond>
0.0000

> <Gold.Chemscore.DEClash>
0.5639

> <Gold.Chemscore.DEInternal>
5.3557

> <Gold.Chemscore.Rot>
3.5244

> <Gold.Chemscore.Internal.Correction>
   9.000000E+99

> <Gold.Chemscore.Hbonds>
donor molecule, donor type, donor heavy atom, donor atom, acceptor molecule, acceptor atom, score
      L1  H     3    29       P1  8028  0.75
      L1  H    25    49       P1 10186  0.65
      L1  H    27    52       P1 10747  0.36
      P1  H 10785 10796       L1    25  0.65

> <Gold.Chemscore.Hbond.Weighted>
-8.1095

> <Gold.Chemscore.Metal.Weighted>
-0.0000

> <Gold.Chemscore.Lipo.Weighted>
-10.1225

> <Gold.Chemscore.Internal_Hbond.Weighted>
0.0000

> <Gold.Chemscore.DEClash.Weighted>
0.5639

> <Gold.Chemscore.DEInternal.Weighted>
5.3557

> <Gold.Chemscore.Rot.Weighted>
9.0225

> <Gold.Chemscore.Internal.Correction.Weighted>
   9.000000E+99

> <Gold.Protein.RotatedTorsions>
[ 6907 6896 6895 6894 ] final   45.44 input  -60.11 | X-H torsion
[ 7974 7965 7964 7962 ] final  110.88 input  175.53 | X-H torsion
[ 8008 7997 7996 7995 ] final  163.44 input   59.86 | X-H torsion
[ 10167 10162 10161 10158 ] final   84.34 input  -65.29 | X-H torsion
[ 10718 10713 10712 10709 ] final  108.03 input   66.30 | X-H torsion
[ 10763 10752 10751 10750 ] final  113.32 input  -60.55 | X-H torsion
[ 11005 11000 10999 10996 ] final  -69.71 input  -57.11 | X-H torsion

> <Gold.Protein.ActiveResidues>
 VAL166  LYS551  ARG553  GLY616  TRP617  ASP618  TYR619  PRO620  LYS621  CYS622 
 ASP623  PHE694  ASN695  SER759  ASP760  ASP761  ALA762  ILE779  LEU786  VAL792 
 PHE793  MET794  SER795  GLU796  ALA797  LYS798  CYS799  TRP800  GLU811  SER814 

> <Gold.Protein.RotatedAtoms>
  152.2446  134.8194  160.0454 H   0  0  0  0  0  0  0  0  0  0  0  0  # atno 6907 bound_to 6896
  151.8896  133.3508  159.3802 H   0  0  0  0  0  0  0  0  0  0  0  0  # atno 6908 bound_to 6896
  150.7064  134.4863  159.5538 H   0  0  0  0  0  0  0  0  0  0  0  0  # atno 6909 bound_to 6896
  145.2494  139.2746  143.4075 H   0  0  0  0  0  0  0  0  0  0  0  0  # atno 7974 bound_to 7965
  156.1957  140.1723  156.8003 H   0  0  0  0  0  0  0  0  0  0  0  0  # atno 8008 bound_to 7997
  154.5527  140.0714  156.8724 H   0  0  0  0  0  0  0  0  0  0  0  0  # atno 8009 bound_to 7997
  155.2998  140.3361  155.4250 H   0  0  0  0  0  0  0  0  0  0  0  0  # atno 8010 bound_to 7997
  139.9090  144.6283  150.8557 H   0  0  0  0  0  0  0  0  0  0  0  0  # atno 10167 bound_to 10162
  157.6604  131.0885  150.6244 H   0  0  0  0  0  0  0  0  0  0  0  0  # atno 10718 bound_to 10713
  153.4908  135.3659  155.2490 H   0  0  0  0  0  0  0  0  0  0  0  0  # atno 10763 bound_to 10752
  154.8752  135.3976  154.3591 H   0  0  0  0  0  0  0  0  0  0  0  0  # atno 10764 bound_to 10752
  153.4210  135.7080  153.6359 H   0  0  0  0  0  0  0  0  0  0  0  0  # atno 10765 bound_to 10752
  141.1560  133.6771  156.6642 H   0  0  0  0  0  0  0  0  0  0  0  0  # atno 11005 bound_to 11000
  146.3307  140.2880  142.8614 LP  0  0  0  0  0  0  0  0  0  0  0  0  # atno 17320 bound_to 7965
  144.9517  140.8185  143.5568 LP  0  0  0  0  0  0  0  0  0  0  0  0  # atno 17321 bound_to 7965
  140.7689  143.3379  151.2269 LP  0  0  0  0  0  0  0  0  0  0  0  0  # atno 17342 bound_to 10162
  139.6959  143.9614  152.2882 LP  0  0  0  0  0  0  0  0  0  0  0  0  # atno 17343 bound_to 10162
  156.6547  130.4495  149.5707 LP  0  0  0  0  0  0  0  0  0  0  0  0  # atno 17370 bound_to 10713
  156.2111  130.6679  151.1270 LP  0  0  0  0  0  0  0  0  0  0  0  0  # atno 17371 bound_to 10713
  140.3224  134.7996  157.4263 LP  0  0  0  0  0  0  0  0  0  0  0  0  # atno 17394 bound_to 11000
  140.1085  134.5377  155.8287 LP  0  0  0  0  0  0  0  0  0  0  0  0  # atno 17395 bound_to 11000

$$$$
