AV-unprocessed.smi:757|AV-procd|sdf|3616|dock2
  -GOLD-   22720 1 13D 1   1.00000     0.00000
 Structure written by MMmdl.
 44 45  0  0  0  0  0  0  0  0  1 V2000
  153.1058  142.4788  161.5840 C   0  0  0  0  0  0  0  0  0  0  0  0
  152.5978  142.3218  160.4847 C   0  0  0  0  0  0  0  0  0  0  0  0
  152.0018  142.1366  159.1497 C   0  0  0  0  0  0  0  0  0  0  0  0
  152.3767  140.8044  158.4656 C   0  0  0  0  0  0  0  0  0  0  0  0
  151.4557  140.4169  157.3941 N   0  0  0  0  0  0  0  0  0  0  0  0
  152.1351  139.4708  156.5058 C   0  0  0  0  0  0  0  0  0  0  0  0
  151.1702  138.9581  155.4226 C   0  0  0  0  0  0  0  0  0  0  0  0
  150.6050  140.1227  154.5931 C   0  0  0  0  0  0  0  0  0  0  0  0
  149.5815  139.6546  153.6633 N   0  0  0  0  0  0  0  0  0  0  0  0
  148.4597  139.0079  154.0098 C   0  0  0  0  0  0  0  0  0  0  0  0
  148.1560  138.7523  155.1747 O   0  0  0  0  0  0  0  0  0  0  0  0
  147.7232  138.7034  152.9277 N   0  0  0  0  0  0  0  0  0  0  0  0
  146.4978  137.9864  152.8591 C   0  0  0  0  0  0  0  0  0  0  0  0
  146.1404  137.1121  151.8048 C   0  0  0  0  0  0  0  0  0  0  0  0
  144.8848  136.4762  151.8440 C   0  0  0  0  0  0  0  0  0  0  0  0
  144.0219  136.7364  152.9271 C   0  0  0  0  0  0  0  0  0  0  0  0
  142.7930  136.1097  152.9571 O   0  0  0  0  0  0  0  0  0  0  0  0
  141.8929  136.4371  154.0099 C   0  0  0  0  0  0  0  0  0  0  0  0
  144.3526  137.5815  153.9345 N   0  0  0  0  0  0  0  0  0  0  0  0
  145.5575  138.1878  153.8906 C   0  0  0  0  0  0  0  0  0  0  0  0
  150.0063  141.1692  155.5436 C   0  0  0  0  0  0  0  0  0  0  0  0
  151.0218  141.5859  156.6216 C   0  0  0  0  0  0  0  0  0  0  0  0
  153.5525  142.6176  162.5429 H   0  0  0  0  0  0  0  0  0  0  0  0
  150.9235  142.2626  159.2370 H   0  0  0  0  0  0  0  0  0  0  0  0
  152.3528  142.9645  158.5335 H   0  0  0  0  0  0  0  0  0  0  0  0
  153.3940  140.8562  158.0745 H   0  0  0  0  0  0  0  0  0  0  0  0
  152.3841  140.0256  159.2301 H   0  0  0  0  0  0  0  0  0  0  0  0
  153.0053  139.9428  156.0466 H   0  0  0  0  0  0  0  0  0  0  0  0
  152.5004  138.6214  157.0845 H   0  0  0  0  0  0  0  0  0  0  0  0
  151.6896  138.2513  154.7745 H   0  0  0  0  0  0  0  0  0  0  0  0
  150.3569  138.4047  155.8949 H   0  0  0  0  0  0  0  0  0  0  0  0
  151.4177  140.5912  154.0343 H   0  0  0  0  0  0  0  0  0  0  0  0
  149.7460  139.8306  152.6830 H   0  0  0  0  0  0  0  0  0  0  0  0
  148.0647  139.0578  152.0462 H   0  0  0  0  0  0  0  0  0  0  0  0
  146.7903  136.9272  150.9640 H   0  0  0  0  0  0  0  0  0  0  0  0
  144.5869  135.8041  151.0529 H   0  0  0  0  0  0  0  0  0  0  0  0
  140.9762  135.8595  153.8929 H   0  0  0  0  0  0  0  0  0  0  0  0
  141.6226  137.4937  153.9903 H   0  0  0  0  0  0  0  0  0  0  0  0
  142.3149  136.1931  154.9860 H   0  0  0  0  0  0  0  0  0  0  0  0
  145.7780  138.8559  154.7105 H   0  0  0  0  0  0  0  0  0  0  0  0
  149.6883  142.0467  154.9795 H   0  0  0  0  0  0  0  0  0  0  0  0
  149.1122  140.7704  156.0258 H   0  0  0  0  0  0  0  0  0  0  0  0
  150.5492  142.3190  157.2735 H   0  0  0  0  0  0  0  0  0  0  0  0
  151.8826  142.0749  156.1627 H   0  0  0  0  0  0  0  0  0  0  0  0
  1  2  3  0  0  0  0
  1 23  1  0  0  0  0
  2  3  1  0  0  0  0
  3  4  1  0  0  0  0
  3 24  1  0  0  0  0
  3 25  1  0  0  0  0
  4  5  1  0  0  0  0
  4 26  1  0  0  0  0
  4 27  1  0  0  0  0
  5 22  1  0  0  0  0
  5  6  1  0  0  0  0
  6  7  1  0  0  0  0
  6 28  1  0  0  0  0
  6 29  1  0  0  0  0
  7  8  1  0  0  0  0
  7 30  1  0  0  0  0
  7 31  1  0  0  0  0
  8  9  1  0  0  0  0
  8 21  1  0  0  0  0
  8 32  1  0  0  0  0
  9 10  1  0  0  0  0
  9 33  1  0  0  0  0
 10 11  2  0  0  0  0
 10 12  1  0  0  0  0
 12 13  1  0  0  0  0
 12 34  1  0  0  0  0
 13 20  1  0  0  0  0
 13 14  2  0  0  0  0
 14 15  1  0  0  0  0
 14 35  1  0  0  0  0
 15 16  2  0  0  0  0
 15 36  1  0  0  0  0
 16 17  1  0  0  0  0
 16 19  1  0  0  0  0
 17 18  1  0  0  0  0
 18 37  1  0  0  0  0
 18 38  1  0  0  0  0
 18 39  1  0  0  0  0
 19 20  2  0  0  0  0
 20 40  1  0  0  0  0
 21 22  1  0  0  0  0
 21 41  1  0  0  0  0
 21 42  1  0  0  0  0
 22 43  1  0  0  0  0
 22 44  1  0  0  0  0
M  END
> <s_m_source_file>
AV-unprocessed.smi

> <i_m_source_file_index>
757

> <i_lp_mmshare_version>
43012

> <i_f3d_flags>
0

> <s_epik_input>
W0NIXSNDW0NIMl1bQ0gyXU4xW0NIMl1bQ0gyXVtDSF0oW0NIMl1bQ0gyXTEpW05IXUMoPU8pW05IXWMyW2NIXVtjSF1jKE9bQ0gzXSluW2NIXTI=

> <s_epik_cmdline>
J2VwaWtfcHl0aG9uJywgJy1waCcsICc3LjAnLCAnLXRuJywgJzgnLCAnLW1hJywgJzIwMCcsICctbWV0YWxfYmluZGluZycsICctaW1hZScsICc8aW5maWxlLm1hZT4nLCAnLW9tYWUnLCAnPG91dGZpbGUubWFlPic=

> <r_lp_tautomer_probability>
1

> <r_epik_Ionization_Penalty>
1.61445

> <r_epik_Ionization_Penalty_Charging>
0

> <r_epik_Ionization_Penalty_Neutral>
1.61445

> <r_epik_State_Penalty>
1.71357

> <r_epik_Charging_Adjusted_Penalty>
1.71357

> <i_epik_Tot_Q>
0

> <i_epik_Tot_abs_Q>
0

> <r_epik_Metal_State_Penalty>
1.71356

> <b_epik_Metal_Only>
0

> <s_lp_Force_Field>
OPLS_2005

> <r_lp_Energy>
17.5598

> <b_lp_Chiralities_Consistent>
1

> <s_lp_Variant>
AV-unprocessed.smi:757-3

> <Gold.Version>
5.8.1

> <Gold.Id.Protein>
6NUR|6NUR_protein|mol2

> <Gold.PLP.Fitness>
39.6794

> <Gold.PLP.PLP>
-35.1281

> <Gold.PLP.part.hbond>
-2.9877

> <Gold.PLP.part.metal>
0.0000

> <Gold.PLP.part.buried>
1.3802

> <Gold.PLP.part.nonpolar>
-34.4527

> <Gold.PLP.part.repulsive>
0.5500

> <Gold.PLP.ligand.clash>
0.0000

> <Gold.PLP.ligand.torsion>
0.5833

> <Gold.PLP.Chemscore.Hbond>
1.8960

> <Gold.PLP.Chemscore.CHOScore>
0.0000

> <Gold.PLP.Chemscore.Metal>
0.0000

> <Gold.Chemscore.Hbonds>
donor molecule, donor type, donor heavy atom, donor atom, acceptor molecule, acceptor atom, score
      L1  H     9    33       P1  7957  1.00
      L1  H    12    34       P1  7957  0.91

> <Gold.PLP.Chemscore.Internal.Correction>
0.0299

> <Gold.Rescore>
     Score         DG    S(hbond)    S(metal)    S(lipo)     H(rot)  DE(clash)    DE(int)     intcor
     14.42     -18.93       1.86        0.00      95.82       1.55       1.59       2.92       ----

> <Gold.Chemscore.Fitness>
14.4235

> <Gold.Chemscore.DG>
-18.9282

> <Gold.Chemscore.ZeroCoef>
-5.4800

> <Gold.Chemscore.Hbond>
1.8593

> <Gold.Chemscore.Metal>
0.0000

> <Gold.Chemscore.Lipo>
95.8178

> <Gold.Chemscore.Internal_Hbond>
0.0000

> <Gold.Chemscore.DEClash>
1.5866

> <Gold.Chemscore.DEInternal>
2.9181

> <Gold.Chemscore.Rot>
1.5517

> <Gold.Chemscore.Internal.Correction>
   9.000000E+99

> <Gold.Chemscore.Hbonds>
donor molecule, donor type, donor heavy atom, donor atom, acceptor molecule, acceptor atom, score
      L1  H     9    33       P1  7957  0.94
      L1  H    12    34       P1  7957  0.84

> <Gold.Chemscore.Hbond.Weighted>
-6.2100

> <Gold.Chemscore.Metal.Weighted>
-0.0000

> <Gold.Chemscore.Lipo.Weighted>
-11.2107

> <Gold.Chemscore.Internal_Hbond.Weighted>
0.0000

> <Gold.Chemscore.DEClash.Weighted>
1.5866

> <Gold.Chemscore.DEInternal.Weighted>
2.9181

> <Gold.Chemscore.Rot.Weighted>
3.9725

> <Gold.Chemscore.Internal.Correction.Weighted>
   9.000000E+99

> <Gold.Protein.RotatedTorsions>
[ 6907 6896 6895 6894 ] final  -81.58 input  -60.11 | X-H torsion
[ 7974 7965 7964 7962 ] final -118.01 input  175.53 | X-H torsion
[ 8008 7997 7996 7995 ] final -174.69 input   59.86 | X-H torsion
[ 10167 10162 10161 10158 ] final -122.55 input  -65.29 | X-H torsion
[ 10718 10713 10712 10709 ] final  -85.29 input   66.30 | X-H torsion
[ 10763 10752 10751 10750 ] final    3.99 input  -60.55 | X-H torsion
[ 11005 11000 10999 10996 ] final   24.56 input  -57.11 | X-H torsion

> <Gold.Protein.ActiveResidues>
 VAL166  LYS551  ARG553  GLY616  TRP617  ASP618  TYR619  PRO620  LYS621  CYS622 
 ASP623  PHE694  ASN695  SER759  ASP760  ASP761  ALA762  ILE779  LEU786  VAL792 
 PHE793  MET794  SER795  GLU796  ALA797  LYS798  CYS799  TRP800  GLU811  SER814 

> <Gold.Protein.RotatedAtoms>
  150.6910  134.3796  159.5027 H   0  0  0  0  0  0  0  0  0  0  0  0  # atno 6907 bound_to 6896
  152.1600  134.8917  160.0551 H   0  0  0  0  0  0  0  0  0  0  0  0  # atno 6908 bound_to 6896
  151.9982  133.3781  159.4208 H   0  0  0  0  0  0  0  0  0  0  0  0  # atno 6909 bound_to 6896
  145.0787  140.8410  143.4052 H   0  0  0  0  0  0  0  0  0  0  0  0  # atno 7974 bound_to 7965
  155.9733  140.1167  157.0793 H   0  0  0  0  0  0  0  0  0  0  0  0  # atno 8008 bound_to 7997
  154.4162  140.1159  156.5403 H   0  0  0  0  0  0  0  0  0  0  0  0  # atno 8009 bound_to 7997
  155.6568  140.3473  155.4770 H   0  0  0  0  0  0  0  0  0  0  0  0  # atno 8010 bound_to 7997
  140.0131  143.5421  152.2254 H   0  0  0  0  0  0  0  0  0  0  0  0  # atno 10167 bound_to 10162
  155.9998  130.4726  150.4540 H   0  0  0  0  0  0  0  0  0  0  0  0  # atno 10718 bound_to 10713
  153.2767  135.6937  153.7426 H   0  0  0  0  0  0  0  0  0  0  0  0  # atno 10763 bound_to 10752
  153.6429  135.3390  155.3078 H   0  0  0  0  0  0  0  0  0  0  0  0  # atno 10764 bound_to 10752
  154.8482  135.4436  154.1807 H   0  0  0  0  0  0  0  0  0  0  0  0  # atno 10765 bound_to 10752
  140.3573  134.2163  155.7675 H   0  0  0  0  0  0  0  0  0  0  0  0  # atno 11005 bound_to 11000
  145.1204  139.2697  143.5591 LP  0  0  0  0  0  0  0  0  0  0  0  0  # atno 17320 bound_to 7965
  146.3530  140.0826  142.8617 LP  0  0  0  0  0  0  0  0  0  0  0  0  # atno 17321 bound_to 7965
  139.6191  144.7625  151.2779 LP  0  0  0  0  0  0  0  0  0  0  0  0  # atno 17342 bound_to 10162
  140.7373  143.6681  150.8105 LP  0  0  0  0  0  0  0  0  0  0  0  0  # atno 17343 bound_to 10162
  157.2570  131.0559  151.2344 LP  0  0  0  0  0  0  0  0  0  0  0  0  # atno 17370 bound_to 10713
  157.3472  130.7063  149.6418 LP  0  0  0  0  0  0  0  0  0  0  0  0  # atno 17371 bound_to 10713
  141.1994  133.8011  157.0536 LP  0  0  0  0  0  0  0  0  0  0  0  0  # atno 17394 bound_to 11000
  140.0654  134.9731  157.1377 LP  0  0  0  0  0  0  0  0  0  0  0  0  # atno 17395 bound_to 11000

$$$$
