AV-unprocessed.smi:1593|AV-procd|sdf|6409|dock1
  -GOLD-   22720 7 43D 1   1.00000     0.00000
 Structure written by MMmdl.
 36 37  0  0  0  0  0  0  0  0  1 V2000
  148.5391  129.2010  153.2880 C   0  0  0  0  0  0  0  0  0  0  0  0
  148.9517  130.5737  153.6962 C   0  0  0  0  0  0  0  0  0  0  0  0
  148.6805  131.8139  153.1913 C   0  0  0  0  0  0  0  0  0  0  0  0
  149.3997  132.6793  154.0664 C   0  0  0  0  0  0  0  0  0  0  0  0
  149.4619  134.0945  153.9858 N   0  0  0  0  0  0  0  0  0  0  0  0
  149.9143  134.9642  154.9046 C   0  0  0  0  0  0  0  0  0  0  0  0
  150.3867  134.6610  156.0000 O   0  0  0  0  0  0  0  0  0  0  0  0
  149.7863  136.2289  154.4774 N   0  0  0  0  0  0  0  0  0  0  0  0
  150.1442  137.4195  155.2421 C   0  0  0  0  0  0  0  0  0  0  0  0
  151.0249  138.3780  154.4171 C   0  0  0  0  0  0  0  0  0  0  0  0
  150.7951  139.8044  154.6477 N   0  0  0  0  0  0  0  0  0  0  0  0
  151.1824  140.1900  155.9998 C   0  0  0  0  0  0  0  0  0  0  0  0
  150.9598  141.6911  156.2534 C   0  0  0  0  0  0  0  0  0  0  0  0
  149.5968  142.0206  156.0046 O   0  0  0  0  0  0  0  0  0  0  0  0
  149.1868  141.6967  154.6798 C   0  0  0  0  0  0  0  0  0  0  0  0
  149.4049  140.1955  154.4242 C   0  0  0  0  0  0  0  0  0  0  0  0
  150.0461  132.0229  155.0124 N   0  0  0  0  0  0  0  0  0  0  0  0
  149.7644  130.6711  154.7824 O   0  0  0  0  0  0  0  0  0  0  0  0
  147.6574  129.2343  152.6477 H   0  0  0  0  0  0  0  0  0  0  0  0
  148.2998  128.5917  154.1598 H   0  0  0  0  0  0  0  0  0  0  0  0
  149.3390  128.7065  152.7369 H   0  0  0  0  0  0  0  0  0  0  0  0
  148.0668  132.0446  152.3339 H   0  0  0  0  0  0  0  0  0  0  0  0
  149.1107  134.4919  153.1270 H   0  0  0  0  0  0  0  0  0  0  0  0
  149.3896  136.3822  153.5619 H   0  0  0  0  0  0  0  0  0  0  0  0
  149.2615  137.9196  155.6422 H   0  0  0  0  0  0  0  0  0  0  0  0
  150.7093  137.0848  156.1120 H   0  0  0  0  0  0  0  0  0  0  0  0
  152.0748  138.1463  154.6030 H   0  0  0  0  0  0  0  0  0  0  0  0
  150.8567  138.1562  153.3621 H   0  0  0  0  0  0  0  0  0  0  0  0
  150.6107  139.6124  156.7280 H   0  0  0  0  0  0  0  0  0  0  0  0
  152.2332  139.9502  156.1664 H   0  0  0  0  0  0  0  0  0  0  0  0
  151.2048  141.9420  157.2854 H   0  0  0  0  0  0  0  0  0  0  0  0
  151.6087  142.2912  155.6137 H   0  0  0  0  0  0  0  0  0  0  0  0
  148.1343  141.9536  154.5586 H   0  0  0  0  0  0  0  0  0  0  0  0
  149.7481  142.2952  153.9605 H   0  0  0  0  0  0  0  0  0  0  0  0
  149.1043  139.9706  153.4022 H   0  0  0  0  0  0  0  0  0  0  0  0
  148.7481  139.6187  155.0771 H   0  0  0  0  0  0  0  0  0  0  0  0
  1  2  1  0  0  0  0
  1 19  1  0  0  0  0
  1 20  1  0  0  0  0
  1 21  1  0  0  0  0
  2 18  1  0  0  0  0
  2  3  2  0  0  0  0
  3  4  1  0  0  0  0
  3 22  1  0  0  0  0
  4  5  1  0  0  0  0
  4 17  2  0  0  0  0
  5  6  1  0  0  0  0
  5 23  1  0  0  0  0
  6  7  2  0  0  0  0
  6  8  1  0  0  0  0
  8  9  1  0  0  0  0
  8 24  1  0  0  0  0
  9 10  1  0  0  0  0
  9 25  1  0  0  0  0
  9 26  1  0  0  0  0
 10 11  1  0  0  0  0
 10 27  1  0  0  0  0
 10 28  1  0  0  0  0
 11 16  1  0  0  0  0
 11 12  1  0  0  0  0
 12 13  1  0  0  0  0
 12 29  1  0  0  0  0
 12 30  1  0  0  0  0
 13 14  1  0  0  0  0
 13 31  1  0  0  0  0
 13 32  1  0  0  0  0
 14 15  1  0  0  0  0
 15 16  1  0  0  0  0
 15 33  1  0  0  0  0
 15 34  1  0  0  0  0
 16 35  1  0  0  0  0
 16 36  1  0  0  0  0
 17 18  1  0  0  0  0
M  END
> <s_m_source_file>
AV-unprocessed.smi

> <i_m_source_file_index>
1593

> <i_lp_mmshare_version>
43012

> <i_f3d_flags>
0

> <s_epik_input>
W0NIM11jMVtjSF1jKG5vMSlbTkhdQyg9TylbTkhdW0NIMl1bQ0gyXU4yW0NIMl1bQ0gyXU9bQ0gyXVtDSDJdMg==

> <s_epik_cmdline>
J2VwaWtfcHl0aG9uJywgJy1waCcsICc3LjAnLCAnLXRuJywgJzgnLCAnLW1hJywgJzIwMCcsICctbWV0YWxfYmluZGluZycsICctaW1hZScsICc8aW5maWxlLm1hZT4nLCAnLW9tYWUnLCAnPG91dGZpbGUubWFlPic=

> <r_epik_Ionization_Penalty>
0.214073

> <r_epik_Ionization_Penalty_Charging>
0

> <r_epik_Ionization_Penalty_Neutral>
0.214073

> <r_epik_State_Penalty>
0.204211

> <r_epik_Charging_Adjusted_Penalty>
0.204211

> <i_epik_Tot_Q>
0

> <i_epik_Tot_abs_Q>
0

> <r_epik_Metal_State_Penalty>
0.217151

> <b_epik_Metal_Only>
0

> <s_lp_Force_Field>
OPLS_2005

> <r_lp_Energy>
24.5673

> <b_lp_Chiralities_Consistent>
1

> <s_lp_Variant>
AV-unprocessed.smi:1593-1

> <Gold.Version>
5.8.1

> <Gold.Id.Protein>
6NUR|6NUR_protein|mol2

> <Gold.PLP.Fitness>
36.7887

> <Gold.PLP.PLP>
-30.2038

> <Gold.PLP.part.hbond>
-3.0634

> <Gold.PLP.part.metal>
0.0000

> <Gold.PLP.part.buried>
-3.7811

> <Gold.PLP.part.nonpolar>
-24.7044

> <Gold.PLP.part.repulsive>
2.2691

> <Gold.PLP.ligand.clash>
0.0000

> <Gold.PLP.ligand.torsion>
0.3459

> <Gold.PLP.Chemscore.Hbond>
2.4162

> <Gold.PLP.Chemscore.CHOScore>
0.0000

> <Gold.PLP.Chemscore.Metal>
0.0000

> <Gold.Chemscore.Hbonds>
donor molecule, donor type, donor heavy atom, donor atom, acceptor molecule, acceptor atom, score
      L1  H     5    23       P1  7948  0.35
      L1  H     8    24       P1  7948  1.00
      P1  H  7989  7998       L1    11  1.00

> <Gold.PLP.Chemscore.Internal.Correction>
0.0281

> <Gold.Rescore>
     Score         DG    S(hbond)    S(metal)    S(lipo)     H(rot)  DE(clash)    DE(int)     intcor
     10.37     -12.23       1.26        0.00      56.75       1.60       0.17       1.69       ----

> <Gold.Chemscore.Fitness>
10.3662

> <Gold.Chemscore.DG>
-12.2308

> <Gold.Chemscore.ZeroCoef>
-5.4800

> <Gold.Chemscore.Hbond>
1.2611

> <Gold.Chemscore.Metal>
0.0000

> <Gold.Chemscore.Lipo>
56.7494

> <Gold.Chemscore.Internal_Hbond>
0.0000

> <Gold.Chemscore.DEClash>
0.1719

> <Gold.Chemscore.DEInternal>
1.6927

> <Gold.Chemscore.Rot>
1.6019

> <Gold.Chemscore.Internal.Correction>
   9.000000E+99

> <Gold.Chemscore.Hbonds>
donor molecule, donor type, donor heavy atom, donor atom, acceptor molecule, acceptor atom, score
      L1  H     5    23       P1  7948  0.01
      L1  H     8    24       P1  7948  0.82
      P1  H  7989  7998       L1    11  0.19

> <Gold.Chemscore.Hbond.Weighted>
-4.2120

> <Gold.Chemscore.Metal.Weighted>
-0.0000

> <Gold.Chemscore.Lipo.Weighted>
-6.6397

> <Gold.Chemscore.Internal_Hbond.Weighted>
0.0000

> <Gold.Chemscore.DEClash.Weighted>
0.1719

> <Gold.Chemscore.DEInternal.Weighted>
1.6927

> <Gold.Chemscore.Rot.Weighted>
4.1009

> <Gold.Chemscore.Internal.Correction.Weighted>
   9.000000E+99

> <Gold.Protein.RotatedTorsions>
[ 6907 6896 6895 6894 ] final  -59.57 input  -60.11 | X-H torsion
[ 7974 7965 7964 7962 ] final -102.89 input  175.53 | X-H torsion
[ 8008 7997 7996 7995 ] final -147.63 input   59.86 | X-H torsion
[ 10167 10162 10161 10158 ] final   81.10 input  -65.29 | X-H torsion
[ 10718 10713 10712 10709 ] final  151.98 input   66.30 | X-H torsion
[ 10763 10752 10751 10750 ] final -178.16 input  -60.55 | X-H torsion
[ 11005 11000 10999 10996 ] final   77.43 input  -57.11 | X-H torsion

> <Gold.Protein.ActiveResidues>
 VAL166  LYS551  ARG553  GLY616  TRP617  ASP618  TYR619  PRO620  LYS621  CYS622 
 ASP623  PHE694  ASN695  SER759  ASP760  ASP761  ALA762  ILE779  LEU786  VAL792 
 PHE793  MET794  SER795  GLU796  ALA797  LYS798  CYS799  TRP800  GLU811  SER814 

> <Gold.Protein.RotatedAtoms>
  150.7920  134.6951  159.6518 H   0  0  0  0  0  0  0  0  0  0  0  0  # atno 6907 bound_to 6896
  152.4027  134.6256  160.0072 H   0  0  0  0  0  0  0  0  0  0  0  0  # atno 6908 bound_to 6896
  151.6523  133.3283  159.3191 H   0  0  0  0  0  0  0  0  0  0  0  0  # atno 6909 bound_to 6896
  145.2629  140.9275  143.3030 H   0  0  0  0  0  0  0  0  0  0  0  0  # atno 7974 bound_to 7965
  155.5786  140.0641  157.2789 H   0  0  0  0  0  0  0  0  0  0  0  0  # atno 8008 bound_to 7997
  154.4339  140.1856  156.1000 H   0  0  0  0  0  0  0  0  0  0  0  0  # atno 8009 bound_to 7997
  156.0322  140.3305  155.7155 H   0  0  0  0  0  0  0  0  0  0  0  0  # atno 8010 bound_to 7997
  139.9428  144.6078  150.8235 H   0  0  0  0  0  0  0  0  0  0  0  0  # atno 10167 bound_to 10162
  157.2638  131.0803  151.1647 H   0  0  0  0  0  0  0  0  0  0  0  0  # atno 10718 bound_to 10713
  154.5511  135.2813  155.1007 H   0  0  0  0  0  0  0  0  0  0  0  0  # atno 10763 bound_to 10752
  154.2452  135.6349  153.5225 H   0  0  0  0  0  0  0  0  0  0  0  0  # atno 10764 bound_to 10752
  153.0003  135.5569  154.6078 H   0  0  0  0  0  0  0  0  0  0  0  0  # atno 10765 bound_to 10752
  139.9255  134.7682  156.1521 H   0  0  0  0  0  0  0  0  0  0  0  0  # atno 11005 bound_to 11000
  144.9402  139.4197  143.6452 LP  0  0  0  0  0  0  0  0  0  0  0  0  # atno 17320 bound_to 7965
  146.3270  139.8359  142.8899 LP  0  0  0  0  0  0  0  0  0  0  0  0  # atno 17321 bound_to 7965
  140.7606  143.3155  151.2744 LP  0  0  0  0  0  0  0  0  0  0  0  0  # atno 17342 bound_to 10162
  139.6691  144.0053  152.2741 LP  0  0  0  0  0  0  0  0  0  0  0  0  # atno 17343 bound_to 10162
  157.3147  130.6907  149.6235 LP  0  0  0  0  0  0  0  0  0  0  0  0  # atno 17370 bound_to 10713
  155.9663  130.4353  150.5086 LP  0  0  0  0  0  0  0  0  0  0  0  0  # atno 17371 bound_to 10713
  141.0809  133.6755  156.2334 LP  0  0  0  0  0  0  0  0  0  0  0  0  # atno 17394 bound_to 11000
  140.6349  134.5225  157.5563 LP  0  0  0  0  0  0  0  0  0  0  0  0  # atno 17395 bound_to 11000

$$$$
