AV-unprocessed.smi:972|AV-procd|sdf|4296|dock2
  -GOLD-   22720 2203D 1   1.00000     0.00000
 Structure written by MMmdl.
 51 53  0  0  0  0  0  0  0  0  2 V2000
  145.4044  132.6847  149.7811 C   0  0  0  0  0  0  0  0  0  0  0  0
  145.3484  132.7049  151.3272 C   0  0  0  0  0  0  0  0  0  0  0  0
  144.5082  131.4734  151.7402 C   0  0  0  0  0  0  0  0  0  0  0  0
  146.7728  132.5716  151.8960 C   0  0  0  0  0  0  0  0  0  0  0  0
  144.7110  134.0074  151.8419 C   0  0  0  0  0  0  0  0  0  0  0  0
  143.5456  133.9007  152.4933 N   0  0  0  0  0  0  0  0  0  0  0  0
  142.9082  135.0398  152.8382 C   0  0  0  0  0  0  0  0  0  0  0  0
  143.4237  136.3128  152.4943 C   0  0  0  0  0  0  0  0  0  0  0  0
  142.8317  137.5628  152.8243 N   0  0  0  0  0  0  0  0  0  0  0  0
  141.6388  137.8074  153.3931 C   0  0  0  0  0  0  0  0  0  0  0  0
  140.8095  136.9559  153.7107 O   0  0  0  0  0  0  0  0  0  0  0  0
  141.4458  139.1230  153.5669 N   0  0  0  0  0  0  0  0  0  0  0  0
  140.2582  139.7253  154.1673 C   0  0  2  0  0  0  0  0  0  0  0  0
  138.9857  139.3297  153.3943 C   0  0  0  0  0  0  0  0  0  0  0  0
  137.7471  140.0415  153.9641 C   0  0  0  0  0  0  0  0  0  0  0  0
  137.9280  141.5144  153.9598 N   0  3  1  0  0  0  0  0  0  0  0  0
  136.7091  142.2271  154.4004 C   0  0  0  0  0  0  0  0  0  0  0  0
  135.6978  142.4427  153.2985 C   0  0  0  0  0  0  0  0  0  0  0  0
  136.5490  143.5962  153.7813 C   0  0  0  0  0  0  0  0  0  0  0  0
  139.1259  141.9234  154.7348 C   0  0  0  0  0  0  0  0  0  0  0  0
  140.3967  141.2568  154.1811 C   0  0  0  0  0  0  0  0  0  0  0  0
  144.6384  136.3059  151.7797 C   0  0  0  0  0  0  0  0  0  0  0  0
  145.2645  135.1595  151.4414 N   0  0  0  0  0  0  0  0  0  0  0  0
  145.8126  131.7437  149.4110 H   0  0  0  0  0  0  0  0  0  0  0  0
  146.0377  133.4788  149.3842 H   0  0  0  0  0  0  0  0  0  0  0  0
  144.4117  132.8044  149.3456 H   0  0  0  0  0  0  0  0  0  0  0  0
  143.4833  131.5511  151.3753 H   0  0  0  0  0  0  0  0  0  0  0  0
  144.4657  131.3519  152.8232 H   0  0  0  0  0  0  0  0  0  0  0  0
  144.9299  130.5516  151.3378 H   0  0  0  0  0  0  0  0  0  0  0  0
  147.2554  131.6564  151.5513 H   0  0  0  0  0  0  0  0  0  0  0  0
  146.7631  132.5478  152.9863 H   0  0  0  0  0  0  0  0  0  0  0  0
  147.4006  133.4096  151.5914 H   0  0  0  0  0  0  0  0  0  0  0  0
  141.9944  134.9038  153.3940 H   0  0  0  0  0  0  0  0  0  0  0  0
  143.3784  138.3747  152.5766 H   0  0  0  0  0  0  0  0  0  0  0  0
  142.1788  139.7521  153.2734 H   0  0  0  0  0  0  0  0  0  0  0  0
  140.1695  139.3809  155.1997 H   0  0  0  0  0  0  0  0  0  0  0  0
  139.0973  139.5844  152.3392 H   0  0  0  0  0  0  0  0  0  0  0  0
  138.8366  138.2502  153.4369 H   0  0  0  0  0  0  0  0  0  0  0  0
  136.8715  139.7780  153.3694 H   0  0  0  0  0  0  0  0  0  0  0  0
  137.5522  139.7005  154.9822 H   0  0  0  0  0  0  0  0  0  0  0  0
  136.3803  142.0392  155.4211 H   0  0  0  0  0  0  0  0  0  0  0  0
  135.9145  142.0370  152.3118 H   0  0  0  0  0  0  0  0  0  0  0  0
  134.6459  142.4495  153.5769 H   0  0  0  0  0  0  0  0  0  0  0  0
  136.0574  144.3626  154.3770 H   0  0  0  0  0  0  0  0  0  0  0  0
  137.3301  143.9564  153.1138 H   0  0  0  0  0  0  0  0  0  0  0  0
  139.2360  143.0077  154.6934 H   0  0  0  0  0  0  0  0  0  0  0  0
  138.9896  141.6591  155.7848 H   0  0  0  0  0  0  0  0  0  0  0  0
  141.2582  141.5496  154.7830 H   0  0  0  0  0  0  0  0  0  0  0  0
  140.5860  141.6228  153.1706 H   0  0  0  0  0  0  0  0  0  0  0  0
  145.1106  137.2263  151.4685 H   0  0  0  0  0  0  0  0  0  0  0  0
  138.0920  141.7867  153.0010 H   0  0  0  0  0  0  0  0  0  0  0  0
  1  2  1  0  0  0  0
  1 24  1  0  0  0  0
  1 25  1  0  0  0  0
  1 26  1  0  0  0  0
  2  3  1  0  0  0  0
  2  4  1  0  0  0  0
  2  5  1  0  0  0  0
  3 27  1  0  0  0  0
  3 28  1  0  0  0  0
  3 29  1  0  0  0  0
  4 30  1  0  0  0  0
  4 31  1  0  0  0  0
  4 32  1  0  0  0  0
  5 23  1  0  0  0  0
  5  6  2  0  0  0  0
  6  7  1  0  0  0  0
  7  8  2  0  0  0  0
  7 33  1  0  0  0  0
  8  9  1  0  0  0  0
  8 22  1  0  0  0  0
  9 10  1  0  0  0  0
  9 34  1  0  0  0  0
 10 11  2  0  0  0  0
 10 12  1  0  0  0  0
 12 13  1  0  0  0  0
 12 35  1  0  0  0  0
 13 21  1  0  0  0  0
 13 14  1  0  0  0  0
 13 36  1  0  0  0  0
 14 15  1  0  0  0  0
 14 37  1  0  0  0  0
 14 38  1  0  0  0  0
 15 16  1  0  0  0  0
 15 39  1  0  0  0  0
 15 40  1  0  0  0  0
 16 17  1  0  0  0  0
 16 20  1  0  0  0  0
 16 51  1  0  0  0  0
 17 19  1  0  0  0  0
 17 18  1  0  0  0  0
 17 41  1  0  0  0  0
 18 19  1  0  0  0  0
 18 42  1  0  0  0  0
 18 43  1  0  0  0  0
 19 44  1  0  0  0  0
 19 45  1  0  0  0  0
 20 21  1  0  0  0  0
 20 46  1  0  0  0  0
 20 47  1  0  0  0  0
 21 48  1  0  0  0  0
 21 49  1  0  0  0  0
 22 23  2  0  0  0  0
 22 50  1  0  0  0  0
M  CHG  1  16   1
M  END
> <s_m_source_file>
AV-unprocessed.smi

> <i_m_source_file_index>
972

> <i_lp_mmshare_version>
43012

> <i_f3d_flags>
0

> <s_epik_input>
W0NIM11DKFtDSDNdKShbQ0gzXSljMW5bY0hdYyhbY0hdbjEpW05IXUMoPU8pW05IXVtDSF0yW0NIMl1bQ0gyXU4oW0NIMl1bQ0gyXTIpW0NIXTNbQ0gyXVtDSDJdMw==

> <s_epik_cmdline>
J2VwaWtfcHl0aG9uJywgJy1waCcsICc3LjAnLCAnLXRuJywgJzgnLCAnLW1hJywgJzIwMCcsICctbWV0YWxfYmluZGluZycsICctaW1hZScsICc8aW5maWxlLm1hZT4nLCAnLW9tYWUnLCAnPG91dGZpbGUubWFlPic=

> <r_lp_tautomer_probability>
1

> <r_epik_Ionization_Penalty>
0.123264

> <r_epik_Ionization_Penalty_Charging>
0.123242

> <r_epik_Ionization_Penalty_Neutral>
2.24743e-05

> <r_epik_State_Penalty>
0.112739

> <r_epik_Charging_Adjusted_Penalty>
0.235981

> <i_epik_Tot_Q>
1

> <i_epik_Tot_abs_Q>
1

> <r_epik_Metal_State_Penalty>
0.112739

> <b_epik_Metal_Only>
0

> <s_lp_Force_Field>
OPLS_2005

> <r_lp_Energy>
25.9284

> <b_lp_Chiralities_Consistent>
1

> <s_lp_Variant>
AV-unprocessed.smi:972-1

> <Gold.Version>
5.8.1

> <Gold.Id.Protein>
6NUR|6NUR_protein|mol2

> <Gold.PLP.Fitness>
43.2171

> <Gold.PLP.PLP>
-35.3283

> <Gold.PLP.part.hbond>
-2.9618

> <Gold.PLP.part.metal>
0.0000

> <Gold.PLP.part.buried>
-2.0457

> <Gold.PLP.part.nonpolar>
-30.5721

> <Gold.PLP.part.repulsive>
0.5194

> <Gold.PLP.ligand.clash>
0.0000

> <Gold.PLP.ligand.torsion>
0.7087

> <Gold.PLP.Chemscore.Hbond>
1.9913

> <Gold.PLP.Chemscore.CHOScore>
0.6445

> <Gold.PLP.Chemscore.Metal>
0.0000

> <Gold.Chemscore.Hbonds>
donor molecule, donor type, donor heavy atom, donor atom, acceptor molecule, acceptor atom, score
      L1  H     9    34       P1 10175  0.89
      L1  H    12    35       P1 10175  1.00
      L1  C    22    50       P1 10171  0.72

> <Gold.PLP.Chemscore.Internal.Correction>
1.3990

> <Gold.Rescore>
     Score         DG    S(hbond)    S(metal)    S(lipo)     H(rot)  DE(clash)    DE(int)     intcor
     15.39     -18.56       1.53        0.00      96.99       1.32       0.10       3.08       ----

> <Gold.Chemscore.Fitness>
15.3890

> <Gold.Chemscore.DG>
-18.5626

> <Gold.Chemscore.ZeroCoef>
-5.4800

> <Gold.Chemscore.Hbond>
1.5318

> <Gold.Chemscore.Metal>
0.0000

> <Gold.Chemscore.Lipo>
96.9861

> <Gold.Chemscore.Internal_Hbond>
0.0000

> <Gold.Chemscore.DEClash>
0.0971

> <Gold.Chemscore.DEInternal>
3.0764

> <Gold.Chemscore.Rot>
1.3207

> <Gold.Chemscore.Internal.Correction>
   9.000000E+99

> <Gold.Chemscore.Hbonds>
donor molecule, donor type, donor heavy atom, donor atom, acceptor molecule, acceptor atom, score
      L1  H     9    34       P1 10175  0.82
      L1  H    12    35       P1 10175  0.85

> <Gold.Chemscore.Hbond.Weighted>
-5.1161

> <Gold.Chemscore.Metal.Weighted>
-0.0000

> <Gold.Chemscore.Lipo.Weighted>
-11.3474

> <Gold.Chemscore.Internal_Hbond.Weighted>
0.0000

> <Gold.Chemscore.DEClash.Weighted>
0.0971

> <Gold.Chemscore.DEInternal.Weighted>
3.0764

> <Gold.Chemscore.Rot.Weighted>
3.3809

> <Gold.Chemscore.Internal.Correction.Weighted>
   9.000000E+99

> <Gold.Protein.RotatedTorsions>
[ 6907 6896 6895 6894 ] final -100.59 input  -60.11 | X-H torsion
[ 7974 7965 7964 7962 ] final  -46.70 input  175.53 | X-H torsion
[ 8008 7997 7996 7995 ] final  163.67 input   59.86 | X-H torsion
[ 10167 10162 10161 10158 ] final   70.11 input  -65.29 | X-H torsion
[ 10718 10713 10712 10709 ] final -171.13 input   66.30 | X-H torsion
[ 10763 10752 10751 10750 ] final -113.97 input  -60.55 | X-H torsion
[ 11005 11000 10999 10996 ] final   76.26 input  -57.11 | X-H torsion

> <Gold.Protein.ActiveResidues>
 VAL166  LYS551  ARG553  GLY616  TRP617  ASP618  TYR619  PRO620  LYS621  CYS622 
 ASP623  PHE694  ASN695  SER759  ASP760  ASP761  ALA762  ILE779  LEU786  VAL792 
 PHE793  MET794  SER795  GLU796  ALA797  LYS798  CYS799  TRP800  GLU811  SER814 

> <Gold.Protein.RotatedAtoms>
  150.7122  134.0863  159.3915 H   0  0  0  0  0  0  0  0  0  0  0  0  # atno 6907 bound_to 6896
  151.8848  135.0437  160.0501 H   0  0  0  0  0  0  0  0  0  0  0  0  # atno 6908 bound_to 6896
  152.2539  133.5203  159.5378 H   0  0  0  0  0  0  0  0  0  0  0  0  # atno 6909 bound_to 6896
  145.9692  140.7401  142.9419 H   0  0  0  0  0  0  0  0  0  0  0  0  # atno 7974 bound_to 7965
  156.1939  140.1717  156.8037 H   0  0  0  0  0  0  0  0  0  0  0  0  # atno 8008 bound_to 7997
  154.5505  140.0718  156.8692 H   0  0  0  0  0  0  0  0  0  0  0  0  # atno 8009 bound_to 7997
  155.3037  140.3363  155.4249 H   0  0  0  0  0  0  0  0  0  0  0  0  # atno 8010 bound_to 7997
  140.0605  144.5237  150.7298 H   0  0  0  0  0  0  0  0  0  0  0  0  # atno 10167 bound_to 10162
  156.7364  130.9326  151.3107 H   0  0  0  0  0  0  0  0  0  0  0  0  # atno 10718 bound_to 10713
  154.8420  135.4435  154.1433 H   0  0  0  0  0  0  0  0  0  0  0  0  # atno 10763 bound_to 10752
  153.2613  135.6936  153.7582 H   0  0  0  0  0  0  0  0  0  0  0  0  # atno 10764 bound_to 10752
  153.6858  135.3395  155.3165 H   0  0  0  0  0  0  0  0  0  0  0  0  # atno 10765 bound_to 10752
  139.9306  134.7586  156.1373 H   0  0  0  0  0  0  0  0  0  0  0  0  # atno 11005 bound_to 11000
  144.6833  140.2720  143.7304 LP  0  0  0  0  0  0  0  0  0  0  0  0  # atno 17320 bound_to 7965
  145.7930  139.1934  143.2092 LP  0  0  0  0  0  0  0  0  0  0  0  0  # atno 17321 bound_to 7965
  140.7174  143.2557  151.4389 LP  0  0  0  0  0  0  0  0  0  0  0  0  # atno 17342 bound_to 10162
  139.5897  144.1526  152.2073 LP  0  0  0  0  0  0  0  0  0  0  0  0  # atno 17343 bound_to 10162
  157.6837  130.9165  150.0332 LP  0  0  0  0  0  0  0  0  0  0  0  0  # atno 17370 bound_to 10713
  156.1494  130.3642  149.9461 LP  0  0  0  0  0  0  0  0  0  0  0  0  # atno 17371 bound_to 10713
  141.0892  133.6721  156.2504 LP  0  0  0  0  0  0  0  0  0  0  0  0  # atno 17394 bound_to 11000
  140.6212  134.5359  157.5548 LP  0  0  0  0  0  0  0  0  0  0  0  0  # atno 17395 bound_to 11000

$$$$
