AV-unprocessed.smi:817|AV-procd|sdf|3831|dock5
  -GOLD-   22720 1273D 1   1.00000     0.00000
 Structure written by MMmdl.
 48 49  0  0  0  0  0  0  0  0  2 V2000
  145.4612  133.8014  150.6674 C   0  0  0  0  0  0  0  0  0  0  0  0
  145.8395  132.8205  151.7862 C   0  0  1  0  0  0  0  0  0  0  0  0
  145.8018  131.3641  151.2883 C   0  0  0  0  0  0  0  0  0  0  0  0
  146.2398  130.3780  152.3809 C   0  0  0  0  0  0  0  0  0  0  0  0
  147.6168  130.7612  152.9525 C   0  0  0  0  0  0  0  0  0  0  0  0
  147.6438  132.2032  153.5446 C   0  0  2  0  0  0  0  0  0  0  0  0
  149.0876  132.5525  154.0203 C   0  0  0  0  0  0  0  0  0  0  0  0
  149.4537  133.9488  153.7744 N   0  0  0  0  0  0  0  0  0  0  0  0
  150.3120  134.7087  154.4760 C   0  0  0  0  0  0  0  0  0  0  0  0
  150.8885  134.2637  155.4653 O   0  0  0  0  0  0  0  0  0  0  0  0
  150.4450  135.9648  154.0058 N   0  0  0  0  0  0  0  0  0  0  0  0
  151.2602  137.0190  154.4999 C   0  0  0  0  0  0  0  0  0  0  0  0
  152.2902  136.8530  155.4576 C   0  0  0  0  0  0  0  0  0  0  0  0
  153.0374  137.9790  155.8537 C   0  0  0  0  0  0  0  0  0  0  0  0
  152.7353  139.2261  155.2734 C   0  0  0  0  0  0  0  0  0  0  0  0
  151.7662  139.3964  154.3495 N   0  0  0  0  0  0  0  0  0  0  0  0
  151.0537  138.3126  153.9753 C   0  0  0  0  0  0  0  0  0  0  0  0
  146.6686  132.3199  154.6935 N   0  3  0  0  0  0  0  0  0  0  0  0
  146.8444  131.3407  155.7989 C   0  0  0  0  0  0  0  0  0  0  0  0
  146.4738  133.6876  155.2443 C   0  0  0  0  0  0  0  0  0  0  0  0
  147.2296  133.1497  152.3751 C   0  0  0  0  0  0  0  0  0  0  0  0
  146.1708  133.7531  149.8408 H   0  0  0  0  0  0  0  0  0  0  0  0
  145.4460  134.8282  151.0337 H   0  0  0  0  0  0  0  0  0  0  0  0
  144.4706  133.5802  150.2686 H   0  0  0  0  0  0  0  0  0  0  0  0
  145.0919  132.9284  152.5724 H   0  0  0  0  0  0  0  0  0  0  0  0
  144.7980  131.1105  150.9457 H   0  0  0  0  0  0  0  0  0  0  0  0
  146.4577  131.2550  150.4233 H   0  0  0  0  0  0  0  0  0  0  0  0
  145.4940  130.3490  153.1758 H   0  0  0  0  0  0  0  0  0  0  0  0
  146.2800  129.3699  151.9674 H   0  0  0  0  0  0  0  0  0  0  0  0
  147.9471  130.0186  153.6773 H   0  0  0  0  0  0  0  0  0  0  0  0
  148.3377  130.6831  152.1378 H   0  0  0  0  0  0  0  0  0  0  0  0
  149.1929  132.3639  155.0886 H   0  0  0  0  0  0  0  0  0  0  0  0
  149.8197  131.9260  153.5106 H   0  0  0  0  0  0  0  0  0  0  0  0
  148.9982  134.3939  152.9903 H   0  0  0  0  0  0  0  0  0  0  0  0
  149.8477  136.2108  153.2303 H   0  0  0  0  0  0  0  0  0  0  0  0
  152.5312  135.8921  155.8845 H   0  0  0  0  0  0  0  0  0  0  0  0
  153.8283  137.8874  156.5834 H   0  0  0  0  0  0  0  0  0  0  0  0
  153.2903  140.1088  155.5549 H   0  0  0  0  0  0  0  0  0  0  0  0
  150.2884  138.4866  153.2329 H   0  0  0  0  0  0  0  0  0  0  0  0
  147.7829  131.4912  156.3317 H   0  0  0  0  0  0  0  0  0  0  0  0
  146.7974  130.3084  155.4581 H   0  0  0  0  0  0  0  0  0  0  0  0
  146.0399  131.4493  156.5272 H   0  0  0  0  0  0  0  0  0  0  0  0
  147.3867  134.0831  155.6883 H   0  0  0  0  0  0  0  0  0  0  0  0
  145.7140  133.6744  156.0264 H   0  0  0  0  0  0  0  0  0  0  0  0
  146.1150  134.3919  154.4961 H   0  0  0  0  0  0  0  0  0  0  0  0
  147.9541  133.0682  151.5638 H   0  0  0  0  0  0  0  0  0  0  0  0
  147.2801  134.1958  152.6752 H   0  0  0  0  0  0  0  0  0  0  0  0
  145.7753  132.0826  154.2855 H   0  0  0  0  0  0  0  0  0  0  0  0
  1  2  1  0  0  0  0
  1 22  1  0  0  0  0
  1 23  1  0  0  0  0
  1 24  1  0  0  0  0
  2 21  1  0  0  0  0
  2  3  1  0  0  0  0
  2 25  1  0  0  0  0
  3  4  1  0  0  0  0
  3 26  1  0  0  0  0
  3 27  1  0  0  0  0
  4  5  1  0  0  0  0
  4 28  1  0  0  0  0
  4 29  1  0  0  0  0
  5  6  1  0  0  0  0
  5 30  1  0  0  0  0
  5 31  1  0  0  0  0
  6  7  1  0  0  0  0
  6 18  1  0  0  0  0
  6 21  1  0  0  0  0
  7  8  1  0  0  0  0
  7 32  1  0  0  0  0
  7 33  1  0  0  0  0
  8  9  1  0  0  0  0
  8 34  1  0  0  0  0
  9 10  2  0  0  0  0
  9 11  1  0  0  0  0
 11 12  1  0  0  0  0
 11 35  1  0  0  0  0
 12 17  1  0  0  0  0
 12 13  2  0  0  0  0
 13 14  1  0  0  0  0
 13 36  1  0  0  0  0
 14 15  2  0  0  0  0
 14 37  1  0  0  0  0
 15 16  1  0  0  0  0
 15 38  1  0  0  0  0
 16 17  2  0  0  0  0
 17 39  1  0  0  0  0
 18 19  1  0  0  0  0
 18 20  1  0  0  0  0
 18 48  1  0  0  0  0
 19 40  1  0  0  0  0
 19 41  1  0  0  0  0
 19 42  1  0  0  0  0
 20 43  1  0  0  0  0
 20 44  1  0  0  0  0
 20 45  1  0  0  0  0
 21 46  1  0  0  0  0
 21 47  1  0  0  0  0
M  CHG  1  18   1
M  END
> <s_m_source_file>
AV-unprocessed.smi

> <i_m_source_file_index>
817

> <i_lp_mmshare_version>
43012

> <i_f3d_flags>
0

> <s_epik_input>
W0NIM11bQ0BASF0oW0NIMl0xKVtDSDJdW0NIMl1bQ0gyXVtDQF0xKE4oW0NIM10pW0NIM10pW0NIMl1bTkhdQyg9TylbTkhdYzJbY0hdW2NIXVtjSF1uW2NIXTI=

> <s_epik_cmdline>
J2VwaWtfcHl0aG9uJywgJy1waCcsICc3LjAnLCAnLXRuJywgJzgnLCAnLW1hJywgJzIwMCcsICctbWV0YWxfYmluZGluZycsICctaW1hZScsICc8aW5maWxlLm1hZT4nLCAnLW9tYWUnLCAnPG91dGZpbGUubWFlPic=

> <r_lp_tautomer_probability>
1

> <r_epik_Ionization_Penalty>
0.00584939

> <r_epik_Ionization_Penalty_Charging>
0.00160539

> <r_epik_Ionization_Penalty_Neutral>
0.004244

> <r_epik_State_Penalty>
-0

> <r_epik_Charging_Adjusted_Penalty>
0.00160539

> <i_epik_Tot_Q>
1

> <i_epik_Tot_abs_Q>
1

> <r_epik_Metal_State_Penalty>
-0

> <b_epik_Metal_Only>
0

> <s_lp_Force_Field>
OPLS_2005

> <r_lp_Energy>
44.0482

> <b_lp_Chiralities_Consistent>
1

> <s_lp_Variant>
AV-unprocessed.smi:817-4

> <Gold.Version>
5.8.1

> <Gold.Id.Protein>
6NUR|6NUR_protein|mol2

> <Gold.PLP.Fitness>
43.2954

> <Gold.PLP.PLP>
-33.7708

> <Gold.PLP.part.hbond>
-3.9636

> <Gold.PLP.part.metal>
0.0000

> <Gold.PLP.part.buried>
-2.0635

> <Gold.PLP.part.nonpolar>
-27.3761

> <Gold.PLP.part.repulsive>
0.1981

> <Gold.PLP.ligand.clash>
0.1277

> <Gold.PLP.ligand.torsion>
0.9852

> <Gold.PLP.Chemscore.Hbond>
2.8320

> <Gold.PLP.Chemscore.CHOScore>
1.0000

> <Gold.PLP.Chemscore.Metal>
0.0000

> <Gold.Chemscore.Hbonds>
donor molecule, donor type, donor heavy atom, donor atom, acceptor molecule, acceptor atom, score
      L1  H     8    34       P1  7948  0.32
      L1  H    11    35       P1  7948  0.65
      P1  H  7989  7998       L1    16  0.99
      L1  C    17    39       P1  7948  0.05
      L1  C    17    39       P1  7957  0.68

> <Gold.PLP.Chemscore.Internal.Correction>
0.1266

> <Gold.Rescore>
     Score         DG    S(hbond)    S(metal)    S(lipo)     H(rot)  DE(clash)    DE(int)     intcor
     16.65     -18.84       2.38        0.00      77.69       1.44       0.02       2.16       ----

> <Gold.Chemscore.Fitness>
16.6540

> <Gold.Chemscore.DG>
-18.8394

> <Gold.Chemscore.ZeroCoef>
-5.4800

> <Gold.Chemscore.Hbond>
2.3823

> <Gold.Chemscore.Metal>
0.0000

> <Gold.Chemscore.Lipo>
77.6937

> <Gold.Chemscore.Internal_Hbond>
0.0000

> <Gold.Chemscore.DEClash>
0.0222

> <Gold.Chemscore.DEInternal>
2.1631

> <Gold.Chemscore.Rot>
1.4405

> <Gold.Chemscore.Internal.Correction>
   9.000000E+99

> <Gold.Chemscore.Hbonds>
donor molecule, donor type, donor heavy atom, donor atom, acceptor molecule, acceptor atom, score
      L1  H     8    34       P1  7948  0.01
      L1  H    11    35       P1  7948  0.06
      P1  H  7989  7998       L1    16  0.91

> <Gold.Chemscore.Hbond.Weighted>
-7.9570

> <Gold.Chemscore.Metal.Weighted>
-0.0000

> <Gold.Chemscore.Lipo.Weighted>
-9.0902

> <Gold.Chemscore.Internal_Hbond.Weighted>
0.0000

> <Gold.Chemscore.DEClash.Weighted>
0.0222

> <Gold.Chemscore.DEInternal.Weighted>
2.1631

> <Gold.Chemscore.Rot.Weighted>
3.6878

> <Gold.Chemscore.Internal.Correction.Weighted>
   9.000000E+99

> <Gold.Protein.RotatedTorsions>
[ 6907 6896 6895 6894 ] final  -80.10 input  -60.11 | X-H torsion
[ 7974 7965 7964 7962 ] final    9.79 input  175.53 | X-H torsion
[ 8008 7997 7996 7995 ] final  -90.48 input   59.86 | X-H torsion
[ 10167 10162 10161 10158 ] final -145.68 input  -65.29 | X-H torsion
[ 10718 10713 10712 10709 ] final  130.16 input   66.30 | X-H torsion
[ 10763 10752 10751 10750 ] final  168.72 input  -60.55 | X-H torsion
[ 11005 11000 10999 10996 ] final   63.12 input  -57.11 | X-H torsion

> <Gold.Protein.ActiveResidues>
 VAL166  LYS551  ARG553  GLY616  TRP617  ASP618  TYR619  PRO620  LYS621  CYS622 
 ASP623  PHE694  ASN695  SER759  ASP760  ASP761  ALA762  ILE779  LEU786  VAL792 
 PHE793  MET794  SER795  GLU796  ALA797  LYS798  CYS799  TRP800  GLU811  SER814 

> <Gold.Protein.RotatedAtoms>
  150.6936  134.4021  159.5123 H   0  0  0  0  0  0  0  0  0  0  0  0  # atno 6907 bound_to 6896
  152.1793  134.8765  160.0537 H   0  0  0  0  0  0  0  0  0  0  0  0  # atno 6908 bound_to 6896
  151.9761  133.3707  159.4126 H   0  0  0  0  0  0  0  0  0  0  0  0  # atno 6909 bound_to 6896
  146.2398  139.9731  142.8444 H   0  0  0  0  0  0  0  0  0  0  0  0  # atno 7974 bound_to 7965
  154.6991  140.0530  157.0440 H   0  0  0  0  0  0  0  0  0  0  0  0  # atno 8008 bound_to 7997
  155.0710  140.3199  155.4612 H   0  0  0  0  0  0  0  0  0  0  0  0  # atno 8009 bound_to 7997
  156.2754  140.2082  156.5837 H   0  0  0  0  0  0  0  0  0  0  0  0  # atno 8010 bound_to 7997
  139.7783  143.8137  152.2635 H   0  0  0  0  0  0  0  0  0  0  0  0  # atno 10167 bound_to 10162
  157.5087  131.1096  150.9323 H   0  0  0  0  0  0  0  0  0  0  0  0  # atno 10718 bound_to 10713
  154.3728  135.2753  155.2257 H   0  0  0  0  0  0  0  0  0  0  0  0  # atno 10763 bound_to 10752
  154.4397  135.5957  153.6125 H   0  0  0  0  0  0  0  0  0  0  0  0  # atno 10764 bound_to 10752
  152.9837  135.6015  154.3961 H   0  0  0  0  0  0  0  0  0  0  0  0  # atno 10765 bound_to 10752
  140.0046  134.6390  155.9876 H   0  0  0  0  0  0  0  0  0  0  0  0  # atno 11005 bound_to 11000
  145.1662  140.9698  143.4348 LP  0  0  0  0  0  0  0  0  0  0  0  0  # atno 17320 bound_to 7965
  145.0070  139.3545  143.6139 LP  0  0  0  0  0  0  0  0  0  0  0  0  # atno 17321 bound_to 7965
  139.8192  144.7303  150.9595 LP  0  0  0  0  0  0  0  0  0  0  0  0  # atno 17342 bound_to 10162
  140.7817  143.4175  151.0894 LP  0  0  0  0  0  0  0  0  0  0  0  0  # atno 17343 bound_to 10162
  156.9971  130.5585  149.5308 LP  0  0  0  0  0  0  0  0  0  0  0  0  # atno 17370 bound_to 10713
  156.0275  130.5368  150.8446 LP  0  0  0  0  0  0  0  0  0  0  0  0  # atno 17371 bound_to 10713
  141.1667  133.6537  156.4505 LP  0  0  0  0  0  0  0  0  0  0  0  0  # atno 17394 bound_to 11000
  140.4665  134.6792  157.5110 LP  0  0  0  0  0  0  0  0  0  0  0  0  # atno 17395 bound_to 11000

$$$$
