AV-unprocessed.smi:2231|AV-procd|sdf|9037|dock2
  -GOLD-   2272012243D 1   1.00000     0.00000
 Structure written by MMmdl.
 49 50  0  0  0  0  0  0  0  0  1 V2000
  144.7997  133.8391  150.8313 C   0  0  0  0  0  0  0  0  0  0  0  0
  144.6913  135.0735  151.7019 C   0  0  0  0  0  0  0  0  0  0  0  0
  143.4936  135.3801  152.3756 C   0  0  0  0  0  0  0  0  0  0  0  0
  143.4562  136.5435  153.1689 C   0  0  0  0  0  0  0  0  0  0  0  0
  142.2008  136.9356  153.9190 C   0  0  0  0  0  0  0  0  0  0  0  0
  144.5121  137.3725  153.3105 N   0  0  0  0  0  0  0  0  0  0  0  0
  145.6708  137.0877  152.6659 C   0  0  0  0  0  0  0  0  0  0  0  0
  146.8295  137.9062  152.7325 N   0  0  0  0  0  0  0  0  0  0  0  0
  146.9960  139.0459  153.4257 C   0  0  0  0  0  0  0  0  0  0  0  0
  146.2084  139.4900  154.2614 O   0  0  0  0  0  0  0  0  0  0  0  0
  148.1360  139.6640  153.0805 N   0  0  0  0  0  0  0  0  0  0  0  0
  148.5588  140.9854  153.5448 C   0  0  0  0  0  0  0  0  0  0  0  0
  148.5902  141.0826  155.0858 C   0  0  0  0  0  0  0  0  0  0  0  0
  149.9881  141.3716  155.6412 C   0  0  0  0  0  0  0  0  0  0  0  0
  150.9178  140.6029  155.3986 O   0  0  0  0  0  0  0  0  0  0  0  0
  150.1109  142.4669  156.4075 N   0  0  0  0  0  0  0  0  0  0  0  0
  151.3116  142.8550  157.1407 C   0  0  0  0  0  0  0  0  0  0  0  0
  151.3091  142.2205  158.5486 C   0  0  0  0  0  0  0  0  0  0  0  0
  152.5089  142.6879  159.3868 C   0  0  0  0  0  0  0  0  0  0  0  0
  152.5672  144.2204  159.4720 C   0  0  0  0  0  0  0  0  0  0  0  0
  152.5864  144.8515  158.0712 C   0  0  0  0  0  0  0  0  0  0  0  0
  151.3807  144.3910  157.2362 C   0  0  0  0  0  0  0  0  0  0  0  0
  145.7921  135.9414  151.8489 C   0  0  0  0  0  0  0  0  0  0  0  0
  143.9209  133.2017  150.9358 H   0  0  0  0  0  0  0  0  0  0  0  0
  145.6775  133.2551  151.1087 H   0  0  0  0  0  0  0  0  0  0  0  0
  144.8928  134.1241  149.7832 H   0  0  0  0  0  0  0  0  0  0  0  0
  142.6268  134.7415  152.2865 H   0  0  0  0  0  0  0  0  0  0  0  0
  141.4247  136.1771  153.8132 H   0  0  0  0  0  0  0  0  0  0  0  0
  141.8102  137.8788  153.5367 H   0  0  0  0  0  0  0  0  0  0  0  0
  142.4147  137.0572  154.9812 H   0  0  0  0  0  0  0  0  0  0  0  0
  147.5884  137.6329  152.1262 H   0  0  0  0  0  0  0  0  0  0  0  0
  148.7296  139.2145  152.3988 H   0  0  0  0  0  0  0  0  0  0  0  0
  149.5281  141.2574  153.1228 H   0  0  0  0  0  0  0  0  0  0  0  0
  147.8487  141.7148  153.1548 H   0  0  0  0  0  0  0  0  0  0  0  0
  147.9271  141.8853  155.4103 H   0  0  0  0  0  0  0  0  0  0  0  0
  148.1950  140.1660  155.5269 H   0  0  0  0  0  0  0  0  0  0  0  0
  149.2923  143.0418  156.5430 H   0  0  0  0  0  0  0  0  0  0  0  0
  152.1912  142.5068  156.5956 H   0  0  0  0  0  0  0  0  0  0  0  0
  150.3860  142.4812  159.0679 H   0  0  0  0  0  0  0  0  0  0  0  0
  151.3229  141.1327  158.4741 H   0  0  0  0  0  0  0  0  0  0  0  0
  152.4487  142.2621  160.3885 H   0  0  0  0  0  0  0  0  0  0  0  0
  153.4317  142.3103  158.9446 H   0  0  0  0  0  0  0  0  0  0  0  0
  151.7042  144.5885  160.0284 H   0  0  0  0  0  0  0  0  0  0  0  0
  153.4509  144.5285  160.0317 H   0  0  0  0  0  0  0  0  0  0  0  0
  152.5872  145.9385  158.1543 H   0  0  0  0  0  0  0  0  0  0  0  0
  153.5104  144.5794  157.5597 H   0  0  0  0  0  0  0  0  0  0  0  0
  151.4382  144.8258  156.2377 H   0  0  0  0  0  0  0  0  0  0  0  0
  150.4649  144.7746  157.6880 H   0  0  0  0  0  0  0  0  0  0  0  0
  146.7194  135.7280  151.3367 H   0  0  0  0  0  0  0  0  0  0  0  0
  1  2  1  0  0  0  0
  1 24  1  0  0  0  0
  1 25  1  0  0  0  0
  1 26  1  0  0  0  0
  2 23  1  0  0  0  0
  2  3  2  0  0  0  0
  3  4  1  0  0  0  0
  3 27  1  0  0  0  0
  4  5  1  0  0  0  0
  4  6  2  0  0  0  0
  5 28  1  0  0  0  0
  5 29  1  0  0  0  0
  5 30  1  0  0  0  0
  6  7  1  0  0  0  0
  7  8  1  0  0  0  0
  7 23  2  0  0  0  0
  8  9  1  0  0  0  0
  8 31  1  0  0  0  0
  9 10  2  0  0  0  0
  9 11  1  0  0  0  0
 11 12  1  0  0  0  0
 11 32  1  0  0  0  0
 12 13  1  0  0  0  0
 12 33  1  0  0  0  0
 12 34  1  0  0  0  0
 13 14  1  0  0  0  0
 13 35  1  0  0  0  0
 13 36  1  0  0  0  0
 14 15  2  0  0  0  0
 14 16  1  0  0  0  0
 16 17  1  0  0  0  0
 16 37  1  0  0  0  0
 17 22  1  0  0  0  0
 17 18  1  0  0  0  0
 17 38  1  0  0  0  0
 18 19  1  0  0  0  0
 18 39  1  0  0  0  0
 18 40  1  0  0  0  0
 19 20  1  0  0  0  0
 19 41  1  0  0  0  0
 19 42  1  0  0  0  0
 20 21  1  0  0  0  0
 20 43  1  0  0  0  0
 20 44  1  0  0  0  0
 21 22  1  0  0  0  0
 21 45  1  0  0  0  0
 21 46  1  0  0  0  0
 22 47  1  0  0  0  0
 22 48  1  0  0  0  0
 23 49  1  0  0  0  0
M  END
> <s_m_source_file>
AV-unprocessed.smi

> <i_m_source_file_index>
2231

> <i_lp_mmshare_version>
43012

> <i_f3d_flags>
0

> <s_epik_input>
W0NIM11jMVtjSF1jKFtDSDNdKW5jKFtjSF0xKVtOSF1DKD1PKVtOSF1bQ0gyXVtDSDJdQyg9TylbTkhdW0NIXTJbQ0gyXVtDSDJdW0NIMl1bQ0gyXVtDSDJdMg==

> <s_epik_cmdline>
J2VwaWtfcHl0aG9uJywgJy1waCcsICc3LjAnLCAnLXRuJywgJzgnLCAnLW1hJywgJzIwMCcsICctbWV0YWxfYmluZGluZycsICctaW1hZScsICc8aW5maWxlLm1hZT4nLCAnLW9tYWUnLCAnPG91dGZpbGUubWFlPic=

> <r_lp_tautomer_probability>
1

> <r_epik_Ionization_Penalty>
0.000231702

> <r_epik_Ionization_Penalty_Charging>
0

> <r_epik_Ionization_Penalty_Neutral>
0.000231702

> <r_epik_State_Penalty>
-0

> <r_epik_Charging_Adjusted_Penalty>
0

> <i_epik_Tot_Q>
0

> <i_epik_Tot_abs_Q>
0

> <r_epik_Metal_State_Penalty>
-0

> <b_epik_Metal_Only>
0

> <s_lp_Force_Field>
OPLS_2005

> <r_lp_Energy>
6.29384

> <b_lp_Chiralities_Consistent>
1

> <s_lp_Variant>
AV-unprocessed.smi:2231-1

> <Gold.Version>
5.8.1

> <Gold.Id.Protein>
6NUR|6NUR_protein|mol2

> <Gold.PLP.Fitness>
53.5658

> <Gold.PLP.PLP>
-46.5235

> <Gold.PLP.part.hbond>
-3.3991

> <Gold.PLP.part.metal>
0.0000

> <Gold.PLP.part.buried>
-2.4026

> <Gold.PLP.part.nonpolar>
-41.7096

> <Gold.PLP.part.repulsive>
0.7455

> <Gold.PLP.ligand.clash>
0.0000

> <Gold.PLP.ligand.torsion>
0.7647

> <Gold.PLP.Chemscore.Hbond>
2.8340

> <Gold.PLP.Chemscore.CHOScore>
0.0000

> <Gold.PLP.Chemscore.Metal>
0.0000

> <Gold.Chemscore.Hbonds>
donor molecule, donor type, donor heavy atom, donor atom, acceptor molecule, acceptor atom, score
      L1  H     8    31       P1  7948  0.88
      L1  H    11    32       P1  7957  0.51
      L1  H    16    37       P1  8028  0.54
      P1  H  7989  7998       L1    15  0.89

> <Gold.PLP.Chemscore.Internal.Correction>
0.0696

> <Gold.Rescore>
     Score         DG    S(hbond)    S(metal)    S(lipo)     H(rot)  DE(clash)    DE(int)     intcor
     18.10     -23.14       2.54        0.00     115.66       1.69       1.97       3.07       ----

> <Gold.Chemscore.Fitness>
18.0987

> <Gold.Chemscore.DG>
-23.1444

> <Gold.Chemscore.ZeroCoef>
-5.4800

> <Gold.Chemscore.Hbond>
2.5352

> <Gold.Chemscore.Metal>
0.0000

> <Gold.Chemscore.Lipo>
115.6639

> <Gold.Chemscore.Internal_Hbond>
0.0000

> <Gold.Chemscore.DEClash>
1.9725

> <Gold.Chemscore.DEInternal>
3.0732

> <Gold.Chemscore.Rot>
1.6936

> <Gold.Chemscore.Internal.Correction>
   9.000000E+99

> <Gold.Chemscore.Hbonds>
donor molecule, donor type, donor heavy atom, donor atom, acceptor molecule, acceptor atom, score
      L1  H     8    31       P1  7948  0.86
      L1  H    11    32       P1  7957  0.52
      L1  H    16    37       P1  8028  0.54
      P1  H  7989  7998       L1    15  0.63

> <Gold.Chemscore.Hbond.Weighted>
-8.4674

> <Gold.Chemscore.Metal.Weighted>
-0.0000

> <Gold.Chemscore.Lipo.Weighted>
-13.5327

> <Gold.Chemscore.Internal_Hbond.Weighted>
0.0000

> <Gold.Chemscore.DEClash.Weighted>
1.9725

> <Gold.Chemscore.DEInternal.Weighted>
3.0732

> <Gold.Chemscore.Rot.Weighted>
4.3357

> <Gold.Chemscore.Internal.Correction.Weighted>
   9.000000E+99

> <Gold.Protein.RotatedTorsions>
[ 6907 6896 6895 6894 ] final  -83.68 input  -60.11 | X-H torsion
[ 7974 7965 7964 7962 ] final -142.42 input  175.53 | X-H torsion
[ 8008 7997 7996 7995 ] final  166.11 input   59.86 | X-H torsion
[ 10167 10162 10161 10158 ] final   53.17 input  -65.29 | X-H torsion
[ 10718 10713 10712 10709 ] final -125.07 input   66.30 | X-H torsion
[ 10763 10752 10751 10750 ] final  -75.52 input  -60.55 | X-H torsion
[ 11005 11000 10999 10996 ] final -159.76 input  -57.11 | X-H torsion

> <Gold.Protein.ActiveResidues>
 VAL166  LYS551  ARG553  GLY616  TRP617  ASP618  TYR619  PRO620  LYS621  CYS622 
 ASP623  PHE694  ASN695  SER759  ASP760  ASP761  ALA762  ILE779  LEU786  VAL792 
 PHE793  MET794  SER795  GLU796  ALA797  LYS798  CYS799  TRP800  GLU811  SER814 

> <Gold.Protein.RotatedAtoms>
  150.6883  134.3475  159.4894 H   0  0  0  0  0  0  0  0  0  0  0  0  # atno 6907 bound_to 6896
  152.1320  134.9125  160.0567 H   0  0  0  0  0  0  0  0  0  0  0  0  # atno 6908 bound_to 6896
  152.0291  133.3895  159.4326 H   0  0  0  0  0  0  0  0  0  0  0  0  # atno 6909 bound_to 6896
  144.8445  140.5960  143.5430 H   0  0  0  0  0  0  0  0  0  0  0  0  # atno 7974 bound_to 7965
  156.1745  140.1652  156.8387 H   0  0  0  0  0  0  0  0  0  0  0  0  # atno 8008 bound_to 7997
  154.5292  140.0760  156.8348 H   0  0  0  0  0  0  0  0  0  0  0  0  # atno 8009 bound_to 7997
  155.3442  140.3386  155.4241 H   0  0  0  0  0  0  0  0  0  0  0  0  # atno 8010 bound_to 7997
  140.2436  144.3557  150.6372 H   0  0  0  0  0  0  0  0  0  0  0  0  # atno 10167 bound_to 10162
  156.1643  130.6623  151.0093 H   0  0  0  0  0  0  0  0  0  0  0  0  # atno 10718 bound_to 10713
  154.4877  135.5828  153.6436 H   0  0  0  0  0  0  0  0  0  0  0  0  # atno 10763 bound_to 10752
  152.9857  135.6105  154.3165 H   0  0  0  0  0  0  0  0  0  0  0  0  # atno 10764 bound_to 10752
  154.3062  135.2846  155.2567 H   0  0  0  0  0  0  0  0  0  0  0  0  # atno 10765 bound_to 10752
  140.6390  134.4571  157.5232 H   0  0  0  0  0  0  0  0  0  0  0  0  # atno 11005 bound_to 11000
  145.4626  139.1511  143.3858 LP  0  0  0  0  0  0  0  0  0  0  0  0  # atno 17320 bound_to 7965
  146.2732  140.4756  142.8806 LP  0  0  0  0  0  0  0  0  0  0  0  0  # atno 17321 bound_to 7965
  140.6095  143.2169  151.6915 LP  0  0  0  0  0  0  0  0  0  0  0  0  # atno 17342 bound_to 10162
  139.5069  144.3665  152.0512 LP  0  0  0  0  0  0  0  0  0  0  0  0  # atno 17343 bound_to 10162
  157.6756  131.0851  150.7503 LP  0  0  0  0  0  0  0  0  0  0  0  0  # atno 17370 bound_to 10713
  156.7564  130.4785  149.5446 LP  0  0  0  0  0  0  0  0  0  0  0  0  # atno 17371 bound_to 10713
  139.9087  134.8392  156.1608 LP  0  0  0  0  0  0  0  0  0  0  0  0  # atno 17394 bound_to 11000
  141.0620  133.6837  156.1971 LP  0  0  0  0  0  0  0  0  0  0  0  0  # atno 17395 bound_to 11000

$$$$
