AV-unprocessed.smi:910|AV-procd|sdf|4118|dock2
  -GOLD-   22720 2 13D 1   1.00000     0.00000
 Structure written by MMmdl.
 46 47  0  0  0  0  0  0  0  0  1 V2000
  143.8731  131.9117  150.5933 C   0  0  0  0  0  0  0  0  0  0  0  0
  145.1089  132.0684  151.4224 C   0  0  0  0  0  0  0  0  0  0  0  0
  145.7151  133.3020  151.6111 N   0  0  0  0  0  0  0  0  0  0  0  0
  146.7668  133.0434  152.3902 C   0  0  0  0  0  0  0  0  0  0  0  0
  147.6982  133.9877  152.8898 N   0  0  0  0  0  0  0  0  0  0  0  0
  148.3900  133.9158  154.0385 C   0  0  0  0  0  0  0  0  0  0  0  0
  148.2115  133.0740  154.9194 O   0  0  0  0  0  0  0  0  0  0  0  0
  149.3214  134.8787  154.1091 N   0  0  0  0  0  0  0  0  0  0  0  0
  150.3201  135.0000  155.1666 C   0  0  0  0  0  0  0  0  0  0  0  0
  149.8786  136.0134  156.2339 C   0  0  0  0  0  0  0  0  0  0  0  0
  150.6883  137.1738  156.1226 O   0  0  0  0  0  0  0  0  0  0  0  0
  150.8527  137.6834  154.8056 C   0  0  2  0  0  0  0  0  0  0  0  0
  152.2357  138.3550  154.6535 C   0  0  0  0  0  0  0  0  0  0  0  0
  152.3783  139.5848  155.5664 C   0  0  0  0  0  0  0  0  0  0  0  0
  151.2460  140.5941  155.3254 C   0  0  0  0  0  0  0  0  0  0  0  0
  149.8658  139.9336  155.4709 C   0  0  0  0  0  0  0  0  0  0  0  0
  149.7238  138.7064  154.5467 C   0  0  2  0  0  0  0  0  0  0  0  0
  148.3301  138.0684  154.6554 C   0  0  0  0  0  0  0  0  0  0  0  0
  146.8917  131.7327  152.7285 O   0  0  0  0  0  0  0  0  0  0  0  0
  145.8355  131.1244  152.1036 C   0  0  0  0  0  0  0  0  0  0  0  0
  145.6835  129.6510  152.2743 C   0  0  0  0  0  0  0  0  0  0  0  0
  143.3001  131.0352  150.8969 H   0  0  0  0  0  0  0  0  0  0  0  0
  144.1219  131.7960  149.5383 H   0  0  0  0  0  0  0  0  0  0  0  0
  143.2199  132.7798  150.6871 H   0  0  0  0  0  0  0  0  0  0  0  0
  147.9063  134.7631  152.2785 H   0  0  0  0  0  0  0  0  0  0  0  0
  149.3869  135.5355  153.3456 H   0  0  0  0  0  0  0  0  0  0  0  0
  150.4387  134.0180  155.6248 H   0  0  0  0  0  0  0  0  0  0  0  0
  151.2944  135.2700  154.7558 H   0  0  0  0  0  0  0  0  0  0  0  0
  148.8211  136.2454  156.1079 H   0  0  0  0  0  0  0  0  0  0  0  0
  150.0007  135.5858  157.2297 H   0  0  0  0  0  0  0  0  0  0  0  0
  150.7589  136.8689  154.0851 H   0  0  0  0  0  0  0  0  0  0  0  0
  153.0397  137.6486  154.8564 H   0  0  0  0  0  0  0  0  0  0  0  0
  152.3685  138.6646  153.6161 H   0  0  0  0  0  0  0  0  0  0  0  0
  152.3708  139.2712  156.6103 H   0  0  0  0  0  0  0  0  0  0  0  0
  153.3430  140.0635  155.3974 H   0  0  0  0  0  0  0  0  0  0  0  0
  151.3354  141.4259  156.0250 H   0  0  0  0  0  0  0  0  0  0  0  0
  151.3432  141.0186  154.3255 H   0  0  0  0  0  0  0  0  0  0  0  0
  149.7124  139.6369  156.5095 H   0  0  0  0  0  0  0  0  0  0  0  0
  149.0884  140.6639  155.2436 H   0  0  0  0  0  0  0  0  0  0  0  0
  149.8309  139.0574  153.5192 H   0  0  0  0  0  0  0  0  0  0  0  0
  148.1342  137.7056  155.6649 H   0  0  0  0  0  0  0  0  0  0  0  0
  148.2305  137.2242  153.9728 H   0  0  0  0  0  0  0  0  0  0  0  0
  147.5498  138.7878  154.4054 H   0  0  0  0  0  0  0  0  0  0  0  0
  145.2632  129.1972  151.3766 H   0  0  0  0  0  0  0  0  0  0  0  0
  145.0199  129.4268  153.1094 H   0  0  0  0  0  0  0  0  0  0  0  0
  146.6467  129.1793  152.4703 H   0  0  0  0  0  0  0  0  0  0  0  0
  1  2  1  0  0  0  0
  1 22  1  0  0  0  0
  1 23  1  0  0  0  0
  1 24  1  0  0  0  0
  2 20  2  0  0  0  0
  2  3  1  0  0  0  0
  3  4  2  0  0  0  0
  4  5  1  0  0  0  0
  4 19  1  0  0  0  0
  5  6  1  0  0  0  0
  5 25  1  0  0  0  0
  6  7  2  0  0  0  0
  6  8  1  0  0  0  0
  8  9  1  0  0  0  0
  8 26  1  0  0  0  0
  9 10  1  0  0  0  0
  9 27  1  0  0  0  0
  9 28  1  0  0  0  0
 10 11  1  0  0  0  0
 10 29  1  0  0  0  0
 10 30  1  0  0  0  0
 11 12  1  0  0  0  0
 12 17  1  0  0  0  0
 12 13  1  0  0  0  0
 12 31  1  0  0  0  0
 13 14  1  0  0  0  0
 13 32  1  0  0  0  0
 13 33  1  0  0  0  0
 14 15  1  0  0  0  0
 14 34  1  0  0  0  0
 14 35  1  0  0  0  0
 15 16  1  0  0  0  0
 15 36  1  0  0  0  0
 15 37  1  0  0  0  0
 16 17  1  0  0  0  0
 16 38  1  0  0  0  0
 16 39  1  0  0  0  0
 17 18  1  0  0  0  0
 17 40  1  0  0  0  0
 18 41  1  0  0  0  0
 18 42  1  0  0  0  0
 18 43  1  0  0  0  0
 19 20  1  0  0  0  0
 20 21  1  0  0  0  0
 21 44  1  0  0  0  0
 21 45  1  0  0  0  0
 21 46  1  0  0  0  0
M  END
> <s_m_source_file>
AV-unprocessed.smi

> <i_m_source_file_index>
910

> <i_lp_mmshare_version>
43012

> <i_f3d_flags>
0

> <s_epik_input>
W0NIM11jMW5jKG9jMVtDSDNdKVtOSF1DKD1PKVtOSF1bQ0gyXVtDSDJdT1tDQEBIXTJbQ0gyXVtDSDJdW0NIMl1bQ0gyXVtDQEhdMltDSDNd

> <s_epik_cmdline>
J2VwaWtfcHl0aG9uJywgJy1waCcsICc3LjAnLCAnLXRuJywgJzgnLCAnLW1hJywgJzIwMCcsICctbWV0YWxfYmluZGluZycsICctaW1hZScsICc8aW5maWxlLm1hZT4nLCAnLW9tYWUnLCAnPG91dGZpbGUubWFlPic=

> <r_lp_tautomer_probability>
0.785861

> <r_epik_Ionization_Penalty>
4.15957e-05

> <r_epik_Ionization_Penalty_Charging>
0

> <r_epik_Ionization_Penalty_Neutral>
4.15957e-05

> <r_epik_State_Penalty>
0.0240523

> <r_epik_Charging_Adjusted_Penalty>
0.0240523

> <i_epik_Tot_Q>
0

> <i_epik_Tot_abs_Q>
0

> <r_epik_Metal_State_Penalty>
0.057053

> <b_epik_Metal_Only>
0

> <s_lp_Force_Field>
OPLS_2005

> <r_lp_Energy>
8.47643

> <b_lp_Chiralities_Consistent>
1

> <s_lp_Variant>
AV-unprocessed.smi:910-3

> <Gold.Version>
5.8.1

> <Gold.Id.Protein>
6NUR|6NUR_protein|mol2

> <Gold.PLP.Fitness>
38.9707

> <Gold.PLP.PLP>
-35.1023

> <Gold.PLP.part.hbond>
-2.0000

> <Gold.PLP.part.metal>
0.0000

> <Gold.PLP.part.buried>
-2.6977

> <Gold.PLP.part.nonpolar>
-29.9557

> <Gold.PLP.part.repulsive>
0.3681

> <Gold.PLP.ligand.clash>
0.0000

> <Gold.PLP.ligand.torsion>
1.1062

> <Gold.PLP.Chemscore.Hbond>
1.9920

> <Gold.PLP.Chemscore.CHOScore>
0.0000

> <Gold.PLP.Chemscore.Metal>
0.0000

> <Gold.Chemscore.Hbonds>
donor molecule, donor type, donor heavy atom, donor atom, acceptor molecule, acceptor atom, score
      L1  H     5    25       P1  7948  1.00
      L1  H     8    26       P1  7948  0.90

> <Gold.PLP.Chemscore.Internal.Correction>
0.1048

> <Gold.Rescore>
     Score         DG    S(hbond)    S(metal)    S(lipo)     H(rot)  DE(clash)    DE(int)     intcor
     13.80     -16.26       1.51        0.00      85.33       1.66       0.02       2.45       ----

> <Gold.Chemscore.Fitness>
13.7960

> <Gold.Chemscore.DG>
-16.2622

> <Gold.Chemscore.ZeroCoef>
-5.4800

> <Gold.Chemscore.Hbond>
1.5098

> <Gold.Chemscore.Metal>
0.0000

> <Gold.Chemscore.Lipo>
85.3251

> <Gold.Chemscore.Internal_Hbond>
0.0000

> <Gold.Chemscore.DEClash>
0.0185

> <Gold.Chemscore.DEInternal>
2.4477

> <Gold.Chemscore.Rot>
1.6576

> <Gold.Chemscore.Internal.Correction>
   9.000000E+99

> <Gold.Chemscore.Hbonds>
donor molecule, donor type, donor heavy atom, donor atom, acceptor molecule, acceptor atom, score
      L1  H     5    25       P1  7948  0.57
      L1  H     8    26       P1  7948  0.18

> <Gold.Chemscore.Hbond.Weighted>
-5.0427

> <Gold.Chemscore.Metal.Weighted>
-0.0000

> <Gold.Chemscore.Lipo.Weighted>
-9.9830

> <Gold.Chemscore.Internal_Hbond.Weighted>
0.0000

> <Gold.Chemscore.DEClash.Weighted>
0.0185

> <Gold.Chemscore.DEInternal.Weighted>
2.4477

> <Gold.Chemscore.Rot.Weighted>
4.2436

> <Gold.Chemscore.Internal.Correction.Weighted>
   9.000000E+99

> <Gold.Protein.RotatedTorsions>
[ 6907 6896 6895 6894 ] final  100.32 input  -60.11 | X-H torsion
[ 7974 7965 7964 7962 ] final  -92.28 input  175.53 | X-H torsion
[ 8008 7997 7996 7995 ] final  -29.52 input   59.86 | X-H torsion
[ 10167 10162 10161 10158 ] final -133.48 input  -65.29 | X-H torsion
[ 10718 10713 10712 10709 ] final   57.55 input   66.30 | X-H torsion
[ 10763 10752 10751 10750 ] final -122.45 input  -60.55 | X-H torsion
[ 11005 11000 10999 10996 ] final  136.90 input  -57.11 | X-H torsion

> <Gold.Protein.ActiveResidues>
 VAL166  LYS551  ARG553  GLY616  TRP617  ASP618  TYR619  PRO620  LYS621  CYS622 
 ASP623  PHE694  ASN695  SER759  ASP760  ASP761  ALA762  ILE779  LEU786  VAL792 
 PHE793  MET794  SER795  GLU796  ALA797  LYS798  CYS799  TRP800  GLU811  SER814 

> <Gold.Protein.RotatedAtoms>
  152.5374  134.0294  159.8017 H   0  0  0  0  0  0  0  0  0  0  0  0  # atno 6907 bound_to 6896
  151.0467  133.5651  159.2653 H   0  0  0  0  0  0  0  0  0  0  0  0  # atno 6908 bound_to 6896
  151.2600  135.0658  159.9148 H   0  0  0  0  0  0  0  0  0  0  0  0  # atno 6909 bound_to 6896
  145.4019  140.9538  143.2282 H   0  0  0  0  0  0  0  0  0  0  0  0  # atno 7974 bound_to 7965
  154.4287  140.1816  156.1260 H   0  0  0  0  0  0  0  0  0  0  0  0  # atno 8008 bound_to 7997
  156.0105  140.3351  155.6911 H   0  0  0  0  0  0  0  0  0  0  0  0  # atno 8009 bound_to 7997
  155.6117  140.0650  157.2695 H   0  0  0  0  0  0  0  0  0  0  0  0  # atno 8010 bound_to 7997
  139.8979  143.6643  152.2600 H   0  0  0  0  0  0  0  0  0  0  0  0  # atno 10167 bound_to 10162
  157.5524  130.8775  149.8983 H   0  0  0  0  0  0  0  0  0  0  0  0  # atno 10718 bound_to 10713
  154.8689  135.4132  154.2784 H   0  0  0  0  0  0  0  0  0  0  0  0  # atno 10763 bound_to 10752
  153.3681  135.7006  153.6664 H   0  0  0  0  0  0  0  0  0  0  0  0  # atno 10764 bound_to 10752
  153.5537  135.3623  155.2742 H   0  0  0  0  0  0  0  0  0  0  0  0  # atno 10765 bound_to 10752
  140.0078  134.9452  157.0212 H   0  0  0  0  0  0  0  0  0  0  0  0  # atno 11005 bound_to 11000
  144.8368  139.5537  143.6918 LP  0  0  0  0  0  0  0  0  0  0  0  0  # atno 17320 bound_to 7965
  146.2747  139.6724  142.9271 LP  0  0  0  0  0  0  0  0  0  0  0  0  # atno 17321 bound_to 7965
  139.7051  144.7629  151.1206 LP  0  0  0  0  0  0  0  0  0  0  0  0  # atno 17342 bound_to 10162
  140.7713  143.5405  150.9318 LP  0  0  0  0  0  0  0  0  0  0  0  0  # atno 17343 bound_to 10162
  156.0588  130.3703  150.1029 LP  0  0  0  0  0  0  0  0  0  0  0  0  # atno 17370 bound_to 10713
  156.9201  130.9680  151.3550 LP  0  0  0  0  0  0  0  0  0  0  0  0  # atno 17371 bound_to 10713
  140.4610  134.1484  155.7191 LP  0  0  0  0  0  0  0  0  0  0  0  0  # atno 17394 bound_to 11000
  141.1689  133.8648  157.1631 LP  0  0  0  0  0  0  0  0  0  0  0  0  # atno 17395 bound_to 11000

$$$$
