AV-unprocessed.smi:3303|AV-procd|sdf|12670|dock6
  -GOLD-   2272019 03D 1   1.00000     0.00000
 Structure written by MMmdl.
 45 46  0  0  0  0  0  0  0  0  3 V2000
  147.2652  141.7020  154.3462 C   0  0  0  0  0  0  0  0  0  0  0  0
  148.1357  140.4871  154.7133 C   0  0  1  0  0  0  0  0  0  0  0  0
  148.0461  139.4197  153.5970 C   0  0  0  0  0  0  0  0  0  0  0  0
  148.8846  138.2259  153.8783 N   0  3  2  0  0  0  0  0  0  0  0  0
  148.2996  137.3397  154.9169 C   0  0  0  0  0  0  0  0  0  0  0  0
  150.3140  138.5987  154.0817 C   0  0  2  0  0  0  0  0  0  0  0  0
  151.2324  137.3782  154.2657 C   0  0  0  0  0  0  0  0  0  0  0  0
  150.4663  139.6278  155.2204 C   0  0  0  0  0  0  0  0  0  0  0  0
  149.6094  140.8828  154.9705 C   0  0  2  0  0  0  0  0  0  0  0  0
  149.7188  141.7950  156.1323 N   0  3  0  0  0  0  0  0  0  0  0  0
  151.0957  142.0213  156.6158 C   0  0  0  0  0  0  0  0  0  0  0  0
  151.2801  141.4612  158.0325 C   0  0  0  0  0  0  0  0  0  0  0  0
  151.6145  142.5452  159.0389 C   0  0  0  0  0  0  0  0  0  0  0  0
  151.7501  143.8898  158.6329 C   0  0  0  0  0  0  0  0  0  0  0  0
  152.0672  144.8556  159.6078 C   0  0  0  0  0  0  0  0  0  0  0  0
  152.2366  144.4409  160.9429 C   0  0  0  0  0  0  0  0  0  0  0  0
  152.0814  143.0734  161.2453 C   0  0  0  0  0  0  0  0  0  0  0  0
  151.7789  142.1389  160.3176 N   0  0  0  0  0  0  0  0  0  0  0  0
  147.6338  142.1976  153.4475 H   0  0  0  0  0  0  0  0  0  0  0  0
  147.2441  142.4400  155.1482 H   0  0  0  0  0  0  0  0  0  0  0  0
  146.2339  141.4017  154.1587 H   0  0  0  0  0  0  0  0  0  0  0  0
  147.7278  140.0591  155.6302 H   0  0  0  0  0  0  0  0  0  0  0  0
  147.0108  139.1117  153.4437 H   0  0  0  0  0  0  0  0  0  0  0  0
  148.3743  139.8510  152.6499 H   0  0  0  0  0  0  0  0  0  0  0  0
  148.3416  137.7864  155.9098 H   0  0  0  0  0  0  0  0  0  0  0  0
  148.8137  136.3797  154.9536 H   0  0  0  0  0  0  0  0  0  0  0  0
  147.2544  137.1264  154.6903 H   0  0  0  0  0  0  0  0  0  0  0  0
  150.6336  139.0841  153.1578 H   0  0  0  0  0  0  0  0  0  0  0  0
  152.2805  137.6787  154.2507 H   0  0  0  0  0  0  0  0  0  0  0  0
  151.0904  136.6524  153.4642 H   0  0  0  0  0  0  0  0  0  0  0  0
  151.0575  136.8728  155.2159 H   0  0  0  0  0  0  0  0  0  0  0  0
  150.1968  139.1732  156.1747 H   0  0  0  0  0  0  0  0  0  0  0  0
  151.5140  139.9179  155.3111 H   0  0  0  0  0  0  0  0  0  0  0  0
  149.9943  141.3803  154.0778 H   0  0  0  0  0  0  0  0  0  0  0  0
  149.3222  142.6876  155.8744 H   0  0  0  0  0  0  0  0  0  0  0  0
  151.7972  141.5470  155.9279 H   0  0  0  0  0  0  0  0  0  0  0  0
  151.3088  143.0911  156.6106 H   0  0  0  0  0  0  0  0  0  0  0  0
  150.3732  140.9453  158.3510 H   0  0  0  0  0  0  0  0  0  0  0  0
  152.0765  140.7153  158.0406 H   0  0  0  0  0  0  0  0  0  0  0  0
  151.6151  144.1783  157.6007 H   0  0  0  0  0  0  0  0  0  0  0  0
  152.1796  145.8949  159.3367 H   0  0  0  0  0  0  0  0  0  0  0  0
  152.4795  145.1538  161.7169 H   0  0  0  0  0  0  0  0  0  0  0  0
  152.2048  142.7206  162.2585 H   0  0  0  0  0  0  0  0  0  0  0  0
  149.1757  141.4129  156.8938 H   0  0  0  0  0  0  0  0  0  0  0  0
  148.8631  137.6763  153.0305 H   0  0  0  0  0  0  0  0  0  0  0  0
  1  2  1  0  0  0  0
  1 19  1  0  0  0  0
  1 20  1  0  0  0  0
  1 21  1  0  0  0  0
  2  9  1  0  0  0  0
  2  3  1  0  0  0  0
  2 22  1  0  0  0  0
  3  4  1  0  0  0  0
  3 23  1  0  0  0  0
  3 24  1  0  0  0  0
  4  5  1  0  0  0  0
  4  6  1  0  0  0  0
  4 45  1  0  0  0  0
  5 25  1  0  0  0  0
  5 26  1  0  0  0  0
  5 27  1  0  0  0  0
  6  7  1  0  0  0  0
  6  8  1  0  0  0  0
  6 28  1  0  0  0  0
  7 29  1  0  0  0  0
  7 30  1  0  0  0  0
  7 31  1  0  0  0  0
  8  9  1  0  0  0  0
  8 32  1  0  0  0  0
  8 33  1  0  0  0  0
  9 10  1  0  0  0  0
  9 34  1  0  0  0  0
 10 11  1  0  0  0  0
 10 35  1  0  0  0  0
 10 44  1  0  0  0  0
 11 12  1  0  0  0  0
 11 36  1  0  0  0  0
 11 37  1  0  0  0  0
 12 13  1  0  0  0  0
 12 38  1  0  0  0  0
 12 39  1  0  0  0  0
 13 18  1  0  0  0  0
 13 14  2  0  0  0  0
 14 15  1  0  0  0  0
 14 40  1  0  0  0  0
 15 16  2  0  0  0  0
 15 41  1  0  0  0  0
 16 17  1  0  0  0  0
 16 42  1  0  0  0  0
 17 18  2  0  0  0  0
 17 43  1  0  0  0  0
M  CHG  1   4   1
M  CHG  1  10   1
M  END
> <s_m_source_file>
AV-unprocessed.smi

> <i_m_source_file_index>
3303

> <i_lp_mmshare_version>
43012

> <i_f3d_flags>
0

> <s_epik_input>
W0NIM11bQ0BASF0xW0NIMl1OKFtDSDNdKVtDQEBIXShbQ0gzXSlbQ0gyXVtDQEhdMVtOSF1bQ0gyXVtDSDJdYzJbY0hdW2NIXVtjSF1bY0hdbjI=

> <s_epik_cmdline>
J2VwaWtfcHl0aG9uJywgJy1waCcsICc3LjAnLCAnLXRuJywgJzgnLCAnLW1hJywgJzIwMCcsICctbWV0YWxfYmluZGluZycsICctaW1hZScsICc8aW5maWxlLm1hZT4nLCAnLW9tYWUnLCAnPG91dGZpbGUubWFlPic=

> <r_epik_Ionization_Penalty>
0.0769462

> <r_epik_Ionization_Penalty_Charging>
0.0759813

> <r_epik_Ionization_Penalty_Neutral>
0.000964829

> <r_epik_State_Penalty>
0.0654373

> <r_epik_Charging_Adjusted_Penalty>
0.141419

> <i_epik_Tot_Q>
2

> <i_epik_Tot_abs_Q>
2

> <r_epik_Metal_State_Penalty>
0.0656439

> <b_epik_Metal_Only>
0

> <s_lp_Force_Field>
OPLS_2005

> <r_lp_Energy>
31.8581

> <b_lp_Chiralities_Consistent>
1

> <s_lp_Variant>
AV-unprocessed.smi:3303-14

> <Gold.Version>
5.8.1

> <Gold.Id.Protein>
6NUR|6NUR_protein|mol2

> <Gold.PLP.Fitness>
54.1619

> <Gold.PLP.PLP>
-43.7977

> <Gold.PLP.part.hbond>
-2.4710

> <Gold.PLP.part.metal>
0.0000

> <Gold.PLP.part.buried>
-5.0760

> <Gold.PLP.part.nonpolar>
-37.4498

> <Gold.PLP.part.repulsive>
0.1429

> <Gold.PLP.ligand.clash>
0.0000

> <Gold.PLP.ligand.torsion>
0.8194

> <Gold.PLP.Chemscore.Hbond>
4.0000

> <Gold.PLP.Chemscore.CHOScore>
0.0000

> <Gold.PLP.Chemscore.Metal>
0.0000

> <Gold.Chemscore.Hbonds>
donor molecule, donor type, donor heavy atom, donor atom, acceptor molecule, acceptor atom, score
      L1  H     4    45       P1  7948  2.00
      L1  H    10    35       P1  8028  1.72

> <Gold.PLP.Chemscore.Internal.Correction>
0.0029

> <Gold.Rescore>
     Score         DG    S(hbond)    S(metal)    S(lipo)     H(rot)  DE(clash)    DE(int)     intcor
     22.26     -23.03       1.97        0.00     123.78       1.37       0.05       0.73       ----

> <Gold.Chemscore.Fitness>
22.2562

> <Gold.Chemscore.DG>
-23.0330

> <Gold.Chemscore.ZeroCoef>
-5.4800

> <Gold.Chemscore.Hbond>
1.9727

> <Gold.Chemscore.Metal>
0.0000

> <Gold.Chemscore.Lipo>
123.7834

> <Gold.Chemscore.Internal_Hbond>
0.0000

> <Gold.Chemscore.DEClash>
0.0481

> <Gold.Chemscore.DEInternal>
0.7287

> <Gold.Chemscore.Rot>
1.3744

> <Gold.Chemscore.Internal.Correction>
   9.000000E+99

> <Gold.Chemscore.Hbonds>
donor molecule, donor type, donor heavy atom, donor atom, acceptor molecule, acceptor atom, score
      L1  H     4    45       P1  7948  1.00
      L1  H    10    35       P1  8028  0.84

> <Gold.Chemscore.Hbond.Weighted>
-6.5888

> <Gold.Chemscore.Metal.Weighted>
-0.0000

> <Gold.Chemscore.Lipo.Weighted>
-14.4827

> <Gold.Chemscore.Internal_Hbond.Weighted>
0.0000

> <Gold.Chemscore.DEClash.Weighted>
0.0481

> <Gold.Chemscore.DEInternal.Weighted>
0.7287

> <Gold.Chemscore.Rot.Weighted>
3.5185

> <Gold.Chemscore.Internal.Correction.Weighted>
   9.000000E+99

> <Gold.Protein.RotatedTorsions>
[ 6907 6896 6895 6894 ] final -139.08 input  -60.11 | X-H torsion
[ 7974 7965 7964 7962 ] final  -78.86 input  175.53 | X-H torsion
[ 8008 7997 7996 7995 ] final -135.31 input   59.86 | X-H torsion
[ 10167 10162 10161 10158 ] final  -43.79 input  -65.29 | X-H torsion
[ 10718 10713 10712 10709 ] final  -81.64 input   66.30 | X-H torsion
[ 10763 10752 10751 10750 ] final -179.07 input  -60.55 | X-H torsion
[ 11005 11000 10999 10996 ] final   48.07 input  -57.11 | X-H torsion

> <Gold.Protein.ActiveResidues>
 VAL166  LYS551  ARG553  GLY616  TRP617  ASP618  TYR619  PRO620  LYS621  CYS622 
 ASP623  PHE694  ASN695  SER759  ASP760  ASP761  ALA762  ILE779  LEU786  VAL792 
 PHE793  MET794  SER795  GLU796  ALA797  LYS798  CYS799  TRP800  GLU811  SER814 

> <Gold.Protein.RotatedAtoms>
  151.0432  133.5688  159.2648 H   0  0  0  0  0  0  0  0  0  0  0  0  # atno 6907 bound_to 6896
  151.2726  135.0688  159.9149 H   0  0  0  0  0  0  0  0  0  0  0  0  # atno 6908 bound_to 6896
  152.5368  134.0160  159.8014 H   0  0  0  0  0  0  0  0  0  0  0  0  # atno 6909 bound_to 6896
  145.5809  140.9448  143.1344 H   0  0  0  0  0  0  0  0  0  0  0  0  # atno 7974 bound_to 7965
  155.3765  140.0491  157.3044 H   0  0  0  0  0  0  0  0  0  0  0  0  # atno 8008 bound_to 7997
  154.5104  140.2189  155.9130 H   0  0  0  0  0  0  0  0  0  0  0  0  # atno 8009 bound_to 7997
  156.1576  140.3123  155.8757 H   0  0  0  0  0  0  0  0  0  0  0  0  # atno 8010 bound_to 7997
  140.6921  143.2964  151.3402 H   0  0  0  0  0  0  0  0  0  0  0  0  # atno 10167 bound_to 10162
  156.0047  130.4610  150.3983 H   0  0  0  0  0  0  0  0  0  0  0  0  # atno 10718 bound_to 10713
  154.5397  135.2805  155.1106 H   0  0  0  0  0  0  0  0  0  0  0  0  # atno 10763 bound_to 10752
  154.2594  135.6324  153.5272 H   0  0  0  0  0  0  0  0  0  0  0  0  # atno 10764 bound_to 10752
  152.9976  135.5602  154.5933 H   0  0  0  0  0  0  0  0  0  0  0  0  # atno 10765 bound_to 10752
  140.1223  134.4813  155.8587 H   0  0  0  0  0  0  0  0  0  0  0  0  # atno 11005 bound_to 11000
  144.7394  139.7491  143.7316 LP  0  0  0  0  0  0  0  0  0  0  0  0  # atno 17320 bound_to 7965
  146.1717  139.4870  142.9923 LP  0  0  0  0  0  0  0  0  0  0  0  0  # atno 17321 bound_to 7965
  139.6335  144.0675  152.2496 LP  0  0  0  0  0  0  0  0  0  0  0  0  # atno 17342 bound_to 10162
  140.0158  144.6190  150.7609 LP  0  0  0  0  0  0  0  0  0  0  0  0  # atno 17343 bound_to 10162
  157.2054  131.0448  151.2628 LP  0  0  0  0  0  0  0  0  0  0  0  0  # atno 17370 bound_to 10713
  157.3938  130.7296  149.6716 LP  0  0  0  0  0  0  0  0  0  0  0  0  # atno 17371 bound_to 10713
  141.2154  133.6765  156.6912 LP  0  0  0  0  0  0  0  0  0  0  0  0  # atno 17394 bound_to 11000
  140.2949  134.8211  157.4048 LP  0  0  0  0  0  0  0  0  0  0  0  0  # atno 17395 bound_to 11000

$$$$
