AV-unprocessed.smi:3021|AV-procd|sdf|11499|dock5
  -GOLD-   2272016433D 1   1.00000     0.00000
 Structure written by MMmdl.
 35 37  0  0  0  0  0  0  0  0  1 V2000
  149.9162  141.9199  158.2825 O   0  0  0  0  0  0  0  0  0  0  0  0
  151.0929  141.8331  157.5028 C   0  0  1  0  0  0  0  0  0  0  0  0
  150.6889  141.5725  156.0438 C   0  0  0  0  0  0  0  0  0  0  0  0
  150.3026  140.2151  155.9099 O   0  0  0  0  0  0  0  0  0  0  0  0
  150.2962  139.7757  154.5606 C   0  0  0  0  0  0  0  0  0  0  0  0
  149.0001  140.1967  153.9427 C   0  0  0  0  0  0  0  0  0  0  0  0
  147.8612  139.5122  153.6183 C   0  0  0  0  0  0  0  0  0  0  0  0
  146.9623  140.4633  153.0610 C   0  0  0  0  0  0  0  0  0  0  0  0
  147.6185  141.6607  153.0860 C   0  0  0  0  0  0  0  0  0  0  0  0
  148.8608  141.5166  153.6220 O   0  0  0  0  0  0  0  0  0  0  0  0
  151.8955  143.1401  157.6536 C   0  0  0  0  0  0  0  0  0  0  0  0
  151.9309  143.6156  159.0259 N   0  0  0  0  0  0  0  0  0  0  0  0
  151.3134  144.7868  159.3505 N   0  0  0  0  0  0  0  0  0  0  0  0
  151.4769  145.0052  160.6212 N   0  0  0  0  0  0  0  0  0  0  0  0
  152.2165  143.9577  161.1443 C   0  0  0  0  0  0  0  0  0  0  0  0
  152.6753  143.6890  162.4532 C   0  0  0  0  0  0  0  0  0  0  0  0
  153.4260  142.5232  162.7215 C   0  0  0  0  0  0  0  0  0  0  0  0
  153.9691  142.2290  164.3353 Cl  0  0  0  0  0  0  0  0  0  0  0  0
  153.7267  141.6116  161.6806 C   0  0  0  0  0  0  0  0  0  0  0  0
  154.6433  140.1805  161.9913 Cl  0  0  0  0  0  0  0  0  0  0  0  0
  153.2760  141.8673  160.3702 C   0  0  0  0  0  0  0  0  0  0  0  0
  152.5303  143.0328  160.1252 C   0  0  0  0  0  0  0  0  0  0  0  0
  149.1751  141.7384  157.7245 H   0  0  0  0  0  0  0  0  0  0  0  0
  151.6979  141.0016  157.8670 H   0  0  0  0  0  0  0  0  0  0  0  0
  149.8926  142.2487  155.7270 H   0  0  0  0  0  0  0  0  0  0  0  0
  151.5433  141.7497  155.3884 H   0  0  0  0  0  0  0  0  0  0  0  0
  151.1313  140.2153  154.0135 H   0  0  0  0  0  0  0  0  0  0  0  0
  150.3969  138.6906  154.5117 H   0  0  0  0  0  0  0  0  0  0  0  0
  147.6952  138.4551  153.7647 H   0  0  0  0  0  0  0  0  0  0  0  0
  145.9628  140.2931  152.6892 H   0  0  0  0  0  0  0  0  0  0  0  0
  147.3621  142.6638  152.7789 H   0  0  0  0  0  0  0  0  0  0  0  0
  152.9251  142.9868  157.3280 H   0  0  0  0  0  0  0  0  0  0  0  0
  151.4805  143.9204  157.0131 H   0  0  0  0  0  0  0  0  0  0  0  0
  152.4490  144.3802  163.2518 H   0  0  0  0  0  0  0  0  0  0  0  0
  153.4974  141.1800  159.5671 H   0  0  0  0  0  0  0  0  0  0  0  0
  1  2  1  0  0  0  0
  1 23  1  0  0  0  0
  2  3  1  0  0  0  0
  2 11  1  0  0  0  0
  2 24  1  0  0  0  0
  3  4  1  0  0  0  0
  3 25  1  0  0  0  0
  3 26  1  0  0  0  0
  4  5  1  0  0  0  0
  5  6  1  0  0  0  0
  5 27  1  0  0  0  0
  5 28  1  0  0  0  0
  6 10  1  0  0  0  0
  6  7  2  0  0  0  0
  7  8  1  0  0  0  0
  7 29  1  0  0  0  0
  8  9  2  0  0  0  0
  8 30  1  0  0  0  0
  9 10  1  0  0  0  0
  9 31  1  0  0  0  0
 11 12  1  0  0  0  0
 11 32  1  0  0  0  0
 11 33  1  0  0  0  0
 12 22  1  0  0  0  0
 12 13  1  0  0  0  0
 13 14  2  0  0  0  0
 14 15  1  0  0  0  0
 15 22  2  0  0  0  0
 15 16  1  0  0  0  0
 16 17  2  0  0  0  0
 16 34  1  0  0  0  0
 17 18  1  0  0  0  0
 17 19  1  0  0  0  0
 19 20  1  0  0  0  0
 19 21  2  0  0  0  0
 21 22  1  0  0  0  0
 21 35  1  0  0  0  0
M  END
> <s_m_source_file>
AV-unprocessed.smi

> <i_m_source_file_index>
3021

> <i_lp_mmshare_version>
43012

> <i_f3d_flags>
0

> <s_epik_input>
W2NIXTFjKENsKWMoQ2wpW2NIXWMoYzEyKW4obm4yKVtDSDJdW0NASF0oW09IXSlbQ0gyXU9bQ0gyXWMzW2NIXVtjSF1bY0hdbzM=

> <s_epik_cmdline>
J2VwaWtfcHl0aG9uJywgJy1waCcsICc3LjAnLCAnLXRuJywgJzgnLCAnLW1hJywgJzIwMCcsICctbWV0YWxfYmluZGluZycsICctaW1hZScsICc8aW5maWxlLm1hZT4nLCAnLW9tYWUnLCAnPG91dGZpbGUubWFlPic=

> <r_lp_tautomer_probability>
1

> <r_epik_Ionization_Penalty>
6.1367e-06

> <r_epik_Ionization_Penalty_Charging>
0

> <r_epik_Ionization_Penalty_Neutral>
6.1367e-06

> <r_epik_State_Penalty>
-0

> <r_epik_Charging_Adjusted_Penalty>
0

> <i_epik_Tot_Q>
0

> <i_epik_Tot_abs_Q>
0

> <r_epik_Metal_State_Penalty>
-0

> <b_epik_Metal_Only>
0

> <s_lp_Force_Field>
OPLS_2005

> <r_lp_Energy>
8.01921

> <b_lp_Chiralities_Consistent>
1

> <s_lp_Variant>
AV-unprocessed.smi:3021-2

> <Gold.Version>
5.8.1

> <Gold.Id.Protein>
6NUR|6NUR_protein|mol2

> <Gold.PLP.Fitness>
49.5737

> <Gold.PLP.PLP>
-48.7645

> <Gold.PLP.part.hbond>
-1.0000

> <Gold.PLP.part.metal>
0.0000

> <Gold.PLP.part.buried>
-3.1179

> <Gold.PLP.part.nonpolar>
-43.5885

> <Gold.PLP.part.repulsive>
0.8127

> <Gold.PLP.ligand.clash>
0.0000

> <Gold.PLP.ligand.torsion>
0.6960

> <Gold.PLP.Chemscore.Hbond>
0.6739

> <Gold.PLP.Chemscore.CHOScore>
0.0000

> <Gold.PLP.Chemscore.Metal>
0.0000

> <Gold.Chemscore.Hbonds>
donor molecule, donor type, donor heavy atom, donor atom, acceptor molecule, acceptor atom, score
      P1  H  8011  8017       L1    10  0.65

> <Gold.PLP.Chemscore.Internal.Correction>
0.1794

> <Gold.Rescore>
     Score         DG    S(hbond)    S(metal)    S(lipo)     H(rot)  DE(clash)    DE(int)     intcor
     13.71     -16.62       0.05        0.00     147.71       2.46       2.18       0.73       ----

> <Gold.Chemscore.Fitness>
13.7121

> <Gold.Chemscore.DG>
-16.6199

> <Gold.Chemscore.ZeroCoef>
-5.4800

> <Gold.Chemscore.Hbond>
0.0502

> <Gold.Chemscore.Metal>
0.0000

> <Gold.Chemscore.Lipo>
147.7096

> <Gold.Chemscore.Internal_Hbond>
0.0000

> <Gold.Chemscore.DEClash>
2.1818

> <Gold.Chemscore.DEInternal>
0.7260

> <Gold.Chemscore.Rot>
2.4647

> <Gold.Chemscore.Internal.Correction>
   9.000000E+99

> <Gold.Chemscore.Hbonds>
donor molecule, donor type, donor heavy atom, donor atom, acceptor molecule, acceptor atom, score
      P1  H  8011  8017       L1    10  0.11

> <Gold.Chemscore.Hbond.Weighted>
-0.1676

> <Gold.Chemscore.Metal.Weighted>
-0.0000

> <Gold.Chemscore.Lipo.Weighted>
-17.2820

> <Gold.Chemscore.Internal_Hbond.Weighted>
0.0000

> <Gold.Chemscore.DEClash.Weighted>
2.1818

> <Gold.Chemscore.DEInternal.Weighted>
0.7260

> <Gold.Chemscore.Rot.Weighted>
6.3097

> <Gold.Chemscore.Internal.Correction.Weighted>
   9.000000E+99

> <Gold.Protein.RotatedTorsions>
[ 6907 6896 6895 6894 ] final -100.30 input  -60.11 | X-H torsion
[ 7974 7965 7964 7962 ] final -126.28 input  175.53 | X-H torsion
[ 8008 7997 7996 7995 ] final -137.96 input   59.86 | X-H torsion
[ 10167 10162 10161 10158 ] final   75.59 input  -65.29 | X-H torsion
[ 10718 10713 10712 10709 ] final   11.41 input   66.30 | X-H torsion
[ 10763 10752 10751 10750 ] final  120.34 input  -60.55 | X-H torsion
[ 11005 11000 10999 10996 ] final   -3.96 input  -57.11 | X-H torsion

> <Gold.Protein.ActiveResidues>
 VAL166  LYS551  ARG553  GLY616  TRP617  ASP618  TYR619  PRO620  LYS621  CYS622 
 ASP623  PHE694  ASN695  SER759  ASP760  ASP761  ALA762  ILE779  LEU786  VAL792 
 PHE793  MET794  SER795  GLU796  ALA797  LYS798  CYS799  TRP800  GLU811  SER814 

> <Gold.Protein.RotatedAtoms>
  150.7111  134.0909  159.3931 H   0  0  0  0  0  0  0  0  0  0  0  0  # atno 6907 bound_to 6896
  151.8894  135.0420  160.0505 H   0  0  0  0  0  0  0  0  0  0  0  0  # atno 6908 bound_to 6896
  152.2504  133.5174  159.5358 H   0  0  0  0  0  0  0  0  0  0  0  0  # atno 6909 bound_to 6896
  144.9889  140.7713  143.4566 H   0  0  0  0  0  0  0  0  0  0  0  0  # atno 7974 bound_to 7965
  155.4205  140.0518  157.3026 H   0  0  0  0  0  0  0  0  0  0  0  0  # atno 8008 bound_to 7997
  154.4905  140.2118  155.9518 H   0  0  0  0  0  0  0  0  0  0  0  0  # atno 8009 bound_to 7997
  156.1335  140.3167  155.8390 H   0  0  0  0  0  0  0  0  0  0  0  0  # atno 8010 bound_to 7997
  140.0013  144.5684  150.7735 H   0  0  0  0  0  0  0  0  0  0  0  0  # atno 10167 bound_to 10162
  156.9952  130.6058  149.5690 H   0  0  0  0  0  0  0  0  0  0  0  0  # atno 10718 bound_to 10713
  153.5970  135.3455  155.2931 H   0  0  0  0  0  0  0  0  0  0  0  0  # atno 10763 bound_to 10752
  154.8643  135.4218  154.2454 H   0  0  0  0  0  0  0  0  0  0  0  0  # atno 10764 bound_to 10752
  153.3274  135.7042  153.7049 H   0  0  0  0  0  0  0  0  0  0  0  0  # atno 10765 bound_to 10752
  140.6750  133.9203  155.8519 H   0  0  0  0  0  0  0  0  0  0  0  0  # atno 11005 bound_to 11000
  145.2314  139.2113  143.5041 LP  0  0  0  0  0  0  0  0  0  0  0  0  # atno 17320 bound_to 7965
  146.3426  140.2192  142.8591 LP  0  0  0  0  0  0  0  0  0  0  0  0  # atno 17321 bound_to 7965
  140.7417  143.2822  151.3565 LP  0  0  0  0  0  0  0  0  0  0  0  0  # atno 17342 bound_to 10162
  139.6270  144.0795  152.2442 LP  0  0  0  0  0  0  0  0  0  0  0  0  # atno 17343 bound_to 10162
  156.0192  130.5286  150.8225 LP  0  0  0  0  0  0  0  0  0  0  0  0  # atno 17370 bound_to 10713
  157.5430  131.0941  150.9801 LP  0  0  0  0  0  0  0  0  0  0  0  0  # atno 17371 bound_to 10713
  141.0362  134.0686  157.3956 LP  0  0  0  0  0  0  0  0  0  0  0  0  # atno 17394 bound_to 11000
  139.8969  135.0148  156.7076 LP  0  0  0  0  0  0  0  0  0  0  0  0  # atno 17395 bound_to 11000

$$$$
