AV-unprocessed.smi:2063|AV-procd|sdf|8413|dock6
  -GOLD-   2272011103D 1   1.00000     0.00000
 Structure written by MMmdl.
 38 39  0  0  0  0  0  0  0  0  2 V2000
  147.4532  139.4245  153.4606 C   0  0  0  0  0  0  0  0  0  0  0  0
  148.1748  138.4369  154.3889 C   0  0  0  0  0  0  0  0  0  0  0  0
  147.2875  137.9268  155.5336 C   0  0  0  0  0  0  0  0  0  0  0  0
  149.4791  138.9799  154.8832 C   0  0  0  0  0  0  0  0  0  0  0  0
  150.4890  139.3082  154.0715 N   0  0  0  0  0  0  0  0  0  0  0  0
  151.5912  139.7795  154.7695 N   0  0  0  0  0  0  0  0  0  0  0  0
  151.4068  139.7920  156.0972 C   0  0  0  0  0  0  0  0  0  0  0  0
  152.3546  140.2084  156.9533 N   0  5  0  0  0  0  0  0  0  0  0  0
  152.0028  140.8739  158.0775 C   0  0  0  0  0  0  0  0  0  0  0  0
  150.8857  141.3271  158.3375 O   0  0  0  0  0  0  0  0  0  0  0  0
  153.0066  141.0234  158.9541 N   0  0  0  0  0  0  0  0  0  0  0  0
  152.9316  141.7051  160.2449 C   0  0  1  0  0  0  0  0  0  0  0  0
  154.1259  141.2862  161.1210 C   0  0  0  0  0  0  0  0  0  0  0  0
  152.8848  143.2280  160.0120 C   0  0  2  0  0  0  0  0  0  0  0  0
  152.1909  144.0221  161.1193 C   0  0  0  0  0  0  0  0  0  0  0  0
  151.8071  145.2902  160.3921 C   0  0  0  0  0  0  0  0  0  0  0  0
  151.4239  144.7640  159.0116 C   0  0  0  0  0  0  0  0  0  0  0  0
  152.1256  143.5342  158.8444 O   0  0  0  0  0  0  0  0  0  0  0  0
  149.8086  139.2338  156.5898 S   0  0  0  0  0  0  0  0  0  0  0  0
  148.0848  139.7004  152.6156 H   0  0  0  0  0  0  0  0  0  0  0  0
  147.1839  140.3402  153.9880 H   0  0  0  0  0  0  0  0  0  0  0  0
  146.5370  138.9899  153.0604 H   0  0  0  0  0  0  0  0  0  0  0  0
  148.4172  137.5658  153.7790 H   0  0  0  0  0  0  0  0  0  0  0  0
  147.8040  137.1669  156.1207 H   0  0  0  0  0  0  0  0  0  0  0  0
  146.3695  137.4806  155.1500 H   0  0  0  0  0  0  0  0  0  0  0  0
  147.0067  138.7361  156.2084 H   0  0  0  0  0  0  0  0  0  0  0  0
  153.9045  140.6413  158.6951 H   0  0  0  0  0  0  0  0  0  0  0  0
  152.0087  141.4119  160.7485 H   0  0  0  0  0  0  0  0  0  0  0  0
  154.0792  141.7483  162.1068 H   0  0  0  0  0  0  0  0  0  0  0  0
  155.0727  141.5727  160.6623 H   0  0  0  0  0  0  0  0  0  0  0  0
  154.1446  140.2066  161.2730 H   0  0  0  0  0  0  0  0  0  0  0  0
  153.8931  143.6206  159.8680 H   0  0  0  0  0  0  0  0  0  0  0  0
  151.2952  143.5023  161.4621 H   0  0  0  0  0  0  0  0  0  0  0  0
  152.8332  144.2054  161.9810 H   0  0  0  0  0  0  0  0  0  0  0  0
  151.0002  145.8384  160.8790 H   0  0  0  0  0  0  0  0  0  0  0  0
  152.6716  145.9508  160.3152 H   0  0  0  0  0  0  0  0  0  0  0  0
  150.3538  144.5611  158.9598 H   0  0  0  0  0  0  0  0  0  0  0  0
  151.6725  145.4716  158.2204 H   0  0  0  0  0  0  0  0  0  0  0  0
  1  2  1  0  0  0  0
  1 20  1  0  0  0  0
  1 21  1  0  0  0  0
  1 22  1  0  0  0  0
  2  3  1  0  0  0  0
  2  4  1  0  0  0  0
  2 23  1  0  0  0  0
  3 24  1  0  0  0  0
  3 25  1  0  0  0  0
  3 26  1  0  0  0  0
  4 19  1  0  0  0  0
  4  5  2  0  0  0  0
  5  6  1  0  0  0  0
  6  7  2  0  0  0  0
  7  8  1  0  0  0  0
  7 19  1  0  0  0  0
  8  9  1  0  0  0  0
  9 10  2  0  0  0  0
  9 11  1  0  0  0  0
 11 12  1  0  0  0  0
 11 27  1  0  0  0  0
 12 13  1  0  0  0  0
 12 14  1  0  0  0  0
 12 28  1  0  0  0  0
 13 29  1  0  0  0  0
 13 30  1  0  0  0  0
 13 31  1  0  0  0  0
 14 18  1  0  0  0  0
 14 15  1  0  0  0  0
 14 32  1  0  0  0  0
 15 16  1  0  0  0  0
 15 33  1  0  0  0  0
 15 34  1  0  0  0  0
 16 17  1  0  0  0  0
 16 35  1  0  0  0  0
 16 36  1  0  0  0  0
 17 18  1  0  0  0  0
 17 37  1  0  0  0  0
 17 38  1  0  0  0  0
M  CHG  1   8  -1
M  END
> <s_m_source_file>
AV-unprocessed.smi

> <i_m_source_file_index>
2063

> <i_lp_mmshare_version>
43012

> <i_f3d_flags>
0

> <s_epik_input>
W0NIM11bQ0hdKFtDSDNdKWMxbm5jKHMxKVtOSF1DKD1PKVtOSF1bQ0BIXShbQ0gzXSlbQ0BASF0yW0NIMl1bQ0gyXVtDSDJdTzI=

> <s_epik_cmdline>
J2VwaWtfcHl0aG9uJywgJy1waCcsICc3LjAnLCAnLXRuJywgJzgnLCAnLW1hJywgJzIwMCcsICctbWV0YWxfYmluZGluZycsICctaW1hZScsICc8aW5maWxlLm1hZT4nLCAnLW9tYWUnLCAnPG91dGZpbGUubWFlPic=

> <r_lp_tautomer_probability>
1

> <r_epik_Ionization_Penalty>
4.37022

> <r_epik_Ionization_Penalty_Charging>
4.21437

> <r_epik_Ionization_Penalty_Neutral>
0.15585

> <r_epik_State_Penalty>
4.21389

> <r_epik_Charging_Adjusted_Penalty>
8.42826

> <i_epik_Tot_Q>
-1

> <i_epik_Tot_abs_Q>
1

> <r_epik_Metal_State_Penalty>
0.693772

> <b_epik_Metal_Only>
1

> <s_lp_Force_Field>
OPLS_2005

> <r_lp_Energy>
10.2416

> <b_lp_Chiralities_Consistent>
1

> <s_lp_Variant>
AV-unprocessed.smi:2063-6

> <Gold.Version>
5.8.1

> <Gold.Id.Protein>
6NUR|6NUR_protein|mol2

> <Gold.PLP.Fitness>
41.1285

> <Gold.PLP.PLP>
-36.7609

> <Gold.PLP.part.hbond>
-3.0000

> <Gold.PLP.part.metal>
0.0000

> <Gold.PLP.part.buried>
-5.3398

> <Gold.PLP.part.nonpolar>
-28.8476

> <Gold.PLP.part.repulsive>
0.3652

> <Gold.PLP.ligand.clash>
0.0000

> <Gold.PLP.ligand.torsion>
1.0941

> <Gold.PLP.Chemscore.Hbond>
2.1500

> <Gold.PLP.Chemscore.CHOScore>
0.0000

> <Gold.PLP.Chemscore.Metal>
0.0000

> <Gold.Chemscore.Hbonds>
donor molecule, donor type, donor heavy atom, donor atom, acceptor molecule, acceptor atom, score
      P1  H  7989  7998       L1     6  0.15
      P1  H  7997  8010       L1     8  1.92

> <Gold.PLP.Chemscore.Internal.Correction>
0.1058

> <Gold.Rescore>
     Score         DG    S(hbond)    S(metal)    S(lipo)     H(rot)  DE(clash)    DE(int)     intcor
     10.23     -15.19       0.92        0.00      87.26       1.39       0.15       4.82       ----

> <Gold.Chemscore.Fitness>
10.2310

> <Gold.Chemscore.DG>
-15.1920

> <Gold.Chemscore.ZeroCoef>
-5.4800

> <Gold.Chemscore.Hbond>
0.9159

> <Gold.Chemscore.Metal>
0.0000

> <Gold.Chemscore.Lipo>
87.2607

> <Gold.Chemscore.Internal_Hbond>
0.0000

> <Gold.Chemscore.DEClash>
0.1456

> <Gold.Chemscore.DEInternal>
4.8154

> <Gold.Chemscore.Rot>
1.3893

> <Gold.Chemscore.Internal.Correction>
   9.000000E+99

> <Gold.Chemscore.Hbonds>
donor molecule, donor type, donor heavy atom, donor atom, acceptor molecule, acceptor atom, score
      P1  H  7997  8010       L1     8  0.77

> <Gold.Chemscore.Hbond.Weighted>
-3.0592

> <Gold.Chemscore.Metal.Weighted>
-0.0000

> <Gold.Chemscore.Lipo.Weighted>
-10.2095

> <Gold.Chemscore.Internal_Hbond.Weighted>
0.0000

> <Gold.Chemscore.DEClash.Weighted>
0.1456

> <Gold.Chemscore.DEInternal.Weighted>
4.8154

> <Gold.Chemscore.Rot.Weighted>
3.5567

> <Gold.Chemscore.Internal.Correction.Weighted>
   9.000000E+99

> <Gold.Protein.RotatedTorsions>
[ 6907 6896 6895 6894 ] final -136.86 input  -60.11 | X-H torsion
[ 7974 7965 7964 7962 ] final  101.56 input  175.53 | X-H torsion
[ 8008 7997 7996 7995 ] final   58.97 input   59.86 | X-H torsion
[ 10167 10162 10161 10158 ] final   53.71 input  -65.29 | X-H torsion
[ 10718 10713 10712 10709 ] final -108.91 input   66.30 | X-H torsion
[ 10763 10752 10751 10750 ] final -148.50 input  -60.55 | X-H torsion
[ 11005 11000 10999 10996 ] final   63.12 input  -57.11 | X-H torsion

> <Gold.Protein.ActiveResidues>
 VAL166  LYS551  ARG553  GLY616  TRP617  ASP618  TYR619  PRO620  LYS621  CYS622 
 ASP623  PHE694  ASN695  SER759  ASP760  ASP761  ALA762  ILE779  LEU786  VAL792 
 PHE793  MET794  SER795  GLU796  ALA797  LYS798  CYS799  TRP800  GLU811  SER814 

> <Gold.Protein.RotatedAtoms>
  151.0153  133.5926  159.2677 H   0  0  0  0  0  0  0  0  0  0  0  0  # atno 6907 bound_to 6896
  151.3063  135.0781  159.9266 H   0  0  0  0  0  0  0  0  0  0  0  0  # atno 6908 bound_to 6896
  152.5310  133.9826  159.7868 H   0  0  0  0  0  0  0  0  0  0  0  0  # atno 6909 bound_to 6896
  145.3707  139.2399  143.3457 H   0  0  0  0  0  0  0  0  0  0  0  0  # atno 7974 bound_to 7965
  155.5586  140.3488  155.4486 H   0  0  0  0  0  0  0  0  0  0  0  0  # atno 8008 bound_to 7997
  156.0531  140.1322  157.0053 H   0  0  0  0  0  0  0  0  0  0  0  0  # atno 8009 bound_to 7997
  154.4443  140.1000  156.6390 H   0  0  0  0  0  0  0  0  0  0  0  0  # atno 8010 bound_to 7997
  140.2379  144.3616  150.6391 H   0  0  0  0  0  0  0  0  0  0  0  0  # atno 10167 bound_to 10162
  156.0509  130.5737  150.8026 H   0  0  0  0  0  0  0  0  0  0  0  0  # atno 10718 bound_to 10713
  154.8229  135.3333  154.6983 H   0  0  0  0  0  0  0  0  0  0  0  0  # atno 10763 bound_to 10752
  153.7613  135.6932  153.4929 H   0  0  0  0  0  0  0  0  0  0  0  0  # atno 10764 bound_to 10752
  153.2108  135.4483  155.0327 H   0  0  0  0  0  0  0  0  0  0  0  0  # atno 10765 bound_to 10752
  140.0046  134.6390  155.9876 H   0  0  0  0  0  0  0  0  0  0  0  0  # atno 11005 bound_to 11000
  146.2886  140.4357  142.8748 LP  0  0  0  0  0  0  0  0  0  0  0  0  # atno 17320 bound_to 7965
  144.8578  140.7096  143.6126 LP  0  0  0  0  0  0  0  0  0  0  0  0  # atno 17321 bound_to 7965
  140.6136  143.2171  151.6837 LP  0  0  0  0  0  0  0  0  0  0  0  0  # atno 17342 bound_to 10162
  139.5087  144.3601  152.0570 LP  0  0  0  0  0  0  0  0  0  0  0  0  # atno 17343 bound_to 10162
  157.5435  131.0941  150.9795 LP  0  0  0  0  0  0  0  0  0  0  0  0  # atno 17370 bound_to 10713
  157.0072  130.5623  149.5317 LP  0  0  0  0  0  0  0  0  0  0  0  0  # atno 17371 bound_to 10713
  141.1667  133.6537  156.4505 LP  0  0  0  0  0  0  0  0  0  0  0  0  # atno 17394 bound_to 11000
  140.4665  134.6793  157.5110 LP  0  0  0  0  0  0  0  0  0  0  0  0  # atno 17395 bound_to 11000

$$$$
