AV-unprocessed.smi:252|AV-procd|sdf|1938|dock2
  -GOLD-   2262021 63D 1   1.00000     0.00000
 Structure written by MMmdl.
 56 59  0  0  0  0  0  0  0  0  1 V2000
  147.7516  126.9566  151.1679 C   0  0  0  0  0  0  0  0  0  0  0  0
  147.9873  128.1481  152.1099 C   0  0  0  0  0  0  0  0  0  0  0  0
  146.7876  129.0946  152.2221 C   0  0  0  0  0  0  0  0  0  0  0  0
  145.6981  128.6939  152.6336 O   0  0  0  0  0  0  0  0  0  0  0  0
  147.0099  130.3632  151.8466 N   0  0  0  0  0  0  0  0  0  0  0  0
  146.0240  131.4386  151.8794 C   0  0  2  0  0  0  0  0  0  0  0  0
  145.4529  131.7017  150.4715 C   0  0  0  0  0  0  0  0  0  0  0  0
  144.4982  132.9050  150.4964 C   0  0  0  0  0  0  0  0  0  0  0  0
  145.1866  134.1431  151.0929 C   0  0  0  0  0  0  0  0  0  0  0  0
  145.7461  133.8405  152.4111 N   0  0  0  0  0  0  0  0  0  0  0  0
  146.0931  134.8843  153.2056 C   0  0  0  0  0  0  0  0  0  0  0  0
  146.4008  134.6703  154.5131 N   0  0  0  0  0  0  0  0  0  0  0  0
  146.7369  135.6937  155.3036 C   0  0  0  0  0  0  0  0  0  0  0  0
  146.8282  136.9892  154.9980 N   0  0  0  0  0  0  0  0  0  0  0  0
  146.5238  137.2116  153.6875 C   0  0  0  0  0  0  0  0  0  0  0  0
  146.1533  136.2249  152.7301 C   0  0  0  0  0  0  0  0  0  0  0  0
  145.9415  136.8226  151.4932 N   0  0  0  0  0  0  0  0  0  0  0  0
  146.1681  138.0893  151.7085 C   0  0  0  0  0  0  0  0  0  0  0  0
  146.5106  138.4141  153.0017 N   0  0  0  0  0  0  0  0  0  0  0  0
  146.8198  139.7417  153.5111 C   0  0  0  0  0  0  0  0  0  0  0  0
  145.9985  140.1600  154.7613 C   0  0  2  0  0  0  0  0  0  0  0  0
  144.6903  139.6303  154.6359 O   0  0  0  0  0  0  0  0  0  0  0  0
  145.8981  141.6687  154.9636 C   0  0  0  0  0  0  0  0  0  0  0  0
  147.1731  141.9753  155.7321 C   0  0  0  0  0  0  0  0  0  0  0  0
  147.2811  140.8870  156.6366 O   0  0  0  0  0  0  0  0  0  0  0  0
  146.7078  139.7096  156.0657 C   0  0  1  0  0  0  0  0  0  0  0  0
  145.8027  139.0898  157.1441 C   0  0  0  0  0  0  0  0  0  0  0  0
  146.6768  132.7131  152.4452 C   0  0  0  0  0  0  0  0  0  0  0  0
  148.6368  126.3220  151.1228 H   0  0  0  0  0  0  0  0  0  0  0  0
  147.5328  127.2882  150.1522 H   0  0  0  0  0  0  0  0  0  0  0  0
  146.9208  126.3370  151.5079 H   0  0  0  0  0  0  0  0  0  0  0  0
  148.2333  127.7804  153.1067 H   0  0  0  0  0  0  0  0  0  0  0  0
  148.8502  128.7181  151.7637 H   0  0  0  0  0  0  0  0  0  0  0  0
  147.9345  130.6047  151.5208 H   0  0  0  0  0  0  0  0  0  0  0  0
  145.2074  131.1546  152.5464 H   0  0  0  0  0  0  0  0  0  0  0  0
  146.2660  131.8976  149.7709 H   0  0  0  0  0  0  0  0  0  0  0  0
  144.9268  130.8211  150.1015 H   0  0  0  0  0  0  0  0  0  0  0  0
  144.1443  133.1239  149.4888 H   0  0  0  0  0  0  0  0  0  0  0  0
  143.6162  132.6575  151.0887 H   0  0  0  0  0  0  0  0  0  0  0  0
  145.9855  134.4798  150.4308 H   0  0  0  0  0  0  0  0  0  0  0  0
  144.4643  134.9570  151.1690 H   0  0  0  0  0  0  0  0  0  0  0  0
  146.9641  135.4379  156.3280 H   0  0  0  0  0  0  0  0  0  0  0  0
  146.0864  138.8287  150.9250 H   0  0  0  0  0  0  0  0  0  0  0  0
  147.8864  139.7783  153.7375 H   0  0  0  0  0  0  0  0  0  0  0  0
  146.6638  140.4535  152.6996 H   0  0  0  0  0  0  0  0  0  0  0  0
  144.3577  139.8525  153.7797 H   0  0  0  0  0  0  0  0  0  0  0  0
  145.7985  142.2483  154.0471 H   0  0  0  0  0  0  0  0  0  0  0  0
  145.0417  141.9117  155.5950 H   0  0  0  0  0  0  0  0  0  0  0  0
  148.0382  141.9877  155.0681 H   0  0  0  0  0  0  0  0  0  0  0  0
  147.1302  142.9297  156.2575 H   0  0  0  0  0  0  0  0  0  0  0  0
  147.5111  139.0066  155.8404 H   0  0  0  0  0  0  0  0  0  0  0  0
  145.3541  138.1576  156.7996 H   0  0  0  0  0  0  0  0  0  0  0  0
  144.9984  139.7695  157.4273 H   0  0  0  0  0  0  0  0  0  0  0  0
  146.3750  138.8631  158.0439 H   0  0  0  0  0  0  0  0  0  0  0  0
  147.0290  132.5193  153.4581 H   0  0  0  0  0  0  0  0  0  0  0  0
  147.5565  132.9763  151.8557 H   0  0  0  0  0  0  0  0  0  0  0  0
  1  2  1  0  0  0  0
  1 29  1  0  0  0  0
  1 30  1  0  0  0  0
  1 31  1  0  0  0  0
  2  3  1  0  0  0  0
  2 32  1  0  0  0  0
  2 33  1  0  0  0  0
  3  4  2  0  0  0  0
  3  5  1  0  0  0  0
  5  6  1  0  0  0  0
  5 34  1  0  0  0  0
  6 28  1  0  0  0  0
  6  7  1  0  0  0  0
  6 35  1  0  0  0  0
  7  8  1  0  0  0  0
  7 36  1  0  0  0  0
  7 37  1  0  0  0  0
  8  9  1  0  0  0  0
  8 38  1  0  0  0  0
  8 39  1  0  0  0  0
  9 10  1  0  0  0  0
  9 40  1  0  0  0  0
  9 41  1  0  0  0  0
 10 11  1  0  0  0  0
 10 28  1  0  0  0  0
 11 16  1  0  0  0  0
 11 12  2  0  0  0  0
 12 13  1  0  0  0  0
 13 14  2  0  0  0  0
 13 42  1  0  0  0  0
 14 15  1  0  0  0  0
 15 19  1  0  0  0  0
 15 16  2  0  0  0  0
 16 17  1  0  0  0  0
 17 18  2  0  0  0  0
 18 19  1  0  0  0  0
 18 43  1  0  0  0  0
 19 20  1  0  0  0  0
 20 21  1  0  0  0  0
 20 44  1  0  0  0  0
 20 45  1  0  0  0  0
 21 26  1  0  0  0  0
 21 22  1  0  0  0  0
 21 23  1  0  0  0  0
 22 46  1  0  0  0  0
 23 24  1  0  0  0  0
 23 47  1  0  0  0  0
 23 48  1  0  0  0  0
 24 25  1  0  0  0  0
 24 49  1  0  0  0  0
 24 50  1  0  0  0  0
 25 26  1  0  0  0  0
 26 27  1  0  0  0  0
 26 51  1  0  0  0  0
 27 52  1  0  0  0  0
 27 53  1  0  0  0  0
 27 54  1  0  0  0  0
 28 55  1  0  0  0  0
 28 56  1  0  0  0  0
M  END
> <s_m_source_file>
AV-unprocessed.smi

> <i_m_source_file_index>
252

> <i_lp_mmshare_version>
43012

> <i_f3d_flags>
0

> <s_epik_input>
W0NIM11bQ0gyXUMoPU8pW05IXVtDQEBIXTFbQ0gyXVtDSDJdW0NIMl1OKFtDSDJdMSljKG5bY0hdbjIpYyhjMjMpbltjSF1uM1tDSDJdW0NAQF00KFtPSF0pW0NIMl1bQ0gyXU9bQ0BIXTRbQ0gzXQ==

> <s_epik_cmdline>
J2VwaWtfcHl0aG9uJywgJy1waCcsICc3LjAnLCAnLXRuJywgJzgnLCAnLW1hJywgJzIwMCcsICctbWV0YWxfYmluZGluZycsICctaW1hZScsICc8aW5maWxlLm1hZT4nLCAnLW9tYWUnLCAnPG91dGZpbGUubWFlPic=

> <r_lp_tautomer_probability>
1

> <r_epik_Ionization_Penalty>
0.00182575

> <r_epik_Ionization_Penalty_Charging>
0

> <r_epik_Ionization_Penalty_Neutral>
0.00182575

> <r_epik_State_Penalty>
0.00104524

> <r_epik_Charging_Adjusted_Penalty>
0.00104524

> <i_epik_Tot_Q>
0

> <i_epik_Tot_abs_Q>
0

> <r_epik_Metal_State_Penalty>
-0

> <b_epik_Metal_Only>
0

> <s_lp_Force_Field>
OPLS_2005

> <r_lp_Energy>
36.3421

> <b_lp_Chiralities_Consistent>
1

> <s_lp_Variant>
AV-unprocessed.smi:252-3

> <Gold.Version>
5.8.1

> <Gold.Id.Protein>
6NUR|6NUR_protein|mol2

> <Gold.PLP.Fitness>
41.4575

> <Gold.PLP.PLP>
-34.9018

> <Gold.PLP.part.hbond>
-1.8139

> <Gold.PLP.part.metal>
0.0000

> <Gold.PLP.part.buried>
-2.1042

> <Gold.PLP.part.nonpolar>
-32.5000

> <Gold.PLP.part.repulsive>
0.8492

> <Gold.PLP.ligand.clash>
0.0000

> <Gold.PLP.ligand.torsion>
0.8900

> <Gold.PLP.Chemscore.Hbond>
2.0000

> <Gold.PLP.Chemscore.CHOScore>
0.6390

> <Gold.PLP.Chemscore.Metal>
0.0000

> <Gold.Chemscore.Hbonds>
donor molecule, donor type, donor heavy atom, donor atom, acceptor molecule, acceptor atom, score
      L1  H     5    34       P1 10747  0.99
      L1  H    22    46       P1 10175  1.00
      L1  C    18    43       P1 10171  0.60

> <Gold.PLP.Chemscore.Internal.Correction>
0.4189

> <Gold.Rescore>
     Score         DG    S(hbond)    S(metal)    S(lipo)     H(rot)  DE(clash)    DE(int)     intcor
      9.93     -13.60       1.96        0.00      72.60       2.70       1.31       2.36       ----

> <Gold.Chemscore.Fitness>
9.9270

> <Gold.Chemscore.DG>
-13.5966

> <Gold.Chemscore.ZeroCoef>
-5.4800

> <Gold.Chemscore.Hbond>
1.9597

> <Gold.Chemscore.Metal>
0.0000

> <Gold.Chemscore.Lipo>
72.5962

> <Gold.Chemscore.Internal_Hbond>
0.0000

> <Gold.Chemscore.DEClash>
1.3116

> <Gold.Chemscore.DEInternal>
2.3580

> <Gold.Chemscore.Rot>
2.7041

> <Gold.Chemscore.Internal.Correction>
   9.000000E+99

> <Gold.Chemscore.Hbonds>
donor molecule, donor type, donor heavy atom, donor atom, acceptor molecule, acceptor atom, score
      L1  H     5    34       P1 10747  0.94
      L1  H    22    46       P1 10175  0.98

> <Gold.Chemscore.Hbond.Weighted>
-6.5453

> <Gold.Chemscore.Metal.Weighted>
-0.0000

> <Gold.Chemscore.Lipo.Weighted>
-8.4938

> <Gold.Chemscore.Internal_Hbond.Weighted>
0.0000

> <Gold.Chemscore.DEClash.Weighted>
1.3116

> <Gold.Chemscore.DEInternal.Weighted>
2.3580

> <Gold.Chemscore.Rot.Weighted>
6.9225

> <Gold.Chemscore.Internal.Correction.Weighted>
   9.000000E+99

> <Gold.Protein.RotatedTorsions>
[ 6907 6896 6895 6894 ] final   43.48 input  -60.11 | X-H torsion
[ 7974 7965 7964 7962 ] final    6.82 input  175.53 | X-H torsion
[ 8008 7997 7996 7995 ] final  -21.09 input   59.86 | X-H torsion
[ 10167 10162 10161 10158 ] final  -16.87 input  -65.29 | X-H torsion
[ 10718 10713 10712 10709 ] final  -69.96 input   66.30 | X-H torsion
[ 10763 10752 10751 10750 ] final   -4.90 input  -60.55 | X-H torsion
[ 11005 11000 10999 10996 ] final -110.70 input  -57.11 | X-H torsion

> <Gold.Protein.ActiveResidues>
 VAL166  LYS551  ARG553  GLY616  TRP617  ASP618  TYR619  PRO620  LYS621  CYS622 
 ASP623  PHE694  ASN695  SER759  ASP760  ASP761  ALA762  ILE779  LEU786  VAL792 
 PHE793  MET794  SER795  GLU796  ALA797  LYS798  CYS799  TRP800  GLU811  SER814 

> <Gold.Protein.RotatedAtoms>
  152.2208  134.8414  160.0485 H   0  0  0  0  0  0  0  0  0  0  0  0  # atno 6907 bound_to 6896
  151.9198  133.3577  159.3901 H   0  0  0  0  0  0  0  0  0  0  0  0  # atno 6908 bound_to 6896
  150.6999  134.4571  159.5407 H   0  0  0  0  0  0  0  0  0  0  0  0  # atno 6909 bound_to 6896
  146.2432  140.0176  142.8401 H   0  0  0  0  0  0  0  0  0  0  0  0  # atno 7974 bound_to 7965
  154.4728  140.2044  155.9953 H   0  0  0  0  0  0  0  0  0  0  0  0  # atno 8008 bound_to 7997
  156.1039  140.3239  155.7949 H   0  0  0  0  0  0  0  0  0  0  0  0  # atno 8009 bound_to 7997
  155.4751  140.0534  157.2965 H   0  0  0  0  0  0  0  0  0  0  0  0  # atno 8010 bound_to 7997
  140.7239  143.5073  150.9794 H   0  0  0  0  0  0  0  0  0  0  0  0  # atno 10167 bound_to 10162
  156.0430  130.4322  150.2224 H   0  0  0  0  0  0  0  0  0  0  0  0  # atno 10718 bound_to 10713
  153.3912  135.7002  153.6494 H   0  0  0  0  0  0  0  0  0  0  0  0  # atno 10763 bound_to 10752
  153.5065  135.3641  155.2566 H   0  0  0  0  0  0  0  0  0  0  0  0  # atno 10764 bound_to 10752
  154.8702  135.4124  154.3229 H   0  0  0  0  0  0  0  0  0  0  0  0  # atno 10765 bound_to 10752
  141.0777  133.9273  157.2355 H   0  0  0  0  0  0  0  0  0  0  0  0  # atno 11005 bound_to 11000
  145.1271  140.9496  143.4566 LP  0  0  0  0  0  0  0  0  0  0  0  0  # atno 17320 bound_to 7965
  145.0424  139.3249  143.5970 LP  0  0  0  0  0  0  0  0  0  0  0  0  # atno 17321 bound_to 7965
  139.8785  143.7102  152.3159 LP  0  0  0  0  0  0  0  0  0  0  0  0  # atno 17342 bound_to 10162
  139.7376  144.7567  151.0703 LP  0  0  0  0  0  0  0  0  0  0  0  0  # atno 17343 bound_to 10162
  157.0317  131.0009  151.3310 LP  0  0  0  0  0  0  0  0  0  0  0  0  # atno 17370 bound_to 10713
  157.5273  130.8036  149.7876 LP  0  0  0  0  0  0  0  0  0  0  0  0  # atno 17371 bound_to 10713
  139.9589  135.0159  156.9207 LP  0  0  0  0  0  0  0  0  0  0  0  0  # atno 17394 bound_to 11000
  140.5538  134.0601  155.7377 LP  0  0  0  0  0  0  0  0  0  0  0  0  # atno 17395 bound_to 11000

$$$$
