AV-unprocessed.smi:1047|AV-procd|sdf|4599|dock8
  -GOLD-   22720 3 93D 1   1.00000     0.00000
 Structure written by MMmdl.
 57 59  0  0  0  0  0  0  0  0  3 V2000
  145.7233  130.9173  151.0269 C   0  0  0  0  0  0  0  0  0  0  0  0
  146.1593  132.1403  151.8462 C   0  0  0  0  0  0  0  0  0  0  0  0
  147.4478  131.9275  152.5521 N   0  3  2  0  0  0  0  0  0  0  0  0
  147.5191  130.6410  153.2877 C   0  0  0  0  0  0  0  0  0  0  0  0
  148.8881  130.4895  153.9711 C   0  0  0  0  0  0  0  0  0  0  0  0
  149.1204  131.6003  154.8280 O   0  0  0  0  0  0  0  0  0  0  0  0
  149.1596  132.8329  154.1158 C   0  0  2  0  0  0  0  0  0  0  0  0
  149.4919  133.9532  155.1126 C   0  0  0  0  0  0  0  0  0  0  0  0
  149.8552  135.1874  154.4237 N   0  0  0  0  0  0  0  0  0  0  0  0
  150.4370  136.1890  155.3130 C   0  0  0  0  0  0  0  0  0  0  0  0
  149.7798  137.5669  155.1272 C   0  0  2  0  0  0  0  0  0  0  0  0
  148.6699  137.3977  154.2693 O   0  0  0  0  0  0  0  0  0  0  0  0
  150.7444  138.6087  154.5224 C   0  0  0  0  0  0  0  0  0  0  0  0
  150.4320  139.9872  154.9291 N   0  0  0  0  0  0  0  0  0  0  0  0
  149.6413  140.9129  154.3211 C   0  0  0  0  0  0  0  0  0  0  0  0
  149.6581  142.0367  155.0901 N   0  3  0  0  0  0  0  0  0  0  0  0
  150.4711  141.8265  156.2057 C   0  0  0  0  0  0  0  0  0  0  0  0
  150.7958  142.6650  157.2657 C   0  0  0  0  0  0  0  0  0  0  0  0
  151.6640  142.1491  158.2540 C   0  0  0  0  0  0  0  0  0  0  0  0
  152.0380  143.0393  159.4272 C   0  0  0  0  0  0  0  0  0  0  0  0
  152.1783  140.8303  158.1569 C   0  0  0  0  0  0  0  0  0  0  0  0
  153.1153  140.2873  159.2226 C   0  0  0  0  0  0  0  0  0  0  0  0
  151.8344  139.9925  157.0719 C   0  0  0  0  0  0  0  0  0  0  0  0
  150.9745  140.5144  156.1079 C   0  0  0  0  0  0  0  0  0  0  0  0
  147.7861  133.0553  153.4529 C   0  0  0  0  0  0  0  0  0  0  0  0
  144.8289  131.1462  150.4466 H   0  0  0  0  0  0  0  0  0  0  0  0
  145.4843  130.0643  151.6614 H   0  0  0  0  0  0  0  0  0  0  0  0
  146.5012  130.6118  150.3268 H   0  0  0  0  0  0  0  0  0  0  0  0
  146.2665  132.9810  151.1594 H   0  0  0  0  0  0  0  0  0  0  0  0
  145.3834  132.4207  152.5598 H   0  0  0  0  0  0  0  0  0  0  0  0
  146.7242  130.5999  154.0342 H   0  0  0  0  0  0  0  0  0  0  0  0
  147.3646  129.8029  152.6090 H   0  0  0  0  0  0  0  0  0  0  0  0
  148.9122  129.5752  154.5641 H   0  0  0  0  0  0  0  0  0  0  0  0
  149.6868  130.4103  153.2317 H   0  0  0  0  0  0  0  0  0  0  0  0
  149.9307  132.7929  153.3433 H   0  0  0  0  0  0  0  0  0  0  0  0
  148.6225  134.1412  155.7441 H   0  0  0  0  0  0  0  0  0  0  0  0
  150.2953  133.6335  155.7775 H   0  0  0  0  0  0  0  0  0  0  0  0
  150.5079  134.9788  153.6745 H   0  0  0  0  0  0  0  0  0  0  0  0
  150.3429  135.8714  156.3524 H   0  0  0  0  0  0  0  0  0  0  0  0
  151.5060  136.2712  155.1100 H   0  0  0  0  0  0  0  0  0  0  0  0
  149.4021  137.9265  156.0855 H   0  0  0  0  0  0  0  0  0  0  0  0
  148.9300  136.8437  153.5493 H   0  0  0  0  0  0  0  0  0  0  0  0
  151.7650  138.4056  154.8489 H   0  0  0  0  0  0  0  0  0  0  0  0
  150.7591  138.5473  153.4342 H   0  0  0  0  0  0  0  0  0  0  0  0
  149.0963  140.7794  153.3978 H   0  0  0  0  0  0  0  0  0  0  0  0
  150.4019  143.6688  157.3321 H   0  0  0  0  0  0  0  0  0  0  0  0
  151.7158  142.5896  160.3667 H   0  0  0  0  0  0  0  0  0  0  0  0
  151.5684  144.0203  159.3495 H   0  0  0  0  0  0  0  0  0  0  0  0
  153.1171  143.1893  159.4665 H   0  0  0  0  0  0  0  0  0  0  0  0
  153.4187  139.2629  159.0039 H   0  0  0  0  0  0  0  0  0  0  0  0
  152.6276  140.2886  160.1975 H   0  0  0  0  0  0  0  0  0  0  0  0
  154.0180  140.8951  159.2851 H   0  0  0  0  0  0  0  0  0  0  0  0
  152.2309  138.9906  156.9984 H   0  0  0  0  0  0  0  0  0  0  0  0
  147.8015  133.9856  152.8833 H   0  0  0  0  0  0  0  0  0  0  0  0
  147.0108  133.1587  154.2142 H   0  0  0  0  0  0  0  0  0  0  0  0
  148.1673  131.9047  151.8436 H   0  0  0  0  0  0  0  0  0  0  0  0
  149.1494  142.8831  154.8682 H   0  0  0  0  0  0  0  0  0  0  0  0
  1  2  1  0  0  0  0
  1 26  1  0  0  0  0
  1 27  1  0  0  0  0
  1 28  1  0  0  0  0
  2  3  1  0  0  0  0
  2 29  1  0  0  0  0
  2 30  1  0  0  0  0
  3 25  1  0  0  0  0
  3  4  1  0  0  0  0
  3 56  1  0  0  0  0
  4  5  1  0  0  0  0
  4 31  1  0  0  0  0
  4 32  1  0  0  0  0
  5  6  1  0  0  0  0
  5 33  1  0  0  0  0
  5 34  1  0  0  0  0
  6  7  1  0  0  0  0
  7  8  1  0  0  0  0
  7 25  1  0  0  0  0
  7 35  1  0  0  0  0
  8  9  1  0  0  0  0
  8 36  1  0  0  0  0
  8 37  1  0  0  0  0
  9 10  1  0  0  0  0
  9 38  1  0  0  0  0
 10 11  1  0  0  0  0
 10 39  1  0  0  0  0
 10 40  1  0  0  0  0
 11 12  1  0  0  0  0
 11 13  1  0  0  0  0
 11 41  1  0  0  0  0
 12 42  1  0  0  0  0
 13 14  1  0  0  0  0
 13 43  1  0  0  0  0
 13 44  1  0  0  0  0
 14 24  1  0  0  0  0
 14 15  1  0  0  0  0
 15 16  2  0  0  0  0
 15 45  1  0  0  0  0
 16 17  1  0  0  0  0
 16 57  1  0  0  0  0
 17 24  2  0  0  0  0
 17 18  1  0  0  0  0
 18 19  2  0  0  0  0
 18 46  1  0  0  0  0
 19 20  1  0  0  0  0
 19 21  1  0  0  0  0
 20 47  1  0  0  0  0
 20 48  1  0  0  0  0
 20 49  1  0  0  0  0
 21 22  1  0  0  0  0
 21 23  2  0  0  0  0
 22 50  1  0  0  0  0
 22 51  1  0  0  0  0
 22 52  1  0  0  0  0
 23 24  1  0  0  0  0
 23 53  1  0  0  0  0
 25 54  1  0  0  0  0
 25 55  1  0  0  0  0
M  CHG  1   3   1
M  CHG  1  16   1
M  END
> <s_m_source_file>
AV-unprocessed.smi

> <i_m_source_file_index>
1047

> <i_lp_mmshare_version>
43012

> <i_f3d_flags>
0

> <s_epik_input>
W0NIM11bQ0gyXU4xW0NIMl1bQ0gyXU9bQ0BIXShbQ0gyXTEpW0NIMl1bTkhdW0NIMl1bQ0BIXShbT0hdKVtDSDJdbihbY0hdbjIpYyhjMjMpW2NIXWMoW0NIM10pYyhbY0hdMylbQ0gzXQ==

> <s_epik_cmdline>
J2VwaWtfcHl0aG9uJywgJy1waCcsICc3LjAnLCAnLXRuJywgJzgnLCAnLW1hJywgJzIwMCcsICctbWV0YWxfYmluZGluZycsICctaW1hZScsICc8aW5maWxlLm1hZT4nLCAnLW9tYWUnLCAnPG91dGZpbGUubWFlPic=

> <r_epik_Ionization_Penalty>
2.03028

> <r_epik_Ionization_Penalty_Charging>
1.21256

> <r_epik_Ionization_Penalty_Neutral>
0.817715

> <r_epik_State_Penalty>
2.54959

> <r_epik_Charging_Adjusted_Penalty>
3.76215

> <i_epik_Tot_Q>
2

> <i_epik_Tot_abs_Q>
2

> <r_epik_Metal_State_Penalty>
6.52811

> <b_epik_Metal_Only>
0

> <s_lp_Force_Field>
OPLS_2005

> <r_lp_Energy>
31.8247

> <b_lp_Chiralities_Consistent>
1

> <s_lp_Variant>
AV-unprocessed.smi:1047-40

> <Gold.Version>
5.8.1

> <Gold.Id.Protein>
6NUR|6NUR_protein|mol2

> <Gold.PLP.Fitness>
59.6475

> <Gold.PLP.PLP>
-49.0131

> <Gold.PLP.part.hbond>
-4.4037

> <Gold.PLP.part.metal>
0.0000

> <Gold.PLP.part.buried>
-1.6710

> <Gold.PLP.part.nonpolar>
-42.4071

> <Gold.PLP.part.repulsive>
0.2260

> <Gold.PLP.ligand.clash>
0.0000

> <Gold.PLP.ligand.torsion>
1.9549

> <Gold.PLP.Chemscore.Hbond>
3.8364

> <Gold.PLP.Chemscore.CHOScore>
0.9740

> <Gold.PLP.Chemscore.Metal>
0.0000

> <Gold.Chemscore.Hbonds>
donor molecule, donor type, donor heavy atom, donor atom, acceptor molecule, acceptor atom, score
      L1  H     3    56       P1 10747  0.89
      L1  H    12    42       P1  7948  1.00
      L1  H    16    57       P1  8028  1.57
      L1  C    15    45       P1  7957  1.00

> <Gold.PLP.Chemscore.Internal.Correction>
0.1130

> <Gold.Rescore>
     Score         DG    S(hbond)    S(metal)    S(lipo)     H(rot)  DE(clash)    DE(int)     intcor
     19.80     -21.87       2.70        0.00     122.14       2.71       0.04       2.03       ----

> <Gold.Chemscore.Fitness>
19.7952

> <Gold.Chemscore.DG>
-21.8692

> <Gold.Chemscore.ZeroCoef>
-5.4800

> <Gold.Chemscore.Hbond>
2.7046

> <Gold.Chemscore.Metal>
0.0000

> <Gold.Chemscore.Lipo>
122.1407

> <Gold.Chemscore.Internal_Hbond>
0.0000

> <Gold.Chemscore.DEClash>
0.0396

> <Gold.Chemscore.DEInternal>
2.0344

> <Gold.Chemscore.Rot>
2.7088

> <Gold.Chemscore.Internal.Correction>
   9.000000E+99

> <Gold.Chemscore.Hbonds>
donor molecule, donor type, donor heavy atom, donor atom, acceptor molecule, acceptor atom, score
      L1  H     3    56       P1 10747  0.83
      L1  H    12    42       P1  7948  0.99
      L1  H    16    57       P1  8028  0.75

> <Gold.Chemscore.Hbond.Weighted>
-9.0334

> <Gold.Chemscore.Metal.Weighted>
-0.0000

> <Gold.Chemscore.Lipo.Weighted>
-14.2905

> <Gold.Chemscore.Internal_Hbond.Weighted>
0.0000

> <Gold.Chemscore.DEClash.Weighted>
0.0396

> <Gold.Chemscore.DEInternal.Weighted>
2.0344

> <Gold.Chemscore.Rot.Weighted>
6.9346

> <Gold.Chemscore.Internal.Correction.Weighted>
   9.000000E+99

> <Gold.Protein.RotatedTorsions>
[ 6907 6896 6895 6894 ] final    1.79 input  -60.11 | X-H torsion
[ 7974 7965 7964 7962 ] final   96.90 input  175.53 | X-H torsion
[ 8008 7997 7996 7995 ] final -105.62 input   59.86 | X-H torsion
[ 10167 10162 10161 10158 ] final  157.39 input  -65.29 | X-H torsion
[ 10718 10713 10712 10709 ] final  -91.56 input   66.30 | X-H torsion
[ 10763 10752 10751 10750 ] final   80.10 input  -60.55 | X-H torsion
[ 11005 11000 10999 10996 ] final   -0.66 input  -57.11 | X-H torsion

> <Gold.Protein.ActiveResidues>
 VAL166  LYS551  ARG553  GLY616  TRP617  ASP618  TYR619  PRO620  LYS621  CYS622 
 ASP623  PHE694  ASN695  SER759  ASP760  ASP761  ALA762  ILE779  LEU786  VAL792 
 PHE793  MET794  SER795  GLU796  ALA797  LYS798  CYS799  TRP800  GLU811  SER814 

> <Gold.Protein.RotatedAtoms>
  151.5984  135.1049  160.0054 H   0  0  0  0  0  0  0  0  0  0  0  0  # atno 6907 bound_to 6896
  152.4271  133.7209  159.6543 H   0  0  0  0  0  0  0  0  0  0  0  0  # atno 6908 bound_to 6896
  150.8160  133.8264  159.3182 H   0  0  0  0  0  0  0  0  0  0  0  0  # atno 6909 bound_to 6896
  145.4327  139.2309  143.3135 H   0  0  0  0  0  0  0  0  0  0  0  0  # atno 7974 bound_to 7965
  154.9025  140.0412  157.1901 H   0  0  0  0  0  0  0  0  0  0  0  0  # atno 8008 bound_to 7997
  154.8429  140.2917  155.5626 H   0  0  0  0  0  0  0  0  0  0  0  0  # atno 8009 bound_to 7997
  156.2993  140.2479  156.3375 H   0  0  0  0  0  0  0  0  0  0  0  0  # atno 8010 bound_to 7997
  139.4823  144.4921  151.8293 H   0  0  0  0  0  0  0  0  0  0  0  0  # atno 10167 bound_to 10162
  155.9995  130.4953  150.5493 H   0  0  0  0  0  0  0  0  0  0  0  0  # atno 10718 bound_to 10713
  153.1006  135.4815  154.8860 H   0  0  0  0  0  0  0  0  0  0  0  0  # atno 10763 bound_to 10752
  154.7375  135.3074  154.8789 H   0  0  0  0  0  0  0  0  0  0  0  0  # atno 10764 bound_to 10752
  153.9407  135.6834  153.4798 H   0  0  0  0  0  0  0  0  0  0  0  0  # atno 10765 bound_to 10752
  140.6387  133.9509  155.8314 H   0  0  0  0  0  0  0  0  0  0  0  0  # atno 11005 bound_to 11000
  146.2598  140.5066  142.8858 LP  0  0  0  0  0  0  0  0  0  0  0  0  # atno 17320 bound_to 7965
  144.8172  140.6488  143.6376 LP  0  0  0  0  0  0  0  0  0  0  0  0  # atno 17321 bound_to 7965
  140.4406  144.1991  150.5891 LP  0  0  0  0  0  0  0  0  0  0  0  0  # atno 17342 bound_to 10162
  140.4687  143.2421  151.9120 LP  0  0  0  0  0  0  0  0  0  0  0  0  # atno 17343 bound_to 10162
  157.3418  131.0718  151.1782 LP  0  0  0  0  0  0  0  0  0  0  0  0  # atno 17370 bound_to 10713
  157.2628  130.6667  149.5982 LP  0  0  0  0  0  0  0  0  0  0  0  0  # atno 17371 bound_to 10713
  141.0623  134.0328  157.3642 LP  0  0  0  0  0  0  0  0  0  0  0  0  # atno 17394 bound_to 11000
  139.9088  135.0186  156.7604 LP  0  0  0  0  0  0  0  0  0  0  0  0  # atno 17395 bound_to 11000

$$$$
