AV-unprocessed.smi:1936|AV-procd|sdf|7832|dock1
  -GOLD-   22720 9583D 1   1.00000     0.00000
 Structure written by MMmdl.
 39 40  0  0  0  0  0  0  0  0  2 V2000
  149.6877  133.5924  156.3690 C   0  0  0  0  0  0  0  0  0  0  0  0
  149.4202  135.1027  156.3258 C   0  0  1  0  0  0  0  0  0  0  0  0
  149.0386  135.5722  154.9030 C   0  0  0  0  0  0  0  0  0  0  0  0
  149.6787  136.8600  154.5312 N   0  3  0  0  0  0  0  0  0  0  0  0
  148.8837  138.0497  154.9180 C   0  0  0  0  0  0  0  0  0  0  0  0
  149.5688  139.3294  154.4126 C   0  0  0  0  0  0  0  0  0  0  0  0
  150.8888  139.4000  154.9389 O   0  0  0  0  0  0  0  0  0  0  0  0
  151.6901  138.3031  154.5174 C   0  0  0  0  0  0  0  0  0  0  0  0
  151.0722  136.9857  155.0165 C   0  0  0  0  0  0  0  0  0  0  0  0
  148.3580  135.4340  157.2747 N   0  0  0  0  0  0  0  0  0  0  0  0
  148.5289  135.9640  158.4966 C   0  0  0  0  0  0  0  0  0  0  0  0
  149.6300  136.1467  159.0147 O   0  0  0  0  0  0  0  0  0  0  0  0
  147.2609  136.4176  159.2171 C   0  0  0  0  0  0  0  0  0  0  0  0
  147.1695  135.7865  160.5224 N   0  0  0  0  0  0  0  0  0  0  0  0
  147.1590  134.4407  160.8238 C   0  0  0  0  0  0  0  0  0  0  0  0
  147.0712  134.3288  162.1818 C   0  0  0  0  0  0  0  0  0  0  0  0
  147.0327  135.6780  162.6315 C   0  0  0  0  0  0  0  0  0  0  0  0
  147.0982  136.5483  161.6370 N   0  0  0  0  0  0  0  0  0  0  0  0
  150.4944  133.3185  155.6883 H   0  0  0  0  0  0  0  0  0  0  0  0
  148.8033  133.0218  156.0832 H   0  0  0  0  0  0  0  0  0  0  0  0
  149.9804  133.2736  157.3701 H   0  0  0  0  0  0  0  0  0  0  0  0
  150.3449  135.5973  156.6265 H   0  0  0  0  0  0  0  0  0  0  0  0
  149.2790  134.8086  154.1618 H   0  0  0  0  0  0  0  0  0  0  0  0
  147.9549  135.6960  154.8698 H   0  0  0  0  0  0  0  0  0  0  0  0
  147.8784  137.9866  154.5024 H   0  0  0  0  0  0  0  0  0  0  0  0
  148.7790  138.0857  156.0035 H   0  0  0  0  0  0  0  0  0  0  0  0
  149.5951  139.3522  153.3217 H   0  0  0  0  0  0  0  0  0  0  0  0
  149.0108  140.2079  154.7371 H   0  0  0  0  0  0  0  0  0  0  0  0
  151.7793  138.3036  153.4303 H   0  0  0  0  0  0  0  0  0  0  0  0
  152.6961  138.4234  154.9195 H   0  0  0  0  0  0  0  0  0  0  0  0
  151.0869  136.9504  156.1070 H   0  0  0  0  0  0  0  0  0  0  0  0
  151.6679  136.1457  154.6569 H   0  0  0  0  0  0  0  0  0  0  0  0
  147.4094  135.3209  156.9458 H   0  0  0  0  0  0  0  0  0  0  0  0
  147.2496  137.5022  159.3375 H   0  0  0  0  0  0  0  0  0  0  0  0
  146.3829  136.1481  158.6284 H   0  0  0  0  0  0  0  0  0  0  0  0
  147.2150  133.6837  160.0553 H   0  0  0  0  0  0  0  0  0  0  0  0
  147.0379  133.4210  162.7659 H   0  0  0  0  0  0  0  0  0  0  0  0
  146.9653  136.0481  163.6438 H   0  0  0  0  0  0  0  0  0  0  0  0
  149.7358  136.8619  153.5224 H   0  0  0  0  0  0  0  0  0  0  0  0
  1  2  1  0  0  0  0
  1 19  1  0  0  0  0
  1 20  1  0  0  0  0
  1 21  1  0  0  0  0
  2  3  1  0  0  0  0
  2 10  1  0  0  0  0
  2 22  1  0  0  0  0
  3  4  1  0  0  0  0
  3 23  1  0  0  0  0
  3 24  1  0  0  0  0
  4  9  1  0  0  0  0
  4  5  1  0  0  0  0
  4 39  1  0  0  0  0
  5  6  1  0  0  0  0
  5 25  1  0  0  0  0
  5 26  1  0  0  0  0
  6  7  1  0  0  0  0
  6 27  1  0  0  0  0
  6 28  1  0  0  0  0
  7  8  1  0  0  0  0
  8  9  1  0  0  0  0
  8 29  1  0  0  0  0
  8 30  1  0  0  0  0
  9 31  1  0  0  0  0
  9 32  1  0  0  0  0
 10 11  1  0  0  0  0
 10 33  1  0  0  0  0
 11 12  2  0  0  0  0
 11 13  1  0  0  0  0
 13 14  1  0  0  0  0
 13 34  1  0  0  0  0
 13 35  1  0  0  0  0
 14 18  1  0  0  0  0
 14 15  1  0  0  0  0
 15 16  2  0  0  0  0
 15 36  1  0  0  0  0
 16 17  1  0  0  0  0
 16 37  1  0  0  0  0
 17 18  2  0  0  0  0
 17 38  1  0  0  0  0
M  CHG  1   4   1
M  END
> <s_m_source_file>
AV-unprocessed.smi

> <i_m_source_file_index>
1936

> <i_lp_mmshare_version>
43012

> <i_f3d_flags>
0

> <s_epik_input>
W0NIMl0xW0NIMl1PW0NIMl1bQ0gyXU4xW0NIMl1bQ0BASF0oW0NIM10pW05IXUMoPU8pW0NIMl1uMltjSF1bY0hdW2NIXW4y

> <s_epik_cmdline>
J2VwaWtfcHl0aG9uJywgJy1waCcsICc3LjAnLCAnLXRuJywgJzgnLCAnLW1hJywgJzIwMCcsICctbWV0YWxfYmluZGluZycsICctaW1hZScsICc8aW5maWxlLm1hZT4nLCAnLW9tYWUnLCAnPG91dGZpbGUubWFlPic=

> <r_lp_tautomer_probability>
1

> <r_epik_Ionization_Penalty>
0.748405

> <r_epik_Ionization_Penalty_Charging>
0.748396

> <r_epik_Ionization_Penalty_Neutral>
9.02181e-06

> <r_epik_State_Penalty>
0.775162

> <r_epik_Charging_Adjusted_Penalty>
1.52356

> <i_epik_Tot_Q>
1

> <i_epik_Tot_abs_Q>
1

> <r_epik_Metal_State_Penalty>
0.775167

> <b_epik_Metal_Only>
0

> <s_lp_Force_Field>
OPLS_2005

> <r_lp_Energy>
20.1582

> <b_lp_Chiralities_Consistent>
1

> <s_lp_Variant>
AV-unprocessed.smi:1936-4

> <Gold.Version>
5.8.1

> <Gold.Id.Protein>
6NUR|6NUR_protein|mol2

> <Gold.PLP.Fitness>
47.5463

> <Gold.PLP.PLP>
-32.9247

> <Gold.PLP.part.hbond>
-5.0000

> <Gold.PLP.part.metal>
0.0000

> <Gold.PLP.part.buried>
-4.7988

> <Gold.PLP.part.nonpolar>
-23.4144

> <Gold.PLP.part.repulsive>
0.1408

> <Gold.PLP.ligand.clash>
0.0000

> <Gold.PLP.ligand.torsion>
1.1057

> <Gold.PLP.Chemscore.Hbond>
5.5909

> <Gold.PLP.Chemscore.CHOScore>
0.0000

> <Gold.PLP.Chemscore.Metal>
0.0000

> <Gold.Chemscore.Hbonds>
donor molecule, donor type, donor heavy atom, donor atom, acceptor molecule, acceptor atom, score
      L1  H     4    39       P1  7948  1.92
      P1  H  6896  6909       L1    12  1.00
      P1  H  7989  7998       L1     7  0.42

> <Gold.PLP.Chemscore.Internal.Correction>
0.0602

> <Gold.Rescore>
     Score         DG    S(hbond)    S(metal)    S(lipo)     H(rot)  DE(clash)    DE(int)     intcor
     18.19     -19.54       3.40        0.00      65.39       1.93       0.17       1.18       ----

> <Gold.Chemscore.Fitness>
18.1929

> <Gold.Chemscore.DG>
-19.5440

> <Gold.Chemscore.ZeroCoef>
-5.4800

> <Gold.Chemscore.Hbond>
3.4024

> <Gold.Chemscore.Metal>
0.0000

> <Gold.Chemscore.Lipo>
65.3935

> <Gold.Chemscore.Internal_Hbond>
0.0000

> <Gold.Chemscore.DEClash>
0.1667

> <Gold.Chemscore.DEInternal>
1.1844

> <Gold.Chemscore.Rot>
1.9340

> <Gold.Chemscore.Internal.Correction>
   9.000000E+99

> <Gold.Chemscore.Hbonds>
donor molecule, donor type, donor heavy atom, donor atom, acceptor molecule, acceptor atom, score
      L1  H     4    39       P1  7948  0.51
      P1  H  6896  6909       L1    12  1.00
      P1  H  7989  7998       L1     7  0.01

> <Gold.Chemscore.Hbond.Weighted>
-11.3641

> <Gold.Chemscore.Metal.Weighted>
-0.0000

> <Gold.Chemscore.Lipo.Weighted>
-7.6510

> <Gold.Chemscore.Internal_Hbond.Weighted>
0.0000

> <Gold.Chemscore.DEClash.Weighted>
0.1667

> <Gold.Chemscore.DEInternal.Weighted>
1.1844

> <Gold.Chemscore.Rot.Weighted>
4.9510

> <Gold.Chemscore.Internal.Correction.Weighted>
   9.000000E+99

> <Gold.Protein.RotatedTorsions>
[ 6907 6896 6895 6894 ] final   72.40 input  -60.11 | X-H torsion
[ 7974 7965 7964 7962 ] final   43.85 input  175.53 | X-H torsion
[ 8008 7997 7996 7995 ] final  -89.53 input   59.86 | X-H torsion
[ 10167 10162 10161 10158 ] final   18.80 input  -65.29 | X-H torsion
[ 10718 10713 10712 10709 ] final  -13.08 input   66.30 | X-H torsion
[ 10763 10752 10751 10750 ] final  143.22 input  -60.55 | X-H torsion
[ 11005 11000 10999 10996 ] final  -95.47 input  -57.11 | X-H torsion

> <Gold.Protein.ActiveResidues>
 VAL166  LYS551  ARG553  GLY616  TRP617  ASP618  TYR619  PRO620  LYS621  CYS622 
 ASP623  PHE694  ASN695  SER759  ASP760  ASP761  ALA762  ILE779  LEU786  VAL792 
 PHE793  MET794  SER795  GLU796  ALA797  LYS798  CYS799  TRP800  GLU811  SER814 

> <Gold.Protein.RotatedAtoms>
  152.4865  134.4577  159.9594 H   0  0  0  0  0  0  0  0  0  0  0  0  # atno 6907 bound_to 6896
  151.4573  133.3596  159.2812 H   0  0  0  0  0  0  0  0  0  0  0  0  # atno 6908 bound_to 6896
  150.8981  134.8415  159.7401 H   0  0  0  0  0  0  0  0  0  0  0  0  # atno 6909 bound_to 6896
  146.0620  139.5140  142.9652 H   0  0  0  0  0  0  0  0  0  0  0  0  # atno 7974 bound_to 7965
  154.6877  140.0541  157.0331 H   0  0  0  0  0  0  0  0  0  0  0  0  # atno 8008 bound_to 7997
  155.0861  140.3214  155.4568 H   0  0  0  0  0  0  0  0  0  0  0  0  # atno 8009 bound_to 7997
  156.2717  140.2056  156.5989 H   0  0  0  0  0  0  0  0  0  0  0  0  # atno 8010 bound_to 7997
  140.5627  143.9308  150.6654 H   0  0  0  0  0  0  0  0  0  0  0  0  # atno 10167 bound_to 10162
  156.6354  130.4913  149.6114 H   0  0  0  0  0  0  0  0  0  0  0  0  # atno 10718 bound_to 10713
  153.9687  135.2953  155.3429 H   0  0  0  0  0  0  0  0  0  0  0  0  # atno 10763 bound_to 10752
  154.7334  135.5057  153.9005 H   0  0  0  0  0  0  0  0  0  0  0  0  # atno 10764 bound_to 10752
  153.0911  135.6708  153.9965 H   0  0  0  0  0  0  0  0  0  0  0  0  # atno 10765 bound_to 10752
  141.1441  133.8029  157.0440 H   0  0  0  0  0  0  0  0  0  0  0  0  # atno 11005 bound_to 11000
  145.6544  141.0255  143.1743 LP  0  0  0  0  0  0  0  0  0  0  0  0  # atno 17320 bound_to 7965
  144.7180  139.8128  143.7392 LP  0  0  0  0  0  0  0  0  0  0  0  0  # atno 17321 bound_to 7965
  140.2763  143.3420  152.1192 LP  0  0  0  0  0  0  0  0  0  0  0  0  # atno 17342 bound_to 10162
  139.5078  144.6838  151.5941 LP  0  0  0  0  0  0  0  0  0  0  0  0  # atno 17343 bound_to 10162
  156.2201  130.6732  151.1360 LP  0  0  0  0  0  0  0  0  0  0  0  0  # atno 17370 bound_to 10713
  157.7187  131.0694  150.6223 LP  0  0  0  0  0  0  0  0  0  0  0  0  # atno 17371 bound_to 10713
  140.0674  134.9721  157.1410 LP  0  0  0  0  0  0  0  0  0  0  0  0  # atno 17394 bound_to 11000
  140.3759  134.2339  155.7174 LP  0  0  0  0  0  0  0  0  0  0  0  0  # atno 17395 bound_to 11000

$$$$
