AV-unprocessed.smi:763|AV-procd|sdf|3638|dock2
  -GOLD-   22720 1 33D 1   1.00000     0.00000
 Structure written by MMmdl.
 43 44  0  0  0  0  0  0  0  0  2 V2000
  145.9763  143.3263  153.6611 C   0  0  0  0  0  0  0  0  0  0  0  0
  146.9391  142.5753  154.3791 O   0  0  0  0  0  0  0  0  0  0  0  0
  146.7711  141.1768  154.2151 C   0  0  0  0  0  0  0  0  0  0  0  0
  148.0735  140.5765  153.6626 C   0  0  0  0  0  0  0  0  0  0  0  0
  149.1670  140.7905  154.5556 O   0  0  0  0  0  0  0  0  0  0  0  0
  150.2173  139.8888  154.5999 C   0  0  0  0  0  0  0  0  0  0  0  0
  150.1558  138.7951  153.7981 N   0  0  0  0  0  0  0  0  0  0  0  0
  151.1748  137.9153  153.8265 C   0  0  0  0  0  0  0  0  0  0  0  0
  152.3026  138.0781  154.6470 C   0  0  0  0  0  0  0  0  0  0  0  0
  152.3642  139.2134  155.4747 C   0  0  0  0  0  0  0  0  0  0  0  0
  151.3064  140.1561  155.4689 C   0  0  0  0  0  0  0  0  0  0  0  0
  151.3054  141.2591  156.2370 N   0  5  0  0  0  0  0  0  0  0  0  0
  151.4342  141.3078  157.8498 S   0  0  0  0  0  0  0  0  0  0  0  0
  150.2894  140.6538  158.5019 O   0  0  0  0  0  0  0  0  0  0  0  0
  152.7750  140.9029  158.3010 O   0  0  0  0  0  0  0  0  0  0  0  0
  151.2929  143.1374  158.1644 C   0  0  2  0  0  0  0  0  0  0  0  0
  152.5369  143.6196  158.9448 C   0  0  0  0  0  0  0  0  0  0  0  0
  152.4687  145.1170  159.2736 C   0  0  0  0  0  0  0  0  0  0  0  0
  151.2016  145.4374  160.0760 C   0  0  0  0  0  0  0  0  0  0  0  0
  149.9492  144.9947  159.3085 C   0  0  0  0  0  0  0  0  0  0  0  0
  149.9978  143.4986  158.9381 C   0  0  1  0  0  0  0  0  0  0  0  0
  148.8422  143.2351  158.1682 O   0  0  0  0  0  0  0  0  0  0  0  0
  146.1528  144.3906  153.8158 H   0  0  0  0  0  0  0  0  0  0  0  0
  144.9654  143.0997  154.0025 H   0  0  0  0  0  0  0  0  0  0  0  0
  146.0377  143.1269  152.5904 H   0  0  0  0  0  0  0  0  0  0  0  0
  146.4843  140.7068  155.1565 H   0  0  0  0  0  0  0  0  0  0  0  0
  145.9629  140.9974  153.5045 H   0  0  0  0  0  0  0  0  0  0  0  0
  147.9502  139.5171  153.4340 H   0  0  0  0  0  0  0  0  0  0  0  0
  148.3142  141.0499  152.7106 H   0  0  0  0  0  0  0  0  0  0  0  0
  151.0884  137.0578  153.1759 H   0  0  0  0  0  0  0  0  0  0  0  0
  153.1016  137.3519  154.6432 H   0  0  0  0  0  0  0  0  0  0  0  0
  153.2290  139.3443  156.1080 H   0  0  0  0  0  0  0  0  0  0  0  0
  151.2703  143.6274  157.1904 H   0  0  0  0  0  0  0  0  0  0  0  0
  152.6331  143.0585  159.8750 H   0  0  0  0  0  0  0  0  0  0  0  0
  153.4416  143.4173  158.3711 H   0  0  0  0  0  0  0  0  0  0  0  0
  153.3527  145.4142  159.8383 H   0  0  0  0  0  0  0  0  0  0  0  0
  152.4792  145.6976  158.3501 H   0  0  0  0  0  0  0  0  0  0  0  0
  151.2392  144.9323  161.0420 H   0  0  0  0  0  0  0  0  0  0  0  0
  151.1525  146.5063  160.2849 H   0  0  0  0  0  0  0  0  0  0  0  0
  149.0611  145.2033  159.9066 H   0  0  0  0  0  0  0  0  0  0  0  0
  149.8578  145.5961  158.4025 H   0  0  0  0  0  0  0  0  0  0  0  0
  149.9440  142.9007  159.8488 H   0  0  0  0  0  0  0  0  0  0  0  0
  148.9202  143.6885  157.3432 H   0  0  0  0  0  0  0  0  0  0  0  0
  1  2  1  0  0  0  0
  1 23  1  0  0  0  0
  1 24  1  0  0  0  0
  1 25  1  0  0  0  0
  2  3  1  0  0  0  0
  3  4  1  0  0  0  0
  3 26  1  0  0  0  0
  3 27  1  0  0  0  0
  4  5  1  0  0  0  0
  4 28  1  0  0  0  0
  4 29  1  0  0  0  0
  5  6  1  0  0  0  0
  6 11  1  0  0  0  0
  6  7  2  0  0  0  0
  7  8  1  0  0  0  0
  8  9  2  0  0  0  0
  8 30  1  0  0  0  0
  9 10  1  0  0  0  0
  9 31  1  0  0  0  0
 10 11  2  0  0  0  0
 10 32  1  0  0  0  0
 11 12  1  0  0  0  0
 12 13  1  0  0  0  0
 13 14  2  0  0  0  0
 13 15  2  0  0  0  0
 13 16  1  0  0  0  0
 16 21  1  0  0  0  0
 16 17  1  0  0  0  0
 16 33  1  0  0  0  0
 17 18  1  0  0  0  0
 17 34  1  0  0  0  0
 17 35  1  0  0  0  0
 18 19  1  0  0  0  0
 18 36  1  0  0  0  0
 18 37  1  0  0  0  0
 19 20  1  0  0  0  0
 19 38  1  0  0  0  0
 19 39  1  0  0  0  0
 20 21  1  0  0  0  0
 20 40  1  0  0  0  0
 20 41  1  0  0  0  0
 21 22  1  0  0  0  0
 21 42  1  0  0  0  0
 22 43  1  0  0  0  0
M  CHG  1  12  -1
M  END
> <s_m_source_file>
AV-unprocessed.smi

> <i_m_source_file_index>
763

> <i_lp_mmshare_version>
43012

> <i_f3d_flags>
0

> <s_epik_input>
W0NIM11PW0NIMl1bQ0gyXU9jMW5bY0hdW2NIXVtjSF1jMVtOSF1TKD1PKSg9TylbQ0BASF0yW0NIMl1bQ0gyXVtDSDJdW0NIMl1bQ0BIXTJbT0hd

> <s_epik_cmdline>
J2VwaWtfcHl0aG9uJywgJy1waCcsICc3LjAnLCAnLXRuJywgJzgnLCAnLW1hJywgJzIwMCcsICctbWV0YWxfYmluZGluZycsICctaW1hZScsICc8aW5maWxlLm1hZT4nLCAnLW9tYWUnLCAnPG91dGZpbGUubWFlPic=

> <r_epik_Ionization_Penalty>
0.985866

> <r_epik_Ionization_Penalty_Charging>
0.984689

> <r_epik_Ionization_Penalty_Neutral>
0.00117669

> <r_epik_State_Penalty>
1.03185

> <r_epik_Charging_Adjusted_Penalty>
2.01654

> <i_epik_Tot_Q>
-1

> <i_epik_Tot_abs_Q>
1

> <r_epik_Metal_State_Penalty>
0.379327

> <b_epik_Metal_Only>
0

> <s_lp_Force_Field>
OPLS_2005

> <r_lp_Energy>
11.4471

> <b_lp_Chiralities_Consistent>
1

> <s_lp_Variant>
AV-unprocessed.smi:763-5

> <Gold.Version>
5.8.1

> <Gold.Id.Protein>
6NUR|6NUR_protein|mol2

> <Gold.PLP.Fitness>
44.1099

> <Gold.PLP.PLP>
-40.7366

> <Gold.PLP.part.hbond>
-2.6520

> <Gold.PLP.part.metal>
0.0000

> <Gold.PLP.part.buried>
-0.5975

> <Gold.PLP.part.nonpolar>
-37.6876

> <Gold.PLP.part.repulsive>
0.6953

> <Gold.PLP.ligand.clash>
0.0000

> <Gold.PLP.ligand.torsion>
1.8122

> <Gold.PLP.Chemscore.Hbond>
0.9000

> <Gold.PLP.Chemscore.CHOScore>
1.0000

> <Gold.PLP.Chemscore.Metal>
0.0000

> <Gold.Chemscore.Hbonds>
donor molecule, donor type, donor heavy atom, donor atom, acceptor molecule, acceptor atom, score
      L1  H    22    43       P1  8028  0.90
      L1  C     8    30       P1  7949  0.92

> <Gold.PLP.Chemscore.Internal.Correction>
1.2977

> <Gold.Rescore>
     Score         DG    S(hbond)    S(metal)    S(lipo)     H(rot)  DE(clash)    DE(int)     intcor
     11.72     -14.72       0.52        0.00     115.67       2.35       1.03       1.97       ----

> <Gold.Chemscore.Fitness>
11.7208

> <Gold.Chemscore.DG>
-14.7222

> <Gold.Chemscore.ZeroCoef>
-5.4800

> <Gold.Chemscore.Hbond>
0.5170

> <Gold.Chemscore.Metal>
0.0000

> <Gold.Chemscore.Lipo>
115.6728

> <Gold.Chemscore.Internal_Hbond>
0.0000

> <Gold.Chemscore.DEClash>
1.0313

> <Gold.Chemscore.DEInternal>
1.9701

> <Gold.Chemscore.Rot>
2.3509

> <Gold.Chemscore.Internal.Correction>
   9.000000E+99

> <Gold.Chemscore.Hbonds>
donor molecule, donor type, donor heavy atom, donor atom, acceptor molecule, acceptor atom, score
      L1  H    22    43       P1  8028  0.18

> <Gold.Chemscore.Hbond.Weighted>
-1.7267

> <Gold.Chemscore.Metal.Weighted>
-0.0000

> <Gold.Chemscore.Lipo.Weighted>
-13.5337

> <Gold.Chemscore.Internal_Hbond.Weighted>
0.0000

> <Gold.Chemscore.DEClash.Weighted>
1.0313

> <Gold.Chemscore.DEInternal.Weighted>
1.9701

> <Gold.Chemscore.Rot.Weighted>
6.0182

> <Gold.Chemscore.Internal.Correction.Weighted>
   9.000000E+99

> <Gold.Protein.RotatedTorsions>
[ 6907 6896 6895 6894 ] final  -92.99 input  -60.11 | X-H torsion
[ 7974 7965 7964 7962 ] final  -55.69 input  175.53 | X-H torsion
[ 8008 7997 7996 7995 ] final -167.71 input   59.86 | X-H torsion
[ 10167 10162 10161 10158 ] final  144.28 input  -65.29 | X-H torsion
[ 10718 10713 10712 10709 ] final  117.01 input   66.30 | X-H torsion
[ 10763 10752 10751 10750 ] final  -85.35 input  -60.55 | X-H torsion
[ 11005 11000 10999 10996 ] final   19.78 input  -57.11 | X-H torsion

> <Gold.Protein.ActiveResidues>
 VAL166  LYS551  ARG553  GLY616  TRP617  ASP618  TYR619  PRO620  LYS621  CYS622 
 ASP623  PHE694  ASN695  SER759  ASP760  ASP761  ALA762  ILE779  LEU786  VAL792 
 PHE793  MET794  SER795  GLU796  ALA797  LYS798  CYS799  TRP800  GLU811  SER814 

> <Gold.Protein.RotatedAtoms>
  150.6915  134.2037  159.4331 H   0  0  0  0  0  0  0  0  0  0  0  0  # atno 6907 bound_to 6896
  152.0002  134.9930  160.0574 H   0  0  0  0  0  0  0  0  0  0  0  0  # atno 6908 bound_to 6896
  152.1586  133.4532  159.4886 H   0  0  0  0  0  0  0  0  0  0  0  0  # atno 6909 bound_to 6896
  145.8713  140.8214  142.9887 H   0  0  0  0  0  0  0  0  0  0  0  0  # atno 7974 bound_to 7965
  155.8814  140.1009  157.1482 H   0  0  0  0  0  0  0  0  0  0  0  0  # atno 8008 bound_to 7997
  154.4005  140.1328  156.4265 H   0  0  0  0  0  0  0  0  0  0  0  0  # atno 8009 bound_to 7997
  155.7638  140.3462  155.5214 H   0  0  0  0  0  0  0  0  0  0  0  0  # atno 8010 bound_to 7997
  139.4950  144.5982  151.6537 H   0  0  0  0  0  0  0  0  0  0  0  0  # atno 10167 bound_to 10162
  157.6124  131.1032  150.7554 H   0  0  0  0  0  0  0  0  0  0  0  0  # atno 10718 bound_to 10713
  154.6100  135.5488  153.7464 H   0  0  0  0  0  0  0  0  0  0  0  0  # atno 10763 bound_to 10752
  153.0191  135.6387  154.1591 H   0  0  0  0  0  0  0  0  0  0  0  0  # atno 10764 bound_to 10752
  154.1529  135.2901  155.3110 H   0  0  0  0  0  0  0  0  0  0  0  0  # atno 10765 bound_to 10752
  140.4100  134.1629  155.7667 H   0  0  0  0  0  0  0  0  0  0  0  0  # atno 11005 bound_to 11000
  144.6726  140.1243  143.7448 LP  0  0  0  0  0  0  0  0  0  0  0  0  # atno 17320 bound_to 7965
  145.9133  139.2500  143.1424 LP  0  0  0  0  0  0  0  0  0  0  0  0  # atno 17321 bound_to 7965
  140.5626  144.0244  150.6177 LP  0  0  0  0  0  0  0  0  0  0  0  0  # atno 17342 bound_to 10162
  140.3334  143.3063  152.0663 LP  0  0  0  0  0  0  0  0  0  0  0  0  # atno 17343 bound_to 10162
  156.7929  130.4896  149.5382 LP  0  0  0  0  0  0  0  0  0  0  0  0  # atno 17370 bound_to 10713
  156.1232  130.6125  151.0224 LP  0  0  0  0  0  0  0  0  0  0  0  0  # atno 17371 bound_to 10713
  141.1825  133.8384  157.1208 LP  0  0  0  0  0  0  0  0  0  0  0  0  # atno 17394 bound_to 11000
  140.0275  134.9917  157.0714 LP  0  0  0  0  0  0  0  0  0  0  0  0  # atno 17395 bound_to 11000

$$$$
