AV-unprocessed.smi:72|AV-procd|sdf|750|dock4
  -GOLD-   2262017 83D 1   1.00000     0.00000
 Structure written by MMmdl.
 29 30  0  0  0  0  0  0  0  0  1 V2000
  146.8642  139.5896  152.0017 N   0  0  0  0  0  0  0  0  0  0  0  0
  146.4120  138.2893  151.9190 C   0  0  0  0  0  0  0  0  0  0  0  0
  146.5073  137.6741  150.6629 N   0  0  0  0  0  0  0  0  0  0  0  0
  146.0775  136.4548  150.5807 C   0  0  0  0  0  0  0  0  0  0  0  0
  145.5195  135.7729  151.7349 N   0  0  0  0  0  0  0  0  0  0  0  0
  145.0199  134.3465  151.6370 C   0  0  1  0  0  0  0  0  0  0  0  0
  144.1885  134.2385  150.5245 O   0  0  0  0  0  0  0  0  0  0  0  0
  144.2814  132.9168  150.0169 C   0  0  1  0  0  0  0  0  0  0  0  0
  143.8020  132.8834  148.5579 C   0  0  0  0  0  0  0  0  0  0  0  0
  143.4568  134.1844  148.1333 O   0  0  0  0  0  0  0  0  0  0  0  0
  145.7718  132.5975  150.1799 C   0  0  2  0  0  0  0  0  0  0  0  0
  145.9635  131.2009  150.2896 O   0  0  0  0  0  0  0  0  0  0  0  0
  146.1474  133.2997  151.4824 C   0  0  1  0  0  0  0  0  0  0  0  0
  147.4514  133.8462  151.3984 O   0  0  0  0  0  0  0  0  0  0  0  0
  145.4726  136.4494  152.9841 C   0  0  0  0  0  0  0  0  0  0  0  0
  145.0383  135.8774  153.9839 O   0  0  0  0  0  0  0  0  0  0  0  0
  145.9452  137.7668  153.0170 N   0  0  0  0  0  0  0  0  0  0  0  0
  144.4030  134.1669  152.5189 H   0  0  0  0  0  0  0  0  0  0  0  0
  143.6863  132.2513  150.6463 H   0  0  0  0  0  0  0  0  0  0  0  0
  146.3390  133.0010  149.3390 H   0  0  0  0  0  0  0  0  0  0  0  0
  146.0909  132.6243  152.3375 H   0  0  0  0  0  0  0  0  0  0  0  0
  146.8466  140.1313  152.8534 H   0  0  0  0  0  0  0  0  0  0  0  0
  147.2456  140.0969  151.2165 H   0  0  0  0  0  0  0  0  0  0  0  0
  146.1105  135.8684  149.6612 H   0  0  0  0  0  0  0  0  0  0  0  0
  144.5594  132.4558  147.9002 H   0  0  0  0  0  0  0  0  0  0  0  0
  142.9094  132.2635  148.4705 H   0  0  0  0  0  0  0  0  0  0  0  0
  144.2493  134.6940  148.0583 H   0  0  0  0  0  0  0  0  0  0  0  0
  146.8795  131.0124  150.1545 H   0  0  0  0  0  0  0  0  0  0  0  0
  147.4237  134.7373  151.7116 H   0  0  0  0  0  0  0  0  0  0  0  0
  1  2  1  0  0  0  0
  1 22  1  0  0  0  0
  1 23  1  0  0  0  0
  2 17  2  0  0  0  0
  2  3  1  0  0  0  0
  3  4  2  0  0  0  0
  4  5  1  0  0  0  0
  4 24  1  0  0  0  0
  5  6  1  0  0  0  0
  5 15  1  0  0  0  0
  6 18  1  0  0  0  0
  6 13  1  0  0  0  0
  6  7  1  0  0  0  0
  7  8  1  0  0  0  0
  8 19  1  0  0  0  0
  8  9  1  0  0  0  0
  8 11  1  0  0  0  0
  9 10  1  0  0  0  0
  9 25  1  0  0  0  0
  9 26  1  0  0  0  0
 10 27  1  0  0  0  0
 11 20  1  0  0  0  0
 11 12  1  0  0  0  0
 11 13  1  0  0  0  0
 12 28  1  0  0  0  0
 13 21  1  0  0  0  0
 13 14  1  0  0  0  0
 14 29  1  0  0  0  0
 15 16  2  0  0  0  0
 15 17  1  0  0  0  0
M  END
> <s_m_source_file>
AV-unprocessed.smi

> <i_m_source_file_index>
72

> <i_lp_mmshare_version>
43012

> <i_f3d_flags>
0

> <s_epik_input>
W05IMl1jMW5bY0hdbihjKD1PKW4xKVtDQEBIXTJPW0NASF0oW0NIMl1bT0hdKVtDQEBIXShbT0hdKVtDQEhdMltPSF0=

> <s_epik_cmdline>
J2VwaWtfcHl0aG9uJywgJy1waCcsICc3LjAnLCAnLXRuJywgJzgnLCAnLW1hJywgJzIwMCcsICctbWV0YWxfYmluZGluZycsICctaW1hZScsICc8aW5maWxlLm1hZT4nLCAnLW9tYWUnLCAnPG91dGZpbGUubWFlPic=

> <r_lp_tautomer_probability>
4.77166e-05

> <r_epik_Ionization_Penalty>
1.3546

> <r_epik_Ionization_Penalty_Charging>
1.46833e-10

> <r_epik_Ionization_Penalty_Neutral>
1.3546

> <r_epik_State_Penalty>
3.51908

> <r_epik_Charging_Adjusted_Penalty>
3.51908

> <i_epik_Tot_Q>
0

> <i_epik_Tot_abs_Q>
0

> <r_epik_Metal_State_Penalty>
3.44088

> <b_epik_Metal_Only>
1

> <s_epik_Chemistry_Notes>
This compound contains an acetal/aminal-like group ( X-CH(R)-Y where X, Y are N, S, or O) that may be acid/base labile, releasing an aldehyde.

> <s_lp_Force_Field>
OPLS_2005

> <r_lp_Energy>
31.5358

> <b_lp_Chiralities_Consistent>
1

> <s_lp_Variant>
AV-unprocessed.smi:72-88

> <Gold.Version>
5.8.1

> <Gold.Id.Protein>
6NUR|6NUR_protein|mol2

> <Gold.PLP.Fitness>
40.5091

> <Gold.PLP.PLP>
-26.0317

> <Gold.PLP.part.hbond>
-7.5010

> <Gold.PLP.part.metal>
0.0000

> <Gold.PLP.part.buried>
0.5172

> <Gold.PLP.part.nonpolar>
-20.8602

> <Gold.PLP.part.repulsive>
2.8647

> <Gold.PLP.ligand.clash>
0.0000

> <Gold.PLP.ligand.torsion>
0.9982

> <Gold.PLP.Chemscore.Hbond>
4.4119

> <Gold.PLP.Chemscore.CHOScore>
1.0000

> <Gold.PLP.Chemscore.Metal>
0.0000

> <Gold.Chemscore.Hbonds>
donor molecule, donor type, donor heavy atom, donor atom, acceptor molecule, acceptor atom, score
      L1  H     1    23       P1  7957  0.08
      L1  H    10    27       P1  7921  0.99
      L1  H    12    28       P1 10747  0.84
      L1  H    14    29       P1  7948  0.50
      P1  H  7954  7966       L1     3  1.00
      P1  H 10192 10197       L1    10  1.00
      L1  C     4    24       P1  7921  1.00

> <Gold.PLP.Chemscore.Internal.Correction>
0.2382

> <Gold.Rescore>
     Score         DG    S(hbond)    S(metal)    S(lipo)     H(rot)  DE(clash)    DE(int)     intcor
      8.26     -12.07       3.72        0.00      38.88       4.06       2.75       1.07       ----

> <Gold.Chemscore.Fitness>
8.2612

> <Gold.Chemscore.DG>
-12.0747

> <Gold.Chemscore.ZeroCoef>
-5.4800

> <Gold.Chemscore.Hbond>
3.7245

> <Gold.Chemscore.Metal>
0.0000

> <Gold.Chemscore.Lipo>
38.8762

> <Gold.Chemscore.Internal_Hbond>
0.0000

> <Gold.Chemscore.DEClash>
2.7454

> <Gold.Chemscore.DEInternal>
1.0682

> <Gold.Chemscore.Rot>
4.0600

> <Gold.Chemscore.Internal.Correction>
   9.000000E+99

> <Gold.Chemscore.Hbonds>
donor molecule, donor type, donor heavy atom, donor atom, acceptor molecule, acceptor atom, score
      L1  H     1    23       P1  7957  0.08
      L1  H    10    27       P1  7921  0.94
      L1  H    12    28       P1 10747  0.82
      L1  H    14    29       P1  7948  0.30
      P1  H  7954  7966       L1     3  0.67
      P1  H 10192 10197       L1    10  0.58

> <Gold.Chemscore.Hbond.Weighted>
-12.4398

> <Gold.Chemscore.Metal.Weighted>
-0.0000

> <Gold.Chemscore.Lipo.Weighted>
-4.5485

> <Gold.Chemscore.Internal_Hbond.Weighted>
0.0000

> <Gold.Chemscore.DEClash.Weighted>
2.7454

> <Gold.Chemscore.DEInternal.Weighted>
1.0682

> <Gold.Chemscore.Rot.Weighted>
10.3936

> <Gold.Chemscore.Internal.Correction.Weighted>
   9.000000E+99

> <Gold.Protein.RotatedTorsions>
[ 6907 6896 6895 6894 ] final   36.29 input  -60.11 | X-H torsion
[ 7974 7965 7964 7962 ] final  156.13 input  175.53 | X-H torsion
[ 8008 7997 7996 7995 ] final   39.11 input   59.86 | X-H torsion
[ 10167 10162 10161 10158 ] final   31.45 input  -65.29 | X-H torsion
[ 10718 10713 10712 10709 ] final -161.19 input   66.30 | X-H torsion
[ 10763 10752 10751 10750 ] final  -85.71 input  -60.55 | X-H torsion
[ 11005 11000 10999 10996 ] final  165.60 input  -57.11 | X-H torsion

> <Gold.Protein.ActiveResidues>
 VAL166  LYS551  ARG553  GLY616  TRP617  ASP618  TYR619  PRO620  LYS621  CYS622 
 ASP623  PHE694  ASN695  SER759  ASP760  ASP761  ALA762  ILE779  LEU786  VAL792 
 PHE793  MET794  SER795  GLU796  ALA797  LYS798  CYS799  TRP800  GLU811  SER814 

> <Gold.Protein.RotatedAtoms>
  152.1277  134.9158  160.0559 H   0  0  0  0  0  0  0  0  0  0  0  0  # atno 6907 bound_to 6896
  152.0274  133.3918  159.4291 H   0  0  0  0  0  0  0  0  0  0  0  0  # atno 6908 bound_to 6896
  150.6854  134.3480  159.4940 H   0  0  0  0  0  0  0  0  0  0  0  0  # atno 6909 bound_to 6896
  144.7982  139.7162  143.6193 H   0  0  0  0  0  0  0  0  0  0  0  0  # atno 7974 bound_to 7965
  155.2312  140.3338  155.4303 H   0  0  0  0  0  0  0  0  0  0  0  0  # atno 8008 bound_to 7997
  156.2294  140.1844  156.7327 H   0  0  0  0  0  0  0  0  0  0  0  0  # atno 8009 bound_to 7997
  154.5952  140.0631  156.9279 H   0  0  0  0  0  0  0  0  0  0  0  0  # atno 8010 bound_to 7997
  140.4587  144.0939  150.6208 H   0  0  0  0  0  0  0  0  0  0  0  0  # atno 10167 bound_to 10162
  156.5927  130.8777  151.2894 H   0  0  0  0  0  0  0  0  0  0  0  0  # atno 10718 bound_to 10713
  154.6142  135.5475  153.7505 H   0  0  0  0  0  0  0  0  0  0  0  0  # atno 10763 bound_to 10752
  153.0208  135.6397  154.1535 H   0  0  0  0  0  0  0  0  0  0  0  0  # atno 10764 bound_to 10752
  154.1471  135.2905  155.3125 H   0  0  0  0  0  0  0  0  0  0  0  0  # atno 10765 bound_to 10752
  140.2578  134.7926  157.3562 H   0  0  0  0  0  0  0  0  0  0  0  0  # atno 11005 bound_to 11000
  146.2256  139.5717  142.9589 LP  0  0  0  0  0  0  0  0  0  0  0  0  # atno 17320 bound_to 7965
  145.5620  141.0403  143.2221 LP  0  0  0  0  0  0  0  0  0  0  0  0  # atno 17321 bound_to 7965
  140.4119  143.2652  151.9822 LP  0  0  0  0  0  0  0  0  0  0  0  0  # atno 17342 bound_to 10162
  139.4804  144.5908  151.7776 LP  0  0  0  0  0  0  0  0  0  0  0  0  # atno 17343 bound_to 10162
  157.7299  130.9678  150.1810 LP  0  0  0  0  0  0  0  0  0  0  0  0  # atno 17370 bound_to 10713
  156.2536  130.3703  149.8206 LP  0  0  0  0  0  0  0  0  0  0  0  0  # atno 17371 bound_to 10713
  140.1494  134.4869  155.7972 LP  0  0  0  0  0  0  0  0  0  0  0  0  # atno 17394 bound_to 11000
  141.2194  133.6856  156.7351 LP  0  0  0  0  0  0  0  0  0  0  0  0  # atno 17395 bound_to 11000

$$$$
