AV-unprocessed.smi:2606|AV-procd|sdf|10197|dock1
  -GOLD-   2272014203D 1   1.00000     0.00000
 Structure written by MMmdl.
 42 43  0  0  0  0  0  0  0  0  1 V2000
  152.1772  136.9667  155.9313 O   0  0  0  0  0  0  0  0  0  0  0  0
  151.4897  137.1598  154.9270 C   0  0  0  0  0  0  0  0  0  0  0  0
  151.6144  138.4932  154.1826 C   0  0  0  0  0  0  0  0  0  0  0  0
  150.9045  139.5732  154.8856 N   0  0  0  0  0  0  0  0  0  0  0  0
  149.6630  139.9718  154.3523 C   0  0  0  0  0  0  0  0  0  0  0  0
  148.9163  140.9562  154.8882 C   0  0  0  0  0  0  0  0  0  0  0  0
  147.5561  141.3283  154.3188 C   0  0  0  0  0  0  0  0  0  0  0  0
  146.5810  141.0521  155.1852 F   0  0  0  0  0  0  0  0  0  0  0  0
  147.5182  142.6332  154.0533 F   0  0  0  0  0  0  0  0  0  0  0  0
  147.3107  140.6671  153.1870 F   0  0  0  0  0  0  0  0  0  0  0  0
  149.4385  141.5817  156.0872 C   0  0  0  0  0  0  0  0  0  0  0  0
  150.6212  141.2087  156.6138 C   0  0  0  0  0  0  0  0  0  0  0  0
  151.4347  140.1548  156.0032 C   0  0  0  0  0  0  0  0  0  0  0  0
  152.5251  139.8182  156.4657 O   0  0  0  0  0  0  0  0  0  0  0  0
  150.6072  136.2822  154.4073 N   0  0  0  0  0  0  0  0  0  0  0  0
  150.2974  135.0564  154.8697 C   0  0  0  0  0  0  0  0  0  0  0  0
  150.7818  134.5211  155.8694 O   0  0  0  0  0  0  0  0  0  0  0  0
  149.3744  134.4705  154.0928 N   0  0  0  0  0  0  0  0  0  0  0  0
  148.8131  133.1395  154.3053 C   0  0  0  0  0  0  0  0  0  0  0  0
  149.9363  132.0947  154.4710 C   0  0  0  0  0  0  0  0  0  0  0  0
  149.3664  130.6742  154.6156 C   0  0  0  0  0  0  0  0  0  0  0  0
  148.4517  130.3164  153.4340 C   0  0  0  0  0  0  0  0  0  0  0  0
  147.3276  131.3515  153.2709 C   0  0  0  0  0  0  0  0  0  0  0  0
  147.8957  132.7726  153.1235 C   0  0  0  0  0  0  0  0  0  0  0  0
  152.6716  138.7423  154.0792 H   0  0  0  0  0  0  0  0  0  0  0  0
  151.2534  138.3782  153.1586 H   0  0  0  0  0  0  0  0  0  0  0  0
  149.3579  139.4250  153.4714 H   0  0  0  0  0  0  0  0  0  0  0  0
  148.8742  142.3661  156.5697 H   0  0  0  0  0  0  0  0  0  0  0  0
  150.9806  141.6989  157.5069 H   0  0  0  0  0  0  0  0  0  0  0  0
  150.1144  136.5861  153.5801 H   0  0  0  0  0  0  0  0  0  0  0  0
  149.0299  134.9840  153.2946 H   0  0  0  0  0  0  0  0  0  0  0  0
  148.2060  133.1515  155.2128 H   0  0  0  0  0  0  0  0  0  0  0  0
  150.6042  132.1296  153.6089 H   0  0  0  0  0  0  0  0  0  0  0  0
  150.5468  132.3312  155.3433 H   0  0  0  0  0  0  0  0  0  0  0  0
  150.1807  129.9528  154.6877 H   0  0  0  0  0  0  0  0  0  0  0  0
  148.8045  130.6005  155.5475 H   0  0  0  0  0  0  0  0  0  0  0  0
  149.0404  130.2684  152.5168 H   0  0  0  0  0  0  0  0  0  0  0  0
  148.0253  129.3238  153.5805 H   0  0  0  0  0  0  0  0  0  0  0  0
  146.7172  131.1033  152.4021 H   0  0  0  0  0  0  0  0  0  0  0  0
  146.6649  131.3107  154.1364 H   0  0  0  0  0  0  0  0  0  0  0  0
  147.0760  133.4887  153.0494 H   0  0  0  0  0  0  0  0  0  0  0  0
  148.4519  132.8424  152.1873 H   0  0  0  0  0  0  0  0  0  0  0  0
  1  2  2  0  0  0  0
  2  3  1  0  0  0  0
  2 15  1  0  0  0  0
  3  4  1  0  0  0  0
  3 25  1  0  0  0  0
  3 26  1  0  0  0  0
  4 13  1  0  0  0  0
  4  5  1  0  0  0  0
  5  6  2  0  0  0  0
  5 27  1  0  0  0  0
  6  7  1  0  0  0  0
  6 11  1  0  0  0  0
  7  8  1  0  0  0  0
  7  9  1  0  0  0  0
  7 10  1  0  0  0  0
 11 12  2  0  0  0  0
 11 28  1  0  0  0  0
 12 13  1  0  0  0  0
 12 29  1  0  0  0  0
 13 14  2  0  0  0  0
 15 16  1  0  0  0  0
 15 30  1  0  0  0  0
 16 17  2  0  0  0  0
 16 18  1  0  0  0  0
 18 19  1  0  0  0  0
 18 31  1  0  0  0  0
 19 24  1  0  0  0  0
 19 20  1  0  0  0  0
 19 32  1  0  0  0  0
 20 21  1  0  0  0  0
 20 33  1  0  0  0  0
 20 34  1  0  0  0  0
 21 22  1  0  0  0  0
 21 35  1  0  0  0  0
 21 36  1  0  0  0  0
 22 23  1  0  0  0  0
 22 37  1  0  0  0  0
 22 38  1  0  0  0  0
 23 24  1  0  0  0  0
 23 39  1  0  0  0  0
 23 40  1  0  0  0  0
 24 41  1  0  0  0  0
 24 42  1  0  0  0  0
M  END
> <s_m_source_file>
AV-unprocessed.smi

> <i_m_source_file_index>
2606

> <i_lp_mmshare_version>
43012

> <i_f3d_flags>
0

> <s_epik_input>
Tz1jMVtjSF1bY0hdYyhDKEYpKEYpRilbY0hdbjFbQ0gyXUMoPU8pW05IXUMoPU8pW05IXVtDSF0yW0NIMl1bQ0gyXVtDSDJdW0NIMl1bQ0gyXTI=

> <s_epik_cmdline>
J2VwaWtfcHl0aG9uJywgJy1waCcsICc3LjAnLCAnLXRuJywgJzgnLCAnLW1hJywgJzIwMCcsICctbWV0YWxfYmluZGluZycsICctaW1hZScsICc8aW5maWxlLm1hZT4nLCAnLW9tYWUnLCAnPG91dGZpbGUubWFlPic=

> <r_lp_tautomer_probability>
1

> <r_epik_Ionization_Penalty>
3.27177e-05

> <r_epik_Ionization_Penalty_Charging>
1.42456e-08

> <r_epik_Ionization_Penalty_Neutral>
3.27035e-05

> <r_epik_State_Penalty>
-0

> <r_epik_Charging_Adjusted_Penalty>
1.42456e-08

> <i_epik_Tot_Q>
0

> <i_epik_Tot_abs_Q>
0

> <r_epik_Metal_State_Penalty>
-0

> <b_epik_Metal_Only>
0

> <s_lp_Force_Field>
OPLS_2005

> <r_lp_Energy>
22.0809

> <b_lp_Chiralities_Consistent>
1

> <s_lp_Variant>
AV-unprocessed.smi:2606-1

> <Gold.Version>
5.8.1

> <Gold.Id.Protein>
6NUR|6NUR_protein|mol2

> <Gold.PLP.Fitness>
55.5945

> <Gold.PLP.PLP>
-44.7688

> <Gold.PLP.part.hbond>
-5.0000

> <Gold.PLP.part.metal>
0.0000

> <Gold.PLP.part.buried>
-0.4454

> <Gold.PLP.part.nonpolar>
-38.5309

> <Gold.PLP.part.repulsive>
0.1502

> <Gold.PLP.ligand.clash>
1.2430

> <Gold.PLP.ligand.torsion>
0.5602

> <Gold.PLP.Chemscore.Hbond>
3.4464

> <Gold.PLP.Chemscore.CHOScore>
0.9129

> <Gold.PLP.Chemscore.Metal>
0.0000

> <Gold.Chemscore.Hbonds>
donor molecule, donor type, donor heavy atom, donor atom, acceptor molecule, acceptor atom, score
      L1  H    15    30       P1  7948  0.69
      L1  H    18    31       P1  7948  0.95
      P1  H  7997  8008       L1    14  1.00
      P1  H 10752 10765       L1     1  0.14
      L1  C     5    27       P1  7957  0.98

> <Gold.PLP.Chemscore.Internal.Correction>
0.1111

> <Gold.Rescore>
     Score         DG    S(hbond)    S(metal)    S(lipo)     H(rot)  DE(clash)    DE(int)     intcor
     13.47     -16.72       2.35        0.00      65.04       1.65       0.18       3.07       ----

> <Gold.Chemscore.Fitness>
13.4684

> <Gold.Chemscore.DG>
-16.7166

> <Gold.Chemscore.ZeroCoef>
-5.4800

> <Gold.Chemscore.Hbond>
2.3498

> <Gold.Chemscore.Metal>
0.0000

> <Gold.Chemscore.Lipo>
65.0428

> <Gold.Chemscore.Internal_Hbond>
0.0000

> <Gold.Chemscore.DEClash>
0.1777

> <Gold.Chemscore.DEInternal>
3.0704

> <Gold.Chemscore.Rot>
1.6491

> <Gold.Chemscore.Internal.Correction>
   9.000000E+99

> <Gold.Chemscore.Hbonds>
donor molecule, donor type, donor heavy atom, donor atom, acceptor molecule, acceptor atom, score
      L1  H    15    30       P1  7948  0.08
      L1  H    18    31       P1  7948  0.21
      P1  H  7997  8008       L1    14  1.00

> <Gold.Chemscore.Hbond.Weighted>
-7.8482

> <Gold.Chemscore.Metal.Weighted>
-0.0000

> <Gold.Chemscore.Lipo.Weighted>
-7.6100

> <Gold.Chemscore.Internal_Hbond.Weighted>
0.0000

> <Gold.Chemscore.DEClash.Weighted>
0.1777

> <Gold.Chemscore.DEInternal.Weighted>
3.0704

> <Gold.Chemscore.Rot.Weighted>
4.2216

> <Gold.Chemscore.Internal.Correction.Weighted>
   9.000000E+99

> <Gold.Protein.RotatedTorsions>
[ 6907 6896 6895 6894 ] final  -50.94 input  -60.11 | X-H torsion
[ 7974 7965 7964 7962 ] final -168.59 input  175.53 | X-H torsion
[ 8008 7997 7996 7995 ] final  -51.26 input   59.86 | X-H torsion
[ 10167 10162 10161 10158 ] final -122.76 input  -65.29 | X-H torsion
[ 10718 10713 10712 10709 ] final  154.54 input   66.30 | X-H torsion
[ 10763 10752 10751 10750 ] final -169.41 input  -60.55 | X-H torsion
[ 11005 11000 10999 10996 ] final  -13.65 input  -57.11 | X-H torsion

> <Gold.Protein.ActiveResidues>
 VAL166  LYS551  ARG553  GLY616  TRP617  ASP618  TYR619  PRO620  LYS621  CYS622 
 ASP623  PHE694  ASN695  SER759  ASP760  ASP761  ALA762  ILE779  LEU786  VAL792 
 PHE793  MET794  SER795  GLU796  ALA797  LYS798  CYS799  TRP800  GLU811  SER814 

> <Gold.Protein.RotatedAtoms>
  150.8658  134.8021  159.7117 H   0  0  0  0  0  0  0  0  0  0  0  0  # atno 6907 bound_to 6896
  152.4680  134.5025  159.9739 H   0  0  0  0  0  0  0  0  0  0  0  0  # atno 6908 bound_to 6896
  151.5122  133.3444  159.2922 H   0  0  0  0  0  0  0  0  0  0  0  0  # atno 6909 bound_to 6896
  144.7200  140.2348  143.6299 H   0  0  0  0  0  0  0  0  0  0  0  0  # atno 7974 bound_to 7965
  154.4079  140.1252  156.4800 H   0  0  0  0  0  0  0  0  0  0  0  0  # atno 8008 bound_to 7997
  155.7095  140.3494  155.4948 H   0  0  0  0  0  0  0  0  0  0  0  0  # atno 8009 bound_to 7997
  155.9313  140.1070  157.1120 H   0  0  0  0  0  0  0  0  0  0  0  0  # atno 8010 bound_to 7997
  140.0108  143.5444  152.2264 H   0  0  0  0  0  0  0  0  0  0  0  0  # atno 10167 bound_to 10162
  157.2303  131.0737  151.1857 H   0  0  0  0  0  0  0  0  0  0  0  0  # atno 10718 bound_to 10713
  154.6526  135.2913  154.9968 H   0  0  0  0  0  0  0  0  0  0  0  0  # atno 10763 bound_to 10752
  154.1056  135.6570  153.4880 H   0  0  0  0  0  0  0  0  0  0  0  0  # atno 10764 bound_to 10752
  153.0384  135.5253  154.7440 H   0  0  0  0  0  0  0  0  0  0  0  0  # atno 10765 bound_to 10752
  140.7783  133.8383  155.9268 H   0  0  0  0  0  0  0  0  0  0  0  0  # atno 11005 bound_to 11000
  145.8376  139.2115  143.1846 LP  0  0  0  0  0  0  0  0  0  0  0  0  # atno 17320 bound_to 7965
  146.0375  140.8198  142.9845 LP  0  0  0  0  0  0  0  0  0  0  0  0  # atno 17321 bound_to 7965
  139.6207  144.7628  151.2748 LP  0  0  0  0  0  0  0  0  0  0  0  0  # atno 17342 bound_to 10162
  140.7382  143.6655  150.8127 LP  0  0  0  0  0  0  0  0  0  0  0  0  # atno 17343 bound_to 10162
  157.3485  130.7070  149.6426 LP  0  0  0  0  0  0  0  0  0  0  0  0  # atno 17370 bound_to 10713
  155.9676  130.4259  150.4676 LP  0  0  0  0  0  0  0  0  0  0  0  0  # atno 17371 bound_to 10713
  140.9508  134.1782  157.4729 LP  0  0  0  0  0  0  0  0  0  0  0  0  # atno 17394 bound_to 11000
  139.8746  134.9908  156.5520 LP  0  0  0  0  0  0  0  0  0  0  0  0  # atno 17395 bound_to 11000

$$$$
