AV-unprocessed.smi:2027|AV-procd|sdf|8218|dock5
  -GOLD-   2272010483D 1   1.00000     0.00000
 Structure written by MMmdl.
 51 53  0  0  0  0  0  0  0  0  3 V2000
  152.6593  143.4331  160.5721 C   0  0  0  0  0  0  0  0  0  0  0  0
  152.2206  142.5846  159.3905 C   0  0  0  0  0  0  0  0  0  0  0  0
  151.3007  143.1347  158.4698 C   0  0  0  0  0  0  0  0  0  0  0  0
  150.9167  142.3336  157.4011 C   0  0  0  0  0  0  0  0  0  0  0  0
  150.0405  142.5812  156.3425 N   0  3  0  0  0  0  0  0  0  0  0  0
  149.9805  141.4858  155.5360 C   0  0  0  0  0  0  0  0  0  0  0  0
  150.8079  140.5416  156.0624 N   0  0  0  0  0  0  0  0  0  0  0  0
  151.0965  139.1791  155.5904 C   0  0  0  0  0  0  0  0  0  0  0  0
  150.0942  138.6831  154.5301 C   0  0  1  0  0  0  0  0  0  0  0  0
  150.6644  137.6146  153.8001 O   0  0  0  0  0  0  0  0  0  0  0  0
  148.7834  138.1911  155.1762 C   0  0  0  0  0  0  0  0  0  0  0  0
  147.9317  137.4336  154.2232 N   0  3  1  0  0  0  0  0  0  0  0  0
  147.2079  136.3250  154.8899 C   0  0  0  0  0  0  0  0  0  0  0  0
  147.0329  138.3085  153.4261 C   0  0  0  0  0  0  0  0  0  0  0  0
  145.9510  137.5151  152.7449 C   0  0  0  0  0  0  0  0  0  0  0  0
  144.5419  137.6496  152.9025 C   0  0  0  0  0  0  0  0  0  0  0  0
  143.8576  136.7976  152.1578 N   0  0  0  0  0  0  0  0  0  0  0  0
  144.8006  136.0877  151.5053 N   0  0  0  0  0  0  0  0  0  0  0  0
  144.4003  135.0417  150.5887 C   0  0  0  0  0  0  0  0  0  0  0  0
  146.0728  136.4964  151.8417 C   0  0  0  0  0  0  0  0  0  0  0  0
  151.4142  141.0269  157.2282 C   0  0  0  0  0  0  0  0  0  0  0  0
  152.3248  140.4717  158.1249 C   0  0  0  0  0  0  0  0  0  0  0  0
  152.7271  141.2703  159.2192 C   0  0  0  0  0  0  0  0  0  0  0  0
  153.7183  140.6899  160.2137 C   0  0  0  0  0  0  0  0  0  0  0  0
  152.1468  144.3957  160.5847 H   0  0  0  0  0  0  0  0  0  0  0  0
  153.7313  143.6259  160.5266 H   0  0  0  0  0  0  0  0  0  0  0  0
  152.4374  142.9274  161.5122 H   0  0  0  0  0  0  0  0  0  0  0  0
  150.9120  144.1352  158.5932 H   0  0  0  0  0  0  0  0  0  0  0  0
  149.3807  141.3841  154.6429 H   0  0  0  0  0  0  0  0  0  0  0  0
  152.1209  139.1331  155.2207 H   0  0  0  0  0  0  0  0  0  0  0  0
  151.0607  138.5264  156.4635 H   0  0  0  0  0  0  0  0  0  0  0  0
  149.8967  139.4977  153.8338 H   0  0  0  0  0  0  0  0  0  0  0  0
  149.9963  137.2384  153.2467 H   0  0  0  0  0  0  0  0  0  0  0  0
  149.0373  137.5642  156.0330 H   0  0  0  0  0  0  0  0  0  0  0  0
  148.2115  139.0293  155.5779 H   0  0  0  0  0  0  0  0  0  0  0  0
  146.5009  136.7079  155.6271 H   0  0  0  0  0  0  0  0  0  0  0  0
  147.9059  135.6602  155.3999 H   0  0  0  0  0  0  0  0  0  0  0  0
  146.6579  135.7187  154.1705 H   0  0  0  0  0  0  0  0  0  0  0  0
  146.6123  139.0775  154.0759 H   0  0  0  0  0  0  0  0  0  0  0  0
  147.6102  138.8471  152.6756 H   0  0  0  0  0  0  0  0  0  0  0  0
  143.9997  138.3406  153.5312 H   0  0  0  0  0  0  0  0  0  0  0  0
  145.2684  134.6689  150.0444 H   0  0  0  0  0  0  0  0  0  0  0  0
  143.6755  135.4313  149.8730 H   0  0  0  0  0  0  0  0  0  0  0  0
  143.9495  134.2190  151.1443 H   0  0  0  0  0  0  0  0  0  0  0  0
  146.9506  136.0348  151.4136 H   0  0  0  0  0  0  0  0  0  0  0  0
  152.7147  139.4728  157.9967 H   0  0  0  0  0  0  0  0  0  0  0  0
  154.0266  139.6832  159.9294 H   0  0  0  0  0  0  0  0  0  0  0  0
  153.2740  140.6335  161.2078 H   0  0  0  0  0  0  0  0  0  0  0  0
  154.6140  141.3091  160.2685 H   0  0  0  0  0  0  0  0  0  0  0  0
  148.5707  136.9985  153.5724 H   0  0  0  0  0  0  0  0  0  0  0  0
  149.5168  143.4328  156.1832 H   0  0  0  0  0  0  0  0  0  0  0  0
  1  2  1  0  0  0  0
  1 25  1  0  0  0  0
  1 26  1  0  0  0  0
  1 27  1  0  0  0  0
  2 23  1  0  0  0  0
  2  3  2  0  0  0  0
  3  4  1  0  0  0  0
  3 28  1  0  0  0  0
  4 21  2  0  0  0  0
  4  5  1  0  0  0  0
  5  6  2  0  0  0  0
  5 51  1  0  0  0  0
  6  7  1  0  0  0  0
  6 29  1  0  0  0  0
  7  8  1  0  0  0  0
  7 21  1  0  0  0  0
  8  9  1  0  0  0  0
  8 30  1  0  0  0  0
  8 31  1  0  0  0  0
  9 10  1  0  0  0  0
  9 11  1  0  0  0  0
  9 32  1  0  0  0  0
 10 33  1  0  0  0  0
 11 12  1  0  0  0  0
 11 34  1  0  0  0  0
 11 35  1  0  0  0  0
 12 13  1  0  0  0  0
 12 14  1  0  0  0  0
 12 50  1  0  0  0  0
 13 36  1  0  0  0  0
 13 37  1  0  0  0  0
 13 38  1  0  0  0  0
 14 15  1  0  0  0  0
 14 39  1  0  0  0  0
 14 40  1  0  0  0  0
 15 20  2  0  0  0  0
 15 16  1  0  0  0  0
 16 17  2  0  0  0  0
 16 41  1  0  0  0  0
 17 18  1  0  0  0  0
 18 19  1  0  0  0  0
 18 20  1  0  0  0  0
 19 42  1  0  0  0  0
 19 43  1  0  0  0  0
 19 44  1  0  0  0  0
 20 45  1  0  0  0  0
 21 22  1  0  0  0  0
 22 23  2  0  0  0  0
 22 46  1  0  0  0  0
 23 24  1  0  0  0  0
 24 47  1  0  0  0  0
 24 48  1  0  0  0  0
 24 49  1  0  0  0  0
M  CHG  1   5   1
M  CHG  1  12   1
M  END
> <s_m_source_file>
AV-unprocessed.smi

> <i_m_source_file_index>
2027

> <i_lp_mmshare_version>
43012

> <i_f3d_flags>
0

> <s_epik_input>
W0NIM11jKFtjSF0xKWMoW0NIM10pW2NIXWMoYzEyKW4oW2NIXW4yKVtDSDJdW0NASF0oW09IXSlbQ0gyXU4oW0NIM10pW0NIMl1jM1tjSF1ubihbQ0gzXSlbY0hdMw==

> <s_epik_cmdline>
J2VwaWtfcHl0aG9uJywgJy1waCcsICc3LjAnLCAnLXRuJywgJzgnLCAnLW1hJywgJzIwMCcsICctbWV0YWxfYmluZGluZycsICctaW1hZScsICc8aW5maWxlLm1hZT4nLCAnLW9tYWUnLCAnPG91dGZpbGUubWFlPic=

> <r_lp_tautomer_probability>
1

> <r_epik_Ionization_Penalty>
1.77469

> <r_epik_Ionization_Penalty_Charging>
1.77463

> <r_epik_Ionization_Penalty_Neutral>
6.41153e-05

> <r_epik_State_Penalty>
1.85225

> <r_epik_Charging_Adjusted_Penalty>
3.62688

> <i_epik_Tot_Q>
2

> <i_epik_Tot_abs_Q>
2

> <r_epik_Metal_State_Penalty>
1.92669

> <b_epik_Metal_Only>
0

> <s_lp_Force_Field>
OPLS_2005

> <r_lp_Energy>
18.885

> <b_lp_Chiralities_Consistent>
1

> <s_lp_Variant>
AV-unprocessed.smi:2027-10

> <Gold.Version>
5.8.1

> <Gold.Id.Protein>
6NUR|6NUR_protein|mol2

> <Gold.PLP.Fitness>
60.7985

> <Gold.PLP.PLP>
-43.0260

> <Gold.PLP.part.hbond>
-3.9752

> <Gold.PLP.part.metal>
0.0000

> <Gold.PLP.part.buried>
-2.6537

> <Gold.PLP.part.nonpolar>
-38.0021

> <Gold.PLP.part.repulsive>
0.3649

> <Gold.PLP.ligand.clash>
0.0000

> <Gold.PLP.ligand.torsion>
1.0156

> <Gold.PLP.Chemscore.Hbond>
5.0000

> <Gold.PLP.Chemscore.CHOScore>
1.5793

> <Gold.PLP.Chemscore.Metal>
0.0000

> <Gold.Chemscore.Hbonds>
donor molecule, donor type, donor heavy atom, donor atom, acceptor molecule, acceptor atom, score
      L1  H     5    51       P1  8028  1.98
      L1  H    10    33       P1  7948  1.00
      L1  H    12    50       P1  7948  2.00
      L1  C    16    41       P1 10175  0.65
      L1  C    20    45       P1  7948  0.98

> <Gold.PLP.Chemscore.Internal.Correction>
0.0659

> <Gold.Rescore>
     Score         DG    S(hbond)    S(metal)    S(lipo)     H(rot)  DE(clash)    DE(int)     intcor
     18.56     -19.70       2.40        0.00     109.52       2.58       0.06       1.08       ----

> <Gold.Chemscore.Fitness>
18.5582

> <Gold.Chemscore.DG>
-19.6987

> <Gold.Chemscore.ZeroCoef>
-5.4800

> <Gold.Chemscore.Hbond>
2.4007

> <Gold.Chemscore.Metal>
0.0000

> <Gold.Chemscore.Lipo>
109.5248

> <Gold.Chemscore.Internal_Hbond>
0.0000

> <Gold.Chemscore.DEClash>
0.0572

> <Gold.Chemscore.DEInternal>
1.0832

> <Gold.Chemscore.Rot>
2.5836

> <Gold.Chemscore.Internal.Correction>
   9.000000E+99

> <Gold.Chemscore.Hbonds>
donor molecule, donor type, donor heavy atom, donor atom, acceptor molecule, acceptor atom, score
      L1  H     5    51       P1  8028  0.92
      L1  H    10    33       P1  7948  0.25
      L1  H    12    50       P1  7948  0.96

> <Gold.Chemscore.Hbond.Weighted>
-8.0182

> <Gold.Chemscore.Metal.Weighted>
-0.0000

> <Gold.Chemscore.Lipo.Weighted>
-12.8144

> <Gold.Chemscore.Internal_Hbond.Weighted>
0.0000

> <Gold.Chemscore.DEClash.Weighted>
0.0572

> <Gold.Chemscore.DEInternal.Weighted>
1.0832

> <Gold.Chemscore.Rot.Weighted>
6.6139

> <Gold.Chemscore.Internal.Correction.Weighted>
   9.000000E+99

> <Gold.Protein.RotatedTorsions>
[ 6907 6896 6895 6894 ] final  171.93 input  -60.11 | X-H torsion
[ 7974 7965 7964 7962 ] final  138.11 input  175.53 | X-H torsion
[ 8008 7997 7996 7995 ] final -132.63 input   59.86 | X-H torsion
[ 10167 10162 10161 10158 ] final  118.24 input  -65.29 | X-H torsion
[ 10718 10713 10712 10709 ] final  -81.86 input   66.30 | X-H torsion
[ 10763 10752 10751 10750 ] final -163.86 input  -60.55 | X-H torsion
[ 11005 11000 10999 10996 ] final  -40.11 input  -57.11 | X-H torsion

> <Gold.Protein.ActiveResidues>
 VAL166  LYS551  ARG553  GLY616  TRP617  ASP618  TYR619  PRO620  LYS621  CYS622 
 ASP623  PHE694  ASN695  SER759  ASP760  ASP761  ALA762  ILE779  LEU786  VAL792 
 PHE793  MET794  SER795  GLU796  ALA797  LYS798  CYS799  TRP800  GLU811  SER814 

> <Gold.Protein.RotatedAtoms>
  151.7923  133.3360  159.3502 H   0  0  0  0  0  0  0  0  0  0  0  0  # atno 6907 bound_to 6896
  150.7387  134.5830  159.5958 H   0  0  0  0  0  0  0  0  0  0  0  0  # atno 6908 bound_to 6896
  152.3201  134.7392  160.0367 H   0  0  0  0  0  0  0  0  0  0  0  0  # atno 6909 bound_to 6896
  144.9404  139.4938  143.5575 H   0  0  0  0  0  0  0  0  0  0  0  0  # atno 7974 bound_to 7965
  155.3321  140.0467  157.3043 H   0  0  0  0  0  0  0  0  0  0  0  0  # atno 8008 bound_to 7997
  154.5323  140.2261  155.8749 H   0  0  0  0  0  0  0  0  0  0  0  0  # atno 8009 bound_to 7997
  156.1800  140.3076  155.9137 H   0  0  0  0  0  0  0  0  0  0  0  0  # atno 8010 bound_to 7997
  139.6124  144.7085  151.2814 H   0  0  0  0  0  0  0  0  0  0  0  0  # atno 10167 bound_to 10162
  156.0043  130.4616  150.4017 H   0  0  0  0  0  0  0  0  0  0  0  0  # atno 10718 bound_to 10713
  154.7082  135.3001  154.9237 H   0  0  0  0  0  0  0  0  0  0  0  0  # atno 10763 bound_to 10752
  154.0147  135.6690  153.4772 H   0  0  0  0  0  0  0  0  0  0  0  0  # atno 10764 bound_to 10752
  153.0734  135.5048  154.8266 H   0  0  0  0  0  0  0  0  0  0  0  0  # atno 10765 bound_to 10752
  141.0151  133.6889  156.2277 H   0  0  0  0  0  0  0  0  0  0  0  0  # atno 11005 bound_to 11000
  146.3283  139.8419  142.8889 LP  0  0  0  0  0  0  0  0  0  0  0  0  # atno 17320 bound_to 7965
  145.3000  141.0191  143.3614 LP  0  0  0  0  0  0  0  0  0  0  0  0  # atno 17321 bound_to 7965
  140.7328  143.6812  150.7999 LP  0  0  0  0  0  0  0  0  0  0  0  0  # atno 17342 bound_to 10162
  140.0409  143.5347  152.2718 LP  0  0  0  0  0  0  0  0  0  0  0  0  # atno 17343 bound_to 10162
  157.2085  131.0455  151.2612 LP  0  0  0  0  0  0  0  0  0  0  0  0  # atno 17370 bound_to 10713
  157.3910  130.7282  149.6697 LP  0  0  0  0  0  0  0  0  0  0  0  0  # atno 17371 bound_to 10713
  140.6668  134.4909  157.5586 LP  0  0  0  0  0  0  0  0  0  0  0  0  # atno 17394 bound_to 11000
  139.9112  134.8341  156.1522 LP  0  0  0  0  0  0  0  0  0  0  0  0  # atno 17395 bound_to 11000

$$$$
