AV-unprocessed.smi:37|AV-procd|sdf|333|dock4
  -GOLD-   2262016163D 1   1.00000     0.00000
 Structure written by MMmdl.
 43 44  0  0  0  0  0  0  0  0  2 V2000
  154.5902  136.0727  158.6531 C   0  0  0  0  0  0  0  0  0  0  0  0
  153.3375  136.9262  158.4027 C   0  0  0  0  0  0  0  0  0  0  0  0
  152.7743  136.7862  156.9868 C   0  0  0  0  0  0  0  0  0  0  0  0
  152.3710  135.7102  156.5423 O   0  0  0  0  0  0  0  0  0  0  0  0
  152.7870  137.9570  156.3240 O   0  0  0  0  0  0  0  0  0  0  0  0
  152.3581  138.0273  154.9706 C   0  0  0  0  0  0  0  0  0  0  0  0
  151.5791  139.3321  154.7131 C   0  0  2  0  0  0  0  0  0  0  0  0
  152.1349  140.3584  155.5381 O   0  0  0  0  0  0  0  0  0  0  0  0
  151.1038  141.0966  156.1091 C   0  0  2  0  0  0  0  0  0  0  0  0
  151.5814  141.7811  157.3690 N   0  0  0  0  0  0  0  0  0  0  0  0
  151.1747  143.0654  157.6921 C   0  0  0  0  0  0  0  0  0  0  0  0
  151.6074  143.6730  158.8153 C   0  0  0  0  0  0  0  0  0  0  0  0
  151.2004  144.9221  159.0997 F   0  0  0  0  0  0  0  0  0  0  0  0
  152.5196  142.9675  159.7140 C   0  0  0  0  0  0  0  0  0  0  0  0
  152.9093  143.5257  160.7385 O   0  0  0  0  0  0  0  0  0  0  0  0
  152.9027  141.7034  159.3706 N   0  5  0  0  0  0  0  0  0  0  0  0
  152.4690  141.0856  158.2331 C   0  0  0  0  0  0  0  0  0  0  0  0
  152.8102  139.9468  157.9119 O   0  0  0  0  0  0  0  0  0  0  0  0
  149.9891  140.0876  156.3665 C   0  0  2  0  0  0  0  0  0  0  0  0
  150.3940  138.9371  157.9524 Br  0  0  0  0  0  0  0  0  0  0  0  0
  150.0788  139.2769  155.0811 C   0  0  2  0  0  0  0  0  0  0  0  0
  149.5574  137.9585  155.2175 O   0  0  0  0  0  0  0  0  0  0  0  0
  148.2299  137.7530  155.2765 C   0  0  0  0  0  0  0  0  0  0  0  0
  147.3674  138.6322  155.3132 O   0  0  0  0  0  0  0  0  0  0  0  0
  147.8850  136.2626  155.3033 C   0  0  0  0  0  0  0  0  0  0  0  0
  149.1158  135.3451  155.2503 C   0  0  0  0  0  0  0  0  0  0  0  0
  154.9431  136.2006  159.6764 H   0  0  0  0  0  0  0  0  0  0  0  0
  155.4055  136.3542  157.9856 H   0  0  0  0  0  0  0  0  0  0  0  0
  154.3842  135.0117  158.5061 H   0  0  0  0  0  0  0  0  0  0  0  0
  152.5584  136.6482  159.1128 H   0  0  0  0  0  0  0  0  0  0  0  0
  153.5668  137.9769  158.5818 H   0  0  0  0  0  0  0  0  0  0  0  0
  153.2620  138.0169  154.3618 H   0  0  0  0  0  0  0  0  0  0  0  0
  151.7769  137.1523  154.6762 H   0  0  0  0  0  0  0  0  0  0  0  0
  151.6738  139.6155  153.6642 H   0  0  0  0  0  0  0  0  0  0  0  0
  150.8171  141.8928  155.4188 H   0  0  0  0  0  0  0  0  0  0  0  0
  150.5081  143.6059  157.0385 H   0  0  0  0  0  0  0  0  0  0  0  0
  149.0252  140.5739  156.5178 H   0  0  0  0  0  0  0  0  0  0  0  0
  149.5388  139.8110  154.2971 H   0  0  0  0  0  0  0  0  0  0  0  0
  147.3116  136.0564  156.2075 H   0  0  0  0  0  0  0  0  0  0  0  0
  147.2305  136.0454  154.4588 H   0  0  0  0  0  0  0  0  0  0  0  0
  148.8143  134.2977  155.2639 H   0  0  0  0  0  0  0  0  0  0  0  0
  149.7723  135.5099  156.1055 H   0  0  0  0  0  0  0  0  0  0  0  0
  149.6953  135.5088  154.3411 H   0  0  0  0  0  0  0  0  0  0  0  0
  1  2  1  0  0  0  0
  1 27  1  0  0  0  0
  1 28  1  0  0  0  0
  1 29  1  0  0  0  0
  2  3  1  0  0  0  0
  2 30  1  0  0  0  0
  2 31  1  0  0  0  0
  3  4  2  0  0  0  0
  3  5  1  0  0  0  0
  5  6  1  0  0  0  0
  6  7  1  0  0  0  0
  6 32  1  0  0  0  0
  6 33  1  0  0  0  0
  7 21  1  0  0  0  0
  7  8  1  0  0  0  0
  7 34  1  0  0  0  0
  8  9  1  0  0  0  0
  9 10  1  0  0  0  0
  9 19  1  0  0  0  0
  9 35  1  0  0  0  0
 10 17  1  0  0  0  0
 10 11  1  0  0  0  0
 11 12  2  0  0  0  0
 11 36  1  0  0  0  0
 12 13  1  0  0  0  0
 12 14  1  0  0  0  0
 14 15  2  0  0  0  0
 14 16  1  0  0  0  0
 16 17  1  0  0  0  0
 17 18  2  0  0  0  0
 19 20  1  0  0  0  0
 19 21  1  0  0  0  0
 19 37  1  0  0  0  0
 21 22  1  0  0  0  0
 21 38  1  0  0  0  0
 22 23  1  0  0  0  0
 23 24  2  0  0  0  0
 23 25  1  0  0  0  0
 25 26  1  0  0  0  0
 25 39  1  0  0  0  0
 25 40  1  0  0  0  0
 26 41  1  0  0  0  0
 26 42  1  0  0  0  0
 26 43  1  0  0  0  0
M  CHG  1  16  -1
M  END
> <s_m_source_file>
AV-unprocessed.smi

> <i_m_source_file_index>
37

> <i_lp_mmshare_version>
43012

> <i_f3d_flags>
0

> <s_epik_input>
W0NIM11bQ0gyXUMoPU8pT1tDSDJdW0NAQEhdMU9bQ0BASF0objJbY0hdYyhGKWMoPU8pW25IXWMyPU8pW0NAQEhdKEJyKVtDQEhdMU9DKD1PKVtDSDJdW0NIM10=

> <s_epik_cmdline>
J2VwaWtfcHl0aG9uJywgJy1waCcsICc3LjAnLCAnLXRuJywgJzgnLCAnLW1hJywgJzIwMCcsICctbWV0YWxfYmluZGluZycsICctaW1hZScsICc8aW5maWxlLm1hZT4nLCAnLW9tYWUnLCAnPG91dGZpbGUubWFlPic=

> <r_epik_Ionization_Penalty>
1.08158

> <r_epik_Ionization_Penalty_Charging>
9.05154e-09

> <r_epik_Ionization_Penalty_Neutral>
1.08158

> <r_epik_State_Penalty>
1.13706

> <r_epik_Charging_Adjusted_Penalty>
1.13706

> <i_epik_Tot_Q>
-1

> <i_epik_Tot_abs_Q>
1

> <r_epik_Metal_State_Penalty>
0.00343535

> <b_epik_Metal_Only>
0

> <s_epik_Chemistry_Notes>
This compound has an ester and may undergo hydrolysis at high or low pH. This compound contains an acetal/aminal-like group ( X-CH(R)-Y where X, Y are N, S, or O) that may be acid/base labile, releasing an aldehyde.

> <s_lp_Force_Field>
OPLS_2005

> <r_lp_Energy>
37.8596

> <b_lp_Chiralities_Consistent>
1

> <s_lp_Variant>
AV-unprocessed.smi:37-31

> <Gold.Version>
5.8.1

> <Gold.Id.Protein>
6NUR|6NUR_protein|mol2

> <Gold.PLP.Fitness>
41.7688

> <Gold.PLP.PLP>
-35.0923

> <Gold.PLP.part.hbond>
-3.5277

> <Gold.PLP.part.metal>
0.0000

> <Gold.PLP.part.buried>
-2.3068

> <Gold.PLP.part.nonpolar>
-28.6180

> <Gold.PLP.part.repulsive>
0.1961

> <Gold.PLP.ligand.clash>
0.0000

> <Gold.PLP.ligand.torsion>
1.2351

> <Gold.PLP.Chemscore.Hbond>
2.0000

> <Gold.PLP.Chemscore.CHOScore>
1.0000

> <Gold.PLP.Chemscore.Metal>
0.0000

> <Gold.Chemscore.Hbonds>
donor molecule, donor type, donor heavy atom, donor atom, acceptor molecule, acceptor atom, score
      P1  H  7997  8010       L1    18  1.00
      P1  H 10752 10763       L1     4  0.96
      L1  C    11    36       P1  8028  1.00

> <Gold.PLP.Chemscore.Internal.Correction>
0.1467

> <Gold.Rescore>
     Score         DG    S(hbond)    S(metal)    S(lipo)     H(rot)  DE(clash)    DE(int)     intcor
      3.86     -10.23       1.91        0.00      57.64       3.27       0.15       6.23       ----

> <Gold.Chemscore.Fitness>
3.8621

> <Gold.Chemscore.DG>
-10.2346

> <Gold.Chemscore.ZeroCoef>
-5.4800

> <Gold.Chemscore.Hbond>
1.9085

> <Gold.Chemscore.Metal>
0.0000

> <Gold.Chemscore.Lipo>
57.6364

> <Gold.Chemscore.Internal_Hbond>
0.0000

> <Gold.Chemscore.DEClash>
0.1453

> <Gold.Chemscore.DEInternal>
6.2272

> <Gold.Chemscore.Rot>
3.2669

> <Gold.Chemscore.Internal.Correction>
   9.000000E+99

> <Gold.Chemscore.Hbonds>
donor molecule, donor type, donor heavy atom, donor atom, acceptor molecule, acceptor atom, score
      P1  H  7997  8010       L1    18  0.63
      P1  H 10752 10763       L1     4  0.28

> <Gold.Chemscore.Hbond.Weighted>
-6.3745

> <Gold.Chemscore.Metal.Weighted>
-0.0000

> <Gold.Chemscore.Lipo.Weighted>
-6.7435

> <Gold.Chemscore.Internal_Hbond.Weighted>
0.0000

> <Gold.Chemscore.DEClash.Weighted>
0.1453

> <Gold.Chemscore.DEInternal.Weighted>
6.2272

> <Gold.Chemscore.Rot.Weighted>
8.3634

> <Gold.Chemscore.Internal.Correction.Weighted>
   9.000000E+99

> <Gold.Protein.RotatedTorsions>
[ 6907 6896 6895 6894 ] final  -30.92 input  -60.11 | X-H torsion
[ 7974 7965 7964 7962 ] final  174.29 input  175.53 | X-H torsion
[ 8008 7997 7996 7995 ] final   50.09 input   59.86 | X-H torsion
[ 10167 10162 10161 10158 ] final  165.91 input  -65.29 | X-H torsion
[ 10718 10713 10712 10709 ] final -156.52 input   66.30 | X-H torsion
[ 10763 10752 10751 10750 ] final  124.24 input  -60.55 | X-H torsion
[ 11005 11000 10999 10996 ] final -133.19 input  -57.11 | X-H torsion

> <Gold.Protein.ActiveResidues>
 VAL166  LYS551  ARG553  GLY616  TRP617  ASP618  TYR619  PRO620  LYS621  CYS622 
 ASP623  PHE694  ASN695  SER759  ASP760  ASP761  ALA762  ILE779  LEU786  VAL792 
 PHE793  MET794  SER795  GLU796  ALA797  LYS798  CYS799  TRP800  GLU811  SER814 

> <Gold.Protein.RotatedAtoms>
  151.0991  134.9962  159.8439 H   0  0  0  0  0  0  0  0  0  0  0  0  # atno 6907 bound_to 6896
  152.5435  134.1972  159.8707 H   0  0  0  0  0  0  0  0  0  0  0  0  # atno 6908 bound_to 6896
  151.2014  133.4565  159.2629 H   0  0  0  0  0  0  0  0  0  0  0  0  # atno 6909 bound_to 6896
  144.7225  139.9775  143.6438 H   0  0  0  0  0  0  0  0  0  0  0  0  # atno 7974 bound_to 7965
  155.4130  140.3443  155.4265 H   0  0  0  0  0  0  0  0  0  0  0  0  # atno 8008 bound_to 7997
  156.1437  140.1550  156.8911 H   0  0  0  0  0  0  0  0  0  0  0  0  # atno 8009 bound_to 7997
  154.4993  140.0819  156.7744 H   0  0  0  0  0  0  0  0  0  0  0  0  # atno 8010 bound_to 7997
  139.4914  144.4083  151.9329 H   0  0  0  0  0  0  0  0  0  0  0  0  # atno 10167 bound_to 10162
  156.5276  130.8506  151.2705 H   0  0  0  0  0  0  0  0  0  0  0  0  # atno 10718 bound_to 10713
  153.6582  135.3351  155.3119 H   0  0  0  0  0  0  0  0  0  0  0  0  # atno 10763 bound_to 10752
  154.8521  135.4357  154.1832 H   0  0  0  0  0  0  0  0  0  0  0  0  # atno 10764 bound_to 10752
  153.2792  135.7007  153.7478 H   0  0  0  0  0  0  0  0  0  0  0  0  # atno 10765 bound_to 10752
  140.9103  134.1576  157.4394 H   0  0  0  0  0  0  0  0  0  0  0  0  # atno 11005 bound_to 11000
  146.0514  139.3514  143.0637 LP  0  0  0  0  0  0  0  0  0  0  0  0  # atno 17320 bound_to 7965
  145.8210  140.9679  143.0898 LP  0  0  0  0  0  0  0  0  0  0  0  0  # atno 17321 bound_to 7965
  140.3524  144.3073  150.5947 LP  0  0  0  0  0  0  0  0  0  0  0  0  # atno 17342 bound_to 10162
  140.5474  143.2212  151.7984 LP  0  0  0  0  0  0  0  0  0  0  0  0  # atno 17343 bound_to 10162
  157.7427  130.9896  150.2535 LP  0  0  0  0  0  0  0  0  0  0  0  0  # atno 17370 bound_to 10713
  156.3090  130.3769  149.7679 LP  0  0  0  0  0  0  0  0  0  0  0  0  # atno 17371 bound_to 10713
  139.8756  134.9933  156.5638 LP  0  0  0  0  0  0  0  0  0  0  0  0  # atno 17394 bound_to 11000
  140.8118  133.8423  155.8817 LP  0  0  0  0  0  0  0  0  0  0  0  0  # atno 17395 bound_to 11000

$$$$
