AV-unprocessed.smi:410|AV-procd|sdf|2507|dock1
  -GOLD-   2262022453D 1   1.00000     0.00000
 Structure written by MMmdl.
 33 35  0  0  0  0  0  0  0  0  2 V2000
  151.2587  137.4123  154.0139 C   0  0  0  0  0  0  0  0  0  0  0  0
  150.8097  138.7094  154.6166 C   0  0  0  0  0  0  0  0  0  0  0  0
  149.8178  139.3638  154.0569 N   0  0  0  0  0  0  0  0  0  0  0  0
  149.6476  140.5028  154.7703 N   0  0  0  0  0  0  0  0  0  0  0  0
  148.6100  141.4342  154.3584 C   0  0  0  0  0  0  0  0  0  0  0  0
  147.4390  141.4882  155.3532 C   0  0  0  0  0  0  0  0  0  0  0  0
  147.7871  142.2245  156.5075 O   0  0  0  0  0  0  0  0  0  0  0  0
  150.5377  140.6097  155.8238 C   0  0  0  0  0  0  0  0  0  0  0  0
  150.6379  141.6362  156.7151 N   0  0  0  0  0  0  0  0  0  0  0  0
  151.6097  141.4951  157.6427 C   0  0  0  0  0  0  0  0  0  0  0  0
  151.7418  142.5971  158.5954 C   0  0  0  0  0  0  0  0  0  0  0  0
  152.5936  142.8151  159.6457 C   0  0  0  0  0  0  0  0  0  0  0  0
  152.2407  144.0752  160.2030 C   0  0  0  0  0  0  0  0  0  0  0  0
  151.1977  144.5387  159.4541 C   0  0  0  0  0  0  0  0  0  0  0  0
  150.8806  143.6520  158.4722 O   0  0  0  0  0  0  0  0  0  0  0  0
  152.4557  140.3678  157.7127 C   0  0  0  0  0  0  0  0  0  0  0  0
  152.3180  139.3081  156.7838 C   0  0  0  0  0  0  0  0  0  0  0  0
  153.2235  138.1112  156.9131 C   0  0  0  0  0  0  0  0  0  0  0  0
  152.9320  137.0474  156.3280 O   0  0  0  0  0  0  0  0  0  0  0  0
  154.2405  138.2075  157.6363 O   0  5  0  0  0  0  0  0  0  0  0  0
  151.3219  139.4227  155.7682 C   0  0  0  0  0  0  0  0  0  0  0  0
  152.3380  137.3992  153.8623 H   0  0  0  0  0  0  0  0  0  0  0  0
  150.7992  137.2387  153.0402 H   0  0  0  0  0  0  0  0  0  0  0  0
  150.9918  136.5683  154.6497 H   0  0  0  0  0  0  0  0  0  0  0  0
  149.0552  142.4243  154.2518 H   0  0  0  0  0  0  0  0  0  0  0  0
  148.2521  141.1493  153.3683 H   0  0  0  0  0  0  0  0  0  0  0  0
  146.5627  141.9441  154.8912 H   0  0  0  0  0  0  0  0  0  0  0  0
  147.1555  140.4794  155.6540 H   0  0  0  0  0  0  0  0  0  0  0  0
  148.1305  143.0624  156.2379 H   0  0  0  0  0  0  0  0  0  0  0  0
  153.3784  142.1501  159.9741 H   0  0  0  0  0  0  0  0  0  0  0  0
  152.6936  144.5786  161.0442 H   0  0  0  0  0  0  0  0  0  0  0  0
  150.5940  145.4339  159.4799 H   0  0  0  0  0  0  0  0  0  0  0  0
  153.2042  140.3127  158.4897 H   0  0  0  0  0  0  0  0  0  0  0  0
  1  2  1  0  0  0  0
  1 22  1  0  0  0  0
  1 23  1  0  0  0  0
  1 24  1  0  0  0  0
  2 21  1  0  0  0  0
  2  3  2  0  0  0  0
  3  4  1  0  0  0  0
  4  5  1  0  0  0  0
  4  8  1  0  0  0  0
  5  6  1  0  0  0  0
  5 25  1  0  0  0  0
  5 26  1  0  0  0  0
  6  7  1  0  0  0  0
  6 27  1  0  0  0  0
  6 28  1  0  0  0  0
  7 29  1  0  0  0  0
  8 21  1  0  0  0  0
  8  9  2  0  0  0  0
  9 10  1  0  0  0  0
 10 11  1  0  0  0  0
 10 16  2  0  0  0  0
 11 15  1  0  0  0  0
 11 12  2  0  0  0  0
 12 13  1  0  0  0  0
 12 30  1  0  0  0  0
 13 14  2  0  0  0  0
 13 31  1  0  0  0  0
 14 15  1  0  0  0  0
 14 32  1  0  0  0  0
 16 17  1  0  0  0  0
 16 33  1  0  0  0  0
 17 18  1  0  0  0  0
 17 21  2  0  0  0  0
 18 19  2  0  0  0  0
 18 20  1  0  0  0  0
M  CHG  1  20  -1
M  END
> <s_m_source_file>
AV-unprocessed.smi

> <i_m_source_file_index>
410

> <i_lp_mmshare_version>
43012

> <i_f3d_flags>
0

> <s_epik_input>
W09IXVtDSDJdW0NIMl1uMW5jKFtDSDNdKWMoYzEyKWMoQyg9TylbT0hdKVtjSF1jKG4yKS1jM1tjSF1bY0hdW2NIXW8z

> <s_epik_cmdline>
J2VwaWtfcHl0aG9uJywgJy1waCcsICc3LjAnLCAnLXRuJywgJzgnLCAnLW1hJywgJzIwMCcsICctbWV0YWxfYmluZGluZycsICctaW1hZScsICc8aW5maWxlLm1hZT4nLCAnLW9tYWUnLCAnPG91dGZpbGUubWFlPic=

> <r_epik_Ionization_Penalty>
0.0015027

> <r_epik_Ionization_Penalty_Charging>
0.0014228

> <r_epik_Ionization_Penalty_Neutral>
7.98983e-05

> <r_epik_State_Penalty>
0.000949801

> <r_epik_Charging_Adjusted_Penalty>
0.0023726

> <i_epik_Tot_Q>
-1

> <i_epik_Tot_abs_Q>
1

> <r_epik_Metal_State_Penalty>
-0

> <b_epik_Metal_Only>
0

> <s_lp_Force_Field>
OPLS_2005

> <r_lp_Energy>
7.49674

> <b_lp_Chiralities_Consistent>
1

> <s_lp_Variant>
AV-unprocessed.smi:410-1

> <Gold.Version>
5.8.1

> <Gold.Id.Protein>
6NUR|6NUR_protein|mol2

> <Gold.PLP.Fitness>
50.4971

> <Gold.PLP.PLP>
-37.5904

> <Gold.PLP.part.hbond>
-3.0000

> <Gold.PLP.part.metal>
0.0000

> <Gold.PLP.part.buried>
-2.0410

> <Gold.PLP.part.nonpolar>
-34.2257

> <Gold.PLP.part.repulsive>
1.1632

> <Gold.PLP.ligand.clash>
0.0000

> <Gold.PLP.ligand.torsion>
0.2659

> <Gold.PLP.Chemscore.Hbond>
4.4726

> <Gold.PLP.Chemscore.CHOScore>
0.0000

> <Gold.PLP.Chemscore.Metal>
0.0000

> <Gold.Chemscore.Hbonds>
donor molecule, donor type, donor heavy atom, donor atom, acceptor molecule, acceptor atom, score
      L1  H     7    29       P1  8028  1.00
      P1  H  7997  8010       L1    20  1.60
      P1  H 10752 10765       L1    19  1.57

> <Gold.PLP.Chemscore.Internal.Correction>
0.0207

> <Gold.Rescore>
     Score         DG    S(hbond)    S(metal)    S(lipo)     H(rot)  DE(clash)    DE(int)     intcor
     15.88     -18.87       1.99        0.00      97.85       1.84       0.09       2.90       ----

> <Gold.Chemscore.Fitness>
15.8756

> <Gold.Chemscore.DG>
-18.8725

> <Gold.Chemscore.ZeroCoef>
-5.4800

> <Gold.Chemscore.Hbond>
1.9908

> <Gold.Chemscore.Metal>
0.0000

> <Gold.Chemscore.Lipo>
97.8493

> <Gold.Chemscore.Internal_Hbond>
0.0000

> <Gold.Chemscore.DEClash>
0.0930

> <Gold.Chemscore.DEInternal>
2.9039

> <Gold.Chemscore.Rot>
1.8379

> <Gold.Chemscore.Internal.Correction>
   9.000000E+99

> <Gold.Chemscore.Hbonds>
donor molecule, donor type, donor heavy atom, donor atom, acceptor molecule, acceptor atom, score
      L1  H     7    29       P1  8028  0.55
      P1  H  7997  8010       L1    20  0.20
      P1  H 10752 10765       L1    19  0.77

> <Gold.Chemscore.Hbond.Weighted>
-6.6492

> <Gold.Chemscore.Metal.Weighted>
-0.0000

> <Gold.Chemscore.Lipo.Weighted>
-11.4484

> <Gold.Chemscore.Internal_Hbond.Weighted>
0.0000

> <Gold.Chemscore.DEClash.Weighted>
0.0930

> <Gold.Chemscore.DEInternal.Weighted>
2.9039

> <Gold.Chemscore.Rot.Weighted>
4.7051

> <Gold.Chemscore.Internal.Correction.Weighted>
   9.000000E+99

> <Gold.Protein.RotatedTorsions>
[ 6907 6896 6895 6894 ] final -142.58 input  -60.11 | X-H torsion
[ 7974 7965 7964 7962 ] final  121.35 input  175.53 | X-H torsion
[ 8008 7997 7996 7995 ] final   18.63 input   59.86 | X-H torsion
[ 10167 10162 10161 10158 ] final -177.56 input  -65.29 | X-H torsion
[ 10718 10713 10712 10709 ] final   77.36 input   66.30 | X-H torsion
[ 10763 10752 10751 10750 ] final -135.39 input  -60.55 | X-H torsion
[ 11005 11000 10999 10996 ] final  -29.10 input  -57.11 | X-H torsion

> <Gold.Protein.ActiveResidues>
 VAL166  LYS551  ARG553  GLY616  TRP617  ASP618  TYR619  PRO620  LYS621  CYS622 
 ASP623  PHE694  ASN695  SER759  ASP760  ASP761  ALA762  ILE779  LEU786  VAL792 
 PHE793  MET794  SER795  GLU796  ALA797  LYS798  CYS799  TRP800  GLU811  SER814 

> <Gold.Protein.RotatedAtoms>
  151.0890  133.5330  159.2615 H   0  0  0  0  0  0  0  0  0  0  0  0  # atno 6907 bound_to 6896
  151.2205  135.0516  159.8957 H   0  0  0  0  0  0  0  0  0  0  0  0  # atno 6908 bound_to 6896
  152.5432  134.0693  159.8240 H   0  0  0  0  0  0  0  0  0  0  0  0  # atno 6909 bound_to 6896
  145.1203  139.3393  143.4717 H   0  0  0  0  0  0  0  0  0  0  0  0  # atno 7974 bound_to 7965
  154.9088  140.3011  155.5277 H   0  0  0  0  0  0  0  0  0  0  0  0  # atno 8008 bound_to 7997
  156.3016  140.2393  156.4060 H   0  0  0  0  0  0  0  0  0  0  0  0  # atno 8009 bound_to 7997
  154.8446  140.0412  157.1553 H   0  0  0  0  0  0  0  0  0  0  0  0  # atno 8010 bound_to 7997
  139.5474  144.2199  152.1014 H   0  0  0  0  0  0  0  0  0  0  0  0  # atno 10167 bound_to 10162
  157.6707  130.9818  150.1630 H   0  0  0  0  0  0  0  0  0  0  0  0  # atno 10718 bound_to 10713
  154.8704  135.3705  154.4890 H   0  0  0  0  0  0  0  0  0  0  0  0  # atno 10763 bound_to 10752
  153.5538  135.7024  153.5584 H   0  0  0  0  0  0  0  0  0  0  0  0  # atno 10764 bound_to 10752
  153.3690  135.4026  155.1739 H   0  0  0  0  0  0  0  0  0  0  0  0  # atno 10765 bound_to 10752
  140.9267  133.7364  156.0877 H   0  0  0  0  0  0  0  0  0  0  0  0  # atno 11005 bound_to 11000
  146.3521  140.1160  142.8602 LP  0  0  0  0  0  0  0  0  0  0  0  0  # atno 17320 bound_to 7965
  145.0748  140.9180  143.4861 LP  0  0  0  0  0  0  0  0  0  0  0  0  # atno 17321 bound_to 7965
  140.1688  144.4955  150.6591 LP  0  0  0  0  0  0  0  0  0  0  0  0  # atno 17342 bound_to 10162
  140.6726  143.2292  151.5586 LP  0  0  0  0  0  0  0  0  0  0  0  0  # atno 17343 bound_to 10162
  156.2402  130.3690  149.8346 LP  0  0  0  0  0  0  0  0  0  0  0  0  # atno 17370 bound_to 10713
  156.6148  130.8601  151.3462 LP  0  0  0  0  0  0  0  0  0  0  0  0  # atno 17371 bound_to 10713
  140.7917  134.3610  157.5463 LP  0  0  0  0  0  0  0  0  0  0  0  0  # atno 17394 bound_to 11000
  139.8787  134.9144  156.3107 LP  0  0  0  0  0  0  0  0  0  0  0  0  # atno 17395 bound_to 11000

$$$$
