AV-unprocessed.smi:1973|AV-procd|sdf|7979|dock8
  -GOLD-   2272010153D 1   1.00000     0.00000
 Structure written by MMmdl.
 48 50  0  0  0  0  0  0  0  0  2 V2000
  152.1679  142.0938  159.4116 C   0  0  0  0  0  0  0  0  0  0  0  0
  151.0698  142.6167  158.6846 O   0  0  0  0  0  0  0  0  0  0  0  0
  150.6149  141.7302  157.6765 C   0  0  0  0  0  0  0  0  0  0  0  0
  151.6598  141.6762  156.5516 C   0  0  0  0  0  0  0  0  0  0  0  0
  151.4724  140.4985  155.6981 N   0  0  0  0  0  0  0  0  0  0  0  0
  150.3418  140.5523  154.8993 N   0  0  0  0  0  0  0  0  0  0  0  0
  150.0622  139.5721  154.1020 C   0  0  0  0  0  0  0  0  0  0  0  0
  148.8571  139.5902  153.2265 C   0  0  0  0  0  0  0  0  0  0  0  0
  147.9506  140.4097  153.3836 O   0  0  0  0  0  0  0  0  0  0  0  0
  148.8303  138.6538  152.2609 N   0  0  0  0  0  0  0  0  0  0  0  0
  147.7619  138.4879  151.2809 C   0  0  0  0  0  0  0  0  0  0  0  0
  146.9411  137.2080  151.5281 C   0  0  1  0  0  0  0  0  0  0  0  0
  145.4387  137.4460  151.6478 C   0  0  0  0  0  0  0  0  0  0  0  0
  144.8637  136.0556  151.3942 C   0  0  0  0  0  0  0  0  0  0  0  0
  145.7406  135.4500  150.3695 N   0  3  2  0  0  0  0  0  0  0  0  0
  145.8438  133.9783  150.4627 C   0  0  0  0  0  0  0  0  0  0  0  0
  144.5325  133.3013  150.7832 C   0  0  0  0  0  0  0  0  0  0  0  0
  145.5946  133.4427  151.8522 C   0  0  0  0  0  0  0  0  0  0  0  0
  147.0440  136.1536  150.4153 C   0  0  0  0  0  0  0  0  0  0  0  0
  150.9226  138.4031  154.0294 C   0  0  0  0  0  0  0  0  0  0  0  0
  152.0174  138.3620  154.8200 C   0  0  0  0  0  0  0  0  0  0  0  0
  152.3544  139.4543  155.7338 C   0  0  0  0  0  0  0  0  0  0  0  0
  153.3395  139.4351  156.4710 O   0  0  0  0  0  0  0  0  0  0  0  0
  152.4743  142.8069  160.1769 H   0  0  0  0  0  0  0  0  0  0  0  0
  153.0229  141.9139  158.7586 H   0  0  0  0  0  0  0  0  0  0  0  0
  151.9040  141.1593  159.9084 H   0  0  0  0  0  0  0  0  0  0  0  0
  150.4598  140.7360  158.0986 H   0  0  0  0  0  0  0  0  0  0  0  0
  149.6571  142.0750  157.2833 H   0  0  0  0  0  0  0  0  0  0  0  0
  151.5934  142.5853  155.9511 H   0  0  0  0  0  0  0  0  0  0  0  0
  152.6655  141.6826  156.9757 H   0  0  0  0  0  0  0  0  0  0  0  0
  149.6164  138.0229  152.1943 H   0  0  0  0  0  0  0  0  0  0  0  0
  147.1100  139.3629  151.2922 H   0  0  0  0  0  0  0  0  0  0  0  0
  148.2156  138.4565  150.2898 H   0  0  0  0  0  0  0  0  0  0  0  0
  147.2723  136.7465  152.4603 H   0  0  0  0  0  0  0  0  0  0  0  0
  145.1492  137.8518  152.6176 H   0  0  0  0  0  0  0  0  0  0  0  0
  145.0986  138.1370  150.8751 H   0  0  0  0  0  0  0  0  0  0  0  0
  144.9104  135.4714  152.3150 H   0  0  0  0  0  0  0  0  0  0  0  0
  143.8241  136.0834  151.0667 H   0  0  0  0  0  0  0  0  0  0  0  0
  146.5667  133.4991  149.8046 H   0  0  0  0  0  0  0  0  0  0  0  0
  143.6415  133.9202  150.8737 H   0  0  0  0  0  0  0  0  0  0  0  0
  144.3672  132.3065  150.3746 H   0  0  0  0  0  0  0  0  0  0  0  0
  146.1287  132.5413  152.1458 H   0  0  0  0  0  0  0  0  0  0  0  0
  145.4090  134.1553  152.6539 H   0  0  0  0  0  0  0  0  0  0  0  0
  147.2034  136.6236  149.4442 H   0  0  0  0  0  0  0  0  0  0  0  0
  147.8804  135.4749  150.5910 H   0  0  0  0  0  0  0  0  0  0  0  0
  150.6983  137.5814  153.3648 H   0  0  0  0  0  0  0  0  0  0  0  0
  152.6646  137.4983  154.7783 H   0  0  0  0  0  0  0  0  0  0  0  0
  145.3329  135.6685  149.4715 H   0  0  0  0  0  0  0  0  0  0  0  0
  1  2  1  0  0  0  0
  1 24  1  0  0  0  0
  1 25  1  0  0  0  0
  1 26  1  0  0  0  0
  2  3  1  0  0  0  0
  3  4  1  0  0  0  0
  3 27  1  0  0  0  0
  3 28  1  0  0  0  0
  4  5  1  0  0  0  0
  4 29  1  0  0  0  0
  4 30  1  0  0  0  0
  5 22  1  0  0  0  0
  5  6  1  0  0  0  0
  6  7  2  0  0  0  0
  7  8  1  0  0  0  0
  7 20  1  0  0  0  0
  8  9  2  0  0  0  0
  8 10  1  0  0  0  0
 10 11  1  0  0  0  0
 10 31  1  0  0  0  0
 11 12  1  0  0  0  0
 11 32  1  0  0  0  0
 11 33  1  0  0  0  0
 12 19  1  0  0  0  0
 12 13  1  0  0  0  0
 12 34  1  0  0  0  0
 13 14  1  0  0  0  0
 13 35  1  0  0  0  0
 13 36  1  0  0  0  0
 14 15  1  0  0  0  0
 14 37  1  0  0  0  0
 14 38  1  0  0  0  0
 15 16  1  0  0  0  0
 15 19  1  0  0  0  0
 15 48  1  0  0  0  0
 16 18  1  0  0  0  0
 16 17  1  0  0  0  0
 16 39  1  0  0  0  0
 17 18  1  0  0  0  0
 17 40  1  0  0  0  0
 17 41  1  0  0  0  0
 18 42  1  0  0  0  0
 18 43  1  0  0  0  0
 19 44  1  0  0  0  0
 19 45  1  0  0  0  0
 20 21  2  0  0  0  0
 20 46  1  0  0  0  0
 21 22  1  0  0  0  0
 21 47  1  0  0  0  0
 22 23  2  0  0  0  0
M  CHG  1  15   1
M  END
> <s_m_source_file>
AV-unprocessed.smi

> <i_m_source_file_index>
1973

> <i_lp_mmshare_version>
43012

> <i_f3d_flags>
0

> <s_epik_input>
W0NIM11PW0NIMl1bQ0gyXW4xbmMoW2NIXVtjSF1jMT1PKUMoPU8pW05IXVtDSDJdW0NAQEhdMltDSDJdW0NIMl1OKFtDSDJdMilbQ0hdM1tDSDJdW0NIMl0z

> <s_epik_cmdline>
J2VwaWtfcHl0aG9uJywgJy1waCcsICc3LjAnLCAnLXRuJywgJzgnLCAnLW1hJywgJzIwMCcsICctbWV0YWxfYmluZGluZycsICctaW1hZScsICc8aW5maWxlLm1hZT4nLCAnLW9tYWUnLCAnPG91dGZpbGUubWFlPic=

> <r_lp_tautomer_probability>
1

> <r_epik_Ionization_Penalty>
0.000225706

> <r_epik_Ionization_Penalty_Charging>
0.000223776

> <r_epik_Ionization_Penalty_Neutral>
1.93004e-06

> <r_epik_State_Penalty>
-0

> <r_epik_Charging_Adjusted_Penalty>
0.000223776

> <i_epik_Tot_Q>
1

> <i_epik_Tot_abs_Q>
1

> <r_epik_Metal_State_Penalty>
-0

> <b_epik_Metal_Only>
0

> <s_lp_Force_Field>
OPLS_2005

> <r_lp_Energy>
57.1885

> <b_lp_Chiralities_Consistent>
1

> <s_lp_Variant>
AV-unprocessed.smi:1973-4

> <Gold.Version>
5.8.1

> <Gold.Id.Protein>
6NUR|6NUR_protein|mol2

> <Gold.PLP.Fitness>
47.9600

> <Gold.PLP.PLP>
-44.6759

> <Gold.PLP.part.hbond>
-3.2582

> <Gold.PLP.part.metal>
0.0000

> <Gold.PLP.part.buried>
-4.4120

> <Gold.PLP.part.nonpolar>
-37.6733

> <Gold.PLP.part.repulsive>
0.2534

> <Gold.PLP.ligand.clash>
0.0000

> <Gold.PLP.ligand.torsion>
1.7160

> <Gold.PLP.Chemscore.Hbond>
1.7520

> <Gold.PLP.Chemscore.CHOScore>
0.0000

> <Gold.PLP.Chemscore.Metal>
0.0000

> <Gold.Chemscore.Hbonds>
donor molecule, donor type, donor heavy atom, donor atom, acceptor molecule, acceptor atom, score
      L1  H    10    31       P1  7948  0.21
      L1  H    15    48       P1  7921  0.28
      P1  H  7997  8008       L1    23  0.41

> <Gold.PLP.Chemscore.Internal.Correction>
1.4602

> <Gold.Rescore>
     Score         DG    S(hbond)    S(metal)    S(lipo)     H(rot)  DE(clash)    DE(int)     intcor
     14.57     -17.15       1.79        0.00      91.73       1.97       0.72       1.87       ----

> <Gold.Chemscore.Fitness>
14.5683

> <Gold.Chemscore.DG>
-17.1510

> <Gold.Chemscore.ZeroCoef>
-5.4800

> <Gold.Chemscore.Hbond>
1.7917

> <Gold.Chemscore.Metal>
0.0000

> <Gold.Chemscore.Lipo>
91.7329

> <Gold.Chemscore.Internal_Hbond>
0.0000

> <Gold.Chemscore.DEClash>
0.7169

> <Gold.Chemscore.DEInternal>
1.8658

> <Gold.Chemscore.Rot>
1.9711

> <Gold.Chemscore.Internal.Correction>
   9.000000E+99

> <Gold.Chemscore.Hbonds>
donor molecule, donor type, donor heavy atom, donor atom, acceptor molecule, acceptor atom, score
      L1  H    10    31       P1  7948  0.06
      L1  H    15    48       P1  7921  0.27
      P1  H  7997  8008       L1    23  0.37

> <Gold.Chemscore.Hbond.Weighted>
-5.9843

> <Gold.Chemscore.Metal.Weighted>
-0.0000

> <Gold.Chemscore.Lipo.Weighted>
-10.7327

> <Gold.Chemscore.Internal_Hbond.Weighted>
0.0000

> <Gold.Chemscore.DEClash.Weighted>
0.7169

> <Gold.Chemscore.DEInternal.Weighted>
1.8658

> <Gold.Chemscore.Rot.Weighted>
5.0460

> <Gold.Chemscore.Internal.Correction.Weighted>
   9.000000E+99

> <Gold.Protein.RotatedTorsions>
[ 6907 6896 6895 6894 ] final   -3.38 input  -60.11 | X-H torsion
[ 7974 7965 7964 7962 ] final   78.43 input  175.53 | X-H torsion
[ 8008 7997 7996 7995 ] final  -25.62 input   59.86 | X-H torsion
[ 10167 10162 10161 10158 ] final   17.28 input  -65.29 | X-H torsion
[ 10718 10713 10712 10709 ] final  112.20 input   66.30 | X-H torsion
[ 10763 10752 10751 10750 ] final  -68.24 input  -60.55 | X-H torsion
[ 11005 11000 10999 10996 ] final  164.68 input  -57.11 | X-H torsion

> <Gold.Protein.ActiveResidues>
 VAL166  LYS551  ARG553  GLY616  TRP617  ASP618  TYR619  PRO620  LYS621  CYS622 
 ASP623  PHE694  ASN695  SER759  ASP760  ASP761  ALA762  ILE779  LEU786  VAL792 
 PHE793  MET794  SER795  GLU796  ALA797  LYS798  CYS799  TRP800  GLU811  SER814 

> <Gold.Protein.RotatedAtoms>
  151.5147  135.1066  159.9862 H   0  0  0  0  0  0  0  0  0  0  0  0  # atno 6907 bound_to 6896
  152.4646  133.7892  159.6903 H   0  0  0  0  0  0  0  0  0  0  0  0  # atno 6908 bound_to 6896
  150.8624  133.7560  159.3013 H   0  0  0  0  0  0  0  0  0  0  0  0  # atno 6909 bound_to 6896
  145.6772  139.2513  143.1834 H   0  0  0  0  0  0  0  0  0  0  0  0  # atno 7974 bound_to 7965
  154.4466  140.1921  156.0648 H   0  0  0  0  0  0  0  0  0  0  0  0  # atno 8008 bound_to 7997
  156.0555  140.3303  155.7374 H   0  0  0  0  0  0  0  0  0  0  0  0  # atno 8009 bound_to 7997
  155.5491  140.0593  157.2844 H   0  0  0  0  0  0  0  0  0  0  0  0  # atno 8010 bound_to 7997
  140.5738  143.9112  150.6733 H   0  0  0  0  0  0  0  0  0  0  0  0  # atno 10167 bound_to 10162
  157.6405  131.0963  150.6860 H   0  0  0  0  0  0  0  0  0  0  0  0  # atno 10718 bound_to 10713
  154.3861  135.6063  153.5817 H   0  0  0  0  0  0  0  0  0  0  0  0  # atno 10763 bound_to 10752
  152.9787  135.5872  154.4353 H   0  0  0  0  0  0  0  0  0  0  0  0  # atno 10764 bound_to 10752
  154.4129  135.2844  155.2003 H   0  0  0  0  0  0  0  0  0  0  0  0  # atno 10765 bound_to 10752
  140.2484  134.7996  157.3478 H   0  0  0  0  0  0  0  0  0  0  0  0  # atno 11005 bound_to 11000
  146.0995  140.7561  142.9556 LP  0  0  0  0  0  0  0  0  0  0  0  0  # atno 17320 bound_to 7965
  144.7037  140.3764  143.7135 LP  0  0  0  0  0  0  0  0  0  0  0  0  # atno 17321 bound_to 7965
  140.2594  143.3535  152.1336 LP  0  0  0  0  0  0  0  0  0  0  0  0  # atno 17342 bound_to 10162
  139.5131  144.6928  151.5714 LP  0  0  0  0  0  0  0  0  0  0  0  0  # atno 17343 bound_to 10162
  156.7184  130.4673  149.5529 LP  0  0  0  0  0  0  0  0  0  0  0  0  # atno 17370 bound_to 10713
  156.1682  130.6419  151.0804 LP  0  0  0  0  0  0  0  0  0  0  0  0  # atno 17371 bound_to 10713
  140.1583  134.4761  155.7912 LP  0  0  0  0  0  0  0  0  0  0  0  0  # atno 17394 bound_to 11000
  141.2204  133.6890  156.7500 LP  0  0  0  0  0  0  0  0  0  0  0  0  # atno 17395 bound_to 11000

$$$$
