AV-unprocessed.smi:1324|AV-procd|sdf|5471|dock3
  -GOLD-   22720 5 43D 1   1.00000     0.00000
 Structure written by MMmdl.
 42 43  0  0  0  0  0  0  0  0  2 V2000
  148.5812  134.4443  157.9759 C   0  0  0  0  0  0  0  0  0  0  0  0
  149.4434  135.6515  157.6752 C   0  0  0  0  0  0  0  0  0  0  0  0
  149.6514  135.9830  156.4580 N   0  0  0  0  0  0  0  0  0  0  0  0
  150.4476  137.1054  156.1734 C   0  0  0  0  0  0  0  0  0  0  0  0
  150.6363  137.4287  154.7016 C   0  0  0  0  0  0  0  0  0  0  0  0
  151.0046  137.8472  157.1732 C   0  0  0  0  0  0  0  0  0  0  0  0
  151.8734  139.0796  156.9191 C   0  0  0  0  0  0  0  0  0  0  0  0
  151.3894  140.3942  157.5369 C   0  0  0  0  0  0  0  0  0  0  0  0
  150.3414  140.9206  157.1612 O   0  0  0  0  0  0  0  0  0  0  0  0
  152.1733  140.9146  158.4941 N   0  0  0  0  0  0  0  0  0  0  0  0
  151.9142  142.1536  159.2252 C   0  0  0  0  0  0  0  0  0  0  0  0
  151.8706  143.3317  158.2242 C   0  0  0  0  0  0  0  0  0  0  0  0
  151.9913  144.7529  158.8034 C   0  0  0  0  0  0  0  0  0  0  0  0
  151.3227  144.9788  160.1682 C   0  0  0  0  0  0  0  0  0  0  0  0
  152.2397  144.6033  161.3440 C   0  0  0  0  0  0  0  0  0  0  0  0
  152.4161  143.0941  161.5655 C   0  0  0  0  0  0  0  0  0  0  0  0
  152.9530  142.3085  160.3550 C   0  0  0  0  0  0  0  0  0  0  0  0
  150.7484  137.4259  158.5621 C   0  0  0  0  0  0  0  0  0  0  0  0
  151.2430  138.0487  159.5011 O   0  0  0  0  0  0  0  0  0  0  0  0
  149.9567  136.3327  158.7559 N   0  5  0  0  0  0  0  0  0  0  0  0
  148.4240  133.8416  157.0805 H   0  0  0  0  0  0  0  0  0  0  0  0
  147.6087  134.7625  158.3517 H   0  0  0  0  0  0  0  0  0  0  0  0
  149.0552  133.8145  158.7298 H   0  0  0  0  0  0  0  0  0  0  0  0
  150.1749  138.3865  154.4600 H   0  0  0  0  0  0  0  0  0  0  0  0
  150.1796  136.6669  154.0685 H   0  0  0  0  0  0  0  0  0  0  0  0
  151.6961  137.4790  154.4512 H   0  0  0  0  0  0  0  0  0  0  0  0
  152.8742  138.8830  157.3035 H   0  0  0  0  0  0  0  0  0  0  0  0
  152.0142  139.2289  155.8479 H   0  0  0  0  0  0  0  0  0  0  0  0
  153.0159  140.4130  158.7353 H   0  0  0  0  0  0  0  0  0  0  0  0
  150.9321  142.0598  159.6927 H   0  0  0  0  0  0  0  0  0  0  0  0
  152.6582  143.2115  157.4786 H   0  0  0  0  0  0  0  0  0  0  0  0
  150.9347  143.2645  157.6677 H   0  0  0  0  0  0  0  0  0  0  0  0
  153.0443  145.0292  158.8683 H   0  0  0  0  0  0  0  0  0  0  0  0
  151.5603  145.4457  158.0796 H   0  0  0  0  0  0  0  0  0  0  0  0
  151.0920  146.0412  160.2566 H   0  0  0  0  0  0  0  0  0  0  0  0
  150.3652  144.4602  160.2299 H   0  0  0  0  0  0  0  0  0  0  0  0
  153.2158  145.0729  161.2163 H   0  0  0  0  0  0  0  0  0  0  0  0
  151.8254  145.0323  162.2568 H   0  0  0  0  0  0  0  0  0  0  0  0
  153.1033  142.9541  162.4008 H   0  0  0  0  0  0  0  0  0  0  0  0
  151.4698  142.6608  161.8916 H   0  0  0  0  0  0  0  0  0  0  0  0
  153.2285  141.3178  160.7197 H   0  0  0  0  0  0  0  0  0  0  0  0
  153.8754  142.7523  159.9785 H   0  0  0  0  0  0  0  0  0  0  0  0
  1  2  1  0  0  0  0
  1 21  1  0  0  0  0
  1 22  1  0  0  0  0
  1 23  1  0  0  0  0
  2 20  1  0  0  0  0
  2  3  2  0  0  0  0
  3  4  1  0  0  0  0
  4  5  1  0  0  0  0
  4  6  2  0  0  0  0
  5 24  1  0  0  0  0
  5 25  1  0  0  0  0
  5 26  1  0  0  0  0
  6  7  1  0  0  0  0
  6 18  1  0  0  0  0
  7  8  1  0  0  0  0
  7 27  1  0  0  0  0
  7 28  1  0  0  0  0
  8  9  2  0  0  0  0
  8 10  1  0  0  0  0
 10 11  1  0  0  0  0
 10 29  1  0  0  0  0
 11 17  1  0  0  0  0
 11 12  1  0  0  0  0
 11 30  1  0  0  0  0
 12 13  1  0  0  0  0
 12 31  1  0  0  0  0
 12 32  1  0  0  0  0
 13 14  1  0  0  0  0
 13 33  1  0  0  0  0
 13 34  1  0  0  0  0
 14 15  1  0  0  0  0
 14 35  1  0  0  0  0
 14 36  1  0  0  0  0
 15 16  1  0  0  0  0
 15 37  1  0  0  0  0
 15 38  1  0  0  0  0
 16 17  1  0  0  0  0
 16 39  1  0  0  0  0
 16 40  1  0  0  0  0
 17 41  1  0  0  0  0
 17 42  1  0  0  0  0
 18 19  2  0  0  0  0
 18 20  1  0  0  0  0
M  CHG  1  20  -1
M  END
> <s_m_source_file>
AV-unprocessed.smi

> <i_m_source_file_index>
1324

> <i_lp_mmshare_version>
43012

> <i_f3d_flags>
0

> <s_epik_input>
W0NIM11jMW5jKFtDSDNdKWMoYyg9TylbbkhdMSlbQ0gyXUMoPU8pW05IXVtDSF0yW0NIMl1bQ0gyXVtDSDJdW0NIMl1bQ0gyXVtDSDJdMg==

> <s_epik_cmdline>
J2VwaWtfcHl0aG9uJywgJy1waCcsICc3LjAnLCAnLXRuJywgJzgnLCAnLW1hJywgJzIwMCcsICctbWV0YWxfYmluZGluZycsICctaW1hZScsICc8aW5maWxlLm1hZT4nLCAnLW9tYWUnLCAnPG91dGZpbGUubWFlPic=

> <r_lp_tautomer_probability>
0.839158

> <r_epik_Ionization_Penalty>
6.62804

> <r_epik_Ionization_Penalty_Charging>
7.40585e-08

> <r_epik_Ionization_Penalty_Neutral>
6.62804

> <r_epik_State_Penalty>
4.44437

> <r_epik_Charging_Adjusted_Penalty>
4.44437

> <i_epik_Tot_Q>
-1

> <i_epik_Tot_abs_Q>
1

> <r_epik_Metal_State_Penalty>
0.804717

> <b_epik_Metal_Only>
1

> <s_lp_Force_Field>
OPLS_2005

> <r_lp_Energy>
20.4911

> <b_lp_Chiralities_Consistent>
1

> <s_lp_Variant>
AV-unprocessed.smi:1324-3

> <Gold.Version>
5.8.1

> <Gold.Id.Protein>
6NUR|6NUR_protein|mol2

> <Gold.PLP.Fitness>
41.4900

> <Gold.PLP.PLP>
-35.5875

> <Gold.PLP.part.hbond>
-1.4074

> <Gold.PLP.part.metal>
0.0000

> <Gold.PLP.part.buried>
-5.6177

> <Gold.PLP.part.nonpolar>
-30.1574

> <Gold.PLP.part.repulsive>
0.1595

> <Gold.PLP.ligand.clash>
0.0000

> <Gold.PLP.ligand.torsion>
0.0586

> <Gold.PLP.Chemscore.Hbond>
2.0000

> <Gold.PLP.Chemscore.CHOScore>
0.0000

> <Gold.PLP.Chemscore.Metal>
0.0000

> <Gold.Chemscore.Hbonds>
donor molecule, donor type, donor heavy atom, donor atom, acceptor molecule, acceptor atom, score
      P1  H  6896  6907       L1    20  1.90

> <Gold.PLP.Chemscore.Internal.Correction>
0.0196

> <Gold.Rescore>
     Score         DG    S(hbond)    S(metal)    S(lipo)     H(rot)  DE(clash)    DE(int)     intcor
     15.81     -16.69       0.74        0.00     106.27       1.45       0.04       0.84       ----

> <Gold.Chemscore.Fitness>
15.8115

> <Gold.Chemscore.DG>
-16.6878

> <Gold.Chemscore.ZeroCoef>
-5.4800

> <Gold.Chemscore.Hbond>
0.7404

> <Gold.Chemscore.Metal>
0.0000

> <Gold.Chemscore.Lipo>
106.2733

> <Gold.Chemscore.Internal_Hbond>
0.0000

> <Gold.Chemscore.DEClash>
0.0402

> <Gold.Chemscore.DEInternal>
0.8361

> <Gold.Chemscore.Rot>
1.4450

> <Gold.Chemscore.Internal.Correction>
   9.000000E+99

> <Gold.Chemscore.Hbonds>
donor molecule, donor type, donor heavy atom, donor atom, acceptor molecule, acceptor atom, score
      P1  H  6896  6907       L1    20  0.19

> <Gold.Chemscore.Hbond.Weighted>
-2.4731

> <Gold.Chemscore.Metal.Weighted>
-0.0000

> <Gold.Chemscore.Lipo.Weighted>
-12.4340

> <Gold.Chemscore.Internal_Hbond.Weighted>
0.0000

> <Gold.Chemscore.DEClash.Weighted>
0.0402

> <Gold.Chemscore.DEInternal.Weighted>
0.8361

> <Gold.Chemscore.Rot.Weighted>
3.6992

> <Gold.Chemscore.Internal.Correction.Weighted>
   9.000000E+99

> <Gold.Protein.RotatedTorsions>
[ 6907 6896 6895 6894 ] final  -51.89 input  -60.11 | X-H torsion
[ 7974 7965 7964 7962 ] final  168.93 input  175.53 | X-H torsion
[ 8008 7997 7996 7995 ] final  133.65 input   59.86 | X-H torsion
[ 10167 10162 10161 10158 ] final -111.11 input  -65.29 | X-H torsion
[ 10718 10713 10712 10709 ] final   25.69 input   66.30 | X-H torsion
[ 10763 10752 10751 10750 ] final  -10.53 input  -60.55 | X-H torsion
[ 11005 11000 10999 10996 ] final   95.44 input  -57.11 | X-H torsion

> <Gold.Protein.ActiveResidues>
 VAL166  LYS551  ARG553  GLY616  TRP617  ASP618  TYR619  PRO620  LYS621  CYS622 
 ASP623  PHE694  ASN695  SER759  ASP760  ASP761  ALA762  ILE779  LEU786  VAL792 
 PHE793  MET794  SER795  GLU796  ALA797  LYS798  CYS799  TRP800  GLU811  SER814 

> <Gold.Protein.RotatedAtoms>
  150.8568  134.7910  159.7051 H   0  0  0  0  0  0  0  0  0  0  0  0  # atno 6907 bound_to 6896
  152.4617  134.5165  159.9779 H   0  0  0  0  0  0  0  0  0  0  0  0  # atno 6908 bound_to 6896
  151.5275  133.3417  159.2948 H   0  0  0  0  0  0  0  0  0  0  0  0  # atno 6909 bound_to 6896
  144.7372  139.8979  143.6407 H   0  0  0  0  0  0  0  0  0  0  0  0  # atno 7974 bound_to 7965
  156.2994  140.2516  156.3288 H   0  0  0  0  0  0  0  0  0  0  0  0  # atno 8008 bound_to 7997
  154.9165  140.0402  157.1993 H   0  0  0  0  0  0  0  0  0  0  0  0  # atno 8009 bound_to 7997
  154.8354  140.2882  155.5699 H   0  0  0  0  0  0  0  0  0  0  0  0  # atno 8010 bound_to 7997
  140.1372  143.4310  152.1587 H   0  0  0  0  0  0  0  0  0  0  0  0  # atno 10167 bound_to 10162
  157.1968  130.6871  149.6172 H   0  0  0  0  0  0  0  0  0  0  0  0  # atno 10718 bound_to 10713
  153.4706  135.7016  153.5996 H   0  0  0  0  0  0  0  0  0  0  0  0  # atno 10763 bound_to 10752
  153.4251  135.3816  155.2136 H   0  0  0  0  0  0  0  0  0  0  0  0  # atno 10764 bound_to 10752
  154.8725  135.3937  154.4143 H   0  0  0  0  0  0  0  0  0  0  0  0  # atno 10765 bound_to 10752
  139.8789  134.8899  156.4012 H   0  0  0  0  0  0  0  0  0  0  0  0  # atno 11005 bound_to 11000
  146.1093  139.4096  143.0297 LP  0  0  0  0  0  0  0  0  0  0  0  0  # atno 17320 bound_to 7965
  145.7466  140.9988  143.1273 LP  0  0  0  0  0  0  0  0  0  0  0  0  # atno 17321 bound_to 7965
  139.5490  144.7322  151.4493 LP  0  0  0  0  0  0  0  0  0  0  0  0  # atno 17342 bound_to 10162
  140.6782  143.8141  150.7086 LP  0  0  0  0  0  0  0  0  0  0  0  0  # atno 17343 bound_to 10162
  155.9705  130.4596  150.6042 LP  0  0  0  0  0  0  0  0  0  0  0  0  # atno 17370 bound_to 10713
  157.3806  131.0780  151.1480 LP  0  0  0  0  0  0  0  0  0  0  0  0  # atno 17371 bound_to 10713
  140.9266  133.7608  155.9972 LP  0  0  0  0  0  0  0  0  0  0  0  0  # atno 17394 bound_to 11000
  140.8379  134.3101  157.5324 LP  0  0  0  0  0  0  0  0  0  0  0  0  # atno 17395 bound_to 11000

$$$$
