AV-unprocessed.smi:995|AV-procd|sdf|4346|dock4
  -GOLD-   22720 2243D 1   1.00000     0.00000
 Structure written by MMmdl.
 37 38  0  0  0  0  0  0  0  0  1 V2000
  151.1207  135.2097  157.3564 O   0  0  0  0  0  0  0  0  0  0  0  0
  150.9197  135.4175  156.1597 C   0  0  0  0  0  0  0  0  0  0  0  0
  150.9831  136.6316  155.5806 N   0  0  0  0  0  0  0  0  0  0  0  0
  151.2238  137.8954  156.1845 C   0  0  0  0  0  0  0  0  0  0  0  0
  151.4857  138.9921  155.3388 C   0  0  0  0  0  0  0  0  0  0  0  0
  151.7093  140.2602  155.9071 C   0  0  0  0  0  0  0  0  0  0  0  0
  151.6549  140.3951  157.3084 C   0  0  0  0  0  0  0  0  0  0  0  0
  151.8776  141.6398  157.8603 O   0  0  0  0  0  0  0  0  0  0  0  0
  151.7042  141.8027  159.2657 C   0  0  0  0  0  0  0  0  0  0  0  0
  152.1967  143.1979  159.6779 C   0  0  0  0  0  0  0  0  0  0  0  0
  152.1269  143.3164  161.0046 F   0  0  0  0  0  0  0  0  0  0  0  0
  153.4652  143.3243  159.2858 F   0  0  0  0  0  0  0  0  0  0  0  0
  151.3783  144.3245  159.0272 C   0  0  0  0  0  0  0  0  0  0  0  0
  151.6274  145.4986  159.6079 F   0  0  0  0  0  0  0  0  0  0  0  0
  151.6446  144.4091  157.7237 F   0  0  0  0  0  0  0  0  0  0  0  0
  151.3881  139.3504  158.1304 N   0  0  0  0  0  0  0  0  0  0  0  0
  151.1756  138.1363  157.5795 C   0  0  0  0  0  0  0  0  0  0  0  0
  150.6269  134.2402  155.2166 C   0  0  1  0  0  0  0  0  0  0  0  0
  150.6933  132.8689  155.9288 C   0  0  0  0  0  0  0  0  0  0  0  0
  150.3740  131.8400  155.0008 O   0  0  0  0  0  0  0  0  0  0  0  0
  149.0702  132.0129  154.4640 C   0  0  0  0  0  0  0  0  0  0  0  0
  149.0048  133.3683  153.7427 C   0  0  0  0  0  0  0  0  0  0  0  0
  149.3202  134.4002  154.6678 O   0  0  0  0  0  0  0  0  0  0  0  0
  150.8885  136.6417  154.5752 H   0  0  0  0  0  0  0  0  0  0  0  0
  151.5194  138.8659  154.2665 H   0  0  0  0  0  0  0  0  0  0  0  0
  151.9183  141.1141  155.2797 H   0  0  0  0  0  0  0  0  0  0  0  0
  150.6512  141.6930  159.5306 H   0  0  0  0  0  0  0  0  0  0  0  0
  152.2666  141.0373  159.8035 H   0  0  0  0  0  0  0  0  0  0  0  0
  150.3079  144.1421  159.1252 H   0  0  0  0  0  0  0  0  0  0  0  0
  150.9419  137.3570  158.2876 H   0  0  0  0  0  0  0  0  0  0  0  0
  151.3619  134.2732  154.4103 H   0  0  0  0  0  0  0  0  0  0  0  0
  151.6956  132.6806  156.3149 H   0  0  0  0  0  0  0  0  0  0  0  0
  150.0089  132.8305  156.7781 H   0  0  0  0  0  0  0  0  0  0  0  0
  148.8606  131.2015  153.7669 H   0  0  0  0  0  0  0  0  0  0  0  0
  148.3237  131.9574  155.2580 H   0  0  0  0  0  0  0  0  0  0  0  0
  149.6942  133.3951  152.8973 H   0  0  0  0  0  0  0  0  0  0  0  0
  148.0034  133.5390  153.3472 H   0  0  0  0  0  0  0  0  0  0  0  0
  1  2  2  0  0  0  0
  2  3  1  0  0  0  0
  2 18  1  0  0  0  0
  3  4  1  0  0  0  0
  3 24  1  0  0  0  0
  4 17  1  0  0  0  0
  4  5  2  0  0  0  0
  5  6  1  0  0  0  0
  5 25  1  0  0  0  0
  6  7  2  0  0  0  0
  6 26  1  0  0  0  0
  7  8  1  0  0  0  0
  7 16  1  0  0  0  0
  8  9  1  0  0  0  0
  9 10  1  0  0  0  0
  9 27  1  0  0  0  0
  9 28  1  0  0  0  0
 10 11  1  0  0  0  0
 10 12  1  0  0  0  0
 10 13  1  0  0  0  0
 13 14  1  0  0  0  0
 13 15  1  0  0  0  0
 13 29  1  0  0  0  0
 16 17  2  0  0  0  0
 17 30  1  0  0  0  0
 18 23  1  0  0  0  0
 18 19  1  0  0  0  0
 18 31  1  0  0  0  0
 19 20  1  0  0  0  0
 19 32  1  0  0  0  0
 19 33  1  0  0  0  0
 20 21  1  0  0  0  0
 21 22  1  0  0  0  0
 21 34  1  0  0  0  0
 21 35  1  0  0  0  0
 22 23  1  0  0  0  0
 22 36  1  0  0  0  0
 22 37  1  0  0  0  0
M  END
> <s_m_source_file>
AV-unprocessed.smi

> <i_m_source_file_index>
995

> <i_lp_mmshare_version>
43012

> <i_f3d_flags>
0

> <s_epik_input>
TzFbQ0gyXVtDSDJdT1tDSDJdW0NASF0xQyg9TylbTkhdYzJbY0hdW2NIXWMobltjSF0yKU9bQ0gyXUMoRikoRilbQ0hdKEYpRg==

> <s_epik_cmdline>
J2VwaWtfcHl0aG9uJywgJy1waCcsICc3LjAnLCAnLXRuJywgJzgnLCAnLW1hJywgJzIwMCcsICctbWV0YWxfYmluZGluZycsICctaW1hZScsICc8aW5maWxlLm1hZT4nLCAnLW9tYWUnLCAnPG91dGZpbGUubWFlPic=

> <r_lp_tautomer_probability>
1

> <r_epik_Ionization_Penalty>
2.54436e-06

> <r_epik_Ionization_Penalty_Charging>
0

> <r_epik_Ionization_Penalty_Neutral>
2.54436e-06

> <r_epik_State_Penalty>
-0

> <r_epik_Charging_Adjusted_Penalty>
0

> <i_epik_Tot_Q>
0

> <i_epik_Tot_abs_Q>
0

> <r_epik_Metal_State_Penalty>
-0

> <b_epik_Metal_Only>
0

> <s_lp_Force_Field>
OPLS_2005

> <r_lp_Energy>
9.88959

> <b_lp_Chiralities_Consistent>
1

> <s_lp_Variant>
AV-unprocessed.smi:995-2

> <Gold.Version>
5.8.1

> <Gold.Id.Protein>
6NUR|6NUR_protein|mol2

> <Gold.PLP.Fitness>
46.4251

> <Gold.PLP.PLP>
-46.4299

> <Gold.PLP.part.hbond>
-1.0000

> <Gold.PLP.part.metal>
0.0000

> <Gold.PLP.part.buried>
-6.2813

> <Gold.PLP.part.nonpolar>
-39.3855

> <Gold.PLP.part.repulsive>
0.2245

> <Gold.PLP.ligand.clash>
0.0000

> <Gold.PLP.ligand.torsion>
0.3795

> <Gold.PLP.Chemscore.Hbond>
0.2002

> <Gold.PLP.Chemscore.CHOScore>
0.0000

> <Gold.PLP.Chemscore.Metal>
0.0000

> <Gold.Chemscore.Hbonds>
donor molecule, donor type, donor heavy atom, donor atom, acceptor molecule, acceptor atom, score
      P1  H  6896  6907       L1     1  0.09

> <Gold.PLP.Chemscore.Internal.Correction>
0.1536

> <Gold.Rescore>
     Score         DG    S(hbond)    S(metal)    S(lipo)     H(rot)  DE(clash)    DE(int)     intcor
      8.20     -11.09       0.89        0.00      68.84       2.12       0.01       2.88       ----

> <Gold.Chemscore.Fitness>
8.2019

> <Gold.Chemscore.DG>
-11.0916

> <Gold.Chemscore.ZeroCoef>
-5.4800

> <Gold.Chemscore.Hbond>
0.8913

> <Gold.Chemscore.Metal>
0.0000

> <Gold.Chemscore.Lipo>
68.8432

> <Gold.Chemscore.Internal_Hbond>
0.0000

> <Gold.Chemscore.DEClash>
0.0053

> <Gold.Chemscore.DEInternal>
2.8843

> <Gold.Chemscore.Rot>
2.1172

> <Gold.Chemscore.Internal.Correction>
   9.000000E+99

> <Gold.Chemscore.Hbonds>
donor molecule, donor type, donor heavy atom, donor atom, acceptor molecule, acceptor atom, score
      P1  H  6896  6907       L1     1  0.09

> <Gold.Chemscore.Hbond.Weighted>
-2.9769

> <Gold.Chemscore.Metal.Weighted>
-0.0000

> <Gold.Chemscore.Lipo.Weighted>
-8.0547

> <Gold.Chemscore.Internal_Hbond.Weighted>
0.0000

> <Gold.Chemscore.DEClash.Weighted>
0.0053

> <Gold.Chemscore.DEInternal.Weighted>
2.8843

> <Gold.Chemscore.Rot.Weighted>
5.4200

> <Gold.Chemscore.Internal.Correction.Weighted>
   9.000000E+99

> <Gold.Protein.RotatedTorsions>
[ 6907 6896 6895 6894 ] final  -84.09 input  -60.11 | X-H torsion
[ 7974 7965 7964 7962 ] final  153.83 input  175.53 | X-H torsion
[ 8008 7997 7996 7995 ] final   74.87 input   59.86 | X-H torsion
[ 10167 10162 10161 10158 ] final   66.16 input  -65.29 | X-H torsion
[ 10718 10713 10712 10709 ] final  -83.95 input   66.30 | X-H torsion
[ 10763 10752 10751 10750 ] final -171.62 input  -60.55 | X-H torsion
[ 11005 11000 10999 10996 ] final -141.12 input  -57.11 | X-H torsion

> <Gold.Protein.ActiveResidues>
 VAL166  LYS551  ARG553  GLY616  TRP617  ASP618  TYR619  PRO620  LYS621  CYS622 
 ASP623  PHE694  ASN695  SER759  ASP760  ASP761  ALA762  ILE779  LEU786  VAL792 
 PHE793  MET794  SER795  GLU796  ALA797  LYS798  CYS799  TRP800  GLU811  SER814 

> <Gold.Protein.RotatedAtoms>
  150.6879  134.3411  159.4868 H   0  0  0  0  0  0  0  0  0  0  0  0  # atno 6907 bound_to 6896
  152.1264  134.9165  160.0570 H   0  0  0  0  0  0  0  0  0  0  0  0  # atno 6908 bound_to 6896
  152.0351  133.3919  159.4350 H   0  0  0  0  0  0  0  0  0  0  0  0  # atno 6909 bound_to 6896
  144.8128  139.6853  143.6134 H   0  0  0  0  0  0  0  0  0  0  0  0  # atno 7974 bound_to 7965
  155.8046  140.3475  155.5422 H   0  0  0  0  0  0  0  0  0  0  0  0  # atno 8008 bound_to 7997
  155.8503  140.0955  157.1699 H   0  0  0  0  0  0  0  0  0  0  0  0  # atno 8009 bound_to 7997
  154.4007  140.1378  156.3823 H   0  0  0  0  0  0  0  0  0  0  0  0  # atno 8010 bound_to 7997
  140.1034  144.4883  150.7023 H   0  0  0  0  0  0  0  0  0  0  0  0  # atno 10167 bound_to 10162
  156.0012  130.4682  150.4335 H   0  0  0  0  0  0  0  0  0  0  0  0  # atno 10718 bound_to 10713
  154.6285  135.2883  155.0244 H   0  0  0  0  0  0  0  0  0  0  0  0  # atno 10763 bound_to 10752
  154.1413  135.6518  153.4947 H   0  0  0  0  0  0  0  0  0  0  0  0  # atno 10764 bound_to 10752
  153.0268  135.5333  154.7103 H   0  0  0  0  0  0  0  0  0  0  0  0  # atno 10765 bound_to 10752
  140.8355  134.2465  157.4836 H   0  0  0  0  0  0  0  0  0  0  0  0  # atno 11005 bound_to 11000
  146.2429  139.6038  142.9479 LP  0  0  0  0  0  0  0  0  0  0  0  0  # atno 17320 bound_to 7965
  145.5283  141.0428  143.2397 LP  0  0  0  0  0  0  0  0  0  0  0  0  # atno 17321 bound_to 7965
  140.6965  143.2407  151.4986 LP  0  0  0  0  0  0  0  0  0  0  0  0  # atno 17342 bound_to 10162
  139.5658  144.2045  152.1763 LP  0  0  0  0  0  0  0  0  0  0  0  0  # atno 17343 bound_to 10162
  157.2382  131.0519  151.2452 LP  0  0  0  0  0  0  0  0  0  0  0  0  # atno 17370 bound_to 10713
  157.3646  130.7149  149.6524 LP  0  0  0  0  0  0  0  0  0  0  0  0  # atno 17371 bound_to 10713
  139.8704  134.9608  156.4377 LP  0  0  0  0  0  0  0  0  0  0  0  0  # atno 17394 bound_to 11000
  140.8952  133.7819  155.9616 LP  0  0  0  0  0  0  0  0  0  0  0  0  # atno 17395 bound_to 11000

$$$$
