AV-unprocessed.smi:114|AV-procd|sdf|1122|dock1
  -GOLD-   2262018243D 1   1.00000     0.00000
 Structure written by MMmdl.
 32 34  0  0  0  0  0  0  0  0  1 V2000
  149.0842  130.5609  156.2650 N   0  0  0  0  0  0  0  0  0  0  0  0
  148.8630  131.5910  155.4363 C   0  0  0  0  0  0  0  0  0  0  0  0
  149.5269  132.7498  155.6575 N   0  0  0  0  0  0  0  0  0  0  0  0
  149.3347  133.8044  154.8544 C   0  0  0  0  0  0  0  0  0  0  0  0
  150.0397  134.9213  155.1508 F   0  0  0  0  0  0  0  0  0  0  0  0
  148.5245  133.8790  153.7923 N   0  0  0  0  0  0  0  0  0  0  0  0
  147.8563  132.7110  153.5676 C   0  0  0  0  0  0  0  0  0  0  0  0
  147.9671  131.5255  154.3411 C   0  0  0  0  0  0  0  0  0  0  0  0
  147.1352  130.5420  153.8213 N   0  0  0  0  0  0  0  0  0  0  0  0
  146.5668  131.1205  152.7963 C   0  0  0  0  0  0  0  0  0  0  0  0
  146.9481  132.4266  152.5731 N   0  0  0  0  0  0  0  0  0  0  0  0
  146.4956  133.3689  151.5062 C   0  0  1  0  0  0  0  0  0  0  0  0
  145.8951  132.6390  150.4886 O   0  0  0  0  0  0  0  0  0  0  0  0
  145.0075  133.4979  149.7820 C   0  0  1  0  0  0  0  0  0  0  0  0
  143.8038  132.6862  149.2700 C   0  0  0  0  0  0  0  0  0  0  0  0
  143.2847  133.2154  148.0672 O   0  0  0  0  0  0  0  0  0  0  0  0
  144.6801  134.6826  150.7183 C   0  0  2  0  0  0  0  0  0  0  0  0
  145.1791  135.8801  150.1532 O   0  0  0  0  0  0  0  0  0  0  0  0
  145.4394  134.3640  152.0024 C   0  0  1  0  0  0  0  0  0  0  0  0
  144.5750  133.8134  152.9803 O   0  0  0  0  0  0  0  0  0  0  0  0
  147.4000  133.8525  151.1328 H   0  0  0  0  0  0  0  0  0  0  0  0
  145.5653  133.8542  148.9137 H   0  0  0  0  0  0  0  0  0  0  0  0
  143.6112  134.8117  150.8935 H   0  0  0  0  0  0  0  0  0  0  0  0
  145.9320  135.2348  152.4376 H   0  0  0  0  0  0  0  0  0  0  0  0
  148.5998  129.6864  156.1205 H   0  0  0  0  0  0  0  0  0  0  0  0
  149.7347  130.6597  157.0311 H   0  0  0  0  0  0  0  0  0  0  0  0
  145.8460  130.6096  152.1740 H   0  0  0  0  0  0  0  0  0  0  0  0
  144.1104  131.6577  149.0772 H   0  0  0  0  0  0  0  0  0  0  0  0
  143.0161  132.6484  150.0229 H   0  0  0  0  0  0  0  0  0  0  0  0
  142.5770  133.8053  148.2783 H   0  0  0  0  0  0  0  0  0  0  0  0
  144.4818  136.5176  150.1364 H   0  0  0  0  0  0  0  0  0  0  0  0
  143.7911  134.3403  153.0138 H   0  0  0  0  0  0  0  0  0  0  0  0
  1  2  1  0  0  0  0
  1 25  1  0  0  0  0
  1 26  1  0  0  0  0
  2  8  1  0  0  0  0
  2  3  2  0  0  0  0
  3  4  1  0  0  0  0
  4  5  1  0  0  0  0
  4  6  2  0  0  0  0
  6  7  1  0  0  0  0
  7 11  1  0  0  0  0
  7  8  2  0  0  0  0
  8  9  1  0  0  0  0
  9 10  2  0  0  0  0
 10 11  1  0  0  0  0
 10 27  1  0  0  0  0
 11 12  1  0  0  0  0
 12 21  1  0  0  0  0
 12 19  1  0  0  0  0
 12 13  1  0  0  0  0
 13 14  1  0  0  0  0
 14 22  1  0  0  0  0
 14 15  1  0  0  0  0
 14 17  1  0  0  0  0
 15 16  1  0  0  0  0
 15 28  1  0  0  0  0
 15 29  1  0  0  0  0
 16 30  1  0  0  0  0
 17 23  1  0  0  0  0
 17 18  1  0  0  0  0
 17 19  1  0  0  0  0
 18 31  1  0  0  0  0
 19 24  1  0  0  0  0
 19 20  1  0  0  0  0
 20 32  1  0  0  0  0
M  END
> <s_m_source_file>
AV-unprocessed.smi

> <i_m_source_file_index>
114

> <i_lp_mmshare_version>
43012

> <i_f3d_flags>
0

> <s_epik_input>
RmMobjEpbmMoW05IMl0pYyhjMTIpbltjSF1uMltDQEBIXTNPW0NASF0oW0NIMl1bT0hdKVtDQEBIXShbT0hdKVtDQEBIXTNbT0hd

> <s_epik_cmdline>
J2VwaWtfcHl0aG9uJywgJy1waCcsICc3LjAnLCAnLXRuJywgJzgnLCAnLW1hJywgJzIwMCcsICctbWV0YWxfYmluZGluZycsICctaW1hZScsICc8aW5maWxlLm1hZT4nLCAnLW9tYWUnLCAnPG91dGZpbGUubWFlPic=

> <r_lp_tautomer_probability>
1

> <r_epik_Ionization_Penalty>
1.13199e-05

> <r_epik_Ionization_Penalty_Charging>
0

> <r_epik_Ionization_Penalty_Neutral>
1.13199e-05

> <r_epik_State_Penalty>
-0

> <r_epik_Charging_Adjusted_Penalty>
0

> <i_epik_Tot_Q>
0

> <i_epik_Tot_abs_Q>
0

> <r_epik_Metal_State_Penalty>
-0

> <b_epik_Metal_Only>
0

> <s_epik_Chemistry_Notes>
This compound contains an acetal/aminal-like group ( X-CH(R)-Y where X, Y are N, S, or O) that may be acid/base labile, releasing an aldehyde.

> <s_lp_Force_Field>
OPLS_2005

> <r_lp_Energy>
41.8757

> <b_lp_Chiralities_Consistent>
1

> <s_lp_Variant>
AV-unprocessed.smi:114-16

> <Gold.Version>
5.8.1

> <Gold.Id.Protein>
6NUR|6NUR_protein|mol2

> <Gold.PLP.Fitness>
34.8880

> <Gold.PLP.PLP>
-31.8053

> <Gold.PLP.part.hbond>
-4.0385

> <Gold.PLP.part.metal>
0.0000

> <Gold.PLP.part.buried>
-2.7413

> <Gold.PLP.part.nonpolar>
-25.4048

> <Gold.PLP.part.repulsive>
1.9760

> <Gold.PLP.ligand.clash>
0.0000

> <Gold.PLP.ligand.torsion>
0.8676

> <Gold.PLP.Chemscore.Hbond>
1.6037

> <Gold.PLP.Chemscore.CHOScore>
0.0000

> <Gold.PLP.Chemscore.Metal>
0.0000

> <Gold.Chemscore.Hbonds>
donor molecule, donor type, donor heavy atom, donor atom, acceptor molecule, acceptor atom, score
      L1  H    16    30       P1 10186  0.86
      L1  H    18    31       P1 10171  0.64

> <Gold.PLP.Chemscore.Internal.Correction>
0.0068

> <Gold.Rescore>
     Score         DG    S(hbond)    S(metal)    S(lipo)     H(rot)  DE(clash)    DE(int)     intcor
      3.21      -5.01       1.82        0.00      32.06       4.03       1.29       0.50       ----

> <Gold.Chemscore.Fitness>
3.2108

> <Gold.Chemscore.DG>
-5.0068

> <Gold.Chemscore.ZeroCoef>
-5.4800

> <Gold.Chemscore.Hbond>
1.8222

> <Gold.Chemscore.Metal>
0.0000

> <Gold.Chemscore.Lipo>
32.0642

> <Gold.Chemscore.Internal_Hbond>
0.0000

> <Gold.Chemscore.DEClash>
1.2917

> <Gold.Chemscore.DEInternal>
0.5043

> <Gold.Chemscore.Rot>
4.0277

> <Gold.Chemscore.Internal.Correction>
   9.000000E+99

> <Gold.Chemscore.Hbonds>
donor molecule, donor type, donor heavy atom, donor atom, acceptor molecule, acceptor atom, score
      L1  H    16    30       P1 10186  0.81
      L1  H    18    31       P1 10171  0.62

> <Gold.Chemscore.Hbond.Weighted>
-6.0862

> <Gold.Chemscore.Metal.Weighted>
-0.0000

> <Gold.Chemscore.Lipo.Weighted>
-3.7515

> <Gold.Chemscore.Internal_Hbond.Weighted>
0.0000

> <Gold.Chemscore.DEClash.Weighted>
1.2917

> <Gold.Chemscore.DEInternal.Weighted>
0.5043

> <Gold.Chemscore.Rot.Weighted>
10.3110

> <Gold.Chemscore.Internal.Correction.Weighted>
   9.000000E+99

> <Gold.Protein.RotatedTorsions>
[ 6907 6896 6895 6894 ] final  149.26 input  -60.11 | X-H torsion
[ 7974 7965 7964 7962 ] final -104.54 input  175.53 | X-H torsion
[ 8008 7997 7996 7995 ] final -169.11 input   59.86 | X-H torsion
[ 10167 10162 10161 10158 ] final -153.57 input  -65.29 | X-H torsion
[ 10718 10713 10712 10709 ] final  -44.46 input   66.30 | X-H torsion
[ 10763 10752 10751 10750 ] final   34.55 input  -60.55 | X-H torsion
[ 11005 11000 10999 10996 ] final -141.49 input  -57.11 | X-H torsion

> <Gold.Protein.ActiveResidues>
 VAL166  LYS551  ARG553  GLY616  TRP617  ASP618  TYR619  PRO620  LYS621  CYS622 
 ASP623  PHE694  ASN695  SER759  ASP760  ASP761  ALA762  ILE779  LEU786  VAL792 
 PHE793  MET794  SER795  GLU796  ALA797  LYS798  CYS799  TRP800  GLU811  SER814 

> <Gold.Protein.RotatedAtoms>
  152.1305  133.4405  159.4718 H   0  0  0  0  0  0  0  0  0  0  0  0  # atno 6907 bound_to 6896
  150.6878  134.2427  159.4488 H   0  0  0  0  0  0  0  0  0  0  0  0  # atno 6908 bound_to 6896
  152.0310  134.9767  160.0623 H   0  0  0  0  0  0  0  0  0  0  0  0  # atno 6909 bound_to 6896
  145.2419  140.9208  143.3145 H   0  0  0  0  0  0  0  0  0  0  0  0  # atno 7974 bound_to 7965
  155.9005  140.1040  157.1353 H   0  0  0  0  0  0  0  0  0  0  0  0  # atno 8008 bound_to 7997
  154.4026  140.1293  156.4494 H   0  0  0  0  0  0  0  0  0  0  0  0  # atno 8009 bound_to 7997
  155.7428  140.3466  155.5115 H   0  0  0  0  0  0  0  0  0  0  0  0  # atno 8010 bound_to 7997
  139.7086  143.9145  152.2459 H   0  0  0  0  0  0  0  0  0  0  0  0  # atno 10167 bound_to 10162
  156.2383  130.4178  149.8791 H   0  0  0  0  0  0  0  0  0  0  0  0  # atno 10718 bound_to 10713
  153.0159  135.6357  154.1687 H   0  0  0  0  0  0  0  0  0  0  0  0  # atno 10763 bound_to 10752
  154.1426  135.2834  155.3158 H   0  0  0  0  0  0  0  0  0  0  0  0  # atno 10764 bound_to 10752
  154.6113  135.5555  153.7538 H   0  0  0  0  0  0  0  0  0  0  0  0  # atno 10765 bound_to 10752
  140.8319  134.2507  157.4852 H   0  0  0  0  0  0  0  0  0  0  0  0  # atno 11005 bound_to 11000
  144.9581  139.4009  143.6369 LP  0  0  0  0  0  0  0  0  0  0  0  0  # atno 17320 bound_to 7965
  146.3326  139.8622  142.8854 LP  0  0  0  0  0  0  0  0  0  0  0  0  # atno 17321 bound_to 7965
  139.9008  144.6913  150.8667 LP  0  0  0  0  0  0  0  0  0  0  0  0  # atno 17342 bound_to 10162
  140.7728  143.3515  151.2005 LP  0  0  0  0  0  0  0  0  0  0  0  0  # atno 17343 bound_to 10162
  156.6381  130.8693  151.3508 LP  0  0  0  0  0  0  0  0  0  0  0  0  # atno 17370 bound_to 10713
  157.7164  130.9503  150.1272 LP  0  0  0  0  0  0  0  0  0  0  0  0  # atno 17371 bound_to 10713
  139.8705  134.9590  156.4319 LP  0  0  0  0  0  0  0  0  0  0  0  0  # atno 17394 bound_to 11000
  140.8989  133.7794  155.9657 LP  0  0  0  0  0  0  0  0  0  0  0  0  # atno 17395 bound_to 11000

$$$$
