AV-unprocessed.smi:2469|AV-procd|sdf|9733|dock3
  -GOLD-   2272013373D 1   1.00000     0.00000
 Structure written by MMmdl.
 32 33  0  0  0  0  0  0  0  0  1 V2000
  143.4180  133.8830  147.5449 O   0  0  0  0  0  0  0  0  0  0  0  0
  143.4041  132.7337  148.3647 C   0  0  0  0  0  0  0  0  0  0  0  0
  144.2943  132.9479  149.5949 C   0  0  0  0  0  0  0  0  0  0  0  0
  144.4097  131.7168  150.3029 O   0  0  0  0  0  0  0  0  0  0  0  0
  145.3914  131.5989  151.2653 C   0  0  0  0  0  0  0  0  0  0  0  0
  146.0508  132.7652  151.7008 C   0  0  0  0  0  0  0  0  0  0  0  0
  147.0528  132.6506  152.6829 C   0  0  0  0  0  0  0  0  0  0  0  0
  147.3675  131.3788  153.2028 C   0  0  0  0  0  0  0  0  0  0  0  0
  148.3677  131.2766  154.1816 N   0  0  0  0  0  0  0  0  0  0  0  0
  148.9117  132.4562  154.8423 C   0  0  2  0  0  0  0  0  0  0  0  0
  149.6961  133.3666  153.9168 C   0  0  0  0  0  0  0  0  0  0  0  0
  150.5342  134.1632  154.9115 C   0  0  0  0  0  0  0  0  0  0  0  0
  150.7825  133.2815  156.0039 O   0  0  0  0  0  0  0  0  0  0  0  0
  149.9781  132.1119  155.8804 C   0  0  0  0  0  0  0  0  0  0  0  0
  146.6499  130.2687  152.6962 C   0  0  0  0  0  0  0  0  0  0  0  0
  145.6878  130.3699  151.7549 N   0  0  0  0  0  0  0  0  0  0  0  0
  144.3046  134.2061  147.4953 H   0  0  0  0  0  0  0  0  0  0  0  0
  142.3736  132.5682  148.6801 H   0  0  0  0  0  0  0  0  0  0  0  0
  143.7135  131.8554  147.7975 H   0  0  0  0  0  0  0  0  0  0  0  0
  145.2698  133.3427  149.3047 H   0  0  0  0  0  0  0  0  0  0  0  0
  143.8198  133.6834  150.2467 H   0  0  0  0  0  0  0  0  0  0  0  0
  145.7924  133.7300  151.2896 H   0  0  0  0  0  0  0  0  0  0  0  0
  147.5706  133.5324  153.0318 H   0  0  0  0  0  0  0  0  0  0  0  0
  148.8676  130.4046  154.2806 H   0  0  0  0  0  0  0  0  0  0  0  0
  148.1166  133.0175  155.3348 H   0  0  0  0  0  0  0  0  0  0  0  0
  150.3485  132.7824  153.2657 H   0  0  0  0  0  0  0  0  0  0  0  0
  149.0678  134.0003  153.2908 H   0  0  0  0  0  0  0  0  0  0  0  0
  151.4632  134.5294  154.4741 H   0  0  0  0  0  0  0  0  0  0  0  0
  149.9718  135.0214  155.2809 H   0  0  0  0  0  0  0  0  0  0  0  0
  149.5502  131.8165  156.8387 H   0  0  0  0  0  0  0  0  0  0  0  0
  150.6156  131.2987  155.5299 H   0  0  0  0  0  0  0  0  0  0  0  0
  146.8408  129.2646  153.0432 H   0  0  0  0  0  0  0  0  0  0  0  0
  1  2  1  0  0  0  0
  1 17  1  0  0  0  0
  2  3  1  0  0  0  0
  2 18  1  0  0  0  0
  2 19  1  0  0  0  0
  3  4  1  0  0  0  0
  3 20  1  0  0  0  0
  3 21  1  0  0  0  0
  4  5  1  0  0  0  0
  5 16  1  0  0  0  0
  5  6  2  0  0  0  0
  6  7  1  0  0  0  0
  6 22  1  0  0  0  0
  7  8  2  0  0  0  0
  7 23  1  0  0  0  0
  8  9  1  0  0  0  0
  8 15  1  0  0  0  0
  9 10  1  0  0  0  0
  9 24  1  0  0  0  0
 10 14  1  0  0  0  0
 10 11  1  0  0  0  0
 10 25  1  0  0  0  0
 11 12  1  0  0  0  0
 11 26  1  0  0  0  0
 11 27  1  0  0  0  0
 12 13  1  0  0  0  0
 12 28  1  0  0  0  0
 12 29  1  0  0  0  0
 13 14  1  0  0  0  0
 14 30  1  0  0  0  0
 14 31  1  0  0  0  0
 15 16  2  0  0  0  0
 15 32  1  0  0  0  0
M  END
> <s_m_source_file>
AV-unprocessed.smi

> <i_m_source_file_index>
2469

> <i_lp_mmshare_version>
43012

> <i_f3d_flags>
0

> <s_epik_input>
W09IXVtDSDJdW0NIMl1PYzFbY0hdW2NIXWMoW2NIXW4xKVtOSF1bQ0BASF0yW0NIMl1bQ0gyXU9bQ0gyXTI=

> <s_epik_cmdline>
J2VwaWtfcHl0aG9uJywgJy1waCcsICc3LjAnLCAnLXRuJywgJzgnLCAnLW1hJywgJzIwMCcsICctbWV0YWxfYmluZGluZycsICctaW1hZScsICc8aW5maWxlLm1hZT4nLCAnLW9tYWUnLCAnPG91dGZpbGUubWFlPic=

> <r_lp_tautomer_probability>
1

> <r_epik_Ionization_Penalty>
0.000432265

> <r_epik_Ionization_Penalty_Charging>
0

> <r_epik_Ionization_Penalty_Neutral>
0.000432265

> <r_epik_State_Penalty>
-0

> <r_epik_Charging_Adjusted_Penalty>
0

> <i_epik_Tot_Q>
0

> <i_epik_Tot_abs_Q>
0

> <r_epik_Metal_State_Penalty>
-0

> <b_epik_Metal_Only>
0

> <s_lp_Force_Field>
OPLS_2005

> <r_lp_Energy>
22.9309

> <b_lp_Chiralities_Consistent>
1

> <s_lp_Variant>
AV-unprocessed.smi:2469-1

> <Gold.Version>
5.8.1

> <Gold.Id.Protein>
6NUR|6NUR_protein|mol2

> <Gold.PLP.Fitness>
37.6908

> <Gold.PLP.PLP>
-32.1910

> <Gold.PLP.part.hbond>
-4.2038

> <Gold.PLP.part.metal>
0.0000

> <Gold.PLP.part.buried>
-5.2199

> <Gold.PLP.part.nonpolar>
-23.5814

> <Gold.PLP.part.repulsive>
0.2737

> <Gold.PLP.ligand.clash>
0.0581

> <Gold.PLP.ligand.torsion>
0.2630

> <Gold.PLP.Chemscore.Hbond>
2.0000

> <Gold.PLP.Chemscore.CHOScore>
0.0000

> <Gold.PLP.Chemscore.Metal>
0.0000

> <Gold.Chemscore.Hbonds>
donor molecule, donor type, donor heavy atom, donor atom, acceptor molecule, acceptor atom, score
      L1  H     1    17       P1  7921  1.00
      P1  H 10192 10197       L1     1  1.00

> <Gold.PLP.Chemscore.Internal.Correction>
0.0840

> <Gold.Rescore>
     Score         DG    S(hbond)    S(metal)    S(lipo)     H(rot)  DE(clash)    DE(int)     intcor
     14.03     -14.31       1.99        0.00      69.44       2.32       0.02       0.27       ----

> <Gold.Chemscore.Fitness>
14.0251

> <Gold.Chemscore.DG>
-14.3142

> <Gold.Chemscore.ZeroCoef>
-5.4800

> <Gold.Chemscore.Hbond>
1.9927

> <Gold.Chemscore.Metal>
0.0000

> <Gold.Chemscore.Lipo>
69.4387

> <Gold.Chemscore.Internal_Hbond>
0.0000

> <Gold.Chemscore.DEClash>
0.0197

> <Gold.Chemscore.DEInternal>
0.2695

> <Gold.Chemscore.Rot>
2.3225

> <Gold.Chemscore.Internal.Correction>
   9.000000E+99

> <Gold.Chemscore.Hbonds>
donor molecule, donor type, donor heavy atom, donor atom, acceptor molecule, acceptor atom, score
      L1  H     1    17       P1  7921  1.00
      P1  H 10192 10197       L1     1  0.92

> <Gold.Chemscore.Hbond.Weighted>
-6.6555

> <Gold.Chemscore.Metal.Weighted>
-0.0000

> <Gold.Chemscore.Lipo.Weighted>
-8.1243

> <Gold.Chemscore.Internal_Hbond.Weighted>
0.0000

> <Gold.Chemscore.DEClash.Weighted>
0.0197

> <Gold.Chemscore.DEInternal.Weighted>
0.2695

> <Gold.Chemscore.Rot.Weighted>
5.9456

> <Gold.Chemscore.Internal.Correction.Weighted>
   9.000000E+99

> <Gold.Protein.RotatedTorsions>
[ 6907 6896 6895 6894 ] final   84.86 input  -60.11 | X-H torsion
[ 7974 7965 7964 7962 ] final  -15.51 input  175.53 | X-H torsion
[ 8008 7997 7996 7995 ] final  148.21 input   59.86 | X-H torsion
[ 10167 10162 10161 10158 ] final   53.65 input  -65.29 | X-H torsion
[ 10718 10713 10712 10709 ] final  -90.46 input   66.30 | X-H torsion
[ 10763 10752 10751 10750 ] final   74.12 input  -60.55 | X-H torsion
[ 11005 11000 10999 10996 ] final  168.46 input  -57.11 | X-H torsion

> <Gold.Protein.ActiveResidues>
 VAL166  LYS551  ARG553  GLY616  TRP617  ASP618  TYR619  PRO620  LYS621  CYS622 
 ASP623  PHE694  ASN695  SER759  ASP760  ASP761  ALA762  ILE779  LEU786  VAL792 
 PHE793  MET794  SER795  GLU796  ALA797  LYS798  CYS799  TRP800  GLU811  SER814 

> <Gold.Protein.RotatedAtoms>
  152.5362  134.2675  159.8958 H   0  0  0  0  0  0  0  0  0  0  0  0  # atno 6907 bound_to 6896
  151.2632  133.4285  159.2625 H   0  0  0  0  0  0  0  0  0  0  0  0  # atno 6908 bound_to 6896
  151.0434  134.9637  159.8230 H   0  0  0  0  0  0  0  0  0  0  0  0  # atno 6909 bound_to 6896
  146.2029  140.3503  142.8417 H   0  0  0  0  0  0  0  0  0  0  0  0  # atno 7974 bound_to 7965
  156.2799  140.2135  156.5662 H   0  0  0  0  0  0  0  0  0  0  0  0  # atno 8008 bound_to 7997
  154.7172  140.0506  157.0629 H   0  0  0  0  0  0  0  0  0  0  0  0  # atno 8009 bound_to 7997
  155.0526  140.3158  155.4690 H   0  0  0  0  0  0  0  0  0  0  0  0  # atno 8010 bound_to 7997
  140.2385  144.3609  150.6388 H   0  0  0  0  0  0  0  0  0  0  0  0  # atno 10167 bound_to 10162
  155.9988  130.4910  150.5326 H   0  0  0  0  0  0  0  0  0  0  0  0  # atno 10718 bound_to 10713
  153.0566  135.5037  154.7995 H   0  0  0  0  0  0  0  0  0  0  0  0  # atno 10763 bound_to 10752
  154.6816  135.2969  154.9607 H   0  0  0  0  0  0  0  0  0  0  0  0  # atno 10764 bound_to 10752
  154.0391  135.6719  153.4841 H   0  0  0  0  0  0  0  0  0  0  0  0  # atno 10765 bound_to 10752
  140.2875  134.7700  157.3810 H   0  0  0  0  0  0  0  0  0  0  0  0  # atno 11005 bound_to 11000
  144.8724  140.7290  143.6038 LP  0  0  0  0  0  0  0  0  0  0  0  0  # atno 17320 bound_to 7965
  145.3422  139.1729  143.4479 LP  0  0  0  0  0  0  0  0  0  0  0  0  # atno 17321 bound_to 7965
  140.6131  143.2170  151.6846 LP  0  0  0  0  0  0  0  0  0  0  0  0  # atno 17342 bound_to 10162
  139.5085  144.3608  152.0564 LP  0  0  0  0  0  0  0  0  0  0  0  0  # atno 17343 bound_to 10162
  157.3273  131.0693  151.1887 LP  0  0  0  0  0  0  0  0  0  0  0  0  # atno 17370 bound_to 10713
  157.2780  130.6736  149.6052 LP  0  0  0  0  0  0  0  0  0  0  0  0  # atno 17371 bound_to 10713
  140.1226  134.5200  155.8171 LP  0  0  0  0  0  0  0  0  0  0  0  0  # atno 17394 bound_to 11000
  141.2152  133.6761  156.6893 LP  0  0  0  0  0  0  0  0  0  0  0  0  # atno 17395 bound_to 11000

$$$$
