AV-unprocessed.smi:2473|AV-procd|sdf|9748|dock8
  -GOLD-   2272013393D 1   1.00000     0.00000
 Structure written by MMmdl.
 47 48  0  0  0  0  0  0  0  0  1 V2000
  153.7186  141.6077  161.4530 C   0  0  0  0  0  0  0  0  0  0  0  0
  153.2522  142.1553  160.0964 C   0  0  1  0  0  0  0  0  0  0  0  0
  152.7437  141.0265  159.1813 C   0  0  0  0  0  0  0  0  0  0  0  0
  152.2882  141.5750  157.8156 C   0  0  1  0  0  0  0  0  0  0  0  0
  151.7711  140.4518  156.9078 C   0  0  0  0  0  0  0  0  0  0  0  0
  152.5403  139.8674  156.1443 O   0  0  0  0  0  0  0  0  0  0  0  0
  150.4714  140.1373  157.0304 N   0  0  0  0  0  0  0  0  0  0  0  0
  149.8087  139.0021  156.3932 C   0  0  0  0  0  0  0  0  0  0  0  0
  149.7128  139.1728  154.8642 C   0  0  0  0  0  0  0  0  0  0  0  0
  148.6933  140.1842  154.4264 C   0  0  0  0  0  0  0  0  0  0  0  0
  148.7901  141.4831  154.6931 N   0  0  0  0  0  0  0  0  0  0  0  0
  147.6786  142.0554  154.0846 C   0  0  0  0  0  0  0  0  0  0  0  0
  146.9400  141.0743  153.4691 C   0  0  0  0  0  0  0  0  0  0  0  0
  147.6022  139.8751  153.6962 N   0  0  0  0  0  0  0  0  0  0  0  0
  147.1786  138.5707  153.2233 C   0  0  0  0  0  0  0  0  0  0  0  0
  151.2002  142.6555  158.0088 C   0  0  0  0  0  0  0  0  0  0  0  0
  151.6387  143.8165  158.9337 C   0  0  0  0  0  0  0  0  0  0  0  0
  152.7069  144.6962  158.2478 C   0  0  0  0  0  0  0  0  0  0  0  0
  150.4144  144.7071  159.2230 C   0  0  0  0  0  0  0  0  0  0  0  0
  152.1666  143.2387  160.2712 C   0  0  0  0  0  0  0  0  0  0  0  0
  152.9011  141.1252  161.9893 H   0  0  0  0  0  0  0  0  0  0  0  0
  154.1075  142.4062  162.0857 H   0  0  0  0  0  0  0  0  0  0  0  0
  154.5139  140.8726  161.3269 H   0  0  0  0  0  0  0  0  0  0  0  0
  154.1228  142.6092  159.6225 H   0  0  0  0  0  0  0  0  0  0  0  0
  153.5328  140.2866  159.0384 H   0  0  0  0  0  0  0  0  0  0  0  0
  151.9188  140.5060  159.6711 H   0  0  0  0  0  0  0  0  0  0  0  0
  153.1507  142.0274  157.3250 H   0  0  0  0  0  0  0  0  0  0  0  0
  149.9153  140.6825  157.6729 H   0  0  0  0  0  0  0  0  0  0  0  0
  150.3748  138.1000  156.6258 H   0  0  0  0  0  0  0  0  0  0  0  0
  148.8126  138.8504  156.8120 H   0  0  0  0  0  0  0  0  0  0  0  0
  150.6898  139.4403  154.4615 H   0  0  0  0  0  0  0  0  0  0  0  0
  149.4589  138.2144  154.4102 H   0  0  0  0  0  0  0  0  0  0  0  0
  147.4979  143.1189  154.1358 H   0  0  0  0  0  0  0  0  0  0  0  0
  146.0231  141.1301  152.9010 H   0  0  0  0  0  0  0  0  0  0  0  0
  146.2987  138.6695  152.5872 H   0  0  0  0  0  0  0  0  0  0  0  0
  146.9307  137.9332  154.0721 H   0  0  0  0  0  0  0  0  0  0  0  0
  147.9759  138.1055  152.6437 H   0  0  0  0  0  0  0  0  0  0  0  0
  150.8960  143.0541  157.0403 H   0  0  0  0  0  0  0  0  0  0  0  0
  150.3077  142.1879  158.4287 H   0  0  0  0  0  0  0  0  0  0  0  0
  152.9972  145.5315  158.8860 H   0  0  0  0  0  0  0  0  0  0  0  0
  152.3304  145.1156  157.3142 H   0  0  0  0  0  0  0  0  0  0  0  0
  153.6156  144.1463  158.0082 H   0  0  0  0  0  0  0  0  0  0  0  0
  150.6741  145.5396  159.8779 H   0  0  0  0  0  0  0  0  0  0  0  0
  149.6160  144.1460  159.7102 H   0  0  0  0  0  0  0  0  0  0  0  0
  150.0033  145.1273  158.3043 H   0  0  0  0  0  0  0  0  0  0  0  0
  151.3333  142.8039  160.8256 H   0  0  0  0  0  0  0  0  0  0  0  0
  152.5497  144.0464  160.8962 H   0  0  0  0  0  0  0  0  0  0  0  0
  1  2  1  0  0  0  0
  1 21  1  0  0  0  0
  1 22  1  0  0  0  0
  1 23  1  0  0  0  0
  2 20  1  0  0  0  0
  2  3  1  0  0  0  0
  2 24  1  0  0  0  0
  3  4  1  0  0  0  0
  3 25  1  0  0  0  0
  3 26  1  0  0  0  0
  4  5  1  0  0  0  0
  4 16  1  0  0  0  0
  4 27  1  0  0  0  0
  5  6  2  0  0  0  0
  5  7  1  0  0  0  0
  7  8  1  0  0  0  0
  7 28  1  0  0  0  0
  8  9  1  0  0  0  0
  8 29  1  0  0  0  0
  8 30  1  0  0  0  0
  9 10  1  0  0  0  0
  9 31  1  0  0  0  0
  9 32  1  0  0  0  0
 10 14  1  0  0  0  0
 10 11  2  0  0  0  0
 11 12  1  0  0  0  0
 12 13  2  0  0  0  0
 12 33  1  0  0  0  0
 13 14  1  0  0  0  0
 13 34  1  0  0  0  0
 14 15  1  0  0  0  0
 15 35  1  0  0  0  0
 15 36  1  0  0  0  0
 15 37  1  0  0  0  0
 16 17  1  0  0  0  0
 16 38  1  0  0  0  0
 16 39  1  0  0  0  0
 17 18  1  0  0  0  0
 17 19  1  0  0  0  0
 17 20  1  0  0  0  0
 18 40  1  0  0  0  0
 18 41  1  0  0  0  0
 18 42  1  0  0  0  0
 19 43  1  0  0  0  0
 19 44  1  0  0  0  0
 19 45  1  0  0  0  0
 20 46  1  0  0  0  0
 20 47  1  0  0  0  0
M  END
> <s_m_source_file>
AV-unprocessed.smi

> <i_m_source_file_index>
2473

> <i_lp_mmshare_version>
43012

> <i_f3d_flags>
0

> <s_epik_input>
W0NIM11bQ0BASF0oW0NIMl0xKVtDSDJdW0NASF0oW0NIMl1DMShbQ0gzXSlbQ0gzXSlDKD1PKVtOSF1bQ0gyXVtDSDJdYzJuW2NIXVtjSF1uMltDSDNd

> <s_epik_cmdline>
J2VwaWtfcHl0aG9uJywgJy1waCcsICc3LjAnLCAnLXRuJywgJzgnLCAnLW1hJywgJzIwMCcsICctbWV0YWxfYmluZGluZycsICctaW1hZScsICc8aW5maWxlLm1hZT4nLCAnLW9tYWUnLCAnPG91dGZpbGUubWFlPic=

> <r_lp_tautomer_probability>
1

> <r_epik_Ionization_Penalty>
1.22858

> <r_epik_Ionization_Penalty_Charging>
1.22858

> <r_epik_Ionization_Penalty_Neutral>
2.12671e-08

> <r_epik_State_Penalty>
1.2965

> <r_epik_Charging_Adjusted_Penalty>
2.52508

> <i_epik_Tot_Q>
0

> <i_epik_Tot_abs_Q>
0

> <r_epik_Metal_State_Penalty>
0.411461

> <b_epik_Metal_Only>
0

> <s_lp_Force_Field>
OPLS_2005

> <r_lp_Energy>
12.6142

> <b_lp_Chiralities_Consistent>
1

> <s_lp_Variant>
AV-unprocessed.smi:2473-6

> <Gold.Version>
5.8.1

> <Gold.Id.Protein>
6NUR|6NUR_protein|mol2

> <Gold.PLP.Fitness>
49.7225

> <Gold.PLP.PLP>
-43.3673

> <Gold.PLP.part.hbond>
-1.0000

> <Gold.PLP.part.metal>
0.0000

> <Gold.PLP.part.buried>
-5.4170

> <Gold.PLP.part.nonpolar>
-36.0124

> <Gold.PLP.part.repulsive>
0.1632

> <Gold.PLP.ligand.clash>
0.0000

> <Gold.PLP.ligand.torsion>
0.8249

> <Gold.PLP.Chemscore.Hbond>
1.0000

> <Gold.PLP.Chemscore.CHOScore>
1.6611

> <Gold.PLP.Chemscore.Metal>
0.0000

> <Gold.Chemscore.Hbonds>
donor molecule, donor type, donor heavy atom, donor atom, acceptor molecule, acceptor atom, score
      P1  H  7997  8008       L1     6  1.00
      L1  C    12    33       P1  8028  0.82
      L1  C    13    34       P1 10175  0.90

> <Gold.PLP.Chemscore.Internal.Correction>
0.0218

> <Gold.Rescore>
     Score         DG    S(hbond)    S(metal)    S(lipo)     H(rot)  DE(clash)    DE(int)     intcor
     17.95     -18.94       0.96        0.00     120.66       1.51       0.08       0.91       ----

> <Gold.Chemscore.Fitness>
17.9544

> <Gold.Chemscore.DG>
-18.9437

> <Gold.Chemscore.ZeroCoef>
-5.4800

> <Gold.Chemscore.Hbond>
0.9626

> <Gold.Chemscore.Metal>
0.0000

> <Gold.Chemscore.Lipo>
120.6559

> <Gold.Chemscore.Internal_Hbond>
0.0000

> <Gold.Chemscore.DEClash>
0.0800

> <Gold.Chemscore.DEInternal>
0.9093

> <Gold.Chemscore.Rot>
1.5109

> <Gold.Chemscore.Internal.Correction>
   9.000000E+99

> <Gold.Chemscore.Hbonds>
donor molecule, donor type, donor heavy atom, donor atom, acceptor molecule, acceptor atom, score
      P1  H  7997  8008       L1     6  0.94

> <Gold.Chemscore.Hbond.Weighted>
-3.2150

> <Gold.Chemscore.Metal.Weighted>
-0.0000

> <Gold.Chemscore.Lipo.Weighted>
-14.1167

> <Gold.Chemscore.Internal_Hbond.Weighted>
0.0000

> <Gold.Chemscore.DEClash.Weighted>
0.0800

> <Gold.Chemscore.DEInternal.Weighted>
0.9093

> <Gold.Chemscore.Rot.Weighted>
3.8680

> <Gold.Chemscore.Internal.Correction.Weighted>
   9.000000E+99

> <Gold.Protein.RotatedTorsions>
[ 6907 6896 6895 6894 ] final   14.88 input  -60.11 | X-H torsion
[ 7974 7965 7964 7962 ] final -177.10 input  175.53 | X-H torsion
[ 8008 7997 7996 7995 ] final  -48.99 input   59.86 | X-H torsion
[ 10167 10162 10161 10158 ] final  127.08 input  -65.29 | X-H torsion
[ 10718 10713 10712 10709 ] final   -3.20 input   66.30 | X-H torsion
[ 10763 10752 10751 10750 ] final   59.44 input  -60.55 | X-H torsion
[ 11005 11000 10999 10996 ] final  -51.31 input  -57.11 | X-H torsion

> <Gold.Protein.ActiveResidues>
 VAL166  LYS551  ARG553  GLY616  TRP617  ASP618  TYR619  PRO620  LYS621  CYS622 
 ASP623  PHE694  ASN695  SER759  ASP760  ASP761  ALA762  ILE779  LEU786  VAL792 
 PHE793  MET794  SER795  GLU796  ALA797  LYS798  CYS799  TRP800  GLU811  SER814 

> <Gold.Protein.RotatedAtoms>
  151.8093  135.0685  160.0410 H   0  0  0  0  0  0  0  0  0  0  0  0  # atno 6907 bound_to 6896
  152.3032  133.5672  159.5640 H   0  0  0  0  0  0  0  0  0  0  0  0  # atno 6908 bound_to 6896
  150.7283  134.0177  159.3733 H   0  0  0  0  0  0  0  0  0  0  0  0  # atno 6909 bound_to 6896
  144.7127  140.1071  143.6413 H   0  0  0  0  0  0  0  0  0  0  0  0  # atno 7974 bound_to 7965
  154.4037  140.1308  156.4429 H   0  0  0  0  0  0  0  0  0  0  0  0  # atno 8008 bound_to 7997
  155.7441  140.3489  155.5098 H   0  0  0  0  0  0  0  0  0  0  0  0  # atno 8009 bound_to 7997
  155.9011  140.1019  157.1339 H   0  0  0  0  0  0  0  0  0  0  0  0  # atno 8010 bound_to 7997
  139.5597  144.6873  151.4078 H   0  0  0  0  0  0  0  0  0  0  0  0  # atno 10167 bound_to 10162
  156.7796  130.5326  149.5753 H   0  0  0  0  0  0  0  0  0  0  0  0  # atno 10718 bound_to 10713
  152.9894  135.5571  154.5713 H   0  0  0  0  0  0  0  0  0  0  0  0  # atno 10763 bound_to 10752
  154.5113  135.2802  155.1342 H   0  0  0  0  0  0  0  0  0  0  0  0  # atno 10764 bound_to 10752
  154.2733  135.6359  153.5371 H   0  0  0  0  0  0  0  0  0  0  0  0  # atno 10765 bound_to 10752
  141.0864  133.6641  156.3858 H   0  0  0  0  0  0  0  0  0  0  0  0  # atno 11005 bound_to 11000
  145.9487  139.2719  143.1225 LP  0  0  0  0  0  0  0  0  0  0  0  0  # atno 17320 bound_to 7965
  145.9346  140.9024  143.0339 LP  0  0  0  0  0  0  0  0  0  0  0  0  # atno 17321 bound_to 7965
  140.6875  143.7939  150.7207 LP  0  0  0  0  0  0  0  0  0  0  0  0  # atno 17342 bound_to 10162
  140.1411  143.4440  152.2193 LP  0  0  0  0  0  0  0  0  0  0  0  0  # atno 17343 bound_to 10162
  156.1226  130.6121  151.0217 LP  0  0  0  0  0  0  0  0  0  0  0  0  # atno 17370 bound_to 10713
  157.6653  131.0873  150.7743 LP  0  0  0  0  0  0  0  0  0  0  0  0  # atno 17371 bound_to 10713
  140.5354  134.6172  157.5363 LP  0  0  0  0  0  0  0  0  0  0  0  0  # atno 17394 bound_to 11000
  139.9683  134.7336  156.0094 LP  0  0  0  0  0  0  0  0  0  0  0  0  # atno 17395 bound_to 11000

$$$$
