AV-unprocessed.smi:2740|AV-procd|sdf|10557|dock6
  -GOLD-   2272015 13D 1   1.00000     0.00000
 Structure written by MMmdl.
 30 31  0  0  0  0  0  0  0  0  2 V2000
  148.4525  139.1853  153.7104 C   0  0  0  0  0  0  0  0  0  0  0  0
  149.7519  139.1834  154.4421 C   0  0  0  0  0  0  0  0  0  0  0  0
  150.8571  138.4162  154.1801 C   0  0  0  0  0  0  0  0  0  0  0  0
  151.9213  138.6473  155.0530 N   0  0  0  0  0  0  0  0  0  0  0  0
  151.6533  139.5681  155.9849 C   0  0  0  0  0  0  0  0  0  0  0  0
  152.5393  139.9403  156.9232 N   0  5  0  0  0  0  0  0  0  0  0  0
  152.1100  140.5381  158.0581 C   0  0  0  0  0  0  0  0  0  0  0  0
  150.9419  140.8168  158.3395 O   0  0  0  0  0  0  0  0  0  0  0  0
  153.0936  140.8321  158.9207 N   0  0  0  0  0  0  0  0  0  0  0  0
  152.9235  141.4747  160.2195 C   0  0  0  0  0  0  0  0  0  0  0  0
  152.5682  142.9637  160.0743 C   0  0  1  0  0  0  0  0  0  0  0  0
  153.2470  143.6460  158.8873 C   0  0  0  0  0  0  0  0  0  0  0  0
  152.2950  144.7765  158.5240 C   0  0  0  0  0  0  0  0  0  0  0  0
  151.0239  144.4668  159.3192 C   0  0  0  0  0  0  0  0  0  0  0  0
  151.1921  143.1311  159.7705 O   0  0  0  0  0  0  0  0  0  0  0  0
  150.0267  140.2306  155.8085 S   0  0  0  0  0  0  0  0  0  0  0  0
  147.9578  138.2184  153.8023 H   0  0  0  0  0  0  0  0  0  0  0  0
  148.6058  139.3874  152.6503 H   0  0  0  0  0  0  0  0  0  0  0  0
  147.7785  139.9467  154.1039 H   0  0  0  0  0  0  0  0  0  0  0  0
  150.9742  137.6832  153.3958 H   0  0  0  0  0  0  0  0  0  0  0  0
  154.0358  140.5914  158.6503 H   0  0  0  0  0  0  0  0  0  0  0  0
  152.1492  140.9561  160.7874 H   0  0  0  0  0  0  0  0  0  0  0  0
  153.8483  141.3613  160.7856 H   0  0  0  0  0  0  0  0  0  0  0  0
  152.8009  143.5099  160.9908 H   0  0  0  0  0  0  0  0  0  0  0  0
  154.2504  143.9973  159.1289 H   0  0  0  0  0  0  0  0  0  0  0  0
  153.3273  142.9539  158.0479 H   0  0  0  0  0  0  0  0  0  0  0  0
  152.6980  145.7513  158.8012 H   0  0  0  0  0  0  0  0  0  0  0  0
  152.1024  144.7853  157.4507 H   0  0  0  0  0  0  0  0  0  0  0  0
  150.9408  145.1283  160.1827 H   0  0  0  0  0  0  0  0  0  0  0  0
  150.1181  144.5717  158.7214 H   0  0  0  0  0  0  0  0  0  0  0  0
  1  2  1  0  0  0  0
  1 17  1  0  0  0  0
  1 18  1  0  0  0  0
  1 19  1  0  0  0  0
  2 16  1  0  0  0  0
  2  3  2  0  0  0  0
  3  4  1  0  0  0  0
  3 20  1  0  0  0  0
  4  5  2  0  0  0  0
  5  6  1  0  0  0  0
  5 16  1  0  0  0  0
  6  7  1  0  0  0  0
  7  8  2  0  0  0  0
  7  9  1  0  0  0  0
  9 10  1  0  0  0  0
  9 21  1  0  0  0  0
 10 11  1  0  0  0  0
 10 22  1  0  0  0  0
 10 23  1  0  0  0  0
 11 15  1  0  0  0  0
 11 12  1  0  0  0  0
 11 24  1  0  0  0  0
 12 13  1  0  0  0  0
 12 25  1  0  0  0  0
 12 26  1  0  0  0  0
 13 14  1  0  0  0  0
 13 27  1  0  0  0  0
 13 28  1  0  0  0  0
 14 15  1  0  0  0  0
 14 29  1  0  0  0  0
 14 30  1  0  0  0  0
M  CHG  1   6  -1
M  END
> <s_m_source_file>
AV-unprocessed.smi

> <i_m_source_file_index>
2740

> <i_lp_mmshare_version>
43012

> <i_f3d_flags>
0

> <s_epik_input>
W0NIM11jMVtjSF1uYyhzMSlbTkhdQyg9TylbTkhdW0NIMl1bQ0BASF0yW0NIMl1bQ0gyXVtDSDJdTzI=

> <s_epik_cmdline>
J2VwaWtfcHl0aG9uJywgJy1waCcsICc3LjAnLCAnLXRuJywgJzgnLCAnLW1hJywgJzIwMCcsICctbWV0YWxfYmluZGluZycsICctaW1hZScsICc8aW5maWxlLm1hZT4nLCAnLW9tYWUnLCAnPG91dGZpbGUubWFlPic=

> <r_lp_tautomer_probability>
0.999

> <r_epik_Ionization_Penalty>
8.54039

> <r_epik_Ionization_Penalty_Charging>
6.77868

> <r_epik_Ionization_Penalty_Neutral>
1.76171

> <r_epik_State_Penalty>
6.77885

> <r_epik_Charging_Adjusted_Penalty>
13.5575

> <i_epik_Tot_Q>
-1

> <i_epik_Tot_abs_Q>
1

> <r_epik_Metal_State_Penalty>
2.69888

> <b_epik_Metal_Only>
1

> <s_lp_Force_Field>
OPLS_2005

> <r_lp_Energy>
13.1724

> <b_lp_Chiralities_Consistent>
1

> <s_lp_Variant>
AV-unprocessed.smi:2740-4

> <Gold.Version>
5.8.1

> <Gold.Id.Protein>
6NUR|6NUR_protein|mol2

> <Gold.PLP.Fitness>
43.3183

> <Gold.PLP.PLP>
-34.9027

> <Gold.PLP.part.hbond>
-1.6092

> <Gold.PLP.part.metal>
0.0000

> <Gold.PLP.part.buried>
-3.9374

> <Gold.PLP.part.nonpolar>
-29.6586

> <Gold.PLP.part.repulsive>
0.1401

> <Gold.PLP.ligand.clash>
0.0000

> <Gold.PLP.ligand.torsion>
0.3886

> <Gold.PLP.Chemscore.Hbond>
2.0000

> <Gold.PLP.Chemscore.CHOScore>
1.0557

> <Gold.PLP.Chemscore.Metal>
0.0000

> <Gold.Chemscore.Hbonds>
donor molecule, donor type, donor heavy atom, donor atom, acceptor molecule, acceptor atom, score
      P1  H  7997  8008       L1     6  2.00
      L1  C     3    20       P1  7948  0.06
      L1  C     3    20       P1  7949  0.94

> <Gold.PLP.Chemscore.Internal.Correction>
0.0257

> <Gold.Rescore>
     Score         DG    S(hbond)    S(metal)    S(lipo)     H(rot)  DE(clash)    DE(int)     intcor
     12.33     -15.58       0.93        0.00      87.02       1.25       0.01       3.24       ----

> <Gold.Chemscore.Fitness>
12.3314

> <Gold.Chemscore.DG>
-15.5801

> <Gold.Chemscore.ZeroCoef>
-5.4800

> <Gold.Chemscore.Hbond>
0.9347

> <Gold.Chemscore.Metal>
0.0000

> <Gold.Chemscore.Lipo>
87.0242

> <Gold.Chemscore.Internal_Hbond>
0.0000

> <Gold.Chemscore.DEClash>
0.0052

> <Gold.Chemscore.DEInternal>
3.2435

> <Gold.Chemscore.Rot>
1.2514

> <Gold.Chemscore.Internal.Correction>
   9.000000E+99

> <Gold.Chemscore.Hbonds>
donor molecule, donor type, donor heavy atom, donor atom, acceptor molecule, acceptor atom, score
      P1  H  7997  8008       L1     6  0.91

> <Gold.Chemscore.Hbond.Weighted>
-3.1218

> <Gold.Chemscore.Metal.Weighted>
-0.0000

> <Gold.Chemscore.Lipo.Weighted>
-10.1818

> <Gold.Chemscore.Internal_Hbond.Weighted>
0.0000

> <Gold.Chemscore.DEClash.Weighted>
0.0052

> <Gold.Chemscore.DEInternal.Weighted>
3.2435

> <Gold.Chemscore.Rot.Weighted>
3.2036

> <Gold.Chemscore.Internal.Correction.Weighted>
   9.000000E+99

> <Gold.Protein.RotatedTorsions>
[ 6907 6896 6895 6894 ] final   89.67 input  -60.11 | X-H torsion
[ 7974 7965 7964 7962 ] final   -6.42 input  175.53 | X-H torsion
[ 8008 7997 7996 7995 ] final  -53.79 input   59.86 | X-H torsion
[ 10167 10162 10161 10158 ] final  134.83 input  -65.29 | X-H torsion
[ 10718 10713 10712 10709 ] final  138.88 input   66.30 | X-H torsion
[ 10763 10752 10751 10750 ] final  -97.19 input  -60.55 | X-H torsion
[ 11005 11000 10999 10996 ] final  122.62 input  -57.11 | X-H torsion

> <Gold.Protein.ActiveResidues>
 VAL166  LYS551  ARG553  GLY616  TRP617  ASP618  TYR619  PRO620  LYS621  CYS622 
 ASP623  PHE694  ASN695  SER759  ASP760  ASP761  ALA762  ILE779  LEU786  VAL792 
 PHE793  MET794  SER795  GLU796  ALA797  LYS798  CYS799  TRP800  GLU811  SER814 

> <Gold.Protein.RotatedAtoms>
  152.5438  134.1930  159.8681 H   0  0  0  0  0  0  0  0  0  0  0  0  # atno 6907 bound_to 6896
  151.1924  133.4652  159.2602 H   0  0  0  0  0  0  0  0  0  0  0  0  # atno 6908 bound_to 6896
  151.1070  135.0017  159.8531 H   0  0  0  0  0  0  0  0  0  0  0  0  # atno 6909 bound_to 6896
  146.2331  140.2168  142.8336 H   0  0  0  0  0  0  0  0  0  0  0  0  # atno 7974 bound_to 7965
  154.4143  140.1191  156.5211 H   0  0  0  0  0  0  0  0  0  0  0  0  # atno 8008 bound_to 7997
  155.6701  140.3496  155.4796 H   0  0  0  0  0  0  0  0  0  0  0  0  # atno 8009 bound_to 7997
  155.9640  140.1128  157.0861 H   0  0  0  0  0  0  0  0  0  0  0  0  # atno 8010 bound_to 7997
  139.5241  144.6547  151.5196 H   0  0  0  0  0  0  0  0  0  0  0  0  # atno 10167 bound_to 10162
  157.4205  131.1038  151.0359 H   0  0  0  0  0  0  0  0  0  0  0  0  # atno 10718 bound_to 10713
  154.7306  135.5056  153.8958 H   0  0  0  0  0  0  0  0  0  0  0  0  # atno 10763 bound_to 10752
  153.0946  135.6668  153.9796 H   0  0  0  0  0  0  0  0  0  0  0  0  # atno 10764 bound_to 10752
  153.9598  135.3049  155.3413 H   0  0  0  0  0  0  0  0  0  0  0  0  # atno 10765 bound_to 10752
  139.9276  134.9641  156.8136 H   0  0  0  0  0  0  0  0  0  0  0  0  # atno 11005 bound_to 11000
  144.9663  140.8325  143.5482 LP  0  0  0  0  0  0  0  0  0  0  0  0  # atno 17320 bound_to 7965
  145.2144  139.2189  143.5126 LP  0  0  0  0  0  0  0  0  0  0  0  0  # atno 17321 bound_to 7965
  140.6368  143.8968  150.6655 LP  0  0  0  0  0  0  0  0  0  0  0  0  # atno 17342 bound_to 10162
  140.2290  143.3750  152.1581 LP  0  0  0  0  0  0  0  0  0  0  0  0  # atno 17343 bound_to 10162
  157.1291  130.6094  149.5525 LP  0  0  0  0  0  0  0  0  0  0  0  0  # atno 17370 bound_to 10713
  155.9879  130.4920  150.7145 LP  0  0  0  0  0  0  0  0  0  0  0  0  # atno 17371 bound_to 10713
  140.6291  133.9922  155.7654 LP  0  0  0  0  0  0  0  0  0  0  0  0  # atno 17394 bound_to 11000
  141.0844  134.0012  157.3336 LP  0  0  0  0  0  0  0  0  0  0  0  0  # atno 17395 bound_to 11000

$$$$
