AV-unprocessed.smi:511|AV-procd|sdf|2765|dock10
  -GOLD-   2262023233D 1   1.00000     0.00000
 Structure written by MMmdl.
 45 47  0  0  0  0  0  0  0  0  1 V2000
  153.5048  137.8883  159.2801 C   0  0  0  0  0  0  0  0  0  0  0  0
  153.5557  138.6230  158.0709 O   0  0  0  0  0  0  0  0  0  0  0  0
  152.2673  138.9212  157.5581 C   0  0  0  0  0  0  0  0  0  0  0  0
  152.4064  139.6801  156.2312 C   0  0  0  0  0  0  0  0  0  0  0  0
  151.1977  140.4363  155.9085 N   0  0  0  0  0  0  0  0  0  0  0  0
  150.7505  141.6142  156.4288 C   0  0  0  0  0  0  0  0  0  0  0  0
  151.4690  142.3363  157.3826 N   0  0  0  0  0  0  0  0  0  0  0  0
  152.4260  141.8131  158.3552 C   0  0  0  0  0  0  0  0  0  0  0  0
  152.1282  142.3568  159.7663 C   0  0  0  0  0  0  0  0  0  0  0  0
  152.2580  143.8136  159.7558 N   0  0  0  0  0  0  0  0  0  0  0  0
  151.9716  144.3392  161.0826 C   0  0  0  0  0  0  0  0  0  0  0  0
  151.3039  144.3621  158.7920 C   0  0  0  0  0  0  0  0  0  0  0  0
  151.5968  143.7908  157.3901 C   0  0  0  0  0  0  0  0  0  0  0  0
  149.5485  141.9959  155.9865 N   0  0  0  0  0  0  0  0  0  0  0  0
  149.2137  140.9970  155.0871 C   0  0  0  0  0  0  0  0  0  0  0  0
  150.1854  140.0529  155.0270 C   0  0  0  0  0  0  0  0  0  0  0  0
  150.0709  138.8621  154.1752 C   0  0  0  0  0  0  0  0  0  0  0  0
  150.9292  137.9844  154.1164 O   0  0  0  0  0  0  0  0  0  0  0  0
  148.9182  138.8275  153.4630 N   0  0  0  0  0  0  0  0  0  0  0  0
  147.9036  139.7456  153.4752 C   0  0  0  0  0  0  0  0  0  0  0  0
  146.9120  139.5672  152.7684 O   0  0  0  0  0  0  0  0  0  0  0  0
  148.0443  140.8393  154.2932 N   0  0  0  0  0  0  0  0  0  0  0  0
  147.0121  141.8732  154.3905 C   0  0  0  0  0  0  0  0  0  0  0  0
  148.7912  138.0306  152.8565 H   0  0  0  0  0  0  0  0  0  0  0  0
  154.5177  137.6847  159.6271 H   0  0  0  0  0  0  0  0  0  0  0  0
  152.9980  136.9325  159.1402 H   0  0  0  0  0  0  0  0  0  0  0  0
  152.9875  138.4492  160.0599 H   0  0  0  0  0  0  0  0  0  0  0  0
  151.7068  137.9989  157.3993 H   0  0  0  0  0  0  0  0  0  0  0  0
  151.7091  139.5226  158.2772 H   0  0  0  0  0  0  0  0  0  0  0  0
  153.2678  140.3372  156.2827 H   0  0  0  0  0  0  0  0  0  0  0  0
  152.6253  138.9899  155.4174 H   0  0  0  0  0  0  0  0  0  0  0  0
  152.4194  140.7240  158.3493 H   0  0  0  0  0  0  0  0  0  0  0  0
  153.4345  142.0981  158.0517 H   0  0  0  0  0  0  0  0  0  0  0  0
  151.1276  142.0639  160.0887 H   0  0  0  0  0  0  0  0  0  0  0  0
  152.8354  141.9343  160.4812 H   0  0  0  0  0  0  0  0  0  0  0  0
  152.0654  145.4256  161.0917 H   0  0  0  0  0  0  0  0  0  0  0  0
  152.6765  143.9382  161.8117 H   0  0  0  0  0  0  0  0  0  0  0  0
  150.9619  144.0802  161.4050 H   0  0  0  0  0  0  0  0  0  0  0  0
  150.2808  144.1276  159.0908 H   0  0  0  0  0  0  0  0  0  0  0  0
  151.3925  145.4489  158.7718 H   0  0  0  0  0  0  0  0  0  0  0  0
  152.5969  144.0747  157.0589 H   0  0  0  0  0  0  0  0  0  0  0  0
  150.8970  144.2194  156.6721 H   0  0  0  0  0  0  0  0  0  0  0  0
  146.1568  141.7112  153.7337 H   0  0  0  0  0  0  0  0  0  0  0  0
  147.4347  142.8466  154.1399 H   0  0  0  0  0  0  0  0  0  0  0  0
  146.6345  141.9251  155.4122 H   0  0  0  0  0  0  0  0  0  0  0  0
  1  2  1  0  0  0  0
  1 25  1  0  0  0  0
  1 26  1  0  0  0  0
  1 27  1  0  0  0  0
  2  3  1  0  0  0  0
  3  4  1  0  0  0  0
  3 28  1  0  0  0  0
  3 29  1  0  0  0  0
  4  5  1  0  0  0  0
  4 30  1  0  0  0  0
  4 31  1  0  0  0  0
  5 16  1  0  0  0  0
  5  6  1  0  0  0  0
  6  7  1  0  0  0  0
  6 14  2  0  0  0  0
  7 13  1  0  0  0  0
  7  8  1  0  0  0  0
  8  9  1  0  0  0  0
  8 32  1  0  0  0  0
  8 33  1  0  0  0  0
  9 10  1  0  0  0  0
  9 34  1  0  0  0  0
  9 35  1  0  0  0  0
 10 11  1  0  0  0  0
 10 12  1  0  0  0  0
 11 36  1  0  0  0  0
 11 37  1  0  0  0  0
 11 38  1  0  0  0  0
 12 13  1  0  0  0  0
 12 39  1  0  0  0  0
 12 40  1  0  0  0  0
 13 41  1  0  0  0  0
 13 42  1  0  0  0  0
 14 15  1  0  0  0  0
 15 22  1  0  0  0  0
 15 16  2  0  0  0  0
 16 17  1  0  0  0  0
 17 18  2  0  0  0  0
 17 19  1  0  0  0  0
 19 24  1  0  0  0  0
 19 20  1  0  0  0  0
 20 21  2  0  0  0  0
 20 22  1  0  0  0  0
 22 23  1  0  0  0  0
 23 43  1  0  0  0  0
 23 44  1  0  0  0  0
 23 45  1  0  0  0  0
M  END
> <s_m_source_file>
AV-unprocessed.smi

> <i_m_source_file_index>
511

> <i_lp_mmshare_version>
43012

> <i_f3d_flags>
0

> <s_epik_input>
W0NIM11uMWMoPU8pW25IXWMoPU8pYyhjMTIpbihbQ0gyXVtDSDJdT1tDSDNdKWMobjIpTjNbQ0gyXVtDSDJdTihbQ0gzXSlbQ0gyXVtDSDJdMw==

> <s_epik_cmdline>
J2VwaWtfcHl0aG9uJywgJy1waCcsICc3LjAnLCAnLXRuJywgJzgnLCAnLW1hJywgJzIwMCcsICctbWV0YWxfYmluZGluZycsICctaW1hZScsICc8aW5maWxlLm1hZT4nLCAnLW9tYWUnLCAnPG91dGZpbGUubWFlPic=

> <r_epik_Ionization_Penalty>
1.34394

> <r_epik_Ionization_Penalty_Charging>
1.59275e-05

> <r_epik_Ionization_Penalty_Neutral>
1.34392

> <r_epik_State_Penalty>
1.4212

> <r_epik_Charging_Adjusted_Penalty>
1.42122

> <i_epik_Tot_Q>
0

> <i_epik_Tot_abs_Q>
0

> <r_epik_Metal_State_Penalty>
1.44789

> <b_epik_Metal_Only>
0

> <s_lp_Force_Field>
OPLS_2005

> <r_lp_Energy>
49.2822

> <b_lp_Chiralities_Consistent>
1

> <s_lp_Variant>
AV-unprocessed.smi:511-2

> <Gold.Version>
5.8.1

> <Gold.Id.Protein>
6NUR|6NUR_protein|mol2

> <Gold.PLP.Fitness>
46.6324

> <Gold.PLP.PLP>
-42.0838

> <Gold.PLP.part.hbond>
-3.0000

> <Gold.PLP.part.metal>
0.0000

> <Gold.PLP.part.buried>
-3.9688

> <Gold.PLP.part.nonpolar>
-37.2892

> <Gold.PLP.part.repulsive>
2.5420

> <Gold.PLP.ligand.clash>
0.0000

> <Gold.PLP.ligand.torsion>
0.8562

> <Gold.PLP.Chemscore.Hbond>
1.9913

> <Gold.PLP.Chemscore.CHOScore>
0.0000

> <Gold.PLP.Chemscore.Metal>
0.0000

> <Gold.Chemscore.Hbonds>
donor molecule, donor type, donor heavy atom, donor atom, acceptor molecule, acceptor atom, score
      L1  H    19    24       P1  7948  0.99
      P1  H  7997  8008       L1     2  0.98

> <Gold.PLP.Chemscore.Internal.Correction>
0.2872

> <Gold.Rescore>
     Score         DG    S(hbond)    S(metal)    S(lipo)     H(rot)  DE(clash)    DE(int)     intcor
     13.20     -17.05       1.64        0.00      84.63       1.49       1.92       1.93       ----

> <Gold.Chemscore.Fitness>
13.2011

> <Gold.Chemscore.DG>
-17.0472

> <Gold.Chemscore.ZeroCoef>
-5.4800

> <Gold.Chemscore.Hbond>
1.6417

> <Gold.Chemscore.Metal>
0.0000

> <Gold.Chemscore.Lipo>
84.6343

> <Gold.Chemscore.Internal_Hbond>
0.0000

> <Gold.Chemscore.DEClash>
1.9204

> <Gold.Chemscore.DEInternal>
1.9257

> <Gold.Chemscore.Rot>
1.4915

> <Gold.Chemscore.Internal.Correction>
   9.000000E+99

> <Gold.Chemscore.Hbonds>
donor molecule, donor type, donor heavy atom, donor atom, acceptor molecule, acceptor atom, score
      L1  H    19    24       P1  7948  0.92
      P1  H  7997  8008       L1     2  0.36

> <Gold.Chemscore.Hbond.Weighted>
-5.4833

> <Gold.Chemscore.Metal.Weighted>
-0.0000

> <Gold.Chemscore.Lipo.Weighted>
-9.9022

> <Gold.Chemscore.Internal_Hbond.Weighted>
0.0000

> <Gold.Chemscore.DEClash.Weighted>
1.9204

> <Gold.Chemscore.DEInternal.Weighted>
1.9257

> <Gold.Chemscore.Rot.Weighted>
3.8183

> <Gold.Chemscore.Internal.Correction.Weighted>
   9.000000E+99

> <Gold.Protein.RotatedTorsions>
[ 6907 6896 6895 6894 ] final   36.86 input  -60.11 | X-H torsion
[ 7974 7965 7964 7962 ] final -146.96 input  175.53 | X-H torsion
[ 8008 7997 7996 7995 ] final  -98.10 input   59.86 | X-H torsion
[ 10167 10162 10161 10158 ] final  119.14 input  -65.29 | X-H torsion
[ 10718 10713 10712 10709 ] final -148.52 input   66.30 | X-H torsion
[ 10763 10752 10751 10750 ] final -110.04 input  -60.55 | X-H torsion
[ 11005 11000 10999 10996 ] final  140.92 input  -57.11 | X-H torsion

> <Gold.Protein.ActiveResidues>
 VAL166  LYS551  ARG553  GLY616  TRP617  ASP618  TYR619  PRO620  LYS621  CYS622 
 ASP623  PHE694  ASN695  SER759  ASP760  ASP761  ALA762  ILE779  LEU786  VAL792 
 PHE793  MET794  SER795  GLU796  ALA797  LYS798  CYS799  TRP800  GLU811  SER814 

> <Gold.Protein.RotatedAtoms>
  152.1355  134.9103  160.0556 H   0  0  0  0  0  0  0  0  0  0  0  0  # atno 6907 bound_to 6896
  152.0191  133.3886  159.4259 H   0  0  0  0  0  0  0  0  0  0  0  0  # atno 6908 bound_to 6896
  150.6860  134.3568  159.4976 H   0  0  0  0  0  0  0  0  0  0  0  0  # atno 6909 bound_to 6896
  144.8125  140.5388  143.5633 H   0  0  0  0  0  0  0  0  0  0  0  0  # atno 7974 bound_to 7965
  154.7967  140.0458  157.1242 H   0  0  0  0  0  0  0  0  0  0  0  0  # atno 8008 bound_to 7997
  154.9527  140.3067  155.5048 H   0  0  0  0  0  0  0  0  0  0  0  0  # atno 8009 bound_to 7997
  156.2957  140.2285  156.4606 H   0  0  0  0  0  0  0  0  0  0  0  0  # atno 8010 bound_to 7997
  139.6065  144.7071  151.2940 H   0  0  0  0  0  0  0  0  0  0  0  0  # atno 10167 bound_to 10162
  156.4214  130.8030  151.2253 H   0  0  0  0  0  0  0  0  0  0  0  0  # atno 10718 bound_to 10713
  154.8226  135.4579  154.0824 H   0  0  0  0  0  0  0  0  0  0  0  0  # atno 10763 bound_to 10752
  153.2165  135.6888  153.8058 H   0  0  0  0  0  0  0  0  0  0  0  0  # atno 10764 bound_to 10752
  153.7490  135.3301  155.3294 H   0  0  0  0  0  0  0  0  0  0  0  0  # atno 10765 bound_to 10752
  140.0363  134.9327  157.0758 H   0  0  0  0  0  0  0  0  0  0  0  0  # atno 11005 bound_to 11000
  145.5292  139.1475  143.3509 LP  0  0  0  0  0  0  0  0  0  0  0  0  # atno 17320 bound_to 7965
  146.2425  140.5432  142.8928 LP  0  0  0  0  0  0  0  0  0  0  0  0  # atno 17321 bound_to 7965
  140.7289  143.6923  150.7912 LP  0  0  0  0  0  0  0  0  0  0  0  0  # atno 17342 bound_to 10162
  140.0510  143.5250  152.2673 LP  0  0  0  0  0  0  0  0  0  0  0  0  # atno 17343 bound_to 10162
  157.7508  131.0227  150.3803 LP  0  0  0  0  0  0  0  0  0  0  0  0  # atno 17370 bound_to 10713
  156.4121  130.3936  149.6884 LP  0  0  0  0  0  0  0  0  0  0  0  0  # atno 17371 bound_to 10713
  140.4143  134.1948  155.7163 LP  0  0  0  0  0  0  0  0  0  0  0  0  # atno 17394 bound_to 11000
  141.1859  133.8314  157.1089 LP  0  0  0  0  0  0  0  0  0  0  0  0  # atno 17395 bound_to 11000

$$$$
