AV-unprocessed.smi:1261|AV-procd|sdf|5304|dock6
  -GOLD-   22720 4423D 1   1.00000     0.00000
 Structure written by MMmdl.
 49 50  0  0  0  0  0  0  0  0  3 V2000
  145.7748  132.4232  149.9106 C   0  0  0  0  0  0  0  0  0  0  0  0
  146.1808  133.4604  150.9672 C   0  0  1  0  0  0  0  0  0  0  0  0
  144.9461  134.0956  151.6320 C   0  0  0  0  0  0  0  0  0  0  0  0
  145.3420  135.0873  152.7416 C   0  0  2  0  0  0  0  0  0  0  0  0
  145.8897  136.4157  152.1911 C   0  0  0  0  0  0  0  0  0  0  0  0
  146.3121  134.4245  153.7400 C   0  0  0  0  0  0  0  0  0  0  0  0
  147.4992  133.8470  153.0567 N   0  3  1  0  0  0  0  0  0  0  0  0
  148.5076  133.3386  154.0214 C   0  0  0  0  0  0  0  0  0  0  0  0
  149.4084  134.4546  154.5772 C   0  0  0  0  0  0  0  0  0  0  0  0
  148.6689  135.3539  155.5807 C   0  0  0  0  0  0  0  0  0  0  0  0
  147.9475  134.5685  156.5736 N   0  0  0  0  0  0  0  0  0  0  0  0
  148.4009  134.2720  157.8011 C   0  0  0  0  0  0  0  0  0  0  0  0
  149.4843  134.6632  158.2362 O   0  0  0  0  0  0  0  0  0  0  0  0
  147.4785  133.4164  158.6759 C   0  0  0  0  0  0  0  0  0  0  0  0
  147.4806  133.8669  160.0731 N   0  0  0  0  0  0  0  0  0  0  0  0
  147.4968  135.3203  160.2169 N   0  5  0  0  0  0  0  0  0  0  0  0
  147.4677  135.8632  161.4628 C   0  0  0  0  0  0  0  0  0  0  0  0
  147.4653  137.0760  161.6611 O   0  0  0  0  0  0  0  0  0  0  0  0
  147.4397  134.9606  162.6019 C   0  0  0  0  0  0  0  0  0  0  0  0
  147.4374  133.6228  162.4395 C   0  0  0  0  0  0  0  0  0  0  0  0
  147.4586  132.9969  161.1230 C   0  0  0  0  0  0  0  0  0  0  0  0
  147.4536  131.7756  160.9688 O   0  0  0  0  0  0  0  0  0  0  0  0
  147.1038  132.8421  152.0343 C   0  0  0  0  0  0  0  0  0  0  0  0
  145.2126  131.6016  150.3558 H   0  0  0  0  0  0  0  0  0  0  0  0
  146.6509  131.9987  149.4196 H   0  0  0  0  0  0  0  0  0  0  0  0
  145.1510  132.8729  149.1377 H   0  0  0  0  0  0  0  0  0  0  0  0
  146.7370  134.2443  150.4518 H   0  0  0  0  0  0  0  0  0  0  0  0
  144.3258  134.5929  150.8852 H   0  0  0  0  0  0  0  0  0  0  0  0
  144.3270  133.3083  152.0646 H   0  0  0  0  0  0  0  0  0  0  0  0
  144.4327  135.3378  153.2894 H   0  0  0  0  0  0  0  0  0  0  0  0
  146.8257  136.2791  151.6499 H   0  0  0  0  0  0  0  0  0  0  0  0
  146.0774  137.1240  152.9986 H   0  0  0  0  0  0  0  0  0  0  0  0
  145.1770  136.8811  151.5096 H   0  0  0  0  0  0  0  0  0  0  0  0
  146.6266  135.1601  154.4815 H   0  0  0  0  0  0  0  0  0  0  0  0
  145.7977  133.6325  154.2867 H   0  0  0  0  0  0  0  0  0  0  0  0
  147.9919  132.8752  154.8636 H   0  0  0  0  0  0  0  0  0  0  0  0
  149.1054  132.5531  153.5563 H   0  0  0  0  0  0  0  0  0  0  0  0
  150.2819  134.0241  155.0661 H   0  0  0  0  0  0  0  0  0  0  0  0
  149.7828  135.0650  153.7544 H   0  0  0  0  0  0  0  0  0  0  0  0
  149.3800  135.9906  156.1074 H   0  0  0  0  0  0  0  0  0  0  0  0
  147.9801  136.0225  155.0618 H   0  0  0  0  0  0  0  0  0  0  0  0
  147.0511  134.1902  156.3017 H   0  0  0  0  0  0  0  0  0  0  0  0
  146.4672  133.4483  158.2667 H   0  0  0  0  0  0  0  0  0  0  0  0
  147.7820  132.3698  158.6101 H   0  0  0  0  0  0  0  0  0  0  0  0
  147.4218  135.3717  163.6004 H   0  0  0  0  0  0  0  0  0  0  0  0
  147.4170  132.9904  163.3146 H   0  0  0  0  0  0  0  0  0  0  0  0
  146.6077  132.0025  152.5241 H   0  0  0  0  0  0  0  0  0  0  0  0
  147.9873  132.4393  151.5410 H   0  0  0  0  0  0  0  0  0  0  0  0
  147.9387  134.6113  152.5639 H   0  0  0  0  0  0  0  0  0  0  0  0
  1  2  1  0  0  0  0
  1 24  1  0  0  0  0
  1 25  1  0  0  0  0
  1 26  1  0  0  0  0
  2 23  1  0  0  0  0
  2  3  1  0  0  0  0
  2 27  1  0  0  0  0
  3  4  1  0  0  0  0
  3 28  1  0  0  0  0
  3 29  1  0  0  0  0
  4  5  1  0  0  0  0
  4  6  1  0  0  0  0
  4 30  1  0  0  0  0
  5 31  1  0  0  0  0
  5 32  1  0  0  0  0
  5 33  1  0  0  0  0
  6  7  1  0  0  0  0
  6 34  1  0  0  0  0
  6 35  1  0  0  0  0
  7  8  1  0  0  0  0
  7 23  1  0  0  0  0
  7 49  1  0  0  0  0
  8  9  1  0  0  0  0
  8 36  1  0  0  0  0
  8 37  1  0  0  0  0
  9 10  1  0  0  0  0
  9 38  1  0  0  0  0
  9 39  1  0  0  0  0
 10 11  1  0  0  0  0
 10 40  1  0  0  0  0
 10 41  1  0  0  0  0
 11 12  1  0  0  0  0
 11 42  1  0  0  0  0
 12 13  2  0  0  0  0
 12 14  1  0  0  0  0
 14 43  1  0  0  0  0
 14 44  1  0  0  0  0
 14 15  1  0  0  0  0
 15 16  1  0  0  0  0
 15 21  1  0  0  0  0
 16 17  1  0  0  0  0
 17 18  2  0  0  0  0
 17 19  1  0  0  0  0
 19 45  1  0  0  0  0
 19 20  2  0  0  0  0
 20 46  1  0  0  0  0
 20 21  1  0  0  0  0
 21 22  2  0  0  0  0
 23 47  1  0  0  0  0
 23 48  1  0  0  0  0
M  CHG  1   7   1
M  CHG  1  16  -1
M  END
> <s_m_source_file>
AV-unprocessed.smi

> <i_m_source_file_index>
1261

> <i_lp_mmshare_version>
43012

> <i_f3d_flags>
0

> <s_epik_input>
W0NIM11bQ0BASF0xW0NIMl1bQ0BASF0oW0NIM10pW0NIMl1OKFtDSDJdMSlbQ0gyXVtDSDJdW0NIMl1bTkhdQyg9TylbQ0gyXW4yW25IXWMoPU8pW2NIXVtjSF1jMj1P

> <s_epik_cmdline>
J2VwaWtfcHl0aG9uJywgJy1waCcsICc3LjAnLCAnLXRuJywgJzgnLCAnLW1hJywgJzIwMCcsICctbWV0YWxfYmluZGluZycsICctaW1hZScsICc8aW5maWxlLm1hZT4nLCAnLW9tYWUnLCAnPG91dGZpbGUubWFlPic=

> <r_lp_tautomer_probability>
1

> <r_epik_Ionization_Penalty>
0.0955723

> <r_epik_Ionization_Penalty_Charging>
0.0955723

> <r_epik_Ionization_Penalty_Neutral>
2.68632e-08

> <r_epik_State_Penalty>
0.0334406

> <r_epik_Charging_Adjusted_Penalty>
0.129013

> <i_epik_Tot_Q>
0

> <i_epik_Tot_abs_Q>
2

> <r_epik_Metal_State_Penalty>
0.0334406

> <b_epik_Metal_Only>
0

> <s_lp_Force_Field>
OPLS_2005

> <r_lp_Energy>
33.6406

> <b_lp_Chiralities_Consistent>
1

> <s_lp_Variant>
AV-unprocessed.smi:1261-4

> <Gold.Version>
5.8.1

> <Gold.Id.Protein>
6NUR|6NUR_protein|mol2

> <Gold.PLP.Fitness>
49.9083

> <Gold.PLP.PLP>
-37.7096

> <Gold.PLP.part.hbond>
-4.0000

> <Gold.PLP.part.metal>
0.0000

> <Gold.PLP.part.buried>
-2.7518

> <Gold.PLP.part.nonpolar>
-30.9210

> <Gold.PLP.part.repulsive>
0.0020

> <Gold.PLP.ligand.clash>
0.0000

> <Gold.PLP.ligand.torsion>
1.1055

> <Gold.PLP.Chemscore.Hbond>
4.7760

> <Gold.PLP.Chemscore.CHOScore>
0.0000

> <Gold.PLP.Chemscore.Metal>
0.0000

> <Gold.Chemscore.Hbonds>
donor molecule, donor type, donor heavy atom, donor atom, acceptor molecule, acceptor atom, score
      L1  H     7    49       P1  7948  2.00
      P1  H  6896  6908       L1    13  1.00
      P1  H  6931  6943       L1    18  0.99
      P1  H  6934  6947       L1    18  0.70

> <Gold.PLP.Chemscore.Internal.Correction>
0.0817

> <Gold.Rescore>
     Score         DG    S(hbond)    S(metal)    S(lipo)     H(rot)  DE(clash)    DE(int)     intcor
     16.86     -19.50       3.60        0.00      71.56       2.49       0.17       2.46       ----

> <Gold.Chemscore.Fitness>
16.8599

> <Gold.Chemscore.DG>
-19.4955

> <Gold.Chemscore.ZeroCoef>
-5.4800

> <Gold.Chemscore.Hbond>
3.6008

> <Gold.Chemscore.Metal>
0.0000

> <Gold.Chemscore.Lipo>
71.5646

> <Gold.Chemscore.Internal_Hbond>
0.0000

> <Gold.Chemscore.DEClash>
0.1722

> <Gold.Chemscore.DEInternal>
2.4634

> <Gold.Chemscore.Rot>
2.4938

> <Gold.Chemscore.Internal.Correction>
   9.000000E+99

> <Gold.Chemscore.Hbonds>
donor molecule, donor type, donor heavy atom, donor atom, acceptor molecule, acceptor atom, score
      L1  H     7    49       P1  7948  0.63
      P1  H  6896  6908       L1    13  1.00
      P1  H  6931  6943       L1    18  0.93
      P1  H  6934  6947       L1    18  0.68

> <Gold.Chemscore.Hbond.Weighted>
-12.0265

> <Gold.Chemscore.Metal.Weighted>
-0.0000

> <Gold.Chemscore.Lipo.Weighted>
-8.3731

> <Gold.Chemscore.Internal_Hbond.Weighted>
0.0000

> <Gold.Chemscore.DEClash.Weighted>
0.1722

> <Gold.Chemscore.DEInternal.Weighted>
2.4634

> <Gold.Chemscore.Rot.Weighted>
6.3840

> <Gold.Chemscore.Internal.Correction.Weighted>
   9.000000E+99

> <Gold.Protein.RotatedTorsions>
[ 6907 6896 6895 6894 ] final  143.21 input  -60.11 | X-H torsion
[ 7974 7965 7964 7962 ] final  121.11 input  175.53 | X-H torsion
[ 8008 7997 7996 7995 ] final  147.61 input   59.86 | X-H torsion
[ 10167 10162 10161 10158 ] final  165.61 input  -65.29 | X-H torsion
[ 10718 10713 10712 10709 ] final -153.39 input   66.30 | X-H torsion
[ 10763 10752 10751 10750 ] final  147.81 input  -60.55 | X-H torsion
[ 11005 11000 10999 10996 ] final -146.64 input  -57.11 | X-H torsion

> <Gold.Protein.ActiveResidues>
 VAL166  LYS551  ARG553  GLY616  TRP617  ASP618  TYR619  PRO620  LYS621  CYS622 
 ASP623  PHE694  ASN695  SER759  ASP760  ASP761  ALA762  ILE779  LEU786  VAL792 
 PHE793  MET794  SER795  GLU796  ALA797  LYS798  CYS799  TRP800  GLU811  SER814 

> <Gold.Protein.RotatedAtoms>
  152.2091  133.4898  159.5100 H   0  0  0  0  0  0  0  0  0  0  0  0  # atno 6907 bound_to 6896
  150.6986  134.1490  159.4142 H   0  0  0  0  0  0  0  0  0  0  0  0  # atno 6908 bound_to 6896
  151.9409  135.0213  160.0586 H   0  0  0  0  0  0  0  0  0  0  0  0  # atno 6909 bound_to 6896
  145.1232  139.3375  143.4703 H   0  0  0  0  0  0  0  0  0  0  0  0  # atno 7974 bound_to 7965
  156.2819  140.2151  156.5565 H   0  0  0  0  0  0  0  0  0  0  0  0  # atno 8008 bound_to 7997
  154.7248  140.0500  157.0695 H   0  0  0  0  0  0  0  0  0  0  0  0  # atno 8009 bound_to 7997
  155.0431  140.3148  155.4721 H   0  0  0  0  0  0  0  0  0  0  0  0  # atno 8010 bound_to 7997
  139.4909  144.4114  151.9295 H   0  0  0  0  0  0  0  0  0  0  0  0  # atno 10167 bound_to 10162
  156.4852  130.8322  151.2547 H   0  0  0  0  0  0  0  0  0  0  0  0  # atno 10718 bound_to 10713
  154.0445  135.2887  155.3350 H   0  0  0  0  0  0  0  0  0  0  0  0  # atno 10763 bound_to 10752
  154.6908  135.5227  153.8393 H   0  0  0  0  0  0  0  0  0  0  0  0  # atno 10764 bound_to 10752
  153.0586  135.6605  154.0646 H   0  0  0  0  0  0  0  0  0  0  0  0  # atno 10765 bound_to 10752
  140.7799  134.3091  157.5049 H   0  0  0  0  0  0  0  0  0  0  0  0  # atno 11005 bound_to 11000
  146.3519  140.1200  142.8600 LP  0  0  0  0  0  0  0  0  0  0  0  0  # atno 17320 bound_to 7965
  145.0717  140.9160  143.4878 LP  0  0  0  0  0  0  0  0  0  0  0  0  # atno 17321 bound_to 7965
  140.3555  144.3036  150.5942 LP  0  0  0  0  0  0  0  0  0  0  0  0  # atno 17342 bound_to 10162
  140.5448  143.2217  151.8025 LP  0  0  0  0  0  0  0  0  0  0  0  0  # atno 17343 bound_to 10162
  157.7479  131.0031  150.3027 LP  0  0  0  0  0  0  0  0  0  0  0  0  # atno 17370 bound_to 10713
  156.3481  130.3826  149.7352 LP  0  0  0  0  0  0  0  0  0  0  0  0  # atno 17371 bound_to 10713
  139.8744  134.9312  156.3522 LP  0  0  0  0  0  0  0  0  0  0  0  0  # atno 17394 bound_to 11000
  140.9492  133.7462  156.0249 LP  0  0  0  0  0  0  0  0  0  0  0  0  # atno 17395 bound_to 11000

$$$$
