AV-unprocessed.smi:2982|AV-procd|sdf|11376|dock4
  -GOLD-   2272016293D 1   1.00000     0.00000
 Structure written by MMmdl.
 36 37  0  0  0  0  0  0  0  0  1 V2000
  151.4031  145.1455  160.0807 C   0  0  0  0  0  0  0  0  0  0  0  0
  151.7028  144.0445  159.0550 C   0  0  0  0  0  0  0  0  0  0  0  0
  150.6147  142.9569  158.9476 C   0  0  0  0  0  0  0  0  0  0  0  0
  150.8087  142.0339  157.8433 N   0  0  0  0  0  0  0  0  0  0  0  0
  149.8773  141.8686  156.8141 C   0  0  0  0  0  0  0  0  0  0  0  0
  148.7137  142.6200  156.8587 N   0  0  0  0  0  0  0  0  0  0  0  0
  150.0840  140.9958  155.7862 C   0  0  0  0  0  0  0  0  0  0  0  0
  149.1831  140.8006  154.7458 N   0  0  0  0  0  0  0  0  0  0  0  0
  148.5454  139.5203  154.4700 C   0  0  0  0  0  0  0  0  0  0  0  0
  147.0165  139.6419  154.6004 C   0  0  0  0  0  0  0  0  0  0  0  0
  146.5445  140.6911  153.7597 O   0  0  0  0  0  0  0  0  0  0  0  0
  147.1093  141.9531  154.1039 C   0  0  0  0  0  0  0  0  0  0  0  0
  148.6390  141.8918  153.9494 C   0  0  0  0  0  0  0  0  0  0  0  0
  151.3078  140.1908  155.7286 C   0  0  0  0  0  0  0  0  0  0  0  0
  151.5936  139.3814  154.8467 O   0  0  0  0  0  0  0  0  0  0  0  0
  152.1922  140.3906  156.7856 N   0  0  0  0  0  0  0  0  0  0  0  0
  152.0020  141.2699  157.8455 C   0  0  0  0  0  0  0  0  0  0  0  0
  152.8587  141.3417  158.7269 O   0  0  0  0  0  0  0  0  0  0  0  0
  153.0431  139.8473  156.7838 H   0  0  0  0  0  0  0  0  0  0  0  0
  152.2402  145.8394  160.1583 H   0  0  0  0  0  0  0  0  0  0  0  0
  151.2274  144.7244  161.0708 H   0  0  0  0  0  0  0  0  0  0  0  0
  150.5237  145.7242  159.7981 H   0  0  0  0  0  0  0  0  0  0  0  0
  151.8683  144.5014  158.0790 H   0  0  0  0  0  0  0  0  0  0  0  0
  152.6443  143.5654  159.3245 H   0  0  0  0  0  0  0  0  0  0  0  0
  150.5914  142.3424  159.8478 H   0  0  0  0  0  0  0  0  0  0  0  0
  149.6155  143.3894  158.8822 H   0  0  0  0  0  0  0  0  0  0  0  0
  148.5341  143.2715  157.6092 H   0  0  0  0  0  0  0  0  0  0  0  0
  148.0021  142.5470  156.1461 H   0  0  0  0  0  0  0  0  0  0  0  0
  148.8147  139.2024  153.4619 H   0  0  0  0  0  0  0  0  0  0  0  0
  148.9214  138.7572  155.1528 H   0  0  0  0  0  0  0  0  0  0  0  0
  146.5397  138.7075  154.3039 H   0  0  0  0  0  0  0  0  0  0  0  0
  146.7240  139.8320  155.6336 H   0  0  0  0  0  0  0  0  0  0  0  0
  146.6954  142.7184  153.4473 H   0  0  0  0  0  0  0  0  0  0  0  0
  146.8287  142.2232  155.1228 H   0  0  0  0  0  0  0  0  0  0  0  0
  149.0860  142.8393  154.2531 H   0  0  0  0  0  0  0  0  0  0  0  0
  148.9085  141.7356  152.9042 H   0  0  0  0  0  0  0  0  0  0  0  0
  1  2  1  0  0  0  0
  1 20  1  0  0  0  0
  1 21  1  0  0  0  0
  1 22  1  0  0  0  0
  2  3  1  0  0  0  0
  2 23  1  0  0  0  0
  2 24  1  0  0  0  0
  3  4  1  0  0  0  0
  3 25  1  0  0  0  0
  3 26  1  0  0  0  0
  4 17  1  0  0  0  0
  4  5  1  0  0  0  0
  5  6  1  0  0  0  0
  5  7  2  0  0  0  0
  6 27  1  0  0  0  0
  6 28  1  0  0  0  0
  7  8  1  0  0  0  0
  7 14  1  0  0  0  0
  8 13  1  0  0  0  0
  8  9  1  0  0  0  0
  9 10  1  0  0  0  0
  9 29  1  0  0  0  0
  9 30  1  0  0  0  0
 10 11  1  0  0  0  0
 10 31  1  0  0  0  0
 10 32  1  0  0  0  0
 11 12  1  0  0  0  0
 12 13  1  0  0  0  0
 12 33  1  0  0  0  0
 12 34  1  0  0  0  0
 13 35  1  0  0  0  0
 13 36  1  0  0  0  0
 14 15  2  0  0  0  0
 14 16  1  0  0  0  0
 16 19  1  0  0  0  0
 16 17  1  0  0  0  0
 17 18  2  0  0  0  0
M  END
> <s_m_source_file>
AV-unprocessed.smi

> <i_m_source_file_index>
2982

> <i_lp_mmshare_version>
43012

> <i_f3d_flags>
0

> <s_epik_input>
W0NIM11bQ0gyXVtDSDJdbjFjKFtOSDJdKWMoYyg9TylbbkhdYzE9TylOMltDSDJdW0NIMl1PW0NIMl1bQ0gyXTI=

> <s_epik_cmdline>
J2VwaWtfcHl0aG9uJywgJy1waCcsICc3LjAnLCAnLXRuJywgJzgnLCAnLW1hJywgJzIwMCcsICctbWV0YWxfYmluZGluZycsICctaW1hZScsICc8aW5maWxlLm1hZT4nLCAnLW9tYWUnLCAnPG91dGZpbGUubWFlPic=

> <r_lp_tautomer_probability>
1

> <r_epik_Ionization_Penalty>
1.08155e-05

> <r_epik_Ionization_Penalty_Charging>
2.81443e-06

> <r_epik_Ionization_Penalty_Neutral>
8.00112e-06

> <r_epik_State_Penalty>
-0

> <r_epik_Charging_Adjusted_Penalty>
2.81443e-06

> <i_epik_Tot_Q>
0

> <i_epik_Tot_abs_Q>
0

> <r_epik_Metal_State_Penalty>
-0

> <b_epik_Metal_Only>
0

> <s_epik_Chemistry_Notes>
This compound has an imine and may undergo hydrolysis.

> <s_lp_Force_Field>
OPLS_2005

> <r_lp_Energy>
28.8877

> <b_lp_Chiralities_Consistent>
1

> <s_lp_Variant>
AV-unprocessed.smi:2982-1

> <Gold.Version>
5.8.1

> <Gold.Id.Protein>
6NUR|6NUR_protein|mol2

> <Gold.PLP.Fitness>
31.2703

> <Gold.PLP.PLP>
-30.1058

> <Gold.PLP.part.hbond>
-1.7267

> <Gold.PLP.part.metal>
0.0000

> <Gold.PLP.part.buried>
0.1995

> <Gold.PLP.part.nonpolar>
-28.6793

> <Gold.PLP.part.repulsive>
0.6356

> <Gold.PLP.ligand.clash>
0.0000

> <Gold.PLP.ligand.torsion>
1.0603

> <Gold.PLP.Chemscore.Hbond>
0.5500

> <Gold.PLP.Chemscore.CHOScore>
0.0000

> <Gold.PLP.Chemscore.Metal>
0.0000

> <Gold.Chemscore.Hbonds>
donor molecule, donor type, donor heavy atom, donor atom, acceptor molecule, acceptor atom, score
      P1  H  7989  7998       L1    15  0.55

> <Gold.PLP.Chemscore.Internal.Correction>
1.6351

> <Gold.Rescore>
     Score         DG    S(hbond)    S(metal)    S(lipo)     H(rot)  DE(clash)    DE(int)     intcor
      5.73      -9.41       0.09        0.00      57.99       1.24       1.31       2.37       ----

> <Gold.Chemscore.Fitness>
5.7338

> <Gold.Chemscore.DG>
-9.4071

> <Gold.Chemscore.ZeroCoef>
-5.4800

> <Gold.Chemscore.Hbond>
0.0924

> <Gold.Chemscore.Metal>
0.0000

> <Gold.Chemscore.Lipo>
57.9950

> <Gold.Chemscore.Internal_Hbond>
0.0000

> <Gold.Chemscore.DEClash>
1.3059

> <Gold.Chemscore.DEInternal>
2.3674

> <Gold.Chemscore.Rot>
1.2371

> <Gold.Chemscore.Internal.Correction>
   9.000000E+99

> <Gold.Chemscore.Hbonds>
donor molecule, donor type, donor heavy atom, donor atom, acceptor molecule, acceptor atom, score
      P1  H  7989  7998       L1    15  0.03

> <Gold.Chemscore.Hbond.Weighted>
-0.3086

> <Gold.Chemscore.Metal.Weighted>
-0.0000

> <Gold.Chemscore.Lipo.Weighted>
-6.7854

> <Gold.Chemscore.Internal_Hbond.Weighted>
0.0000

> <Gold.Chemscore.DEClash.Weighted>
1.3059

> <Gold.Chemscore.DEInternal.Weighted>
2.3674

> <Gold.Chemscore.Rot.Weighted>
3.1669

> <Gold.Chemscore.Internal.Correction.Weighted>
   9.000000E+99

> <Gold.Protein.RotatedTorsions>
[ 6907 6896 6895 6894 ] final  -30.09 input  -60.11 | X-H torsion
[ 7974 7965 7964 7962 ] final -160.79 input  175.53 | X-H torsion
[ 8008 7997 7996 7995 ] final -100.04 input   59.86 | X-H torsion
[ 10167 10162 10161 10158 ] final  -69.62 input  -65.29 | X-H torsion
[ 10718 10713 10712 10709 ] final  -55.00 input   66.30 | X-H torsion
[ 10763 10752 10751 10750 ] final   62.30 input  -60.55 | X-H torsion
[ 11005 11000 10999 10996 ] final   40.46 input  -57.11 | X-H torsion

> <Gold.Protein.ActiveResidues>
 VAL166  LYS551  ARG553  GLY616  TRP617  ASP618  TYR619  PRO620  LYS621  CYS622 
 ASP623  PHE694  ASN695  SER759  ASP760  ASP761  ALA762  ILE779  LEU786  VAL792 
 PHE793  MET794  SER795  GLU796  ALA797  LYS798  CYS799  TRP800  GLU811  SER814 

> <Gold.Protein.RotatedAtoms>
  151.1103  135.0022  159.8490 H   0  0  0  0  0  0  0  0  0  0  0  0  # atno 6907 bound_to 6896
  152.5442  134.1844  159.8659 H   0  0  0  0  0  0  0  0  0  0  0  0  # atno 6908 bound_to 6896
  151.1894  133.4632  159.2628 H   0  0  0  0  0  0  0  0  0  0  0  0  # atno 6909 bound_to 6896
  144.7414  140.3491  143.6119 H   0  0  0  0  0  0  0  0  0  0  0  0  # atno 7974 bound_to 7965
  154.8231  140.0443  157.1424 H   0  0  0  0  0  0  0  0  0  0  0  0  # atno 8008 bound_to 7997
  154.9237  140.3030  155.5183 H   0  0  0  0  0  0  0  0  0  0  0  0  # atno 8009 bound_to 7997
  156.2981  140.2336  156.4290 H   0  0  0  0  0  0  0  0  0  0  0  0  # atno 8010 bound_to 7997
  140.5417  143.2315  151.7077 H   0  0  0  0  0  0  0  0  0  0  0  0  # atno 10167 bound_to 10162
  156.1404  130.4155  150.0112 H   0  0  0  0  0  0  0  0  0  0  0  0  # atno 10718 bound_to 10713
  152.9978  135.5470  154.6171 H   0  0  0  0  0  0  0  0  0  0  0  0  # atno 10763 bound_to 10752
  154.5479  135.2824  155.1038 H   0  0  0  0  0  0  0  0  0  0  0  0  # atno 10764 bound_to 10752
  154.2289  135.6437  153.5221 H   0  0  0  0  0  0  0  0  0  0  0  0  # atno 10765 bound_to 10752
  140.1929  134.3965  155.8137 H   0  0  0  0  0  0  0  0  0  0  0  0  # atno 11005 bound_to 11000
  145.7295  139.1732  143.2438 LP  0  0  0  0  0  0  0  0  0  0  0  0  # atno 17320 bound_to 7965
  146.1217  140.7301  142.9454 LP  0  0  0  0  0  0  0  0  0  0  0  0  # atno 17321 bound_to 7965
  139.4991  144.3959  152.0232 LP  0  0  0  0  0  0  0  0  0  0  0  0  # atno 17342 bound_to 10162
  140.3068  144.3583  150.6045 LP  0  0  0  0  0  0  0  0  0  0  0  0  # atno 17343 bound_to 10162
  156.7999  130.9287  151.3646 LP  0  0  0  0  0  0  0  0  0  0  0  0  # atno 17370 bound_to 10713
  157.6571  130.8933  149.9751 LP  0  0  0  0  0  0  0  0  0  0  0  0  # atno 17371 bound_to 10713
  141.2226  133.7055  156.8125 LP  0  0  0  0  0  0  0  0  0  0  0  0  # atno 17394 bound_to 11000
  140.2140  134.8806  157.3305 LP  0  0  0  0  0  0  0  0  0  0  0  0  # atno 17395 bound_to 11000

$$$$
