AV-unprocessed.smi:1106|AV-procd|sdf|4779|dock7
  -GOLD-   22720 3323D 1   1.00000     0.00000
 Structure written by MMmdl.
 48 49  0  0  0  0  0  0  0  0  2 V2000
  151.9242  145.2709  160.3214 C   0  0  0  0  0  0  0  0  0  0  0  0
  151.0557  144.3714  159.4290 C   0  0  0  0  0  0  0  0  0  0  0  0
  151.6531  143.0859  159.1752 N   0  0  0  0  0  0  0  0  0  0  0  0
  152.8384  142.7053  159.7740 C   0  0  0  0  0  0  0  0  0  0  0  0
  153.4210  141.5078  159.5496 C   0  0  0  0  0  0  0  0  0  0  0  0
  154.6429  141.1369  160.1835 C   0  0  0  0  0  0  0  0  0  0  0  0
  155.6233  140.8216  160.7113 N   0  0  0  0  0  0  0  0  0  0  0  0
  152.8200  140.5335  158.6418 C   0  0  0  0  0  0  0  0  0  0  0  0
  153.3006  139.4209  158.4174 O   0  0  0  0  0  0  0  0  0  0  0  0
  151.6149  140.9624  158.0304 N   0  0  0  0  0  0  0  0  0  0  0  0
  150.9697  140.0386  157.1083 C   0  0  0  0  0  0  0  0  0  0  0  0
  151.7965  139.7316  155.8395 C   0  0  2  0  0  0  0  0  0  0  0  0
  151.0431  140.1709  154.7277 O   0  0  0  0  0  0  0  0  0  0  0  0
  152.1134  138.2322  155.6544 C   0  0  0  0  0  0  0  0  0  0  0  0
  150.9312  137.3671  155.8978 N   0  3  2  0  0  0  0  0  0  0  0  0
  151.3146  135.9858  156.2865 C   0  0  0  0  0  0  0  0  0  0  0  0
  150.0795  135.1509  156.6700 C   0  0  0  0  0  0  0  0  0  0  0  0
  149.0227  135.1240  155.5508 C   0  0  2  0  0  0  0  0  0  0  0  0
  149.4300  134.2283  154.3677 C   0  0  0  0  0  0  0  0  0  0  0  0
  148.6967  136.5659  155.1212 C   0  0  0  0  0  0  0  0  0  0  0  0
  149.9615  137.3695  154.7700 C   0  0  0  0  0  0  0  0  0  0  0  0
  150.9993  142.2153  158.2720 C   0  0  0  0  0  0  0  0  0  0  0  0
  149.9365  142.5338  157.7318 O   0  0  0  0  0  0  0  0  0  0  0  0
  151.4204  146.2167  160.5208 H   0  0  0  0  0  0  0  0  0  0  0  0
  152.8814  145.5002  159.8525 H   0  0  0  0  0  0  0  0  0  0  0  0
  152.1268  144.7946  161.2812 H   0  0  0  0  0  0  0  0  0  0  0  0
  150.0967  144.1671  159.9072 H   0  0  0  0  0  0  0  0  0  0  0  0
  150.8321  144.8281  158.4631 H   0  0  0  0  0  0  0  0  0  0  0  0
  153.3212  143.3943  160.4524 H   0  0  0  0  0  0  0  0  0  0  0  0
  150.7086  139.1270  157.6476 H   0  0  0  0  0  0  0  0  0  0  0  0
  150.0066  140.4854  156.8525 H   0  0  0  0  0  0  0  0  0  0  0  0
  152.7143  140.3173  155.8635 H   0  0  0  0  0  0  0  0  0  0  0  0
  150.6284  139.4200  154.3294 H   0  0  0  0  0  0  0  0  0  0  0  0
  152.4882  138.0311  154.6507 H   0  0  0  0  0  0  0  0  0  0  0  0
  152.9205  137.9649  156.3385 H   0  0  0  0  0  0  0  0  0  0  0  0
  151.8604  135.5124  155.4692 H   0  0  0  0  0  0  0  0  0  0  0  0
  151.9945  136.0209  157.1387 H   0  0  0  0  0  0  0  0  0  0  0  0
  150.3799  134.1357  156.9311 H   0  0  0  0  0  0  0  0  0  0  0  0
  149.6340  135.5746  157.5712 H   0  0  0  0  0  0  0  0  0  0  0  0
  148.1122  134.6898  155.9665 H   0  0  0  0  0  0  0  0  0  0  0  0
  150.3386  134.5784  153.8790 H   0  0  0  0  0  0  0  0  0  0  0  0
  148.6427  134.1962  153.6142 H   0  0  0  0  0  0  0  0  0  0  0  0
  149.6073  133.2040  154.6965 H   0  0  0  0  0  0  0  0  0  0  0  0
  148.0089  136.5613  154.2749 H   0  0  0  0  0  0  0  0  0  0  0  0
  148.1718  137.0708  155.9334 H   0  0  0  0  0  0  0  0  0  0  0  0
  149.6694  138.3895  154.5237 H   0  0  0  0  0  0  0  0  0  0  0  0
  150.4362  136.9601  153.8773 H   0  0  0  0  0  0  0  0  0  0  0  0
  150.4574  137.7613  156.6984 H   0  0  0  0  0  0  0  0  0  0  0  0
  1  2  1  0  0  0  0
  1 24  1  0  0  0  0
  1 25  1  0  0  0  0
  1 26  1  0  0  0  0
  2  3  1  0  0  0  0
  2 27  1  0  0  0  0
  2 28  1  0  0  0  0
  3 22  1  0  0  0  0
  3  4  1  0  0  0  0
  4  5  2  0  0  0  0
  4 29  1  0  0  0  0
  5  6  1  0  0  0  0
  5  8  1  0  0  0  0
  6  7  3  0  0  0  0
  8  9  2  0  0  0  0
  8 10  1  0  0  0  0
 10 11  1  0  0  0  0
 10 22  1  0  0  0  0
 11 12  1  0  0  0  0
 11 30  1  0  0  0  0
 11 31  1  0  0  0  0
 12 13  1  0  0  0  0
 12 14  1  0  0  0  0
 12 32  1  0  0  0  0
 13 33  1  0  0  0  0
 14 15  1  0  0  0  0
 14 34  1  0  0  0  0
 14 35  1  0  0  0  0
 15 21  1  0  0  0  0
 15 16  1  0  0  0  0
 15 48  1  0  0  0  0
 16 17  1  0  0  0  0
 16 36  1  0  0  0  0
 16 37  1  0  0  0  0
 17 18  1  0  0  0  0
 17 38  1  0  0  0  0
 17 39  1  0  0  0  0
 18 19  1  0  0  0  0
 18 20  1  0  0  0  0
 18 40  1  0  0  0  0
 19 41  1  0  0  0  0
 19 42  1  0  0  0  0
 19 43  1  0  0  0  0
 20 21  1  0  0  0  0
 20 44  1  0  0  0  0
 20 45  1  0  0  0  0
 21 46  1  0  0  0  0
 21 47  1  0  0  0  0
 22 23  2  0  0  0  0
M  CHG  1  15   1
M  END
> <s_m_source_file>
AV-unprocessed.smi

> <i_m_source_file_index>
1106

> <i_lp_mmshare_version>
43012

> <i_f3d_flags>
0

> <s_epik_input>
W0NIM11bQ0gyXW4xW2NIXWMoQyNOKWMoPU8pbihjMT1PKVtDSDJdW0NASF0oW09IXSlbQ0gyXU4yW0NIMl1bQ0gyXVtDSF0oW0NIM10pW0NIMl1bQ0gyXTI=

> <s_epik_cmdline>
J2VwaWtfcHl0aG9uJywgJy1waCcsICc3LjAnLCAnLXRuJywgJzgnLCAnLW1hJywgJzIwMCcsICctbWV0YWxfYmluZGluZycsICctaW1hZScsICc8aW5maWxlLm1hZT4nLCAnLW9tYWUnLCAnPG91dGZpbGUubWFlPic=

> <r_epik_Ionization_Penalty>
0.00136816

> <r_epik_Ionization_Penalty_Charging>
0.00136813

> <r_epik_Ionization_Penalty_Neutral>
3.19882e-08

> <r_epik_State_Penalty>
0.000910892

> <r_epik_Charging_Adjusted_Penalty>
0.00227902

> <i_epik_Tot_Q>
1

> <i_epik_Tot_abs_Q>
1

> <r_epik_Metal_State_Penalty>
-0

> <b_epik_Metal_Only>
0

> <s_lp_Force_Field>
OPLS_2005

> <r_lp_Energy>
29.5745

> <b_lp_Chiralities_Consistent>
1

> <s_lp_Variant>
AV-unprocessed.smi:1106-3

> <Gold.Version>
5.8.1

> <Gold.Id.Protein>
6NUR|6NUR_protein|mol2

> <Gold.PLP.Fitness>
46.2550

> <Gold.PLP.PLP>
-42.5440

> <Gold.PLP.part.hbond>
-2.9762

> <Gold.PLP.part.metal>
0.0000

> <Gold.PLP.part.buried>
-5.1985

> <Gold.PLP.part.nonpolar>
-35.1719

> <Gold.PLP.part.repulsive>
0.2090

> <Gold.PLP.ligand.clash>
0.0000

> <Gold.PLP.ligand.torsion>
1.0948

> <Gold.PLP.Chemscore.Hbond>
1.9500

> <Gold.PLP.Chemscore.CHOScore>
0.0000

> <Gold.PLP.Chemscore.Metal>
0.0000

> <Gold.Chemscore.Hbonds>
donor molecule, donor type, donor heavy atom, donor atom, acceptor molecule, acceptor atom, score
      P1  H  7989  7998       L1    13  1.00
      P1  H  7997  8010       L1     9  0.90

> <Gold.PLP.Chemscore.Internal.Correction>
0.0506

> <Gold.Rescore>
     Score         DG    S(hbond)    S(metal)    S(lipo)     H(rot)  DE(clash)    DE(int)     intcor
      9.85     -12.31       0.97        0.00      85.15       2.48       0.09       2.37       ----

> <Gold.Chemscore.Fitness>
9.8486

> <Gold.Chemscore.DG>
-12.3094

> <Gold.Chemscore.ZeroCoef>
-5.4800

> <Gold.Chemscore.Hbond>
0.9657

> <Gold.Chemscore.Metal>
0.0000

> <Gold.Chemscore.Lipo>
85.1482

> <Gold.Chemscore.Internal_Hbond>
0.0000

> <Gold.Chemscore.DEClash>
0.0920

> <Gold.Chemscore.DEInternal>
2.3687

> <Gold.Chemscore.Rot>
2.4838

> <Gold.Chemscore.Internal.Correction>
   9.000000E+99

> <Gold.Chemscore.Hbonds>
donor molecule, donor type, donor heavy atom, donor atom, acceptor molecule, acceptor atom, score
      P1  H  7989  7998       L1    13  0.28
      P1  H  7997  8010       L1     9  0.17

> <Gold.Chemscore.Hbond.Weighted>
-3.2255

> <Gold.Chemscore.Metal.Weighted>
-0.0000

> <Gold.Chemscore.Lipo.Weighted>
-9.9623

> <Gold.Chemscore.Internal_Hbond.Weighted>
0.0000

> <Gold.Chemscore.DEClash.Weighted>
0.0920

> <Gold.Chemscore.DEInternal.Weighted>
2.3687

> <Gold.Chemscore.Rot.Weighted>
6.3585

> <Gold.Chemscore.Internal.Correction.Weighted>
   9.000000E+99

> <Gold.Protein.RotatedTorsions>
[ 6907 6896 6895 6894 ] final   53.91 input  -60.11 | X-H torsion
[ 7974 7965 7964 7962 ] final -101.84 input  175.53 | X-H torsion
[ 8008 7997 7996 7995 ] final   16.53 input   59.86 | X-H torsion
[ 10167 10162 10161 10158 ] final  -16.96 input  -65.29 | X-H torsion
[ 10718 10713 10712 10709 ] final  169.22 input   66.30 | X-H torsion
[ 10763 10752 10751 10750 ] final   94.30 input  -60.55 | X-H torsion
[ 11005 11000 10999 10996 ] final  130.52 input  -57.11 | X-H torsion

> <Gold.Protein.ActiveResidues>
 VAL166  LYS551  ARG553  GLY616  TRP617  ASP618  TYR619  PRO620  LYS621  CYS622 
 ASP623  PHE694  ASN695  SER759  ASP760  ASP761  ALA762  ILE779  LEU786  VAL792 
 PHE793  MET794  SER795  GLU796  ALA797  LYS798  CYS799  TRP800  GLU811  SER814 

> <Gold.Protein.RotatedAtoms>
  152.3386  134.7165  160.0269 H   0  0  0  0  0  0  0  0  0  0  0  0  # atno 6907 bound_to 6896
  151.7558  133.3325  159.3412 H   0  0  0  0  0  0  0  0  0  0  0  0  # atno 6908 bound_to 6896
  150.7465  134.6083  159.6117 H   0  0  0  0  0  0  0  0  0  0  0  0  # atno 6909 bound_to 6896
  145.2764  140.9314  143.2957 H   0  0  0  0  0  0  0  0  0  0  0  0  # atno 7974 bound_to 7965
  154.8783  140.2969  155.5440 H   0  0  0  0  0  0  0  0  0  0  0  0  # atno 8008 bound_to 7997
  156.3022  140.2447  156.3715 H   0  0  0  0  0  0  0  0  0  0  0  0  # atno 8009 bound_to 7997
  154.8744  140.0400  157.1733 H   0  0  0  0  0  0  0  0  0  0  0  0  # atno 8010 bound_to 7997
  140.7241  143.5063  150.9805 H   0  0  0  0  0  0  0  0  0  0  0  0  # atno 10167 bound_to 10162
  157.0258  131.0245  151.2760 H   0  0  0  0  0  0  0  0  0  0  0  0  # atno 10718 bound_to 10713
  153.2401  135.4294  155.0689 H   0  0  0  0  0  0  0  0  0  0  0  0  # atno 10763 bound_to 10752
  154.8337  135.3400  154.6661 H   0  0  0  0  0  0  0  0  0  0  0  0  # atno 10764 bound_to 10752
  153.7085  135.7024  153.5100 H   0  0  0  0  0  0  0  0  0  0  0  0  # atno 10765 bound_to 10752
  139.9676  134.9586  156.9305 H   0  0  0  0  0  0  0  0  0  0  0  0  # atno 11005 bound_to 11000
  144.9291  139.4320  143.6504 LP  0  0  0  0  0  0  0  0  0  0  0  0  # atno 17320 bound_to 7965
  146.3230  139.8192  142.8930 LP  0  0  0  0  0  0  0  0  0  0  0  0  # atno 17321 bound_to 7965
  139.8775  143.7114  152.3160 LP  0  0  0  0  0  0  0  0  0  0  0  0  # atno 17342 bound_to 10162
  139.7384  144.7565  151.0690 LP  0  0  0  0  0  0  0  0  0  0  0  0  # atno 17343 bound_to 10162
  157.5215  130.8001  149.7815 LP  0  0  0  0  0  0  0  0  0  0  0  0  # atno 17370 bound_to 10713
  156.0086  130.3843  150.2342 LP  0  0  0  0  0  0  0  0  0  0  0  0  # atno 17371 bound_to 10713
  140.5362  134.0765  155.7329 LP  0  0  0  0  0  0  0  0  0  0  0  0  # atno 17394 bound_to 11000
  141.1356  133.9227  157.2440 LP  0  0  0  0  0  0  0  0  0  0  0  0  # atno 17395 bound_to 11000

$$$$
