AV-unprocessed.smi:313|AV-procd|sdf|2311|dock2
  -GOLD-   2262022213D 1   1.00000     0.00000
 Structure written by MMmdl.
 50 51  0  0  0  0  0  0  0  0  1 V2000
  157.3574  132.2087  165.1078 C   0  0  0  0  0  0  0  0  0  0  0  0
  157.2541  132.8360  163.7097 C   0  0  0  0  0  0  0  0  0  0  0  0
  155.8938  133.5024  163.4309 C   0  0  2  0  0  0  0  0  0  0  0  0
  154.7432  132.4853  163.4605 C   0  0  0  0  0  0  0  0  0  0  0  0
  155.9247  134.1802  162.1376 N   0  0  0  0  0  0  0  0  0  0  0  0
  155.5885  135.4600  161.9169 C   0  0  0  0  0  0  0  0  0  0  0  0
  155.1654  136.2122  162.7963 O   0  0  0  0  0  0  0  0  0  0  0  0
  155.7587  135.9633  160.4752 C   0  0  1  0  0  0  0  0  0  0  0  0
  154.9679  135.0368  159.5365 C   0  0  0  0  0  0  0  0  0  0  0  0
  155.2111  137.3121  160.3508 N   0  0  0  0  0  0  0  0  0  0  0  0
  153.9026  137.6121  160.2847 C   0  0  0  0  0  0  0  0  0  0  0  0
  153.0065  136.7729  160.3796 O   0  0  0  0  0  0  0  0  0  0  0  0
  153.5796  139.0705  160.1419 C   0  0  0  0  0  0  0  0  0  0  0  0
  154.5051  140.0741  160.5012 C   0  0  0  0  0  0  0  0  0  0  0  0
  154.1550  141.4258  160.3207 C   0  0  0  0  0  0  0  0  0  0  0  0
  152.8894  141.7453  159.7745 C   0  0  0  0  0  0  0  0  0  0  0  0
  152.5168  143.0940  159.5852 N   0  0  0  0  0  0  0  0  0  0  0  0
  151.4572  143.3292  158.6074 C   0  0  0  0  0  0  0  0  0  0  0  0
  151.3679  144.8262  158.2653 C   0  0  0  0  0  0  0  0  0  0  0  0
  151.1948  145.5835  159.4582 O   0  0  0  0  0  0  0  0  0  0  0  0
  152.2929  145.4253  160.3500 C   0  0  0  0  0  0  0  0  0  0  0  0
  152.4146  143.9496  160.7659 C   0  0  0  0  0  0  0  0  0  0  0  0
  152.0047  140.7792  159.4253 N   0  0  0  0  0  0  0  0  0  0  0  0
  152.3455  139.4844  159.5975 C   0  0  0  0  0  0  0  0  0  0  0  0
  158.3175  131.7089  165.2370 H   0  0  0  0  0  0  0  0  0  0  0  0
  156.5739  131.4669  165.2644 H   0  0  0  0  0  0  0  0  0  0  0  0
  157.2692  132.9590  165.8940 H   0  0  0  0  0  0  0  0  0  0  0  0
  158.0563  133.5640  163.5816 H   0  0  0  0  0  0  0  0  0  0  0  0
  157.4304  132.0578  162.9662 H   0  0  0  0  0  0  0  0  0  0  0  0
  155.7179  134.2349  164.2210 H   0  0  0  0  0  0  0  0  0  0  0  0
  154.6943  131.9772  164.4238 H   0  0  0  0  0  0  0  0  0  0  0  0
  154.8656  131.7241  162.6891 H   0  0  0  0  0  0  0  0  0  0  0  0
  153.7814  132.9730  163.2983 H   0  0  0  0  0  0  0  0  0  0  0  0
  156.2609  133.6410  161.3529 H   0  0  0  0  0  0  0  0  0  0  0  0
  156.8125  135.9588  160.1889 H   0  0  0  0  0  0  0  0  0  0  0  0
  155.3292  134.0095  159.5984 H   0  0  0  0  0  0  0  0  0  0  0  0
  155.0735  135.3553  158.4990 H   0  0  0  0  0  0  0  0  0  0  0  0
  153.9021  135.0300  159.7709 H   0  0  0  0  0  0  0  0  0  0  0  0
  155.8761  138.0686  160.2826 H   0  0  0  0  0  0  0  0  0  0  0  0
  155.4732  139.8233  160.9099 H   0  0  0  0  0  0  0  0  0  0  0  0
  154.8533  142.1957  160.6126 H   0  0  0  0  0  0  0  0  0  0  0  0
  151.6188  142.7658  157.6898 H   0  0  0  0  0  0  0  0  0  0  0  0
  150.5105  142.9861  159.0269 H   0  0  0  0  0  0  0  0  0  0  0  0
  152.2629  145.1581  157.7369 H   0  0  0  0  0  0  0  0  0  0  0  0
  150.5214  145.0095  157.6034 H   0  0  0  0  0  0  0  0  0  0  0  0
  153.2128  145.7731  159.8772 H   0  0  0  0  0  0  0  0  0  0  0  0
  152.1306  146.0502  161.2281 H   0  0  0  0  0  0  0  0  0  0  0  0
  151.5429  143.6538  161.3509 H   0  0  0  0  0  0  0  0  0  0  0  0
  153.2925  143.8254  161.4009 H   0  0  0  0  0  0  0  0  0  0  0  0
  151.6021  138.7615  159.2943 H   0  0  0  0  0  0  0  0  0  0  0  0
  1  2  1  0  0  0  0
  1 25  1  0  0  0  0
  1 26  1  0  0  0  0
  1 27  1  0  0  0  0
  2  3  1  0  0  0  0
  2 28  1  0  0  0  0
  2 29  1  0  0  0  0
  3  4  1  0  0  0  0
  3  5  1  0  0  0  0
  3 30  1  0  0  0  0
  4 31  1  0  0  0  0
  4 32  1  0  0  0  0
  4 33  1  0  0  0  0
  5  6  1  0  0  0  0
  5 34  1  0  0  0  0
  6  7  2  0  0  0  0
  6  8  1  0  0  0  0
  8  9  1  0  0  0  0
  8 10  1  0  0  0  0
  8 35  1  0  0  0  0
  9 36  1  0  0  0  0
  9 37  1  0  0  0  0
  9 38  1  0  0  0  0
 10 11  1  0  0  0  0
 10 39  1  0  0  0  0
 11 12  2  0  0  0  0
 11 13  1  0  0  0  0
 13 24  1  0  0  0  0
 13 14  2  0  0  0  0
 14 15  1  0  0  0  0
 14 40  1  0  0  0  0
 15 16  2  0  0  0  0
 15 41  1  0  0  0  0
 16 17  1  0  0  0  0
 16 23  1  0  0  0  0
 17 22  1  0  0  0  0
 17 18  1  0  0  0  0
 18 19  1  0  0  0  0
 18 42  1  0  0  0  0
 18 43  1  0  0  0  0
 19 20  1  0  0  0  0
 19 44  1  0  0  0  0
 19 45  1  0  0  0  0
 20 21  1  0  0  0  0
 21 22  1  0  0  0  0
 21 46  1  0  0  0  0
 21 47  1  0  0  0  0
 22 48  1  0  0  0  0
 22 49  1  0  0  0  0
 23 24  2  0  0  0  0
 24 50  1  0  0  0  0
M  END
> <s_m_source_file>
AV-unprocessed.smi

> <i_m_source_file_index>
313

> <i_lp_mmshare_version>
43012

> <i_f3d_flags>
0

> <s_epik_input>
W0NIM11bQ0gyXVtDQEhdKFtDSDNdKVtOSF1DKD1PKVtDQEhdKFtDSDNdKVtOSF1DKD1PKWMxW2NIXVtjSF1jKG5bY0hdMSlOMltDSDJdW0NIMl1PW0NIMl1bQ0gyXTI=

> <s_epik_cmdline>
J2VwaWtfcHl0aG9uJywgJy1waCcsICc3LjAnLCAnLXRuJywgJzgnLCAnLW1hJywgJzIwMCcsICctbWV0YWxfYmluZGluZycsICctaW1hZScsICc8aW5maWxlLm1hZT4nLCAnLW9tYWUnLCAnPG91dGZpbGUubWFlPic=

> <r_lp_tautomer_probability>
1

> <r_epik_Ionization_Penalty>
9.96442e-06

> <r_epik_Ionization_Penalty_Charging>
0

> <r_epik_Ionization_Penalty_Neutral>
9.96442e-06

> <r_epik_State_Penalty>
-0

> <r_epik_Charging_Adjusted_Penalty>
0

> <i_epik_Tot_Q>
0

> <i_epik_Tot_abs_Q>
0

> <r_epik_Metal_State_Penalty>
-0

> <b_epik_Metal_Only>
0

> <s_lp_Force_Field>
OPLS_2005

> <r_lp_Energy>
19.146

> <b_lp_Chiralities_Consistent>
1

> <s_lp_Variant>
AV-unprocessed.smi:313-3

> <Gold.Version>
5.8.1

> <Gold.Id.Protein>
6NUR|6NUR_protein|mol2

> <Gold.PLP.Fitness>
43.9941

> <Gold.PLP.PLP>
-42.4696

> <Gold.PLP.part.hbond>
-1.4189

> <Gold.PLP.part.metal>
0.0000

> <Gold.PLP.part.buried>
-7.6244

> <Gold.PLP.part.nonpolar>
-34.1224

> <Gold.PLP.part.repulsive>
0.1816

> <Gold.PLP.ligand.clash>
0.0000

> <Gold.PLP.ligand.torsion>
0.9205

> <Gold.PLP.Chemscore.Hbond>
0.9913

> <Gold.PLP.Chemscore.CHOScore>
0.0000

> <Gold.PLP.Chemscore.Metal>
0.0000

> <Gold.Chemscore.Hbonds>
donor molecule, donor type, donor heavy atom, donor atom, acceptor molecule, acceptor atom, score
      P1  H  6896  6907       L1    12  1.00

> <Gold.PLP.Chemscore.Internal.Correction>
0.3917

> <Gold.Rescore>
     Score         DG    S(hbond)    S(metal)    S(lipo)     H(rot)  DE(clash)    DE(int)     intcor
     14.63     -16.65       0.99        0.00     106.26       1.79       0.01       2.01       ----

> <Gold.Chemscore.Fitness>
14.6267

> <Gold.Chemscore.DG>
-16.6461

> <Gold.Chemscore.ZeroCoef>
-5.4800

> <Gold.Chemscore.Hbond>
0.9918

> <Gold.Chemscore.Metal>
0.0000

> <Gold.Chemscore.Lipo>
106.2638

> <Gold.Chemscore.Internal_Hbond>
0.0000

> <Gold.Chemscore.DEClash>
0.0119

> <Gold.Chemscore.DEInternal>
2.0075

> <Gold.Chemscore.Rot>
1.7888

> <Gold.Chemscore.Internal.Correction>
   9.000000E+99

> <Gold.Chemscore.Hbonds>
donor molecule, donor type, donor heavy atom, donor atom, acceptor molecule, acceptor atom, score
      P1  H  6896  6907       L1    12  0.95

> <Gold.Chemscore.Hbond.Weighted>
-3.3125

> <Gold.Chemscore.Metal.Weighted>
-0.0000

> <Gold.Chemscore.Lipo.Weighted>
-12.4329

> <Gold.Chemscore.Internal_Hbond.Weighted>
0.0000

> <Gold.Chemscore.DEClash.Weighted>
0.0119

> <Gold.Chemscore.DEInternal.Weighted>
2.0075

> <Gold.Chemscore.Rot.Weighted>
4.5793

> <Gold.Chemscore.Internal.Correction.Weighted>
   9.000000E+99

> <Gold.Protein.RotatedTorsions>
[ 6907 6896 6895 6894 ] final   35.50 input  -60.11 | X-H torsion
[ 7974 7965 7964 7962 ] final  111.87 input  175.53 | X-H torsion
[ 8008 7997 7996 7995 ] final    3.52 input   59.86 | X-H torsion
[ 10167 10162 10161 10158 ] final   52.75 input  -65.29 | X-H torsion
[ 10718 10713 10712 10709 ] final -146.34 input   66.30 | X-H torsion
[ 10763 10752 10751 10750 ] final -173.12 input  -60.55 | X-H torsion
[ 11005 11000 10999 10996 ] final  -51.99 input  -57.11 | X-H torsion

> <Gold.Protein.ActiveResidues>
 VAL166  LYS551  ARG553  GLY616  TRP617  ASP618  TYR619  PRO620  LYS621  CYS622 
 ASP623  PHE694  ASN695  SER759  ASP760  ASP761  ALA762  ILE779  LEU786  VAL792 
 PHE793  MET794  SER795  GLU796  ALA797  LYS798  CYS799  TRP800  GLU811  SER814 

> <Gold.Protein.RotatedAtoms>
  152.1170  134.9233  160.0564 H   0  0  0  0  0  0  0  0  0  0  0  0  # atno 6907 bound_to 6896
  152.0389  133.3964  159.4336 H   0  0  0  0  0  0  0  0  0  0  0  0  # atno 6908 bound_to 6896
  150.6846  134.3358  159.4890 H   0  0  0  0  0  0  0  0  0  0  0  0  # atno 6909 bound_to 6896
  145.2368  139.2796  143.4139 H   0  0  0  0  0  0  0  0  0  0  0  0  # atno 7974 bound_to 7965
  154.7047  140.2680  155.6686 H   0  0  0  0  0  0  0  0  0  0  0  0  # atno 8008 bound_to 7997
  156.2776  140.2765  156.1593 H   0  0  0  0  0  0  0  0  0  0  0  0  # atno 8009 bound_to 7997
  155.0716  140.0372  157.2600 H   0  0  0  0  0  0  0  0  0  0  0  0  # atno 8010 bound_to 7997
  140.2481  144.3510  150.6357 H   0  0  0  0  0  0  0  0  0  0  0  0  # atno 10167 bound_to 10162
  156.3937  130.7899  151.2103 H   0  0  0  0  0  0  0  0  0  0  0  0  # atno 10718 bound_to 10713
  154.6115  135.2865  155.0426 H   0  0  0  0  0  0  0  0  0  0  0  0  # atno 10763 bound_to 10752
  154.1654  135.6481  153.5000 H   0  0  0  0  0  0  0  0  0  0  0  0  # atno 10764 bound_to 10752
  153.0197  135.5388  154.6871 H   0  0  0  0  0  0  0  0  0  0  0  0  # atno 10765 bound_to 10752
  141.0900  133.6634  156.3958 H   0  0  0  0  0  0  0  0  0  0  0  0  # atno 11005 bound_to 11000
  146.3339  140.2719  142.8606 LP  0  0  0  0  0  0  0  0  0  0  0  0  # atno 17320 bound_to 7965
  144.9626  140.8290  143.5504 LP  0  0  0  0  0  0  0  0  0  0  0  0  # atno 17321 bound_to 7965
  140.6062  143.2168  151.6976 LP  0  0  0  0  0  0  0  0  0  0  0  0  # atno 17342 bound_to 10162
  139.5055  144.3715  152.0466 LP  0  0  0  0  0  0  0  0  0  0  0  0  # atno 17343 bound_to 10162
  157.7500  131.0308  150.4152 LP  0  0  0  0  0  0  0  0  0  0  0  0  # atno 17370 bound_to 10713
  156.4418  130.3993  149.6692 LP  0  0  0  0  0  0  0  0  0  0  0  0  # atno 17371 bound_to 10713
  140.5273  134.6246  157.5338 LP  0  0  0  0  0  0  0  0  0  0  0  0  # atno 17394 bound_to 11000
  139.9725  134.7270  156.0014 LP  0  0  0  0  0  0  0  0  0  0  0  0  # atno 17395 bound_to 11000

$$$$
