AV-unprocessed.smi:1242|AV-procd|sdf|5216|dock1
  -GOLD-   22720 4313D 1   1.00000     0.00000
 Structure written by MMmdl.
 39 40  0  0  0  0  0  0  0  0  1 V2000
  152.1724  140.0188  156.5440 O   0  0  0  0  0  0  0  0  0  0  0  0
  151.7387  139.3730  157.4994 C   0  0  0  0  0  0  0  0  0  0  0  0
  152.5940  139.1370  158.7527 C   0  0  0  0  0  0  0  0  0  0  0  0
  152.7160  140.3209  159.6201 N   0  0  0  0  0  0  0  0  0  0  0  0
  152.1132  141.5113  159.1680 C   0  0  0  0  0  0  0  0  0  0  0  0
  152.1452  142.6613  159.8680 C   0  0  0  0  0  0  0  0  0  0  0  0
  151.5321  143.9426  159.3246 C   0  0  0  0  0  0  0  0  0  0  0  0
  152.1163  144.3104  158.1839 F   0  0  0  0  0  0  0  0  0  0  0  0
  150.2273  143.7893  159.0960 F   0  0  0  0  0  0  0  0  0  0  0  0
  151.6849  144.9288  160.2074 F   0  0  0  0  0  0  0  0  0  0  0  0
  152.8700  142.6323  161.1235 C   0  0  0  0  0  0  0  0  0  0  0  0
  153.4568  141.5038  161.5681 C   0  0  0  0  0  0  0  0  0  0  0  0
  153.3940  140.2550  160.8054 C   0  0  0  0  0  0  0  0  0  0  0  0
  153.9190  139.2156  161.2055 O   0  0  0  0  0  0  0  0  0  0  0  0
  150.5132  138.8277  157.5232 N   0  0  0  0  0  0  0  0  0  0  0  0
  149.5167  138.9072  156.4549 C   0  0  2  0  0  0  0  0  0  0  0  0
  148.0969  138.6249  157.0132 C   0  0  0  0  0  0  0  0  0  0  0  0
  147.0739  138.0443  156.0143 C   0  0  0  0  0  0  0  0  0  0  0  0
  146.8655  138.8624  154.7239 C   0  0  0  0  0  0  0  0  0  0  0  0
  148.1346  139.2031  153.9082 C   0  0  0  0  0  0  0  0  0  0  0  0
  149.2325  138.2540  154.0863 N   0  0  0  0  0  0  0  0  0  0  0  0
  149.9263  138.0743  155.2236 C   0  0  0  0  0  0  0  0  0  0  0  0
  150.8459  137.2596  155.2912 O   0  0  0  0  0  0  0  0  0  0  0  0
  152.1747  138.3009  159.3158 H   0  0  0  0  0  0  0  0  0  0  0  0
  153.5795  138.7958  158.4324 H   0  0  0  0  0  0  0  0  0  0  0  0
  151.6180  141.4299  158.2112 H   0  0  0  0  0  0  0  0  0  0  0  0
  152.9409  143.5294  161.7208 H   0  0  0  0  0  0  0  0  0  0  0  0
  153.9866  141.5185  162.5092 H   0  0  0  0  0  0  0  0  0  0  0  0
  150.2449  138.3052  158.3450 H   0  0  0  0  0  0  0  0  0  0  0  0
  149.5296  139.9413  156.1083 H   0  0  0  0  0  0  0  0  0  0  0  0
  148.1699  137.9229  157.8452 H   0  0  0  0  0  0  0  0  0  0  0  0
  147.6979  139.5448  157.4426 H   0  0  0  0  0  0  0  0  0  0  0  0
  147.3641  137.0259  155.7519 H   0  0  0  0  0  0  0  0  0  0  0  0
  146.1134  137.9405  156.5199 H   0  0  0  0  0  0  0  0  0  0  0  0
  146.1877  138.2971  154.0835 H   0  0  0  0  0  0  0  0  0  0  0  0
  146.3390  139.7877  154.9596 H   0  0  0  0  0  0  0  0  0  0  0  0
  147.8843  139.2451  152.8479 H   0  0  0  0  0  0  0  0  0  0  0  0
  148.4829  140.2055  154.1594 H   0  0  0  0  0  0  0  0  0  0  0  0
  149.4919  137.6994  153.2833 H   0  0  0  0  0  0  0  0  0  0  0  0
  1  2  2  0  0  0  0
  2  3  1  0  0  0  0
  2 15  1  0  0  0  0
  3  4  1  0  0  0  0
  3 24  1  0  0  0  0
  3 25  1  0  0  0  0
  4 13  1  0  0  0  0
  4  5  1  0  0  0  0
  5  6  2  0  0  0  0
  5 26  1  0  0  0  0
  6  7  1  0  0  0  0
  6 11  1  0  0  0  0
  7  8  1  0  0  0  0
  7  9  1  0  0  0  0
  7 10  1  0  0  0  0
 11 12  2  0  0  0  0
 11 27  1  0  0  0  0
 12 13  1  0  0  0  0
 12 28  1  0  0  0  0
 13 14  2  0  0  0  0
 15 16  1  0  0  0  0
 15 29  1  0  0  0  0
 16 22  1  0  0  0  0
 16 17  1  0  0  0  0
 16 30  1  0  0  0  0
 17 18  1  0  0  0  0
 17 31  1  0  0  0  0
 17 32  1  0  0  0  0
 18 19  1  0  0  0  0
 18 33  1  0  0  0  0
 18 34  1  0  0  0  0
 19 20  1  0  0  0  0
 19 35  1  0  0  0  0
 19 36  1  0  0  0  0
 20 21  1  0  0  0  0
 20 37  1  0  0  0  0
 20 38  1  0  0  0  0
 21 22  1  0  0  0  0
 21 39  1  0  0  0  0
 22 23  2  0  0  0  0
M  END
> <s_m_source_file>
AV-unprocessed.smi

> <i_m_source_file_index>
1242

> <i_lp_mmshare_version>
43012

> <i_f3d_flags>
0

> <s_epik_input>
Tz1jMVtjSF1bY0hdYyhDKEYpKEYpRilbY0hdbjFbQ0gyXUMoPU8pW05IXVtDQEBIXTJbQ0gyXVtDSDJdW0NIMl1bQ0gyXVtOSF1DMj1P

> <s_epik_cmdline>
J2VwaWtfcHl0aG9uJywgJy1waCcsICc3LjAnLCAnLXRuJywgJzgnLCAnLW1hJywgJzIwMCcsICctbWV0YWxfYmluZGluZycsICctaW1hZScsICc8aW5maWxlLm1hZT4nLCAnLW9tYWUnLCAnPG91dGZpbGUubWFlPic=

> <r_lp_tautomer_probability>
1

> <r_epik_Ionization_Penalty>
6.92876e-08

> <r_epik_Ionization_Penalty_Charging>
1.59659e-08

> <r_epik_Ionization_Penalty_Neutral>
5.33217e-08

> <r_epik_State_Penalty>
-0

> <r_epik_Charging_Adjusted_Penalty>
1.59659e-08

> <i_epik_Tot_Q>
0

> <i_epik_Tot_abs_Q>
0

> <r_epik_Metal_State_Penalty>
-0

> <b_epik_Metal_Only>
0

> <s_lp_Force_Field>
OPLS_2005

> <r_lp_Energy>
26.9049

> <b_lp_Chiralities_Consistent>
1

> <s_lp_Variant>
AV-unprocessed.smi:1242-1

> <Gold.Version>
5.8.1

> <Gold.Id.Protein>
6NUR|6NUR_protein|mol2

> <Gold.PLP.Fitness>
46.1579

> <Gold.PLP.PLP>
-41.6434

> <Gold.PLP.part.hbond>
-2.0000

> <Gold.PLP.part.metal>
0.0000

> <Gold.PLP.part.buried>
-5.1028

> <Gold.PLP.part.nonpolar>
-34.9456

> <Gold.PLP.part.repulsive>
0.1542

> <Gold.PLP.ligand.clash>
0.7301

> <Gold.PLP.ligand.torsion>
0.4174

> <Gold.PLP.Chemscore.Hbond>
1.9833

> <Gold.PLP.Chemscore.CHOScore>
0.0000

> <Gold.PLP.Chemscore.Metal>
0.0000

> <Gold.Chemscore.Hbonds>
donor molecule, donor type, donor heavy atom, donor atom, acceptor molecule, acceptor atom, score
      L1  H    21    39       P1  7948  0.87
      P1  H  7997  8009       L1     1  0.57

> <Gold.PLP.Chemscore.Internal.Correction>
0.1298

> <Gold.Rescore>
     Score         DG    S(hbond)    S(metal)    S(lipo)     H(rot)  DE(clash)    DE(int)     intcor
     14.92     -15.60       1.92        0.00      69.42       1.72       0.03       0.65       ----

> <Gold.Chemscore.Fitness>
14.9176

> <Gold.Chemscore.DG>
-15.5961

> <Gold.Chemscore.ZeroCoef>
-5.4800

> <Gold.Chemscore.Hbond>
1.9161

> <Gold.Chemscore.Metal>
0.0000

> <Gold.Chemscore.Lipo>
69.4234

> <Gold.Chemscore.Internal_Hbond>
0.0000

> <Gold.Chemscore.DEClash>
0.0332

> <Gold.Chemscore.DEInternal>
0.6453

> <Gold.Chemscore.Rot>
1.7212

> <Gold.Chemscore.Internal.Correction>
   9.000000E+99

> <Gold.Chemscore.Hbonds>
donor molecule, donor type, donor heavy atom, donor atom, acceptor molecule, acceptor atom, score
      L1  H    21    39       P1  7948  0.73
      P1  H  7997  8009       L1     1  0.53

> <Gold.Chemscore.Hbond.Weighted>
-6.3998

> <Gold.Chemscore.Metal.Weighted>
-0.0000

> <Gold.Chemscore.Lipo.Weighted>
-8.1225

> <Gold.Chemscore.Internal_Hbond.Weighted>
0.0000

> <Gold.Chemscore.DEClash.Weighted>
0.0332

> <Gold.Chemscore.DEInternal.Weighted>
0.6453

> <Gold.Chemscore.Rot.Weighted>
4.4062

> <Gold.Chemscore.Internal.Correction.Weighted>
   9.000000E+99

> <Gold.Protein.RotatedTorsions>
[ 6907 6896 6895 6894 ] final   56.51 input  -60.11 | X-H torsion
[ 7974 7965 7964 7962 ] final  132.98 input  175.53 | X-H torsion
[ 8008 7997 7996 7995 ] final -153.66 input   59.86 | X-H torsion
[ 10167 10162 10161 10158 ] final   72.99 input  -65.29 | X-H torsion
[ 10718 10713 10712 10709 ] final  -45.68 input   66.30 | X-H torsion
[ 10763 10752 10751 10750 ] final  123.20 input  -60.55 | X-H torsion
[ 11005 11000 10999 10996 ] final  156.72 input  -57.11 | X-H torsion

> <Gold.Protein.ActiveResidues>
 VAL166  LYS551  ARG553  GLY616  TRP617  ASP618  TYR619  PRO620  LYS621  CYS622 
 ASP623  PHE694  ASN695  SER759  ASP760  ASP761  ALA762  ILE779  LEU786  VAL792 
 PHE793  MET794  SER795  GLU796  ALA797  LYS798  CYS799  TRP800  GLU811  SER814 

> <Gold.Protein.RotatedAtoms>
  152.3643  134.6827  160.0196 H   0  0  0  0  0  0  0  0  0  0  0  0  # atno 6907 bound_to 6896
  151.7141  133.3307  159.3306 H   0  0  0  0  0  0  0  0  0  0  0  0  # atno 6908 bound_to 6896
  150.7627  134.6441  159.6297 H   0  0  0  0  0  0  0  0  0  0  0  0  # atno 6909 bound_to 6896
  144.9913  139.4404  143.5338 H   0  0  0  0  0  0  0  0  0  0  0  0  # atno 7974 bound_to 7965
  155.6743  140.0737  157.2508 H   0  0  0  0  0  0  0  0  0  0  0  0  # atno 8008 bound_to 7997
  154.4117  140.1693  156.1964 H   0  0  0  0  0  0  0  0  0  0  0  0  # atno 8009 bound_to 7997
  155.9590  140.3371  155.6477 H   0  0  0  0  0  0  0  0  0  0  0  0  # atno 8010 bound_to 7997
  140.0294  144.5478  150.7519 H   0  0  0  0  0  0  0  0  0  0  0  0  # atno 10167 bound_to 10162
  156.2259  130.4169  149.8935 H   0  0  0  0  0  0  0  0  0  0  0  0  # atno 10718 bound_to 10713
  153.6418  135.3378  155.3074 H   0  0  0  0  0  0  0  0  0  0  0  0  # atno 10763 bound_to 10752
  154.8558  135.4320  154.1996 H   0  0  0  0  0  0  0  0  0  0  0  0  # atno 10764 bound_to 10752
  153.2917  135.7017  153.7360 H   0  0  0  0  0  0  0  0  0  0  0  0  # atno 10765 bound_to 10752
  140.1702  134.8548  157.2681 H   0  0  0  0  0  0  0  0  0  0  0  0  # atno 11005 bound_to 11000
  146.3432  139.9246  142.8762 LP  0  0  0  0  0  0  0  0  0  0  0  0  # atno 17320 bound_to 7965
  145.2282  140.9962  143.4006 LP  0  0  0  0  0  0  0  0  0  0  0  0  # atno 17321 bound_to 7965
  140.7309  143.2688  151.3956 LP  0  0  0  0  0  0  0  0  0  0  0  0  # atno 17342 bound_to 10162
  139.6086  144.1144  152.2275 LP  0  0  0  0  0  0  0  0  0  0  0  0  # atno 17343 bound_to 10162
  156.6565  130.8765  151.3540 LP  0  0  0  0  0  0  0  0  0  0  0  0  # atno 17370 bound_to 10713
  157.7110  130.9440  150.1089 LP  0  0  0  0  0  0  0  0  0  0  0  0  # atno 17371 bound_to 10713
  140.2387  134.3822  155.7490 LP  0  0  0  0  0  0  0  0  0  0  0  0  # atno 17394 bound_to 11000
  141.2217  133.7253  156.8754 LP  0  0  0  0  0  0  0  0  0  0  0  0  # atno 17395 bound_to 11000

$$$$
