AV-unprocessed.smi:2502|AV-procd|sdf|9845|dock2
  -GOLD-   2272013473D 1   1.00000     0.00000
 Structure written by MMmdl.
 39 41  0  0  0  0  0  0  0  0  1 V2000
  150.1055  139.9380  153.9721 O   0  0  0  0  0  0  0  0  0  0  0  0
  149.3696  140.7152  154.8967 C   0  0  2  0  0  0  0  0  0  0  0  0
  148.1441  141.3174  154.1907 C   0  0  0  0  0  0  0  0  0  0  0  0
  147.2936  141.9466  155.1399 O   0  0  0  0  0  0  0  0  0  0  0  0
  146.1631  142.6024  154.5800 C   0  0  0  0  0  0  0  0  0  0  0  0
  146.5700  143.5931  153.4750 C   0  0  0  0  0  0  0  0  0  0  0  0
  145.3597  144.4308  153.0308 C   0  0  0  0  0  0  0  0  0  0  0  0
  144.7949  145.1071  154.1493 O   0  0  0  0  0  0  0  0  0  0  0  0
  144.3059  144.2180  155.1480 C   0  0  0  0  0  0  0  0  0  0  0  0
  145.4613  143.3715  155.7068 C   0  0  0  0  0  0  0  0  0  0  0  0
  150.2632  141.7626  155.5908 C   0  0  0  0  0  0  0  0  0  0  0  0
  151.1073  141.1753  156.6162 N   0  0  0  0  0  0  0  0  0  0  0  0
  151.5851  139.9103  156.4442 N   0  0  0  0  0  0  0  0  0  0  0  0
  152.3189  139.5994  157.4706 N   0  0  0  0  0  0  0  0  0  0  0  0
  152.3229  140.6796  158.3373 C   0  0  0  0  0  0  0  0  0  0  0  0
  152.9517  140.8833  159.5858 C   0  0  0  0  0  0  0  0  0  0  0  0
  152.7893  142.1042  160.2764 C   0  0  0  0  0  0  0  0  0  0  0  0
  153.5755  142.3154  161.8005 Cl  0  0  0  0  0  0  0  0  0  0  0  0
  151.9943  143.1375  159.7239 C   0  0  0  0  0  0  0  0  0  0  0  0
  151.7839  144.6365  160.5567 Cl  0  0  0  0  0  0  0  0  0  0  0  0
  151.3631  142.9490  158.4780 C   0  0  0  0  0  0  0  0  0  0  0  0
  151.5372  141.7262  157.8077 C   0  0  0  0  0  0  0  0  0  0  0  0
  149.6633  139.9650  153.1374 H   0  0  0  0  0  0  0  0  0  0  0  0
  149.0019  140.0176  155.6502 H   0  0  0  0  0  0  0  0  0  0  0  0
  148.4611  142.0121  153.4126 H   0  0  0  0  0  0  0  0  0  0  0  0
  147.5900  140.5168  153.6982 H   0  0  0  0  0  0  0  0  0  0  0  0
  145.4652  141.8648  154.1794 H   0  0  0  0  0  0  0  0  0  0  0  0
  147.3535  144.2559  153.8444 H   0  0  0  0  0  0  0  0  0  0  0  0
  146.9832  143.0694  152.6136 H   0  0  0  0  0  0  0  0  0  0  0  0
  145.6679  145.1706  152.2919 H   0  0  0  0  0  0  0  0  0  0  0  0
  144.6057  143.8019  152.5550 H   0  0  0  0  0  0  0  0  0  0  0  0
  143.8498  144.8034  155.9467 H   0  0  0  0  0  0  0  0  0  0  0  0
  143.5224  143.5826  154.7320 H   0  0  0  0  0  0  0  0  0  0  0  0
  145.0892  142.6776  156.4611 H   0  0  0  0  0  0  0  0  0  0  0  0
  146.1764  144.0248  156.2084 H   0  0  0  0  0  0  0  0  0  0  0  0
  150.9031  142.2657  154.8648 H   0  0  0  0  0  0  0  0  0  0  0  0
  149.6480  142.5371  156.0511 H   0  0  0  0  0  0  0  0  0  0  0  0
  153.5603  140.0996  160.0123 H   0  0  0  0  0  0  0  0  0  0  0  0
  150.7559  143.7301  158.0447 H   0  0  0  0  0  0  0  0  0  0  0  0
  1  2  1  0  0  0  0
  1 23  1  0  0  0  0
  2  3  1  0  0  0  0
  2 11  1  0  0  0  0
  2 24  1  0  0  0  0
  3  4  1  0  0  0  0
  3 25  1  0  0  0  0
  3 26  1  0  0  0  0
  4  5  1  0  0  0  0
  5 10  1  0  0  0  0
  5  6  1  0  0  0  0
  5 27  1  0  0  0  0
  6  7  1  0  0  0  0
  6 28  1  0  0  0  0
  6 29  1  0  0  0  0
  7  8  1  0  0  0  0
  7 30  1  0  0  0  0
  7 31  1  0  0  0  0
  8  9  1  0  0  0  0
  9 10  1  0  0  0  0
  9 32  1  0  0  0  0
  9 33  1  0  0  0  0
 10 34  1  0  0  0  0
 10 35  1  0  0  0  0
 11 12  1  0  0  0  0
 11 36  1  0  0  0  0
 11 37  1  0  0  0  0
 12 22  1  0  0  0  0
 12 13  1  0  0  0  0
 13 14  2  0  0  0  0
 14 15  1  0  0  0  0
 15 22  2  0  0  0  0
 15 16  1  0  0  0  0
 16 17  2  0  0  0  0
 16 38  1  0  0  0  0
 17 18  1  0  0  0  0
 17 19  1  0  0  0  0
 19 20  1  0  0  0  0
 19 21  2  0  0  0  0
 21 22  1  0  0  0  0
 21 39  1  0  0  0  0
M  END
> <s_m_source_file>
AV-unprocessed.smi

> <i_m_source_file_index>
2502

> <i_lp_mmshare_version>
43012

> <i_f3d_flags>
0

> <s_epik_input>
W2NIXTFjKENsKWMoQ2wpW2NIXWMoYzEyKW4obm4yKVtDSDJdW0NASF0oW09IXSlbQ0gyXU9bQ0hdM1tDSDJdW0NIMl1PW0NIMl1bQ0gyXTM=

> <s_epik_cmdline>
J2VwaWtfcHl0aG9uJywgJy1waCcsICc3LjAnLCAnLXRuJywgJzgnLCAnLW1hJywgJzIwMCcsICctbWV0YWxfYmluZGluZycsICctaW1hZScsICc8aW5maWxlLm1hZT4nLCAnLW9tYWUnLCAnPG91dGZpbGUubWFlPic=

> <r_lp_tautomer_probability>
1

> <r_epik_Ionization_Penalty>
2.65748e-06

> <r_epik_Ionization_Penalty_Charging>
0

> <r_epik_Ionization_Penalty_Neutral>
2.65748e-06

> <r_epik_State_Penalty>
-0

> <r_epik_Charging_Adjusted_Penalty>
0

> <i_epik_Tot_Q>
0

> <i_epik_Tot_abs_Q>
0

> <r_epik_Metal_State_Penalty>
-0

> <b_epik_Metal_Only>
0

> <s_lp_Force_Field>
OPLS_2005

> <r_lp_Energy>
14.9544

> <b_lp_Chiralities_Consistent>
1

> <s_lp_Variant>
AV-unprocessed.smi:2502-1

> <Gold.Version>
5.8.1

> <Gold.Id.Protein>
6NUR|6NUR_protein|mol2

> <Gold.PLP.Fitness>
53.0923

> <Gold.PLP.PLP>
-46.4220

> <Gold.PLP.part.hbond>
-3.0000

> <Gold.PLP.part.metal>
0.0000

> <Gold.PLP.part.buried>
-4.6636

> <Gold.PLP.part.nonpolar>
-38.5265

> <Gold.PLP.part.repulsive>
0.2367

> <Gold.PLP.ligand.clash>
0.0000

> <Gold.PLP.ligand.torsion>
0.5718

> <Gold.PLP.Chemscore.Hbond>
2.5800

> <Gold.PLP.Chemscore.CHOScore>
0.0000

> <Gold.PLP.Chemscore.Metal>
0.0000

> <Gold.Chemscore.Hbonds>
donor molecule, donor type, donor heavy atom, donor atom, acceptor molecule, acceptor atom, score
      L1  H     1    23       P1  7957  1.00
      P1  H  7989  7998       L1     1  0.80
      P1  H  7997  8010       L1    14  0.26

> <Gold.PLP.Chemscore.Internal.Correction>
0.0739

> <Gold.Rescore>
     Score         DG    S(hbond)    S(metal)    S(lipo)     H(rot)  DE(clash)    DE(int)     intcor
     17.03     -18.70       1.45        0.00     119.84       2.21       0.01       1.66       ----

> <Gold.Chemscore.Fitness>
17.0296

> <Gold.Chemscore.DG>
-18.7001

> <Gold.Chemscore.ZeroCoef>
-5.4800

> <Gold.Chemscore.Hbond>
1.4514

> <Gold.Chemscore.Metal>
0.0000

> <Gold.Chemscore.Lipo>
119.8367

> <Gold.Chemscore.Internal_Hbond>
0.0000

> <Gold.Chemscore.DEClash>
0.0067

> <Gold.Chemscore.DEInternal>
1.6638

> <Gold.Chemscore.Rot>
2.2065

> <Gold.Chemscore.Internal.Correction>
   9.000000E+99

> <Gold.Chemscore.Hbonds>
donor molecule, donor type, donor heavy atom, donor atom, acceptor molecule, acceptor atom, score
      L1  H     1    23       P1  7957  0.95
      P1  H  7989  7998       L1     1  0.09
      P1  H  7997  8010       L1    14  0.01

> <Gold.Chemscore.Hbond.Weighted>
-4.8477

> <Gold.Chemscore.Metal.Weighted>
-0.0000

> <Gold.Chemscore.Lipo.Weighted>
-14.0209

> <Gold.Chemscore.Internal_Hbond.Weighted>
0.0000

> <Gold.Chemscore.DEClash.Weighted>
0.0067

> <Gold.Chemscore.DEInternal.Weighted>
1.6638

> <Gold.Chemscore.Rot.Weighted>
5.6485

> <Gold.Chemscore.Internal.Correction.Weighted>
   9.000000E+99

> <Gold.Protein.RotatedTorsions>
[ 6907 6896 6895 6894 ] final  -92.55 input  -60.11 | X-H torsion
[ 7974 7965 7964 7962 ] final -132.93 input  175.53 | X-H torsion
[ 8008 7997 7996 7995 ] final   56.82 input   59.86 | X-H torsion
[ 10167 10162 10161 10158 ] final  -95.80 input  -65.29 | X-H torsion
[ 10718 10713 10712 10709 ] final  173.34 input   66.30 | X-H torsion
[ 10763 10752 10751 10750 ] final   37.54 input  -60.55 | X-H torsion
[ 11005 11000 10999 10996 ] final   62.15 input  -57.11 | X-H torsion

> <Gold.Protein.ActiveResidues>
 VAL166  LYS551  ARG553  GLY616  TRP617  ASP618  TYR619  PRO620  LYS621  CYS622 
 ASP623  PHE694  ASN695  SER759  ASP760  ASP761  ALA762  ILE779  LEU786  VAL792 
 PHE793  MET794  SER795  GLU796  ALA797  LYS798  CYS799  TRP800  GLU811  SER814 

> <Gold.Protein.RotatedAtoms>
  150.6908  134.2105  159.4357 H   0  0  0  0  0  0  0  0  0  0  0  0  # atno 6907 bound_to 6896
  152.0067  134.9896  160.0576 H   0  0  0  0  0  0  0  0  0  0  0  0  # atno 6908 bound_to 6896
  152.1528  133.4497  159.4859 H   0  0  0  0  0  0  0  0  0  0  0  0  # atno 6909 bound_to 6896
  144.9240  140.7048  143.4947 H   0  0  0  0  0  0  0  0  0  0  0  0  # atno 7974 bound_to 7965
  155.5237  140.3480  155.4412 H   0  0  0  0  0  0  0  0  0  0  0  0  # atno 8008 bound_to 7997
  156.0766  140.1376  156.9790 H   0  0  0  0  0  0  0  0  0  0  0  0  # atno 8009 bound_to 7997
  154.4557  140.0954  156.6725 H   0  0  0  0  0  0  0  0  0  0  0  0  # atno 8010 bound_to 7997
  140.3004  143.3166  152.0254 H   0  0  0  0  0  0  0  0  0  0  0  0  # atno 10167 bound_to 10162
  156.9657  131.0074  151.2917 H   0  0  0  0  0  0  0  0  0  0  0  0  # atno 10718 bound_to 10713
  153.0034  135.6275  154.2161 H   0  0  0  0  0  0  0  0  0  0  0  0  # atno 10763 bound_to 10752
  154.1904  135.2809  155.3025 H   0  0  0  0  0  0  0  0  0  0  0  0  # atno 10764 bound_to 10752
  154.5764  135.5661  153.7203 H   0  0  0  0  0  0  0  0  0  0  0  0  # atno 10765 bound_to 10752
  140.0112  134.6293  155.9778 H   0  0  0  0  0  0  0  0  0  0  0  0  # atno 11005 bound_to 11000
  145.3250  139.1777  143.4567 LP  0  0  0  0  0  0  0  0  0  0  0  0  # atno 17320 bound_to 7965
  146.3217  140.3272  142.8637 LP  0  0  0  0  0  0  0  0  0  0  0  0  # atno 17321 bound_to 7965
  139.4916  144.6460  151.6778 LP  0  0  0  0  0  0  0  0  0  0  0  0  # atno 17342 bound_to 10162
  140.5656  144.0196  150.6190 LP  0  0  0  0  0  0  0  0  0  0  0  0  # atno 17343 bound_to 10162
  157.5627  130.8257  149.8287 LP  0  0  0  0  0  0  0  0  0  0  0  0  # atno 17370 bound_to 10713
  156.0303  130.3766  150.1705 LP  0  0  0  0  0  0  0  0  0  0  0  0  # atno 17371 bound_to 10713
  141.1712  133.6537  156.4659 LP  0  0  0  0  0  0  0  0  0  0  0  0  # atno 17394 bound_to 11000
  140.4551  134.6893  157.5058 LP  0  0  0  0  0  0  0  0  0  0  0  0  # atno 17395 bound_to 11000

$$$$
