AV-unprocessed.smi:665|AV-procd|sdf|3253|dock4
  -GOLD-   22720 0203D 1   1.00000     0.00000
 Structure written by MMmdl.
 43 44  0  0  0  0  0  0  0  0  1 V2000
  150.7208  140.6989  155.7770 C   0  0  0  0  0  0  0  0  0  0  0  0
  149.4430  140.5485  155.0759 N   0  0  0  0  0  0  0  0  0  0  0  0
  148.5804  141.6575  155.0516 C   0  0  0  0  0  0  0  0  0  0  0  0
  147.3930  141.6115  154.4318 C   0  0  0  0  0  0  0  0  0  0  0  0
  147.0086  140.3848  153.7757 C   0  0  0  0  0  0  0  0  0  0  0  0
  147.8303  139.3047  153.7782 C   0  0  0  0  0  0  0  0  0  0  0  0
  147.5351  138.0733  153.1668 N   0  0  0  0  0  0  0  0  0  0  0  0
  146.3537  137.4386  153.0500 C   0  0  0  0  0  0  0  0  0  0  0  0
  145.2711  137.8514  153.4652 O   0  0  0  0  0  0  0  0  0  0  0  0
  146.4995  136.2816  152.3879 N   0  0  0  0  0  0  0  0  0  0  0  0
  145.4279  135.3519  152.0400 C   0  0  0  0  0  0  0  0  0  0  0  0
  145.8383  133.9150  152.4038 C   0  0  0  0  0  0  0  0  0  0  0  0
  144.7627  132.8992  151.9774 C   0  0  0  0  0  0  0  0  0  0  0  0
  144.3931  132.9849  150.4751 C   0  0  0  0  0  0  0  0  0  0  0  0
  145.5511  132.4693  149.5932 C   0  0  0  0  0  0  0  0  0  0  0  0
  143.1643  132.0927  150.2124 C   0  0  0  0  0  0  0  0  0  0  0  0
  144.0350  134.4484  150.1151 C   0  0  0  0  0  0  0  0  0  0  0  0
  145.1105  135.4643  150.5395 C   0  0  0  0  0  0  0  0  0  0  0  0
  149.1303  139.3616  154.4753 C   0  0  0  0  0  0  0  0  0  0  0  0
  149.9033  138.4013  154.5201 O   0  0  0  0  0  0  0  0  0  0  0  0
  150.8493  141.6908  156.2114 H   0  0  0  0  0  0  0  0  0  0  0  0
  151.5540  140.5342  155.0924 H   0  0  0  0  0  0  0  0  0  0  0  0
  150.8004  139.9756  156.5899 H   0  0  0  0  0  0  0  0  0  0  0  0
  148.9405  142.5386  155.5625 H   0  0  0  0  0  0  0  0  0  0  0  0
  146.7408  142.4722  154.4202 H   0  0  0  0  0  0  0  0  0  0  0  0
  146.0420  140.3650  153.2999 H   0  0  0  0  0  0  0  0  0  0  0  0
  148.3240  137.6327  152.7162 H   0  0  0  0  0  0  0  0  0  0  0  0
  147.4284  136.0283  152.0847 H   0  0  0  0  0  0  0  0  0  0  0  0
  144.5193  135.5942  152.5945 H   0  0  0  0  0  0  0  0  0  0  0  0
  146.7915  133.6671  151.9357 H   0  0  0  0  0  0  0  0  0  0  0  0
  146.0017  133.8390  153.4795 H   0  0  0  0  0  0  0  0  0  0  0  0
  145.0938  131.8904  152.2266 H   0  0  0  0  0  0  0  0  0  0  0  0
  143.8699  133.0765  152.5791 H   0  0  0  0  0  0  0  0  0  0  0  0
  145.2903  132.5139  148.5352 H   0  0  0  0  0  0  0  0  0  0  0  0
  145.7909  131.4310  149.8251 H   0  0  0  0  0  0  0  0  0  0  0  0
  146.4653  133.0472  149.7234 H   0  0  0  0  0  0  0  0  0  0  0  0
  142.8641  132.1283  149.1644 H   0  0  0  0  0  0  0  0  0  0  0  0
  142.3066  132.4072  150.8081 H   0  0  0  0  0  0  0  0  0  0  0  0
  143.3691  131.0506  150.4605 H   0  0  0  0  0  0  0  0  0  0  0  0
  143.8502  134.5382  149.0439 H   0  0  0  0  0  0  0  0  0  0  0  0
  143.0980  134.7211  150.6031 H   0  0  0  0  0  0  0  0  0  0  0  0
  144.7658  136.4733  150.3101 H   0  0  0  0  0  0  0  0  0  0  0  0
  146.0169  135.3140  149.9522 H   0  0  0  0  0  0  0  0  0  0  0  0
  1  2  1  0  0  0  0
  1 21  1  0  0  0  0
  1 22  1  0  0  0  0
  1 23  1  0  0  0  0
  2 19  1  0  0  0  0
  2  3  1  0  0  0  0
  3  4  2  0  0  0  0
  3 24  1  0  0  0  0
  4  5  1  0  0  0  0
  4 25  1  0  0  0  0
  5  6  2  0  0  0  0
  5 26  1  0  0  0  0
  6  7  1  0  0  0  0
  6 19  1  0  0  0  0
  7  8  1  0  0  0  0
  7 27  1  0  0  0  0
  8  9  2  0  0  0  0
  8 10  1  0  0  0  0
 10 11  1  0  0  0  0
 10 28  1  0  0  0  0
 11 18  1  0  0  0  0
 11 12  1  0  0  0  0
 11 29  1  0  0  0  0
 12 13  1  0  0  0  0
 12 30  1  0  0  0  0
 12 31  1  0  0  0  0
 13 14  1  0  0  0  0
 13 32  1  0  0  0  0
 13 33  1  0  0  0  0
 14 15  1  0  0  0  0
 14 16  1  0  0  0  0
 14 17  1  0  0  0  0
 15 34  1  0  0  0  0
 15 35  1  0  0  0  0
 15 36  1  0  0  0  0
 16 37  1  0  0  0  0
 16 38  1  0  0  0  0
 16 39  1  0  0  0  0
 17 18  1  0  0  0  0
 17 40  1  0  0  0  0
 17 41  1  0  0  0  0
 18 42  1  0  0  0  0
 18 43  1  0  0  0  0
 19 20  2  0  0  0  0
M  END
> <s_m_source_file>
AV-unprocessed.smi

> <i_m_source_file_index>
665

> <i_lp_mmshare_version>
43012

> <i_f3d_flags>
0

> <s_epik_input>
W0NIM11uMVtjSF1bY0hdW2NIXWMoYzE9TylbTkhdQyg9TylbTkhdW0NIXShbQ0gyXVtDSDJdMilbQ0gyXVtDSDJdQzIoW0NIM10pW0NIM10=

> <s_epik_cmdline>
J2VwaWtfcHl0aG9uJywgJy1waCcsICc3LjAnLCAnLXRuJywgJzgnLCAnLW1hJywgJzIwMCcsICctbWV0YWxfYmluZGluZycsICctaW1hZScsICc8aW5maWxlLm1hZT4nLCAnLW9tYWUnLCAnPG91dGZpbGUubWFlPic=

> <r_lp_tautomer_probability>
1

> <r_epik_Ionization_Penalty>
2.65253e-05

> <r_epik_Ionization_Penalty_Charging>
5.1221e-06

> <r_epik_Ionization_Penalty_Neutral>
2.14032e-05

> <r_epik_State_Penalty>
-0

> <r_epik_Charging_Adjusted_Penalty>
5.1221e-06

> <i_epik_Tot_Q>
0

> <i_epik_Tot_abs_Q>
0

> <r_epik_Metal_State_Penalty>
-0

> <b_epik_Metal_Only>
0

> <s_lp_Force_Field>
OPLS_2005

> <r_lp_Energy>
25.5106

> <b_lp_Chiralities_Consistent>
1

> <s_lp_Variant>
AV-unprocessed.smi:665-1

> <Gold.Version>
5.8.1

> <Gold.Id.Protein>
6NUR|6NUR_protein|mol2

> <Gold.PLP.Fitness>
42.0242

> <Gold.PLP.PLP>
-33.9685

> <Gold.PLP.part.hbond>
-1.8494

> <Gold.PLP.part.metal>
0.0000

> <Gold.PLP.part.buried>
3.0993

> <Gold.PLP.part.nonpolar>
-36.1672

> <Gold.PLP.part.repulsive>
0.7551

> <Gold.PLP.ligand.clash>
0.0000

> <Gold.PLP.ligand.torsion>
0.4242

> <Gold.PLP.Chemscore.Hbond>
1.9673

> <Gold.PLP.Chemscore.CHOScore>
1.0000

> <Gold.PLP.Chemscore.Metal>
0.0000

> <Gold.Chemscore.Hbonds>
donor molecule, donor type, donor heavy atom, donor atom, acceptor molecule, acceptor atom, score
      L1  H     7    27       P1  7948  0.98
      L1  H    10    28       P1  7948  1.00
      L1  C     3    24       P1  8028  1.00

> <Gold.PLP.Chemscore.Internal.Correction>
0.0024

> <Gold.Rescore>
     Score         DG    S(hbond)    S(metal)    S(lipo)     H(rot)  DE(clash)    DE(int)     intcor
     18.78     -19.38       1.87        0.00      87.43       1.00       0.18       0.42       ----

> <Gold.Chemscore.Fitness>
18.7783

> <Gold.Chemscore.DG>
-19.3845

> <Gold.Chemscore.ZeroCoef>
-5.4800

> <Gold.Chemscore.Hbond>
1.8670

> <Gold.Chemscore.Metal>
0.0000

> <Gold.Chemscore.Lipo>
87.4255

> <Gold.Chemscore.Internal_Hbond>
0.0000

> <Gold.Chemscore.DEClash>
0.1847

> <Gold.Chemscore.DEInternal>
0.4215

> <Gold.Chemscore.Rot>
1.0000

> <Gold.Chemscore.Internal.Correction>
   9.000000E+99

> <Gold.Chemscore.Hbonds>
donor molecule, donor type, donor heavy atom, donor atom, acceptor molecule, acceptor atom, score
      L1  H     7    27       P1  7948  0.93
      L1  H    10    28       P1  7948  0.92

> <Gold.Chemscore.Hbond.Weighted>
-6.2357

> <Gold.Chemscore.Metal.Weighted>
-0.0000

> <Gold.Chemscore.Lipo.Weighted>
-10.2288

> <Gold.Chemscore.Internal_Hbond.Weighted>
0.0000

> <Gold.Chemscore.DEClash.Weighted>
0.1847

> <Gold.Chemscore.DEInternal.Weighted>
0.4215

> <Gold.Chemscore.Rot.Weighted>
2.5600

> <Gold.Chemscore.Internal.Correction.Weighted>
   9.000000E+99

> <Gold.Protein.RotatedTorsions>
[ 6907 6896 6895 6894 ] final -160.70 input  -60.11 | X-H torsion
[ 7974 7965 7964 7962 ] final  125.06 input  175.53 | X-H torsion
[ 8008 7997 7996 7995 ] final -178.55 input   59.86 | X-H torsion
[ 10167 10162 10161 10158 ] final -142.94 input  -65.29 | X-H torsion
[ 10718 10713 10712 10709 ] final  146.50 input   66.30 | X-H torsion
[ 10763 10752 10751 10750 ] final  113.37 input  -60.55 | X-H torsion
[ 11005 11000 10999 10996 ] final   27.65 input  -57.11 | X-H torsion

> <Gold.Protein.ActiveResidues>
 VAL166  LYS551  ARG553  GLY616  TRP617  ASP618  TYR619  PRO620  LYS621  CYS622 
 ASP623  PHE694  ASN695  SER759  ASP760  ASP761  ALA762  ILE779  LEU786  VAL792 
 PHE793  MET794  SER795  GLU796  ALA797  LYS798  CYS799  TRP800  GLU811  SER814 

> <Gold.Protein.RotatedAtoms>
  151.3531  133.3918  159.2681 H   0  0  0  0  0  0  0  0  0  0  0  0  # atno 6907 bound_to 6896
  150.9785  134.9146  159.7841 H   0  0  0  0  0  0  0  0  0  0  0  0  # atno 6908 bound_to 6896
  152.5209  134.3494  159.9298 H   0  0  0  0  0  0  0  0  0  0  0  0  # atno 6909 bound_to 6896
  145.0773  139.3684  143.4927 H   0  0  0  0  0  0  0  0  0  0  0  0  # atno 7974 bound_to 7965
  156.0201  140.1259  157.0366 H   0  0  0  0  0  0  0  0  0  0  0  0  # atno 8008 bound_to 7997
  154.4308  140.1070  156.6022 H   0  0  0  0  0  0  0  0  0  0  0  0  # atno 8009 bound_to 7997
  155.5956  140.3470  155.4581 H   0  0  0  0  0  0  0  0  0  0  0  0  # atno 8010 bound_to 7997
  139.8040  143.7793  152.2660 H   0  0  0  0  0  0  0  0  0  0  0  0  # atno 10167 bound_to 10162
  157.3324  131.0922  151.1151 H   0  0  0  0  0  0  0  0  0  0  0  0  # atno 10718 bound_to 10713
  153.4916  135.3657  155.2494 H   0  0  0  0  0  0  0  0  0  0  0  0  # atno 10763 bound_to 10752
  154.8752  135.3978  154.3582 H   0  0  0  0  0  0  0  0  0  0  0  0  # atno 10764 bound_to 10752
  153.4203  135.7080  153.6364 H   0  0  0  0  0  0  0  0  0  0  0  0  # atno 10765 bound_to 10752
  140.3239  134.2512  155.7712 H   0  0  0  0  0  0  0  0  0  0  0  0  # atno 11005 bound_to 11000
  146.3530  140.0546  142.8633 LP  0  0  0  0  0  0  0  0  0  0  0  0  # atno 17320 bound_to 7965
  145.1220  140.9468  143.4594 LP  0  0  0  0  0  0  0  0  0  0  0  0  # atno 17321 bound_to 7965
  139.7922  144.7406  150.9939 LP  0  0  0  0  0  0  0  0  0  0  0  0  # atno 17342 bound_to 10162
  140.7819  143.4430  151.0523 LP  0  0  0  0  0  0  0  0  0  0  0  0  # atno 17343 bound_to 10162
  157.2394  130.6562  149.5883 LP  0  0  0  0  0  0  0  0  0  0  0  0  # atno 17370 bound_to 10713
  155.9697  130.4573  150.5957 LP  0  0  0  0  0  0  0  0  0  0  0  0  # atno 17371 bound_to 10713
  141.2080  133.7790  157.0087 LP  0  0  0  0  0  0  0  0  0  0  0  0  # atno 17394 bound_to 11000
  140.0918  134.9588  157.1787 LP  0  0  0  0  0  0  0  0  0  0  0  0  # atno 17395 bound_to 11000

$$$$
