AV-unprocessed.smi:723|AV-procd|sdf|3506|dock8
  -GOLD-   22720 0503D 1   1.00000     0.00000
 Structure written by MMmdl.
 42 44  0  0  0  0  0  0  0  0  1 V2000
  153.4113  139.5075  159.4519 C   0  0  0  0  0  0  0  0  0  0  0  0
  153.0605  139.8328  158.1182 O   0  0  0  0  0  0  0  0  0  0  0  0
  151.6790  140.1169  157.9764 C   0  0  0  0  0  0  0  0  0  0  0  0
  151.4401  140.7738  156.6108 C   0  0  0  0  0  0  0  0  0  0  0  0
  150.9332  139.8234  155.6400 N   0  0  0  0  0  0  0  0  0  0  0  0
  149.6602  139.2962  155.5462 C   0  0  0  0  0  0  0  0  0  0  0  0
  149.6896  138.4493  154.4744 C   0  0  0  0  0  0  0  0  0  0  0  0
  148.6544  137.6456  153.9336 N   0  0  0  0  0  0  0  0  0  0  0  0
  147.3883  137.5424  154.3701 C   0  0  0  0  0  0  0  0  0  0  0  0
  146.9195  138.1521  155.3316 O   0  0  0  0  0  0  0  0  0  0  0  0
  146.6880  136.6811  153.6208 N   0  0  0  0  0  0  0  0  0  0  0  0
  145.3139  136.3373  153.8106 C   0  0  2  0  0  0  0  0  0  0  0  0
  144.8858  134.8887  153.6522 C   0  0  2  0  0  0  0  0  0  0  0  0
  145.7999  133.7735  153.1666 C   0  0  0  0  0  0  0  0  0  0  0  0
  145.2785  133.1611  151.8516 C   0  0  0  0  0  0  0  0  0  0  0  0
  144.8543  134.2038  150.7852 C   0  0  0  0  0  0  0  0  0  0  0  0
  145.0547  135.6691  151.2185 C   0  0  0  0  0  0  0  0  0  0  0  0
  144.4890  135.9052  152.6107 C   0  0  2  0  0  0  0  0  0  0  0  0
  151.0136  138.5120  153.9673 C   0  0  0  0  0  0  0  0  0  0  0  0
  151.7591  139.3459  154.6762 N   0  0  0  0  0  0  0  0  0  0  0  0
  154.4807  139.3062  159.5114 H   0  0  0  0  0  0  0  0  0  0  0  0
  152.8813  138.6171  159.7932 H   0  0  0  0  0  0  0  0  0  0  0  0
  153.1861  140.3311  160.1310 H   0  0  0  0  0  0  0  0  0  0  0  0
  151.0986  139.1963  158.0589 H   0  0  0  0  0  0  0  0  0  0  0  0
  151.3529  140.7858  158.7746 H   0  0  0  0  0  0  0  0  0  0  0  0
  150.7222  141.5895  156.7054 H   0  0  0  0  0  0  0  0  0  0  0  0
  152.3652  141.2078  156.2283 H   0  0  0  0  0  0  0  0  0  0  0  0
  148.8748  139.5664  156.2366 H   0  0  0  0  0  0  0  0  0  0  0  0
  148.9045  137.0903  153.1286 H   0  0  0  0  0  0  0  0  0  0  0  0
  147.1617  136.2297  152.8522 H   0  0  0  0  0  0  0  0  0  0  0  0
  144.7713  136.9056  154.5648 H   0  0  0  0  0  0  0  0  0  0  0  0
  144.0758  134.5449  154.2929 H   0  0  0  0  0  0  0  0  0  0  0  0
  146.8062  134.1589  153.0063 H   0  0  0  0  0  0  0  0  0  0  0  0
  145.8839  133.0112  153.9417 H   0  0  0  0  0  0  0  0  0  0  0  0
  146.0370  132.4960  151.4375 H   0  0  0  0  0  0  0  0  0  0  0  0
  144.4213  132.5257  152.0768 H   0  0  0  0  0  0  0  0  0  0  0  0
  145.3921  134.0224  149.8542 H   0  0  0  0  0  0  0  0  0  0  0  0
  143.7999  134.0513  150.5512 H   0  0  0  0  0  0  0  0  0  0  0  0
  146.1182  135.9063  151.2006 H   0  0  0  0  0  0  0  0  0  0  0  0
  144.5759  136.3494  150.5136 H   0  0  0  0  0  0  0  0  0  0  0  0
  143.4359  136.1804  152.6152 H   0  0  0  0  0  0  0  0  0  0  0  0
  151.4494  137.9926  153.1265 H   0  0  0  0  0  0  0  0  0  0  0  0
  1  2  1  0  0  0  0
  1 21  1  0  0  0  0
  1 22  1  0  0  0  0
  1 23  1  0  0  0  0
  2  3  1  0  0  0  0
  3  4  1  0  0  0  0
  3 24  1  0  0  0  0
  3 25  1  0  0  0  0
  4  5  1  0  0  0  0
  4 26  1  0  0  0  0
  4 27  1  0  0  0  0
  5 20  1  0  0  0  0
  5  6  1  0  0  0  0
  6  7  2  0  0  0  0
  6 28  1  0  0  0  0
  7  8  1  0  0  0  0
  7 19  1  0  0  0  0
  8  9  1  0  0  0  0
  8 29  1  0  0  0  0
  9 10  2  0  0  0  0
  9 11  1  0  0  0  0
 11 12  1  0  0  0  0
 11 30  1  0  0  0  0
 12 18  1  0  0  0  0
 12 13  1  0  0  0  0
 12 31  1  0  0  0  0
 13 18  1  0  0  0  0
 13 14  1  0  0  0  0
 13 32  1  0  0  0  0
 14 15  1  0  0  0  0
 14 33  1  0  0  0  0
 14 34  1  0  0  0  0
 15 16  1  0  0  0  0
 15 35  1  0  0  0  0
 15 36  1  0  0  0  0
 16 17  1  0  0  0  0
 16 37  1  0  0  0  0
 16 38  1  0  0  0  0
 17 18  1  0  0  0  0
 17 39  1  0  0  0  0
 17 40  1  0  0  0  0
 18 41  1  0  0  0  0
 19 20  2  0  0  0  0
 19 42  1  0  0  0  0
M  END
> <s_m_source_file>
AV-unprocessed.smi

> <i_m_source_file_index>
723

> <i_lp_mmshare_version>
43012

> <i_f3d_flags>
0

> <s_epik_input>
W0NIM11PW0NIMl1bQ0gyXW4xW2NIXWMoW2NIXW4xKVtOSF1DKD1PKVtOSF1bQ0BIXTJbQ0BASF0oW0NAQEhdMjMpW0NIMl1bQ0gyXVtDSDJdW0NIMl0z

> <s_epik_cmdline>
J2VwaWtfcHl0aG9uJywgJy1waCcsICc3LjAnLCAnLXRuJywgJzgnLCAnLW1hJywgJzIwMCcsICctbWV0YWxfYmluZGluZycsICctaW1hZScsICc8aW5maWxlLm1hZT4nLCAnLW9tYWUnLCAnPG91dGZpbGUubWFlPic=

> <r_lp_tautomer_probability>
1

> <r_epik_Ionization_Penalty>
0.00031755

> <r_epik_Ionization_Penalty_Charging>
0

> <r_epik_Ionization_Penalty_Neutral>
0.00031755

> <r_epik_State_Penalty>
-0

> <r_epik_Charging_Adjusted_Penalty>
0

> <i_epik_Tot_Q>
0

> <i_epik_Tot_abs_Q>
0

> <r_epik_Metal_State_Penalty>
-0

> <b_epik_Metal_Only>
0

> <s_lp_Force_Field>
OPLS_2005

> <r_lp_Energy>
44.2387

> <b_lp_Chiralities_Consistent>
1

> <s_lp_Variant>
AV-unprocessed.smi:723-2

> <Gold.Version>
5.8.1

> <Gold.Id.Protein>
6NUR|6NUR_protein|mol2

> <Gold.PLP.Fitness>
39.6081

> <Gold.PLP.PLP>
-28.0779

> <Gold.PLP.part.hbond>
-3.9670

> <Gold.PLP.part.metal>
0.0000

> <Gold.PLP.part.buried>
-5.6499

> <Gold.PLP.part.nonpolar>
-19.1957

> <Gold.PLP.part.repulsive>
0.1014

> <Gold.PLP.ligand.clash>
0.0000

> <Gold.PLP.ligand.torsion>
0.8377

> <Gold.PLP.Chemscore.Hbond>
3.5618

> <Gold.PLP.Chemscore.CHOScore>
0.8209

> <Gold.PLP.Chemscore.Metal>
0.0000

> <Gold.Chemscore.Hbonds>
donor molecule, donor type, donor heavy atom, donor atom, acceptor molecule, acceptor atom, score
      L1  H     8    29       P1  7948  0.96
      L1  H    11    30       P1  7948  0.81
      P1  H  7989  7998       L1    20  0.81
      P1  H  7997  8009       L1     2  0.99
      L1  C    19    42       P1  7949  0.83

> <Gold.PLP.Chemscore.Internal.Correction>
0.0577

> <Gold.Rescore>
     Score         DG    S(hbond)    S(metal)    S(lipo)     H(rot)  DE(clash)    DE(int)     intcor
     16.79     -18.91       2.88        0.00      66.84       1.56       0.16       1.97       ----

> <Gold.Chemscore.Fitness>
16.7855

> <Gold.Chemscore.DG>
-18.9122

> <Gold.Chemscore.ZeroCoef>
-5.4800

> <Gold.Chemscore.Hbond>
2.8780

> <Gold.Chemscore.Metal>
0.0000

> <Gold.Chemscore.Lipo>
66.8380

> <Gold.Chemscore.Internal_Hbond>
0.0000

> <Gold.Chemscore.DEClash>
0.1591

> <Gold.Chemscore.DEInternal>
1.9675

> <Gold.Chemscore.Rot>
1.5627

> <Gold.Chemscore.Internal.Correction>
   9.000000E+99

> <Gold.Chemscore.Hbonds>
donor molecule, donor type, donor heavy atom, donor atom, acceptor molecule, acceptor atom, score
      L1  H     8    29       P1  7948  0.91
      L1  H    11    30       P1  7948  0.76
      P1  H  7989  7998       L1    20  0.03
      P1  H  7997  8009       L1     2  0.51

> <Gold.Chemscore.Hbond.Weighted>
-9.6126

> <Gold.Chemscore.Metal.Weighted>
-0.0000

> <Gold.Chemscore.Lipo.Weighted>
-7.8200

> <Gold.Chemscore.Internal_Hbond.Weighted>
0.0000

> <Gold.Chemscore.DEClash.Weighted>
0.1591

> <Gold.Chemscore.DEInternal.Weighted>
1.9675

> <Gold.Chemscore.Rot.Weighted>
4.0005

> <Gold.Chemscore.Internal.Correction.Weighted>
   9.000000E+99

> <Gold.Protein.RotatedTorsions>
[ 6907 6896 6895 6894 ] final   87.80 input  -60.11 | X-H torsion
[ 7974 7965 7964 7962 ] final -136.15 input  175.53 | X-H torsion
[ 8008 7997 7996 7995 ] final  142.72 input   59.86 | X-H torsion
[ 10167 10162 10161 10158 ] final  176.62 input  -65.29 | X-H torsion
[ 10718 10713 10712 10709 ] final  134.10 input   66.30 | X-H torsion
[ 10763 10752 10751 10750 ] final  -87.55 input  -60.55 | X-H torsion
[ 11005 11000 10999 10996 ] final   85.28 input  -57.11 | X-H torsion

> <Gold.Protein.ActiveResidues>
 VAL166  LYS551  ARG553  GLY616  TRP617  ASP618  TYR619  PRO620  LYS621  CYS622 
 ASP623  PHE694  ASN695  SER759  ASP760  ASP761  ALA762  ILE779  LEU786  VAL792 
 PHE793  MET794  SER795  GLU796  ALA797  LYS798  CYS799  TRP800  GLU811  SER814 

> <Gold.Protein.RotatedAtoms>
  152.5416  134.2220  159.8790 H   0  0  0  0  0  0  0  0  0  0  0  0  # atno 6907 bound_to 6896
  151.2196  133.4503  159.2608 H   0  0  0  0  0  0  0  0  0  0  0  0  # atno 6908 bound_to 6896
  151.0818  134.9876  159.8415 H   0  0  0  0  0  0  0  0  0  0  0  0  # atno 6909 bound_to 6896
  144.8952  140.6696  143.5120 H   0  0  0  0  0  0  0  0  0  0  0  0  # atno 7974 bound_to 7965
  156.2944  140.2281  156.4774 H   0  0  0  0  0  0  0  0  0  0  0  0  # atno 8008 bound_to 7997
  154.7882  140.0456  157.1202 H   0  0  0  0  0  0  0  0  0  0  0  0  # atno 8009 bound_to 7997
  154.9676  140.3062  155.5005 H   0  0  0  0  0  0  0  0  0  0  0  0  # atno 8010 bound_to 7997
  139.5221  144.2894  152.0477 H   0  0  0  0  0  0  0  0  0  0  0  0  # atno 10167 bound_to 10162
  157.4706  131.1080  150.9807 H   0  0  0  0  0  0  0  0  0  0  0  0  # atno 10718 bound_to 10713
  154.6349  135.5409  153.7722 H   0  0  0  0  0  0  0  0  0  0  0  0  # atno 10763 bound_to 10752
  153.0303  135.6445  154.1246 H   0  0  0  0  0  0  0  0  0  0  0  0  # atno 10764 bound_to 10752
  154.1174  135.2922  155.3196 H   0  0  0  0  0  0  0  0  0  0  0  0  # atno 10765 bound_to 10752
  139.8976  134.8276  156.2561 H   0  0  0  0  0  0  0  0  0  0  0  0  # atno 11005 bound_to 11000
  145.3713  139.1658  143.4330 LP  0  0  0  0  0  0  0  0  0  0  0  0  # atno 17320 bound_to 7965
  146.3077  140.3785  142.8681 LP  0  0  0  0  0  0  0  0  0  0  0  0  # atno 17321 bound_to 7965
  140.2346  144.4333  150.6285 LP  0  0  0  0  0  0  0  0  0  0  0  0  # atno 17342 bound_to 10162
  140.6332  143.2190  151.6451 LP  0  0  0  0  0  0  0  0  0  0  0  0  # atno 17343 bound_to 10162
  157.0573  130.5811  149.5380 LP  0  0  0  0  0  0  0  0  0  0  0  0  # atno 17370 bound_to 10713
  156.0071  130.5159  150.7868 LP  0  0  0  0  0  0  0  0  0  0  0  0  # atno 17371 bound_to 10713
  141.0192  133.7051  156.1240 LP  0  0  0  0  0  0  0  0  0  0  0  0  # atno 17394 bound_to 11000
  140.7257  134.4309  157.5571 LP  0  0  0  0  0  0  0  0  0  0  0  0  # atno 17395 bound_to 11000

$$$$
