AV-unprocessed.smi:35|AV-procd|sdf|259|dock2
  -GOLD-   2262016 23D 1   1.00000     0.00000
 Structure written by MMmdl.
 29 30  0  0  0  0  0  0  0  0  1 V2000
  152.5354  136.7321  159.5256 O   0  0  0  0  0  0  0  0  0  0  0  0
  152.1376  137.3502  158.5405 C   0  0  0  0  0  0  0  0  0  0  0  0
  153.0461  137.8196  157.5879 N   0  0  0  0  0  0  0  0  0  0  0  0
  152.7141  138.5302  156.4328 C   0  0  0  0  0  0  0  0  0  0  0  0
  153.5963  138.8864  155.6525 O   0  0  0  0  0  0  0  0  0  0  0  0
  151.3457  138.8010  156.2093 N   0  0  0  0  0  0  0  0  0  0  0  0
  150.9592  139.5721  154.9606 C   0  0  2  0  0  0  0  0  0  0  0  0
  150.0186  140.5545  155.2868 O   0  0  0  0  0  0  0  0  0  0  0  0
  148.7372  140.1992  154.7738 C   0  0  1  0  0  0  0  0  0  0  0  0
  147.8844  141.4629  154.5877 C   0  0  0  0  0  0  0  0  0  0  0  0
  148.6785  142.5068  154.0663 O   0  0  0  0  0  0  0  0  0  0  0  0
  149.1120  139.5092  153.4632 C   0  0  2  0  0  0  0  0  0  0  0  0
  148.0569  138.7398  152.9160 O   0  0  0  0  0  0  0  0  0  0  0  0
  150.3287  138.6806  153.8632 C   0  0  2  0  0  0  0  0  0  0  0  0
  149.9648  137.3861  154.3204 O   0  0  0  0  0  0  0  0  0  0  0  0
  150.4050  138.3506  157.1282 C   0  0  0  0  0  0  0  0  0  0  0  0
  150.7437  137.6612  158.2432 C   0  0  0  0  0  0  0  0  0  0  0  0
  149.2560  137.1072  159.4280 Br  0  0  0  0  0  0  0  0  0  0  0  0
  154.0239  137.6257  157.7479 H   0  0  0  0  0  0  0  0  0  0  0  0
  151.8648  140.0869  154.6340 H   0  0  0  0  0  0  0  0  0  0  0  0
  148.2471  139.4848  155.4378 H   0  0  0  0  0  0  0  0  0  0  0  0
  147.0289  141.2741  153.9385 H   0  0  0  0  0  0  0  0  0  0  0  0
  147.4944  141.7979  155.5491 H   0  0  0  0  0  0  0  0  0  0  0  0
  148.8392  143.1346  154.7541 H   0  0  0  0  0  0  0  0  0  0  0  0
  149.4171  140.2595  152.7318 H   0  0  0  0  0  0  0  0  0  0  0  0
  148.3698  137.8597  152.7727 H   0  0  0  0  0  0  0  0  0  0  0  0
  151.0287  138.5697  153.0346 H   0  0  0  0  0  0  0  0  0  0  0  0
  149.4264  136.9778  153.6596 H   0  0  0  0  0  0  0  0  0  0  0  0
  149.3561  138.5453  156.9675 H   0  0  0  0  0  0  0  0  0  0  0  0
  1  2  2  0  0  0  0
  2 17  1  0  0  0  0
  2  3  1  0  0  0  0
  3 19  1  0  0  0  0
  3  4  1  0  0  0  0
  4  5  2  0  0  0  0
  4  6  1  0  0  0  0
  6  7  1  0  0  0  0
  6 16  1  0  0  0  0
  7 14  1  0  0  0  0
  7  8  1  0  0  0  0
  7 20  1  0  0  0  0
  8  9  1  0  0  0  0
  9 10  1  0  0  0  0
  9 12  1  0  0  0  0
  9 21  1  0  0  0  0
 10 11  1  0  0  0  0
 10 22  1  0  0  0  0
 10 23  1  0  0  0  0
 11 24  1  0  0  0  0
 12 13  1  0  0  0  0
 12 14  1  0  0  0  0
 12 25  1  0  0  0  0
 13 26  1  0  0  0  0
 14 15  1  0  0  0  0
 14 27  1  0  0  0  0
 15 28  1  0  0  0  0
 16 17  2  0  0  0  0
 16 29  1  0  0  0  0
 17 18  1  0  0  0  0
M  END
> <s_m_source_file>
AV-unprocessed.smi

> <i_m_source_file_index>
35

> <i_lp_mmshare_version>
43012

> <i_f3d_flags>
0

> <s_epik_input>
Tz1jMVtuSF1jKD1PKW4oW2NIXWMxQnIpW0NAQEhdMk9bQ0BASF0oW0NIMl1bT0hdKVtDQEBIXShbT0hdKVtDQEhdMltPSF0=

> <s_epik_cmdline>
J2VwaWtfcHl0aG9uJywgJy1waCcsICc3LjAnLCAnLXRuJywgJzgnLCAnLW1hJywgJzIwMCcsICctbWV0YWxfYmluZGluZycsICctaW1hZScsICc8aW5maWxlLm1hZT4nLCAnLW9tYWUnLCAnPG91dGZpbGUubWFlPic=

> <r_lp_tautomer_probability>
0.999537

> <r_epik_Ionization_Penalty>
0.10812

> <r_epik_Ionization_Penalty_Charging>
0.108119

> <r_epik_Ionization_Penalty_Neutral>
4.93006e-07

> <r_epik_State_Penalty>
0.0979238

> <r_epik_Charging_Adjusted_Penalty>
0.206043

> <i_epik_Tot_Q>
0

> <i_epik_Tot_abs_Q>
0

> <r_epik_Metal_State_Penalty>
3.07911

> <b_epik_Metal_Only>
0

> <s_epik_Chemistry_Notes>
This compound contains an acetal/aminal-like group ( X-CH(R)-Y where X, Y are N, S, or O) that may be acid/base labile, releasing an aldehyde.

> <s_lp_Force_Field>
OPLS_2005

> <r_lp_Energy>
37.6264

> <b_lp_Chiralities_Consistent>
1

> <s_lp_Variant>
AV-unprocessed.smi:35-13

> <Gold.Version>
5.8.1

> <Gold.Id.Protein>
6NUR|6NUR_protein|mol2

> <Gold.PLP.Fitness>
38.2599

> <Gold.PLP.PLP>
-24.0988

> <Gold.PLP.part.hbond>
-6.9998

> <Gold.PLP.part.metal>
0.0000

> <Gold.PLP.part.buried>
2.7489

> <Gold.PLP.part.nonpolar>
-18.7076

> <Gold.PLP.part.repulsive>
0.2074

> <Gold.PLP.ligand.clash>
0.0000

> <Gold.PLP.ligand.torsion>
0.5021

> <Gold.PLP.Chemscore.Hbond>
5.0256

> <Gold.PLP.Chemscore.CHOScore>
0.0000

> <Gold.PLP.Chemscore.Metal>
0.0000

> <Gold.Chemscore.Hbonds>
donor molecule, donor type, donor heavy atom, donor atom, acceptor molecule, acceptor atom, score
      L1  H    11    24       P1  8028  1.00
      L1  H    13    26       P1  7948  1.00
      L1  H    15    28       P1  7948  1.00
      P1  H  6896  6908       L1     1  1.00
      P1  H  7997  8010       L1     5  0.91
      P1  H  8011  8017       L1    11  0.14

> <Gold.PLP.Chemscore.Internal.Correction>
0.0886

> <Gold.Rescore>
     Score         DG    S(hbond)    S(metal)    S(lipo)     H(rot)  DE(clash)    DE(int)     intcor
     13.01     -16.78       4.78        0.00      40.60       3.67       2.12       1.65       ----

> <Gold.Chemscore.Fitness>
13.0063

> <Gold.Chemscore.DG>
-16.7846

> <Gold.Chemscore.ZeroCoef>
-5.4800

> <Gold.Chemscore.Hbond>
4.7754

> <Gold.Chemscore.Metal>
0.0000

> <Gold.Chemscore.Lipo>
40.6004

> <Gold.Chemscore.Internal_Hbond>
0.0000

> <Gold.Chemscore.DEClash>
2.1237

> <Gold.Chemscore.DEInternal>
1.6546

> <Gold.Chemscore.Rot>
3.6701

> <Gold.Chemscore.Internal.Correction>
   9.000000E+99

> <Gold.Chemscore.Hbonds>
donor molecule, donor type, donor heavy atom, donor atom, acceptor molecule, acceptor atom, score
      L1  H    11    24       P1  8028  0.99
      L1  H    13    26       P1  7948  0.99
      L1  H    15    28       P1  7948  0.89
      P1  H  6896  6908       L1     1  0.99
      P1  H  7997  8010       L1     5  0.75
      P1  H  8011  8017       L1    11  0.14

> <Gold.Chemscore.Hbond.Weighted>
-15.9498

> <Gold.Chemscore.Metal.Weighted>
-0.0000

> <Gold.Chemscore.Lipo.Weighted>
-4.7502

> <Gold.Chemscore.Internal_Hbond.Weighted>
0.0000

> <Gold.Chemscore.DEClash.Weighted>
2.1237

> <Gold.Chemscore.DEInternal.Weighted>
1.6546

> <Gold.Chemscore.Rot.Weighted>
9.3955

> <Gold.Chemscore.Internal.Correction.Weighted>
   9.000000E+99

> <Gold.Protein.RotatedTorsions>
[ 6907 6896 6895 6894 ] final  -99.77 input  -60.11 | X-H torsion
[ 7974 7965 7964 7962 ] final  -51.44 input  175.53 | X-H torsion
[ 8008 7997 7996 7995 ] final   91.05 input   59.86 | X-H torsion
[ 10167 10162 10161 10158 ] final -139.51 input  -65.29 | X-H torsion
[ 10718 10713 10712 10709 ] final  -90.09 input   66.30 | X-H torsion
[ 10763 10752 10751 10750 ] final -169.27 input  -60.55 | X-H torsion
[ 11005 11000 10999 10996 ] final   85.75 input  -57.11 | X-H torsion

> <Gold.Protein.ActiveResidues>
 VAL166  LYS551  ARG553  GLY616  TRP617  ASP618  TYR619  PRO620  LYS621  CYS622 
 ASP623  PHE694  ASN695  SER759  ASP760  ASP761  ALA762  ILE779  LEU786  VAL792 
 PHE793  MET794  SER795  GLU796  ALA797  LYS798  CYS799  TRP800  GLU811  SER814 

> <Gold.Protein.RotatedAtoms>
  150.7092  134.0989  159.3958 H   0  0  0  0  0  0  0  0  0  0  0  0  # atno 6907 bound_to 6896
  151.8975  135.0389  160.0513 H   0  0  0  0  0  0  0  0  0  0  0  0  # atno 6908 bound_to 6896
  152.2441  133.5124  159.5324 H   0  0  0  0  0  0  0  0  0  0  0  0  # atno 6909 bound_to 6896
  145.9190  140.7850  142.9657 H   0  0  0  0  0  0  0  0  0  0  0  0  # atno 7974 bound_to 7965
  156.0192  140.3342  155.7021 H   0  0  0  0  0  0  0  0  0  0  0  0  # atno 8008 bound_to 7997
  155.6047  140.0659  157.2741 H   0  0  0  0  0  0  0  0  0  0  0  0  # atno 8009 bound_to 7997
  154.4309  140.1804  156.1197 H   0  0  0  0  0  0  0  0  0  0  0  0  # atno 8010 bound_to 7997
  139.8373  143.7368  152.2664 H   0  0  0  0  0  0  0  0  0  0  0  0  # atno 10167 bound_to 10162
  155.9986  130.4896  150.5270 H   0  0  0  0  0  0  0  0  0  0  0  0  # atno 10718 bound_to 10713
  154.6541  135.2915  154.9950 H   0  0  0  0  0  0  0  0  0  0  0  0  # atno 10763 bound_to 10752
  154.1033  135.6573  153.4876 H   0  0  0  0  0  0  0  0  0  0  0  0  # atno 10764 bound_to 10752
  153.0392  135.5248  154.7462 H   0  0  0  0  0  0  0  0  0  0  0  0  # atno 10765 bound_to 10752
  139.8963  134.8308  156.2625 H   0  0  0  0  0  0  0  0  0  0  0  0  # atno 11005 bound_to 11000
  144.6751  140.1945  143.7393 LP  0  0  0  0  0  0  0  0  0  0  0  0  # atno 17320 bound_to 7965
  145.8575  139.2206  143.1736 LP  0  0  0  0  0  0  0  0  0  0  0  0  # atno 17321 bound_to 7965
  139.7594  144.7511  151.0386 LP  0  0  0  0  0  0  0  0  0  0  0  0  # atno 17342 bound_to 10162
  140.7801  143.4768  151.0072 LP  0  0  0  0  0  0  0  0  0  0  0  0  # atno 17343 bound_to 10162
  157.3224  131.0684  151.1922 LP  0  0  0  0  0  0  0  0  0  0  0  0  # atno 17370 bound_to 10713
  157.2830  130.6759  149.6076 LP  0  0  0  0  0  0  0  0  0  0  0  0  # atno 17371 bound_to 10713
  141.0153  133.7072  156.1178 LP  0  0  0  0  0  0  0  0  0  0  0  0  # atno 17394 bound_to 11000
  140.7310  134.4254  157.5566 LP  0  0  0  0  0  0  0  0  0  0  0  0  # atno 17395 bound_to 11000

$$$$
