AV-unprocessed.smi:3237|AV-procd|sdf|12366|dock4
  -GOLD-   2272018223D 1   1.00000     0.00000
 Structure written by MMmdl.
 37 39  0  0  0  0  0  0  0  0  2 V2000
  149.8036  141.6552  156.2209 C   0  0  0  0  0  0  0  0  0  0  0  0
  149.5941  140.3920  155.4587 C   0  0  0  0  0  0  0  0  0  0  0  0
  148.5088  139.5807  155.2829 C   0  0  0  0  0  0  0  0  0  0  0  0
  149.0153  138.5489  154.4400 C   0  0  0  0  0  0  0  0  0  0  0  0
  148.2864  137.4385  153.9425 N   0  0  0  0  0  0  0  0  0  0  0  0
  147.0670  137.0111  154.3100 C   0  0  0  0  0  0  0  0  0  0  0  0
  146.3547  137.5332  155.1676 O   0  0  0  0  0  0  0  0  0  0  0  0
  146.7100  135.9133  153.6280 N   0  0  0  0  0  0  0  0  0  0  0  0
  145.4560  135.1903  153.8137 C   0  0  1  0  0  0  0  0  0  0  0  0
  144.2162  136.0279  153.5016 C   0  0  0  0  0  0  0  0  0  0  0  0
  143.1670  135.0043  153.0329 C   0  0  0  0  0  0  0  0  0  0  0  0
  143.8692  133.7092  152.8704 N   0  3  1  0  0  0  0  0  0  0  0  0
  143.4081  132.9065  151.7181 C   0  0  0  0  0  0  0  0  0  0  0  0
  144.4188  131.8878  151.2478 C   0  0  0  0  0  0  0  0  0  0  0  0
  144.1956  133.1570  150.4544 C   0  0  0  0  0  0  0  0  0  0  0  0
  145.3111  134.0090  152.8547 C   0  0  0  0  0  0  0  0  0  0  0  0
  150.2850  138.7259  154.1251 N   0  0  0  0  0  0  0  0  0  0  0  0
  150.6665  139.9029  154.7796 O   0  0  0  0  0  0  0  0  0  0  0  0
  148.8747  141.9908  156.6825 H   0  0  0  0  0  0  0  0  0  0  0  0
  150.1601  142.4485  155.5637 H   0  0  0  0  0  0  0  0  0  0  0  0
  150.5410  141.5115  157.0107 H   0  0  0  0  0  0  0  0  0  0  0  0
  147.5210  139.7194  155.6956 H   0  0  0  0  0  0  0  0  0  0  0  0
  148.7645  136.8890  153.2437 H   0  0  0  0  0  0  0  0  0  0  0  0
  147.3521  135.5497  152.9386 H   0  0  0  0  0  0  0  0  0  0  0  0
  145.3865  134.8312  154.8429 H   0  0  0  0  0  0  0  0  0  0  0  0
  143.8802  136.6061  154.3632 H   0  0  0  0  0  0  0  0  0  0  0  0
  144.4242  136.7300  152.6927 H   0  0  0  0  0  0  0  0  0  0  0  0
  142.3662  134.8884  153.7640 H   0  0  0  0  0  0  0  0  0  0  0  0
  142.7149  135.3321  152.0953 H   0  0  0  0  0  0  0  0  0  0  0  0
  142.3422  132.6899  151.6715 H   0  0  0  0  0  0  0  0  0  0  0  0
  145.3534  131.7970  151.7981 H   0  0  0  0  0  0  0  0  0  0  0  0
  144.0374  130.9613  150.8236 H   0  0  0  0  0  0  0  0  0  0  0  0
  143.6683  133.0650  149.5070 H   0  0  0  0  0  0  0  0  0  0  0  0
  144.9821  133.9092  150.4777 H   0  0  0  0  0  0  0  0  0  0  0  0
  145.6191  134.2944  151.8467 H   0  0  0  0  0  0  0  0  0  0  0  0
  145.9010  133.1436  153.1590 H   0  0  0  0  0  0  0  0  0  0  0  0
  143.6940  133.1771  153.7110 H   0  0  0  0  0  0  0  0  0  0  0  0
  1  2  1  0  0  0  0
  1 19  1  0  0  0  0
  1 20  1  0  0  0  0
  1 21  1  0  0  0  0
  2 18  1  0  0  0  0
  2  3  2  0  0  0  0
  3  4  1  0  0  0  0
  3 22  1  0  0  0  0
  4  5  1  0  0  0  0
  4 17  2  0  0  0  0
  5  6  1  0  0  0  0
  5 23  1  0  0  0  0
  6  7  2  0  0  0  0
  6  8  1  0  0  0  0
  8  9  1  0  0  0  0
  8 24  1  0  0  0  0
  9 16  1  0  0  0  0
  9 10  1  0  0  0  0
  9 25  1  0  0  0  0
 10 11  1  0  0  0  0
 10 26  1  0  0  0  0
 10 27  1  0  0  0  0
 11 12  1  0  0  0  0
 11 28  1  0  0  0  0
 11 29  1  0  0  0  0
 12 13  1  0  0  0  0
 12 16  1  0  0  0  0
 12 37  1  0  0  0  0
 13 15  1  0  0  0  0
 13 14  1  0  0  0  0
 13 30  1  0  0  0  0
 14 15  1  0  0  0  0
 14 31  1  0  0  0  0
 14 32  1  0  0  0  0
 15 33  1  0  0  0  0
 15 34  1  0  0  0  0
 16 35  1  0  0  0  0
 16 36  1  0  0  0  0
 17 18  1  0  0  0  0
M  CHG  1  12   1
M  END
> <s_m_source_file>
AV-unprocessed.smi

> <i_m_source_file_index>
3237

> <i_lp_mmshare_version>
43012

> <i_f3d_flags>
0

> <s_epik_input>
W0NIM11jMVtjSF1jKG5vMSlbTkhdQyg9TylbTkhdW0NAQEhdMltDSDJdW0NIMl1OKFtDSDJdMilbQ0hdM1tDSDJdW0NIMl0z

> <s_epik_cmdline>
J2VwaWtfcHl0aG9uJywgJy1waCcsICc3LjAnLCAnLXRuJywgJzgnLCAnLW1hJywgJzIwMCcsICctbWV0YWxfYmluZGluZycsICctaW1hZScsICc8aW5maWxlLm1hZT4nLCAnLW9tYWUnLCAnPG91dGZpbGUubWFlPic=

> <r_epik_Ionization_Penalty>
0.000720579

> <r_epik_Ionization_Penalty_Charging>
0.000680516

> <r_epik_Ionization_Penalty_Neutral>
4.00628e-05

> <r_epik_State_Penalty>
0.000432256

> <r_epik_Charging_Adjusted_Penalty>
0.00111277

> <i_epik_Tot_Q>
1

> <i_epik_Tot_abs_Q>
1

> <r_epik_Metal_State_Penalty>
0.0255091

> <b_epik_Metal_Only>
0

> <s_lp_Force_Field>
OPLS_2005

> <r_lp_Energy>
35.1178

> <b_lp_Chiralities_Consistent>
1

> <s_lp_Variant>
AV-unprocessed.smi:3237-4

> <Gold.Version>
5.8.1

> <Gold.Id.Protein>
6NUR|6NUR_protein|mol2

> <Gold.PLP.Fitness>
35.2447

> <Gold.PLP.PLP>
-21.4186

> <Gold.PLP.part.hbond>
-3.8677

> <Gold.PLP.part.metal>
0.0000

> <Gold.PLP.part.buried>
-5.4160

> <Gold.PLP.part.nonpolar>
-14.6568

> <Gold.PLP.part.repulsive>
0.3271

> <Gold.PLP.ligand.clash>
0.0000

> <Gold.PLP.ligand.torsion>
0.6601

> <Gold.PLP.Chemscore.Hbond>
4.6278

> <Gold.PLP.Chemscore.CHOScore>
0.0000

> <Gold.PLP.Chemscore.Metal>
0.0000

> <Gold.Chemscore.Hbonds>
donor molecule, donor type, donor heavy atom, donor atom, acceptor molecule, acceptor atom, score
      L1  H     5    23       P1  7948  1.00
      L1  H     8    24       P1  7948  0.76
      L1  H    12    37       P1 10957  1.92
      P1  H  7989  7998       L1    18  1.00

> <Gold.PLP.Chemscore.Internal.Correction>
1.2630

> <Gold.Rescore>
     Score         DG    S(hbond)    S(metal)    S(lipo)     H(rot)  DE(clash)    DE(int)     intcor
     16.64     -18.48       3.09        0.00      50.49       1.26       0.05       1.79       ----

> <Gold.Chemscore.Fitness>
16.6397

> <Gold.Chemscore.DG>
-18.4838

> <Gold.Chemscore.ZeroCoef>
-5.4800

> <Gold.Chemscore.Hbond>
3.0900

> <Gold.Chemscore.Metal>
0.0000

> <Gold.Chemscore.Lipo>
50.4878

> <Gold.Chemscore.Internal_Hbond>
0.0000

> <Gold.Chemscore.DEClash>
0.0515

> <Gold.Chemscore.DEInternal>
1.7926

> <Gold.Chemscore.Rot>
1.2593

> <Gold.Chemscore.Internal.Correction>
   9.000000E+99

> <Gold.Chemscore.Hbonds>
donor molecule, donor type, donor heavy atom, donor atom, acceptor molecule, acceptor atom, score
      L1  H     5    23       P1  7948  0.92
      L1  H     8    24       P1  7948  0.72
      L1  H    12    37       P1 10957  0.86
      P1  H  7989  7998       L1    18  0.50

> <Gold.Chemscore.Hbond.Weighted>
-10.3205

> <Gold.Chemscore.Metal.Weighted>
-0.0000

> <Gold.Chemscore.Lipo.Weighted>
-5.9071

> <Gold.Chemscore.Internal_Hbond.Weighted>
0.0000

> <Gold.Chemscore.DEClash.Weighted>
0.0515

> <Gold.Chemscore.DEInternal.Weighted>
1.7926

> <Gold.Chemscore.Rot.Weighted>
3.2237

> <Gold.Chemscore.Internal.Correction.Weighted>
   9.000000E+99

> <Gold.Protein.RotatedTorsions>
[ 6907 6896 6895 6894 ] final -143.43 input  -60.11 | X-H torsion
[ 7974 7965 7964 7962 ] final  -71.33 input  175.53 | X-H torsion
[ 8008 7997 7996 7995 ] final -159.19 input   59.86 | X-H torsion
[ 10167 10162 10161 10158 ] final  -23.81 input  -65.29 | X-H torsion
[ 10718 10713 10712 10709 ] final -146.93 input   66.30 | X-H torsion
[ 10763 10752 10751 10750 ] final   82.88 input  -60.55 | X-H torsion
[ 11005 11000 10999 10996 ] final  141.35 input  -57.11 | X-H torsion

> <Gold.Protein.ActiveResidues>
 VAL166  LYS551  ARG553  GLY616  TRP617  ASP618  TYR619  PRO620  LYS621  CYS622 
 ASP623  PHE694  ASN695  SER759  ASP760  ASP761  ALA762  ILE779  LEU786  VAL792 
 PHE793  MET794  SER795  GLU796  ALA797  LYS798  CYS799  TRP800  GLU811  SER814 

> <Gold.Protein.RotatedAtoms>
  151.1004  133.5248  159.2610 H   0  0  0  0  0  0  0  0  0  0  0  0  # atno 6907 bound_to 6896
  151.2080  135.0469  159.8909 H   0  0  0  0  0  0  0  0  0  0  0  0  # atno 6908 bound_to 6896
  152.5442  134.0824  159.8294 H   0  0  0  0  0  0  0  0  0  0  0  0  # atno 6909 bound_to 6896
  145.6795  140.9193  143.0840 H   0  0  0  0  0  0  0  0  0  0  0  0  # atno 7974 bound_to 7965
  155.7588  140.0836  157.2165 H   0  0  0  0  0  0  0  0  0  0  0  0  # atno 8008 bound_to 7997
  154.4005  140.1546  156.2865 H   0  0  0  0  0  0  0  0  0  0  0  0  # atno 8009 bound_to 7997
  155.8859  140.3418  155.5924 H   0  0  0  0  0  0  0  0  0  0  0  0  # atno 8010 bound_to 7997
  140.7288  143.4409  151.0658 H   0  0  0  0  0  0  0  0  0  0  0  0  # atno 10167 bound_to 10162
  156.4011  130.7934  151.2145 H   0  0  0  0  0  0  0  0  0  0  0  0  # atno 10718 bound_to 10713
  153.1241  135.4712  154.9244 H   0  0  0  0  0  0  0  0  0  0  0  0  # atno 10763 bound_to 10752
  154.7604  135.3130  154.8392 H   0  0  0  0  0  0  0  0  0  0  0  0  # atno 10764 bound_to 10752
  153.8950  135.6881  153.4812 H   0  0  0  0  0  0  0  0  0  0  0  0  # atno 10765 bound_to 10752
  140.0395  134.9312  157.0815 H   0  0  0  0  0  0  0  0  0  0  0  0  # atno 11005 bound_to 11000
  144.7031  139.8678  143.7438 LP  0  0  0  0  0  0  0  0  0  0  0  0  # atno 17320 bound_to 7965
  146.0976  139.3970  143.0366 LP  0  0  0  0  0  0  0  0  0  0  0  0  # atno 17321 bound_to 7965
  139.8076  143.7996  152.3168 LP  0  0  0  0  0  0  0  0  0  0  0  0  # atno 17342 bound_to 10162
  139.8034  144.7365  150.9793 LP  0  0  0  0  0  0  0  0  0  0  0  0  # atno 17343 bound_to 10162
  157.7504  131.0286  150.4058 LP  0  0  0  0  0  0  0  0  0  0  0  0  # atno 17370 bound_to 10713
  156.4337  130.3977  149.6743 LP  0  0  0  0  0  0  0  0  0  0  0  0  # atno 17371 bound_to 10713
  140.4093  134.1998  155.7163 LP  0  0  0  0  0  0  0  0  0  0  0  0  # atno 17394 bound_to 11000
  141.1875  133.8280  157.1029 LP  0  0  0  0  0  0  0  0  0  0  0  0  # atno 17395 bound_to 11000

$$$$
