AV-unprocessed.smi:1564|AV-procd|sdf|6294|dock6
  -GOLD-   22720 6493D 1   1.00000     0.00000
 Structure written by MMmdl.
 43 44  0  0  0  0  0  0  0  0  2 V2000
  150.7847  141.6862  157.8515 C   0  0  0  0  0  0  0  0  0  0  0  0
  150.8093  141.5200  156.4382 O   0  0  0  0  0  0  0  0  0  0  0  0
  150.1302  140.4500  155.8923 C   0  0  0  0  0  0  0  0  0  0  0  0
  149.1851  139.7746  156.6893 C   0  0  0  0  0  0  0  0  0  0  0  0
  148.4874  138.6816  156.1409 C   0  0  0  0  0  0  0  0  0  0  0  0
  148.7524  138.3019  154.8032 C   0  0  0  0  0  0  0  0  0  0  0  0
  148.1302  137.2090  154.1404 N   0  0  0  0  0  0  0  0  0  0  0  0
  146.9302  136.6543  154.3839 C   0  0  0  0  0  0  0  0  0  0  0  0
  146.1279  137.0328  155.2367 O   0  0  0  0  0  0  0  0  0  0  0  0
  146.6917  135.6275  153.5560 N   0  0  0  0  0  0  0  0  0  0  0  0
  145.4695  134.8306  153.5595 C   0  0  1  0  0  0  0  0  0  0  0  0
  144.2571  135.5318  152.9452 C   0  0  0  0  0  0  0  0  0  0  0  0
  143.4142  134.3933  152.3475 C   0  0  0  0  0  0  0  0  0  0  0  0
  144.2096  133.1450  152.4734 N   0  3  1  0  0  0  0  0  0  0  0  0
  144.0113  132.1552  151.3774 C   0  0  0  0  0  0  0  0  0  0  0  0
  145.0118  130.9900  151.4947 C   0  0  0  0  0  0  0  0  0  0  0  0
  144.1424  132.8099  149.9892 C   0  0  0  0  0  0  0  0  0  0  0  0
  145.6038  133.5770  152.7018 C   0  0  0  0  0  0  0  0  0  0  0  0
  149.7271  139.0353  154.0951 C   0  0  0  0  0  0  0  0  0  0  0  0
  150.3991  140.0842  154.6146 N   0  0  0  0  0  0  0  0  0  0  0  0
  151.3594  142.5726  158.1201 H   0  0  0  0  0  0  0  0  0  0  0  0
  151.2351  140.8333  158.3613 H   0  0  0  0  0  0  0  0  0  0  0  0
  149.7675  141.8278  158.2192 H   0  0  0  0  0  0  0  0  0  0  0  0
  149.0016  140.0863  157.7070 H   0  0  0  0  0  0  0  0  0  0  0  0
  147.7795  138.1541  156.7606 H   0  0  0  0  0  0  0  0  0  0  0  0
  148.6405  136.8364  153.3531 H   0  0  0  0  0  0  0  0  0  0  0  0
  147.4003  135.3839  152.8794 H   0  0  0  0  0  0  0  0  0  0  0  0
  145.2314  134.5278  154.5815 H   0  0  0  0  0  0  0  0  0  0  0  0
  143.7052  136.1169  153.6818 H   0  0  0  0  0  0  0  0  0  0  0  0
  144.5695  136.2113  152.1505 H   0  0  0  0  0  0  0  0  0  0  0  0
  142.4673  134.2776  152.8757 H   0  0  0  0  0  0  0  0  0  0  0  0
  143.1884  134.6153  151.3034 H   0  0  0  0  0  0  0  0  0  0  0  0
  143.0025  131.7485  151.4638 H   0  0  0  0  0  0  0  0  0  0  0  0
  144.8864  130.2823  150.6746 H   0  0  0  0  0  0  0  0  0  0  0  0
  144.8802  130.4280  152.4193 H   0  0  0  0  0  0  0  0  0  0  0  0
  146.0416  131.3479  151.4653 H   0  0  0  0  0  0  0  0  0  0  0  0
  144.0568  132.0654  149.1970 H   0  0  0  0  0  0  0  0  0  0  0  0
  145.1074  133.3042  149.8728 H   0  0  0  0  0  0  0  0  0  0  0  0
  143.3614  133.5490  149.8109 H   0  0  0  0  0  0  0  0  0  0  0  0
  146.0799  133.8109  151.7476 H   0  0  0  0  0  0  0  0  0  0  0  0
  146.1927  132.8073  153.2016 H   0  0  0  0  0  0  0  0  0  0  0  0
  149.9746  138.7764  153.0760 H   0  0  0  0  0  0  0  0  0  0  0  0
  143.9112  132.7052  153.3325 H   0  0  0  0  0  0  0  0  0  0  0  0
  1  2  1  0  0  0  0
  1 21  1  0  0  0  0
  1 22  1  0  0  0  0
  1 23  1  0  0  0  0
  2  3  1  0  0  0  0
  3 20  1  0  0  0  0
  3  4  2  0  0  0  0
  4  5  1  0  0  0  0
  4 24  1  0  0  0  0
  5  6  2  0  0  0  0
  5 25  1  0  0  0  0
  6  7  1  0  0  0  0
  6 19  1  0  0  0  0
  7  8  1  0  0  0  0
  7 26  1  0  0  0  0
  8  9  2  0  0  0  0
  8 10  1  0  0  0  0
 10 11  1  0  0  0  0
 10 27  1  0  0  0  0
 11 18  1  0  0  0  0
 11 12  1  0  0  0  0
 11 28  1  0  0  0  0
 12 13  1  0  0  0  0
 12 29  1  0  0  0  0
 12 30  1  0  0  0  0
 13 14  1  0  0  0  0
 13 31  1  0  0  0  0
 13 32  1  0  0  0  0
 14 15  1  0  0  0  0
 14 18  1  0  0  0  0
 14 43  1  0  0  0  0
 15 16  1  0  0  0  0
 15 17  1  0  0  0  0
 15 33  1  0  0  0  0
 16 34  1  0  0  0  0
 16 35  1  0  0  0  0
 16 36  1  0  0  0  0
 17 37  1  0  0  0  0
 17 38  1  0  0  0  0
 17 39  1  0  0  0  0
 18 40  1  0  0  0  0
 18 41  1  0  0  0  0
 19 20  2  0  0  0  0
 19 42  1  0  0  0  0
M  CHG  1  14   1
M  END
> <s_m_source_file>
AV-unprocessed.smi

> <i_m_source_file_index>
1564

> <i_lp_mmshare_version>
43012

> <i_f3d_flags>
0

> <s_epik_input>
W0NIM11PYzFbY0hdW2NIXWMoW2NIXW4xKVtOSF1DKD1PKVtOSF1bQ0BASF0yW0NIMl1bQ0gyXU4oW0NIMl0yKVtDSF0oW0NIM10pW0NIM10=

> <s_epik_cmdline>
J2VwaWtfcHl0aG9uJywgJy1waCcsICc3LjAnLCAnLXRuJywgJzgnLCAnLW1hJywgJzIwMCcsICctbWV0YWxfYmluZGluZycsICctaW1hZScsICc8aW5maWxlLm1hZT4nLCAnLW9tYWUnLCAnPG91dGZpbGUubWFlPic=

> <r_lp_tautomer_probability>
1

> <r_epik_Ionization_Penalty>
0.000679474

> <r_epik_Ionization_Penalty_Charging>
0.000606352

> <r_epik_Ionization_Penalty_Neutral>
7.31222e-05

> <r_epik_State_Penalty>
0.000382168

> <r_epik_Charging_Adjusted_Penalty>
0.00098852

> <i_epik_Tot_Q>
1

> <i_epik_Tot_abs_Q>
1

> <r_epik_Metal_State_Penalty>
-0

> <b_epik_Metal_Only>
0

> <s_lp_Force_Field>
OPLS_2005

> <r_lp_Energy>
32.3031

> <b_lp_Chiralities_Consistent>
1

> <s_lp_Variant>
AV-unprocessed.smi:1564-2

> <Gold.Version>
5.8.1

> <Gold.Id.Protein>
6NUR|6NUR_protein|mol2

> <Gold.PLP.Fitness>
40.9132

> <Gold.PLP.PLP>
-26.0014

> <Gold.PLP.part.hbond>
-3.7933

> <Gold.PLP.part.metal>
0.0000

> <Gold.PLP.part.buried>
-5.2829

> <Gold.PLP.part.nonpolar>
-18.4508

> <Gold.PLP.part.repulsive>
0.1663

> <Gold.PLP.ligand.clash>
0.0000

> <Gold.PLP.ligand.torsion>
0.6156

> <Gold.PLP.Chemscore.Hbond>
4.3920

> <Gold.PLP.Chemscore.CHOScore>
0.9812

> <Gold.PLP.Chemscore.Metal>
0.0000

> <Gold.Chemscore.Hbonds>
donor molecule, donor type, donor heavy atom, donor atom, acceptor molecule, acceptor atom, score
      L1  H     7    26       P1  7948  1.00
      L1  H    10    27       P1  7948  0.83
      L1  H    14    43       P1 10957  1.56
      P1  H  7989  7998       L1    20  1.00
      L1  C    19    42       P1  7957  0.97

> <Gold.PLP.Chemscore.Internal.Correction>
0.0233

> <Gold.Rescore>
     Score         DG    S(hbond)    S(metal)    S(lipo)     H(rot)  DE(clash)    DE(int)     intcor
     18.11     -19.47       3.23        0.00      58.85       1.44       0.00       1.35       ----

> <Gold.Chemscore.Fitness>
18.1115

> <Gold.Chemscore.DG>
-19.4695

> <Gold.Chemscore.ZeroCoef>
-5.4800

> <Gold.Chemscore.Hbond>
3.2340

> <Gold.Chemscore.Metal>
0.0000

> <Gold.Chemscore.Lipo>
58.8524

> <Gold.Chemscore.Internal_Hbond>
0.0000

> <Gold.Chemscore.DEClash>
0.0047

> <Gold.Chemscore.DEInternal>
1.3533

> <Gold.Chemscore.Rot>
1.4445

> <Gold.Chemscore.Internal.Correction>
   9.000000E+99

> <Gold.Chemscore.Hbonds>
donor molecule, donor type, donor heavy atom, donor atom, acceptor molecule, acceptor atom, score
      L1  H     7    26       P1  7948  0.99
      L1  H    10    27       P1  7948  0.76
      L1  H    14    43       P1 10957  0.30
      P1  H  7989  7998       L1    20  0.90

> <Gold.Chemscore.Hbond.Weighted>
-10.8016

> <Gold.Chemscore.Metal.Weighted>
-0.0000

> <Gold.Chemscore.Lipo.Weighted>
-6.8857

> <Gold.Chemscore.Internal_Hbond.Weighted>
0.0000

> <Gold.Chemscore.DEClash.Weighted>
0.0047

> <Gold.Chemscore.DEInternal.Weighted>
1.3533

> <Gold.Chemscore.Rot.Weighted>
3.6979

> <Gold.Chemscore.Internal.Correction.Weighted>
   9.000000E+99

> <Gold.Protein.RotatedTorsions>
[ 6907 6896 6895 6894 ] final -169.01 input  -60.11 | X-H torsion
[ 7974 7965 7964 7962 ] final   21.31 input  175.53 | X-H torsion
[ 8008 7997 7996 7995 ] final   20.44 input   59.86 | X-H torsion
[ 10167 10162 10161 10158 ] final  -59.98 input  -65.29 | X-H torsion
[ 10718 10713 10712 10709 ] final   83.49 input   66.30 | X-H torsion
[ 10763 10752 10751 10750 ] final -165.95 input  -60.55 | X-H torsion
[ 11005 11000 10999 10996 ] final   93.44 input  -57.11 | X-H torsion

> <Gold.Protein.ActiveResidues>
 VAL166  LYS551  ARG553  GLY616  TRP617  ASP618  TYR619  PRO620  LYS621  CYS622 
 ASP623  PHE694  ASN695  SER759  ASP760  ASP761  ALA762  ILE779  LEU786  VAL792 
 PHE793  MET794  SER795  GLU796  ALA797  LYS798  CYS799  TRP800  GLU811  SER814 

> <Gold.Protein.RotatedAtoms>
  151.4847  133.3538  159.2843 H   0  0  0  0  0  0  0  0  0  0  0  0  # atno 6907 bound_to 6896
  150.8874  134.8276  159.7280 H   0  0  0  0  0  0  0  0  0  0  0  0  # atno 6908 bound_to 6896
  152.4802  134.4752  159.9700 H   0  0  0  0  0  0  0  0  0  0  0  0  # atno 6909 bound_to 6896
  146.2076  139.8045  142.8713 H   0  0  0  0  0  0  0  0  0  0  0  0  # atno 7974 bound_to 7965
  154.9357  140.3046  155.5146 H   0  0  0  0  0  0  0  0  0  0  0  0  # atno 8008 bound_to 7997
  156.3000  140.2345  156.4358 H   0  0  0  0  0  0  0  0  0  0  0  0  # atno 8009 bound_to 7997
  154.8194  140.0424  157.1389 H   0  0  0  0  0  0  0  0  0  0  0  0  # atno 8010 bound_to 7997
  140.6101  143.2384  151.5730 H   0  0  0  0  0  0  0  0  0  0  0  0  # atno 10167 bound_to 10162
  157.6880  131.0093  150.2531 H   0  0  0  0  0  0  0  0  0  0  0  0  # atno 10718 bound_to 10713
  154.6882  135.2966  154.9518 H   0  0  0  0  0  0  0  0  0  0  0  0  # atno 10763 bound_to 10752
  154.0490  135.6647  153.4802 H   0  0  0  0  0  0  0  0  0  0  0  0  # atno 10764 bound_to 10752
  153.0593  135.5125  154.7960 H   0  0  0  0  0  0  0  0  0  0  0  0  # atno 10765 bound_to 10752
  139.8810  134.8790  156.3719 H   0  0  0  0  0  0  0  0  0  0  0  0  # atno 11005 bound_to 11000
  145.3261  141.0255  143.3473 LP  0  0  0  0  0  0  0  0  0  0  0  0  # atno 17320 bound_to 7965
  144.8832  139.4875  143.6713 LP  0  0  0  0  0  0  0  0  0  0  0  0  # atno 17321 bound_to 7965
  139.5354  144.2795  152.1240 LP  0  0  0  0  0  0  0  0  0  0  0  0  # atno 17342 bound_to 10162
  140.1992  144.4674  150.6440 LP  0  0  0  0  0  0  0  0  0  0  0  0  # atno 17343 bound_to 10162
  156.3124  130.3774  149.7649 LP  0  0  0  0  0  0  0  0  0  0  0  0  # atno 17370 bound_to 10713
  156.5246  130.8230  151.3215 LP  0  0  0  0  0  0  0  0  0  0  0  0  # atno 17371 bound_to 10713
  140.9458  133.7484  156.0207 LP  0  0  0  0  0  0  0  0  0  0  0  0  # atno 17394 bound_to 11000
  140.8165  134.3339  157.5395 LP  0  0  0  0  0  0  0  0  0  0  0  0  # atno 17395 bound_to 11000

$$$$
