AV-unprocessed.smi:1724|AV-procd|sdf|6951|dock2
  -GOLD-   22720 8163D 1   1.00000     0.00000
 Structure written by MMmdl.
 37 38  0  0  0  0  0  0  0  0  2 V2000
  154.4767  141.2920  162.5122 O   0  0  0  0  0  0  0  0  0  0  0  0
  154.3321  140.2494  161.8747 C   0  0  0  0  0  0  0  0  0  0  0  0
  154.8238  139.0686  162.2776 N   0  0  0  0  0  0  0  0  0  0  0  0
  155.6040  138.8409  163.4912 C   0  0  0  0  0  0  0  0  0  0  0  0
  155.5833  137.3641  163.9367 C   0  0  2  0  0  0  0  0  0  0  0  0
  156.3302  136.4280  162.9671 C   0  0  0  0  0  0  0  0  0  0  0  0
  156.1860  134.9701  163.4179 C   0  0  0  0  0  0  0  0  0  0  0  0
  154.7061  134.6139  163.6208 C   0  0  0  0  0  0  0  0  0  0  0  0
  154.1204  135.5115  164.5568 O   0  0  0  0  0  0  0  0  0  0  0  0
  154.1344  136.8647  164.1134 C   0  0  0  0  0  0  0  0  0  0  0  0
  153.6652  140.1156  160.7135 N   0  0  0  0  0  0  0  0  0  0  0  0
  153.0142  141.0863  159.9317 C   0  0  0  0  0  0  0  0  0  0  0  0
  152.6022  142.3049  160.3799 C   0  0  0  0  0  0  0  0  0  0  0  0
  151.9429  143.2736  159.5134 C   0  0  0  0  0  0  0  0  0  0  0  0
  151.3844  144.5979  160.0034 C   0  0  0  0  0  0  0  0  0  0  0  0
  151.9184  145.6207  159.3355 F   0  0  0  0  0  0  0  0  0  0  0  0
  150.0605  144.6429  159.8538 F   0  0  0  0  0  0  0  0  0  0  0  0
  151.6618  144.7561  161.2968 F   0  0  0  0  0  0  0  0  0  0  0  0
  151.7879  142.8037  158.2238 C   0  0  0  0  0  0  0  0  0  0  0  0
  152.1877  141.6274  157.6936 N   0  5  0  0  0  0  0  0  0  0  0  0
  152.8036  140.7290  158.5129 C   0  0  0  0  0  0  0  0  0  0  0  0
  153.1860  139.6350  158.0959 O   0  0  0  0  0  0  0  0  0  0  0  0
  154.6491  138.2634  161.6945 H   0  0  0  0  0  0  0  0  0  0  0  0
  156.6298  139.1408  163.2752 H   0  0  0  0  0  0  0  0  0  0  0  0
  155.2669  139.4880  164.3031 H   0  0  0  0  0  0  0  0  0  0  0  0
  156.0738  137.3010  164.9095 H   0  0  0  0  0  0  0  0  0  0  0  0
  155.9282  136.5417  161.9592 H   0  0  0  0  0  0  0  0  0  0  0  0
  157.3877  136.6874  162.9131 H   0  0  0  0  0  0  0  0  0  0  0  0
  156.6384  134.3028  162.6839 H   0  0  0  0  0  0  0  0  0  0  0  0
  156.7275  134.8206  164.3529 H   0  0  0  0  0  0  0  0  0  0  0  0
  154.1625  134.6498  162.6753 H   0  0  0  0  0  0  0  0  0  0  0  0
  154.6144  133.5968  164.0025 H   0  0  0  0  0  0  0  0  0  0  0  0
  153.6159  137.4725  164.8555 H   0  0  0  0  0  0  0  0  0  0  0  0
  153.5722  136.9561  163.1825 H   0  0  0  0  0  0  0  0  0  0  0  0
  153.5949  139.1783  160.3450 H   0  0  0  0  0  0  0  0  0  0  0  0
  152.7665  142.6076  161.4002 H   0  0  0  0  0  0  0  0  0  0  0  0
  151.2585  143.4721  157.5117 H   0  0  0  0  0  0  0  0  0  0  0  0
  1  2  2  0  0  0  0
  2  3  1  0  0  0  0
  2 11  1  0  0  0  0
  3  4  1  0  0  0  0
  3 23  1  0  0  0  0
  4  5  1  0  0  0  0
  4 24  1  0  0  0  0
  4 25  1  0  0  0  0
  5 10  1  0  0  0  0
  5  6  1  0  0  0  0
  5 26  1  0  0  0  0
  6  7  1  0  0  0  0
  6 27  1  0  0  0  0
  6 28  1  0  0  0  0
  7  8  1  0  0  0  0
  7 29  1  0  0  0  0
  7 30  1  0  0  0  0
  8  9  1  0  0  0  0
  8 31  1  0  0  0  0
  8 32  1  0  0  0  0
  9 10  1  0  0  0  0
 10 33  1  0  0  0  0
 10 34  1  0  0  0  0
 11 12  1  0  0  0  0
 11 35  1  0  0  0  0
 12 21  1  0  0  0  0
 12 13  2  0  0  0  0
 13 14  1  0  0  0  0
 13 36  1  0  0  0  0
 14 15  1  0  0  0  0
 14 19  2  0  0  0  0
 15 16  1  0  0  0  0
 15 17  1  0  0  0  0
 15 18  1  0  0  0  0
 19 20  1  0  0  0  0
 19 37  1  0  0  0  0
 20 21  1  0  0  0  0
 21 22  2  0  0  0  0
M  CHG  1  20  -1
M  END
> <s_m_source_file>
AV-unprocessed.smi

> <i_m_source_file_index>
1724

> <i_lp_mmshare_version>
43012

> <i_f3d_flags>
0

> <s_epik_input>
Tz1jMVtuSF1bY0hdYyhDKEYpKEYpRilbY0hdYzFbTkhdQyg9TylbTkhdW0NIMl1bQ0BASF0yW0NIMl1bQ0gyXVtDSDJdT1tDSDJdMg==

> <s_epik_cmdline>
J2VwaWtfcHl0aG9uJywgJy1waCcsICc3LjAnLCAnLXRuJywgJzgnLCAnLW1hJywgJzIwMCcsICctbWV0YWxfYmluZGluZycsICctaW1hZScsICc8aW5maWxlLm1hZT4nLCAnLW9tYWUnLCAnPG91dGZpbGUubWFlPic=

> <r_lp_tautomer_probability>
1

> <r_epik_Ionization_Penalty>
3.16025

> <r_epik_Ionization_Penalty_Charging>
0.171172

> <r_epik_Ionization_Penalty_Neutral>
2.98908

> <r_epik_State_Penalty>
2.98521

> <r_epik_Charging_Adjusted_Penalty>
3.15638

> <i_epik_Tot_Q>
-1

> <i_epik_Tot_abs_Q>
1

> <r_epik_Metal_State_Penalty>
0.452642

> <b_epik_Metal_Only>
1

> <s_lp_Force_Field>
OPLS_2005

> <r_lp_Energy>
24.3751

> <b_lp_Chiralities_Consistent>
1

> <s_lp_Variant>
AV-unprocessed.smi:1724-3

> <Gold.Version>
5.8.1

> <Gold.Id.Protein>
6NUR|6NUR_protein|mol2

> <Gold.PLP.Fitness>
42.4124

> <Gold.PLP.PLP>
-39.9319

> <Gold.PLP.part.hbond>
-2.0000

> <Gold.PLP.part.metal>
0.0000

> <Gold.PLP.part.buried>
-2.3263

> <Gold.PLP.part.nonpolar>
-35.3770

> <Gold.PLP.part.repulsive>
0.2277

> <Gold.PLP.ligand.clash>
0.0000

> <Gold.PLP.ligand.torsion>
0.2865

> <Gold.PLP.Chemscore.Hbond>
1.0000

> <Gold.PLP.Chemscore.CHOScore>
0.0000

> <Gold.PLP.Chemscore.Metal>
0.0000

> <Gold.Chemscore.Hbonds>
donor molecule, donor type, donor heavy atom, donor atom, acceptor molecule, acceptor atom, score
      P1  H  7997  8008       L1    22  1.00

> <Gold.PLP.Chemscore.Internal.Correction>
0.0534

> <Gold.Rescore>
     Score         DG    S(hbond)    S(metal)    S(lipo)     H(rot)  DE(clash)    DE(int)     intcor
     11.81     -14.24       0.92        0.00      77.68       1.32       1.20       1.23       ----

> <Gold.Chemscore.Fitness>
11.8100

> <Gold.Chemscore.DG>
-14.2374

> <Gold.Chemscore.ZeroCoef>
-5.4800

> <Gold.Chemscore.Hbond>
0.9162

> <Gold.Chemscore.Metal>
0.0000

> <Gold.Chemscore.Lipo>
77.6820

> <Gold.Chemscore.Internal_Hbond>
0.0000

> <Gold.Chemscore.DEClash>
1.1994

> <Gold.Chemscore.DEInternal>
1.2280

> <Gold.Chemscore.Rot>
1.3248

> <Gold.Chemscore.Internal.Correction>
   9.000000E+99

> <Gold.Chemscore.Hbonds>
donor molecule, donor type, donor heavy atom, donor atom, acceptor molecule, acceptor atom, score
      P1  H  7997  8008       L1    22  0.45

> <Gold.Chemscore.Hbond.Weighted>
-3.0601

> <Gold.Chemscore.Metal.Weighted>
-0.0000

> <Gold.Chemscore.Lipo.Weighted>
-9.0888

> <Gold.Chemscore.Internal_Hbond.Weighted>
0.0000

> <Gold.Chemscore.DEClash.Weighted>
1.1994

> <Gold.Chemscore.DEInternal.Weighted>
1.2280

> <Gold.Chemscore.Rot.Weighted>
3.3915

> <Gold.Chemscore.Internal.Correction.Weighted>
   9.000000E+99

> <Gold.Protein.RotatedTorsions>
[ 6907 6896 6895 6894 ] final   82.72 input  -60.11 | X-H torsion
[ 7974 7965 7964 7962 ] final   99.43 input  175.53 | X-H torsion
[ 8008 7997 7996 7995 ] final  -88.09 input   59.86 | X-H torsion
[ 10167 10162 10161 10158 ] final  -21.27 input  -65.29 | X-H torsion
[ 10718 10713 10712 10709 ] final   49.52 input   66.30 | X-H torsion
[ 10763 10752 10751 10750 ] final  -44.63 input  -60.55 | X-H torsion
[ 11005 11000 10999 10996 ] final  172.28 input  -57.11 | X-H torsion

> <Gold.Protein.ActiveResidues>
 VAL166  LYS551  ARG553  GLY616  TRP617  ASP618  TYR619  PRO620  LYS621  CYS622 
 ASP623  PHE694  ASN695  SER759  ASP760  ASP761  ALA762  ILE779  LEU786  VAL792 
 PHE793  MET794  SER795  GLU796  ALA797  LYS798  CYS799  TRP800  GLU811  SER814 

> <Gold.Protein.RotatedAtoms>
  152.5307  134.3006  159.9076 H   0  0  0  0  0  0  0  0  0  0  0  0  # atno 6907 bound_to 6896
  151.2957  133.4138  159.2644 H   0  0  0  0  0  0  0  0  0  0  0  0  # atno 6908 bound_to 6896
  151.0162  134.9451  159.8091 H   0  0  0  0  0  0  0  0  0  0  0  0  # atno 6909 bound_to 6896
  145.3990  139.2350  143.3310 H   0  0  0  0  0  0  0  0  0  0  0  0  # atno 7974 bound_to 7965
  154.6707  140.0558  157.0163 H   0  0  0  0  0  0  0  0  0  0  0  0  # atno 8008 bound_to 7997
  155.1092  140.3236  155.4507 H   0  0  0  0  0  0  0  0  0  0  0  0  # atno 8009 bound_to 7997
  156.2656  140.2017  156.6217 H   0  0  0  0  0  0  0  0  0  0  0  0  # atno 8010 bound_to 7997
  140.7281  143.4644  151.0334 H   0  0  0  0  0  0  0  0  0  0  0  0  # atno 10167 bound_to 10162
  157.4794  130.8306  149.8077 H   0  0  0  0  0  0  0  0  0  0  0  0  # atno 10718 bound_to 10713
  154.0152  135.6676  153.4768 H   0  0  0  0  0  0  0  0  0  0  0  0  # atno 10763 bound_to 10752
  153.0604  135.5031  154.8075 H   0  0  0  0  0  0  0  0  0  0  0  0  # atno 10764 bound_to 10752
  154.6971  135.3072  154.9359 H   0  0  0  0  0  0  0  0  0  0  0  0  # atno 10765 bound_to 10752
  140.3280  134.7381  157.4113 H   0  0  0  0  0  0  0  0  0  0  0  0  # atno 11005 bound_to 11000
  146.2761  140.4684  142.8795 LP  0  0  0  0  0  0  0  0  0  0  0  0  # atno 17320 bound_to 7965
  144.8387  140.6823  143.6243 LP  0  0  0  0  0  0  0  0  0  0  0  0  # atno 17321 bound_to 7965
  139.8331  143.7664  152.3180 LP  0  0  0  0  0  0  0  0  0  0  0  0  # atno 17342 bound_to 10162
  139.7787  144.7452  151.0120 LP  0  0  0  0  0  0  0  0  0  0  0  0  # atno 17343 bound_to 10162
  156.0114  130.3832  150.2253 LP  0  0  0  0  0  0  0  0  0  0  0  0  # atno 17370 bound_to 10713
  157.0439  131.0043  151.3275 LP  0  0  0  0  0  0  0  0  0  0  0  0  # atno 17371 bound_to 10713
  140.0885  134.5633  155.8468 LP  0  0  0  0  0  0  0  0  0  0  0  0  # atno 17394 bound_to 11000
  141.2070  133.6660  156.6280 LP  0  0  0  0  0  0  0  0  0  0  0  0  # atno 17395 bound_to 11000

$$$$
