AV-unprocessed.smi:3112|AV-procd|sdf|11851|dock1
  -GOLD-   2272017233D 1   1.00000     0.00000
 Structure written by MMmdl.
 36 36  0  0  0  0  0  0  0  0  1 V2000
  146.6276  140.8536  154.4935 C   0  0  0  0  0  0  0  0  0  0  0  0
  148.0720  140.3887  154.2616 C   0  0  0  0  0  0  0  0  0  0  0  0
  149.1255  141.4233  154.7047 C   0  0  1  0  0  0  0  0  0  0  0  0
  148.7385  142.6942  154.2235 O   0  0  0  0  0  0  0  0  0  0  0  0
  149.2597  141.5296  156.2332 C   0  0  0  0  0  0  0  0  0  0  0  0
  150.3730  142.4019  156.6114 N   0  0  0  0  0  0  0  0  0  0  0  0
  150.8725  142.2107  157.9765 C   0  0  1  0  0  0  0  0  0  0  0  0
  151.3912  140.7653  158.0985 C   0  0  0  0  0  0  0  0  0  0  0  0
  151.9610  143.2624  158.3483 C   0  0  1  0  0  0  0  0  0  0  0  0
  151.6198  144.7064  157.9353 C   0  0  0  0  0  0  0  0  0  0  0  0
  152.2846  143.2261  159.7696 N   0  0  0  0  0  0  0  0  0  0  0  0
  152.1807  144.2446  160.6948 C   0  0  0  0  0  0  0  0  0  0  0  0
  152.5991  143.7499  161.8967 C   0  0  0  0  0  0  0  0  0  0  0  0
  152.9429  142.4006  161.6051 C   0  0  0  0  0  0  0  0  0  0  0  0
  152.7545  142.0896  160.3332 N   0  0  0  0  0  0  0  0  0  0  0  0
  145.9187  140.1045  154.1404 H   0  0  0  0  0  0  0  0  0  0  0  0
  146.4226  141.7819  153.9593 H   0  0  0  0  0  0  0  0  0  0  0  0
  146.4270  141.0235  155.5516 H   0  0  0  0  0  0  0  0  0  0  0  0
  148.2399  139.4413  154.7756 H   0  0  0  0  0  0  0  0  0  0  0  0
  148.1913  140.1797  153.1982 H   0  0  0  0  0  0  0  0  0  0  0  0
  150.0965  141.1796  154.2711 H   0  0  0  0  0  0  0  0  0  0  0  0
  148.6516  143.2797  154.9602 H   0  0  0  0  0  0  0  0  0  0  0  0
  148.3254  141.9023  156.6485 H   0  0  0  0  0  0  0  0  0  0  0  0
  149.4033  140.5353  156.6582 H   0  0  0  0  0  0  0  0  0  0  0  0
  151.1341  142.2619  155.9547 H   0  0  0  0  0  0  0  0  0  0  0  0
  150.0437  142.3030  158.6802 H   0  0  0  0  0  0  0  0  0  0  0  0
  151.6616  140.5147  159.1243 H   0  0  0  0  0  0  0  0  0  0  0  0
  152.2696  140.6043  157.4727 H   0  0  0  0  0  0  0  0  0  0  0  0
  150.6285  140.0490  157.7907 H   0  0  0  0  0  0  0  0  0  0  0  0
  152.8764  142.9885  157.8209 H   0  0  0  0  0  0  0  0  0  0  0  0
  151.6294  144.8224  156.8520 H   0  0  0  0  0  0  0  0  0  0  0  0
  152.3533  145.4099  158.3305 H   0  0  0  0  0  0  0  0  0  0  0  0
  150.6388  145.0085  158.3035 H   0  0  0  0  0  0  0  0  0  0  0  0
  151.8230  145.2269  160.4235 H   0  0  0  0  0  0  0  0  0  0  0  0
  152.6514  144.2719  162.8405 H   0  0  0  0  0  0  0  0  0  0  0  0
  153.3214  141.6428  162.2753 H   0  0  0  0  0  0  0  0  0  0  0  0
  1  2  1  0  0  0  0
  1 16  1  0  0  0  0
  1 17  1  0  0  0  0
  1 18  1  0  0  0  0
  2  3  1  0  0  0  0
  2 19  1  0  0  0  0
  2 20  1  0  0  0  0
  3  4  1  0  0  0  0
  3  5  1  0  0  0  0
  3 21  1  0  0  0  0
  4 22  1  0  0  0  0
  5  6  1  0  0  0  0
  5 23  1  0  0  0  0
  5 24  1  0  0  0  0
  6  7  1  0  0  0  0
  6 25  1  0  0  0  0
  7  8  1  0  0  0  0
  7  9  1  0  0  0  0
  7 26  1  0  0  0  0
  8 27  1  0  0  0  0
  8 28  1  0  0  0  0
  8 29  1  0  0  0  0
  9 10  1  0  0  0  0
  9 11  1  0  0  0  0
  9 30  1  0  0  0  0
 10 31  1  0  0  0  0
 10 32  1  0  0  0  0
 10 33  1  0  0  0  0
 11 15  1  0  0  0  0
 11 12  1  0  0  0  0
 12 13  2  0  0  0  0
 12 34  1  0  0  0  0
 13 14  1  0  0  0  0
 13 35  1  0  0  0  0
 14 15  2  0  0  0  0
 14 36  1  0  0  0  0
M  END
> <s_m_source_file>
AV-unprocessed.smi

> <i_m_source_file_index>
3112

> <i_lp_mmshare_version>
43012

> <i_f3d_flags>
0

> <s_epik_input>
W0NIM11bQ0gyXVtDQEhdKFtPSF0pW0NIMl1bTkhdW0NASF0oW0NIM10pW0NASF0oW0NIM10pbjFbY0hdW2NIXVtjSF1uMQ==

> <s_epik_cmdline>
J2VwaWtfcHl0aG9uJywgJy1waCcsICc3LjAnLCAnLXRuJywgJzgnLCAnLW1hJywgJzIwMCcsICctbWV0YWxfYmluZGluZycsICctaW1hZScsICc8aW5maWxlLm1hZT4nLCAnLW9tYWUnLCAnPG91dGZpbGUubWFlPic=

> <r_lp_tautomer_probability>
1

> <r_epik_Ionization_Penalty>
2.16876

> <r_epik_Ionization_Penalty_Charging>
0

> <r_epik_Ionization_Penalty_Neutral>
2.16876

> <r_epik_State_Penalty>
2.30854

> <r_epik_Charging_Adjusted_Penalty>
2.30854

> <i_epik_Tot_Q>
0

> <i_epik_Tot_abs_Q>
0

> <r_epik_Metal_State_Penalty>
2.3073

> <b_epik_Metal_Only>
0

> <s_lp_Force_Field>
OPLS_2005

> <r_lp_Energy>
16.1769

> <b_lp_Chiralities_Consistent>
1

> <s_lp_Variant>
AV-unprocessed.smi:3112-16

> <Gold.Version>
5.8.1

> <Gold.Id.Protein>
6NUR|6NUR_protein|mol2

> <Gold.PLP.Fitness>
42.3528

> <Gold.PLP.PLP>
-39.6062

> <Gold.PLP.part.hbond>
-2.9859

> <Gold.PLP.part.metal>
0.0000

> <Gold.PLP.part.buried>
-4.6302

> <Gold.PLP.part.nonpolar>
-30.6612

> <Gold.PLP.part.repulsive>
0.0000

> <Gold.PLP.ligand.clash>
0.0000

> <Gold.PLP.ligand.torsion>
0.4155

> <Gold.PLP.Chemscore.Hbond>
1.1280

> <Gold.PLP.Chemscore.CHOScore>
0.0000

> <Gold.PLP.Chemscore.Metal>
0.0000

> <Gold.Chemscore.Hbonds>
donor molecule, donor type, donor heavy atom, donor atom, acceptor molecule, acceptor atom, score
      L1  H     4    22       P1  8028  1.00
      P1  H  8011  8017       L1     4  0.01

> <Gold.PLP.Chemscore.Internal.Correction>
0.1936

> <Gold.Rescore>
     Score         DG    S(hbond)    S(metal)    S(lipo)     H(rot)  DE(clash)    DE(int)     intcor
     14.15     -15.00       1.24        0.00      96.50       2.31       0.02       0.83       ----

> <Gold.Chemscore.Fitness>
14.1462

> <Gold.Chemscore.DG>
-14.9952

> <Gold.Chemscore.ZeroCoef>
-5.4800

> <Gold.Chemscore.Hbond>
1.2397

> <Gold.Chemscore.Metal>
0.0000

> <Gold.Chemscore.Lipo>
96.4978

> <Gold.Chemscore.Internal_Hbond>
0.0000

> <Gold.Chemscore.DEClash>
0.0231

> <Gold.Chemscore.DEInternal>
0.8258

> <Gold.Chemscore.Rot>
2.3108

> <Gold.Chemscore.Internal.Correction>
   9.000000E+99

> <Gold.Chemscore.Hbonds>
donor molecule, donor type, donor heavy atom, donor atom, acceptor molecule, acceptor atom, score
      L1  H     4    22       P1  8028  0.93

> <Gold.Chemscore.Hbond.Weighted>
-4.1406

> <Gold.Chemscore.Metal.Weighted>
-0.0000

> <Gold.Chemscore.Lipo.Weighted>
-11.2902

> <Gold.Chemscore.Internal_Hbond.Weighted>
0.0000

> <Gold.Chemscore.DEClash.Weighted>
0.0231

> <Gold.Chemscore.DEInternal.Weighted>
0.8258

> <Gold.Chemscore.Rot.Weighted>
5.9157

> <Gold.Chemscore.Internal.Correction.Weighted>
   9.000000E+99

> <Gold.Protein.RotatedTorsions>
[ 6907 6896 6895 6894 ] final  130.32 input  -60.11 | X-H torsion
[ 7974 7965 7964 7962 ] final  140.88 input  175.53 | X-H torsion
[ 8008 7997 7996 7995 ] final  -74.16 input   59.86 | X-H torsion
[ 10167 10162 10161 10158 ] final   74.55 input  -65.29 | X-H torsion
[ 10718 10713 10712 10709 ] final -130.66 input   66.30 | X-H torsion
[ 10763 10752 10751 10750 ] final -144.48 input  -60.55 | X-H torsion
[ 11005 11000 10999 10996 ] final   -7.12 input  -57.11 | X-H torsion

> <Gold.Protein.ActiveResidues>
 VAL166  LYS551  ARG553  GLY616  TRP617  ASP618  TYR619  PRO620  LYS621  CYS622 
 ASP623  PHE694  ASN695  SER759  ASP760  ASP761  ALA762  ILE779  LEU786  VAL792 
 PHE793  MET794  SER795  GLU796  ALA797  LYS798  CYS799  TRP800  GLU811  SER814 

> <Gold.Protein.RotatedAtoms>
  152.3538  133.6212  159.5963 H   0  0  0  0  0  0  0  0  0  0  0  0  # atno 6907 bound_to 6896
  150.7555  133.9532  159.3501 H   0  0  0  0  0  0  0  0  0  0  0  0  # atno 6908 bound_to 6896
  151.7380  135.0861  160.0362 H   0  0  0  0  0  0  0  0  0  0  0  0  # atno 6909 bound_to 6896
  144.9146  139.5247  143.5692 H   0  0  0  0  0  0  0  0  0  0  0  0  # atno 7974 bound_to 7965
  154.5307  140.0766  156.8340 H   0  0  0  0  0  0  0  0  0  0  0  0  # atno 8008 bound_to 7997
  155.3381  140.3405  155.4221 H   0  0  0  0  0  0  0  0  0  0  0  0  # atno 8009 bound_to 7997
  156.1778  140.1642  156.8317 H   0  0  0  0  0  0  0  0  0  0  0  0  # atno 8010 bound_to 7997
  140.0125  144.5603  150.7647 H   0  0  0  0  0  0  0  0  0  0  0  0  # atno 10167 bound_to 10162
  156.2166  130.6952  151.0709 H   0  0  0  0  0  0  0  0  0  0  0  0  # atno 10718 bound_to 10713
  154.8426  135.3439  154.6353 H   0  0  0  0  0  0  0  0  0  0  0  0  # atno 10763 bound_to 10752
  153.6963  135.6972  153.5080 H   0  0  0  0  0  0  0  0  0  0  0  0  # atno 10764 bound_to 10752
  153.2557  135.4339  155.0798 H   0  0  0  0  0  0  0  0  0  0  0  0  # atno 10765 bound_to 10752
  140.7093  133.8922  155.8739 H   0  0  0  0  0  0  0  0  0  0  0  0  # atno 11005 bound_to 11000
  146.3175  139.7979  142.8971 LP  0  0  0  0  0  0  0  0  0  0  0  0  # atno 17320 bound_to 7965
  145.3396  141.0285  143.3400 LP  0  0  0  0  0  0  0  0  0  0  0  0  # atno 17321 bound_to 7965
  140.7375  143.2767  151.3721 LP  0  0  0  0  0  0  0  0  0  0  0  0  # atno 17342 bound_to 10162
  139.6195  144.0935  152.2378 LP  0  0  0  0  0  0  0  0  0  0  0  0  # atno 17343 bound_to 10162
  157.7066  131.0753  150.6645 LP  0  0  0  0  0  0  0  0  0  0  0  0  # atno 17370 bound_to 10713
  156.6706  130.4538  149.5658 LP  0  0  0  0  0  0  0  0  0  0  0  0  # atno 17371 bound_to 10713
  141.0098  134.1036  157.4233 LP  0  0  0  0  0  0  0  0  0  0  0  0  # atno 17394 bound_to 11000
  139.8876  135.0091  156.6568 LP  0  0  0  0  0  0  0  0  0  0  0  0  # atno 17395 bound_to 11000

$$$$
