AV-unprocessed.smi:2028|AV-procd|sdf|8221|dock8
  -GOLD-   2272010493D 1   1.00000     0.00000
 Structure written by MMmdl.
 38 39  0  0  0  0  0  0  0  0  1 V2000
  145.5281  144.7836  161.3041 C   0  0  0  0  0  0  0  0  0  0  0  0
  146.6864  145.3914  160.4939 C   0  0  0  0  0  0  0  0  0  0  0  0
  146.3344  146.8488  160.1293 C   0  0  0  0  0  0  0  0  0  0  0  0
  147.9744  145.3380  161.3428 C   0  0  0  0  0  0  0  0  0  0  0  0
  146.8256  144.5803  159.2793 N   0  0  0  0  0  0  0  0  0  0  0  0
  146.8782  143.2406  159.1668 C   0  0  0  0  0  0  0  0  0  0  0  0
  146.7788  142.4628  160.1152 O   0  0  0  0  0  0  0  0  0  0  0  0
  147.0936  142.6931  157.7553 C   0  0  0  0  0  0  0  0  0  0  0  0
  148.3891  141.9379  157.6932 C   0  0  0  0  0  0  0  0  0  0  0  0
  148.6670  140.8460  156.9077 C   0  0  0  0  0  0  0  0  0  0  0  0
  150.2903  140.2618  157.1511 S   0  0  0  0  0  0  0  0  0  0  0  0
  150.5409  141.5504  158.3327 C   0  0  0  0  0  0  0  0  0  0  0  0
  151.7278  141.7874  159.0874 N   0  0  0  0  0  0  0  0  0  0  0  0
  151.8360  142.9084  160.0162 C   0  0  0  0  0  0  0  0  0  0  0  0
  153.1422  142.6912  160.7879 C   0  0  0  0  0  0  0  0  0  0  0  0
  153.9107  141.6364  159.9940 C   0  0  0  0  0  0  0  0  0  0  0  0
  152.8662  141.0727  159.0451 C   0  0  0  0  0  0  0  0  0  0  0  0
  153.0984  140.0876  158.3460 O   0  0  0  0  0  0  0  0  0  0  0  0
  149.4680  142.3322  158.4929 N   0  0  0  0  0  0  0  0  0  0  0  0
  145.3567  145.3358  162.2288 H   0  0  0  0  0  0  0  0  0  0  0  0
  145.7332  143.7471  161.5754 H   0  0  0  0  0  0  0  0  0  0  0  0
  144.5961  144.7965  160.7375 H   0  0  0  0  0  0  0  0  0  0  0  0
  145.4414  146.8968  159.5046 H   0  0  0  0  0  0  0  0  0  0  0  0
  147.1415  147.3418  159.5872 H   0  0  0  0  0  0  0  0  0  0  0  0
  146.1404  147.4417  161.0237 H   0  0  0  0  0  0  0  0  0  0  0  0
  147.8388  145.8570  162.2922 H   0  0  0  0  0  0  0  0  0  0  0  0
  148.8185  145.8109  160.8409 H   0  0  0  0  0  0  0  0  0  0  0  0
  148.2586  144.3099  161.5697 H   0  0  0  0  0  0  0  0  0  0  0  0
  146.9218  145.1036  158.4211 H   0  0  0  0  0  0  0  0  0  0  0  0
  146.2562  142.0454  157.4931 H   0  0  0  0  0  0  0  0  0  0  0  0
  147.0863  143.5116  157.0337 H   0  0  0  0  0  0  0  0  0  0  0  0
  148.0136  140.3472  156.2074 H   0  0  0  0  0  0  0  0  0  0  0  0
  151.8714  143.8411  159.4509 H   0  0  0  0  0  0  0  0  0  0  0  0
  150.9809  142.9530  160.6925 H   0  0  0  0  0  0  0  0  0  0  0  0
  153.7078  143.6174  160.8953 H   0  0  0  0  0  0  0  0  0  0  0  0
  152.9287  142.3177  161.7904 H   0  0  0  0  0  0  0  0  0  0  0  0
  154.7193  142.0847  159.4157 H   0  0  0  0  0  0  0  0  0  0  0  0
  154.3277  140.8599  160.6361 H   0  0  0  0  0  0  0  0  0  0  0  0
  1  2  1  0  0  0  0
  1 20  1  0  0  0  0
  1 21  1  0  0  0  0
  1 22  1  0  0  0  0
  2  3  1  0  0  0  0
  2  4  1  0  0  0  0
  2  5  1  0  0  0  0
  3 23  1  0  0  0  0
  3 24  1  0  0  0  0
  3 25  1  0  0  0  0
  4 26  1  0  0  0  0
  4 27  1  0  0  0  0
  4 28  1  0  0  0  0
  5  6  1  0  0  0  0
  5 29  1  0  0  0  0
  6  7  2  0  0  0  0
  6  8  1  0  0  0  0
  8  9  1  0  0  0  0
  8 30  1  0  0  0  0
  8 31  1  0  0  0  0
  9 19  1  0  0  0  0
  9 10  2  0  0  0  0
 10 11  1  0  0  0  0
 10 32  1  0  0  0  0
 11 12  1  0  0  0  0
 12 13  1  0  0  0  0
 12 19  2  0  0  0  0
 13 17  1  0  0  0  0
 13 14  1  0  0  0  0
 14 15  1  0  0  0  0
 14 33  1  0  0  0  0
 14 34  1  0  0  0  0
 15 16  1  0  0  0  0
 15 35  1  0  0  0  0
 15 36  1  0  0  0  0
 16 17  1  0  0  0  0
 16 37  1  0  0  0  0
 16 38  1  0  0  0  0
 17 18  2  0  0  0  0
M  END
> <s_m_source_file>
AV-unprocessed.smi

> <i_m_source_file_index>
2028

> <i_lp_mmshare_version>
43012

> <i_f3d_flags>
0

> <s_epik_input>
W0NIM11DKFtDSDNdKShbQ0gzXSlbTkhdQyg9TylbQ0gyXWMxW2NIXXNjKG4xKU4yW0NIMl1bQ0gyXVtDSDJdQzI9Tw==

> <s_epik_cmdline>
J2VwaWtfcHl0aG9uJywgJy1waCcsICc3LjAnLCAnLXRuJywgJzgnLCAnLW1hJywgJzIwMCcsICctbWV0YWxfYmluZGluZycsICctaW1hZScsICc8aW5maWxlLm1hZT4nLCAnLW9tYWUnLCAnPG91dGZpbGUubWFlPic=

> <r_lp_tautomer_probability>
1

> <r_epik_Ionization_Penalty>
2.98188e-05

> <r_epik_Ionization_Penalty_Charging>
0

> <r_epik_Ionization_Penalty_Neutral>
2.98188e-05

> <r_epik_State_Penalty>
-0

> <r_epik_Charging_Adjusted_Penalty>
0

> <i_epik_Tot_Q>
0

> <i_epik_Tot_abs_Q>
0

> <r_epik_Metal_State_Penalty>
-0

> <b_epik_Metal_Only>
0

> <s_lp_Force_Field>
OPLS_2005

> <r_lp_Energy>
17.4642

> <b_lp_Chiralities_Consistent>
1

> <s_lp_Variant>
AV-unprocessed.smi:2028-1

> <Gold.Version>
5.8.1

> <Gold.Id.Protein>
6NUR|6NUR_protein|mol2

> <Gold.PLP.Fitness>
44.6346

> <Gold.PLP.PLP>
-35.2437

> <Gold.PLP.part.hbond>
-4.0000

> <Gold.PLP.part.metal>
0.0000

> <Gold.PLP.part.buried>
-3.5542

> <Gold.PLP.part.nonpolar>
-27.7937

> <Gold.PLP.part.repulsive>
0.1801

> <Gold.PLP.ligand.clash>
0.0000

> <Gold.PLP.ligand.torsion>
0.5718

> <Gold.PLP.Chemscore.Hbond>
3.5063

> <Gold.PLP.Chemscore.CHOScore>
0.0000

> <Gold.PLP.Chemscore.Metal>
0.0000

> <Gold.Chemscore.Hbonds>
donor molecule, donor type, donor heavy atom, donor atom, acceptor molecule, acceptor atom, score
      L1  H     5    29       P1  8029  1.00
      P1  H  6933  6944       L1     7  0.46
      P1  H  6934  6946       L1     7  1.00
      P1  H  7997  8009       L1    18  1.00

> <Gold.PLP.Chemscore.Internal.Correction>
0.0156

> <Gold.Rescore>
     Score         DG    S(hbond)    S(metal)    S(lipo)     H(rot)  DE(clash)    DE(int)     intcor
     18.61     -21.34       3.50        0.00      67.08       1.44       0.17       2.57       ----

> <Gold.Chemscore.Fitness>
18.6078

> <Gold.Chemscore.DG>
-21.3399

> <Gold.Chemscore.ZeroCoef>
-5.4800

> <Gold.Chemscore.Hbond>
3.5001

> <Gold.Chemscore.Metal>
0.0000

> <Gold.Chemscore.Lipo>
67.0788

> <Gold.Chemscore.Internal_Hbond>
0.0000

> <Gold.Chemscore.DEClash>
0.1650

> <Gold.Chemscore.DEInternal>
2.5670

> <Gold.Chemscore.Rot>
1.4371

> <Gold.Chemscore.Internal.Correction>
   9.000000E+99

> <Gold.Chemscore.Hbonds>
donor molecule, donor type, donor heavy atom, donor atom, acceptor molecule, acceptor atom, score
      L1  H     5    29       P1  8029  0.96
      P1  H  6933  6944       L1     7  0.42
      P1  H  6934  6946       L1     7  0.95
      P1  H  7997  8009       L1    18  0.91

> <Gold.Chemscore.Hbond.Weighted>
-11.6905

> <Gold.Chemscore.Metal.Weighted>
-0.0000

> <Gold.Chemscore.Lipo.Weighted>
-7.8482

> <Gold.Chemscore.Internal_Hbond.Weighted>
0.0000

> <Gold.Chemscore.DEClash.Weighted>
0.1650

> <Gold.Chemscore.DEInternal.Weighted>
2.5670

> <Gold.Chemscore.Rot.Weighted>
3.6789

> <Gold.Chemscore.Internal.Correction.Weighted>
   9.000000E+99

> <Gold.Protein.RotatedTorsions>
[ 6907 6896 6895 6894 ] final   80.54 input  -60.11 | X-H torsion
[ 7974 7965 7964 7962 ] final -162.08 input  175.53 | X-H torsion
[ 8008 7997 7996 7995 ] final  151.32 input   59.86 | X-H torsion
[ 10167 10162 10161 10158 ] final   70.25 input  -65.29 | X-H torsion
[ 10718 10713 10712 10709 ] final -130.40 input   66.30 | X-H torsion
[ 10763 10752 10751 10750 ] final   94.27 input  -60.55 | X-H torsion
[ 11005 11000 10999 10996 ] final -169.82 input  -57.11 | X-H torsion

> <Gold.Protein.ActiveResidues>
 VAL166  LYS551  ARG553  GLY616  TRP617  ASP618  TYR619  PRO620  LYS621  CYS622 
 ASP623  PHE694  ASN695  SER759  ASP760  ASP761  ALA762  ILE779  LEU786  VAL792 
 PHE793  MET794  SER795  GLU796  ALA797  LYS798  CYS799  TRP800  GLU811  SER814 

> <Gold.Protein.RotatedAtoms>
  152.5238  134.3342  159.9193 H   0  0  0  0  0  0  0  0  0  0  0  0  # atno 6907 bound_to 6896
  151.3291  133.4001  159.2668 H   0  0  0  0  0  0  0  0  0  0  0  0  # atno 6908 bound_to 6896
  150.9895  134.9251  159.7949 H   0  0  0  0  0  0  0  0  0  0  0  0  # atno 6909 bound_to 6896
  144.7369  140.3304  143.6154 H   0  0  0  0  0  0  0  0  0  0  0  0  # atno 7974 bound_to 7965
  156.2678  140.2051  156.6158 H   0  0  0  0  0  0  0  0  0  0  0  0  # atno 8008 bound_to 7997
  154.6796  140.0541  157.0276 H   0  0  0  0  0  0  0  0  0  0  0  0  # atno 8009 bound_to 7997
  155.1020  140.3207  155.4547 H   0  0  0  0  0  0  0  0  0  0  0  0  # atno 8010 bound_to 7997
  140.0590  144.5248  150.7308 H   0  0  0  0  0  0  0  0  0  0  0  0  # atno 10167 bound_to 10162
  156.2141  130.6937  151.0683 H   0  0  0  0  0  0  0  0  0  0  0  0  # atno 10718 bound_to 10713
  153.2397  135.4295  155.0685 H   0  0  0  0  0  0  0  0  0  0  0  0  # atno 10763 bound_to 10752
  154.8335  135.3399  154.6667 H   0  0  0  0  0  0  0  0  0  0  0  0  # atno 10764 bound_to 10752
  153.7091  135.7024  153.5099 H   0  0  0  0  0  0  0  0  0  0  0  0  # atno 10765 bound_to 10752
  140.5265  134.5658  157.5063 H   0  0  0  0  0  0  0  0  0  0  0  0  # atno 11005 bound_to 11000
  145.7477  139.1784  143.2339 LP  0  0  0  0  0  0  0  0  0  0  0  0  # atno 17320 bound_to 7965
  146.1085  140.7457  142.9515 LP  0  0  0  0  0  0  0  0  0  0  0  0  # atno 17321 bound_to 7965
  140.7181  143.2563  151.4369 LP  0  0  0  0  0  0  0  0  0  0  0  0  # atno 17342 bound_to 10162
  139.5905  144.1509  152.2083 LP  0  0  0  0  0  0  0  0  0  0  0  0  # atno 17343 bound_to 10162
  157.7054  131.0758  150.6684 LP  0  0  0  0  0  0  0  0  0  0  0  0  # atno 17370 bound_to 10713
  156.6745  130.4549  149.5647 LP  0  0  0  0  0  0  0  0  0  0  0  0  # atno 17371 bound_to 10713
  139.9577  134.7506  156.0304 LP  0  0  0  0  0  0  0  0  0  0  0  0  # atno 17394 bound_to 11000
  141.1305  133.6587  156.3452 LP  0  0  0  0  0  0  0  0  0  0  0  0  # atno 17395 bound_to 11000

$$$$
