AV-unprocessed.smi:2941|AV-procd|sdf|11264|dock5
  -GOLD-   2272016153D 1   1.00000     0.00000
 Structure written by MMmdl.
 36 37  0  0  0  0  0  0  0  0  1 V2000
  146.4418  138.5652  151.3956 C   0  0  0  0  0  0  0  0  0  0  0  0
  146.7523  139.8507  151.9037 O   0  0  0  0  0  0  0  0  0  0  0  0
  147.0439  139.8316  153.2906 C   0  0  0  0  0  0  0  0  0  0  0  0
  147.6054  141.2026  153.6961 C   0  0  0  0  0  0  0  0  0  0  0  0
  148.0028  141.2259  155.1103 N   0  0  0  0  0  0  0  0  0  0  0  0
  149.3832  141.1722  155.3846 C   0  0  0  0  0  0  0  0  0  0  0  0
  149.8660  141.1993  156.6409 C   0  0  0  0  0  0  0  0  0  0  0  0
  151.3269  141.1446  156.8874 C   0  0  0  0  0  0  0  0  0  0  0  0
  152.0726  140.5077  156.1420 O   0  0  0  0  0  0  0  0  0  0  0  0
  151.8789  141.8626  158.0736 C   0  0  0  0  0  0  0  0  0  0  0  0
  152.6474  141.1175  158.9967 C   0  0  0  0  0  0  0  0  0  0  0  0
  153.1900  141.7312  160.1414 C   0  0  0  0  0  0  0  0  0  0  0  0
  153.9179  141.0020  161.0197 F   0  0  0  0  0  0  0  0  0  0  0  0
  152.9750  143.1014  160.3733 C   0  0  0  0  0  0  0  0  0  0  0  0
  152.2240  143.8582  159.4553 C   0  0  0  0  0  0  0  0  0  0  0  0
  151.6788  143.2511  158.3055 C   0  0  0  0  0  0  0  0  0  0  0  0
  150.9915  144.0411  157.4261 O   0  0  0  0  0  0  0  0  0  0  0  0
  148.9102  141.2680  157.7288 C   0  0  0  0  0  0  0  0  0  0  0  0
  147.5877  141.3102  157.4729 C   0  0  0  0  0  0  0  0  0  0  0  0
  146.6312  141.3779  158.5276 C   0  0  0  0  0  0  0  0  0  0  0  0
  145.8743  141.4313  159.4015 N   0  0  0  0  0  0  0  0  0  0  0  0
  147.0616  141.2869  156.1008 C   0  0  0  0  0  0  0  0  0  0  0  0
  145.8554  141.3167  155.8509 O   0  0  0  0  0  0  0  0  0  0  0  0
  146.2368  138.6333  150.3272 H   0  0  0  0  0  0  0  0  0  0  0  0
  145.5569  138.1527  151.8817 H   0  0  0  0  0  0  0  0  0  0  0  0
  147.2734  137.8733  151.5353 H   0  0  0  0  0  0  0  0  0  0  0  0
  146.1389  139.6082  153.8578 H   0  0  0  0  0  0  0  0  0  0  0  0
  147.7717  139.0479  153.5073 H   0  0  0  0  0  0  0  0  0  0  0  0
  148.4583  141.4480  153.0617 H   0  0  0  0  0  0  0  0  0  0  0  0
  146.8688  141.9812  153.4907 H   0  0  0  0  0  0  0  0  0  0  0  0
  150.0141  141.1130  154.5086 H   0  0  0  0  0  0  0  0  0  0  0  0
  152.8191  140.0623  158.8377 H   0  0  0  0  0  0  0  0  0  0  0  0
  153.3910  143.5736  161.2512 H   0  0  0  0  0  0  0  0  0  0  0  0
  152.0747  144.9133  159.6334 H   0  0  0  0  0  0  0  0  0  0  0  0
  150.8963  144.9330  157.7242 H   0  0  0  0  0  0  0  0  0  0  0  0
  149.2485  141.2803  158.7550 H   0  0  0  0  0  0  0  0  0  0  0  0
  1  2  1  0  0  0  0
  1 24  1  0  0  0  0
  1 25  1  0  0  0  0
  1 26  1  0  0  0  0
  2  3  1  0  0  0  0
  3  4  1  0  0  0  0
  3 27  1  0  0  0  0
  3 28  1  0  0  0  0
  4  5  1  0  0  0  0
  4 29  1  0  0  0  0
  4 30  1  0  0  0  0
  5 22  1  0  0  0  0
  5  6  1  0  0  0  0
  6  7  2  0  0  0  0
  6 31  1  0  0  0  0
  7  8  1  0  0  0  0
  7 18  1  0  0  0  0
  8  9  2  0  0  0  0
  8 10  1  0  0  0  0
 10 16  1  0  0  0  0
 10 11  2  0  0  0  0
 11 12  1  0  0  0  0
 11 32  1  0  0  0  0
 12 13  1  0  0  0  0
 12 14  2  0  0  0  0
 14 15  1  0  0  0  0
 14 33  1  0  0  0  0
 15 16  2  0  0  0  0
 15 34  1  0  0  0  0
 16 17  1  0  0  0  0
 17 35  1  0  0  0  0
 18 19  2  0  0  0  0
 18 36  1  0  0  0  0
 19 20  1  0  0  0  0
 19 22  1  0  0  0  0
 20 21  3  0  0  0  0
 22 23  2  0  0  0  0
M  END
> <s_m_source_file>
AV-unprocessed.smi

> <i_m_source_file_index>
2941

> <i_lp_mmshare_version>
43012

> <i_f3d_flags>
0

> <s_epik_input>
W0NIM11PW0NIMl1bQ0gyXW4xW2NIXWMoW2NIXWMoQyNOKWMxPU8pQyg9TyljMltjSF1jKEYpW2NIXVtjSF1jMltPSF0=

> <s_epik_cmdline>
J2VwaWtfcHl0aG9uJywgJy1waCcsICc3LjAnLCAnLXRuJywgJzgnLCAnLW1hJywgJzIwMCcsICctbWV0YWxfYmluZGluZycsICctaW1hZScsICc8aW5maWxlLm1hZT4nLCAnLW9tYWUnLCAnPG91dGZpbGUubWFlPic=

> <r_epik_Ionization_Penalty>
0.27579

> <r_epik_Ionization_Penalty_Charging>
5.62591e-11

> <r_epik_Ionization_Penalty_Neutral>
0.27579

> <r_epik_State_Penalty>
0.26814

> <r_epik_Charging_Adjusted_Penalty>
0.26814

> <i_epik_Tot_Q>
0

> <i_epik_Tot_abs_Q>
0

> <r_epik_Metal_State_Penalty>
0.26814

> <b_epik_Metal_Only>
0

> <s_lp_Force_Field>
OPLS_2005

> <r_lp_Energy>
22.041

> <b_lp_Chiralities_Consistent>
1

> <s_lp_Variant>
AV-unprocessed.smi:2941-1

> <Gold.Version>
5.8.1

> <Gold.Id.Protein>
6NUR|6NUR_protein|mol2

> <Gold.PLP.Fitness>
45.7485

> <Gold.PLP.PLP>
-43.0355

> <Gold.PLP.part.hbond>
-2.6141

> <Gold.PLP.part.metal>
0.0000

> <Gold.PLP.part.buried>
-3.9986

> <Gold.PLP.part.nonpolar>
-38.4465

> <Gold.PLP.part.repulsive>
2.2958

> <Gold.PLP.ligand.clash>
0.0000

> <Gold.PLP.ligand.torsion>
1.6753

> <Gold.PLP.Chemscore.Hbond>
1.4463

> <Gold.PLP.Chemscore.CHOScore>
0.0000

> <Gold.PLP.Chemscore.Metal>
0.0000

> <Gold.Chemscore.Hbonds>
donor molecule, donor type, donor heavy atom, donor atom, acceptor molecule, acceptor atom, score
      P1  H  6934  6946       L1    21  0.87
      P1  H  7997  8009       L1     9  0.35

> <Gold.PLP.Chemscore.Internal.Correction>
1.7248

> <Gold.Rescore>
     Score         DG    S(hbond)    S(metal)    S(lipo)     H(rot)  DE(clash)    DE(int)     intcor
     13.48     -15.48       0.97        0.00     102.40       2.04       0.47       1.53       ----

> <Gold.Chemscore.Fitness>
13.4840

> <Gold.Chemscore.DG>
-15.4824

> <Gold.Chemscore.ZeroCoef>
-5.4800

> <Gold.Chemscore.Hbond>
0.9676

> <Gold.Chemscore.Metal>
0.0000

> <Gold.Chemscore.Lipo>
102.3970

> <Gold.Chemscore.Internal_Hbond>
0.0000

> <Gold.Chemscore.DEClash>
0.4701

> <Gold.Chemscore.DEInternal>
1.5283

> <Gold.Chemscore.Rot>
2.0351

> <Gold.Chemscore.Internal.Correction>
   9.000000E+99

> <Gold.Chemscore.Hbonds>
donor molecule, donor type, donor heavy atom, donor atom, acceptor molecule, acceptor atom, score
      P1  H  6934  6946       L1    21  0.19
      P1  H  7997  8009       L1     9  0.33

> <Gold.Chemscore.Hbond.Weighted>
-3.2319

> <Gold.Chemscore.Metal.Weighted>
-0.0000

> <Gold.Chemscore.Lipo.Weighted>
-11.9805

> <Gold.Chemscore.Internal_Hbond.Weighted>
0.0000

> <Gold.Chemscore.DEClash.Weighted>
0.4701

> <Gold.Chemscore.DEInternal.Weighted>
1.5283

> <Gold.Chemscore.Rot.Weighted>
5.2099

> <Gold.Chemscore.Internal.Correction.Weighted>
   9.000000E+99

> <Gold.Protein.RotatedTorsions>
[ 6907 6896 6895 6894 ] final  -10.01 input  -60.11 | X-H torsion
[ 7974 7965 7964 7962 ] final  -29.34 input  175.53 | X-H torsion
[ 8008 7997 7996 7995 ] final -160.72 input   59.86 | X-H torsion
[ 10167 10162 10161 10158 ] final   76.63 input  -65.29 | X-H torsion
[ 10718 10713 10712 10709 ] final -103.51 input   66.30 | X-H torsion
[ 10763 10752 10751 10750 ] final   26.10 input  -60.55 | X-H torsion
[ 11005 11000 10999 10996 ] final  -66.21 input  -57.11 | X-H torsion

> <Gold.Protein.ActiveResidues>
 VAL166  LYS551  ARG553  GLY616  TRP617  ASP618  TYR619  PRO620  LYS621  CYS622 
 ASP623  PHE694  ASN695  SER759  ASP760  ASP761  ALA762  ILE779  LEU786  VAL792 
 PHE793  MET794  SER795  GLU796  ALA797  LYS798  CYS799  TRP800  GLU811  SER814 

> <Gold.Protein.RotatedAtoms>
  151.4087  135.0982  159.9578 H   0  0  0  0  0  0  0  0  0  0  0  0  # atno 6907 bound_to 6896
  152.5027  133.8818  159.7360 H   0  0  0  0  0  0  0  0  0  0  0  0  # atno 6908 bound_to 6896
  150.9308  133.6712  159.2839 H   0  0  0  0  0  0  0  0  0  0  0  0  # atno 6909 bound_to 6896
  146.1224  140.5399  142.8729 H   0  0  0  0  0  0  0  0  0  0  0  0  # atno 7974 bound_to 7965
  155.7817  140.0866  157.2056 H   0  0  0  0  0  0  0  0  0  0  0  0  # atno 8008 bound_to 7997
  154.3990  140.1506  156.3117 H   0  0  0  0  0  0  0  0  0  0  0  0  # atno 8009 bound_to 7997
  155.8647  140.3428  155.5783 H   0  0  0  0  0  0  0  0  0  0  0  0  # atno 8010 bound_to 7997
  139.9902  144.5763  150.7825 H   0  0  0  0  0  0  0  0  0  0  0  0  # atno 10167 bound_to 10162
  156.0268  130.5471  150.7263 H   0  0  0  0  0  0  0  0  0  0  0  0  # atno 10718 bound_to 10713
  153.0646  135.6568  154.0385 H   0  0  0  0  0  0  0  0  0  0  0  0  # atno 10763 bound_to 10752
  154.0044  135.2934  155.3400 H   0  0  0  0  0  0  0  0  0  0  0  0  # atno 10764 bound_to 10752
  154.6998  135.5249  153.8579 H   0  0  0  0  0  0  0  0  0  0  0  0  # atno 10765 bound_to 10752
  141.1476  133.6695  156.6105 H   0  0  0  0  0  0  0  0  0  0  0  0  # atno 11005 bound_to 11000
  144.7609  140.5420  143.6736 LP  0  0  0  0  0  0  0  0  0  0  0  0  # atno 17320 bound_to 7965
  145.5438  139.1475  143.3432 LP  0  0  0  0  0  0  0  0  0  0  0  0  # atno 17321 bound_to 7965
  140.7457  143.2880  151.3409 LP  0  0  0  0  0  0  0  0  0  0  0  0  # atno 17342 bound_to 10162
  139.6346  144.0656  152.2505 LP  0  0  0  0  0  0  0  0  0  0  0  0  # atno 17343 bound_to 10162
  157.4867  131.0907  151.0475 LP  0  0  0  0  0  0  0  0  0  0  0  0  # atno 17370 bound_to 10713
  157.0893  130.5935  149.5436 LP  0  0  0  0  0  0  0  0  0  0  0  0  # atno 17371 bound_to 10713
  140.3618  134.7681  157.4539 LP  0  0  0  0  0  0  0  0  0  0  0  0  # atno 17394 bound_to 11000
  140.0779  134.5772  155.8572 LP  0  0  0  0  0  0  0  0  0  0  0  0  # atno 17395 bound_to 11000

$$$$
