AV-unprocessed.smi:1200|AV-procd|sdf|5022|dock1
  -GOLD-   22720 4 43D 1   1.00000     0.00000
 Structure written by MMmdl.
 42 43  0  0  0  0  0  0  0  0  1 V2000
  142.8028  136.6993  152.9006 C   0  0  0  0  0  0  0  0  0  0  0  0
  143.9174  137.5045  152.4264 N   0  0  0  0  0  0  0  0  0  0  0  0
  145.1569  137.4531  152.9354 C   0  0  0  0  0  0  0  0  0  0  0  0
  145.4755  136.7167  153.8684 O   0  0  0  0  0  0  0  0  0  0  0  0
  146.1992  138.3793  152.2977 C   0  0  0  0  0  0  0  0  0  0  0  0
  146.8150  139.3557  153.2270 N   0  0  0  0  0  0  0  0  0  0  0  0
  147.1203  140.6388  152.5761 C   0  0  0  0  0  0  0  0  0  0  0  0
  147.6936  141.6396  153.5952 C   0  0  0  0  0  0  0  0  0  0  0  0
  148.9536  141.0845  154.2740 C   0  0  0  0  0  0  0  0  0  0  0  0
  149.3956  141.9909  155.3312 N   0  0  0  0  0  0  0  0  0  0  0  0
  150.3017  141.7095  156.2789 C   0  0  0  0  0  0  0  0  0  0  0  0
  150.8682  140.6218  156.3804 O   0  0  0  0  0  0  0  0  0  0  0  0
  150.4855  142.7597  157.0979 N   0  0  0  0  0  0  0  0  0  0  0  0
  151.3616  142.8726  158.2117 C   0  0  0  0  0  0  0  0  0  0  0  0
  151.5412  144.1490  158.7839 C   0  0  0  0  0  0  0  0  0  0  0  0
  152.4148  144.2947  159.8782 C   0  0  0  0  0  0  0  0  0  0  0  0
  153.0875  143.1528  160.3542 C   0  0  0  0  0  0  0  0  0  0  0  0
  152.9403  141.9270  159.8093 N   0  0  0  0  0  0  0  0  0  0  0  0
  152.0984  141.7938  158.7616 C   0  0  0  0  0  0  0  0  0  0  0  0
  148.6382  139.7021  154.8619 C   0  0  0  0  0  0  0  0  0  0  0  0
  148.0349  138.7721  153.7949 C   0  0  0  0  0  0  0  0  0  0  0  0
  141.9136  136.9093  152.3065 H   0  0  0  0  0  0  0  0  0  0  0  0
  142.5774  136.9250  153.9437 H   0  0  0  0  0  0  0  0  0  0  0  0
  143.0271  135.6353  152.8141 H   0  0  0  0  0  0  0  0  0  0  0  0
  143.7406  138.1365  151.6588 H   0  0  0  0  0  0  0  0  0  0  0  0
  146.9767  137.7445  151.8701 H   0  0  0  0  0  0  0  0  0  0  0  0
  145.7386  138.9085  151.4612 H   0  0  0  0  0  0  0  0  0  0  0  0
  147.8245  140.4869  151.7561 H   0  0  0  0  0  0  0  0  0  0  0  0
  146.2230  141.0793  152.1415 H   0  0  0  0  0  0  0  0  0  0  0  0
  147.9235  142.5820  153.0967 H   0  0  0  0  0  0  0  0  0  0  0  0
  146.9336  141.8644  154.3452 H   0  0  0  0  0  0  0  0  0  0  0  0
  149.7296  140.9658  153.5156 H   0  0  0  0  0  0  0  0  0  0  0  0
  148.9797  142.9106  155.3366 H   0  0  0  0  0  0  0  0  0  0  0  0
  149.8897  143.5582  156.9348 H   0  0  0  0  0  0  0  0  0  0  0  0
  151.0135  145.0073  158.3939 H   0  0  0  0  0  0  0  0  0  0  0  0
  152.5669  145.2585  160.3410 H   0  0  0  0  0  0  0  0  0  0  0  0
  153.7661  143.2271  161.1912 H   0  0  0  0  0  0  0  0  0  0  0  0
  152.0437  140.7963  158.3552 H   0  0  0  0  0  0  0  0  0  0  0  0
  149.5454  139.2549  155.2698 H   0  0  0  0  0  0  0  0  0  0  0  0
  147.9393  139.7986  155.6945 H   0  0  0  0  0  0  0  0  0  0  0  0
  147.8035  137.8119  154.2579 H   0  0  0  0  0  0  0  0  0  0  0  0
  148.7656  138.5767  153.0076 H   0  0  0  0  0  0  0  0  0  0  0  0
  1  2  1  0  0  0  0
  1 22  1  0  0  0  0
  1 23  1  0  0  0  0
  1 24  1  0  0  0  0
  2  3  1  0  0  0  0
  2 25  1  0  0  0  0
  3  4  2  0  0  0  0
  3  5  1  0  0  0  0
  5  6  1  0  0  0  0
  5 26  1  0  0  0  0
  5 27  1  0  0  0  0
  6 21  1  0  0  0  0
  6  7  1  0  0  0  0
  7  8  1  0  0  0  0
  7 28  1  0  0  0  0
  7 29  1  0  0  0  0
  8  9  1  0  0  0  0
  8 30  1  0  0  0  0
  8 31  1  0  0  0  0
  9 10  1  0  0  0  0
  9 20  1  0  0  0  0
  9 32  1  0  0  0  0
 10 11  1  0  0  0  0
 10 33  1  0  0  0  0
 11 12  2  0  0  0  0
 11 13  1  0  0  0  0
 13 14  1  0  0  0  0
 13 34  1  0  0  0  0
 14 19  1  0  0  0  0
 14 15  2  0  0  0  0
 15 16  1  0  0  0  0
 15 35  1  0  0  0  0
 16 17  2  0  0  0  0
 16 36  1  0  0  0  0
 17 18  1  0  0  0  0
 17 37  1  0  0  0  0
 18 19  2  0  0  0  0
 19 38  1  0  0  0  0
 20 21  1  0  0  0  0
 20 39  1  0  0  0  0
 20 40  1  0  0  0  0
 21 41  1  0  0  0  0
 21 42  1  0  0  0  0
M  END
> <s_m_source_file>
AV-unprocessed.smi

> <i_m_source_file_index>
1200

> <i_lp_mmshare_version>
43012

> <i_f3d_flags>
0

> <s_epik_input>
W0NIM11bTkhdQyg9TylbQ0gyXU4xW0NIMl1bQ0gyXVtDSF0oW0NIMl1bQ0gyXTEpW05IXUMoPU8pW05IXWMyW2NIXVtjSF1bY0hdbltjSF0y

> <s_epik_cmdline>
J2VwaWtfcHl0aG9uJywgJy1waCcsICc3LjAnLCAnLXRuJywgJzgnLCAnLW1hJywgJzIwMCcsICctbWV0YWxfYmluZGluZycsICctaW1hZScsICc8aW5maWxlLm1hZT4nLCAnLW9tYWUnLCAnPG91dGZpbGUubWFlPic=

> <r_epik_Ionization_Penalty>
0.169655

> <r_epik_Ionization_Penalty_Charging>
0

> <r_epik_Ionization_Penalty_Neutral>
0.169655

> <r_epik_State_Penalty>
0.162809

> <r_epik_Charging_Adjusted_Penalty>
0.162809

> <i_epik_Tot_Q>
0

> <i_epik_Tot_abs_Q>
0

> <r_epik_Metal_State_Penalty>
0.163912

> <b_epik_Metal_Only>
0

> <s_lp_Force_Field>
OPLS_2005

> <r_lp_Energy>
16.8115

> <b_lp_Chiralities_Consistent>
1

> <s_lp_Variant>
AV-unprocessed.smi:1200-1

> <Gold.Version>
5.8.1

> <Gold.Id.Protein>
6NUR|6NUR_protein|mol2

> <Gold.PLP.Fitness>
46.8235

> <Gold.PLP.PLP>
-39.0247

> <Gold.PLP.part.hbond>
-4.0000

> <Gold.PLP.part.metal>
0.0000

> <Gold.PLP.part.buried>
-5.5399

> <Gold.PLP.part.nonpolar>
-30.3942

> <Gold.PLP.part.repulsive>
0.5699

> <Gold.PLP.ligand.clash>
0.0000

> <Gold.PLP.ligand.torsion>
0.6115

> <Gold.PLP.Chemscore.Hbond>
3.0000

> <Gold.PLP.Chemscore.CHOScore>
0.0000

> <Gold.PLP.Chemscore.Metal>
0.0000

> <Gold.Chemscore.Hbonds>
donor molecule, donor type, donor heavy atom, donor atom, acceptor molecule, acceptor atom, score
      L1  H     2    25       P1 10171  1.00
      L1  H    10    33       P1  8028  1.00
      L1  H    13    34       P1  8028  1.00

> <Gold.PLP.Chemscore.Internal.Correction>
0.0219

> <Gold.Rescore>
     Score         DG    S(hbond)    S(metal)    S(lipo)     H(rot)  DE(clash)    DE(int)     intcor
     18.47     -23.20       2.85        0.00     106.41       1.66       1.95       2.77       ----

> <Gold.Chemscore.Fitness>
18.4741

> <Gold.Chemscore.DG>
-23.2011

> <Gold.Chemscore.ZeroCoef>
-5.4800

> <Gold.Chemscore.Hbond>
2.8522

> <Gold.Chemscore.Metal>
0.0000

> <Gold.Chemscore.Lipo>
106.4117

> <Gold.Chemscore.Internal_Hbond>
0.0000

> <Gold.Chemscore.DEClash>
1.9538

> <Gold.Chemscore.DEInternal>
2.7732

> <Gold.Chemscore.Rot>
1.6623

> <Gold.Chemscore.Internal.Correction>
   9.000000E+99

> <Gold.Chemscore.Hbonds>
donor molecule, donor type, donor heavy atom, donor atom, acceptor molecule, acceptor atom, score
      L1  H     2    25       P1 10171  0.93
      L1  H    10    33       P1  8028  0.99
      L1  H    13    34       P1  8028  0.91

> <Gold.Chemscore.Hbond.Weighted>
-9.5263

> <Gold.Chemscore.Metal.Weighted>
-0.0000

> <Gold.Chemscore.Lipo.Weighted>
-12.4502

> <Gold.Chemscore.Internal_Hbond.Weighted>
0.0000

> <Gold.Chemscore.DEClash.Weighted>
1.9538

> <Gold.Chemscore.DEInternal.Weighted>
2.7732

> <Gold.Chemscore.Rot.Weighted>
4.2554

> <Gold.Chemscore.Internal.Correction.Weighted>
   9.000000E+99

> <Gold.Protein.RotatedTorsions>
[ 6907 6896 6895 6894 ] final   10.66 input  -60.11 | X-H torsion
[ 7974 7965 7964 7962 ] final  149.32 input  175.53 | X-H torsion
[ 8008 7997 7996 7995 ] final  102.25 input   59.86 | X-H torsion
[ 10167 10162 10161 10158 ] final  -26.49 input  -65.29 | X-H torsion
[ 10718 10713 10712 10709 ] final  158.90 input   66.30 | X-H torsion
[ 10763 10752 10751 10750 ] final   -6.36 input  -60.55 | X-H torsion
[ 11005 11000 10999 10996 ] final   73.15 input  -57.11 | X-H torsion

> <Gold.Protein.ActiveResidues>
 VAL166  LYS551  ARG553  GLY616  TRP617  ASP618  TYR619  PRO620  LYS621  CYS622 
 ASP623  PHE694  ASN695  SER759  ASP760  ASP761  ALA762  ILE779  LEU786  VAL792 
 PHE793  MET794  SER795  GLU796  ALA797  LYS798  CYS799  TRP800  GLU811  SER814 

> <Gold.Protein.RotatedAtoms>
  151.7419  135.0852  160.0316 H   0  0  0  0  0  0  0  0  0  0  0  0  # atno 6907 bound_to 6896
  152.3474  133.6134  159.5928 H   0  0  0  0  0  0  0  0  0  0  0  0  # atno 6908 bound_to 6896
  150.7517  133.9544  159.3537 H   0  0  0  0  0  0  0  0  0  0  0  0  # atno 6909 bound_to 6896
  144.8447  139.6265  143.6001 H   0  0  0  0  0  0  0  0  0  0  0  0  # atno 7974 bound_to 7965
  156.1375  140.3184  155.8444 H   0  0  0  0  0  0  0  0  0  0  0  0  # atno 8008 bound_to 7997
  155.4217  140.0512  157.3042 H   0  0  0  0  0  0  0  0  0  0  0  0  # atno 8009 bound_to 7997
  154.4949  140.2107  155.9481 H   0  0  0  0  0  0  0  0  0  0  0  0  # atno 8010 bound_to 7997
  140.7282  143.4174  151.1006 H   0  0  0  0  0  0  0  0  0  0  0  0  # atno 10167 bound_to 10162
  157.1716  131.0611  151.2179 H   0  0  0  0  0  0  0  0  0  0  0  0  # atno 10718 bound_to 10713
  153.4113  135.7007  153.6357 H   0  0  0  0  0  0  0  0  0  0  0  0  # atno 10763 bound_to 10752
  153.4850  135.3685  155.2462 H   0  0  0  0  0  0  0  0  0  0  0  0  # atno 10764 bound_to 10752
  154.8717  135.4075  154.3465 H   0  0  0  0  0  0  0  0  0  0  0  0  # atno 10765 bound_to 10752
  139.9455  134.7322  156.0991 H   0  0  0  0  0  0  0  0  0  0  0  0  # atno 11005 bound_to 11000
  146.2734  139.6691  142.9280 LP  0  0  0  0  0  0  0  0  0  0  0  0  # atno 17320 bound_to 7965
  145.4621  141.0433  143.2745 LP  0  0  0  0  0  0  0  0  0  0  0  0  # atno 17321 bound_to 7965
  139.7815  143.8348  152.3138 LP  0  0  0  0  0  0  0  0  0  0  0  0  # atno 17342 bound_to 10162
  139.8301  144.7257  150.9461 LP  0  0  0  0  0  0  0  0  0  0  0  0  # atno 17343 bound_to 10162
  157.4037  130.7347  149.6786 LP  0  0  0  0  0  0  0  0  0  0  0  0  # atno 17370 bound_to 10713
  155.9737  130.4114  150.3978 LP  0  0  0  0  0  0  0  0  0  0  0  0  # atno 17371 bound_to 10713
  141.1103  133.6645  156.2963 LP  0  0  0  0  0  0  0  0  0  0  0  0  # atno 17394 bound_to 11000
  140.5846  134.5711  157.5487 LP  0  0  0  0  0  0  0  0  0  0  0  0  # atno 17395 bound_to 11000

$$$$
