AV-unprocessed.smi:100|AV-procd|sdf|912|dock8
  -GOLD-   2262017413D 1   1.00000     0.00000
 Structure written by MMmdl.
 31 33  0  0  0  0  0  0  0  0  1 V2000
  149.3353  138.4177  153.2466 N   0  0  0  0  0  0  0  0  0  0  0  0
  149.4149  138.6113  154.5705 C   0  0  0  0  0  0  0  0  0  0  0  0
  149.2084  137.5531  155.3879 N   0  0  0  0  0  0  0  0  0  0  0  0
  149.2745  137.7226  156.7119 C   0  0  0  0  0  0  0  0  0  0  0  0
  149.5316  138.8385  157.3990 N   0  0  0  0  0  0  0  0  0  0  0  0
  149.7490  139.9072  156.5752 C   0  0  0  0  0  0  0  0  0  0  0  0
  149.7003  139.8725  155.1529 C   0  0  0  0  0  0  0  0  0  0  0  0
  149.9458  141.1370  154.6384 N   0  0  0  0  0  0  0  0  0  0  0  0
  150.1225  141.8762  155.6996 C   0  0  0  0  0  0  0  0  0  0  0  0
  150.0542  141.2157  156.9096 N   0  0  0  0  0  0  0  0  0  0  0  0
  150.1830  141.8192  158.2832 C   0  0  1  0  0  0  0  0  0  0  0  0
  151.2436  141.2126  158.9576 O   0  0  0  0  0  0  0  0  0  0  0  0
  152.4272  141.9618  158.7264 C   0  0  2  0  0  0  0  0  0  0  0  0
  153.5062  141.5670  159.7453 C   0  0  0  0  0  0  0  0  0  0  0  0
  154.3024  140.5156  159.2420 O   0  0  0  0  0  0  0  0  0  0  0  0
  151.9030  143.3896  158.8603 C   0  0  1  0  0  0  0  0  0  0  0  0
  152.6994  144.2759  158.2615 F   0  0  0  0  0  0  0  0  0  0  0  0
  150.5413  143.3190  158.1806 C   0  0  2  0  0  0  0  0  0  0  0  0
  149.6099  144.1471  158.8461 O   0  0  0  0  0  0  0  0  0  0  0  0
  149.4820  139.1926  152.6158 H   0  0  0  0  0  0  0  0  0  0  0  0
  149.1271  137.4991  152.8830 H   0  0  0  0  0  0  0  0  0  0  0  0
  149.0966  136.8386  157.3062 H   0  0  0  0  0  0  0  0  0  0  0  0
  150.3130  142.9372  155.6266 H   0  0  0  0  0  0  0  0  0  0  0  0
  149.2268  141.6041  158.7620 H   0  0  0  0  0  0  0  0  0  0  0  0
  152.7718  141.7702  157.7081 H   0  0  0  0  0  0  0  0  0  0  0  0
  154.1399  142.4183  159.9950 H   0  0  0  0  0  0  0  0  0  0  0  0
  153.0386  141.2304  160.6709 H   0  0  0  0  0  0  0  0  0  0  0  0
  155.1196  140.5040  159.7163 H   0  0  0  0  0  0  0  0  0  0  0  0
  151.8119  143.6670  159.9118 H   0  0  0  0  0  0  0  0  0  0  0  0
  150.6271  143.6252  157.1375 H   0  0  0  0  0  0  0  0  0  0  0  0
  149.1408  144.6497  158.1975 H   0  0  0  0  0  0  0  0  0  0  0  0
  1  2  1  0  0  0  0
  1 20  1  0  0  0  0
  1 21  1  0  0  0  0
  2  7  1  0  0  0  0
  2  3  2  0  0  0  0
  3  4  1  0  0  0  0
  4  5  2  0  0  0  0
  4 22  1  0  0  0  0
  5  6  1  0  0  0  0
  6 10  1  0  0  0  0
  6  7  2  0  0  0  0
  7  8  1  0  0  0  0
  8  9  2  0  0  0  0
  9 10  1  0  0  0  0
  9 23  1  0  0  0  0
 10 11  1  0  0  0  0
 11 18  1  0  0  0  0
 11 12  1  0  0  0  0
 11 24  1  0  0  0  0
 12 13  1  0  0  0  0
 13 14  1  0  0  0  0
 13 16  1  0  0  0  0
 13 25  1  0  0  0  0
 14 15  1  0  0  0  0
 14 26  1  0  0  0  0
 14 27  1  0  0  0  0
 15 28  1  0  0  0  0
 16 17  1  0  0  0  0
 16 18  1  0  0  0  0
 16 29  1  0  0  0  0
 18 19  1  0  0  0  0
 18 30  1  0  0  0  0
 19 31  1  0  0  0  0
M  END
> <s_m_source_file>
AV-unprocessed.smi

> <i_m_source_file_index>
100

> <i_lp_mmshare_version>
43012

> <i_f3d_flags>
0

> <s_epik_input>
bjFbY0hdbmMoW05IMl0pYyhjMTIpbltjSF1uMltDQEBIXTNPW0NAQEhdKFtDSDJdW09IXSlbQ0BIXShGKVtDQEhdM1tPSF0=

> <s_epik_cmdline>
J2VwaWtfcHl0aG9uJywgJy1waCcsICc3LjAnLCAnLXRuJywgJzgnLCAnLW1hJywgJzIwMCcsICctbWV0YWxfYmluZGluZycsICctaW1hZScsICc8aW5maWxlLm1hZT4nLCAnLW9tYWUnLCAnPG91dGZpbGUubWFlPic=

> <r_lp_tautomer_probability>
1

> <r_epik_Ionization_Penalty>
0.000750324

> <r_epik_Ionization_Penalty_Charging>
0

> <r_epik_Ionization_Penalty_Neutral>
0.000750324

> <r_epik_State_Penalty>
-0

> <r_epik_Charging_Adjusted_Penalty>
0

> <i_epik_Tot_Q>
0

> <i_epik_Tot_abs_Q>
0

> <r_epik_Metal_State_Penalty>
-0

> <b_epik_Metal_Only>
0

> <s_epik_Chemistry_Notes>
This compound contains an acetal/aminal-like group ( X-CH(R)-Y where X, Y are N, S, or O) that may be acid/base labile, releasing an aldehyde.

> <s_lp_Force_Field>
OPLS_2005

> <r_lp_Energy>
30.8526

> <b_lp_Chiralities_Consistent>
1

> <s_lp_Variant>
AV-unprocessed.smi:100-16

> <Gold.Version>
5.8.1

> <Gold.Id.Protein>
6NUR|6NUR_protein|mol2

> <Gold.PLP.Fitness>
44.7396

> <Gold.PLP.PLP>
-29.9730

> <Gold.PLP.part.hbond>
-5.1980

> <Gold.PLP.part.metal>
0.0000

> <Gold.PLP.part.buried>
-1.4955

> <Gold.PLP.part.nonpolar>
-23.2012

> <Gold.PLP.part.repulsive>
0.3278

> <Gold.PLP.ligand.clash>
0.0000

> <Gold.PLP.ligand.torsion>
0.3489

> <Gold.PLP.Chemscore.Hbond>
4.1381

> <Gold.PLP.Chemscore.CHOScore>
1.0000

> <Gold.PLP.Chemscore.Metal>
0.0000

> <Gold.Chemscore.Hbonds>
donor molecule, donor type, donor heavy atom, donor atom, acceptor molecule, acceptor atom, score
      L1  H     1    20       P1  7957  1.00
      L1  H     1    21       P1  7948  1.00
      L1  H    19    31       P1  8029  1.00
      P1  H  7989  7998       L1     8  0.56
      P1  H  7997  8009       L1    15  0.62
      L1  C     9    23       P1  8028  1.00

> <Gold.PLP.Chemscore.Internal.Correction>
0.0500

> <Gold.Rescore>
     Score         DG    S(hbond)    S(metal)    S(lipo)     H(rot)  DE(clash)    DE(int)     intcor
     12.26     -12.66       2.97        0.00      46.36       3.19       0.03       0.37       ----

> <Gold.Chemscore.Fitness>
12.2593

> <Gold.Chemscore.DG>
-12.6626

> <Gold.Chemscore.ZeroCoef>
-5.4800

> <Gold.Chemscore.Hbond>
2.9716

> <Gold.Chemscore.Metal>
0.0000

> <Gold.Chemscore.Lipo>
46.3590

> <Gold.Chemscore.Internal_Hbond>
0.0000

> <Gold.Chemscore.DEClash>
0.0287

> <Gold.Chemscore.DEInternal>
0.3745

> <Gold.Chemscore.Rot>
3.1901

> <Gold.Chemscore.Internal.Correction>
   9.000000E+99

> <Gold.Chemscore.Hbonds>
donor molecule, donor type, donor heavy atom, donor atom, acceptor molecule, acceptor atom, score
      L1  H     1    20       P1  7957  0.98
      L1  H     1    21       P1  7948  0.98
      L1  H    19    31       P1  8029  0.28
      P1  H  7989  7998       L1     8  0.23
      P1  H  7997  8009       L1    15  0.16

> <Gold.Chemscore.Hbond.Weighted>
-9.9253

> <Gold.Chemscore.Metal.Weighted>
-0.0000

> <Gold.Chemscore.Lipo.Weighted>
-5.4240

> <Gold.Chemscore.Internal_Hbond.Weighted>
0.0000

> <Gold.Chemscore.DEClash.Weighted>
0.0287

> <Gold.Chemscore.DEInternal.Weighted>
0.3745

> <Gold.Chemscore.Rot.Weighted>
8.1667

> <Gold.Chemscore.Internal.Correction.Weighted>
   9.000000E+99

> <Gold.Protein.RotatedTorsions>
[ 6907 6896 6895 6894 ] final   11.12 input  -60.11 | X-H torsion
[ 7974 7965 7964 7962 ] final   55.84 input  175.53 | X-H torsion
[ 8008 7997 7996 7995 ] final  127.69 input   59.86 | X-H torsion
[ 10167 10162 10161 10158 ] final  -12.65 input  -65.29 | X-H torsion
[ 10718 10713 10712 10709 ] final -124.85 input   66.30 | X-H torsion
[ 10763 10752 10751 10750 ] final -101.03 input  -60.55 | X-H torsion
[ 11005 11000 10999 10996 ] final   26.51 input  -57.11 | X-H torsion

> <Gold.Protein.ActiveResidues>
 VAL166  LYS551  ARG553  GLY616  TRP617  ASP618  TYR619  PRO620  LYS621  CYS622 
 ASP623  PHE694  ASN695  SER759  ASP760  ASP761  ALA762  ILE779  LEU786  VAL792 
 PHE793  MET794  SER795  GLU796  ALA797  LYS798  CYS799  TRP800  GLU811  SER814 

> <Gold.Protein.RotatedAtoms>
  151.7492  135.0836  160.0327 H   0  0  0  0  0  0  0  0  0  0  0  0  # atno 6907 bound_to 6896
  152.3428  133.6082  159.5897 H   0  0  0  0  0  0  0  0  0  0  0  0  # atno 6908 bound_to 6896
  150.7490  133.9612  159.3558 H   0  0  0  0  0  0  0  0  0  0  0  0  # atno 6909 bound_to 6896
  145.9461  139.3931  143.0334 H   0  0  0  0  0  0  0  0  0  0  0  0  # atno 7974 bound_to 7965
  156.2897  140.2662  156.2315 H   0  0  0  0  0  0  0  0  0  0  0  0  # atno 8008 bound_to 7997
  155.0068  140.0387  157.2401 H   0  0  0  0  0  0  0  0  0  0  0  0  # atno 8009 bound_to 7997
  154.7553  140.2750  155.6263 H   0  0  0  0  0  0  0  0  0  0  0  0  # atno 8010 bound_to 7997
  140.7166  143.5509  150.9302 H   0  0  0  0  0  0  0  0  0  0  0  0  # atno 10167 bound_to 10162
  156.1623  130.6610  151.0067 H   0  0  0  0  0  0  0  0  0  0  0  0  # atno 10718 bound_to 10713
  154.7626  135.4913  153.9493 H   0  0  0  0  0  0  0  0  0  0  0  0  # atno 10763 bound_to 10752
  153.1269  135.6744  153.9250 H   0  0  0  0  0  0  0  0  0  0  0  0  # atno 10764 bound_to 10752
  153.8965  135.3115  155.3427 H   0  0  0  0  0  0  0  0  0  0  0  0  # atno 10765 bound_to 10752
  140.3363  134.2383  155.7695 H   0  0  0  0  0  0  0  0  0  0  0  0  # atno 11005 bound_to 11000
  145.8234  140.9667  143.0887 LP  0  0  0  0  0  0  0  0  0  0  0  0  # atno 17320 bound_to 7965
  144.6787  140.0070  143.7484 LP  0  0  0  0  0  0  0  0  0  0  0  0  # atno 17321 bound_to 7965
  139.9233  143.6579  152.3092 LP  0  0  0  0  0  0  0  0  0  0  0  0  # atno 17342 bound_to 10162
  139.7004  144.7636  151.1283 LP  0  0  0  0  0  0  0  0  0  0  0  0  # atno 17343 bound_to 10162
  157.6742  131.0854  150.7536 LP  0  0  0  0  0  0  0  0  0  0  0  0  # atno 17370 bound_to 10713
  156.7599  130.4795  149.5439 LP  0  0  0  0  0  0  0  0  0  0  0  0  # atno 17371 bound_to 10713
  141.2050  133.7870  157.0254 LP  0  0  0  0  0  0  0  0  0  0  0  0  # atno 17394 bound_to 11000
  140.0819  134.9643  157.1637 LP  0  0  0  0  0  0  0  0  0  0  0  0  # atno 17395 bound_to 11000

$$$$
