AV-unprocessed.smi:3300|AV-procd|sdf|12651|dock5
  -GOLD-   2272018583D 1   1.00000     0.00000
 Structure written by MMmdl.
 36 37  0  0  0  0  0  0  0  0  1 V2000
  153.2196  142.6228  162.2749 C   0  0  0  0  0  0  0  0  0  0  0  0
  153.5156  142.1201  160.8572 C   0  0  0  0  0  0  0  0  0  0  0  0
  152.5012  142.6205  159.8457 C   0  0  0  0  0  0  0  0  0  0  0  0
  152.4191  143.9596  159.6797 N   0  0  0  0  0  0  0  0  0  0  0  0
  151.5318  144.4017  158.7858 C   0  0  0  0  0  0  0  0  0  0  0  0
  150.7166  143.6578  158.0342 N   0  0  0  0  0  0  0  0  0  0  0  0
  150.7949  142.3117  158.1773 C   0  0  0  0  0  0  0  0  0  0  0  0
  149.9407  141.4902  157.4176 N   0  0  0  0  0  0  0  0  0  0  0  0
  148.5848  142.0278  157.4671 C   0  0  0  0  0  0  0  0  0  0  0  0
  147.5986  141.0774  156.7774 C   0  0  0  0  0  0  0  0  0  0  0  0
  148.0315  140.8593  155.4426 O   0  0  0  0  0  0  0  0  0  0  0  0
  149.3050  140.2274  155.4011 C   0  0  0  0  0  0  0  0  0  0  0  0
  150.3856  141.1149  156.0667 C   0  0  2  0  0  0  0  0  0  0  0  0
  151.7553  140.3865  156.0861 C   0  0  0  0  0  0  0  0  0  0  0  0
  151.8687  139.2408  155.0674 C   0  0  0  0  0  0  0  0  0  0  0  0
  153.1435  138.6424  155.1611 O   0  0  0  0  0  0  0  0  0  0  0  0
  151.6927  141.7328  159.1030 C   0  0  0  0  0  0  0  0  0  0  0  0
  151.7786  140.3894  159.2635 F   0  0  0  0  0  0  0  0  0  0  0  0
  153.9616  142.2507  162.9816 H   0  0  0  0  0  0  0  0  0  0  0  0
  152.2391  142.2891  162.6155 H   0  0  0  0  0  0  0  0  0  0  0  0
  153.2361  143.7123  162.3160 H   0  0  0  0  0  0  0  0  0  0  0  0
  154.5165  142.4302  160.5560 H   0  0  0  0  0  0  0  0  0  0  0  0
  153.5193  141.0294  160.8466 H   0  0  0  0  0  0  0  0  0  0  0  0
  151.4647  145.4721  158.6585 H   0  0  0  0  0  0  0  0  0  0  0  0
  148.2772  142.1827  158.5023 H   0  0  0  0  0  0  0  0  0  0  0  0
  148.5642  143.0026  156.9769 H   0  0  0  0  0  0  0  0  0  0  0  0
  147.5232  140.1301  157.3141 H   0  0  0  0  0  0  0  0  0  0  0  0
  146.6013  141.5170  156.7609 H   0  0  0  0  0  0  0  0  0  0  0  0
  149.2476  139.2508  155.8850 H   0  0  0  0  0  0  0  0  0  0  0  0
  149.5450  140.0470  154.3539 H   0  0  0  0  0  0  0  0  0  0  0  0
  150.4807  142.0291  155.4789 H   0  0  0  0  0  0  0  0  0  0  0  0
  152.5609  141.0887  155.8723 H   0  0  0  0  0  0  0  0  0  0  0  0
  151.9519  140.0069  157.0898 H   0  0  0  0  0  0  0  0  0  0  0  0
  151.1162  138.4726  155.2432 H   0  0  0  0  0  0  0  0  0  0  0  0
  151.7278  139.6144  154.0526 H   0  0  0  0  0  0  0  0  0  0  0  0
  153.2175  137.9834  154.4876 H   0  0  0  0  0  0  0  0  0  0  0  0
  1  2  1  0  0  0  0
  1 19  1  0  0  0  0
  1 20  1  0  0  0  0
  1 21  1  0  0  0  0
  2  3  1  0  0  0  0
  2 22  1  0  0  0  0
  2 23  1  0  0  0  0
  3 17  1  0  0  0  0
  3  4  2  0  0  0  0
  4  5  1  0  0  0  0
  5  6  2  0  0  0  0
  5 24  1  0  0  0  0
  6  7  1  0  0  0  0
  7  8  1  0  0  0  0
  7 17  2  0  0  0  0
  8 13  1  0  0  0  0
  8  9  1  0  0  0  0
  9 10  1  0  0  0  0
  9 25  1  0  0  0  0
  9 26  1  0  0  0  0
 10 11  1  0  0  0  0
 10 27  1  0  0  0  0
 10 28  1  0  0  0  0
 11 12  1  0  0  0  0
 12 13  1  0  0  0  0
 12 29  1  0  0  0  0
 12 30  1  0  0  0  0
 13 14  1  0  0  0  0
 13 31  1  0  0  0  0
 14 15  1  0  0  0  0
 14 32  1  0  0  0  0
 14 33  1  0  0  0  0
 15 16  1  0  0  0  0
 15 34  1  0  0  0  0
 15 35  1  0  0  0  0
 16 36  1  0  0  0  0
 17 18  1  0  0  0  0
M  END
> <s_m_source_file>
AV-unprocessed.smi

> <i_m_source_file_index>
3300

> <i_lp_mmshare_version>
43012

> <i_f3d_flags>
0

> <s_epik_input>
W0NIM11bQ0gyXWMxbltjSF1uYyhjMUYpTjJbQ0gyXVtDSDJdT1tDSDJdW0NASF0yW0NIMl1bQ0gyXVtPSF0=

> <s_epik_cmdline>
J2VwaWtfcHl0aG9uJywgJy1waCcsICc3LjAnLCAnLXRuJywgJzgnLCAnLW1hJywgJzIwMCcsICctbWV0YWxfYmluZGluZycsICctaW1hZScsICc8aW5maWxlLm1hZT4nLCAnLW9tYWUnLCAnPG91dGZpbGUubWFlPic=

> <r_lp_tautomer_probability>
1

> <r_epik_Ionization_Penalty>
2.51351e-05

> <r_epik_Ionization_Penalty_Charging>
0

> <r_epik_Ionization_Penalty_Neutral>
2.51351e-05

> <r_epik_State_Penalty>
-0

> <r_epik_Charging_Adjusted_Penalty>
0

> <i_epik_Tot_Q>
0

> <i_epik_Tot_abs_Q>
0

> <r_epik_Metal_State_Penalty>
-0

> <b_epik_Metal_Only>
0

> <s_lp_Force_Field>
OPLS_2005

> <r_lp_Energy>
16.3992

> <b_lp_Chiralities_Consistent>
1

> <s_lp_Variant>
AV-unprocessed.smi:3300-2

> <Gold.Version>
5.8.1

> <Gold.Id.Protein>
6NUR|6NUR_protein|mol2

> <Gold.PLP.Fitness>
37.9366

> <Gold.PLP.PLP>
-36.9119

> <Gold.PLP.part.hbond>
-1.0000

> <Gold.PLP.part.metal>
0.0000

> <Gold.PLP.part.buried>
-5.1304

> <Gold.PLP.part.nonpolar>
-30.5843

> <Gold.PLP.part.repulsive>
0.3205

> <Gold.PLP.ligand.clash>
0.0000

> <Gold.PLP.ligand.torsion>
1.0605

> <Gold.PLP.Chemscore.Hbond>
1.0000

> <Gold.PLP.Chemscore.CHOScore>
0.0000

> <Gold.PLP.Chemscore.Metal>
0.0000

> <Gold.Chemscore.Hbonds>
donor molecule, donor type, donor heavy atom, donor atom, acceptor molecule, acceptor atom, score
      P1  H  7997  8010       L1    16  0.71

> <Gold.PLP.Chemscore.Internal.Correction>
0.1458

> <Gold.Rescore>
     Score         DG    S(hbond)    S(metal)    S(lipo)     H(rot)  DE(clash)    DE(int)     intcor
     10.04     -10.95       0.94        0.00      71.28       2.35       0.02       0.89       ----

> <Gold.Chemscore.Fitness>
10.0411

> <Gold.Chemscore.DG>
-10.9507

> <Gold.Chemscore.ZeroCoef>
-5.4800

> <Gold.Chemscore.Hbond>
0.9391

> <Gold.Chemscore.Metal>
0.0000

> <Gold.Chemscore.Lipo>
71.2765

> <Gold.Chemscore.Internal_Hbond>
0.0000

> <Gold.Chemscore.DEClash>
0.0208

> <Gold.Chemscore.DEInternal>
0.8888

> <Gold.Chemscore.Rot>
2.3458

> <Gold.Chemscore.Internal.Correction>
   9.000000E+99

> <Gold.Chemscore.Hbonds>
donor molecule, donor type, donor heavy atom, donor atom, acceptor molecule, acceptor atom, score
      P1  H  7997  8010       L1    16  0.34

> <Gold.Chemscore.Hbond.Weighted>
-3.1365

> <Gold.Chemscore.Metal.Weighted>
-0.0000

> <Gold.Chemscore.Lipo.Weighted>
-8.3394

> <Gold.Chemscore.Internal_Hbond.Weighted>
0.0000

> <Gold.Chemscore.DEClash.Weighted>
0.0208

> <Gold.Chemscore.DEInternal.Weighted>
0.8888

> <Gold.Chemscore.Rot.Weighted>
6.0051

> <Gold.Chemscore.Internal.Correction.Weighted>
   9.000000E+99

> <Gold.Protein.RotatedTorsions>
[ 6907 6896 6895 6894 ] final  -89.66 input  -60.11 | X-H torsion
[ 7974 7965 7964 7962 ] final  104.60 input  175.53 | X-H torsion
[ 8008 7997 7996 7995 ] final   95.12 input   59.86 | X-H torsion
[ 10167 10162 10161 10158 ] final   71.50 input  -65.29 | X-H torsion
[ 10718 10713 10712 10709 ] final  169.67 input   66.30 | X-H torsion
[ 10763 10752 10751 10750 ] final  103.24 input  -60.55 | X-H torsion
[ 11005 11000 10999 10996 ] final   61.54 input  -57.11 | X-H torsion

> <Gold.Protein.ActiveResidues>
 VAL166  LYS551  ARG553  GLY616  TRP617  ASP618  TYR619  PRO620  LYS621  CYS622 
 ASP623  PHE694  ASN695  SER759  ASP760  ASP761  ALA762  ILE779  LEU786  VAL792 
 PHE793  MET794  SER795  GLU796  ALA797  LYS798  CYS799  TRP800  GLU811  SER814 

> <Gold.Protein.RotatedAtoms>
  150.6875  134.2552  159.4526 H   0  0  0  0  0  0  0  0  0  0  0  0  # atno 6907 bound_to 6896
  152.0487  134.9664  160.0584 H   0  0  0  0  0  0  0  0  0  0  0  0  # atno 6908 bound_to 6896
  152.1138  133.4280  159.4680 H   0  0  0  0  0  0  0  0  0  0  0  0  # atno 6909 bound_to 6896
  145.3307  139.2487  143.3662 H   0  0  0  0  0  0  0  0  0  0  0  0  # atno 7974 bound_to 7965
  156.0655  140.3290  155.7512 H   0  0  0  0  0  0  0  0  0  0  0  0  # atno 8008 bound_to 7997
  155.5388  140.0600  157.2891 H   0  0  0  0  0  0  0  0  0  0  0  0  # atno 8009 bound_to 7997
  154.4503  140.1914  156.0559 H   0  0  0  0  0  0  0  0  0  0  0  0  # atno 8010 bound_to 7997
  140.0454  144.5355  150.7402 H   0  0  0  0  0  0  0  0  0  0  0  0  # atno 10167 bound_to 10162
  157.0193  131.0227  151.2779 H   0  0  0  0  0  0  0  0  0  0  0  0  # atno 10718 bound_to 10713
  153.3501  135.3983  155.1639 H   0  0  0  0  0  0  0  0  0  0  0  0  # atno 10763 bound_to 10752
  154.8660  135.3654  154.5233 H   0  0  0  0  0  0  0  0  0  0  0  0  # atno 10764 bound_to 10752
  153.5684  135.7079  153.5575 H   0  0  0  0  0  0  0  0  0  0  0  0  # atno 10765 bound_to 10752
  140.0154  134.6233  155.9717 H   0  0  0  0  0  0  0  0  0  0  0  0  # atno 11005 bound_to 11000
  146.3047  140.3884  142.8691 LP  0  0  0  0  0  0  0  0  0  0  0  0  # atno 17320 bound_to 7965
  144.8867  140.7470  143.5953 LP  0  0  0  0  0  0  0  0  0  0  0  0  # atno 17321 bound_to 7965
  140.7241  143.2618  151.4180 LP  0  0  0  0  0  0  0  0  0  0  0  0  # atno 17342 bound_to 10162
  139.5987  144.1342  152.2173 LP  0  0  0  0  0  0  0  0  0  0  0  0  # atno 17343 bound_to 10162
  157.5261  130.8029  149.7864 LP  0  0  0  0  0  0  0  0  0  0  0  0  # atno 17370 bound_to 10713
  156.0108  130.3834  150.2272 LP  0  0  0  0  0  0  0  0  0  0  0  0  # atno 17371 bound_to 10713
  141.1739  133.6539  156.4755 LP  0  0  0  0  0  0  0  0  0  0  0  0  # atno 17394 bound_to 11000
  140.4480  134.6955  157.5025 LP  0  0  0  0  0  0  0  0  0  0  0  0  # atno 17395 bound_to 11000

$$$$
