AV-unprocessed.smi:724|AV-procd|sdf|3507|dock5
  -GOLD-   22720 0503D 1   1.00000     0.00000
 Structure written by MMmdl.
 36 37  0  0  0  0  0  0  0  0  1 V2000
  148.1568  133.6889  160.6698 C   0  0  0  0  0  0  0  0  0  0  0  0
  147.2000  134.8543  160.9965 C   0  0  0  0  0  0  0  0  0  0  0  0
  145.9057  134.6903  160.1733 C   0  0  0  0  0  0  0  0  0  0  0  0
  146.8463  134.8073  162.5019 C   0  0  0  0  0  0  0  0  0  0  0  0
  147.8867  136.1795  160.5882 C   0  0  0  0  0  0  0  0  0  0  0  0
  147.9322  137.1113  161.3932 O   0  0  0  0  0  0  0  0  0  0  0  0
  148.3948  136.2798  159.3464 N   0  0  0  0  0  0  0  0  0  0  0  0
  148.9977  137.4790  158.7664 C   0  0  0  0  0  0  0  0  0  0  0  0
  150.4621  137.2578  158.3370 C   0  0  0  0  0  0  0  0  0  0  0  0
  151.3498  138.4333  158.5896 C   0  0  0  0  0  0  0  0  0  0  0  0
  151.0333  139.5534  159.2339 N   0  0  0  0  0  0  0  0  0  0  0  0
  152.1558  140.2954  159.0294 C   0  0  0  0  0  0  0  0  0  0  0  0
  152.3151  141.6841  159.5581 C   0  0  0  0  0  0  0  0  0  0  0  0
  153.5628  142.4845  159.2492 C   0  0  0  0  0  0  0  0  0  0  0  0
  153.3248  141.9827  160.6467 C   0  0  0  0  0  0  0  0  0  0  0  0
  153.1338  139.6993  158.3588 N   0  0  0  0  0  0  0  0  0  0  0  0
  152.5879  138.4486  158.0382 O   0  0  0  0  0  0  0  0  0  0  0  0
  147.7084  132.7276  160.9223 H   0  0  0  0  0  0  0  0  0  0  0  0
  149.0891  133.7698  161.2304 H   0  0  0  0  0  0  0  0  0  0  0  0
  148.4133  133.6565  159.6098 H   0  0  0  0  0  0  0  0  0  0  0  0
  146.1060  134.6630  159.1010 H   0  0  0  0  0  0  0  0  0  0  0  0
  145.2089  135.5095  160.3574 H   0  0  0  0  0  0  0  0  0  0  0  0
  145.3917  133.7627  160.4274 H   0  0  0  0  0  0  0  0  0  0  0  0
  146.3634  133.8643  162.7603 H   0  0  0  0  0  0  0  0  0  0  0  0
  146.1574  135.6058  162.7808 H   0  0  0  0  0  0  0  0  0  0  0  0
  147.7340  134.8933  163.1307 H   0  0  0  0  0  0  0  0  0  0  0  0
  148.3210  135.4723  158.7444 H   0  0  0  0  0  0  0  0  0  0  0  0
  148.4119  137.8232  157.9123 H   0  0  0  0  0  0  0  0  0  0  0  0
  148.9502  138.2793  159.5050 H   0  0  0  0  0  0  0  0  0  0  0  0
  150.8732  136.3919  158.8568 H   0  0  0  0  0  0  0  0  0  0  0  0
  150.4997  137.0232  157.2727 H   0  0  0  0  0  0  0  0  0  0  0  0
  151.3621  142.2089  159.5827 H   0  0  0  0  0  0  0  0  0  0  0  0
  154.3464  141.9992  158.6700 H   0  0  0  0  0  0  0  0  0  0  0  0
  153.4424  143.5508  159.0692 H   0  0  0  0  0  0  0  0  0  0  0  0
  153.0457  142.7134  161.4030 H   0  0  0  0  0  0  0  0  0  0  0  0
  153.9507  141.1640  160.9972 H   0  0  0  0  0  0  0  0  0  0  0  0
  1  2  1  0  0  0  0
  1 18  1  0  0  0  0
  1 19  1  0  0  0  0
  1 20  1  0  0  0  0
  2  3  1  0  0  0  0
  2  4  1  0  0  0  0
  2  5  1  0  0  0  0
  3 21  1  0  0  0  0
  3 22  1  0  0  0  0
  3 23  1  0  0  0  0
  4 24  1  0  0  0  0
  4 25  1  0  0  0  0
  4 26  1  0  0  0  0
  5  6  2  0  0  0  0
  5  7  1  0  0  0  0
  7  8  1  0  0  0  0
  7 27  1  0  0  0  0
  8  9  1  0  0  0  0
  8 28  1  0  0  0  0
  8 29  1  0  0  0  0
  9 10  1  0  0  0  0
  9 30  1  0  0  0  0
  9 31  1  0  0  0  0
 10 17  1  0  0  0  0
 10 11  2  0  0  0  0
 11 12  1  0  0  0  0
 12 13  1  0  0  0  0
 12 16  2  0  0  0  0
 13 15  1  0  0  0  0
 13 14  1  0  0  0  0
 13 32  1  0  0  0  0
 14 15  1  0  0  0  0
 14 33  1  0  0  0  0
 14 34  1  0  0  0  0
 15 35  1  0  0  0  0
 15 36  1  0  0  0  0
 16 17  1  0  0  0  0
M  END
> <s_m_source_file>
AV-unprocessed.smi

> <i_m_source_file_index>
724

> <i_lp_mmshare_version>
43012

> <i_f3d_flags>
0

> <s_epik_input>
W0NIM11DKFtDSDNdKShbQ0gzXSlDKD1PKVtOSF1bQ0gyXVtDSDJdYzFuYyhubzEpW0NIXTJbQ0gyXVtDSDJdMg==

> <s_epik_cmdline>
J2VwaWtfcHl0aG9uJywgJy1waCcsICc3LjAnLCAnLXRuJywgJzgnLCAnLW1hJywgJzIwMCcsICctbWV0YWxfYmluZGluZycsICctaW1hZScsICc8aW5maWxlLm1hZT4nLCAnLW9tYWUnLCAnPG91dGZpbGUubWFlPic=

> <r_lp_tautomer_probability>
1

> <r_epik_Ionization_Penalty>
2.89377e-08

> <r_epik_Ionization_Penalty_Charging>
0

> <r_epik_Ionization_Penalty_Neutral>
2.89377e-08

> <r_epik_State_Penalty>
-0

> <r_epik_Charging_Adjusted_Penalty>
0

> <i_epik_Tot_Q>
0

> <i_epik_Tot_abs_Q>
0

> <r_epik_Metal_State_Penalty>
-0

> <b_epik_Metal_Only>
0

> <s_lp_Force_Field>
OPLS_2005

> <r_lp_Energy>
6.75537

> <b_lp_Chiralities_Consistent>
1

> <s_lp_Variant>
AV-unprocessed.smi:724-1

> <Gold.Version>
5.8.1

> <Gold.Id.Protein>
6NUR|6NUR_protein|mol2

> <Gold.PLP.Fitness>
34.4041

> <Gold.PLP.PLP>
-27.0187

> <Gold.PLP.part.hbond>
-3.5317

> <Gold.PLP.part.metal>
0.0000

> <Gold.PLP.part.buried>
-3.8462

> <Gold.PLP.part.nonpolar>
-19.9092

> <Gold.PLP.part.repulsive>
0.1381

> <Gold.PLP.ligand.clash>
0.0000

> <Gold.PLP.ligand.torsion>
0.6214

> <Gold.PLP.Chemscore.Hbond>
2.8160

> <Gold.PLP.Chemscore.CHOScore>
0.0000

> <Gold.PLP.Chemscore.Metal>
0.0000

> <Gold.Chemscore.Hbonds>
donor molecule, donor type, donor heavy atom, donor atom, acceptor molecule, acceptor atom, score
      P1  H  6931  6943       L1     6  1.00
      P1  H  6934  6947       L1     6  0.60
      P1  H  7997  8008       L1    16  1.00

> <Gold.PLP.Chemscore.Internal.Correction>
0.1801

> <Gold.Rescore>
     Score         DG    S(hbond)    S(metal)    S(lipo)     H(rot)  DE(clash)    DE(int)     intcor
     15.03     -16.45       2.64        0.00      60.35       1.91       0.81       0.62       ----

> <Gold.Chemscore.Fitness>
15.0252

> <Gold.Chemscore.DG>
-16.4525

> <Gold.Chemscore.ZeroCoef>
-5.4800

> <Gold.Chemscore.Hbond>
2.6373

> <Gold.Chemscore.Metal>
0.0000

> <Gold.Chemscore.Lipo>
60.3500

> <Gold.Chemscore.Internal_Hbond>
0.0000

> <Gold.Chemscore.DEClash>
0.8101

> <Gold.Chemscore.DEInternal>
0.6172

> <Gold.Chemscore.Rot>
1.9129

> <Gold.Chemscore.Internal.Correction>
   9.000000E+99

> <Gold.Chemscore.Hbonds>
donor molecule, donor type, donor heavy atom, donor atom, acceptor molecule, acceptor atom, score
      P1  H  6931  6943       L1     6  0.98
      P1  H  6934  6947       L1     6  0.59
      P1  H  7997  8008       L1    16  0.53

> <Gold.Chemscore.Hbond.Weighted>
-8.8085

> <Gold.Chemscore.Metal.Weighted>
-0.0000

> <Gold.Chemscore.Lipo.Weighted>
-7.0610

> <Gold.Chemscore.Internal_Hbond.Weighted>
0.0000

> <Gold.Chemscore.DEClash.Weighted>
0.8101

> <Gold.Chemscore.DEInternal.Weighted>
0.6172

> <Gold.Chemscore.Rot.Weighted>
4.8970

> <Gold.Chemscore.Internal.Correction.Weighted>
   9.000000E+99

> <Gold.Protein.RotatedTorsions>
[ 6907 6896 6895 6894 ] final  175.17 input  -60.11 | X-H torsion
[ 7974 7965 7964 7962 ] final -173.34 input  175.53 | X-H torsion
[ 8008 7997 7996 7995 ] final  -83.73 input   59.86 | X-H torsion
[ 10167 10162 10161 10158 ] final  -43.00 input  -65.29 | X-H torsion
[ 10718 10713 10712 10709 ] final  157.47 input   66.30 | X-H torsion
[ 10763 10752 10751 10750 ] final    0.42 input  -60.55 | X-H torsion
[ 11005 11000 10999 10996 ] final  -62.62 input  -57.11 | X-H torsion

> <Gold.Protein.ActiveResidues>
 VAL166  LYS551  ARG553  GLY616  TRP617  ASP618  TYR619  PRO620  LYS621  CYS622 
 ASP623  PHE694  ASN695  SER759  ASP760  ASP761  ALA762  ILE779  LEU786  VAL792 
 PHE793  MET794  SER795  GLU796  ALA797  LYS798  CYS799  TRP800  GLU811  SER814 

> <Gold.Protein.RotatedAtoms>
  151.7405  133.3322  159.3364 H   0  0  0  0  0  0  0  0  0  0  0  0  # atno 6907 bound_to 6896
  150.7575  134.6282  159.6182 H   0  0  0  0  0  0  0  0  0  0  0  0  # atno 6908 bound_to 6896
  152.3533  134.6977  160.0281 H   0  0  0  0  0  0  0  0  0  0  0  0  # atno 6909 bound_to 6896
  144.7139  140.1637  143.6374 H   0  0  0  0  0  0  0  0  0  0  0  0  # atno 7974 bound_to 7965
  154.6222  140.0615  156.9629 H   0  0  0  0  0  0  0  0  0  0  0  0  # atno 8008 bound_to 7997
  155.1799  140.3298  155.4358 H   0  0  0  0  0  0  0  0  0  0  0  0  # atno 8009 bound_to 7997
  156.2438  140.1899  156.6896 H   0  0  0  0  0  0  0  0  0  0  0  0  # atno 8010 bound_to 7997
  140.6949  143.3007  151.3289 H   0  0  0  0  0  0  0  0  0  0  0  0  # atno 10167 bound_to 10162
  157.1910  131.0654  151.2079 H   0  0  0  0  0  0  0  0  0  0  0  0  # atno 10718 bound_to 10713
  153.3209  135.6969  153.7032 H   0  0  0  0  0  0  0  0  0  0  0  0  # atno 10763 bound_to 10752
  153.5872  135.3486  155.2898 H   0  0  0  0  0  0  0  0  0  0  0  0  # atno 10764 bound_to 10752
  154.8597  135.4309  154.2372 H   0  0  0  0  0  0  0  0  0  0  0  0  # atno 10765 bound_to 10752
  141.1366  133.6642  156.5556 H   0  0  0  0  0  0  0  0  0  0  0  0  # atno 11005 bound_to 11000
  145.9007  139.2428  143.1495 LP  0  0  0  0  0  0  0  0  0  0  0  0  # atno 17320 bound_to 7965
  145.9814  140.8680  143.0113 LP  0  0  0  0  0  0  0  0  0  0  0  0  # atno 17321 bound_to 7965
  139.6393  144.0569  152.2542 LP  0  0  0  0  0  0  0  0  0  0  0  0  # atno 17342 bound_to 10162
  140.0069  144.6252  150.7680 LP  0  0  0  0  0  0  0  0  0  0  0  0  # atno 17343 bound_to 10162
  157.3861  130.7257  149.6664 LP  0  0  0  0  0  0  0  0  0  0  0  0  # atno 17370 bound_to 10713
  155.9712  130.4159  150.4205 LP  0  0  0  0  0  0  0  0  0  0  0  0  # atno 17371 bound_to 10713
  140.4029  134.7341  157.4790 LP  0  0  0  0  0  0  0  0  0  0  0  0  # atno 17394 bound_to 11000
  140.0483  134.6167  155.8893 LP  0  0  0  0  0  0  0  0  0  0  0  0  # atno 17395 bound_to 11000

$$$$
