AV-unprocessed.smi:1277|AV-procd|sdf|5345|dock3
  -GOLD-   22720 4473D 1   1.00000     0.00000
 Structure written by MMmdl.
 43 44  0  0  0  0  0  0  0  0  1 V2000
  152.4837  143.0742  159.6455 C   0  0  0  0  0  0  0  0  0  0  0  0
  151.3593  143.4993  158.8959 O   0  0  0  0  0  0  0  0  0  0  0  0
  151.4339  143.1080  157.5348 C   0  0  0  0  0  0  0  0  0  0  0  0
  151.1562  141.6056  157.4274 C   0  0  0  0  0  0  0  0  0  0  0  0
  151.2814  141.2156  156.0633 O   0  0  0  0  0  0  0  0  0  0  0  0
  150.8080  139.9763  155.6846 C   0  0  0  0  0  0  0  0  0  0  0  0
  150.4903  139.0425  156.6903 C   0  0  0  0  0  0  0  0  0  0  0  0
  150.0042  137.7773  156.3114 C   0  0  0  0  0  0  0  0  0  0  0  0
  149.8426  137.4833  154.9426 C   0  0  0  0  0  0  0  0  0  0  0  0
  149.3640  136.1912  154.5942 N   0  0  0  0  0  0  0  0  0  0  0  0
  149.1732  135.1203  155.3864 C   0  0  0  0  0  0  0  0  0  0  0  0
  149.3910  135.1005  156.5984 O   0  0  0  0  0  0  0  0  0  0  0  0
  148.6463  133.8600  154.6720 C   0  0  2  0  0  0  0  0  0  0  0  0
  147.3699  134.1746  153.8776 C   0  0  0  0  0  0  0  0  0  0  0  0
  146.2348  133.8869  154.8490 C   0  0  0  0  0  0  0  0  0  0  0  0
  146.7683  132.7465  155.7183 C   0  0  0  0  0  0  0  0  0  0  0  0
  148.2287  132.8165  155.6195 N   0  0  0  0  0  0  0  0  0  0  0  0
  149.0853  132.0008  156.2730 C   0  0  0  0  0  0  0  0  0  0  0  0
  148.5099  130.9466  157.2205 C   0  0  0  0  0  0  0  0  0  0  0  0
  150.3064  132.0737  156.1352 O   0  0  0  0  0  0  0  0  0  0  0  0
  150.2037  138.4839  154.0072 C   0  0  0  0  0  0  0  0  0  0  0  0
  150.6710  139.6994  154.3643 N   0  0  0  0  0  0  0  0  0  0  0  0
  149.4145  133.4761  153.9975 H   0  0  0  0  0  0  0  0  0  0  0  0
  152.3760  143.3958  160.6814 H   0  0  0  0  0  0  0  0  0  0  0  0
  153.4057  143.5050  159.2532 H   0  0  0  0  0  0  0  0  0  0  0  0
  152.5740  141.9874  159.6388 H   0  0  0  0  0  0  0  0  0  0  0  0
  150.6858  143.6582  156.9621 H   0  0  0  0  0  0  0  0  0  0  0  0
  152.4112  143.3455  157.1116 H   0  0  0  0  0  0  0  0  0  0  0  0
  151.8447  141.0482  158.0651 H   0  0  0  0  0  0  0  0  0  0  0  0
  150.1407  141.4042  157.7718 H   0  0  0  0  0  0  0  0  0  0  0  0
  150.6161  139.2932  157.7332 H   0  0  0  0  0  0  0  0  0  0  0  0
  149.7552  137.0451  157.0655 H   0  0  0  0  0  0  0  0  0  0  0  0
  149.2091  136.0400  153.6081 H   0  0  0  0  0  0  0  0  0  0  0  0
  147.3353  135.1914  153.4831 H   0  0  0  0  0  0  0  0  0  0  0  0
  147.2983  133.4956  153.0268 H   0  0  0  0  0  0  0  0  0  0  0  0
  146.0542  134.7662  155.4685 H   0  0  0  0  0  0  0  0  0  0  0  0
  145.2995  133.6356  154.3481 H   0  0  0  0  0  0  0  0  0  0  0  0
  146.4231  132.8439  156.7484 H   0  0  0  0  0  0  0  0  0  0  0  0
  146.4259  131.7857  155.3310 H   0  0  0  0  0  0  0  0  0  0  0  0
  147.8559  130.2593  156.6833 H   0  0  0  0  0  0  0  0  0  0  0  0
  147.9416  131.4183  158.0225 H   0  0  0  0  0  0  0  0  0  0  0  0
  149.3095  130.3616  157.6764 H   0  0  0  0  0  0  0  0  0  0  0  0
  150.1451  138.3213  152.9425 H   0  0  0  0  0  0  0  0  0  0  0  0
  1  2  1  0  0  0  0
  1 24  1  0  0  0  0
  1 25  1  0  0  0  0
  1 26  1  0  0  0  0
  2  3  1  0  0  0  0
  3  4  1  0  0  0  0
  3 27  1  0  0  0  0
  3 28  1  0  0  0  0
  4  5  1  0  0  0  0
  4 29  1  0  0  0  0
  4 30  1  0  0  0  0
  5  6  1  0  0  0  0
  6 22  1  0  0  0  0
  6  7  2  0  0  0  0
  7  8  1  0  0  0  0
  7 31  1  0  0  0  0
  8  9  2  0  0  0  0
  8 32  1  0  0  0  0
  9 10  1  0  0  0  0
  9 21  1  0  0  0  0
 10 11  1  0  0  0  0
 10 33  1  0  0  0  0
 11 12  2  0  0  0  0
 11 13  1  0  0  0  0
 13 23  1  0  0  0  0
 13 17  1  0  0  0  0
 13 14  1  0  0  0  0
 14 15  1  0  0  0  0
 14 34  1  0  0  0  0
 14 35  1  0  0  0  0
 15 16  1  0  0  0  0
 15 36  1  0  0  0  0
 15 37  1  0  0  0  0
 16 17  1  0  0  0  0
 16 38  1  0  0  0  0
 16 39  1  0  0  0  0
 17 18  1  0  0  0  0
 18 19  1  0  0  0  0
 18 20  2  0  0  0  0
 19 40  1  0  0  0  0
 19 41  1  0  0  0  0
 19 42  1  0  0  0  0
 21 22  2  0  0  0  0
 21 43  1  0  0  0  0
M  END
> <s_m_source_file>
AV-unprocessed.smi

> <i_m_source_file_index>
1277

> <i_lp_mmshare_version>
43012

> <i_f3d_flags>
0

> <s_epik_input>
W0NIM11PW0NIMl1bQ0gyXU9jMVtjSF1bY0hdYyhbY0hdbjEpW05IXUMoPU8pW0NAQEhdMltDSDJdW0NIMl1bQ0gyXU4yQyg9TylbQ0gzXQ==

> <s_epik_cmdline>
J2VwaWtfcHl0aG9uJywgJy1waCcsICc3LjAnLCAnLXRuJywgJzgnLCAnLW1hJywgJzIwMCcsICctbWV0YWxfYmluZGluZycsICctaW1hZScsICc8aW5maWxlLm1hZT4nLCAnLW9tYWUnLCAnPG91dGZpbGUubWFlPic=

> <r_lp_tautomer_probability>
1

> <r_epik_Ionization_Penalty>
1.62854e-05

> <r_epik_Ionization_Penalty_Charging>
0

> <r_epik_Ionization_Penalty_Neutral>
1.62854e-05

> <r_epik_State_Penalty>
-0

> <r_epik_Charging_Adjusted_Penalty>
0

> <i_epik_Tot_Q>
0

> <i_epik_Tot_abs_Q>
0

> <r_epik_Metal_State_Penalty>
-0

> <b_epik_Metal_Only>
0

> <s_lp_Force_Field>
OPLS_2005

> <r_lp_Energy>
18.7182

> <b_lp_Chiralities_Consistent>
1

> <s_lp_Variant>
AV-unprocessed.smi:1277-1

> <Gold.Version>
5.8.1

> <Gold.Id.Protein>
6NUR|6NUR_protein|mol2

> <Gold.PLP.Fitness>
39.4584

> <Gold.PLP.PLP>
-28.5328

> <Gold.PLP.part.hbond>
-2.1663

> <Gold.PLP.part.metal>
0.0000

> <Gold.PLP.part.buried>
-3.8236

> <Gold.PLP.part.nonpolar>
-23.7204

> <Gold.PLP.part.repulsive>
0.2525

> <Gold.PLP.ligand.clash>
0.0424

> <Gold.PLP.ligand.torsion>
0.4137

> <Gold.PLP.Chemscore.Hbond>
2.0000

> <Gold.PLP.Chemscore.CHOScore>
1.8891

> <Gold.PLP.Chemscore.Metal>
0.0000

> <Gold.Chemscore.Hbonds>
donor molecule, donor type, donor heavy atom, donor atom, acceptor molecule, acceptor atom, score
      L1  H    10    33       P1  7948  1.00
      P1  H  7989  7998       L1    22  1.00
      L1  C    21    43       P1  7948  0.77
      L1  C    21    43       P1  7949  0.01
      L1  C    21    43       P1  7957  0.96

> <Gold.PLP.Chemscore.Internal.Correction>
0.1279

> <Gold.Rescore>
     Score         DG    S(hbond)    S(metal)    S(lipo)     H(rot)  DE(clash)    DE(int)     intcor
     12.37     -14.12       1.90        0.00      60.81       1.89       0.01       1.74       ----

> <Gold.Chemscore.Fitness>
12.3705

> <Gold.Chemscore.DG>
-14.1208

> <Gold.Chemscore.ZeroCoef>
-5.4800

> <Gold.Chemscore.Hbond>
1.9042

> <Gold.Chemscore.Metal>
0.0000

> <Gold.Chemscore.Lipo>
60.8127

> <Gold.Chemscore.Internal_Hbond>
0.0000

> <Gold.Chemscore.DEClash>
0.0141

> <Gold.Chemscore.DEInternal>
1.7362

> <Gold.Chemscore.Rot>
1.8884

> <Gold.Chemscore.Internal.Correction>
   9.000000E+99

> <Gold.Chemscore.Hbonds>
donor molecule, donor type, donor heavy atom, donor atom, acceptor molecule, acceptor atom, score
      L1  H    10    33       P1  7948  0.85
      P1  H  7989  7998       L1    22  0.65

> <Gold.Chemscore.Hbond.Weighted>
-6.3600

> <Gold.Chemscore.Metal.Weighted>
-0.0000

> <Gold.Chemscore.Lipo.Weighted>
-7.1151

> <Gold.Chemscore.Internal_Hbond.Weighted>
0.0000

> <Gold.Chemscore.DEClash.Weighted>
0.0141

> <Gold.Chemscore.DEInternal.Weighted>
1.7362

> <Gold.Chemscore.Rot.Weighted>
4.8342

> <Gold.Chemscore.Internal.Correction.Weighted>
   9.000000E+99

> <Gold.Protein.RotatedTorsions>
[ 6907 6896 6895 6894 ] final -176.29 input  -60.11 | X-H torsion
[ 7974 7965 7964 7962 ] final -157.50 input  175.53 | X-H torsion
[ 8008 7997 7996 7995 ] final  -62.43 input   59.86 | X-H torsion
[ 10167 10162 10161 10158 ] final -174.48 input  -65.29 | X-H torsion
[ 10718 10713 10712 10709 ] final   25.99 input   66.30 | X-H torsion
[ 10763 10752 10751 10750 ] final  -43.57 input  -60.55 | X-H torsion
[ 11005 11000 10999 10996 ] final   40.27 input  -57.11 | X-H torsion

> <Gold.Protein.ActiveResidues>
 VAL166  LYS551  ARG553  GLY616  TRP617  ASP618  TYR619  PRO620  LYS621  CYS622 
 ASP623  PHE694  ASN695  SER759  ASP760  ASP761  ALA762  ILE779  LEU786  VAL792 
 PHE793  MET794  SER795  GLU796  ALA797  LYS798  CYS799  TRP800  GLU811  SER814 

> <Gold.Protein.RotatedAtoms>
  151.6024  133.3355  159.3049 H   0  0  0  0  0  0  0  0  0  0  0  0  # atno 6907 bound_to 6896
  150.8200  134.7407  159.6775 H   0  0  0  0  0  0  0  0  0  0  0  0  # atno 6908 bound_to 6896
  152.4294  134.5811  160.0000 H   0  0  0  0  0  0  0  0  0  0  0  0  # atno 6909 bound_to 6896
  144.7545  140.3960  143.6022 H   0  0  0  0  0  0  0  0  0  0  0  0  # atno 7974 bound_to 7965
  154.4500  140.0996  156.6586 H   0  0  0  0  0  0  0  0  0  0  0  0  # atno 8008 bound_to 7997
  155.5318  140.3481  155.4409 H   0  0  0  0  0  0  0  0  0  0  0  0  # atno 8009 bound_to 7997
  156.0659  140.1337  156.9875 H   0  0  0  0  0  0  0  0  0  0  0  0  # atno 8010 bound_to 7997
  139.5631  144.1820  152.1271 H   0  0  0  0  0  0  0  0  0  0  0  0  # atno 10167 bound_to 10162
  157.2009  130.6889  149.6188 H   0  0  0  0  0  0  0  0  0  0  0  0  # atno 10718 bound_to 10713
  153.9977  135.6697  153.4757 H   0  0  0  0  0  0  0  0  0  0  0  0  # atno 10763 bound_to 10752
  153.0676  135.4992  154.8231 H   0  0  0  0  0  0  0  0  0  0  0  0  # atno 10764 bound_to 10752
  154.7071  135.3090  154.9216 H   0  0  0  0  0  0  0  0  0  0  0  0  # atno 10765 bound_to 10752
  140.1947  134.3943  155.8127 H   0  0  0  0  0  0  0  0  0  0  0  0  # atno 11005 bound_to 11000
  145.6826  139.1621  143.2692 LP  0  0  0  0  0  0  0  0  0  0  0  0  # atno 17320 bound_to 7965
  146.1539  140.6886  142.9309 LP  0  0  0  0  0  0  0  0  0  0  0  0  # atno 17321 bound_to 7965
  140.1338  144.5264  150.6786 LP  0  0  0  0  0  0  0  0  0  0  0  0  # atno 17342 bound_to 10162
  140.6913  143.2377  151.5123 LP  0  0  0  0  0  0  0  0  0  0  0  0  # atno 17343 bound_to 10162
  155.9700  130.4583  150.5994 LP  0  0  0  0  0  0  0  0  0  0  0  0  # atno 17370 bound_to 10713
  157.3768  131.0774  151.1511 LP  0  0  0  0  0  0  0  0  0  0  0  0  # atno 17371 bound_to 10713
  141.2227  133.7064  156.8156 LP  0  0  0  0  0  0  0  0  0  0  0  0  # atno 17394 bound_to 11000
  140.2120  134.8820  157.3285 LP  0  0  0  0  0  0  0  0  0  0  0  0  # atno 17395 bound_to 11000

$$$$
