AV-unprocessed.smi:927|AV-procd|sdf|4190|dock6
  -GOLD-   22720 2 93D 1   1.00000     0.00000
 Structure written by MMmdl.
 20 20  0  0  0  0  0  0  0  0  1 V2000
  144.5399  137.6261  152.1783 N   0  0  0  0  0  0  0  0  0  0  0  0
  144.2905  136.1943  151.9480 C   0  0  0  0  0  0  0  0  0  0  0  0
  145.5436  135.4370  151.4739 C   0  0  1  0  0  0  0  0  0  0  0  0
  146.4564  135.3676  152.5515 O   0  0  0  0  0  0  0  0  0  0  0  0
  145.1836  134.0476  150.9705 C   0  0  0  0  0  0  0  0  0  0  0  0
  146.1835  133.1297  150.5817 C   0  0  0  0  0  0  0  0  0  0  0  0
  145.7900  131.8540  150.1310 C   0  0  0  0  0  0  0  0  0  0  0  0
  144.5008  131.4605  150.0522 N   0  0  0  0  0  0  0  0  0  0  0  0
  143.5486  132.3414  150.4269 C   0  0  0  0  0  0  0  0  0  0  0  0
  143.8350  133.6409  150.8914 C   0  0  0  0  0  0  0  0  0  0  0  0
  145.4852  137.7714  152.5301 H   0  0  0  0  0  0  0  0  0  0  0  0
  144.4621  138.1461  151.3056 H   0  0  0  0  0  0  0  0  0  0  0  0
  143.8825  135.7286  152.8460 H   0  0  0  0  0  0  0  0  0  0  0  0
  143.5186  136.1018  151.1834 H   0  0  0  0  0  0  0  0  0  0  0  0
  146.0215  135.9887  150.6629 H   0  0  0  0  0  0  0  0  0  0  0  0
  147.2064  135.9027  152.3423 H   0  0  0  0  0  0  0  0  0  0  0  0
  147.2297  133.3943  150.6283 H   0  0  0  0  0  0  0  0  0  0  0  0
  146.5311  131.1298  149.8269 H   0  0  0  0  0  0  0  0  0  0  0  0
  142.5264  132.0004  150.3555 H   0  0  0  0  0  0  0  0  0  0  0  0
  143.0343  134.3057  151.1804 H   0  0  0  0  0  0  0  0  0  0  0  0
  1  2  1  0  0  0  0
  1 11  1  0  0  0  0
  1 12  1  0  0  0  0
  2  3  1  0  0  0  0
  2 13  1  0  0  0  0
  2 14  1  0  0  0  0
  3  4  1  0  0  0  0
  3  5  1  0  0  0  0
  3 15  1  0  0  0  0
  4 16  1  0  0  0  0
  5 10  1  0  0  0  0
  5  6  2  0  0  0  0
  6  7  1  0  0  0  0
  6 17  1  0  0  0  0
  7  8  2  0  0  0  0
  7 18  1  0  0  0  0
  8  9  1  0  0  0  0
  9 10  2  0  0  0  0
  9 19  1  0  0  0  0
 10 20  1  0  0  0  0
M  END
> <s_m_source_file>
AV-unprocessed.smi

> <i_m_source_file_index>
927

> <i_lp_mmshare_version>
43012

> <i_f3d_flags>
0

> <s_epik_input>
W05IMl1bQ0gyXVtDQEhdKFtPSF0pYzFbY0hdW2NIXW5bY0hdW2NIXTE=

> <s_epik_cmdline>
J2VwaWtfcHl0aG9uJywgJy1waCcsICc3LjAnLCAnLXRuJywgJzgnLCAnLW1hJywgJzIwMCcsICctbWV0YWxfYmluZGluZycsICctaW1hZScsICc8aW5maWxlLm1hZT4nLCAnLW9tYWUnLCAnPG91dGZpbGUubWFlPic=

> <r_epik_Ionization_Penalty>
2.24668

> <r_epik_Ionization_Penalty_Charging>
0

> <r_epik_Ionization_Penalty_Neutral>
2.24668

> <r_epik_State_Penalty>
2.36938

> <r_epik_Charging_Adjusted_Penalty>
2.36938

> <i_epik_Tot_Q>
0

> <i_epik_Tot_abs_Q>
0

> <r_epik_Metal_State_Penalty>
2.3492

> <b_epik_Metal_Only>
0

> <s_lp_Force_Field>
OPLS_2005

> <r_lp_Energy>
12.0252

> <b_lp_Chiralities_Consistent>
1

> <s_lp_Variant>
AV-unprocessed.smi:927-4

> <Gold.Version>
5.8.1

> <Gold.Id.Protein>
6NUR|6NUR_protein|mol2

> <Gold.PLP.Fitness>
34.7584

> <Gold.PLP.PLP>
-22.0152

> <Gold.PLP.part.hbond>
-4.0000

> <Gold.PLP.part.metal>
0.0000

> <Gold.PLP.part.buried>
-2.7575

> <Gold.PLP.part.nonpolar>
-16.2689

> <Gold.PLP.part.repulsive>
0.1327

> <Gold.PLP.ligand.clash>
0.0000

> <Gold.PLP.ligand.torsion>
0.1104

> <Gold.PLP.Chemscore.Hbond>
2.2337

> <Gold.PLP.Chemscore.CHOScore>
2.0869

> <Gold.PLP.Chemscore.Metal>
0.0000

> <Gold.Chemscore.Hbonds>
donor molecule, donor type, donor heavy atom, donor atom, acceptor molecule, acceptor atom, score
      L1  H     1    12       P1 10171  1.00
      L1  H     4    16       P1  7948  1.00
      P1  H 10785 10796       L1     8  0.19
      L1  C     7    18       P1 10747  1.00
      L1  C     9    19       P1 10952  1.00

> <Gold.PLP.Chemscore.Internal.Correction>
0.0021

> <Gold.Rescore>
     Score         DG    S(hbond)    S(metal)    S(lipo)     H(rot)  DE(clash)    DE(int)     intcor
     15.52     -15.77       2.61        0.00      53.85       1.85       0.08       0.17       ----

> <Gold.Chemscore.Fitness>
15.5202

> <Gold.Chemscore.DG>
-15.7657

> <Gold.Chemscore.ZeroCoef>
-5.4800

> <Gold.Chemscore.Hbond>
2.6077

> <Gold.Chemscore.Metal>
0.0000

> <Gold.Chemscore.Lipo>
53.8491

> <Gold.Chemscore.Internal_Hbond>
0.0000

> <Gold.Chemscore.DEClash>
0.0787

> <Gold.Chemscore.DEInternal>
0.1668

> <Gold.Chemscore.Rot>
1.8455

> <Gold.Chemscore.Internal.Correction>
   9.000000E+99

> <Gold.Chemscore.Hbonds>
donor molecule, donor type, donor heavy atom, donor atom, acceptor molecule, acceptor atom, score
      L1  H     1    12       P1 10171  0.99
      L1  H     4    16       P1  7948  0.98
      P1  H 10785 10796       L1     8  0.04

> <Gold.Chemscore.Hbond.Weighted>
-8.7098

> <Gold.Chemscore.Metal.Weighted>
-0.0000

> <Gold.Chemscore.Lipo.Weighted>
-6.3003

> <Gold.Chemscore.Internal_Hbond.Weighted>
0.0000

> <Gold.Chemscore.DEClash.Weighted>
0.0787

> <Gold.Chemscore.DEInternal.Weighted>
0.1668

> <Gold.Chemscore.Rot.Weighted>
4.7245

> <Gold.Chemscore.Internal.Correction.Weighted>
   9.000000E+99

> <Gold.Protein.RotatedTorsions>
[ 6907 6896 6895 6894 ] final   13.99 input  -60.11 | X-H torsion
[ 7974 7965 7964 7962 ] final   82.17 input  175.53 | X-H torsion
[ 8008 7997 7996 7995 ] final -173.17 input   59.86 | X-H torsion
[ 10167 10162 10161 10158 ] final   26.20 input  -65.29 | X-H torsion
[ 10718 10713 10712 10709 ] final  127.03 input   66.30 | X-H torsion
[ 10763 10752 10751 10750 ] final   47.14 input  -60.55 | X-H torsion
[ 11005 11000 10999 10996 ] final  137.18 input  -57.11 | X-H torsion

> <Gold.Protein.ActiveResidues>
 VAL166  LYS551  ARG553  GLY616  TRP617  ASP618  TYR619  PRO620  LYS621  CYS622 
 ASP623  PHE694  ASN695  SER759  ASP760  ASP761  ALA762  ILE779  LEU786  VAL792 
 PHE793  MET794  SER795  GLU796  ALA797  LYS798  CYS799  TRP800  GLU811  SER814 

> <Gold.Protein.RotatedAtoms>
  151.7950  135.0725  160.0392 H   0  0  0  0  0  0  0  0  0  0  0  0  # atno 6907 bound_to 6896
  152.3129  133.5767  159.5701 H   0  0  0  0  0  0  0  0  0  0  0  0  # atno 6908 bound_to 6896
  150.7329  134.0041  159.3690 H   0  0  0  0  0  0  0  0  0  0  0  0  # atno 6909 bound_to 6896
  145.6286  139.2400  143.2097 H   0  0  0  0  0  0  0  0  0  0  0  0  # atno 7974 bound_to 7965
  155.9540  140.1132  157.0953 H   0  0  0  0  0  0  0  0  0  0  0  0  # atno 8008 bound_to 7997
  154.4116  140.1195  156.5157 H   0  0  0  0  0  0  0  0  0  0  0  0  # atno 8009 bound_to 7997
  155.6806  140.3473  155.4856 H   0  0  0  0  0  0  0  0  0  0  0  0  # atno 8010 bound_to 7997
  140.5042  144.0265  150.6345 H   0  0  0  0  0  0  0  0  0  0  0  0  # atno 10167 bound_to 10162
  157.5368  131.1097  150.8922 H   0  0  0  0  0  0  0  0  0  0  0  0  # atno 10718 bound_to 10713
  152.9803  135.5985  154.3714 H   0  0  0  0  0  0  0  0  0  0  0  0  # atno 10763 bound_to 10752
  154.3387  135.2768  155.2435 H   0  0  0  0  0  0  0  0  0  0  0  0  # atno 10764 bound_to 10752
  154.4527  135.5986  153.6257 H   0  0  0  0  0  0  0  0  0  0  0  0  # atno 10765 bound_to 10752
  140.0096  134.9444  157.0250 H   0  0  0  0  0  0  0  0  0  0  0  0  # atno 11005 bound_to 11000
  146.1374  140.7104  142.9383 LP  0  0  0  0  0  0  0  0  0  0  0  0  # atno 17320 bound_to 7965
  144.7202  140.4348  143.7014 LP  0  0  0  0  0  0  0  0  0  0  0  0  # atno 17321 bound_to 7965
  140.3570  143.2930  152.0425 LP  0  0  0  0  0  0  0  0  0  0  0  0  # atno 17342 bound_to 10162
  139.4879  144.6332  151.7029 LP  0  0  0  0  0  0  0  0  0  0  0  0  # atno 17343 bound_to 10162
  156.9487  130.5411  149.5282 LP  0  0  0  0  0  0  0  0  0  0  0  0  # atno 17370 bound_to 10713
  156.0465  130.5541  150.8892 LP  0  0  0  0  0  0  0  0  0  0  0  0  # atno 17371 bound_to 10713
  140.4578  134.1516  155.7188 LP  0  0  0  0  0  0  0  0  0  0  0  0  # atno 17394 bound_to 11000
  141.1702  133.8624  157.1594 LP  0  0  0  0  0  0  0  0  0  0  0  0  # atno 17395 bound_to 11000

$$$$
