AV-unprocessed.smi:1790|AV-procd|sdf|7217|dock2
  -GOLD-   22720 8453D 1   1.00000     0.00000
 Structure written by MMmdl.
 32 33  0  0  0  0  0  0  0  0  2 V2000
  154.8856  139.3022  159.1876 O   0  0  0  0  0  0  0  0  0  0  0  0
  153.9390  138.5305  159.0394 C   0  0  0  0  0  0  0  0  0  0  0  0
  154.1132  137.0615  159.4217 C   0  0  0  0  0  0  0  0  0  0  0  0
  154.6035  136.9822  160.7509 O   0  0  0  0  0  0  0  0  0  0  0  0
  153.5705  137.0371  161.7185 C   0  0  0  0  0  0  0  0  0  0  0  0
  154.1690  136.7969  163.0878 C   0  0  0  0  0  0  0  0  0  0  0  0
  154.1847  135.4099  163.6888 C   0  0  0  0  0  0  0  0  0  0  0  0
  153.2785  136.4681  164.2646 C   0  0  0  0  0  0  0  0  0  0  0  0
  152.7149  138.8675  158.5864 N   0  0  0  0  0  0  0  0  0  0  0  0
  152.2234  140.1095  158.1480 C   0  0  0  0  0  0  0  0  0  0  0  0
  152.2768  141.2688  158.8615 C   0  0  0  0  0  0  0  0  0  0  0  0
  151.7555  142.5282  158.3448 C   0  0  0  0  0  0  0  0  0  0  0  0
  151.8692  143.8530  159.0784 C   0  0  0  0  0  0  0  0  0  0  0  0
  152.4506  143.6942  160.2676 F   0  0  0  0  0  0  0  0  0  0  0  0
  152.6062  144.7042  158.3664 F   0  0  0  0  0  0  0  0  0  0  0  0
  150.6682  144.4001  159.2674 F   0  0  0  0  0  0  0  0  0  0  0  0
  151.2458  142.3997  157.0673 C   0  0  0  0  0  0  0  0  0  0  0  0
  151.1466  141.2936  156.2983 N   0  5  0  0  0  0  0  0  0  0  0  0
  151.6304  140.1199  156.7943 C   0  0  0  0  0  0  0  0  0  0  0  0
  151.5821  139.0768  156.1411 O   0  0  0  0  0  0  0  0  0  0  0  0
  153.1583  136.5397  159.3371 H   0  0  0  0  0  0  0  0  0  0  0  0
  154.8132  136.5941  158.7272 H   0  0  0  0  0  0  0  0  0  0  0  0
  153.0911  138.0168  161.7062 H   0  0  0  0  0  0  0  0  0  0  0  0
  152.8075  136.2850  161.5109 H   0  0  0  0  0  0  0  0  0  0  0  0
  155.0281  137.4276  163.3086 H   0  0  0  0  0  0  0  0  0  0  0  0
  153.7210  134.6058  163.1205 H   0  0  0  0  0  0  0  0  0  0  0  0
  155.0604  135.1253  164.2684 H   0  0  0  0  0  0  0  0  0  0  0  0
  153.5480  136.8887  165.2312 H   0  0  0  0  0  0  0  0  0  0  0  0
  152.2105  136.3679  164.0812 H   0  0  0  0  0  0  0  0  0  0  0  0
  152.0303  138.1252  158.5733 H   0  0  0  0  0  0  0  0  0  0  0  0
  152.7229  141.2986  159.8412 H   0  0  0  0  0  0  0  0  0  0  0  0
  150.8642  143.3271  156.5896 H   0  0  0  0  0  0  0  0  0  0  0  0
  1  2  2  0  0  0  0
  2  3  1  0  0  0  0
  2  9  1  0  0  0  0
  3  4  1  0  0  0  0
  3 21  1  0  0  0  0
  3 22  1  0  0  0  0
  4  5  1  0  0  0  0
  5  6  1  0  0  0  0
  5 23  1  0  0  0  0
  5 24  1  0  0  0  0
  6  8  1  0  0  0  0
  6  7  1  0  0  0  0
  6 25  1  0  0  0  0
  7  8  1  0  0  0  0
  7 26  1  0  0  0  0
  7 27  1  0  0  0  0
  8 28  1  0  0  0  0
  8 29  1  0  0  0  0
  9 10  1  0  0  0  0
  9 30  1  0  0  0  0
 10 19  1  0  0  0  0
 10 11  2  0  0  0  0
 11 12  1  0  0  0  0
 11 31  1  0  0  0  0
 12 13  1  0  0  0  0
 12 17  2  0  0  0  0
 13 14  1  0  0  0  0
 13 15  1  0  0  0  0
 13 16  1  0  0  0  0
 17 18  1  0  0  0  0
 17 32  1  0  0  0  0
 18 19  1  0  0  0  0
 19 20  2  0  0  0  0
M  CHG  1  18  -1
M  END
> <s_m_source_file>
AV-unprocessed.smi

> <i_m_source_file_index>
1790

> <i_lp_mmshare_version>
43012

> <i_f3d_flags>
0

> <s_epik_input>
W0NIMl0xW0NIMl1bQ0hdMVtDSDJdT1tDSDJdQyg9TylbTkhdYzJbY0hdYyhDKEYpKEYpRilbY0hdW25IXWMyPU8=

> <s_epik_cmdline>
J2VwaWtfcHl0aG9uJywgJy1waCcsICc3LjAnLCAnLXRuJywgJzgnLCAnLW1hJywgJzIwMCcsICctbWV0YWxfYmluZGluZycsICctaW1hZScsICc8aW5maWxlLm1hZT4nLCAnLW9tYWUnLCAnPG91dGZpbGUubWFlPic=

> <r_epik_Ionization_Penalty>
2.6027

> <r_epik_Ionization_Penalty_Charging>
0.0561891

> <r_epik_Ionization_Penalty_Neutral>
2.54651

> <r_epik_State_Penalty>
2.71477

> <r_epik_Charging_Adjusted_Penalty>
2.77096

> <i_epik_Tot_Q>
-1

> <i_epik_Tot_abs_Q>
1

> <r_epik_Metal_State_Penalty>
0.521168

> <b_epik_Metal_Only>
0

> <s_lp_Force_Field>
OPLS_2005

> <r_lp_Energy>
28.814

> <b_lp_Chiralities_Consistent>
1

> <s_lp_Variant>
AV-unprocessed.smi:1790-2

> <Gold.Version>
5.8.1

> <Gold.Id.Protein>
6NUR|6NUR_protein|mol2

> <Gold.PLP.Fitness>
43.6580

> <Gold.PLP.PLP>
-42.0083

> <Gold.PLP.part.hbond>
-1.0000

> <Gold.PLP.part.metal>
0.0000

> <Gold.PLP.part.buried>
-5.7273

> <Gold.PLP.part.nonpolar>
-34.9875

> <Gold.PLP.part.repulsive>
0.1270

> <Gold.PLP.ligand.clash>
0.0000

> <Gold.PLP.ligand.torsion>
1.0005

> <Gold.PLP.Chemscore.Hbond>
1.0000

> <Gold.PLP.Chemscore.CHOScore>
0.0000

> <Gold.PLP.Chemscore.Metal>
0.0000

> <Gold.Chemscore.Hbonds>
donor molecule, donor type, donor heavy atom, donor atom, acceptor molecule, acceptor atom, score
      P1  H  7997  8010       L1     1  1.00

> <Gold.PLP.Chemscore.Internal.Correction>
0.6508

> <Gold.Rescore>
     Score         DG    S(hbond)    S(metal)    S(lipo)     H(rot)  DE(clash)    DE(int)     intcor
     12.67     -13.69       0.95        0.00      83.26       1.83       0.12       0.90       ----

> <Gold.Chemscore.Fitness>
12.6653

> <Gold.Chemscore.DG>
-13.6921

> <Gold.Chemscore.ZeroCoef>
-5.4800

> <Gold.Chemscore.Hbond>
0.9467

> <Gold.Chemscore.Metal>
0.0000

> <Gold.Chemscore.Lipo>
83.2621

> <Gold.Chemscore.Internal_Hbond>
0.0000

> <Gold.Chemscore.DEClash>
0.1244

> <Gold.Chemscore.DEInternal>
0.9024

> <Gold.Chemscore.Rot>
1.8326

> <Gold.Chemscore.Internal.Correction>
   9.000000E+99

> <Gold.Chemscore.Hbonds>
donor molecule, donor type, donor heavy atom, donor atom, acceptor molecule, acceptor atom, score
      P1  H  7997  8010       L1     1  0.53

> <Gold.Chemscore.Hbond.Weighted>
-3.1620

> <Gold.Chemscore.Metal.Weighted>
-0.0000

> <Gold.Chemscore.Lipo.Weighted>
-9.7417

> <Gold.Chemscore.Internal_Hbond.Weighted>
0.0000

> <Gold.Chemscore.DEClash.Weighted>
0.1244

> <Gold.Chemscore.DEInternal.Weighted>
0.9024

> <Gold.Chemscore.Rot.Weighted>
4.6916

> <Gold.Chemscore.Internal.Correction.Weighted>
   9.000000E+99

> <Gold.Protein.RotatedTorsions>
[ 6907 6896 6895 6894 ] final  -58.77 input  -60.11 | X-H torsion
[ 7974 7965 7964 7962 ] final -109.41 input  175.53 | X-H torsion
[ 8008 7997 7996 7995 ] final  -12.18 input   59.86 | X-H torsion
[ 10167 10162 10161 10158 ] final   68.62 input  -65.29 | X-H torsion
[ 10718 10713 10712 10709 ] final  -28.71 input   66.30 | X-H torsion
[ 10763 10752 10751 10750 ] final  152.04 input  -60.55 | X-H torsion
[ 11005 11000 10999 10996 ] final  168.33 input  -57.11 | X-H torsion

> <Gold.Protein.ActiveResidues>
 VAL166  LYS551  ARG553  GLY616  TRP617  ASP618  TYR619  PRO620  LYS621  CYS622 
 ASP623  PHE694  ASN695  SER759  ASP760  ASP761  ALA762  ILE779  LEU786  VAL792 
 PHE793  MET794  SER795  GLU796  ALA797  LYS798  CYS799  TRP800  GLU811  SER814 

> <Gold.Protein.RotatedAtoms>
  150.7981  134.7055  159.6573 H   0  0  0  0  0  0  0  0  0  0  0  0  # atno 6907 bound_to 6896
  152.4095  134.6145  160.0044 H   0  0  0  0  0  0  0  0  0  0  0  0  # atno 6908 bound_to 6896
  151.6392  133.3290  159.3162 H   0  0  0  0  0  0  0  0  0  0  0  0  # atno 6909 bound_to 6896
  145.1809  140.8970  143.3480 H   0  0  0  0  0  0  0  0  0  0  0  0  # atno 7974 bound_to 7965
  154.5400  140.2283  155.8658 H   0  0  0  0  0  0  0  0  0  0  0  0  # atno 8008 bound_to 7997
  156.1849  140.3091  155.9181 H   0  0  0  0  0  0  0  0  0  0  0  0  # atno 8009 bound_to 7997
  155.3278  140.0444  157.3032 H   0  0  0  0  0  0  0  0  0  0  0  0  # atno 8010 bound_to 7997
  140.0766  144.5107  150.7190 H   0  0  0  0  0  0  0  0  0  0  0  0  # atno 10167 bound_to 10162
  156.4218  130.4428  149.7178 H   0  0  0  0  0  0  0  0  0  0  0  0  # atno 10718 bound_to 10713
  154.1135  135.2837  155.3225 H   0  0  0  0  0  0  0  0  0  0  0  0  # atno 10763 bound_to 10752
  154.6473  135.5381  153.7863 H   0  0  0  0  0  0  0  0  0  0  0  0  # atno 10764 bound_to 10752
  153.0337  135.6501  154.1293 H   0  0  0  0  0  0  0  0  0  0  0  0  # atno 10765 bound_to 10752
  140.2861  134.7711  157.3799 H   0  0  0  0  0  0  0  0  0  0  0  0  # atno 11005 bound_to 11000
  145.0137  139.3486  143.6107 LP  0  0  0  0  0  0  0  0  0  0  0  0  # atno 17320 bound_to 7965
  146.3453  139.9410  142.8741 LP  0  0  0  0  0  0  0  0  0  0  0  0  # atno 17321 bound_to 7965
  140.7099  143.2496  151.4614 LP  0  0  0  0  0  0  0  0  0  0  0  0  # atno 17342 bound_to 10162
  139.5804  144.1723  152.1960 LP  0  0  0  0  0  0  0  0  0  0  0  0  # atno 17343 bound_to 10162
  156.4116  130.7725  151.2738 LP  0  0  0  0  0  0  0  0  0  0  0  0  # atno 17370 bound_to 10713
  157.7508  131.0209  150.3730 LP  0  0  0  0  0  0  0  0  0  0  0  0  # atno 17371 bound_to 10713
  140.1238  134.5184  155.8161 LP  0  0  0  0  0  0  0  0  0  0  0  0  # atno 17394 bound_to 11000
  141.2154  133.6765  156.6915 LP  0  0  0  0  0  0  0  0  0  0  0  0  # atno 17395 bound_to 11000

$$$$
