AV-unprocessed.smi:1695|AV-procd|sdf|6789|dock3
  -GOLD-   22720 7553D 1   1.00000     0.00000
 Structure written by MMmdl.
 51 53  0  0  0  0  0  0  0  0  2 V2000
  152.7247  142.9196  161.5837 C   0  0  0  0  0  0  0  0  0  0  0  0
  152.1890  142.6194  160.1948 C   0  0  0  0  0  0  0  0  0  0  0  0
  152.6257  141.4529  159.5274 C   0  0  0  0  0  0  0  0  0  0  0  0
  152.1523  141.1376  158.2353 C   0  0  0  0  0  0  0  0  0  0  0  0
  152.4371  140.0626  157.4110 N   0  0  0  0  0  0  0  0  0  0  0  0
  151.6861  140.3331  156.3476 C   0  0  0  0  0  0  0  0  0  0  0  0
  150.9418  141.4550  156.3879 N   0  0  0  0  0  0  0  0  0  0  0  0
  150.0435  141.9413  155.3570 C   0  0  0  0  0  0  0  0  0  0  0  0
  149.2395  140.8059  154.6942 C   0  0  2  0  0  0  0  0  0  0  0  0
  150.1036  140.1279  153.8049 O   0  0  0  0  0  0  0  0  0  0  0  0
  148.0051  141.3000  153.9076 C   0  0  0  0  0  0  0  0  0  0  0  0
  147.1615  142.2315  154.6993 N   0  3  1  0  0  0  0  0  0  0  0  0
  145.9744  142.7239  153.9513 C   0  0  0  0  0  0  0  0  0  0  0  0
  145.2037  143.7838  154.7618 C   0  0  0  0  0  0  0  0  0  0  0  0
  144.7981  143.2994  156.1701 C   0  0  1  0  0  0  0  0  0  0  0  0
  143.5921  142.3413  156.1477 C   0  0  0  0  0  0  0  0  0  0  0  0
  143.1418  141.9620  154.9491 N   0  0  0  0  0  0  0  0  0  0  0  0
  143.0700  141.9464  157.1879 O   0  0  0  0  0  0  0  0  0  0  0  0
  146.0290  142.6944  156.8783 C   0  0  0  0  0  0  0  0  0  0  0  0
  146.7816  141.6617  156.0169 C   0  0  0  0  0  0  0  0  0  0  0  0
  151.2225  142.0288  157.6237 C   0  0  0  0  0  0  0  0  0  0  0  0
  150.7806  143.1926  158.2773 C   0  0  0  0  0  0  0  0  0  0  0  0
  151.2635  143.4923  159.5683 C   0  0  0  0  0  0  0  0  0  0  0  0
  150.7806  144.7511  160.2665 C   0  0  0  0  0  0  0  0  0  0  0  0
  153.4139  142.1449  161.9210 H   0  0  0  0  0  0  0  0  0  0  0  0
  151.9088  142.9777  162.3044 H   0  0  0  0  0  0  0  0  0  0  0  0
  153.2605  143.8690  161.5893 H   0  0  0  0  0  0  0  0  0  0  0  0
  153.3301  140.7875  160.0047 H   0  0  0  0  0  0  0  0  0  0  0  0
  151.6705  139.6745  155.4915 H   0  0  0  0  0  0  0  0  0  0  0  0
  149.3733  142.6802  155.7985 H   0  0  0  0  0  0  0  0  0  0  0  0
  150.6389  142.4688  154.6101 H   0  0  0  0  0  0  0  0  0  0  0  0
  148.9404  140.1017  155.4701 H   0  0  0  0  0  0  0  0  0  0  0  0
  149.7053  140.1123  152.9477 H   0  0  0  0  0  0  0  0  0  0  0  0
  148.2971  141.8009  152.9841 H   0  0  0  0  0  0  0  0  0  0  0  0
  147.4204  140.4298  153.6050 H   0  0  0  0  0  0  0  0  0  0  0  0
  146.2831  143.1682  153.0060 H   0  0  0  0  0  0  0  0  0  0  0  0
  145.3267  141.8851  153.6943 H   0  0  0  0  0  0  0  0  0  0  0  0
  145.8278  144.6730  154.8611 H   0  0  0  0  0  0  0  0  0  0  0  0
  144.3222  144.1023  154.2035 H   0  0  0  0  0  0  0  0  0  0  0  0
  144.4924  144.1778  156.7417 H   0  0  0  0  0  0  0  0  0  0  0  0
  142.3538  141.3345  154.8782 H   0  0  0  0  0  0  0  0  0  0  0  0
  143.5932  142.3054  154.1132 H   0  0  0  0  0  0  0  0  0  0  0  0
  146.7149  143.5009  157.1410 H   0  0  0  0  0  0  0  0  0  0  0  0
  145.7342  142.2373  157.8243 H   0  0  0  0  0  0  0  0  0  0  0  0
  146.1842  140.7615  155.8702 H   0  0  0  0  0  0  0  0  0  0  0  0
  147.6804  141.3511  156.5511 H   0  0  0  0  0  0  0  0  0  0  0  0
  150.0753  143.8496  157.7905 H   0  0  0  0  0  0  0  0  0  0  0  0
  150.0796  145.3079  159.6440 H   0  0  0  0  0  0  0  0  0  0  0  0
  151.6204  145.4081  160.4940 H   0  0  0  0  0  0  0  0  0  0  0  0
  150.2740  144.5006  161.1988 H   0  0  0  0  0  0  0  0  0  0  0  0
  147.7406  143.0352  154.8978 H   0  0  0  0  0  0  0  0  0  0  0  0
  1  2  1  0  0  0  0
  1 25  1  0  0  0  0
  1 26  1  0  0  0  0
  1 27  1  0  0  0  0
  2 23  1  0  0  0  0
  2  3  2  0  0  0  0
  3  4  1  0  0  0  0
  3 28  1  0  0  0  0
  4 21  2  0  0  0  0
  4  5  1  0  0  0  0
  5  6  2  0  0  0  0
  6  7  1  0  0  0  0
  6 29  1  0  0  0  0
  7  8  1  0  0  0  0
  7 21  1  0  0  0  0
  8  9  1  0  0  0  0
  8 30  1  0  0  0  0
  8 31  1  0  0  0  0
  9 10  1  0  0  0  0
  9 11  1  0  0  0  0
  9 32  1  0  0  0  0
 10 33  1  0  0  0  0
 11 12  1  0  0  0  0
 11 34  1  0  0  0  0
 11 35  1  0  0  0  0
 12 20  1  0  0  0  0
 12 13  1  0  0  0  0
 12 51  1  0  0  0  0
 13 14  1  0  0  0  0
 13 36  1  0  0  0  0
 13 37  1  0  0  0  0
 14 15  1  0  0  0  0
 14 38  1  0  0  0  0
 14 39  1  0  0  0  0
 15 16  1  0  0  0  0
 15 19  1  0  0  0  0
 15 40  1  0  0  0  0
 16 17  1  0  0  0  0
 16 18  2  0  0  0  0
 17 41  1  0  0  0  0
 17 42  1  0  0  0  0
 19 20  1  0  0  0  0
 19 43  1  0  0  0  0
 19 44  1  0  0  0  0
 20 45  1  0  0  0  0
 20 46  1  0  0  0  0
 21 22  1  0  0  0  0
 22 23  2  0  0  0  0
 22 47  1  0  0  0  0
 23 24  1  0  0  0  0
 24 48  1  0  0  0  0
 24 49  1  0  0  0  0
 24 50  1  0  0  0  0
M  CHG  1  12   1
M  END
> <s_m_source_file>
AV-unprocessed.smi

> <i_m_source_file_index>
1695

> <i_lp_mmshare_version>
43012

> <i_f3d_flags>
0

> <s_epik_input>
W0NIM11jKFtjSF0xKWMoW0NIM10pW2NIXWMoYzEyKW4oW2NIXW4yKVtDSDJdW0NASF0oW09IXSlbQ0gyXU4zW0NIMl1bQ0gyXVtDSF0oQyg9TylbTkgyXSlbQ0gyXVtDSDJdMw==

> <s_epik_cmdline>
J2VwaWtfcHl0aG9uJywgJy1waCcsICc3LjAnLCAnLXRuJywgJzgnLCAnLW1hJywgJzIwMCcsICctbWV0YWxfYmluZGluZycsICctaW1hZScsICc8aW5maWxlLm1hZT4nLCAnLW9tYWUnLCAnPG91dGZpbGUubWFlPic=

> <r_epik_Ionization_Penalty>
0.113899

> <r_epik_Ionization_Penalty_Charging>
0.0258844

> <r_epik_Ionization_Penalty_Neutral>
0.0880147

> <r_epik_State_Penalty>
0.0974403

> <r_epik_Charging_Adjusted_Penalty>
0.123325

> <i_epik_Tot_Q>
1

> <i_epik_Tot_abs_Q>
1

> <r_epik_Metal_State_Penalty>
0.0851148

> <b_epik_Metal_Only>
0

> <s_lp_Force_Field>
OPLS_2005

> <r_lp_Energy>
17.7393

> <b_lp_Chiralities_Consistent>
1

> <s_lp_Variant>
AV-unprocessed.smi:1695-1

> <Gold.Version>
5.8.1

> <Gold.Id.Protein>
6NUR|6NUR_protein|mol2

> <Gold.PLP.Fitness>
63.1224

> <Gold.PLP.PLP>
-49.3932

> <Gold.PLP.part.hbond>
-5.9953

> <Gold.PLP.part.metal>
0.0000

> <Gold.PLP.part.buried>
-5.5425

> <Gold.PLP.part.nonpolar>
-36.9505

> <Gold.PLP.part.repulsive>
0.1162

> <Gold.PLP.ligand.clash>
0.0000

> <Gold.PLP.ligand.torsion>
0.5129

> <Gold.PLP.Chemscore.Hbond>
4.8654

> <Gold.PLP.Chemscore.CHOScore>
0.0000

> <Gold.PLP.Chemscore.Metal>
0.0000

> <Gold.Chemscore.Hbonds>
donor molecule, donor type, donor heavy atom, donor atom, acceptor molecule, acceptor atom, score
      L1  H    10    33       P1  7957  1.00
      L1  H    12    51       P1  8028  1.46
      L1  H    17    42       P1 10174  0.13
      P1  H  7989  7998       L1    10  0.82
      P1  H  7997  8008       L1     5  0.81

> <Gold.PLP.Chemscore.Internal.Correction>
0.1588

> <Gold.Rescore>
     Score         DG    S(hbond)    S(metal)    S(lipo)     H(rot)  DE(clash)    DE(int)     intcor
     18.34     -20.52       2.48        0.00     120.11       2.85       0.10       2.09       ----

> <Gold.Chemscore.Fitness>
18.3351

> <Gold.Chemscore.DG>
-20.5214

> <Gold.Chemscore.ZeroCoef>
-5.4800

> <Gold.Chemscore.Hbond>
2.4777

> <Gold.Chemscore.Metal>
0.0000

> <Gold.Chemscore.Lipo>
120.1084

> <Gold.Chemscore.Internal_Hbond>
0.0000

> <Gold.Chemscore.DEClash>
0.0984

> <Gold.Chemscore.DEInternal>
2.0879

> <Gold.Chemscore.Rot>
2.8464

> <Gold.Chemscore.Internal.Correction>
   9.000000E+99

> <Gold.Chemscore.Hbonds>
donor molecule, donor type, donor heavy atom, donor atom, acceptor molecule, acceptor atom, score
      L1  H    10    33       P1  7957  0.99
      L1  H    12    51       P1  8028  0.51
      P1  H  7989  7998       L1    10  0.23
      P1  H  7997  8008       L1     5  0.42

> <Gold.Chemscore.Hbond.Weighted>
-8.2755

> <Gold.Chemscore.Metal.Weighted>
-0.0000

> <Gold.Chemscore.Lipo.Weighted>
-14.0527

> <Gold.Chemscore.Internal_Hbond.Weighted>
0.0000

> <Gold.Chemscore.DEClash.Weighted>
0.0984

> <Gold.Chemscore.DEInternal.Weighted>
2.0879

> <Gold.Chemscore.Rot.Weighted>
7.2867

> <Gold.Chemscore.Internal.Correction.Weighted>
   9.000000E+99

> <Gold.Protein.RotatedTorsions>
[ 6907 6896 6895 6894 ] final -164.31 input  -60.11 | X-H torsion
[ 7974 7965 7964 7962 ] final  -12.72 input  175.53 | X-H torsion
[ 8008 7997 7996 7995 ] final  -74.84 input   59.86 | X-H torsion
[ 10167 10162 10161 10158 ] final -162.32 input  -65.29 | X-H torsion
[ 10718 10713 10712 10709 ] final -145.18 input   66.30 | X-H torsion
[ 10763 10752 10751 10750 ] final  -88.17 input  -60.55 | X-H torsion
[ 11005 11000 10999 10996 ] final  -23.20 input  -57.11 | X-H torsion

> <Gold.Protein.ActiveResidues>
 VAL166  LYS551  ARG553  GLY616  TRP617  ASP618  TYR619  PRO620  LYS621  CYS622 
 ASP623  PHE694  ASN695  SER759  ASP760  ASP761  ALA762  ILE779  LEU786  VAL792 
 PHE793  MET794  SER795  GLU796  ALA797  LYS798  CYS799  TRP800  GLU811  SER814 

> <Gold.Protein.RotatedAtoms>
  151.4099  133.3731  159.2742 H   0  0  0  0  0  0  0  0  0  0  0  0  # atno 6907 bound_to 6896
  150.9371  134.8784  159.7599 H   0  0  0  0  0  0  0  0  0  0  0  0  # atno 6908 bound_to 6896
  152.5055  134.4047  159.9480 H   0  0  0  0  0  0  0  0  0  0  0  0  # atno 6909 bound_to 6896
  146.2141  140.3098  142.8381 H   0  0  0  0  0  0  0  0  0  0  0  0  # atno 7974 bound_to 7965
  154.5365  140.0754  156.8437 H   0  0  0  0  0  0  0  0  0  0  0  0  # atno 8008 bound_to 7997
  155.3267  140.3399  155.4222 H   0  0  0  0  0  0  0  0  0  0  0  0  # atno 8009 bound_to 7997
  156.1833  140.1660  156.8219 H   0  0  0  0  0  0  0  0  0  0  0  0  # atno 8010 bound_to 7997
  139.6401  144.0276  152.2085 H   0  0  0  0  0  0  0  0  0  0  0  0  # atno 10167 bound_to 10162
  156.3793  130.7828  151.2019 H   0  0  0  0  0  0  0  0  0  0  0  0  # atno 10718 bound_to 10713
  154.6417  135.5386  153.7797 H   0  0  0  0  0  0  0  0  0  0  0  0  # atno 10763 bound_to 10752
  153.0337  135.6461  154.1150 H   0  0  0  0  0  0  0  0  0  0  0  0  # atno 10764 bound_to 10752
  154.1074  135.2929  155.3218 H   0  0  0  0  0  0  0  0  0  0  0  0  # atno 10765 bound_to 10752
  140.8729  133.7708  156.0208 H   0  0  0  0  0  0  0  0  0  0  0  0  # atno 11005 bound_to 11000
  144.8996  140.7626  143.5875 LP  0  0  0  0  0  0  0  0  0  0  0  0  # atno 17320 bound_to 7965
  145.3024  139.1846  143.4682 LP  0  0  0  0  0  0  0  0  0  0  0  0  # atno 17321 bound_to 7965
  139.9964  144.6325  150.7769 LP  0  0  0  0  0  0  0  0  0  0  0  0  # atno 17342 bound_to 10162
  140.7486  143.2925  151.3293 LP  0  0  0  0  0  0  0  0  0  0  0  0  # atno 17343 bound_to 10162
  157.7491  131.0349  150.4338 LP  0  0  0  0  0  0  0  0  0  0  0  0  # atno 17370 bound_to 10713
  156.4579  130.4025  149.6595 LP  0  0  0  0  0  0  0  0  0  0  0  0  # atno 17371 bound_to 10713
  140.8552  134.2906  157.5258 LP  0  0  0  0  0  0  0  0  0  0  0  0  # atno 17394 bound_to 11000
  139.8713  134.9489  156.4010 LP  0  0  0  0  0  0  0  0  0  0  0  0  # atno 17395 bound_to 11000

$$$$
