AV-unprocessed.smi:2973|AV-procd|sdf|11344|dock1
  -GOLD-   2272016253D 1   1.00000     0.00000
 Structure written by MMmdl.
 50 52  0  0  0  0  0  0  0  0  2 V2000
  150.3376  132.9567  155.5096 C   0  0  0  0  0  0  0  0  0  0  0  0
  148.9717  133.6741  155.4783 C   0  0  1  0  0  0  0  0  0  0  0  0
  148.0232  133.0915  156.5486 C   0  0  0  0  0  0  0  0  0  0  0  0
  146.6239  133.7216  156.4702 C   0  0  0  0  0  0  0  0  0  0  0  0
  146.6885  135.2506  156.5907 C   0  0  0  0  0  0  0  0  0  0  0  0
  147.6297  135.8531  155.5323 C   0  0  0  0  0  0  0  0  0  0  0  0
  149.0494  135.2320  155.5565 C   0  0  2  0  0  0  0  0  0  0  0  0
  149.8363  135.7748  154.4626 N   0  0  0  0  0  0  0  0  0  0  0  0
  150.8925  136.4866  154.8736 C   0  0  0  0  0  0  0  0  0  0  0  0
  151.6937  137.0582  154.1359 O   0  0  0  0  0  0  0  0  0  0  0  0
  150.9187  136.4657  156.2177 N   0  0  0  0  0  0  0  0  0  0  0  0
  151.9235  137.1618  157.0313 C   0  0  0  0  0  0  0  0  0  0  0  0
  151.9277  138.6809  156.8108 C   0  0  0  0  0  0  0  0  0  0  0  0
  152.8745  139.3735  157.1872 O   0  0  0  0  0  0  0  0  0  0  0  0
  150.8548  139.1854  156.1836 N   0  0  0  0  0  0  0  0  0  0  0  0
  150.6515  140.5958  155.8754 C   0  0  0  0  0  0  0  0  0  0  0  0
  149.9179  141.3271  157.0126 C   0  0  0  0  0  0  0  0  0  0  0  0
  150.8513  142.1961  157.8319 C   0  0  0  0  0  0  0  0  0  0  0  0
  151.7320  141.6532  158.7926 C   0  0  0  0  0  0  0  0  0  0  0  0
  152.5799  142.5176  159.5160 C   0  0  0  0  0  0  0  0  0  0  0  0
  152.5302  143.9044  159.2631 C   0  0  0  0  0  0  0  0  0  0  0  0
  151.6334  144.3922  158.2907 C   0  0  0  0  0  0  0  0  0  0  0  0
  150.8380  143.5319  157.6178 N   0  3  0  0  0  0  0  0  0  0  0  0
  149.8897  135.7682  156.7179 C   0  0  0  0  0  0  0  0  0  0  0  0
  149.6393  135.5800  157.9085 O   0  0  0  0  0  0  0  0  0  0  0  0
  150.8464  133.0943  156.4640 H   0  0  0  0  0  0  0  0  0  0  0  0
  151.0002  133.3162  154.7224 H   0  0  0  0  0  0  0  0  0  0  0  0
  150.2139  131.8840  155.3594 H   0  0  0  0  0  0  0  0  0  0  0  0
  148.5311  133.4338  154.5093 H   0  0  0  0  0  0  0  0  0  0  0  0
  147.9359  132.0127  156.4170 H   0  0  0  0  0  0  0  0  0  0  0  0
  148.4380  133.2396  157.5458 H   0  0  0  0  0  0  0  0  0  0  0  0
  146.1544  133.4506  155.5237 H   0  0  0  0  0  0  0  0  0  0  0  0
  145.9884  133.3144  157.2569 H   0  0  0  0  0  0  0  0  0  0  0  0
  145.6892  135.6713  156.4761 H   0  0  0  0  0  0  0  0  0  0  0  0
  147.0181  135.5269  157.5921 H   0  0  0  0  0  0  0  0  0  0  0  0
  147.1895  135.7037  154.5454 H   0  0  0  0  0  0  0  0  0  0  0  0
  147.6833  136.9342  155.6727 H   0  0  0  0  0  0  0  0  0  0  0  0
  149.5896  135.6359  153.4934 H   0  0  0  0  0  0  0  0  0  0  0  0
  151.7569  136.9672  158.0920 H   0  0  0  0  0  0  0  0  0  0  0  0
  152.9139  136.7601  156.8091 H   0  0  0  0  0  0  0  0  0  0  0  0
  150.1269  138.5446  155.9012 H   0  0  0  0  0  0  0  0  0  0  0  0
  151.6116  141.0729  155.6711 H   0  0  0  0  0  0  0  0  0  0  0  0
  150.0711  140.6581  154.9547 H   0  0  0  0  0  0  0  0  0  0  0  0
  149.1211  141.9505  156.6041 H   0  0  0  0  0  0  0  0  0  0  0  0
  149.4349  140.6093  157.6771 H   0  0  0  0  0  0  0  0  0  0  0  0
  151.7602  140.5881  158.9727 H   0  0  0  0  0  0  0  0  0  0  0  0
  153.2607  142.1217  160.2554 H   0  0  0  0  0  0  0  0  0  0  0  0
  153.1712  144.5832  159.8064 H   0  0  0  0  0  0  0  0  0  0  0  0
  151.5288  145.4359  158.0324 H   0  0  0  0  0  0  0  0  0  0  0  0
  150.1967  143.9072  156.9187 H   0  0  0  0  0  0  0  0  0  0  0  0
  1  2  1  0  0  0  0
  1 26  1  0  0  0  0
  1 27  1  0  0  0  0
  1 28  1  0  0  0  0
  2  7  1  0  0  0  0
  2  3  1  0  0  0  0
  2 29  1  0  0  0  0
  3  4  1  0  0  0  0
  3 30  1  0  0  0  0
  3 31  1  0  0  0  0
  4  5  1  0  0  0  0
  4 32  1  0  0  0  0
  4 33  1  0  0  0  0
  5  6  1  0  0  0  0
  5 34  1  0  0  0  0
  5 35  1  0  0  0  0
  6  7  1  0  0  0  0
  6 36  1  0  0  0  0
  6 37  1  0  0  0  0
  7 24  1  0  0  0  0
  7  8  1  0  0  0  0
  8  9  1  0  0  0  0
  8 38  1  0  0  0  0
  9 10  2  0  0  0  0
  9 11  1  0  0  0  0
 11 12  1  0  0  0  0
 11 24  1  0  0  0  0
 12 13  1  0  0  0  0
 12 39  1  0  0  0  0
 12 40  1  0  0  0  0
 13 14  2  0  0  0  0
 13 15  1  0  0  0  0
 15 16  1  0  0  0  0
 15 41  1  0  0  0  0
 16 17  1  0  0  0  0
 16 42  1  0  0  0  0
 16 43  1  0  0  0  0
 17 18  1  0  0  0  0
 17 44  1  0  0  0  0
 17 45  1  0  0  0  0
 18 23  1  0  0  0  0
 18 19  2  0  0  0  0
 19 20  1  0  0  0  0
 19 46  1  0  0  0  0
 20 21  2  0  0  0  0
 20 47  1  0  0  0  0
 21 22  1  0  0  0  0
 21 48  1  0  0  0  0
 22 23  2  0  0  0  0
 22 49  1  0  0  0  0
 23 50  1  0  0  0  0
 24 25  2  0  0  0  0
M  CHG  1  23   1
M  END
> <s_m_source_file>
AV-unprocessed.smi

> <i_m_source_file_index>
2973

> <i_lp_mmshare_version>
43012

> <i_f3d_flags>
0

> <s_epik_input>
W0NIMl0xW0NIMl1bQ0gyXVtDSDJdW0NAQEhdKFtDSDNdKVtDQF0xMltOSF1DKD1PKU4oQzI9TylbQ0gyXUMoPU8pW05IXVtDSDJdW0NIMl1jM1tjSF1bY0hdW2NIXVtjSF1uMw==

> <s_epik_cmdline>
J2VwaWtfcHl0aG9uJywgJy1waCcsICc3LjAnLCAnLXRuJywgJzgnLCAnLW1hJywgJzIwMCcsICctbWV0YWxfYmluZGluZycsICctaW1hZScsICc8aW5maWxlLm1hZT4nLCAnLW9tYWUnLCAnPG91dGZpbGUubWFlPic=

> <r_lp_tautomer_probability>
1

> <r_epik_Ionization_Penalty>
1.90043

> <r_epik_Ionization_Penalty_Charging>
1.90039

> <r_epik_Ionization_Penalty_Neutral>
4.65525e-05

> <r_epik_State_Penalty>
2.02162

> <r_epik_Charging_Adjusted_Penalty>
3.922

> <i_epik_Tot_Q>
1

> <i_epik_Tot_abs_Q>
1

> <r_epik_Metal_State_Penalty>
2.06631

> <b_epik_Metal_Only>
0

> <s_lp_Force_Field>
OPLS_2005

> <r_lp_Energy>
22.9905

> <b_lp_Chiralities_Consistent>
1

> <s_lp_Variant>
AV-unprocessed.smi:2973-8

> <Gold.Version>
5.8.1

> <Gold.Id.Protein>
6NUR|6NUR_protein|mol2

> <Gold.PLP.Fitness>
51.1219

> <Gold.PLP.PLP>
-34.9459

> <Gold.PLP.part.hbond>
-5.0000

> <Gold.PLP.part.metal>
0.0000

> <Gold.PLP.part.buried>
-6.6980

> <Gold.PLP.part.nonpolar>
-26.4285

> <Gold.PLP.part.repulsive>
1.3386

> <Gold.PLP.ligand.clash>
0.0000

> <Gold.PLP.ligand.torsion>
0.9280

> <Gold.PLP.Chemscore.Hbond>
5.9825

> <Gold.PLP.Chemscore.CHOScore>
0.0000

> <Gold.PLP.Chemscore.Metal>
0.0000

> <Gold.Chemscore.Hbonds>
donor molecule, donor type, donor heavy atom, donor atom, acceptor molecule, acceptor atom, score
      L1  H     8    38       P1  7948  0.80
      L1  H    23    50       P1  8028  2.00
      P1  H  6896  6907       L1    25  0.50
      P1  H  7997  8008       L1    14  1.00
      P1  H 10752 10765       L1    10  0.80

> <Gold.PLP.Chemscore.Internal.Correction>
0.0845

> <Gold.Rescore>
     Score         DG    S(hbond)    S(metal)    S(lipo)     H(rot)  DE(clash)    DE(int)     intcor
     22.52     -23.53       3.86        0.00      87.11       1.96       0.04       0.97       ----

> <Gold.Chemscore.Fitness>
22.5158

> <Gold.Chemscore.DG>
-23.5316

> <Gold.Chemscore.ZeroCoef>
-5.4800

> <Gold.Chemscore.Hbond>
3.8585

> <Gold.Chemscore.Metal>
0.0000

> <Gold.Chemscore.Lipo>
87.1083

> <Gold.Chemscore.Internal_Hbond>
0.0000

> <Gold.Chemscore.DEClash>
0.0432

> <Gold.Chemscore.DEInternal>
0.9726

> <Gold.Chemscore.Rot>
1.9638

> <Gold.Chemscore.Internal.Correction>
   9.000000E+99

> <Gold.Chemscore.Hbonds>
donor molecule, donor type, donor heavy atom, donor atom, acceptor molecule, acceptor atom, score
      L1  H     8    38       P1  7948  0.12
      L1  H    23    50       P1  8028  0.97
      P1  H  6896  6907       L1    25  0.48
      P1  H  7997  8008       L1    14  1.00
      P1  H 10752 10765       L1    10  0.12

> <Gold.Chemscore.Hbond.Weighted>
-12.8873

> <Gold.Chemscore.Metal.Weighted>
-0.0000

> <Gold.Chemscore.Lipo.Weighted>
-10.1917

> <Gold.Chemscore.Internal_Hbond.Weighted>
0.0000

> <Gold.Chemscore.DEClash.Weighted>
0.0432

> <Gold.Chemscore.DEInternal.Weighted>
0.9726

> <Gold.Chemscore.Rot.Weighted>
5.0274

> <Gold.Chemscore.Internal.Correction.Weighted>
   9.000000E+99

> <Gold.Protein.RotatedTorsions>
[ 6907 6896 6895 6894 ] final  -56.59 input  -60.11 | X-H torsion
[ 7974 7965 7964 7962 ] final  156.51 input  175.53 | X-H torsion
[ 8008 7997 7996 7995 ] final  -59.63 input   59.86 | X-H torsion
[ 10167 10162 10161 10158 ] final   76.73 input  -65.29 | X-H torsion
[ 10718 10713 10712 10709 ] final  -49.04 input   66.30 | X-H torsion
[ 10763 10752 10751 10750 ] final  153.18 input  -60.55 | X-H torsion
[ 11005 11000 10999 10996 ] final -123.51 input  -57.11 | X-H torsion

> <Gold.Protein.ActiveResidues>
 VAL166  LYS551  ARG553  GLY616  TRP617  ASP618  TYR619  PRO620  LYS621  CYS622 
 ASP623  PHE694  ASN695  SER759  ASP760  ASP761  ALA762  ILE779  LEU786  VAL792 
 PHE793  MET794  SER795  GLU796  ALA797  LYS798  CYS799  TRP800  GLU811  SER814 

> <Gold.Protein.RotatedAtoms>
  150.8155  134.7335  159.6726 H   0  0  0  0  0  0  0  0  0  0  0  0  # atno 6907 bound_to 6896
  152.4274  134.5839  159.9965 H   0  0  0  0  0  0  0  0  0  0  0  0  # atno 6908 bound_to 6896
  151.6037  133.3316  159.3089 H   0  0  0  0  0  0  0  0  0  0  0  0  # atno 6909 bound_to 6896
  144.7959  139.7213  143.6202 H   0  0  0  0  0  0  0  0  0  0  0  0  # atno 7974 bound_to 7965
  154.4361  140.1057  156.6146 H   0  0  0  0  0  0  0  0  0  0  0  0  # atno 8008 bound_to 7997
  155.5773  140.3490  155.4512 H   0  0  0  0  0  0  0  0  0  0  0  0  # atno 8009 bound_to 7997
  156.0345  140.1268  157.0212 H   0  0  0  0  0  0  0  0  0  0  0  0  # atno 8010 bound_to 7997
  139.9891  144.5770  150.7833 H   0  0  0  0  0  0  0  0  0  0  0  0  # atno 10167 bound_to 10162
  156.1931  130.4153  149.9344 H   0  0  0  0  0  0  0  0  0  0  0  0  # atno 10718 bound_to 10713
  154.1321  135.2826  155.3182 H   0  0  0  0  0  0  0  0  0  0  0  0  # atno 10763 bound_to 10752
  154.6348  135.5423  153.7725 H   0  0  0  0  0  0  0  0  0  0  0  0  # atno 10764 bound_to 10752
  153.0278  135.6471  154.1471 H   0  0  0  0  0  0  0  0  0  0  0  0  # atno 10765 bound_to 10752
  140.9913  134.0534  157.3650 H   0  0  0  0  0  0  0  0  0  0  0  0  # atno 11005 bound_to 11000
  146.2227  139.5665  142.9608 LP  0  0  0  0  0  0  0  0  0  0  0  0  # atno 17320 bound_to 7965
  145.5675  141.0398  143.2192 LP  0  0  0  0  0  0  0  0  0  0  0  0  # atno 17321 bound_to 7965
  140.7461  143.2886  151.3394 LP  0  0  0  0  0  0  0  0  0  0  0  0  # atno 17342 bound_to 10162
  139.6353  144.0642  152.2510 LP  0  0  0  0  0  0  0  0  0  0  0  0  # atno 17343 bound_to 10162
  156.7078  130.8958  151.3606 LP  0  0  0  0  0  0  0  0  0  0  0  0  # atno 17370 bound_to 10713
  157.6941  130.9264  150.0595 LP  0  0  0  0  0  0  0  0  0  0  0  0  # atno 17371 bound_to 10713
  139.8994  135.0158  156.7192 LP  0  0  0  0  0  0  0  0  0  0  0  0  # atno 17394 bound_to 11000
  140.7035  133.9285  155.8039 LP  0  0  0  0  0  0  0  0  0  0  0  0  # atno 17395 bound_to 11000

$$$$
