AV-unprocessed.smi:2405|AV-procd|sdf|9512|dock8
  -GOLD-   2272013143D 1   1.00000     0.00000
 Structure written by MMmdl.
 36 37  0  0  0  0  0  0  0  0  2 V2000
  152.3179  143.1217  162.0200 C   0  0  0  0  0  0  0  0  0  0  0  0
  153.0305  142.4170  160.8608 C   0  0  0  0  0  0  0  0  0  0  0  0
  152.4378  142.7593  159.5355 C   0  0  0  0  0  0  0  0  0  0  0  0
  152.0207  141.8435  158.6578 N   0  0  0  0  0  0  0  0  0  0  0  0
  151.4495  142.4118  157.5139 C   0  0  0  0  0  0  0  0  0  0  0  0
  150.9057  141.5302  156.4249 C   0  0  0  0  0  0  0  0  0  0  0  0
  151.4038  140.0915  156.5904 C   0  0  0  0  0  0  0  0  0  0  0  0
  152.6016  139.8380  156.4641 O   0  0  0  0  0  0  0  0  0  0  0  0
  150.4772  139.1616  156.8717 N   0  0  0  0  0  0  0  0  0  0  0  0
  150.7500  137.7518  157.1306 C   0  0  2  0  0  0  0  0  0  0  0  0
  151.5417  137.1346  155.9626 C   0  0  0  0  0  0  0  0  0  0  0  0
  150.5795  136.1690  155.2637 C   0  0  0  0  0  0  0  0  0  0  0  0
  149.6366  135.6795  156.3697 C   0  0  1  0  0  0  0  0  0  0  0  0
  150.2641  134.4933  157.1301 C   0  0  0  0  0  0  0  0  0  0  0  0
  149.6552  134.0141  158.1128 O   0  0  0  0  0  0  0  0  0  0  0  0
  151.3697  134.0878  156.7089 O   0  5  0  0  0  0  0  0  0  0  0  0
  149.4437  136.9353  157.2405 C   0  0  0  0  0  0  0  0  0  0  0  0
  151.4500  143.7851  157.5368 C   0  0  0  0  0  0  0  0  0  0  0  0
  152.1463  144.4116  159.0053 S   0  0  0  0  0  0  0  0  0  0  0  0
  152.7704  142.8546  162.9751 H   0  0  0  0  0  0  0  0  0  0  0  0
  151.2642  142.8434  162.0611 H   0  0  0  0  0  0  0  0  0  0  0  0
  152.3738  144.2056  161.9153 H   0  0  0  0  0  0  0  0  0  0  0  0
  154.0862  142.6893  160.8521 H   0  0  0  0  0  0  0  0  0  0  0  0
  152.9872  141.3359  160.9986 H   0  0  0  0  0  0  0  0  0  0  0  0
  149.8152  141.5272  156.4368 H   0  0  0  0  0  0  0  0  0  0  0  0
  151.2027  141.9068  155.4451 H   0  0  0  0  0  0  0  0  0  0  0  0
  149.5165  139.4602  156.9549 H   0  0  0  0  0  0  0  0  0  0  0  0
  151.3364  137.6518  158.0461 H   0  0  0  0  0  0  0  0  0  0  0  0
  151.9469  137.8759  155.2725 H   0  0  0  0  0  0  0  0  0  0  0  0
  152.3889  136.5738  156.3599 H   0  0  0  0  0  0  0  0  0  0  0  0
  150.0025  136.7061  154.5099 H   0  0  0  0  0  0  0  0  0  0  0  0
  151.1071  135.3632  154.7510 H   0  0  0  0  0  0  0  0  0  0  0  0
  148.6847  135.3459  155.9544 H   0  0  0  0  0  0  0  0  0  0  0  0
  149.1845  136.7154  158.2771 H   0  0  0  0  0  0  0  0  0  0  0  0
  148.6048  137.5046  156.8360 H   0  0  0  0  0  0  0  0  0  0  0  0
  151.0716  144.4635  156.7869 H   0  0  0  0  0  0  0  0  0  0  0  0
  1  2  1  0  0  0  0
  1 20  1  0  0  0  0
  1 21  1  0  0  0  0
  1 22  1  0  0  0  0
  2  3  1  0  0  0  0
  2 23  1  0  0  0  0
  2 24  1  0  0  0  0
  3 19  1  0  0  0  0
  3  4  2  0  0  0  0
  4  5  1  0  0  0  0
  5  6  1  0  0  0  0
  5 18  2  0  0  0  0
  6  7  1  0  0  0  0
  6 25  1  0  0  0  0
  6 26  1  0  0  0  0
  7  8  2  0  0  0  0
  7  9  1  0  0  0  0
  9 10  1  0  0  0  0
  9 27  1  0  0  0  0
 10 17  1  0  0  0  0
 10 11  1  0  0  0  0
 10 28  1  0  0  0  0
 11 12  1  0  0  0  0
 11 29  1  0  0  0  0
 11 30  1  0  0  0  0
 12 13  1  0  0  0  0
 12 31  1  0  0  0  0
 12 32  1  0  0  0  0
 13 14  1  0  0  0  0
 13 17  1  0  0  0  0
 13 33  1  0  0  0  0
 14 15  2  0  0  0  0
 14 16  1  0  0  0  0
 17 34  1  0  0  0  0
 17 35  1  0  0  0  0
 18 19  1  0  0  0  0
 18 36  1  0  0  0  0
M  CHG  1  16  -1
M  END
> <s_m_source_file>
AV-unprocessed.smi

> <i_m_source_file_index>
2405

> <i_lp_mmshare_version>
43012

> <i_f3d_flags>
0

> <s_epik_input>
W0NIM11bQ0gyXWMxbmMoW2NIXXMxKVtDSDJdQyg9TylbTkhdW0NAQEhdMltDSDJdW0NIMl1bQ0BIXShbQ0gyXTIpQyg9TylbT0hd

> <s_epik_cmdline>
J2VwaWtfcHl0aG9uJywgJy1waCcsICc3LjAnLCAnLXRuJywgJzgnLCAnLW1hJywgJzIwMCcsICctbWV0YWxfYmluZGluZycsICctaW1hZScsICc8aW5maWxlLm1hZT4nLCAnLW9tYWUnLCAnPG91dGZpbGUubWFlPic=

> <r_epik_Ionization_Penalty>
0.000544611

> <r_epik_Ionization_Penalty_Charging>
0.000481685

> <r_epik_Ionization_Penalty_Neutral>
6.29266e-05

> <r_epik_State_Penalty>
0.00029893

> <r_epik_Charging_Adjusted_Penalty>
0.000780614

> <i_epik_Tot_Q>
-1

> <i_epik_Tot_abs_Q>
1

> <r_epik_Metal_State_Penalty>
-0

> <b_epik_Metal_Only>
0

> <s_lp_Force_Field>
OPLS_2005

> <r_lp_Energy>
8.39141

> <b_lp_Chiralities_Consistent>
1

> <s_lp_Variant>
AV-unprocessed.smi:2405-1

> <Gold.Version>
5.8.1

> <Gold.Id.Protein>
6NUR|6NUR_protein|mol2

> <Gold.PLP.Fitness>
46.5881

> <Gold.PLP.PLP>
-35.2482

> <Gold.PLP.part.hbond>
-2.0000

> <Gold.PLP.part.metal>
0.0000

> <Gold.PLP.part.buried>
-4.3447

> <Gold.PLP.part.nonpolar>
-29.5635

> <Gold.PLP.part.repulsive>
0.0086

> <Gold.PLP.ligand.clash>
0.0000

> <Gold.PLP.ligand.torsion>
0.3249

> <Gold.PLP.Chemscore.Hbond>
2.9840

> <Gold.PLP.Chemscore.CHOScore>
1.0000

> <Gold.PLP.Chemscore.Metal>
0.0000

> <Gold.Chemscore.Hbonds>
donor molecule, donor type, donor heavy atom, donor atom, acceptor molecule, acceptor atom, score
      P1  H  6896  6907       L1    15  1.92
      P1  H  7997  8009       L1     8  1.00
      L1  C    18    36       P1  8028  1.00

> <Gold.PLP.Chemscore.Internal.Correction>
0.0377

> <Gold.Rescore>
     Score         DG    S(hbond)    S(metal)    S(lipo)     H(rot)  DE(clash)    DE(int)     intcor
     17.22     -17.76       1.96        0.00      94.21       2.06       0.08       0.47       ----

> <Gold.Chemscore.Fitness>
17.2151

> <Gold.Chemscore.DG>
-17.7587

> <Gold.Chemscore.ZeroCoef>
-5.4800

> <Gold.Chemscore.Hbond>
1.9576

> <Gold.Chemscore.Metal>
0.0000

> <Gold.Chemscore.Lipo>
94.2120

> <Gold.Chemscore.Internal_Hbond>
0.0000

> <Gold.Chemscore.DEClash>
0.0780

> <Gold.Chemscore.DEInternal>
0.4657

> <Gold.Chemscore.Rot>
2.0635

> <Gold.Chemscore.Internal.Correction>
   9.000000E+99

> <Gold.Chemscore.Hbonds>
donor molecule, donor type, donor heavy atom, donor atom, acceptor molecule, acceptor atom, score
      P1  H  6896  6907       L1    15  0.46
      P1  H  7997  8009       L1     8  1.00

> <Gold.Chemscore.Hbond.Weighted>
-6.5384

> <Gold.Chemscore.Metal.Weighted>
-0.0000

> <Gold.Chemscore.Lipo.Weighted>
-11.0228

> <Gold.Chemscore.Internal_Hbond.Weighted>
0.0000

> <Gold.Chemscore.DEClash.Weighted>
0.0780

> <Gold.Chemscore.DEInternal.Weighted>
0.4657

> <Gold.Chemscore.Rot.Weighted>
5.2825

> <Gold.Chemscore.Internal.Correction.Weighted>
   9.000000E+99

> <Gold.Protein.RotatedTorsions>
[ 6907 6896 6895 6894 ] final -126.05 input  -60.11 | X-H torsion
[ 7974 7965 7964 7962 ] final -174.00 input  175.53 | X-H torsion
[ 8008 7997 7996 7995 ] final -166.14 input   59.86 | X-H torsion
[ 10167 10162 10161 10158 ] final  -16.58 input  -65.29 | X-H torsion
[ 10718 10713 10712 10709 ] final  139.11 input   66.30 | X-H torsion
[ 10763 10752 10751 10750 ] final   -1.86 input  -60.55 | X-H torsion
[ 11005 11000 10999 10996 ] final -113.43 input  -57.11 | X-H torsion

> <Gold.Protein.ActiveResidues>
 VAL166  LYS551  ARG553  GLY616  TRP617  ASP618  TYR619  PRO620  LYS621  CYS622 
 ASP623  PHE694  ASN695  SER759  ASP760  ASP761  ALA762  ILE779  LEU786  VAL792 
 PHE793  MET794  SER795  GLU796  ALA797  LYS798  CYS799  TRP800  GLU811  SER814 

> <Gold.Protein.RotatedAtoms>
  150.8930  133.7218  159.2899 H   0  0  0  0  0  0  0  0  0  0  0  0  # atno 6907 bound_to 6896
  151.4762  135.1048  159.9775 H   0  0  0  0  0  0  0  0  0  0  0  0  # atno 6908 bound_to 6896
  152.4831  133.8257  159.7132 H   0  0  0  0  0  0  0  0  0  0  0  0  # atno 6909 bound_to 6896
  144.7134  140.1537  143.6382 H   0  0  0  0  0  0  0  0  0  0  0  0  # atno 7974 bound_to 7965
  155.8597  140.0976  157.1621 H   0  0  0  0  0  0  0  0  0  0  0  0  # atno 8008 bound_to 7997
  154.3990  140.1367  156.4008 H   0  0  0  0  0  0  0  0  0  0  0  0  # atno 8009 bound_to 7997
  155.7870  140.3457  155.5331 H   0  0  0  0  0  0  0  0  0  0  0  0  # atno 8010 bound_to 7997
  140.7235  143.5102  150.9760 H   0  0  0  0  0  0  0  0  0  0  0  0  # atno 10167 bound_to 10162
  157.4180  131.1035  151.0384 H   0  0  0  0  0  0  0  0  0  0  0  0  # atno 10718 bound_to 10713
  153.3504  135.6985  153.6793 H   0  0  0  0  0  0  0  0  0  0  0  0  # atno 10763 bound_to 10752
  153.5522  135.3551  155.2765 H   0  0  0  0  0  0  0  0  0  0  0  0  # atno 10764 bound_to 10752
  154.8652  135.4229  154.2738 H   0  0  0  0  0  0  0  0  0  0  0  0  # atno 10765 bound_to 10752
  141.0615  133.9528  157.2658 H   0  0  0  0  0  0  0  0  0  0  0  0  # atno 11005 bound_to 11000
  145.9093  139.2477  143.1447 LP  0  0  0  0  0  0  0  0  0  0  0  0  # atno 17320 bound_to 7965
  145.9732  140.8743  143.0152 LP  0  0  0  0  0  0  0  0  0  0  0  0  # atno 17321 bound_to 7965
  139.8815  143.7066  152.3156 LP  0  0  0  0  0  0  0  0  0  0  0  0  # atno 17342 bound_to 10162
  139.7350  144.7573  151.0742 LP  0  0  0  0  0  0  0  0  0  0  0  0  # atno 17343 bound_to 10162
  157.1325  130.6108  149.5533 LP  0  0  0  0  0  0  0  0  0  0  0  0  # atno 17370 bound_to 10713
  155.9871  130.4909  150.7111 LP  0  0  0  0  0  0  0  0  0  0  0  0  # atno 17371 bound_to 10713
  139.9437  135.0187  156.8786 LP  0  0  0  0  0  0  0  0  0  0  0  0  # atno 17394 bound_to 11000
  140.5860  134.0307  155.7481 LP  0  0  0  0  0  0  0  0  0  0  0  0  # atno 17395 bound_to 11000

$$$$
