AV-unprocessed.smi:669|AV-procd|sdf|3264|dock1
  -GOLD-   22720 0213D 1   1.00000     0.00000
 Structure written by MMmdl.
 37 38  0  0  0  0  0  0  0  0  1 V2000
  151.3755  144.5634  159.8446 C   0  0  0  0  0  0  0  0  0  0  0  0
  151.9794  143.2138  159.5910 C   0  0  0  0  0  0  0  0  0  0  0  0
  152.9161  142.5863  160.5025 C   0  0  0  0  0  0  0  0  0  0  0  0
  153.4278  141.3754  160.1945 C   0  0  0  0  0  0  0  0  0  0  0  0
  153.0578  140.6734  158.9674 C   0  0  0  0  0  0  0  0  0  0  0  0
  153.5292  139.5817  158.6507 O   0  0  0  0  0  0  0  0  0  0  0  0
  152.1447  141.3438  158.2046 N   0  0  0  0  0  0  0  0  0  0  0  0
  151.6390  140.7753  156.9446 C   0  0  0  0  0  0  0  0  0  0  0  0
  150.3538  141.4586  156.3917 C   0  0  1  0  0  0  0  0  0  0  0  0
  150.6456  142.8343  156.2241 O   0  0  0  0  0  0  0  0  0  0  0  0
  149.8605  140.8736  155.0437 C   0  0  0  0  0  0  0  0  0  0  0  0
  148.5161  141.4633  154.5815 C   0  0  0  0  0  0  0  0  0  0  0  0
  147.4265  141.3151  155.6570 C   0  0  2  0  0  0  0  0  0  0  0  0
  146.0863  141.8965  155.1847 C   0  0  0  0  0  0  0  0  0  0  0  0
  147.8916  141.9648  156.9716 C   0  0  0  0  0  0  0  0  0  0  0  0
  149.2297  141.3744  157.4526 C   0  0  0  0  0  0  0  0  0  0  0  0
  151.6376  142.5987  158.5070 N   0  0  0  0  0  0  0  0  0  0  0  0
  151.7584  144.9997  160.7675 H   0  0  0  0  0  0  0  0  0  0  0  0
  150.2910  144.4927  159.9336 H   0  0  0  0  0  0  0  0  0  0  0  0
  151.6050  145.2513  159.0303 H   0  0  0  0  0  0  0  0  0  0  0  0
  153.1997  143.0908  161.4146 H   0  0  0  0  0  0  0  0  0  0  0  0
  154.1282  140.9103  160.8724 H   0  0  0  0  0  0  0  0  0  0  0  0
  152.4331  140.8720  156.2016 H   0  0  0  0  0  0  0  0  0  0  0  0
  151.4911  139.6974  157.0370 H   0  0  0  0  0  0  0  0  0  0  0  0
  149.8519  143.2799  155.9710 H   0  0  0  0  0  0  0  0  0  0  0  0
  150.6028  141.0340  154.2610 H   0  0  0  0  0  0  0  0  0  0  0  0
  149.7501  139.7930  155.1420 H   0  0  0  0  0  0  0  0  0  0  0  0
  148.6453  142.5163  154.3276 H   0  0  0  0  0  0  0  0  0  0  0  0
  148.2013  140.9653  153.6638 H   0  0  0  0  0  0  0  0  0  0  0  0
  147.2760  140.2503  155.8409 H   0  0  0  0  0  0  0  0  0  0  0  0
  146.1664  142.9645  154.9793 H   0  0  0  0  0  0  0  0  0  0  0  0
  145.3114  141.7600  155.9394 H   0  0  0  0  0  0  0  0  0  0  0  0
  145.7459  141.4068  154.2719 H   0  0  0  0  0  0  0  0  0  0  0  0
  147.9887  143.0431  156.8389 H   0  0  0  0  0  0  0  0  0  0  0  0
  147.1353  141.8209  157.7439 H   0  0  0  0  0  0  0  0  0  0  0  0
  149.0642  140.3295  157.7192 H   0  0  0  0  0  0  0  0  0  0  0  0
  149.5403  141.8724  158.3724 H   0  0  0  0  0  0  0  0  0  0  0  0
  1  2  1  0  0  0  0
  1 18  1  0  0  0  0
  1 19  1  0  0  0  0
  1 20  1  0  0  0  0
  2 17  2  0  0  0  0
  2  3  1  0  0  0  0
  3  4  2  0  0  0  0
  3 21  1  0  0  0  0
  4  5  1  0  0  0  0
  4 22  1  0  0  0  0
  5  6  2  0  0  0  0
  5  7  1  0  0  0  0
  7  8  1  0  0  0  0
  7 17  1  0  0  0  0
  8  9  1  0  0  0  0
  8 23  1  0  0  0  0
  8 24  1  0  0  0  0
  9 16  1  0  0  0  0
  9 10  1  0  0  0  0
  9 11  1  0  0  0  0
 10 25  1  0  0  0  0
 11 12  1  0  0  0  0
 11 26  1  0  0  0  0
 11 27  1  0  0  0  0
 12 13  1  0  0  0  0
 12 28  1  0  0  0  0
 12 29  1  0  0  0  0
 13 14  1  0  0  0  0
 13 15  1  0  0  0  0
 13 30  1  0  0  0  0
 14 31  1  0  0  0  0
 14 32  1  0  0  0  0
 14 33  1  0  0  0  0
 15 16  1  0  0  0  0
 15 34  1  0  0  0  0
 15 35  1  0  0  0  0
 16 36  1  0  0  0  0
 16 37  1  0  0  0  0
M  END
> <s_m_source_file>
AV-unprocessed.smi

> <i_m_source_file_index>
669

> <i_lp_mmshare_version>
43012

> <i_f3d_flags>
0

> <s_epik_input>
W0NIM11jMVtjSF1bY0hdYyg9TyluKG4xKVtDSDJdW0NAQF0yKFtPSF0pW0NIMl1bQ0gyXVtDQEBIXShbQ0gzXSlbQ0gyXVtDSDJdMg==

> <s_epik_cmdline>
J2VwaWtfcHl0aG9uJywgJy1waCcsICc3LjAnLCAnLXRuJywgJzgnLCAnLW1hJywgJzIwMCcsICctbWV0YWxfYmluZGluZycsICctaW1hZScsICc8aW5maWxlLm1hZT4nLCAnLW9tYWUnLCAnPG91dGZpbGUubWFlPic=

> <r_lp_tautomer_probability>
1

> <r_epik_Ionization_Penalty>
1.6993e-05

> <r_epik_Ionization_Penalty_Charging>
1.61671e-05

> <r_epik_Ionization_Penalty_Neutral>
8.25878e-07

> <r_epik_State_Penalty>
-0

> <r_epik_Charging_Adjusted_Penalty>
1.61671e-05

> <i_epik_Tot_Q>
0

> <i_epik_Tot_abs_Q>
0

> <r_epik_Metal_State_Penalty>
-0

> <b_epik_Metal_Only>
0

> <s_lp_Force_Field>
OPLS_2005

> <r_lp_Energy>
31.8512

> <b_lp_Chiralities_Consistent>
1

> <s_lp_Variant>
AV-unprocessed.smi:669-2

> <Gold.Version>
5.8.1

> <Gold.Id.Protein>
6NUR|6NUR_protein|mol2

> <Gold.PLP.Fitness>
41.4733

> <Gold.PLP.PLP>
-35.8871

> <Gold.PLP.part.hbond>
-2.0000

> <Gold.PLP.part.metal>
0.0000

> <Gold.PLP.part.buried>
-3.4919

> <Gold.PLP.part.nonpolar>
-29.7225

> <Gold.PLP.part.repulsive>
0.0253

> <Gold.PLP.ligand.clash>
0.0000

> <Gold.PLP.ligand.torsion>
0.2107

> <Gold.PLP.Chemscore.Hbond>
2.0000

> <Gold.PLP.Chemscore.CHOScore>
0.0000

> <Gold.PLP.Chemscore.Metal>
0.0000

> <Gold.Chemscore.Hbonds>
donor molecule, donor type, donor heavy atom, donor atom, acceptor molecule, acceptor atom, score
      L1  H    10    25       P1  8028  1.00
      P1  H  7997  8009       L1     6  1.00

> <Gold.PLP.Chemscore.Internal.Correction>
0.0077

> <Gold.Rescore>
     Score         DG    S(hbond)    S(metal)    S(lipo)     H(rot)  DE(clash)    DE(int)     intcor
     14.35     -17.64       1.88        0.00      85.77       1.62       0.11       3.18       ----

> <Gold.Chemscore.Fitness>
14.3548

> <Gold.Chemscore.DG>
-17.6430

> <Gold.Chemscore.ZeroCoef>
-5.4800

> <Gold.Chemscore.Hbond>
1.8762

> <Gold.Chemscore.Metal>
0.0000

> <Gold.Chemscore.Lipo>
85.7738

> <Gold.Chemscore.Internal_Hbond>
0.0000

> <Gold.Chemscore.DEClash>
0.1093

> <Gold.Chemscore.DEInternal>
3.1788

> <Gold.Chemscore.Rot>
1.6168

> <Gold.Chemscore.Internal.Correction>
   9.000000E+99

> <Gold.Chemscore.Hbonds>
donor molecule, donor type, donor heavy atom, donor atom, acceptor molecule, acceptor atom, score
      L1  H    10    25       P1  8028  0.97
      P1  H  7997  8009       L1     6  0.42

> <Gold.Chemscore.Hbond.Weighted>
-6.2666

> <Gold.Chemscore.Metal.Weighted>
-0.0000

> <Gold.Chemscore.Lipo.Weighted>
-10.0355

> <Gold.Chemscore.Internal_Hbond.Weighted>
0.0000

> <Gold.Chemscore.DEClash.Weighted>
0.1093

> <Gold.Chemscore.DEInternal.Weighted>
3.1788

> <Gold.Chemscore.Rot.Weighted>
4.1391

> <Gold.Chemscore.Internal.Correction.Weighted>
   9.000000E+99

> <Gold.Protein.RotatedTorsions>
[ 6907 6896 6895 6894 ] final -165.21 input  -60.11 | X-H torsion
[ 7974 7965 7964 7962 ] final   79.16 input  175.53 | X-H torsion
[ 8008 7997 7996 7995 ] final  130.01 input   59.86 | X-H torsion
[ 10167 10162 10161 10158 ] final  124.07 input  -65.29 | X-H torsion
[ 10718 10713 10712 10709 ] final  151.39 input   66.30 | X-H torsion
[ 10763 10752 10751 10750 ] final  103.57 input  -60.55 | X-H torsion
[ 11005 11000 10999 10996 ] final   27.76 input  -57.11 | X-H torsion

> <Gold.Protein.ActiveResidues>
 VAL166  LYS551  ARG553  GLY616  TRP617  ASP618  TYR619  PRO620  LYS621  CYS622 
 ASP623  PHE694  ASN695  SER759  ASP760  ASP761  ALA762  ILE779  LEU786  VAL792 
 PHE793  MET794  SER795  GLU796  ALA797  LYS798  CYS799  TRP800  GLU811  SER814 

> <Gold.Protein.RotatedAtoms>
  151.4240  133.3689  159.2759 H   0  0  0  0  0  0  0  0  0  0  0  0  # atno 6907 bound_to 6896
  150.9273  134.8690  159.7539 H   0  0  0  0  0  0  0  0  0  0  0  0  # atno 6908 bound_to 6896
  152.5011  134.4182  159.9524 H   0  0  0  0  0  0  0  0  0  0  0  0  # atno 6909 bound_to 6896
  145.6678  139.2488  143.1886 H   0  0  0  0  0  0  0  0  0  0  0  0  # atno 7974 bound_to 7965
  156.2947  140.2606  156.2692 H   0  0  0  0  0  0  0  0  0  0  0  0  # atno 8008 bound_to 7997
  154.9711  140.0391  157.2253 H   0  0  0  0  0  0  0  0  0  0  0  0  # atno 8009 bound_to 7997
  154.7857  140.2803  155.6034 H   0  0  0  0  0  0  0  0  0  0  0  0  # atno 8010 bound_to 7997
  139.5763  144.6965  151.3645 H   0  0  0  0  0  0  0  0  0  0  0  0  # atno 10167 bound_to 10162
  157.2713  131.0817  151.1597 H   0  0  0  0  0  0  0  0  0  0  0  0  # atno 10718 bound_to 10713
  153.3545  135.3972  155.1671 H   0  0  0  0  0  0  0  0  0  0  0  0  # atno 10763 bound_to 10752
  154.8668  135.3664  154.5179 H   0  0  0  0  0  0  0  0  0  0  0  0  # atno 10764 bound_to 10752
  153.5633  135.7080  153.5597 H   0  0  0  0  0  0  0  0  0  0  0  0  # atno 10765 bound_to 10752
  140.3229  134.2524  155.7714 H   0  0  0  0  0  0  0  0  0  0  0  0  # atno 11005 bound_to 11000
  146.1071  140.7473  142.9521 LP  0  0  0  0  0  0  0  0  0  0  0  0  # atno 17320 bound_to 7965
  144.7067  140.3880  143.7112 LP  0  0  0  0  0  0  0  0  0  0  0  0  # atno 17321 bound_to 7965
  140.7045  143.7549  150.7458 LP  0  0  0  0  0  0  0  0  0  0  0  0  # atno 17342 bound_to 10162
  140.1069  143.4735  152.2393 LP  0  0  0  0  0  0  0  0  0  0  0  0  # atno 17343 bound_to 10162
  157.3068  130.6870  149.6194 LP  0  0  0  0  0  0  0  0  0  0  0  0  # atno 17370 bound_to 10713
  155.9663  130.4375  150.5180 LP  0  0  0  0  0  0  0  0  0  0  0  0  # atno 17371 bound_to 10713
  141.2082  133.7784  157.0072 LP  0  0  0  0  0  0  0  0  0  0  0  0  # atno 17394 bound_to 11000
  140.0927  134.9583  157.1801 LP  0  0  0  0  0  0  0  0  0  0  0  0  # atno 17395 bound_to 11000

$$$$
