AV-unprocessed.smi:81|AV-procd|sdf|789|dock7
  -GOLD-   2262017163D 1   1.00000     0.00000
 Structure written by MMmdl.
 64 67  0  0  0  0  0  0  0  0  2 V2000
  151.9877  128.7610  155.0579 C   0  0  0  0  0  0  0  0  0  0  0  0
  151.5003  130.2166  154.9663 C   0  0  0  0  0  0  0  0  0  0  0  0
  152.0971  131.0568  156.1045 C   0  0  0  0  0  0  0  0  0  0  0  0
  149.9578  130.3085  154.9817 C   0  0  0  0  0  0  0  0  0  0  0  0
  149.4357  131.6491  154.6992 N   0  0  0  0  0  0  0  0  0  0  0  0
  149.4976  132.5152  155.7419 C   0  0  0  0  0  0  0  0  0  0  0  0
  150.3327  133.5862  155.6876 N   0  0  0  0  0  0  0  0  0  0  0  0
  150.3878  134.4439  156.7109 C   0  0  0  0  0  0  0  0  0  0  0  0
  149.7070  134.4187  157.8586 N   0  0  0  0  0  0  0  0  0  0  0  0
  148.8632  133.3484  157.9124 C   0  0  0  0  0  0  0  0  0  0  0  0
  148.6946  132.3599  156.9034 C   0  0  0  0  0  0  0  0  0  0  0  0
  147.7394  131.4323  157.2987 N   0  0  0  0  0  0  0  0  0  0  0  0
  147.3633  131.8495  158.4768 C   0  0  0  0  0  0  0  0  0  0  0  0
  147.9976  132.9851  158.9293 N   0  0  0  0  0  0  0  0  0  0  0  0
  147.7745  133.6618  160.1977 C   0  0  0  0  0  0  0  0  0  0  0  0
  147.0735  135.0425  160.0663 C   0  0  2  0  0  0  0  0  0  0  0  0
  145.7202  134.8557  159.6972 O   0  0  0  0  0  0  0  0  0  0  0  0
  147.7336  135.9788  159.0614 C   0  0  0  0  0  0  0  0  0  0  0  0
  148.8689  136.5900  159.8766 C   0  0  0  0  0  0  0  0  0  0  0  0
  148.3980  136.6275  161.2205 O   0  0  0  0  0  0  0  0  0  0  0  0
  147.1670  135.9172  161.3322 C   0  0  2  0  0  0  0  0  0  0  0  0
  147.0785  135.1927  162.6837 C   0  0  0  0  0  0  0  0  0  0  0  0
  148.2207  131.7147  153.8740 C   0  0  2  0  0  0  0  0  0  0  0  0
  147.9081  130.4065  153.1165 C   0  0  0  0  0  0  0  0  0  0  0  0
  146.5836  130.5214  152.3449 C   0  0  0  0  0  0  0  0  0  0  0  0
  146.6121  131.6721  151.4082 N   0  3  1  0  0  0  0  0  0  0  0  0
  145.4039  131.7369  150.5584 C   0  0  0  0  0  0  0  0  0  0  0  0
  146.8806  132.9529  152.1081 C   0  0  0  0  0  0  0  0  0  0  0  0
  148.2104  132.8947  152.8779 C   0  0  0  0  0  0  0  0  0  0  0  0
  151.6434  128.2849  155.9765 H   0  0  0  0  0  0  0  0  0  0  0  0
  153.0767  128.7105  155.0447 H   0  0  0  0  0  0  0  0  0  0  0  0
  151.6269  128.1652  154.2196 H   0  0  0  0  0  0  0  0  0  0  0  0
  151.8751  130.6389  154.0335 H   0  0  0  0  0  0  0  0  0  0  0  0
  151.7719  130.6928  157.0795 H   0  0  0  0  0  0  0  0  0  0  0  0
  151.7949  132.1012  156.0208 H   0  0  0  0  0  0  0  0  0  0  0  0
  153.1868  131.0287  156.0851 H   0  0  0  0  0  0  0  0  0  0  0  0
  149.5527  129.6106  154.2482 H   0  0  0  0  0  0  0  0  0  0  0  0
  149.5822  129.9749  155.9500 H   0  0  0  0  0  0  0  0  0  0  0  0
  151.0752  135.2687  156.5936 H   0  0  0  0  0  0  0  0  0  0  0  0
  146.6129  131.3319  159.0569 H   0  0  0  0  0  0  0  0  0  0  0  0
  147.1847  132.9960  160.8287 H   0  0  0  0  0  0  0  0  0  0  0  0
  148.7396  133.7708  160.6937 H   0  0  0  0  0  0  0  0  0  0  0  0
  145.6313  135.0476  158.7763 H   0  0  0  0  0  0  0  0  0  0  0  0
  148.0720  135.5019  158.1430 H   0  0  0  0  0  0  0  0  0  0  0  0
  147.0420  136.7728  158.7740 H   0  0  0  0  0  0  0  0  0  0  0  0
  149.7557  135.9567  159.8343 H   0  0  0  0  0  0  0  0  0  0  0  0
  149.1464  137.5833  159.5234 H   0  0  0  0  0  0  0  0  0  0  0  0
  146.3802  136.6731  161.2951 H   0  0  0  0  0  0  0  0  0  0  0  0
  146.1526  134.6223  162.7616 H   0  0  0  0  0  0  0  0  0  0  0  0
  147.0969  135.9079  163.5059 H   0  0  0  0  0  0  0  0  0  0  0  0
  147.9130  134.5072  162.8310 H   0  0  0  0  0  0  0  0  0  0  0  0
  147.3991  131.8736  154.5737 H   0  0  0  0  0  0  0  0  0  0  0  0
  148.7053  130.1679  152.4113 H   0  0  0  0  0  0  0  0  0  0  0  0
  147.8491  129.5733  153.8176 H   0  0  0  0  0  0  0  0  0  0  0  0
  146.4082  129.6009  151.7865 H   0  0  0  0  0  0  0  0  0  0  0  0
  145.7507  130.6343  153.0410 H   0  0  0  0  0  0  0  0  0  0  0  0
  144.5098  131.9057  151.1599 H   0  0  0  0  0  0  0  0  0  0  0  0
  145.2730  130.8073  150.0037 H   0  0  0  0  0  0  0  0  0  0  0  0
  145.4869  132.5467  149.8329 H   0  0  0  0  0  0  0  0  0  0  0  0
  146.9181  133.7654  151.3813 H   0  0  0  0  0  0  0  0  0  0  0  0
  146.0600  133.1764  152.7918 H   0  0  0  0  0  0  0  0  0  0  0  0
  148.3642  133.8386  153.4010 H   0  0  0  0  0  0  0  0  0  0  0  0
  149.0282  132.7981  152.1633 H   0  0  0  0  0  0  0  0  0  0  0  0
  147.3915  131.5166  150.7847 H   0  0  0  0  0  0  0  0  0  0  0  0
  1  2  1  0  0  0  0
  1 30  1  0  0  0  0
  1 31  1  0  0  0  0
  1 32  1  0  0  0  0
  2  3  1  0  0  0  0
  2  4  1  0  0  0  0
  2 33  1  0  0  0  0
  3 34  1  0  0  0  0
  3 35  1  0  0  0  0
  3 36  1  0  0  0  0
  4  5  1  0  0  0  0
  4 37  1  0  0  0  0
  4 38  1  0  0  0  0
  5  6  1  0  0  0  0
  5 23  1  0  0  0  0
  6 11  1  0  0  0  0
  6  7  2  0  0  0  0
  7  8  1  0  0  0  0
  8  9  2  0  0  0  0
  8 39  1  0  0  0  0
  9 10  1  0  0  0  0
 10 14  1  0  0  0  0
 10 11  2  0  0  0  0
 11 12  1  0  0  0  0
 12 13  2  0  0  0  0
 13 14  1  0  0  0  0
 13 40  1  0  0  0  0
 14 15  1  0  0  0  0
 15 16  1  0  0  0  0
 15 41  1  0  0  0  0
 15 42  1  0  0  0  0
 16 21  1  0  0  0  0
 16 17  1  0  0  0  0
 16 18  1  0  0  0  0
 17 43  1  0  0  0  0
 18 19  1  0  0  0  0
 18 44  1  0  0  0  0
 18 45  1  0  0  0  0
 19 20  1  0  0  0  0
 19 46  1  0  0  0  0
 19 47  1  0  0  0  0
 20 21  1  0  0  0  0
 21 22  1  0  0  0  0
 21 48  1  0  0  0  0
 22 49  1  0  0  0  0
 22 50  1  0  0  0  0
 22 51  1  0  0  0  0
 23 29  1  0  0  0  0
 23 24  1  0  0  0  0
 23 52  1  0  0  0  0
 24 25  1  0  0  0  0
 24 53  1  0  0  0  0
 24 54  1  0  0  0  0
 25 26  1  0  0  0  0
 25 55  1  0  0  0  0
 25 56  1  0  0  0  0
 26 27  1  0  0  0  0
 26 28  1  0  0  0  0
 26 64  1  0  0  0  0
 27 57  1  0  0  0  0
 27 58  1  0  0  0  0
 27 59  1  0  0  0  0
 28 29  1  0  0  0  0
 28 60  1  0  0  0  0
 28 61  1  0  0  0  0
 29 62  1  0  0  0  0
 29 63  1  0  0  0  0
M  CHG  1  26   1
M  END
> <s_m_source_file>
AV-unprocessed.smi

> <i_m_source_file_index>
81

> <i_lp_mmshare_version>
43012

> <i_f3d_flags>
0

> <s_epik_input>
W0NIMl0xW0NIMl1OKFtDSDNdKVtDSDJdW0NIMl1bQ0hdMU4oW0NIMl1bQ0hdKFtDSDNdKVtDSDNdKWMobltjSF1uMiljKGMyMyluW2NIXW4zW0NIMl1bQ0BAXTQoW09IXSlbQ0gyXVtDSDJdT1tDQEhdNFtDSDNd

> <s_epik_cmdline>
J2VwaWtfcHl0aG9uJywgJy1waCcsICc3LjAnLCAnLXRuJywgJzgnLCAnLW1hJywgJzIwMCcsICctbWV0YWxfYmluZGluZycsICctaW1hZScsICc8aW5maWxlLm1hZT4nLCAnLW9tYWUnLCAnPG91dGZpbGUubWFlPic=

> <r_lp_tautomer_probability>
1

> <r_epik_Ionization_Penalty>
0.00272708

> <r_epik_Ionization_Penalty_Charging>
0.00158983

> <r_epik_Ionization_Penalty_Neutral>
0.00113725

> <r_epik_State_Penalty>
-0

> <r_epik_Charging_Adjusted_Penalty>
0.00158983

> <i_epik_Tot_Q>
1

> <i_epik_Tot_abs_Q>
1

> <r_epik_Metal_State_Penalty>
-0

> <b_epik_Metal_Only>
0

> <s_lp_Force_Field>
OPLS_2005

> <r_lp_Energy>
46.4423

> <b_lp_Chiralities_Consistent>
1

> <s_lp_Variant>
AV-unprocessed.smi:81-4

> <Gold.Version>
5.8.1

> <Gold.Id.Protein>
6NUR|6NUR_protein|mol2

> <Gold.PLP.Fitness>
48.9437

> <Gold.PLP.PLP>
-42.1775

> <Gold.PLP.part.hbond>
-3.0000

> <Gold.PLP.part.metal>
0.0000

> <Gold.PLP.part.buried>
-5.4705

> <Gold.PLP.part.nonpolar>
-34.7184

> <Gold.PLP.part.repulsive>
0.0398

> <Gold.PLP.ligand.clash>
0.0000

> <Gold.PLP.ligand.torsion>
1.5391

> <Gold.PLP.Chemscore.Hbond>
2.9920

> <Gold.PLP.Chemscore.CHOScore>
0.0000

> <Gold.PLP.Chemscore.Metal>
0.0000

> <Gold.Chemscore.Hbonds>
donor molecule, donor type, donor heavy atom, donor atom, acceptor molecule, acceptor atom, score
      L1  H    26    64       P1 10747  1.00
      P1  H  6896  6907       L1     9  1.00
      P1  H  6931  6943       L1    20  1.00

> <Gold.PLP.Chemscore.Internal.Correction>
0.8684

> <Gold.Rescore>
     Score         DG    S(hbond)    S(metal)    S(lipo)     H(rot)  DE(clash)    DE(int)     intcor
     16.97     -18.73       2.79        0.00      89.86       2.58       0.02       1.73       ----

> <Gold.Chemscore.Fitness>
16.9721

> <Gold.Chemscore.DG>
-18.7258

> <Gold.Chemscore.ZeroCoef>
-5.4800

> <Gold.Chemscore.Hbond>
2.7935

> <Gold.Chemscore.Metal>
0.0000

> <Gold.Chemscore.Lipo>
89.8603

> <Gold.Chemscore.Internal_Hbond>
0.0000

> <Gold.Chemscore.DEClash>
0.0234

> <Gold.Chemscore.DEInternal>
1.7303

> <Gold.Chemscore.Rot>
2.5774

> <Gold.Chemscore.Internal.Correction>
   9.000000E+99

> <Gold.Chemscore.Hbonds>
donor molecule, donor type, donor heavy atom, donor atom, acceptor molecule, acceptor atom, score
      L1  H    26    64       P1 10747  0.99
      P1  H  6896  6907       L1     9  0.32
      P1  H  6931  6943       L1    20  0.50

> <Gold.Chemscore.Hbond.Weighted>
-9.3304

> <Gold.Chemscore.Metal.Weighted>
-0.0000

> <Gold.Chemscore.Lipo.Weighted>
-10.5137

> <Gold.Chemscore.Internal_Hbond.Weighted>
0.0000

> <Gold.Chemscore.DEClash.Weighted>
0.0234

> <Gold.Chemscore.DEInternal.Weighted>
1.7303

> <Gold.Chemscore.Rot.Weighted>
6.5982

> <Gold.Chemscore.Internal.Correction.Weighted>
   9.000000E+99

> <Gold.Protein.RotatedTorsions>
[ 6907 6896 6895 6894 ] final  -90.74 input  -60.11 | X-H torsion
[ 7974 7965 7964 7962 ] final  -27.16 input  175.53 | X-H torsion
[ 8008 7997 7996 7995 ] final  171.05 input   59.86 | X-H torsion
[ 10167 10162 10161 10158 ] final -107.70 input  -65.29 | X-H torsion
[ 10718 10713 10712 10709 ] final  146.92 input   66.30 | X-H torsion
[ 10763 10752 10751 10750 ] final  130.20 input  -60.55 | X-H torsion
[ 11005 11000 10999 10996 ] final  -12.74 input  -57.11 | X-H torsion

> <Gold.Protein.ActiveResidues>
 VAL166  LYS551  ARG553  GLY616  TRP617  ASP618  TYR619  PRO620  LYS621  CYS622 
 ASP623  PHE694  ASN695  SER759  ASP760  ASP761  ALA762  ILE779  LEU786  VAL792 
 PHE793  MET794  SER795  GLU796  ALA797  LYS798  CYS799  TRP800  GLU811  SER814 

> <Gold.Protein.RotatedAtoms>
  150.6885  134.2386  159.4462 H   0  0  0  0  0  0  0  0  0  0  0  0  # atno 6907 bound_to 6896
  152.0332  134.9753  160.0582 H   0  0  0  0  0  0  0  0  0  0  0  0  # atno 6908 bound_to 6896
  152.1284  133.4359  159.4746 H   0  0  0  0  0  0  0  0  0  0  0  0  # atno 6909 bound_to 6896
  146.1377  140.5114  142.8665 H   0  0  0  0  0  0  0  0  0  0  0  0  # atno 7974 bound_to 7965
  156.1308  140.1522  156.9068 H   0  0  0  0  0  0  0  0  0  0  0  0  # atno 8008 bound_to 7997
  154.4908  140.0852  156.7629 H   0  0  0  0  0  0  0  0  0  0  0  0  # atno 8009 bound_to 7997
  155.4259  140.3425  155.4278 H   0  0  0  0  0  0  0  0  0  0  0  0  # atno 8010 bound_to 7997
  140.1741  143.4019  152.1332 H   0  0  0  0  0  0  0  0  0  0  0  0  # atno 10167 bound_to 10162
  157.3273  131.0914  151.1192 H   0  0  0  0  0  0  0  0  0  0  0  0  # atno 10718 bound_to 10713
  153.7542  135.3205  155.3326 H   0  0  0  0  0  0  0  0  0  0  0  0  # atno 10763 bound_to 10752
  154.8253  135.4574  154.0902 H   0  0  0  0  0  0  0  0  0  0  0  0  # atno 10764 bound_to 10752
  153.2113  135.6936  153.8193 H   0  0  0  0  0  0  0  0  0  0  0  0  # atno 10765 bound_to 10752
  140.7688  133.8455  155.9189 H   0  0  0  0  0  0  0  0  0  0  0  0  # atno 11005 bound_to 11000
  144.7758  140.5735  143.6639 LP  0  0  0  0  0  0  0  0  0  0  0  0  # atno 17320 bound_to 7965
  145.5118  139.1479  143.3600 LP  0  0  0  0  0  0  0  0  0  0  0  0  # atno 17321 bound_to 7965
  139.5325  144.7174  151.5007 LP  0  0  0  0  0  0  0  0  0  0  0  0  # atno 17342 bound_to 10162
  140.6563  143.8592  150.6838 LP  0  0  0  0  0  0  0  0  0  0  0  0  # atno 17343 bound_to 10162
  157.2454  130.6589  149.5908 LP  0  0  0  0  0  0  0  0  0  0  0  0  # atno 17370 bound_to 10713
  155.9692  130.4555  150.5890 LP  0  0  0  0  0  0  0  0  0  0  0  0  # atno 17371 bound_to 10713
  140.9593  134.1676  157.4667 LP  0  0  0  0  0  0  0  0  0  0  0  0  # atno 17394 bound_to 11000
  139.8759  134.9939  156.5666 LP  0  0  0  0  0  0  0  0  0  0  0  0  # atno 17395 bound_to 11000

$$$$
