AV-unprocessed.smi:2027|AV-procd|sdf|8212|dock2
  -GOLD-   2272010473D 1   1.00000     0.00000
 Structure written by MMmdl.
 50 52  0  0  0  0  0  0  0  0  2 V2000
  152.5200  141.3466  159.6751 C   0  0  0  0  0  0  0  0  0  0  0  0
  151.6009  141.2821  158.4677 C   0  0  0  0  0  0  0  0  0  0  0  0
  151.7879  140.2544  157.5161 C   0  0  0  0  0  0  0  0  0  0  0  0
  150.9528  140.1569  156.3820 C   0  0  0  0  0  0  0  0  0  0  0  0
  150.9541  139.2460  155.3397 N   0  0  0  0  0  0  0  0  0  0  0  0
  149.9375  139.6810  154.6013 C   0  0  0  0  0  0  0  0  0  0  0  0
  149.2810  140.7730  155.0386 N   0  0  0  0  0  0  0  0  0  0  0  0
  148.1486  141.4273  154.4079 C   0  0  0  0  0  0  0  0  0  0  0  0
  147.0509  140.4316  153.9876 C   0  0  1  0  0  0  0  0  0  0  0  0
  145.7893  140.9252  154.3956 O   0  0  0  0  0  0  0  0  0  0  0  0
  147.0267  140.2204  152.4607 C   0  0  0  0  0  0  0  0  0  0  0  0
  146.2493  139.0157  152.0718 N   0  3  1  0  0  0  0  0  0  0  0  0
  146.6192  138.5278  150.7218 C   0  0  0  0  0  0  0  0  0  0  0  0
  146.2855  137.9429  153.0995 C   0  0  0  0  0  0  0  0  0  0  0  0
  145.5232  136.7265  152.6494 C   0  0  0  0  0  0  0  0  0  0  0  0
  145.9597  135.7086  151.7540 C   0  0  0  0  0  0  0  0  0  0  0  0
  145.0523  134.7647  151.5672 N   0  0  0  0  0  0  0  0  0  0  0  0
  144.0054  135.1490  152.3257 N   0  0  0  0  0  0  0  0  0  0  0  0
  142.8118  134.3312  152.3629 C   0  0  0  0  0  0  0  0  0  0  0  0
  144.2594  136.3305  152.9879 C   0  0  0  0  0  0  0  0  0  0  0  0
  149.9175  141.1242  156.2241 C   0  0  0  0  0  0  0  0  0  0  0  0
  149.7216  142.1520  157.1632 C   0  0  0  0  0  0  0  0  0  0  0  0
  150.5650  142.2345  158.2910 C   0  0  0  0  0  0  0  0  0  0  0  0
  150.3457  143.3474  159.3006 C   0  0  0  0  0  0  0  0  0  0  0  0
  153.2555  140.5417  159.6594 H   0  0  0  0  0  0  0  0  0  0  0  0
  151.9460  141.2559  160.5974 H   0  0  0  0  0  0  0  0  0  0  0  0
  153.0607  142.2930  159.6945 H   0  0  0  0  0  0  0  0  0  0  0  0
  152.5763  139.5283  157.6508 H   0  0  0  0  0  0  0  0  0  0  0  0
  149.6561  139.1787  153.6870 H   0  0  0  0  0  0  0  0  0  0  0  0
  147.7466  142.1718  155.0968 H   0  0  0  0  0  0  0  0  0  0  0  0
  148.5154  141.9731  153.5378 H   0  0  0  0  0  0  0  0  0  0  0  0
  147.2232  139.4856  154.5003 H   0  0  0  0  0  0  0  0  0  0  0  0
  145.1621  140.7516  153.7091 H   0  0  0  0  0  0  0  0  0  0  0  0
  146.5967  141.1105  151.9977 H   0  0  0  0  0  0  0  0  0  0  0  0
  148.0405  140.1362  152.0658 H   0  0  0  0  0  0  0  0  0  0  0  0
  147.6518  138.1771  150.7028 H   0  0  0  0  0  0  0  0  0  0  0  0
  146.5143  139.3216  149.9815 H   0  0  0  0  0  0  0  0  0  0  0  0
  145.9740  137.7085  150.4046 H   0  0  0  0  0  0  0  0  0  0  0  0
  147.3242  137.7002  153.3289 H   0  0  0  0  0  0  0  0  0  0  0  0
  145.8602  138.3089  154.0334 H   0  0  0  0  0  0  0  0  0  0  0  0
  146.9073  135.6263  151.2421 H   0  0  0  0  0  0  0  0  0  0  0  0
  142.0072  134.8668  152.8675 H   0  0  0  0  0  0  0  0  0  0  0  0
  143.0170  133.4067  152.9037 H   0  0  0  0  0  0  0  0  0  0  0  0
  142.4936  134.0902  151.3480 H   0  0  0  0  0  0  0  0  0  0  0  0
  143.5296  136.7847  153.6421 H   0  0  0  0  0  0  0  0  0  0  0  0
  148.9280  142.8700  157.0176 H   0  0  0  0  0  0  0  0  0  0  0  0
  149.5093  143.9856  159.0143 H   0  0  0  0  0  0  0  0  0  0  0  0
  151.2341  143.9747  159.3770 H   0  0  0  0  0  0  0  0  0  0  0  0
  150.1281  142.9329  160.2852 H   0  0  0  0  0  0  0  0  0  0  0  0
  145.2896  139.3248  152.0046 H   0  0  0  0  0  0  0  0  0  0  0  0
  1  2  1  0  0  0  0
  1 25  1  0  0  0  0
  1 26  1  0  0  0  0
  1 27  1  0  0  0  0
  2 23  1  0  0  0  0
  2  3  2  0  0  0  0
  3  4  1  0  0  0  0
  3 28  1  0  0  0  0
  4 21  2  0  0  0  0
  4  5  1  0  0  0  0
  5  6  2  0  0  0  0
  6  7  1  0  0  0  0
  6 29  1  0  0  0  0
  7  8  1  0  0  0  0
  7 21  1  0  0  0  0
  8  9  1  0  0  0  0
  8 30  1  0  0  0  0
  8 31  1  0  0  0  0
  9 10  1  0  0  0  0
  9 11  1  0  0  0  0
  9 32  1  0  0  0  0
 10 33  1  0  0  0  0
 11 12  1  0  0  0  0
 11 34  1  0  0  0  0
 11 35  1  0  0  0  0
 12 13  1  0  0  0  0
 12 14  1  0  0  0  0
 12 50  1  0  0  0  0
 13 36  1  0  0  0  0
 13 37  1  0  0  0  0
 13 38  1  0  0  0  0
 14 15  1  0  0  0  0
 14 39  1  0  0  0  0
 14 40  1  0  0  0  0
 15 20  2  0  0  0  0
 15 16  1  0  0  0  0
 16 17  2  0  0  0  0
 16 41  1  0  0  0  0
 17 18  1  0  0  0  0
 18 19  1  0  0  0  0
 18 20  1  0  0  0  0
 19 42  1  0  0  0  0
 19 43  1  0  0  0  0
 19 44  1  0  0  0  0
 20 45  1  0  0  0  0
 21 22  1  0  0  0  0
 22 23  2  0  0  0  0
 22 46  1  0  0  0  0
 23 24  1  0  0  0  0
 24 47  1  0  0  0  0
 24 48  1  0  0  0  0
 24 49  1  0  0  0  0
M  CHG  1  12   1
M  END
> <s_m_source_file>
AV-unprocessed.smi

> <i_m_source_file_index>
2027

> <i_lp_mmshare_version>
43012

> <i_f3d_flags>
0

> <s_epik_input>
W0NIM11jKFtjSF0xKWMoW0NIM10pW2NIXWMoYzEyKW4oW2NIXW4yKVtDSDJdW0NASF0oW09IXSlbQ0gyXU4oW0NIM10pW0NIMl1jM1tjSF1ubihbQ0gzXSlbY0hdMw==

> <s_epik_cmdline>
J2VwaWtfcHl0aG9uJywgJy1waCcsICc3LjAnLCAnLXRuJywgJzgnLCAnLW1hJywgJzIwMCcsICctbWV0YWxfYmluZGluZycsICctaW1hZScsICc8aW5maWxlLm1hZT4nLCAnLW9tYWUnLCAnPG91dGZpbGUubWFlPic=

> <r_lp_tautomer_probability>
1

> <r_epik_Ionization_Penalty>
0.646578

> <r_epik_Ionization_Penalty_Charging>
0.559419

> <r_epik_Ionization_Penalty_Neutral>
0.087159

> <r_epik_State_Penalty>
0.661677

> <r_epik_Charging_Adjusted_Penalty>
1.2211

> <i_epik_Tot_Q>
1

> <i_epik_Tot_abs_Q>
1

> <r_epik_Metal_State_Penalty>
0.649174

> <b_epik_Metal_Only>
0

> <s_lp_Force_Field>
OPLS_2005

> <r_lp_Energy>
9.42611

> <b_lp_Chiralities_Consistent>
1

> <s_lp_Variant>
AV-unprocessed.smi:2027-4

> <Gold.Version>
5.8.1

> <Gold.Id.Protein>
6NUR|6NUR_protein|mol2

> <Gold.PLP.Fitness>
52.6868

> <Gold.PLP.PLP>
-40.6553

> <Gold.PLP.part.hbond>
-2.4668

> <Gold.PLP.part.metal>
0.0000

> <Gold.PLP.part.buried>
3.9198

> <Gold.PLP.part.nonpolar>
-42.0507

> <Gold.PLP.part.repulsive>
0.2656

> <Gold.PLP.ligand.clash>
0.0000

> <Gold.PLP.ligand.torsion>
1.4877

> <Gold.PLP.Chemscore.Hbond>
2.9913

> <Gold.PLP.Chemscore.CHOScore>
1.8821

> <Gold.PLP.Chemscore.Metal>
0.0000

> <Gold.Chemscore.Hbonds>
donor molecule, donor type, donor heavy atom, donor atom, acceptor molecule, acceptor atom, score
      L1  H    10    33       P1 10175  1.00
      L1  H    12    50       P1 10175  2.00
      L1  C     6    29       P1  7957  0.66
      L1  C    16    41       P1  7948  1.00

> <Gold.PLP.Chemscore.Internal.Correction>
0.3870

> <Gold.Rescore>
     Score         DG    S(hbond)    S(metal)    S(lipo)     H(rot)  DE(clash)    DE(int)     intcor
     14.40     -19.69       1.88        0.00     122.65       2.50       3.82       1.47       ----

> <Gold.Chemscore.Fitness>
14.4009

> <Gold.Chemscore.DG>
-19.6911

> <Gold.Chemscore.ZeroCoef>
-5.4800

> <Gold.Chemscore.Hbond>
1.8783

> <Gold.Chemscore.Metal>
0.0000

> <Gold.Chemscore.Lipo>
122.6459

> <Gold.Chemscore.Internal_Hbond>
0.0000

> <Gold.Chemscore.DEClash>
3.8222

> <Gold.Chemscore.DEInternal>
1.4680

> <Gold.Chemscore.Rot>
2.5047

> <Gold.Chemscore.Internal.Correction>
   9.000000E+99

> <Gold.Chemscore.Hbonds>
donor molecule, donor type, donor heavy atom, donor atom, acceptor molecule, acceptor atom, score
      L1  H    10    33       P1 10175  0.94
      L1  H    12    50       P1 10175  0.92

> <Gold.Chemscore.Hbond.Weighted>
-6.2735

> <Gold.Chemscore.Metal.Weighted>
-0.0000

> <Gold.Chemscore.Lipo.Weighted>
-14.3496

> <Gold.Chemscore.Internal_Hbond.Weighted>
0.0000

> <Gold.Chemscore.DEClash.Weighted>
3.8222

> <Gold.Chemscore.DEInternal.Weighted>
1.4680

> <Gold.Chemscore.Rot.Weighted>
6.4120

> <Gold.Chemscore.Internal.Correction.Weighted>
   9.000000E+99

> <Gold.Protein.RotatedTorsions>
[ 6907 6896 6895 6894 ] final  107.25 input  -60.11 | X-H torsion
[ 7974 7965 7964 7962 ] final -161.59 input  175.53 | X-H torsion
[ 8008 7997 7996 7995 ] final  -60.75 input   59.86 | X-H torsion
[ 10167 10162 10161 10158 ] final -152.38 input  -65.29 | X-H torsion
[ 10718 10713 10712 10709 ] final   92.79 input   66.30 | X-H torsion
[ 10763 10752 10751 10750 ] final   68.35 input  -60.55 | X-H torsion
[ 11005 11000 10999 10996 ] final  -38.26 input  -57.11 | X-H torsion

> <Gold.Protein.ActiveResidues>
 VAL166  LYS551  ARG553  GLY616  TRP617  ASP618  TYR619  PRO620  LYS621  CYS622 
 ASP623  PHE694  ASN695  SER759  ASP760  ASP761  ALA762  ILE779  LEU786  VAL792 
 PHE793  MET794  SER795  GLU796  ALA797  LYS798  CYS799  TRP800  GLU811  SER814 

> <Gold.Protein.RotatedAtoms>
  152.5162  133.9262  159.7558 H   0  0  0  0  0  0  0  0  0  0  0  0  # atno 6907 bound_to 6896
  150.9622  133.6424  159.2759 H   0  0  0  0  0  0  0  0  0  0  0  0  # atno 6908 bound_to 6896
  151.3665  135.0919  159.9504 H   0  0  0  0  0  0  0  0  0  0  0  0  # atno 6909 bound_to 6896
  144.7386  140.3375  143.6141 H   0  0  0  0  0  0  0  0  0  0  0  0  # atno 7974 bound_to 7965
  154.4414  140.1033  156.6323 H   0  0  0  0  0  0  0  0  0  0  0  0  # atno 8008 bound_to 7997
  155.5592  140.3487  155.4468 H   0  0  0  0  0  0  0  0  0  0  0  0  # atno 8009 bound_to 7997
  156.0472  140.1295  157.0079 H   0  0  0  0  0  0  0  0  0  0  0  0  # atno 8010 bound_to 7997
  139.7187  143.8992  152.2495 H   0  0  0  0  0  0  0  0  0  0  0  0  # atno 10167 bound_to 10162
  157.6957  131.0455  150.3935 H   0  0  0  0  0  0  0  0  0  0  0  0  # atno 10718 bound_to 10713
  153.0231  135.5250  154.7121 H   0  0  0  0  0  0  0  0  0  0  0  0  # atno 10763 bound_to 10752
  154.6200  135.2888  155.0338 H   0  0  0  0  0  0  0  0  0  0  0  0  # atno 10764 bound_to 10752
  154.1328  135.6590  153.4978 H   0  0  0  0  0  0  0  0  0  0  0  0  # atno 10765 bound_to 10752
  141.0014  133.6953  156.2030 H   0  0  0  0  0  0  0  0  0  0  0  0  # atno 11005 bound_to 11000
  145.7409  139.1764  143.2377 LP  0  0  0  0  0  0  0  0  0  0  0  0  # atno 17320 bound_to 7965
  146.1135  140.7399  142.9492 LP  0  0  0  0  0  0  0  0  0  0  0  0  # atno 17321 bound_to 7965
  139.8882  144.6980  150.8800 LP  0  0  0  0  0  0  0  0  0  0  0  0  # atno 17342 bound_to 10162
  140.7749  143.3607  151.1834 LP  0  0  0  0  0  0  0  0  0  0  0  0  # atno 17343 bound_to 10162
  156.4336  130.3977  149.6744 LP  0  0  0  0  0  0  0  0  0  0  0  0  # atno 17370 bound_to 10713
  156.3952  130.7647  151.2651 LP  0  0  0  0  0  0  0  0  0  0  0  0  # atno 17371 bound_to 10713
  140.6882  134.4694  157.5589 LP  0  0  0  0  0  0  0  0  0  0  0  0  # atno 17394 bound_to 11000
  139.9041  134.8489  156.1777 LP  0  0  0  0  0  0  0  0  0  0  0  0  # atno 17395 bound_to 11000

$$$$
