AV-unprocessed.smi:2844|AV-procd|sdf|10941|dock6
  -GOLD-   2272015393D 1   1.00000     0.00000
 Structure written by MMmdl.
 39 41  0  0  0  0  0  0  0  0  2 V2000
  152.5064  143.4463  161.4574 C   0  0  0  0  0  0  0  0  0  0  0  0
  152.0740  142.9670  160.0822 C   0  0  0  0  0  0  0  0  0  0  0  0
  152.5883  141.7407  159.6034 C   0  0  0  0  0  0  0  0  0  0  0  0
  152.1763  141.3297  158.3412 C   0  0  0  0  0  0  0  0  0  0  0  0
  152.4960  140.1902  157.5991 N   0  3  0  0  0  0  0  0  0  0  0  0
  151.8412  140.2270  156.4055 C   0  0  0  0  0  0  0  0  0  0  0  0
  151.1083  141.3730  156.3756 N   0  0  0  0  0  0  0  0  0  0  0  0
  150.2181  141.8965  155.3315 C   0  0  0  0  0  0  0  0  0  0  0  0
  149.4337  140.7862  154.6067 C   0  0  2  0  0  0  0  0  0  0  0  0
  150.3242  140.0204  153.8163 O   0  0  0  0  0  0  0  0  0  0  0  0
  148.3075  141.3589  153.7257 C   0  0  0  0  0  0  0  0  0  0  0  0
  147.2760  142.0208  154.5051 N   0  0  0  0  0  0  0  0  0  0  0  0
  146.2248  142.7906  154.0462 C   0  0  0  0  0  0  0  0  0  0  0  0
  145.5490  143.1830  155.1608 C   0  0  0  0  0  0  0  0  0  0  0  0
  144.1353  144.1692  155.2171 Cl  0  0  0  0  0  0  0  0  0  0  0  0
  146.2373  142.6205  156.2657 C   0  0  0  0  0  0  0  0  0  0  0  0
  147.2848  141.9182  155.8591 N   0  0  0  0  0  0  0  0  0  0  0  0
  151.2847  142.0920  157.5621 C   0  0  0  0  0  0  0  0  0  0  0  0
  150.7659  143.3009  158.0192 C   0  0  0  0  0  0  0  0  0  0  0  0
  151.1736  143.7367  159.3004 C   0  0  0  0  0  0  0  0  0  0  0  0
  150.6267  145.0534  159.8253 C   0  0  0  0  0  0  0  0  0  0  0  0
  153.2175  142.7576  161.9143 H   0  0  0  0  0  0  0  0  0  0  0  0
  151.6461  143.5271  162.1223 H   0  0  0  0  0  0  0  0  0  0  0  0
  152.9862  144.4230  161.3903 H   0  0  0  0  0  0  0  0  0  0  0  0
  153.2728  141.1489  160.1936 H   0  0  0  0  0  0  0  0  0  0  0  0
  151.8894  139.4803  155.6259 H   0  0  0  0  0  0  0  0  0  0  0  0
  149.5428  142.6241  155.7836 H   0  0  0  0  0  0  0  0  0  0  0  0
  150.8358  142.4486  154.6219 H   0  0  0  0  0  0  0  0  0  0  0  0
  148.9935  140.1184  155.3484 H   0  0  0  0  0  0  0  0  0  0  0  0
  149.9410  139.9039  152.9597 H   0  0  0  0  0  0  0  0  0  0  0  0
  148.7163  142.0868  153.0237 H   0  0  0  0  0  0  0  0  0  0  0  0
  147.8505  140.5707  153.1250 H   0  0  0  0  0  0  0  0  0  0  0  0
  146.0567  142.9863  152.9974 H   0  0  0  0  0  0  0  0  0  0  0  0
  146.0188  142.6955  157.3208 H   0  0  0  0  0  0  0  0  0  0  0  0
  150.0808  143.8854  157.4232 H   0  0  0  0  0  0  0  0  0  0  0  0
  149.9234  145.5020  159.1229 H   0  0  0  0  0  0  0  0  0  0  0  0
  151.4360  145.7659  159.9875 H   0  0  0  0  0  0  0  0  0  0  0  0
  150.1024  144.9034  160.7691 H   0  0  0  0  0  0  0  0  0  0  0  0
  153.1133  139.4405  157.8836 H   0  0  0  0  0  0  0  0  0  0  0  0
  1  2  1  0  0  0  0
  1 22  1  0  0  0  0
  1 23  1  0  0  0  0
  1 24  1  0  0  0  0
  2 20  1  0  0  0  0
  2  3  2  0  0  0  0
  3  4  1  0  0  0  0
  3 25  1  0  0  0  0
  4 18  2  0  0  0  0
  4  5  1  0  0  0  0
  5  6  2  0  0  0  0
  5 39  1  0  0  0  0
  6  7  1  0  0  0  0
  6 26  1  0  0  0  0
  7  8  1  0  0  0  0
  7 18  1  0  0  0  0
  8  9  1  0  0  0  0
  8 27  1  0  0  0  0
  8 28  1  0  0  0  0
  9 10  1  0  0  0  0
  9 11  1  0  0  0  0
  9 29  1  0  0  0  0
 10 30  1  0  0  0  0
 11 12  1  0  0  0  0
 11 31  1  0  0  0  0
 11 32  1  0  0  0  0
 12 17  1  0  0  0  0
 12 13  1  0  0  0  0
 13 14  2  0  0  0  0
 13 33  1  0  0  0  0
 14 15  1  0  0  0  0
 14 16  1  0  0  0  0
 16 17  2  0  0  0  0
 16 34  1  0  0  0  0
 18 19  1  0  0  0  0
 19 20  2  0  0  0  0
 19 35  1  0  0  0  0
 20 21  1  0  0  0  0
 21 36  1  0  0  0  0
 21 37  1  0  0  0  0
 21 38  1  0  0  0  0
M  CHG  1   5   1
M  END
> <s_m_source_file>
AV-unprocessed.smi

> <i_m_source_file_index>
2844

> <i_lp_mmshare_version>
43012

> <i_f3d_flags>
0

> <s_epik_input>
W0NIM11jKFtjSF0xKWMoW0NIM10pW2NIXWMoYzEyKW4oW2NIXW4yKVtDSDJdW0NASF0oW09IXSlbQ0gyXW4zW2NIXWMoQ2wpW2NIXW4z

> <s_epik_cmdline>
J2VwaWtfcHl0aG9uJywgJy1waCcsICc3LjAnLCAnLXRuJywgJzgnLCAnLW1hJywgJzIwMCcsICctbWV0YWxfYmluZGluZycsICctaW1hZScsICc8aW5maWxlLm1hZT4nLCAnLW9tYWUnLCAnPG91dGZpbGUubWFlPic=

> <r_lp_tautomer_probability>
1

> <r_epik_Ionization_Penalty>
1.09214

> <r_epik_Ionization_Penalty_Charging>
1.09214

> <r_epik_Ionization_Penalty_Neutral>
2.93683e-06

> <r_epik_State_Penalty>
1.14852

> <r_epik_Charging_Adjusted_Penalty>
2.24066

> <i_epik_Tot_Q>
1

> <i_epik_Tot_abs_Q>
1

> <r_epik_Metal_State_Penalty>
1.23687

> <b_epik_Metal_Only>
0

> <s_lp_Force_Field>
OPLS_2005

> <r_lp_Energy>
16.171

> <b_lp_Chiralities_Consistent>
1

> <s_lp_Variant>
AV-unprocessed.smi:2844-3

> <Gold.Version>
5.8.1

> <Gold.Id.Protein>
6NUR|6NUR_protein|mol2

> <Gold.PLP.Fitness>
54.0659

> <Gold.PLP.PLP>
-49.0578

> <Gold.PLP.part.hbond>
-2.0000

> <Gold.PLP.part.metal>
0.0000

> <Gold.PLP.part.buried>
-6.2556

> <Gold.PLP.part.nonpolar>
-41.8094

> <Gold.PLP.part.repulsive>
0.2270

> <Gold.PLP.ligand.clash>
0.0000

> <Gold.PLP.ligand.torsion>
0.4904

> <Gold.PLP.Chemscore.Hbond>
1.9920

> <Gold.PLP.Chemscore.CHOScore>
0.0000

> <Gold.PLP.Chemscore.Metal>
0.0000

> <Gold.Chemscore.Hbonds>
donor molecule, donor type, donor heavy atom, donor atom, acceptor molecule, acceptor atom, score
      L1  H    10    30       P1  7957  1.00
      P1  H  7989  7998       L1    10  0.91

> <Gold.PLP.Chemscore.Internal.Correction>
0.0129

> <Gold.Rescore>
     Score         DG    S(hbond)    S(metal)    S(lipo)     H(rot)  DE(clash)    DE(int)     intcor
     15.30     -16.83       0.99        0.00     117.06       2.21       0.00       1.53       ----

> <Gold.Chemscore.Fitness>
15.3008

> <Gold.Chemscore.DG>
-16.8299

> <Gold.Chemscore.ZeroCoef>
-5.4800

> <Gold.Chemscore.Hbond>
0.9937

> <Gold.Chemscore.Metal>
0.0000

> <Gold.Chemscore.Lipo>
117.0580

> <Gold.Chemscore.Internal_Hbond>
0.0000

> <Gold.Chemscore.DEClash>
0.0029

> <Gold.Chemscore.DEInternal>
1.5262

> <Gold.Chemscore.Rot>
2.2129

> <Gold.Chemscore.Internal.Correction>
   9.000000E+99

> <Gold.Chemscore.Hbonds>
donor molecule, donor type, donor heavy atom, donor atom, acceptor molecule, acceptor atom, score
      L1  H    10    30       P1  7957  1.00
      P1  H  7989  7998       L1    10  0.19

> <Gold.Chemscore.Hbond.Weighted>
-3.3190

> <Gold.Chemscore.Metal.Weighted>
-0.0000

> <Gold.Chemscore.Lipo.Weighted>
-13.6958

> <Gold.Chemscore.Internal_Hbond.Weighted>
0.0000

> <Gold.Chemscore.DEClash.Weighted>
0.0029

> <Gold.Chemscore.DEInternal.Weighted>
1.5262

> <Gold.Chemscore.Rot.Weighted>
5.6649

> <Gold.Chemscore.Internal.Correction.Weighted>
   9.000000E+99

> <Gold.Protein.RotatedTorsions>
[ 6907 6896 6895 6894 ] final  -78.64 input  -60.11 | X-H torsion
[ 7974 7965 7964 7962 ] final -130.26 input  175.53 | X-H torsion
[ 8008 7997 7996 7995 ] final  178.42 input   59.86 | X-H torsion
[ 10167 10162 10161 10158 ] final  154.68 input  -65.29 | X-H torsion
[ 10718 10713 10712 10709 ] final    6.22 input   66.30 | X-H torsion
[ 10763 10752 10751 10750 ] final -137.42 input  -60.55 | X-H torsion
[ 11005 11000 10999 10996 ] final  165.14 input  -57.11 | X-H torsion

> <Gold.Protein.ActiveResidues>
 VAL166  LYS551  ARG553  GLY616  TRP617  ASP618  TYR619  PRO620  LYS621  CYS622 
 ASP623  PHE694  ASN695  SER759  ASP760  ASP761  ALA762  ILE779  LEU786  VAL792 
 PHE793  MET794  SER795  GLU796  ALA797  LYS798  CYS799  TRP800  GLU811  SER814 

> <Gold.Protein.RotatedAtoms>
  150.6968  134.4241  159.5218 H   0  0  0  0  0  0  0  0  0  0  0  0  # atno 6907 bound_to 6896
  152.1979  134.8611  160.0520 H   0  0  0  0  0  0  0  0  0  0  0  0  # atno 6908 bound_to 6896
  151.9542  133.3640  159.4048 H   0  0  0  0  0  0  0  0  0  0  0  0  # atno 6909 bound_to 6896
  144.9491  140.7325  143.4799 H   0  0  0  0  0  0  0  0  0  0  0  0  # atno 7974 bound_to 7965
  156.0548  140.1334  157.0009 H   0  0  0  0  0  0  0  0  0  0  0  0  # atno 8008 bound_to 7997
  154.4452  140.1003  156.6500 H   0  0  0  0  0  0  0  0  0  0  0  0  # atno 8009 bound_to 7997
  155.5468  140.3462  155.4461 H   0  0  0  0  0  0  0  0  0  0  0  0  # atno 8010 bound_to 7997
  139.4822  144.5165  151.7943 H   0  0  0  0  0  0  0  0  0  0  0  0  # atno 10167 bound_to 10162
  156.9190  130.5784  149.5647 H   0  0  0  0  0  0  0  0  0  0  0  0  # atno 10718 bound_to 10713
  154.8662  135.3643  154.5220 H   0  0  0  0  0  0  0  0  0  0  0  0  # atno 10763 bound_to 10752
  153.5850  135.7017  153.5452 H   0  0  0  0  0  0  0  0  0  0  0  0  # atno 10764 bound_to 10752
  153.3424  135.4094  155.1544 H   0  0  0  0  0  0  0  0  0  0  0  0  # atno 10765 bound_to 10752
  140.2531  134.7962  157.3520 H   0  0  0  0  0  0  0  0  0  0  0  0  # atno 11005 bound_to 11000
  145.2871  139.1897  143.4760 LP  0  0  0  0  0  0  0  0  0  0  0  0  # atno 17320 bound_to 7965
  146.3314  140.2842  142.8612 LP  0  0  0  0  0  0  0  0  0  0  0  0  # atno 17321 bound_to 7965
  140.4674  144.1635  150.5913 LP  0  0  0  0  0  0  0  0  0  0  0  0  # atno 17342 bound_to 10162
  140.4419  143.2523  151.9462 LP  0  0  0  0  0  0  0  0  0  0  0  0  # atno 17343 bound_to 10162
  156.0500  130.5571  150.8967 LP  0  0  0  0  0  0  0  0  0  0  0  0  # atno 17370 bound_to 10713
  157.5920  131.0944  150.9103 LP  0  0  0  0  0  0  0  0  0  0  0  0  # atno 17371 bound_to 10713
  140.1539  134.4815  155.7942 LP  0  0  0  0  0  0  0  0  0  0  0  0  # atno 17394 bound_to 11000
  141.2199  133.6873  156.7426 LP  0  0  0  0  0  0  0  0  0  0  0  0  # atno 17395 bound_to 11000

$$$$
