AV-unprocessed.smi:1381|AV-procd|sdf|5617|dock8
  -GOLD-   22720 5233D 1   1.00000     0.00000
 Structure written by MMmdl.
 42 43  0  0  0  0  0  0  0  0  3 V2000
  152.4803  140.7239  158.5094 C   0  0  0  0  0  0  0  0  0  0  0  0
  151.7064  140.3971  157.2787 C   0  0  0  0  0  0  0  0  0  0  0  0
  150.3682  140.3117  157.0177 C   0  0  0  0  0  0  0  0  0  0  0  0
  150.3310  139.9588  155.6422 C   0  0  0  0  0  0  0  0  0  0  0  0
  149.0900  139.7742  154.9776 N   0  0  0  0  0  0  0  0  0  0  0  0
  148.5041  140.5545  154.0511 C   0  0  0  0  0  0  0  0  0  0  0  0
  149.0605  141.5886  153.6627 O   0  0  0  0  0  0  0  0  0  0  0  0
  147.3023  140.0579  153.6486 N   0  5  0  0  0  0  0  0  0  0  0  0
  146.9102  138.6541  153.7459 C   0  0  0  0  0  0  0  0  0  0  0  0
  146.4467  138.1512  152.3652 C   0  0  0  0  0  0  0  0  0  0  0  0
  146.2238  136.6809  152.3516 N   0  3  1  0  0  0  0  0  0  0  0  0
  145.6465  136.1741  153.6200 C   0  0  0  0  0  0  0  0  0  0  0  0
  145.5105  134.6387  153.5961 C   0  0  2  0  0  0  0  0  0  0  0  0
  146.8527  133.9004  153.7434 C   0  0  0  0  0  0  0  0  0  0  0  0
  144.7897  134.2228  152.4359 O   0  0  0  0  0  0  0  0  0  0  0  0
  145.3395  134.6681  151.1985 C   0  0  1  0  0  0  0  0  0  0  0  0
  144.4496  134.1380  150.0692 C   0  0  0  0  0  0  0  0  0  0  0  0
  145.4178  136.2045  151.1984 C   0  0  0  0  0  0  0  0  0  0  0  0
  151.5395  139.8392  155.1125 N   0  0  0  0  0  0  0  0  0  0  0  0
  152.4269  140.1198  156.1582 O   0  0  0  0  0  0  0  0  0  0  0  0
  151.8122  140.9551  159.3394 H   0  0  0  0  0  0  0  0  0  0  0  0
  153.1240  141.5878  158.3429 H   0  0  0  0  0  0  0  0  0  0  0  0
  153.1086  139.8837  158.8049 H   0  0  0  0  0  0  0  0  0  0  0  0
  149.5486  140.4762  157.7011 H   0  0  0  0  0  0  0  0  0  0  0  0
  148.5766  138.9457  155.2384 H   0  0  0  0  0  0  0  0  0  0  0  0
  147.7311  138.0251  154.0925 H   0  0  0  0  0  0  0  0  0  0  0  0
  146.1014  138.5120  154.4637 H   0  0  0  0  0  0  0  0  0  0  0  0
  145.5155  138.6635  152.1172 H   0  0  0  0  0  0  0  0  0  0  0  0
  147.1590  138.4290  151.5863 H   0  0  0  0  0  0  0  0  0  0  0  0
  146.2676  136.4771  154.4639 H   0  0  0  0  0  0  0  0  0  0  0  0
  144.6661  136.6293  153.7691 H   0  0  0  0  0  0  0  0  0  0  0  0
  144.8983  134.3479  154.4505 H   0  0  0  0  0  0  0  0  0  0  0  0
  147.3189  134.1357  154.7004 H   0  0  0  0  0  0  0  0  0  0  0  0
  147.5633  134.1717  152.9631 H   0  0  0  0  0  0  0  0  0  0  0  0
  146.7085  132.8204  153.7047 H   0  0  0  0  0  0  0  0  0  0  0  0
  146.3371  134.2494  151.0651 H   0  0  0  0  0  0  0  0  0  0  0  0
  144.8354  134.4349  149.0937 H   0  0  0  0  0  0  0  0  0  0  0  0
  143.4313  134.5181  150.1560 H   0  0  0  0  0  0  0  0  0  0  0  0
  144.4016  133.0490  150.0899 H   0  0  0  0  0  0  0  0  0  0  0  0
  144.4161  136.6342  151.2524 H   0  0  0  0  0  0  0  0  0  0  0  0
  145.8594  136.5463  150.2616 H   0  0  0  0  0  0  0  0  0  0  0  0
  147.1398  136.2628  152.2708 H   0  0  0  0  0  0  0  0  0  0  0  0
  1  2  1  0  0  0  0
  1 21  1  0  0  0  0
  1 22  1  0  0  0  0
  1 23  1  0  0  0  0
  2 20  1  0  0  0  0
  2  3  2  0  0  0  0
  3  4  1  0  0  0  0
  3 24  1  0  0  0  0
  4  5  1  0  0  0  0
  4 19  2  0  0  0  0
  5  6  1  0  0  0  0
  5 25  1  0  0  0  0
  6  7  2  0  0  0  0
  6  8  1  0  0  0  0
  8  9  1  0  0  0  0
  9 10  1  0  0  0  0
  9 26  1  0  0  0  0
  9 27  1  0  0  0  0
 10 11  1  0  0  0  0
 10 28  1  0  0  0  0
 10 29  1  0  0  0  0
 11 18  1  0  0  0  0
 11 12  1  0  0  0  0
 11 42  1  0  0  0  0
 12 13  1  0  0  0  0
 12 30  1  0  0  0  0
 12 31  1  0  0  0  0
 13 14  1  0  0  0  0
 13 15  1  0  0  0  0
 13 32  1  0  0  0  0
 14 33  1  0  0  0  0
 14 34  1  0  0  0  0
 14 35  1  0  0  0  0
 15 16  1  0  0  0  0
 16 17  1  0  0  0  0
 16 18  1  0  0  0  0
 16 36  1  0  0  0  0
 17 37  1  0  0  0  0
 17 38  1  0  0  0  0
 17 39  1  0  0  0  0
 18 40  1  0  0  0  0
 18 41  1  0  0  0  0
 19 20  1  0  0  0  0
M  CHG  1   8  -1
M  CHG  1  11   1
M  END
> <s_m_source_file>
AV-unprocessed.smi

> <i_m_source_file_index>
1381

> <i_lp_mmshare_version>
43012

> <i_f3d_flags>
0

> <s_epik_input>
W0NIM11jMVtjSF1jKG5vMSlbTkhdQyg9TylbTkhdW0NIMl1bQ0gyXU4yW0NIMl1bQ0BASF0oW0NIM10pT1tDQEBIXShbQ0gzXSlbQ0gyXTI=

> <s_epik_cmdline>
J2VwaWtfcHl0aG9uJywgJy1waCcsICc3LjAnLCAnLXRuJywgJzgnLCAnLW1hJywgJzIwMCcsICctbWV0YWxfYmluZGluZycsICctaW1hZScsICc8aW5maWxlLm1hZT4nLCAnLW9tYWUnLCAnPG91dGZpbGUubWFlPic=

> <r_epik_Ionization_Penalty>
6.8073

> <r_epik_Ionization_Penalty_Charging>
6.80729

> <r_epik_Ionization_Penalty_Neutral>
5.65391e-06

> <r_epik_State_Penalty>
7.47323

> <r_epik_Charging_Adjusted_Penalty>
14.2805

> <i_epik_Tot_Q>
0

> <i_epik_Tot_abs_Q>
2

> <r_epik_Metal_State_Penalty>
3.40035

> <b_epik_Metal_Only>
1

> <s_lp_Force_Field>
OPLS_2005

> <r_lp_Energy>
15.0618

> <b_lp_Chiralities_Consistent>
1

> <s_lp_Variant>
AV-unprocessed.smi:1381-16

> <Gold.Version>
5.8.1

> <Gold.Id.Protein>
6NUR|6NUR_protein|mol2

> <Gold.PLP.Fitness>
37.8997

> <Gold.PLP.PLP>
-25.8347

> <Gold.PLP.part.hbond>
-4.9869

> <Gold.PLP.part.metal>
0.0000

> <Gold.PLP.part.buried>
-1.7453

> <Gold.PLP.part.nonpolar>
-20.2271

> <Gold.PLP.part.repulsive>
1.2746

> <Gold.PLP.ligand.clash>
0.2617

> <Gold.PLP.ligand.torsion>
1.0165

> <Gold.PLP.Chemscore.Hbond>
4.7680

> <Gold.PLP.Chemscore.CHOScore>
0.0000

> <Gold.PLP.Chemscore.Metal>
0.0000

> <Gold.Chemscore.Hbonds>
donor molecule, donor type, donor heavy atom, donor atom, acceptor molecule, acceptor atom, score
      L1  H    11    42       P1  7948  2.00
      P1  H  7989  7998       L1    19  1.00
      P1  H  7997  8008       L1    20  1.00
      P1  H  8011  8017       L1     7  0.74

> <Gold.PLP.Chemscore.Internal.Correction>
0.0557

> <Gold.Rescore>
     Score         DG    S(hbond)    S(metal)    S(lipo)     H(rot)  DE(clash)    DE(int)     intcor
     17.32     -18.54       3.22        0.00      54.16       1.58       0.17       1.05       ----

> <Gold.Chemscore.Fitness>
17.3213

> <Gold.Chemscore.DG>
-18.5433

> <Gold.Chemscore.ZeroCoef>
-5.4800

> <Gold.Chemscore.Hbond>
3.2242

> <Gold.Chemscore.Metal>
0.0000

> <Gold.Chemscore.Lipo>
54.1638

> <Gold.Chemscore.Internal_Hbond>
0.0000

> <Gold.Chemscore.DEClash>
0.1725

> <Gold.Chemscore.DEInternal>
1.0495

> <Gold.Chemscore.Rot>
1.5792

> <Gold.Chemscore.Internal.Correction>
   9.000000E+99

> <Gold.Chemscore.Hbonds>
donor molecule, donor type, donor heavy atom, donor atom, acceptor molecule, acceptor atom, score
      L1  H    11    42       P1  7948  0.98
      P1  H  7989  7998       L1    19  0.71
      P1  H  7997  8008       L1    20  0.77
      P1  H  8011  8017       L1     7  0.74

> <Gold.Chemscore.Hbond.Weighted>
-10.7690

> <Gold.Chemscore.Metal.Weighted>
-0.0000

> <Gold.Chemscore.Lipo.Weighted>
-6.3372

> <Gold.Chemscore.Internal_Hbond.Weighted>
0.0000

> <Gold.Chemscore.DEClash.Weighted>
0.1725

> <Gold.Chemscore.DEInternal.Weighted>
1.0495

> <Gold.Chemscore.Rot.Weighted>
4.0428

> <Gold.Chemscore.Internal.Correction.Weighted>
   9.000000E+99

> <Gold.Protein.RotatedTorsions>
[ 6907 6896 6895 6894 ] final   -2.18 input  -60.11 | X-H torsion
[ 7974 7965 7964 7962 ] final -147.08 input  175.53 | X-H torsion
[ 8008 7997 7996 7995 ] final  -53.47 input   59.86 | X-H torsion
[ 10167 10162 10161 10158 ] final   -6.96 input  -65.29 | X-H torsion
[ 10718 10713 10712 10709 ] final   79.87 input   66.30 | X-H torsion
[ 10763 10752 10751 10750 ] final   13.67 input  -60.55 | X-H torsion
[ 11005 11000 10999 10996 ] final   96.01 input  -57.11 | X-H torsion

> <Gold.Protein.ActiveResidues>
 VAL166  LYS551  ARG553  GLY616  TRP617  ASP618  TYR619  PRO620  LYS621  CYS622 
 ASP623  PHE694  ASN695  SER759  ASP760  ASP761  ALA762  ILE779  LEU786  VAL792 
 PHE793  MET794  SER795  GLU796  ALA797  LYS798  CYS799  TRP800  GLU811  SER814 

> <Gold.Protein.RotatedAtoms>
  151.5340  135.1068  159.9909 H   0  0  0  0  0  0  0  0  0  0  0  0  # atno 6907 bound_to 6896
  152.4565  133.7730  159.6820 H   0  0  0  0  0  0  0  0  0  0  0  0  # atno 6908 bound_to 6896
  150.8511  133.7720  159.3050 H   0  0  0  0  0  0  0  0  0  0  0  0  # atno 6909 bound_to 6896
  144.8117  140.5373  143.5638 H   0  0  0  0  0  0  0  0  0  0  0  0  # atno 7974 bound_to 7965
  154.4134  140.1199  156.5159 H   0  0  0  0  0  0  0  0  0  0  0  0  # atno 8008 bound_to 7997
  155.6752  140.3496  155.4814 H   0  0  0  0  0  0  0  0  0  0  0  0  # atno 8009 bound_to 7997
  155.9599  140.1121  157.0895 H   0  0  0  0  0  0  0  0  0  0  0  0  # atno 8010 bound_to 7997
  140.7013  143.6135  150.8681 H   0  0  0  0  0  0  0  0  0  0  0  0  # atno 10167 bound_to 10162
  157.6790  130.9934  150.1996 H   0  0  0  0  0  0  0  0  0  0  0  0  # atno 10718 bound_to 10713
  153.1698  135.6810  153.8624 H   0  0  0  0  0  0  0  0  0  0  0  0  # atno 10763 bound_to 10752
  153.7991  135.3158  155.3389 H   0  0  0  0  0  0  0  0  0  0  0  0  # atno 10764 bound_to 10752
  154.7990  135.4789  154.0322 H   0  0  0  0  0  0  0  0  0  0  0  0  # atno 10765 bound_to 10752
  139.8784  134.8929  156.4096 H   0  0  0  0  0  0  0  0  0  0  0  0  # atno 11005 bound_to 11000
  145.5309  139.1475  143.3500 LP  0  0  0  0  0  0  0  0  0  0  0  0  # atno 17320 bound_to 7965
  146.2416  140.5449  142.8931 LP  0  0  0  0  0  0  0  0  0  0  0  0  # atno 17321 bound_to 7965
  139.9857  143.5902  152.2927 LP  0  0  0  0  0  0  0  0  0  0  0  0  # atno 17342 bound_to 10162
  139.6539  144.7661  151.2094 LP  0  0  0  0  0  0  0  0  0  0  0  0  # atno 17343 bound_to 10162
  156.2690  130.3719  149.8051 LP  0  0  0  0  0  0  0  0  0  0  0  0  # atno 17370 bound_to 10713
  156.5774  130.8451  151.3373 LP  0  0  0  0  0  0  0  0  0  0  0  0  # atno 17371 bound_to 10713
  140.9210  133.7645  155.9906 LP  0  0  0  0  0  0  0  0  0  0  0  0  # atno 17394 bound_to 11000
  140.8439  134.3033  157.5302 LP  0  0  0  0  0  0  0  0  0  0  0  0  # atno 17395 bound_to 11000

$$$$
