AV-unprocessed.smi:234|AV-procd|sdf|1788|dock6
  -GOLD-   2262020343D 1   1.00000     0.00000
 Structure written by MMmdl.
 59 62  0  0  0  0  0  0  0  0  1 V2000
  151.8114  144.7461  159.0470 C   0  0  0  0  0  0  0  0  0  0  0  0
  151.7191  144.0464  157.6844 C   0  0  0  0  0  0  0  0  0  0  0  0
  150.9345  142.8645  157.7631 O   0  0  0  0  0  0  0  0  0  0  0  0
  150.6314  142.2743  156.5025 C   0  0  1  0  0  0  0  0  0  0  0  0
  151.6080  141.1490  156.1490 C   0  0  0  0  0  0  0  0  0  0  0  0
  150.6540  140.2089  156.8998 C   0  0  2  0  0  0  0  0  0  0  0  0
  150.4998  138.8886  156.2785 N   0  0  0  0  0  0  0  0  0  0  0  0
  150.6718  138.7958  154.8329 C   0  0  0  0  0  0  0  0  0  0  0  0
  149.4767  138.1069  156.7056 C   0  0  0  0  0  0  0  0  0  0  0  0
  148.4691  137.7729  155.8554 N   0  0  0  0  0  0  0  0  0  0  0  0
  147.4712  136.9874  156.2709 C   0  0  0  0  0  0  0  0  0  0  0  0
  147.2893  136.4339  157.4714 N   0  0  0  0  0  0  0  0  0  0  0  0
  148.2982  136.7645  158.3274 C   0  0  0  0  0  0  0  0  0  0  0  0
  149.4224  137.5838  158.0269 C   0  0  0  0  0  0  0  0  0  0  0  0
  150.2406  137.6963  159.1443 N   0  0  0  0  0  0  0  0  0  0  0  0
  149.6364  136.9807  160.0532 C   0  0  0  0  0  0  0  0  0  0  0  0
  148.4573  136.3936  159.6516 N   0  0  0  0  0  0  0  0  0  0  0  0
  147.5855  135.5541  160.4597 C   0  0  0  0  0  0  0  0  0  0  0  0
  146.6755  136.3572  161.4263 C   0  0  1  0  0  0  0  0  0  0  0  0
  147.4915  137.2787  162.1309 O   0  0  0  0  0  0  0  0  0  0  0  0
  145.5802  137.1513  160.7199 C   0  0  0  0  0  0  0  0  0  0  0  0
  144.4799  137.2233  161.7672 C   0  0  0  0  0  0  0  0  0  0  0  0
  144.5219  135.9284  162.3391 O   0  0  0  0  0  0  0  0  0  0  0  0
  145.8833  135.5292  162.4779 C   0  0  1  0  0  0  0  0  0  0  0  0
  145.9347  133.9999  162.3370 C   0  0  0  0  0  0  0  0  0  0  0  0
  149.5056  141.2133  156.5991 C   0  0  0  0  0  0  0  0  0  0  0  0
  148.4753  141.4382  157.7100 C   0  0  0  0  0  0  0  0  0  0  0  0
  148.7146  141.0220  155.2940 C   0  0  0  0  0  0  0  0  0  0  0  0
  152.4814  145.6044  158.9952 H   0  0  0  0  0  0  0  0  0  0  0  0
  152.1983  144.0680  159.8078 H   0  0  0  0  0  0  0  0  0  0  0  0
  150.8410  145.1093  159.3841 H   0  0  0  0  0  0  0  0  0  0  0  0
  151.3391  144.7250  156.9196 H   0  0  0  0  0  0  0  0  0  0  0  0
  152.7212  143.7547  157.3700 H   0  0  0  0  0  0  0  0  0  0  0  0
  150.4727  142.9980  155.7023 H   0  0  0  0  0  0  0  0  0  0  0  0
  151.6646  140.9573  155.0761 H   0  0  0  0  0  0  0  0  0  0  0  0
  152.5999  141.2364  156.5927 H   0  0  0  0  0  0  0  0  0  0  0  0
  150.8890  140.1657  157.9651 H   0  0  0  0  0  0  0  0  0  0  0  0
  149.7091  138.7917  154.3194 H   0  0  0  0  0  0  0  0  0  0  0  0
  151.2047  137.8818  154.5710 H   0  0  0  0  0  0  0  0  0  0  0  0
  151.2462  139.6351  154.4451 H   0  0  0  0  0  0  0  0  0  0  0  0
  146.7103  136.7706  155.5356 H   0  0  0  0  0  0  0  0  0  0  0  0
  150.0334  136.8657  161.0516 H   0  0  0  0  0  0  0  0  0  0  0  0
  146.9848  134.9485  159.7808 H   0  0  0  0  0  0  0  0  0  0  0  0
  148.2129  134.8595  161.0198 H   0  0  0  0  0  0  0  0  0  0  0  0
  147.3254  137.1781  163.0556 H   0  0  0  0  0  0  0  0  0  0  0  0
  145.9019  138.1309  160.3635 H   0  0  0  0  0  0  0  0  0  0  0  0
  145.2044  136.5922  159.8624 H   0  0  0  0  0  0  0  0  0  0  0  0
  144.7055  137.9729  162.5273 H   0  0  0  0  0  0  0  0  0  0  0  0
  143.5018  137.4435  161.3395 H   0  0  0  0  0  0  0  0  0  0  0  0
  146.2035  135.7916  163.4883 H   0  0  0  0  0  0  0  0  0  0  0  0
  146.9511  133.6228  162.4500 H   0  0  0  0  0  0  0  0  0  0  0  0
  145.5532  133.6738  161.3691 H   0  0  0  0  0  0  0  0  0  0  0  0
  145.3244  133.5240  163.1047 H   0  0  0  0  0  0  0  0  0  0  0  0
  147.7165  140.6563  157.7285 H   0  0  0  0  0  0  0  0  0  0  0  0
  147.9591  142.3904  157.5841 H   0  0  0  0  0  0  0  0  0  0  0  0
  148.9415  141.4512  158.6955 H   0  0  0  0  0  0  0  0  0  0  0  0
  148.0143  140.1891  155.3621 H   0  0  0  0  0  0  0  0  0  0  0  0
  149.3672  140.8214  154.4438 H   0  0  0  0  0  0  0  0  0  0  0  0
  148.1353  141.9127  155.0486 H   0  0  0  0  0  0  0  0  0  0  0  0
  1  2  1  0  0  0  0
  1 29  1  0  0  0  0
  1 30  1  0  0  0  0
  1 31  1  0  0  0  0
  2  3  1  0  0  0  0
  2 32  1  0  0  0  0
  2 33  1  0  0  0  0
  3  4  1  0  0  0  0
  4 26  1  0  0  0  0
  4  5  1  0  0  0  0
  4 34  1  0  0  0  0
  5  6  1  0  0  0  0
  5 35  1  0  0  0  0
  5 36  1  0  0  0  0
  6  7  1  0  0  0  0
  6 26  1  0  0  0  0
  6 37  1  0  0  0  0
  7  8  1  0  0  0  0
  7  9  1  0  0  0  0
  8 38  1  0  0  0  0
  8 39  1  0  0  0  0
  8 40  1  0  0  0  0
  9 14  1  0  0  0  0
  9 10  2  0  0  0  0
 10 11  1  0  0  0  0
 11 12  2  0  0  0  0
 11 41  1  0  0  0  0
 12 13  1  0  0  0  0
 13 17  1  0  0  0  0
 13 14  2  0  0  0  0
 14 15  1  0  0  0  0
 15 16  2  0  0  0  0
 16 17  1  0  0  0  0
 16 42  1  0  0  0  0
 17 18  1  0  0  0  0
 18 19  1  0  0  0  0
 18 43  1  0  0  0  0
 18 44  1  0  0  0  0
 19 24  1  0  0  0  0
 19 20  1  0  0  0  0
 19 21  1  0  0  0  0
 20 45  1  0  0  0  0
 21 22  1  0  0  0  0
 21 46  1  0  0  0  0
 21 47  1  0  0  0  0
 22 23  1  0  0  0  0
 22 48  1  0  0  0  0
 22 49  1  0  0  0  0
 23 24  1  0  0  0  0
 24 25  1  0  0  0  0
 24 50  1  0  0  0  0
 25 51  1  0  0  0  0
 25 52  1  0  0  0  0
 25 53  1  0  0  0  0
 26 27  1  0  0  0  0
 26 28  1  0  0  0  0
 27 54  1  0  0  0  0
 27 55  1  0  0  0  0
 27 56  1  0  0  0  0
 28 57  1  0  0  0  0
 28 58  1  0  0  0  0
 28 59  1  0  0  0  0
M  END
> <s_m_source_file>
AV-unprocessed.smi

> <i_m_source_file_index>
234

> <i_lp_mmshare_version>
43012

> <i_f3d_flags>
0

> <s_epik_input>
W0NIM11bQ0gyXU9bQ0BASF0oQzEoW0NIM10pW0NIM10pW0NIMl1bQ0BIXTFOKFtDSDNdKWMobltjSF1uMiljKGMyMyluW2NIXW4zW0NIMl1bQ0BAXTQoW09IXSlbQ0gyXVtDSDJdT1tDQEhdNFtDSDNd

> <s_epik_cmdline>
J2VwaWtfcHl0aG9uJywgJy1waCcsICc3LjAnLCAnLXRuJywgJzgnLCAnLW1hJywgJzIwMCcsICctbWV0YWxfYmluZGluZycsICctaW1hZScsICc8aW5maWxlLm1hZT4nLCAnLW9tYWUnLCAnPG91dGZpbGUubWFlPic=

> <r_lp_tautomer_probability>
1

> <r_epik_Ionization_Penalty>
0.00349132

> <r_epik_Ionization_Penalty_Charging>
0

> <r_epik_Ionization_Penalty_Neutral>
0.00349132

> <r_epik_State_Penalty>
0.00242418

> <r_epik_Charging_Adjusted_Penalty>
0.00242418

> <i_epik_Tot_Q>
0

> <i_epik_Tot_abs_Q>
0

> <r_epik_Metal_State_Penalty>
-0

> <b_epik_Metal_Only>
0

> <s_lp_Force_Field>
OPLS_2005

> <r_lp_Energy>
49.5598

> <b_lp_Chiralities_Consistent>
1

> <s_lp_Variant>
AV-unprocessed.smi:234-4

> <Gold.Version>
5.8.1

> <Gold.Id.Protein>
6NUR|6NUR_protein|mol2

> <Gold.PLP.Fitness>
40.9087

> <Gold.PLP.PLP>
-38.6284

> <Gold.PLP.part.hbond>
-2.0543

> <Gold.PLP.part.metal>
0.0000

> <Gold.PLP.part.buried>
-4.9411

> <Gold.PLP.part.nonpolar>
-32.3584

> <Gold.PLP.part.repulsive>
0.1559

> <Gold.PLP.ligand.clash>
0.0055

> <Gold.PLP.ligand.torsion>
1.3208

> <Gold.PLP.Chemscore.Hbond>
1.3219

> <Gold.PLP.Chemscore.CHOScore>
0.0000

> <Gold.PLP.Chemscore.Metal>
0.0000

> <Gold.Chemscore.Hbonds>
donor molecule, donor type, donor heavy atom, donor atom, acceptor molecule, acceptor atom, score
      P1  H  6931  6943       L1    20  0.86
      P1  H  6934  6947       L1    20  0.48

> <Gold.PLP.Chemscore.Internal.Correction>
0.9617

> <Gold.Rescore>
     Score         DG    S(hbond)    S(metal)    S(lipo)     H(rot)  DE(clash)    DE(int)     intcor
     11.04     -12.70       0.89        0.00      93.61       2.62       0.07       1.59       ----

> <Gold.Chemscore.Fitness>
11.0423

> <Gold.Chemscore.DG>
-12.6995

> <Gold.Chemscore.ZeroCoef>
-5.4800

> <Gold.Chemscore.Hbond>
0.8921

> <Gold.Chemscore.Metal>
0.0000

> <Gold.Chemscore.Lipo>
93.6067

> <Gold.Chemscore.Internal_Hbond>
0.0000

> <Gold.Chemscore.DEClash>
0.0722

> <Gold.Chemscore.DEInternal>
1.5851

> <Gold.Chemscore.Rot>
2.6219

> <Gold.Chemscore.Internal.Correction>
   9.000000E+99

> <Gold.Chemscore.Hbonds>
donor molecule, donor type, donor heavy atom, donor atom, acceptor molecule, acceptor atom, score
      P1  H  6931  6943       L1    20  0.55
      P1  H  6934  6947       L1    20  0.14

> <Gold.Chemscore.Hbond.Weighted>
-2.9796

> <Gold.Chemscore.Metal.Weighted>
-0.0000

> <Gold.Chemscore.Lipo.Weighted>
-10.9520

> <Gold.Chemscore.Internal_Hbond.Weighted>
0.0000

> <Gold.Chemscore.DEClash.Weighted>
0.0722

> <Gold.Chemscore.DEInternal.Weighted>
1.5851

> <Gold.Chemscore.Rot.Weighted>
6.7121

> <Gold.Chemscore.Internal.Correction.Weighted>
   9.000000E+99

> <Gold.Protein.RotatedTorsions>
[ 6907 6896 6895 6894 ] final  -78.96 input  -60.11 | X-H torsion
[ 7974 7965 7964 7962 ] final  -27.86 input  175.53 | X-H torsion
[ 8008 7997 7996 7995 ] final   83.86 input   59.86 | X-H torsion
[ 10167 10162 10161 10158 ] final -177.70 input  -65.29 | X-H torsion
[ 10718 10713 10712 10709 ] final -156.17 input   66.30 | X-H torsion
[ 10763 10752 10751 10750 ] final   61.75 input  -60.55 | X-H torsion
[ 11005 11000 10999 10996 ] final -109.97 input  -57.11 | X-H torsion

> <Gold.Protein.ActiveResidues>
 VAL166  LYS551  ARG553  GLY616  TRP617  ASP618  TYR619  PRO620  LYS621  CYS622 
 ASP623  PHE694  ASN695  SER759  ASP760  ASP761  ALA762  ILE779  LEU786  VAL792 
 PHE793  MET794  SER795  GLU796  ALA797  LYS798  CYS799  TRP800  GLU811  SER814 

> <Gold.Protein.RotatedAtoms>
  150.6960  134.4194  159.5197 H   0  0  0  0  0  0  0  0  0  0  0  0  # atno 6907 bound_to 6896
  152.1939  134.8645  160.0524 H   0  0  0  0  0  0  0  0  0  0  0  0  # atno 6908 bound_to 6896
  151.9590  133.3654  159.4065 H   0  0  0  0  0  0  0  0  0  0  0  0  # atno 6909 bound_to 6896
  146.1329  140.5207  142.8685 H   0  0  0  0  0  0  0  0  0  0  0  0  # atno 7974 bound_to 7965
  155.9295  140.3416  155.6238 H   0  0  0  0  0  0  0  0  0  0  0  0  # atno 8008 bound_to 7997
  155.7174  140.0779  157.2364 H   0  0  0  0  0  0  0  0  0  0  0  0  # atno 8009 bound_to 7997
  154.4083  140.1611  156.2352 H   0  0  0  0  0  0  0  0  0  0  0  0  # atno 8010 bound_to 7997
  139.5467  144.2216  152.1002 H   0  0  0  0  0  0  0  0  0  0  0  0  # atno 10167 bound_to 10162
  156.5228  130.8486  151.2688 H   0  0  0  0  0  0  0  0  0  0  0  0  # atno 10718 bound_to 10713
  152.9960  135.5489  154.6084 H   0  0  0  0  0  0  0  0  0  0  0  0  # atno 10763 bound_to 10752
  154.5410  135.2820  155.1098 H   0  0  0  0  0  0  0  0  0  0  0  0  # atno 10764 bound_to 10752
  154.2375  135.6422  153.5248 H   0  0  0  0  0  0  0  0  0  0  0  0  # atno 10765 bound_to 10752
  141.0818  133.9207  157.2272 H   0  0  0  0  0  0  0  0  0  0  0  0  # atno 11005 bound_to 11000
  144.7709  140.5635  143.6671 LP  0  0  0  0  0  0  0  0  0  0  0  0  # atno 17320 bound_to 7965
  145.5221  139.1476  143.3546 LP  0  0  0  0  0  0  0  0  0  0  0  0  # atno 17321 bound_to 7965
  140.1704  144.4941  150.6583 LP  0  0  0  0  0  0  0  0  0  0  0  0  # atno 17342 bound_to 10162
  140.6718  143.2289  151.5607 LP  0  0  0  0  0  0  0  0  0  0  0  0  # atno 17343 bound_to 10162
  157.7434  130.9911  150.2590 LP  0  0  0  0  0  0  0  0  0  0  0  0  # atno 17370 bound_to 10713
  156.3133  130.3775  149.7641 LP  0  0  0  0  0  0  0  0  0  0  0  0  # atno 17371 bound_to 10713
  139.9633  135.0148  156.9318 LP  0  0  0  0  0  0  0  0  0  0  0  0  # atno 17394 bound_to 11000
  140.5451  134.0682  155.7352 LP  0  0  0  0  0  0  0  0  0  0  0  0  # atno 17395 bound_to 11000

$$$$
