AV-unprocessed.smi:2865|AV-procd|sdf|11015|dock2
  -GOLD-   2272015473D 1   1.00000     0.00000
 Structure written by MMmdl.
 38 41  0  0  0  0  0  0  0  0  1 V2000
  146.2204  137.6293  154.9819 O   0  0  0  0  0  0  0  0  0  0  0  0
  147.0457  137.1800  154.1902 C   0  0  0  0  0  0  0  0  0  0  0  0
  148.2911  137.6650  154.0195 N   0  0  0  0  0  0  0  0  0  0  0  0
  148.9451  138.7105  154.7250 C   0  0  0  0  0  0  0  0  0  0  0  0
  148.5902  139.1758  156.0156 C   0  0  0  0  0  0  0  0  0  0  0  0
  149.2780  140.1649  156.6266 N   0  0  0  0  0  0  0  0  0  0  0  0
  150.3069  140.6921  155.9575 C   0  0  0  0  0  0  0  0  0  0  0  0
  151.0885  141.7602  156.6582 C   0  0  0  0  0  0  0  0  0  0  0  0
  151.8095  141.4679  157.9582 C   0  0  0  0  0  0  0  0  0  0  0  0
  150.5951  142.3539  157.9619 C   0  0  0  0  0  0  0  0  0  0  0  0
  150.7450  140.3216  154.7512 N   0  0  0  0  0  0  0  0  0  0  0  0
  150.0637  139.3332  154.1330 C   0  0  0  0  0  0  0  0  0  0  0  0
  146.7433  136.1484  153.3824 N   0  0  0  0  0  0  0  0  0  0  0  0
  145.4888  135.3972  153.3103 C   0  0  2  0  0  0  0  0  0  0  0  0
  145.6968  133.9201  152.9510 C   0  0  0  0  0  0  0  0  0  0  0  0
  144.8686  133.7874  151.6661 C   0  0  1  0  0  0  0  0  0  0  0  0
  143.3600  133.8875  151.9361 C   0  0  0  0  0  0  0  0  0  0  0  0
  143.1911  135.3770  152.2371 C   0  0  0  0  0  0  0  0  0  0  0  0
  144.6359  135.8808  152.1248 C   0  0  2  0  0  0  0  0  0  0  0  0
  145.1127  135.0519  151.0776 O   0  0  0  0  0  0  0  0  0  0  0  0
  148.8282  137.2444  153.2755 H   0  0  0  0  0  0  0  0  0  0  0  0
  147.7753  138.7596  156.5862 H   0  0  0  0  0  0  0  0  0  0  0  0
  151.5739  142.4263  155.9474 H   0  0  0  0  0  0  0  0  0  0  0  0
  151.7038  140.4726  158.3858 H   0  0  0  0  0  0  0  0  0  0  0  0
  152.7776  141.9406  158.1107 H   0  0  0  0  0  0  0  0  0  0  0  0
  150.7502  143.4195  158.1176 H   0  0  0  0  0  0  0  0  0  0  0  0
  149.6818  141.9477  158.3923 H   0  0  0  0  0  0  0  0  0  0  0  0
  150.4181  139.0362  153.1568 H   0  0  0  0  0  0  0  0  0  0  0  0
  147.4569  135.8674  152.7254 H   0  0  0  0  0  0  0  0  0  0  0  0
  144.9327  135.5142  154.2423 H   0  0  0  0  0  0  0  0  0  0  0  0
  146.7460  133.6996  152.7479 H   0  0  0  0  0  0  0  0  0  0  0  0
  145.3564  133.2436  153.7358 H   0  0  0  0  0  0  0  0  0  0  0  0
  145.1526  132.9389  151.0431 H   0  0  0  0  0  0  0  0  0  0  0  0
  142.7868  133.6104  151.0508 H   0  0  0  0  0  0  0  0  0  0  0  0
  143.0444  133.2494  152.7620 H   0  0  0  0  0  0  0  0  0  0  0  0
  142.5573  135.8495  151.4858 H   0  0  0  0  0  0  0  0  0  0  0  0
  142.7559  135.5662  153.2190 H   0  0  0  0  0  0  0  0  0  0  0  0
  144.7089  136.9501  151.9224 H   0  0  0  0  0  0  0  0  0  0  0  0
  1  2  2  0  0  0  0
  2  3  1  0  0  0  0
  2 13  1  0  0  0  0
  3  4  1  0  0  0  0
  3 21  1  0  0  0  0
  4 12  1  0  0  0  0
  4  5  2  0  0  0  0
  5  6  1  0  0  0  0
  5 22  1  0  0  0  0
  6  7  2  0  0  0  0
  7  8  1  0  0  0  0
  7 11  1  0  0  0  0
  8 10  1  0  0  0  0
  8  9  1  0  0  0  0
  8 23  1  0  0  0  0
  9 10  1  0  0  0  0
  9 24  1  0  0  0  0
  9 25  1  0  0  0  0
 10 26  1  0  0  0  0
 10 27  1  0  0  0  0
 11 12  2  0  0  0  0
 12 28  1  0  0  0  0
 13 14  1  0  0  0  0
 13 29  1  0  0  0  0
 14 19  1  0  0  0  0
 14 15  1  0  0  0  0
 14 30  1  0  0  0  0
 15 16  1  0  0  0  0
 15 31  1  0  0  0  0
 15 32  1  0  0  0  0
 16 20  1  0  0  0  0
 16 17  1  0  0  0  0
 16 33  1  0  0  0  0
 17 18  1  0  0  0  0
 17 34  1  0  0  0  0
 17 35  1  0  0  0  0
 18 19  1  0  0  0  0
 18 36  1  0  0  0  0
 18 37  1  0  0  0  0
 19 20  1  0  0  0  0
 19 38  1  0  0  0  0
M  END
> <s_m_source_file>
AV-unprocessed.smi

> <i_m_source_file_index>
2865

> <i_lp_mmshare_version>
43012

> <i_f3d_flags>
0

> <s_epik_input>
W0NIMl0xW0NIMl1bQ0BIXShPMilbQ0BASF0oW0NIMl1bQ0BASF0xMilbTkhdQyg9TylbTkhdYzNbY0hdbmMobltjSF0zKVtDSF00W0NIMl1bQ0gyXTQ=

> <s_epik_cmdline>
J2VwaWtfcHl0aG9uJywgJy1waCcsICc3LjAnLCAnLXRuJywgJzgnLCAnLW1hJywgJzIwMCcsICctbWV0YWxfYmluZGluZycsICctaW1hZScsICc8aW5maWxlLm1hZT4nLCAnLW9tYWUnLCAnPG91dGZpbGUubWFlPic=

> <r_lp_tautomer_probability>
1

> <r_epik_Ionization_Penalty>
2.43104e-05

> <r_epik_Ionization_Penalty_Charging>
0

> <r_epik_Ionization_Penalty_Neutral>
2.43104e-05

> <r_epik_State_Penalty>
-0

> <r_epik_Charging_Adjusted_Penalty>
0

> <i_epik_Tot_Q>
0

> <i_epik_Tot_abs_Q>
0

> <r_epik_Metal_State_Penalty>
-0

> <b_epik_Metal_Only>
0

> <s_lp_Force_Field>
OPLS_2005

> <r_lp_Energy>
45.9934

> <b_lp_Chiralities_Consistent>
1

> <s_lp_Variant>
AV-unprocessed.smi:2865-1

> <Gold.Version>
5.8.1

> <Gold.Id.Protein>
6NUR|6NUR_protein|mol2

> <Gold.PLP.Fitness>
36.0402

> <Gold.PLP.PLP>
-25.1944

> <Gold.PLP.part.hbond>
-3.0000

> <Gold.PLP.part.metal>
0.0000

> <Gold.PLP.part.buried>
-3.5295

> <Gold.PLP.part.nonpolar>
-18.3847

> <Gold.PLP.part.repulsive>
0.3328

> <Gold.PLP.ligand.clash>
0.0000

> <Gold.PLP.ligand.torsion>
0.4860

> <Gold.PLP.Chemscore.Hbond>
3.0000

> <Gold.PLP.Chemscore.CHOScore>
0.8904

> <Gold.PLP.Chemscore.Metal>
0.0000

> <Gold.Chemscore.Hbonds>
donor molecule, donor type, donor heavy atom, donor atom, acceptor molecule, acceptor atom, score
      L1  H     3    21       P1  7948  1.00
      L1  H    13    29       P1  7948  1.00
      P1  H  7989  7998       L1    11  1.00
      L1  C    12    28       P1  7957  0.86

> <Gold.PLP.Chemscore.Internal.Correction>
0.1467

> <Gold.Rescore>
     Score         DG    S(hbond)    S(metal)    S(lipo)     H(rot)  DE(clash)    DE(int)     intcor
     16.07     -18.11       2.60        0.00      59.94       1.20       0.62       1.42       ----

> <Gold.Chemscore.Fitness>
16.0693

> <Gold.Chemscore.DG>
-18.1053

> <Gold.Chemscore.ZeroCoef>
-5.4800

> <Gold.Chemscore.Hbond>
2.6012

> <Gold.Chemscore.Metal>
0.0000

> <Gold.Chemscore.Lipo>
59.9355

> <Gold.Chemscore.Internal_Hbond>
0.0000

> <Gold.Chemscore.DEClash>
0.6185

> <Gold.Chemscore.DEInternal>
1.4175

> <Gold.Chemscore.Rot>
1.2012

> <Gold.Chemscore.Internal.Correction>
   9.000000E+99

> <Gold.Chemscore.Hbonds>
donor molecule, donor type, donor heavy atom, donor atom, acceptor molecule, acceptor atom, score
      L1  H     3    21       P1  7948  0.97
      L1  H    13    29       P1  7948  0.94
      P1  H  7989  7998       L1    11  0.25

> <Gold.Chemscore.Hbond.Weighted>
-8.6880

> <Gold.Chemscore.Metal.Weighted>
-0.0000

> <Gold.Chemscore.Lipo.Weighted>
-7.0125

> <Gold.Chemscore.Internal_Hbond.Weighted>
0.0000

> <Gold.Chemscore.DEClash.Weighted>
0.6185

> <Gold.Chemscore.DEInternal.Weighted>
1.4175

> <Gold.Chemscore.Rot.Weighted>
3.0752

> <Gold.Chemscore.Internal.Correction.Weighted>
   9.000000E+99

> <Gold.Protein.RotatedTorsions>
[ 6907 6896 6895 6894 ] final  -80.92 input  -60.11 | X-H torsion
[ 7974 7965 7964 7962 ] final  118.77 input  175.53 | X-H torsion
[ 8008 7997 7996 7995 ] final -142.93 input   59.86 | X-H torsion
[ 10167 10162 10161 10158 ] final  -54.65 input  -65.29 | X-H torsion
[ 10718 10713 10712 10709 ] final -125.83 input   66.30 | X-H torsion
[ 10763 10752 10751 10750 ] final   64.86 input  -60.55 | X-H torsion
[ 11005 11000 10999 10996 ] final   17.72 input  -57.11 | X-H torsion

> <Gold.Protein.ActiveResidues>
 VAL166  LYS551  ARG553  GLY616  TRP617  ASP618  TYR619  PRO620  LYS621  CYS622 
 ASP623  PHE694  ASN695  SER759  ASP760  ASP761  ALA762  ILE779  LEU786  VAL792 
 PHE793  MET794  SER795  GLU796  ALA797  LYS798  CYS799  TRP800  GLU811  SER814 

> <Gold.Protein.RotatedAtoms>
  150.6921  134.3895  159.5069 H   0  0  0  0  0  0  0  0  0  0  0  0  # atno 6907 bound_to 6896
  152.1686  134.8850  160.0545 H   0  0  0  0  0  0  0  0  0  0  0  0  # atno 6908 bound_to 6896
  151.9885  133.3748  159.4172 H   0  0  0  0  0  0  0  0  0  0  0  0  # atno 6909 bound_to 6896
  145.1511  139.3210  143.4566 H   0  0  0  0  0  0  0  0  0  0  0  0  # atno 7974 bound_to 7965
  155.5022  140.0576  157.2937 H   0  0  0  0  0  0  0  0  0  0  0  0  # atno 8008 bound_to 7997
  154.4583  140.1983  156.0267 H   0  0  0  0  0  0  0  0  0  0  0  0  # atno 8009 bound_to 7997
  156.0841  140.3243  155.7735 H   0  0  0  0  0  0  0  0  0  0  0  0  # atno 8010 bound_to 7997
  140.6419  143.2512  151.4967 H   0  0  0  0  0  0  0  0  0  0  0  0  # atno 10167 bound_to 10162
  156.1711  130.6668  151.0180 H   0  0  0  0  0  0  0  0  0  0  0  0  # atno 10718 bound_to 10713
  153.0072  135.5378  154.6576 H   0  0  0  0  0  0  0  0  0  0  0  0  # atno 10763 bound_to 10752
  154.5793  135.2848  155.0751 H   0  0  0  0  0  0  0  0  0  0  0  0  # atno 10764 bound_to 10752
  154.1887  135.6504  153.5106 H   0  0  0  0  0  0  0  0  0  0  0  0  # atno 10765 bound_to 10752
  140.4328  134.1402  155.7682 H   0  0  0  0  0  0  0  0  0  0  0  0  # atno 11005 bound_to 11000
  146.3494  140.1586  142.8591 LP  0  0  0  0  0  0  0  0  0  0  0  0  # atno 17320 bound_to 7965
  145.0429  140.8959  143.5041 LP  0  0  0  0  0  0  0  0  0  0  0  0  # atno 17321 bound_to 7965
  139.5628  144.2115  152.1718 LP  0  0  0  0  0  0  0  0  0  0  0  0  # atno 17342 bound_to 10162
  140.1388  144.5221  150.6757 LP  0  0  0  0  0  0  0  0  0  0  0  0  # atno 17343 bound_to 10162
  157.6803  131.0840  150.7387 LP  0  0  0  0  0  0  0  0  0  0  0  0  # atno 17370 bound_to 10713
  156.7446  130.4750  149.5470 LP  0  0  0  0  0  0  0  0  0  0  0  0  # atno 17371 bound_to 10713
  141.1738  133.8555  157.1486 LP  0  0  0  0  0  0  0  0  0  0  0  0  # atno 17394 bound_to 11000
  140.0122  134.9983  157.0419 LP  0  0  0  0  0  0  0  0  0  0  0  0  # atno 17395 bound_to 11000

$$$$
