AV-unprocessed.smi:2158|AV-procd|sdf|8790|dock5
  -GOLD-   2272011573D 1   1.00000     0.00000
 Structure written by MMmdl.
 30 30  0  0  0  0  0  0  0  0  2 V2000
  152.8932  142.5732  161.6616 C   0  0  0  0  0  0  0  0  0  0  0  0
  152.7848  142.2410  160.1661 C   0  0  0  0  0  0  0  0  0  0  0  0
  151.8382  143.1773  159.3924 C   0  0  1  0  0  0  0  0  0  0  0  0
  152.2777  144.6458  159.5030 C   0  0  0  0  0  0  0  0  0  0  0  0
  151.7755  142.7784  157.9887 N   0  0  0  0  0  0  0  0  0  0  0  0
  150.9140  141.8923  157.4670 C   0  0  0  0  0  0  0  0  0  0  0  0
  150.0416  141.3269  158.1276 O   0  0  0  0  0  0  0  0  0  0  0  0
  151.0453  141.6343  155.9601 C   0  0  0  0  0  0  0  0  0  0  0  0
  151.1982  140.2073  155.6365 N   0  0  0  0  0  0  0  0  0  0  0  0
  150.3753  139.6726  154.6295 C   0  0  0  0  0  0  0  0  0  0  0  0
  150.4436  138.3767  154.2701 C   0  0  0  0  0  0  0  0  0  0  0  0
  151.4030  137.5198  154.9557 C   0  0  0  0  0  0  0  0  0  0  0  0
  151.4811  136.3348  154.6379 O   0  0  0  0  0  0  0  0  0  0  0  0
  152.1764  138.0846  155.9289 N   0  5  0  0  0  0  0  0  0  0  0  0
  152.0942  139.4040  156.2858 C   0  0  0  0  0  0  0  0  0  0  0  0
  152.7994  139.8932  157.1693 O   0  0  0  0  0  0  0  0  0  0  0  0
  153.6088  141.9139  162.1530 H   0  0  0  0  0  0  0  0  0  0  0  0
  151.9357  142.4572  162.1703 H   0  0  0  0  0  0  0  0  0  0  0  0
  153.2296  143.5993  161.8120 H   0  0  0  0  0  0  0  0  0  0  0  0
  153.7811  142.2957  159.7261 H   0  0  0  0  0  0  0  0  0  0  0  0
  152.4587  141.2066  160.0494 H   0  0  0  0  0  0  0  0  0  0  0  0
  150.8446  143.0853  159.8356 H   0  0  0  0  0  0  0  0  0  0  0  0
  152.3118  144.9667  160.5442 H   0  0  0  0  0  0  0  0  0  0  0  0
  151.5843  145.3063  158.9810 H   0  0  0  0  0  0  0  0  0  0  0  0
  153.2691  144.7974  159.0749 H   0  0  0  0  0  0  0  0  0  0  0  0
  152.4550  143.1937  157.3682 H   0  0  0  0  0  0  0  0  0  0  0  0
  150.1618  142.0439  155.4690 H   0  0  0  0  0  0  0  0  0  0  0  0
  151.8861  142.2021  155.5568 H   0  0  0  0  0  0  0  0  0  0  0  0
  149.6878  140.3722  154.1773 H   0  0  0  0  0  0  0  0  0  0  0  0
  149.8022  137.9808  153.4966 H   0  0  0  0  0  0  0  0  0  0  0  0
  1  2  1  0  0  0  0
  1 17  1  0  0  0  0
  1 18  1  0  0  0  0
  1 19  1  0  0  0  0
  2  3  1  0  0  0  0
  2 20  1  0  0  0  0
  2 21  1  0  0  0  0
  3  4  1  0  0  0  0
  3  5  1  0  0  0  0
  3 22  1  0  0  0  0
  4 23  1  0  0  0  0
  4 24  1  0  0  0  0
  4 25  1  0  0  0  0
  5  6  1  0  0  0  0
  5 26  1  0  0  0  0
  6  7  2  0  0  0  0
  6  8  1  0  0  0  0
  8  9  1  0  0  0  0
  8 27  1  0  0  0  0
  8 28  1  0  0  0  0
  9 15  1  0  0  0  0
  9 10  1  0  0  0  0
 10 11  2  0  0  0  0
 10 29  1  0  0  0  0
 11 12  1  0  0  0  0
 11 30  1  0  0  0  0
 12 13  2  0  0  0  0
 12 14  1  0  0  0  0
 14 15  1  0  0  0  0
 15 16  2  0  0  0  0
M  CHG  1  14  -1
M  END
> <s_m_source_file>
AV-unprocessed.smi

> <i_m_source_file_index>
2158

> <i_lp_mmshare_version>
43012

> <i_f3d_flags>
0

> <s_epik_input>
W0NIM11bQ0gyXVtDQEhdKFtDSDNdKVtOSF1DKD1PKVtDSDJdbjFbY0hdW2NIXWMoPU8pW25IXWMxPU8=

> <s_epik_cmdline>
J2VwaWtfcHl0aG9uJywgJy1waCcsICc3LjAnLCAnLXRuJywgJzgnLCAnLW1hJywgJzIwMCcsICctbWV0YWxfYmluZGluZycsICctaW1hZScsICc8aW5maWxlLm1hZT4nLCAnLW9tYWUnLCAnPG91dGZpbGUubWFlPic=

> <r_lp_tautomer_probability>
0.999537

> <r_epik_Ionization_Penalty>
3.08395

> <r_epik_Ionization_Penalty_Charging>
2.76809e-08

> <r_epik_Ionization_Penalty_Neutral>
3.08395

> <r_epik_State_Penalty>
3.08299

> <r_epik_Charging_Adjusted_Penalty>
3.08299

> <i_epik_Tot_Q>
-1

> <i_epik_Tot_abs_Q>
1

> <r_epik_Metal_State_Penalty>
0.460296

> <b_epik_Metal_Only>
1

> <s_lp_Force_Field>
OPLS_2005

> <r_lp_Energy>
11.8207

> <b_lp_Chiralities_Consistent>
1

> <s_lp_Variant>
AV-unprocessed.smi:2158-4

> <Gold.Version>
5.8.1

> <Gold.Id.Protein>
6NUR|6NUR_protein|mol2

> <Gold.PLP.Fitness>
41.2171

> <Gold.PLP.PLP>
-36.2420

> <Gold.PLP.part.hbond>
-2.0000

> <Gold.PLP.part.metal>
0.0000

> <Gold.PLP.part.buried>
-3.3134

> <Gold.PLP.part.nonpolar>
-30.5370

> <Gold.PLP.part.repulsive>
0.2319

> <Gold.PLP.ligand.clash>
0.0000

> <Gold.PLP.ligand.torsion>
0.5193

> <Gold.PLP.Chemscore.Hbond>
2.0000

> <Gold.PLP.Chemscore.CHOScore>
0.0000

> <Gold.PLP.Chemscore.Metal>
0.0000

> <Gold.Chemscore.Hbonds>
donor molecule, donor type, donor heavy atom, donor atom, acceptor molecule, acceptor atom, score
      P1  H  7997  8010       L1    16  1.00
      P1  H 10752 10765       L1    13  1.00

> <Gold.PLP.Chemscore.Internal.Correction>
0.0136

> <Gold.Rescore>
     Score         DG    S(hbond)    S(metal)    S(lipo)     H(rot)  DE(clash)    DE(int)     intcor
     13.12     -15.06       1.93        0.00      69.22       1.94       0.18       1.76       ----

> <Gold.Chemscore.Fitness>
13.1172

> <Gold.Chemscore.DG>
-15.0571

> <Gold.Chemscore.ZeroCoef>
-5.4800

> <Gold.Chemscore.Hbond>
1.9332

> <Gold.Chemscore.Metal>
0.0000

> <Gold.Chemscore.Lipo>
69.2241

> <Gold.Chemscore.Internal_Hbond>
0.0000

> <Gold.Chemscore.DEClash>
0.1821

> <Gold.Chemscore.DEInternal>
1.7578

> <Gold.Chemscore.Rot>
1.9449

> <Gold.Chemscore.Internal.Correction>
   9.000000E+99

> <Gold.Chemscore.Hbonds>
donor molecule, donor type, donor heavy atom, donor atom, acceptor molecule, acceptor atom, score
      P1  H  7997  8010       L1    16  0.65
      P1  H 10752 10765       L1    13  0.98

> <Gold.Chemscore.Hbond.Weighted>
-6.4570

> <Gold.Chemscore.Metal.Weighted>
-0.0000

> <Gold.Chemscore.Lipo.Weighted>
-8.0992

> <Gold.Chemscore.Internal_Hbond.Weighted>
0.0000

> <Gold.Chemscore.DEClash.Weighted>
0.1821

> <Gold.Chemscore.DEInternal.Weighted>
1.7578

> <Gold.Chemscore.Rot.Weighted>
4.9791

> <Gold.Chemscore.Internal.Correction.Weighted>
   9.000000E+99

> <Gold.Protein.RotatedTorsions>
[ 6907 6896 6895 6894 ] final  139.12 input  -60.11 | X-H torsion
[ 7974 7965 7964 7962 ] final  169.26 input  175.53 | X-H torsion
[ 8008 7997 7996 7995 ] final   67.28 input   59.86 | X-H torsion
[ 10167 10162 10161 10158 ] final  152.85 input  -65.29 | X-H torsion
[ 10718 10713 10712 10709 ] final   19.53 input   66.30 | X-H torsion
[ 10763 10752 10751 10750 ] final  166.87 input  -60.55 | X-H torsion
[ 11005 11000 10999 10996 ] final  -22.88 input  -57.11 | X-H torsion

> <Gold.Protein.ActiveResidues>
 VAL166  LYS551  ARG553  GLY616  TRP617  ASP618  TYR619  PRO620  LYS621  CYS622 
 ASP623  PHE694  ASN695  SER759  ASP760  ASP761  ALA762  ILE779  LEU786  VAL792 
 PHE793  MET794  SER795  GLU796  ALA797  LYS798  CYS799  TRP800  GLU811  SER814 

> <Gold.Protein.RotatedAtoms>
  152.2586  133.5277  159.5367 H   0  0  0  0  0  0  0  0  0  0  0  0  # atno 6907 bound_to 6896
  150.7117  134.0861  159.3924 H   0  0  0  0  0  0  0  0  0  0  0  0  # atno 6908 bound_to 6896
  151.8779  135.0465  160.0536 H   0  0  0  0  0  0  0  0  0  0  0  0  # atno 6909 bound_to 6896
  144.7361  139.9028  143.6410 H   0  0  0  0  0  0  0  0  0  0  0  0  # atno 7974 bound_to 7965
  155.6904  140.3496  155.4891 H   0  0  0  0  0  0  0  0  0  0  0  0  # atno 8008 bound_to 7997
  155.9529  140.1122  157.0984 H   0  0  0  0  0  0  0  0  0  0  0  0  # atno 8009 bound_to 7997
  154.4126  140.1191  156.5062 H   0  0  0  0  0  0  0  0  0  0  0  0  # atno 8010 bound_to 7997
  139.4830  144.5323  151.7702 H   0  0  0  0  0  0  0  0  0  0  0  0  # atno 10167 bound_to 10162
  157.1117  130.6511  149.5899 H   0  0  0  0  0  0  0  0  0  0  0  0  # atno 10718 bound_to 10713
  154.3455  135.2753  155.2400 H   0  0  0  0  0  0  0  0  0  0  0  0  # atno 10763 bound_to 10752
  154.4652  135.5897  153.6287 H   0  0  0  0  0  0  0  0  0  0  0  0  # atno 10764 bound_to 10752
  152.9854  135.6075  154.3660 H   0  0  0  0  0  0  0  0  0  0  0  0  # atno 10765 bound_to 10752
  140.8699  133.7728  156.0174 H   0  0  0  0  0  0  0  0  0  0  0  0  # atno 11005 bound_to 11000
  146.1059  139.4059  143.0318 LP  0  0  0  0  0  0  0  0  0  0  0  0  # atno 17320 bound_to 7965
  145.7512  140.9971  143.1249 LP  0  0  0  0  0  0  0  0  0  0  0  0  # atno 17321 bound_to 7965
  140.4851  144.1393  150.5939 LP  0  0  0  0  0  0  0  0  0  0  0  0  # atno 17342 bound_to 10162
  140.4234  143.2601  151.9686 LP  0  0  0  0  0  0  0  0  0  0  0  0  # atno 17343 bound_to 10162
  155.9849  130.4876  150.7005 LP  0  0  0  0  0  0  0  0  0  0  0  0  # atno 17370 bound_to 10713
  157.4554  131.0877  151.0802 LP  0  0  0  0  0  0  0  0  0  0  0  0  # atno 17371 bound_to 10713
  140.8586  134.2868  157.5244 LP  0  0  0  0  0  0  0  0  0  0  0  0  # atno 17394 bound_to 11000
  139.8711  134.9506  156.4059 LP  0  0  0  0  0  0  0  0  0  0  0  0  # atno 17395 bound_to 11000

$$$$
