AV-unprocessed.smi:99|AV-procd|sdf|883|dock4
  -GOLD-   2262017363D 1   1.00000     0.00000
 Structure written by MMmdl.
 52 55  0  0  0  0  0  0  0  0  2 V2000
  148.1746  132.9977  153.5092 O   0  0  0  0  0  0  0  0  0  0  0  0
  147.3074  133.8332  153.2448 C   0  0  0  0  0  0  0  0  0  0  0  0
  147.1600  134.9995  153.9109 O   0  0  0  0  0  0  0  0  0  0  0  0
  147.7085  135.1871  155.2114 C   0  0  0  0  0  0  0  0  0  0  0  0
  147.3599  136.5756  155.7752 C   0  0  2  0  0  0  0  0  0  0  0  0
  147.8899  137.6006  154.9378 O   0  0  0  0  0  0  0  0  0  0  0  0
  148.4230  138.6481  155.6995 C   0  0  2  0  0  0  0  0  0  0  0  0
  149.9269  138.6742  155.4556 N   0  0  0  0  0  0  0  0  0  0  0  0
  150.5507  137.8877  154.4957 C   0  0  0  0  0  0  0  0  0  0  0  0
  151.8722  137.9879  154.2465 C   0  0  0  0  0  0  0  0  0  0  0  0
  152.6707  138.9569  154.9876 C   0  0  0  0  0  0  0  0  0  0  0  0
  153.8762  139.0353  154.7589 O   0  0  0  0  0  0  0  0  0  0  0  0
  152.0359  139.7419  155.9030 N   0  5  0  0  0  0  0  0  0  0  0  0
  150.6971  139.6484  156.1525 C   0  0  0  0  0  0  0  0  0  0  0  0
  150.1184  140.3749  156.9609 O   0  0  0  0  0  0  0  0  0  0  0  0
  148.0114  138.4017  157.1624 C   0  0  1  0  0  0  0  0  0  0  0  0
  146.7769  139.0410  157.4297 O   0  0  0  0  0  0  0  0  0  0  0  0
  147.8881  136.8834  157.1743 C   0  0  1  0  0  0  0  0  0  0  0  0
  147.0786  136.3767  158.2281 O   0  0  0  0  0  0  0  0  0  0  0  0
  147.4273  136.5775  159.5170 C   0  0  0  0  0  0  0  0  0  0  0  0
  148.0579  137.5615  159.9100 O   0  0  0  0  0  0  0  0  0  0  0  0
  146.9736  135.4798  160.4184 C   0  0  0  0  0  0  0  0  0  0  0  0
  147.5836  135.3269  161.6856 C   0  0  0  0  0  0  0  0  0  0  0  0
  147.1811  134.2953  162.5559 C   0  0  0  0  0  0  0  0  0  0  0  0
  146.1631  133.4041  162.1698 C   0  0  0  0  0  0  0  0  0  0  0  0
  145.5476  133.5461  160.9126 C   0  0  0  0  0  0  0  0  0  0  0  0
  145.9489  134.5771  160.0407 C   0  0  0  0  0  0  0  0  0  0  0  0
  146.3289  133.6766  152.1313 C   0  0  0  0  0  0  0  0  0  0  0  0
  146.1831  132.4145  151.5104 C   0  0  0  0  0  0  0  0  0  0  0  0
  145.2801  132.2404  150.4436 C   0  0  0  0  0  0  0  0  0  0  0  0
  144.5117  133.3263  149.9853 C   0  0  0  0  0  0  0  0  0  0  0  0
  144.6452  134.5860  150.5972 C   0  0  0  0  0  0  0  0  0  0  0  0
  145.5474  134.7622  151.6643 C   0  0  0  0  0  0  0  0  0  0  0  0
  147.2871  134.4216  155.8631 H   0  0  0  0  0  0  0  0  0  0  0  0
  148.7884  135.0330  155.2209 H   0  0  0  0  0  0  0  0  0  0  0  0
  146.2760  136.6990  155.7747 H   0  0  0  0  0  0  0  0  0  0  0  0
  148.0703  139.6181  155.3444 H   0  0  0  0  0  0  0  0  0  0  0  0
  149.9999  137.1685  153.9134 H   0  0  0  0  0  0  0  0  0  0  0  0
  152.3343  137.3670  153.4931 H   0  0  0  0  0  0  0  0  0  0  0  0
  148.7404  138.7945  157.8703 H   0  0  0  0  0  0  0  0  0  0  0  0
  146.8478  139.9471  157.1708 H   0  0  0  0  0  0  0  0  0  0  0  0
  148.8856  136.4597  157.2563 H   0  0  0  0  0  0  0  0  0  0  0  0
  148.3686  135.9979  162.0036 H   0  0  0  0  0  0  0  0  0  0  0  0
  147.6551  134.1876  163.5204 H   0  0  0  0  0  0  0  0  0  0  0  0
  145.8553  132.6126  162.8372 H   0  0  0  0  0  0  0  0  0  0  0  0
  144.7662  132.8623  160.6151 H   0  0  0  0  0  0  0  0  0  0  0  0
  145.4566  134.6570  159.0825 H   0  0  0  0  0  0  0  0  0  0  0  0
  146.7675  131.5678  151.8405 H   0  0  0  0  0  0  0  0  0  0  0  0
  145.1801  131.2726  149.9748 H   0  0  0  0  0  0  0  0  0  0  0  0
  143.8225  133.1944  149.1642 H   0  0  0  0  0  0  0  0  0  0  0  0
  144.0611  135.4224  150.2429 H   0  0  0  0  0  0  0  0  0  0  0  0
  145.6325  135.7453  152.1035 H   0  0  0  0  0  0  0  0  0  0  0  0
  1  2  2  0  0  0  0
  2  3  1  0  0  0  0
  2 28  1  0  0  0  0
  3  4  1  0  0  0  0
  4  5  1  0  0  0  0
  4 34  1  0  0  0  0
  4 35  1  0  0  0  0
  5 18  1  0  0  0  0
  5  6  1  0  0  0  0
  5 36  1  0  0  0  0
  6  7  1  0  0  0  0
  7  8  1  0  0  0  0
  7 16  1  0  0  0  0
  7 37  1  0  0  0  0
  8 14  1  0  0  0  0
  8  9  1  0  0  0  0
  9 10  2  0  0  0  0
  9 38  1  0  0  0  0
 10 11  1  0  0  0  0
 10 39  1  0  0  0  0
 11 12  2  0  0  0  0
 11 13  1  0  0  0  0
 13 14  1  0  0  0  0
 14 15  2  0  0  0  0
 16 17  1  0  0  0  0
 16 18  1  0  0  0  0
 16 40  1  0  0  0  0
 17 41  1  0  0  0  0
 18 19  1  0  0  0  0
 18 42  1  0  0  0  0
 19 20  1  0  0  0  0
 20 21  2  0  0  0  0
 20 22  1  0  0  0  0
 22 27  1  0  0  0  0
 22 23  2  0  0  0  0
 23 24  1  0  0  0  0
 23 43  1  0  0  0  0
 24 25  2  0  0  0  0
 24 44  1  0  0  0  0
 25 26  1  0  0  0  0
 25 45  1  0  0  0  0
 26 27  2  0  0  0  0
 26 46  1  0  0  0  0
 27 47  1  0  0  0  0
 28 33  1  0  0  0  0
 28 29  2  0  0  0  0
 29 30  1  0  0  0  0
 29 48  1  0  0  0  0
 30 31  2  0  0  0  0
 30 49  1  0  0  0  0
 31 32  1  0  0  0  0
 31 50  1  0  0  0  0
 32 33  2  0  0  0  0
 32 51  1  0  0  0  0
 33 52  1  0  0  0  0
M  CHG  1  13  -1
M  END
> <s_m_source_file>
AV-unprocessed.smi

> <i_m_source_file_index>
99

> <i_lp_mmshare_version>
43012

> <i_f3d_flags>
0

> <s_epik_input>
W2NIXTFbY0hdW2NIXVtjSF1bY0hdYzFDKD1PKU9bQ0gyXVtDQEBIXTJPW0NAQEhdKG4zW2NIXVtjSF1jKD1PKVtuSF1jMz1PKVtDQEBIXShbT0hdKVtDQEhdMk9DKD1PKWM0W2NIXVtjSF1bY0hdW2NIXVtjSF00

> <s_epik_cmdline>
J2VwaWtfcHl0aG9uJywgJy1waCcsICc3LjAnLCAnLXRuJywgJzgnLCAnLW1hJywgJzIwMCcsICctbWV0YWxfYmluZGluZycsICctaW1hZScsICc8aW5maWxlLm1hZT4nLCAnLW9tYWUnLCAnPG91dGZpbGUubWFlPic=

> <r_lp_tautomer_probability>
1

> <r_epik_Ionization_Penalty>
2.89159

> <r_epik_Ionization_Penalty_Charging>
2.1077e-08

> <r_epik_Ionization_Penalty_Neutral>
2.89159

> <r_epik_State_Penalty>
2.88671

> <r_epik_Charging_Adjusted_Penalty>
2.88671

> <i_epik_Tot_Q>
-1

> <i_epik_Tot_abs_Q>
1

> <r_epik_Metal_State_Penalty>
0.0727308

> <b_epik_Metal_Only>
1

> <s_epik_Chemistry_Notes>
This compound has an ester and may undergo hydrolysis at high or low pH. This compound contains an acetal/aminal-like group ( X-CH(R)-Y where X, Y are N, S, or O) that may be acid/base labile, releasing an aldehyde.

> <s_lp_Force_Field>
OPLS_2005

> <r_lp_Energy>
45.2738

> <b_lp_Chiralities_Consistent>
1

> <s_lp_Variant>
AV-unprocessed.smi:99-19

> <Gold.Version>
5.8.1

> <Gold.Id.Protein>
6NUR|6NUR_protein|mol2

> <Gold.PLP.Fitness>
51.4738

> <Gold.PLP.PLP>
-44.8868

> <Gold.PLP.part.hbond>
-3.0000

> <Gold.PLP.part.metal>
0.0000

> <Gold.PLP.part.buried>
-8.5597

> <Gold.PLP.part.nonpolar>
-35.2251

> <Gold.PLP.part.repulsive>
1.1708

> <Gold.PLP.ligand.clash>
0.0000

> <Gold.PLP.ligand.torsion>
0.9256

> <Gold.PLP.Chemscore.Hbond>
1.7274

> <Gold.PLP.Chemscore.CHOScore>
1.0064

> <Gold.PLP.Chemscore.Metal>
0.0000

> <Gold.Chemscore.Hbonds>
donor molecule, donor type, donor heavy atom, donor atom, acceptor molecule, acceptor atom, score
      P1  H  6931  6943       L1    21  0.13
      P1  H  6934  6947       L1    21  0.58
      P1  H  7997  8009       L1    12  1.00
      L1  C     9    38       P1  7948  1.00

> <Gold.PLP.Chemscore.Internal.Correction>
0.2366

> <Gold.Rescore>
     Score         DG    S(hbond)    S(metal)    S(lipo)     H(rot)  DE(clash)    DE(int)     intcor
     11.54     -14.86       1.95        0.00      93.06       3.13       0.03       3.30       ----

> <Gold.Chemscore.Fitness>
11.5400

> <Gold.Chemscore.DG>
-14.8619

> <Gold.Chemscore.ZeroCoef>
-5.4800

> <Gold.Chemscore.Hbond>
1.9515

> <Gold.Chemscore.Metal>
0.0000

> <Gold.Chemscore.Lipo>
93.0628

> <Gold.Chemscore.Internal_Hbond>
0.0000

> <Gold.Chemscore.DEClash>
0.0251

> <Gold.Chemscore.DEInternal>
3.2969

> <Gold.Chemscore.Rot>
3.1346

> <Gold.Chemscore.Internal.Correction>
   9.000000E+99

> <Gold.Chemscore.Hbonds>
donor molecule, donor type, donor heavy atom, donor atom, acceptor molecule, acceptor atom, score
      P1  H  6931  6943       L1    21  0.14
      P1  H  6934  6947       L1    21  0.57
      P1  H  7997  8009       L1    12  0.77

> <Gold.Chemscore.Hbond.Weighted>
-6.5181

> <Gold.Chemscore.Metal.Weighted>
-0.0000

> <Gold.Chemscore.Lipo.Weighted>
-10.8883

> <Gold.Chemscore.Internal_Hbond.Weighted>
0.0000

> <Gold.Chemscore.DEClash.Weighted>
0.0251

> <Gold.Chemscore.DEInternal.Weighted>
3.2969

> <Gold.Chemscore.Rot.Weighted>
8.0246

> <Gold.Chemscore.Internal.Correction.Weighted>
   9.000000E+99

> <Gold.Protein.RotatedTorsions>
[ 6907 6896 6895 6894 ] final -113.00 input  -60.11 | X-H torsion
[ 7974 7965 7964 7962 ] final -142.79 input  175.53 | X-H torsion
[ 8008 7997 7996 7995 ] final -121.79 input   59.86 | X-H torsion
[ 10167 10162 10161 10158 ] final  100.64 input  -65.29 | X-H torsion
[ 10718 10713 10712 10709 ] final   92.16 input   66.30 | X-H torsion
[ 10763 10752 10751 10750 ] final -136.61 input  -60.55 | X-H torsion
[ 11005 11000 10999 10996 ] final    9.25 input  -57.11 | X-H torsion

> <Gold.Protein.ActiveResidues>
 VAL166  LYS551  ARG553  GLY616  TRP617  ASP618  TYR619  PRO620  LYS621  CYS622 
 ASP623  PHE694  ASN695  SER759  ASP760  ASP761  ALA762  ILE779  LEU786  VAL792 
 PHE793  MET794  SER795  GLU796  ALA797  LYS798  CYS799  TRP800  GLU811  SER814 

> <Gold.Protein.RotatedAtoms>
  150.7798  133.9008  159.3340 H   0  0  0  0  0  0  0  0  0  0  0  0  # atno 6907 bound_to 6896
  151.6874  135.0950  160.0237 H   0  0  0  0  0  0  0  0  0  0  0  0  # atno 6908 bound_to 6896
  152.3845  133.6554  159.6223 H   0  0  0  0  0  0  0  0  0  0  0  0  # atno 6909 bound_to 6896
  144.8417  140.5915  143.5448 H   0  0  0  0  0  0  0  0  0  0  0  0  # atno 7974 bound_to 7965
  155.1537  140.0404  157.2827 H   0  0  0  0  0  0  0  0  0  0  0  0  # atno 8008 bound_to 7997
  154.6386  140.2541  155.7322 H   0  0  0  0  0  0  0  0  0  0  0  0  # atno 8009 bound_to 7997
  156.2521  140.2860  156.0769 H   0  0  0  0  0  0  0  0  0  0  0  0  # atno 8010 bound_to 7997
  139.7509  144.6984  151.0434 H   0  0  0  0  0  0  0  0  0  0  0  0  # atno 10167 bound_to 10162
  157.6959  131.0433  150.3839 H   0  0  0  0  0  0  0  0  0  0  0  0  # atno 10718 bound_to 10713
  154.8680  135.3667  154.5089 H   0  0  0  0  0  0  0  0  0  0  0  0  # atno 10763 bound_to 10752
  153.5725  135.7020  153.5503 H   0  0  0  0  0  0  0  0  0  0  0  0  # atno 10764 bound_to 10752
  153.3529  135.4067  155.1623 H   0  0  0  0  0  0  0  0  0  0  0  0  # atno 10765 bound_to 10752
  140.5279  134.0495  155.7864 H   0  0  0  0  0  0  0  0  0  0  0  0  # atno 11005 bound_to 11000
  145.4680  139.1506  143.3830 LP  0  0  0  0  0  0  0  0  0  0  0  0  # atno 17320 bound_to 7965
  146.2708  140.4812  142.8815 LP  0  0  0  0  0  0  0  0  0  0  0  0  # atno 17321 bound_to 7965
  140.7797  143.4810  151.0018 LP  0  0  0  0  0  0  0  0  0  0  0  0  # atno 17342 bound_to 10162
  139.8498  143.7454  152.3178 LP  0  0  0  0  0  0  0  0  0  0  0  0  # atno 17343 bound_to 10162
  156.4250  130.3960  149.6799 LP  0  0  0  0  0  0  0  0  0  0  0  0  # atno 17370 bound_to 10713
  156.4037  130.7687  151.2696 LP  0  0  0  0  0  0  0  0  0  0  0  0  # atno 17371 bound_to 10713
  141.1298  133.9322  157.2560 LP  0  0  0  0  0  0  0  0  0  0  0  0  # atno 17394 bound_to 11000
  139.9570  135.0163  156.9156 LP  0  0  0  0  0  0  0  0  0  0  0  0  # atno 17395 bound_to 11000

$$$$
