AV-unprocessed.smi:1296|AV-procd|sdf|5414|dock9
  -GOLD-   22720 4573D 1   1.00000     0.00000
 Structure written by MMmdl.
 36 36  0  0  0  0  0  0  0  0  1 V2000
  150.1996  134.7033  154.6340 C   0  0  0  0  0  0  0  0  0  0  0  0
  150.6464  136.0926  155.0350 C   0  0  0  0  0  0  0  0  0  0  0  0
  149.9315  137.1062  154.4186 N   0  0  0  0  0  0  0  0  0  0  0  0
  150.2772  138.4135  154.7126 C   0  0  0  0  0  0  0  0  0  0  0  0
  149.4502  139.4630  153.9907 C   0  0  0  0  0  0  0  0  0  0  0  0
  151.2793  138.6964  155.5831 C   0  0  0  0  0  0  0  0  0  0  0  0
  151.6943  140.1252  155.9331 C   0  0  0  0  0  0  0  0  0  0  0  0
  151.3498  140.6092  157.3443 C   0  0  0  0  0  0  0  0  0  0  0  0
  150.9453  139.8221  158.2003 O   0  0  0  0  0  0  0  0  0  0  0  0
  151.5192  141.9189  157.5720 N   0  0  0  0  0  0  0  0  0  0  0  0
  151.2647  142.5749  158.8481 C   0  0  0  0  0  0  0  0  0  0  0  0
  152.4553  143.4512  159.2838 C   0  0  0  0  0  0  0  0  0  0  0  0
  152.4259  143.7761  160.7876 C   0  0  0  0  0  0  0  0  0  0  0  0
  152.5141  144.7412  158.4527 C   0  0  0  0  0  0  0  0  0  0  0  0
  151.9974  137.5693  156.2235 C   0  0  0  0  0  0  0  0  0  0  0  0
  152.9002  137.7603  157.0372 O   0  0  0  0  0  0  0  0  0  0  0  0
  151.6166  136.2616  155.8811 N   0  0  0  0  0  0  0  0  0  0  0  0
  149.1793  136.9403  153.7658 H   0  0  0  0  0  0  0  0  0  0  0  0
  150.7498  133.9415  155.1879 H   0  0  0  0  0  0  0  0  0  0  0  0
  150.3717  134.5422  153.5695 H   0  0  0  0  0  0  0  0  0  0  0  0
  149.1366  134.5709  154.8375 H   0  0  0  0  0  0  0  0  0  0  0  0
  150.0837  140.0674  153.3413 H   0  0  0  0  0  0  0  0  0  0  0  0
  148.9618  140.1228  154.7082 H   0  0  0  0  0  0  0  0  0  0  0  0
  148.6747  139.0085  153.3731 H   0  0  0  0  0  0  0  0  0  0  0  0
  151.2215  140.8051  155.2240 H   0  0  0  0  0  0  0  0  0  0  0  0
  152.7648  140.2595  155.7733 H   0  0  0  0  0  0  0  0  0  0  0  0
  151.8560  142.4974  156.8160 H   0  0  0  0  0  0  0  0  0  0  0  0
  150.3663  143.1870  158.7546 H   0  0  0  0  0  0  0  0  0  0  0  0
  151.0574  141.8195  159.6081 H   0  0  0  0  0  0  0  0  0  0  0  0
  153.3721  142.8946  159.0837 H   0  0  0  0  0  0  0  0  0  0  0  0
  151.5150  144.3109  161.0587 H   0  0  0  0  0  0  0  0  0  0  0  0
  153.2738  144.4010  161.0697 H   0  0  0  0  0  0  0  0  0  0  0  0
  152.4751  142.8730  161.3960 H   0  0  0  0  0  0  0  0  0  0  0  0
  151.6212  145.3493  158.6018 H   0  0  0  0  0  0  0  0  0  0  0  0
  152.5925  144.5200  157.3880 H   0  0  0  0  0  0  0  0  0  0  0  0
  153.3785  145.3469  158.7260 H   0  0  0  0  0  0  0  0  0  0  0  0
  1 19  1  0  0  0  0
  1 20  1  0  0  0  0
  1 21  1  0  0  0  0
  1  2  1  0  0  0  0
  2  3  1  0  0  0  0
  2 17  2  0  0  0  0
  3  4  1  0  0  0  0
  3 18  1  0  0  0  0
  4  6  2  0  0  0  0
  4  5  1  0  0  0  0
  5 22  1  0  0  0  0
  5 23  1  0  0  0  0
  5 24  1  0  0  0  0
  6 15  1  0  0  0  0
  6  7  1  0  0  0  0
  7  8  1  0  0  0  0
  7 25  1  0  0  0  0
  7 26  1  0  0  0  0
  8  9  2  0  0  0  0
  8 10  1  0  0  0  0
 10 11  1  0  0  0  0
 10 27  1  0  0  0  0
 11 12  1  0  0  0  0
 11 28  1  0  0  0  0
 11 29  1  0  0  0  0
 12 13  1  0  0  0  0
 12 14  1  0  0  0  0
 12 30  1  0  0  0  0
 13 31  1  0  0  0  0
 13 32  1  0  0  0  0
 13 33  1  0  0  0  0
 14 34  1  0  0  0  0
 14 35  1  0  0  0  0
 14 36  1  0  0  0  0
 15 16  2  0  0  0  0
 15 17  1  0  0  0  0
M  END
> <s_m_source_file>
AV-unprocessed.smi

> <i_m_source_file_index>
1296

> <i_lp_mmshare_version>
43012

> <i_f3d_flags>
0

> <s_epik_input>
W0NIM11jMW5jKFtDSDNdKWMoYyg9TylbbkhdMSlbQ0gyXUMoPU8pW05IXVtDSDJdW0NIXShbQ0gzXSlbQ0gzXQ==

> <s_epik_cmdline>
J2VwaWtfcHl0aG9uJywgJy1waCcsICc3LjAnLCAnLXRuJywgJzgnLCAnLW1hJywgJzIwMCcsICctbWV0YWxfYmluZGluZycsICctaW1hZScsICc8aW5maWxlLm1hZT4nLCAnLW9tYWUnLCAnPG91dGZpbGUubWFlPic=

> <r_lp_tautomer_probability>
0.156392

> <r_epik_Ionization_Penalty>
0.0142343

> <r_epik_Ionization_Penalty_Charging>
0.0141145

> <r_epik_Ionization_Penalty_Neutral>
0.000119779

> <r_epik_State_Penalty>
1.52879

> <r_epik_Charging_Adjusted_Penalty>
1.5429

> <i_epik_Tot_Q>
0

> <i_epik_Tot_abs_Q>
0

> <r_epik_Metal_State_Penalty>
1.70685

> <b_epik_Metal_Only>
0

> <s_lp_Force_Field>
OPLS_2005

> <r_lp_Energy>
9.70595

> <b_lp_Chiralities_Consistent>
1

> <s_lp_Variant>
AV-unprocessed.smi:1296-2

> <Gold.Version>
5.8.1

> <Gold.Id.Protein>
6NUR|6NUR_protein|mol2

> <Gold.PLP.Fitness>
36.2283

> <Gold.PLP.PLP>
-31.7678

> <Gold.PLP.part.hbond>
-2.0000

> <Gold.PLP.part.metal>
0.0000

> <Gold.PLP.part.buried>
-2.3312

> <Gold.PLP.part.nonpolar>
-27.6170

> <Gold.PLP.part.repulsive>
0.1302

> <Gold.PLP.ligand.clash>
0.0000

> <Gold.PLP.ligand.torsion>
0.3807

> <Gold.PLP.Chemscore.Hbond>
1.7360

> <Gold.PLP.Chemscore.CHOScore>
0.0000

> <Gold.PLP.Chemscore.Metal>
0.0000

> <Gold.Chemscore.Hbonds>
donor molecule, donor type, donor heavy atom, donor atom, acceptor molecule, acceptor atom, score
      L1  H     3    18       P1  7948  0.74
      P1  H 10752 10764       L1    17  1.00

> <Gold.PLP.Chemscore.Internal.Correction>
0.0138

> <Gold.Rescore>
     Score         DG    S(hbond)    S(metal)    S(lipo)     H(rot)  DE(clash)    DE(int)     intcor
     13.73     -14.46       1.20        0.00      80.22       1.73       0.27       0.46       ----

> <Gold.Chemscore.Fitness>
13.7275

> <Gold.Chemscore.DG>
-14.4613

> <Gold.Chemscore.ZeroCoef>
-5.4800

> <Gold.Chemscore.Hbond>
1.2044

> <Gold.Chemscore.Metal>
0.0000

> <Gold.Chemscore.Lipo>
80.2250

> <Gold.Chemscore.Internal_Hbond>
0.0000

> <Gold.Chemscore.DEClash>
0.2709

> <Gold.Chemscore.DEInternal>
0.4628

> <Gold.Chemscore.Rot>
1.7296

> <Gold.Chemscore.Internal.Correction>
   9.000000E+99

> <Gold.Chemscore.Hbonds>
donor molecule, donor type, donor heavy atom, donor atom, acceptor molecule, acceptor atom, score
      L1  H     3    18       P1  7948  0.69
      P1  H 10752 10764       L1    17  0.18

> <Gold.Chemscore.Hbond.Weighted>
-4.0226

> <Gold.Chemscore.Metal.Weighted>
-0.0000

> <Gold.Chemscore.Lipo.Weighted>
-9.3863

> <Gold.Chemscore.Internal_Hbond.Weighted>
0.0000

> <Gold.Chemscore.DEClash.Weighted>
0.2709

> <Gold.Chemscore.DEInternal.Weighted>
0.4628

> <Gold.Chemscore.Rot.Weighted>
4.4277

> <Gold.Chemscore.Internal.Correction.Weighted>
   9.000000E+99

> <Gold.Protein.RotatedTorsions>
[ 6907 6896 6895 6894 ] final  122.63 input  -60.11 | X-H torsion
[ 7974 7965 7964 7962 ] final  113.87 input  175.53 | X-H torsion
[ 8008 7997 7996 7995 ] final  -78.39 input   59.86 | X-H torsion
[ 10167 10162 10161 10158 ] final  173.77 input  -65.29 | X-H torsion
[ 10718 10713 10712 10709 ] final  -28.05 input   66.30 | X-H torsion
[ 10763 10752 10751 10750 ] final  -38.27 input  -60.55 | X-H torsion
[ 11005 11000 10999 10996 ] final   33.77 input  -57.11 | X-H torsion

> <Gold.Protein.ActiveResidues>
 VAL166  LYS551  ARG553  GLY616  TRP617  ASP618  TYR619  PRO620  LYS621  CYS622 
 ASP623  PHE694  ASN695  SER759  ASP760  ASP761  ALA762  ILE779  LEU786  VAL792 
 PHE793  MET794  SER795  GLU796  ALA797  LYS798  CYS799  TRP800  GLU811  SER814 

> <Gold.Protein.RotatedAtoms>
  152.4228  133.7144  159.6497 H   0  0  0  0  0  0  0  0  0  0  0  0  # atno 6907 bound_to 6896
  150.8104  133.8422  159.3191 H   0  0  0  0  0  0  0  0  0  0  0  0  # atno 6908 bound_to 6896
  151.6134  135.1040  160.0137 H   0  0  0  0  0  0  0  0  0  0  0  0  # atno 6909 bound_to 6896
  145.2115  139.2904  143.4266 H   0  0  0  0  0  0  0  0  0  0  0  0  # atno 7974 bound_to 7965
  154.5685  140.0695  156.8928 H   0  0  0  0  0  0  0  0  0  0  0  0  # atno 8008 bound_to 7997
  155.2679  140.3363  155.4249 H   0  0  0  0  0  0  0  0  0  0  0  0  # atno 8009 bound_to 7997
  156.2099  140.1755  156.7703 H   0  0  0  0  0  0  0  0  0  0  0  0  # atno 8010 bound_to 7997
  139.5119  144.3223  152.0191 H   0  0  0  0  0  0  0  0  0  0  0  0  # atno 10167 bound_to 10162
  156.4302  130.4443  149.7122 H   0  0  0  0  0  0  0  0  0  0  0  0  # atno 10718 bound_to 10713
  153.9101  135.6793  153.4751 H   0  0  0  0  0  0  0  0  0  0  0  0  # atno 10763 bound_to 10752
  153.1083  135.4795  154.8987 H   0  0  0  0  0  0  0  0  0  0  0  0  # atno 10764 bound_to 10752
  154.7531  135.3190  154.8476 H   0  0  0  0  0  0  0  0  0  0  0  0  # atno 10765 bound_to 10752
  140.2597  134.3207  155.7862 H   0  0  0  0  0  0  0  0  0  0  0  0  # atno 11005 bound_to 11000
  146.3396  140.2392  142.8595 LP  0  0  0  0  0  0  0  0  0  0  0  0  # atno 17320 bound_to 7965
  144.9851  140.8495  143.5373 LP  0  0  0  0  0  0  0  0  0  0  0  0  # atno 17321 bound_to 7965
  140.2665  144.4011  150.6167 LP  0  0  0  0  0  0  0  0  0  0  0  0  # atno 17342 bound_to 10162
  140.6120  143.2170  151.6868 LP  0  0  0  0  0  0  0  0  0  0  0  0  # atno 17343 bound_to 10162
  156.4028  130.7683  151.2692 LP  0  0  0  0  0  0  0  0  0  0  0  0  # atno 17370 bound_to 10713
  157.7508  131.0234  150.3835 LP  0  0  0  0  0  0  0  0  0  0  0  0  # atno 17371 bound_to 10713
  141.2192  133.7402  156.9167 LP  0  0  0  0  0  0  0  0  0  0  0  0  # atno 17394 bound_to 11000
  140.1477  134.9251  157.2551 LP  0  0  0  0  0  0  0  0  0  0  0  0  # atno 17395 bound_to 11000

$$$$
