AV-unprocessed.smi:3250|AV-procd|sdf|12429|dock3
  -GOLD-   2272018313D 1   1.00000     0.00000
 Structure written by MMmdl.
 38 39  0  0  0  0  0  0  0  0  1 V2000
  146.9737  142.6372  153.4791 C   0  0  0  0  0  0  0  0  0  0  0  0
  146.7277  141.5001  154.4807 C   0  0  0  0  0  0  0  0  0  0  0  0
  147.9248  140.7663  154.8870 N   0  0  0  0  0  0  0  0  0  0  0  0
  148.5033  139.9881  153.7944 C   0  0  0  0  0  0  0  0  0  0  0  0
  149.7818  139.2526  154.2299 C   0  0  0  0  0  0  0  0  0  0  0  0
  150.7188  140.1919  154.7455 O   0  0  0  0  0  0  0  0  0  0  0  0
  150.2140  140.9281  155.8571 C   0  0  1  0  0  0  0  0  0  0  0  0
  151.3030  141.9002  156.3294 C   0  0  0  0  0  0  0  0  0  0  0  0
  150.7389  143.0232  157.0629 N   0  0  0  0  0  0  0  0  0  0  0  0
  151.1042  143.3685  158.3500 C   0  0  0  0  0  0  0  0  0  0  0  0
  150.7741  144.6047  158.7307 N   0  0  0  0  0  0  0  0  0  0  0  0
  151.1120  144.9702  159.9864 C   0  0  0  0  0  0  0  0  0  0  0  0
  151.7837  144.0926  160.8606 C   0  0  0  0  0  0  0  0  0  0  0  0
  152.0875  142.8125  160.3550 C   0  0  0  0  0  0  0  0  0  0  0  0
  152.7483  141.9054  161.1571 O   0  0  0  0  0  0  0  0  0  0  0  0
  153.5708  140.9291  160.5279 C   0  0  0  0  0  0  0  0  0  0  0  0
  151.7421  142.4561  159.0924 N   0  0  0  0  0  0  0  0  0  0  0  0
  148.9404  141.6736  155.4108 C   0  0  0  0  0  0  0  0  0  0  0  0
  146.0278  143.0678  153.1503 H   0  0  0  0  0  0  0  0  0  0  0  0
  147.4978  142.2753  152.5940 H   0  0  0  0  0  0  0  0  0  0  0  0
  147.5612  143.4449  153.9147 H   0  0  0  0  0  0  0  0  0  0  0  0
  146.2171  141.8942  155.3606 H   0  0  0  0  0  0  0  0  0  0  0  0
  146.0291  140.8026  154.0167 H   0  0  0  0  0  0  0  0  0  0  0  0
  147.7859  139.2532  153.4311 H   0  0  0  0  0  0  0  0  0  0  0  0
  148.7337  140.6442  152.9536 H   0  0  0  0  0  0  0  0  0  0  0  0
  149.5564  138.4995  154.9866 H   0  0  0  0  0  0  0  0  0  0  0  0
  150.2279  138.7325  153.3822 H   0  0  0  0  0  0  0  0  0  0  0  0
  149.9645  140.2404  156.6677 H   0  0  0  0  0  0  0  0  0  0  0  0
  152.0291  141.3809  156.9559 H   0  0  0  0  0  0  0  0  0  0  0  0
  151.8439  142.2907  155.4665 H   0  0  0  0  0  0  0  0  0  0  0  0
  149.9676  143.5260  156.6485 H   0  0  0  0  0  0  0  0  0  0  0  0
  150.8448  145.9697  160.2959 H   0  0  0  0  0  0  0  0  0  0  0  0
  152.0522  144.3862  161.8645 H   0  0  0  0  0  0  0  0  0  0  0  0
  154.0258  140.2955  161.2888 H   0  0  0  0  0  0  0  0  0  0  0  0
  154.3773  141.3941  159.9592 H   0  0  0  0  0  0  0  0  0  0  0  0
  152.9906  140.2858  159.8649 H   0  0  0  0  0  0  0  0  0  0  0  0
  149.2006  142.4133  154.6517 H   0  0  0  0  0  0  0  0  0  0  0  0
  148.5346  142.2281  156.2580 H   0  0  0  0  0  0  0  0  0  0  0  0
  1  2  1  0  0  0  0
  1 19  1  0  0  0  0
  1 20  1  0  0  0  0
  1 21  1  0  0  0  0
  2  3  1  0  0  0  0
  2 22  1  0  0  0  0
  2 23  1  0  0  0  0
  3 18  1  0  0  0  0
  3  4  1  0  0  0  0
  4  5  1  0  0  0  0
  4 24  1  0  0  0  0
  4 25  1  0  0  0  0
  5  6  1  0  0  0  0
  5 26  1  0  0  0  0
  5 27  1  0  0  0  0
  6  7  1  0  0  0  0
  7  8  1  0  0  0  0
  7 18  1  0  0  0  0
  7 28  1  0  0  0  0
  8  9  1  0  0  0  0
  8 29  1  0  0  0  0
  8 30  1  0  0  0  0
  9 10  1  0  0  0  0
  9 31  1  0  0  0  0
 10 17  1  0  0  0  0
 10 11  2  0  0  0  0
 11 12  1  0  0  0  0
 12 13  2  0  0  0  0
 12 32  1  0  0  0  0
 13 14  1  0  0  0  0
 13 33  1  0  0  0  0
 14 15  1  0  0  0  0
 14 17  2  0  0  0  0
 15 16  1  0  0  0  0
 16 34  1  0  0  0  0
 16 35  1  0  0  0  0
 16 36  1  0  0  0  0
 18 37  1  0  0  0  0
 18 38  1  0  0  0  0
M  END
> <s_m_source_file>
AV-unprocessed.smi

> <i_m_source_file_index>
3250

> <i_lp_mmshare_version>
43012

> <i_f3d_flags>
0

> <s_epik_input>
W0NIM11bQ0gyXU4xW0NIMl1bQ0gyXU9bQ0BIXShbQ0gyXTEpW0NIMl1bTkhdYzJuW2NIXVtjSF1jKG4yKU9bQ0gzXQ==

> <s_epik_cmdline>
J2VwaWtfcHl0aG9uJywgJy1waCcsICc3LjAnLCAnLXRuJywgJzgnLCAnLW1hJywgJzIwMCcsICctbWV0YWxfYmluZGluZycsICctaW1hZScsICc8aW5maWxlLm1hZT4nLCAnLW9tYWUnLCAnPG91dGZpbGUubWFlPic=

> <r_lp_tautomer_probability>
1

> <r_epik_Ionization_Penalty>
0.832605

> <r_epik_Ionization_Penalty_Charging>
0

> <r_epik_Ionization_Penalty_Neutral>
0.832605

> <r_epik_State_Penalty>
0.927194

> <r_epik_Charging_Adjusted_Penalty>
0.927194

> <i_epik_Tot_Q>
0

> <i_epik_Tot_abs_Q>
0

> <r_epik_Metal_State_Penalty>
0.908632

> <b_epik_Metal_Only>
0

> <s_lp_Force_Field>
OPLS_2005

> <r_lp_Energy>
15.3419

> <b_lp_Chiralities_Consistent>
1

> <s_lp_Variant>
AV-unprocessed.smi:3250-5

> <Gold.Version>
5.8.1

> <Gold.Id.Protein>
6NUR|6NUR_protein|mol2

> <Gold.PLP.Fitness>
41.0464

> <Gold.PLP.PLP>
-36.4030

> <Gold.PLP.part.hbond>
-2.0000

> <Gold.PLP.part.metal>
0.0000

> <Gold.PLP.part.buried>
-7.1016

> <Gold.PLP.part.nonpolar>
-26.3387

> <Gold.PLP.part.repulsive>
0.3320

> <Gold.PLP.ligand.clash>
0.0000

> <Gold.PLP.ligand.torsion>
0.7047

> <Gold.PLP.Chemscore.Hbond>
2.0000

> <Gold.PLP.Chemscore.CHOScore>
0.0000

> <Gold.PLP.Chemscore.Metal>
0.0000

> <Gold.Chemscore.Hbonds>
donor molecule, donor type, donor heavy atom, donor atom, acceptor molecule, acceptor atom, score
      L1  H     9    31       P1  8028  1.00
      P1  H  7989  7998       L1     6  1.00

> <Gold.PLP.Chemscore.Internal.Correction>
0.0527

> <Gold.Rescore>
     Score         DG    S(hbond)    S(metal)    S(lipo)     H(rot)  DE(clash)    DE(int)     intcor
     14.89     -16.97       1.94        0.00      79.18       1.67       1.54       0.54       ----

> <Gold.Chemscore.Fitness>
14.8878

> <Gold.Chemscore.DG>
-16.9683

> <Gold.Chemscore.ZeroCoef>
-5.4800

> <Gold.Chemscore.Hbond>
1.9426

> <Gold.Chemscore.Metal>
0.0000

> <Gold.Chemscore.Lipo>
79.1827

> <Gold.Chemscore.Internal_Hbond>
0.0000

> <Gold.Chemscore.DEClash>
1.5363

> <Gold.Chemscore.DEInternal>
0.5442

> <Gold.Chemscore.Rot>
1.6657

> <Gold.Chemscore.Internal.Correction>
   9.000000E+99

> <Gold.Chemscore.Hbonds>
donor molecule, donor type, donor heavy atom, donor atom, acceptor molecule, acceptor atom, score
      L1  H     9    31       P1  8028  1.00
      P1  H  7989  7998       L1     6  0.78

> <Gold.Chemscore.Hbond.Weighted>
-6.4882

> <Gold.Chemscore.Metal.Weighted>
-0.0000

> <Gold.Chemscore.Lipo.Weighted>
-9.2644

> <Gold.Chemscore.Internal_Hbond.Weighted>
0.0000

> <Gold.Chemscore.DEClash.Weighted>
1.5363

> <Gold.Chemscore.DEInternal.Weighted>
0.5442

> <Gold.Chemscore.Rot.Weighted>
4.2642

> <Gold.Chemscore.Internal.Correction.Weighted>
   9.000000E+99

> <Gold.Protein.RotatedTorsions>
[ 6907 6896 6895 6894 ] final  -75.18 input  -60.11 | X-H torsion
[ 7974 7965 7964 7962 ] final   53.00 input  175.53 | X-H torsion
[ 8008 7997 7996 7995 ] final  -43.95 input   59.86 | X-H torsion
[ 10167 10162 10161 10158 ] final -173.72 input  -65.29 | X-H torsion
[ 10718 10713 10712 10709 ] final -140.13 input   66.30 | X-H torsion
[ 10763 10752 10751 10750 ] final  154.11 input  -60.55 | X-H torsion
[ 11005 11000 10999 10996 ] final    4.96 input  -57.11 | X-H torsion

> <Gold.Protein.ActiveResidues>
 VAL166  LYS551  ARG553  GLY616  TRP617  ASP618  TYR619  PRO620  LYS621  CYS622 
 ASP623  PHE694  ASN695  SER759  ASP760  ASP761  ALA762  ILE779  LEU786  VAL792 
 PHE793  MET794  SER795  GLU796  ALA797  LYS798  CYS799  TRP800  GLU811  SER814 

> <Gold.Protein.RotatedAtoms>
  150.7068  134.4760  159.5447 H   0  0  0  0  0  0  0  0  0  0  0  0  # atno 6907 bound_to 6896
  152.2406  134.8229  160.0470 H   0  0  0  0  0  0  0  0  0  0  0  0  # atno 6908 bound_to 6896
  151.9012  133.3503  159.3868 H   0  0  0  0  0  0  0  0  0  0  0  0  # atno 6909 bound_to 6896
  145.9756  139.4192  143.0163 H   0  0  0  0  0  0  0  0  0  0  0  0  # atno 7974 bound_to 7965
  154.3997  140.1434  156.3603 H   0  0  0  0  0  0  0  0  0  0  0  0  # atno 8008 bound_to 7997
  155.8187  140.3470  155.5480 H   0  0  0  0  0  0  0  0  0  0  0  0  # atno 8009 bound_to 7997
  155.8310  140.0912  157.1783 H   0  0  0  0  0  0  0  0  0  0  0  0  # atno 8010 bound_to 7997
  139.5673  144.1726  152.1331 H   0  0  0  0  0  0  0  0  0  0  0  0  # atno 10167 bound_to 10162
  156.3187  130.7522  151.1615 H   0  0  0  0  0  0  0  0  0  0  0  0  # atno 10718 bound_to 10713
  154.1470  135.2817  155.3145 H   0  0  0  0  0  0  0  0  0  0  0  0  # atno 10763 bound_to 10752
  154.6245  135.5456  153.7615 H   0  0  0  0  0  0  0  0  0  0  0  0  # atno 10764 bound_to 10752
  153.0232  135.6447  154.1616 H   0  0  0  0  0  0  0  0  0  0  0  0  # atno 10765 bound_to 10752
  140.5760  134.0057  155.8028 H   0  0  0  0  0  0  0  0  0  0  0  0  # atno 11005 bound_to 11000
  145.7843  140.9842  143.1083 LP  0  0  0  0  0  0  0  0  0  0  0  0  # atno 17320 bound_to 7965
  144.6848  139.9603  143.7480 LP  0  0  0  0  0  0  0  0  0  0  0  0  # atno 17321 bound_to 7965
  140.1251  144.5338  150.6838 LP  0  0  0  0  0  0  0  0  0  0  0  0  # atno 17342 bound_to 10162
  140.6956  143.2402  151.5009 LP  0  0  0  0  0  0  0  0  0  0  0  0  # atno 17343 bound_to 10162
  157.7407  131.0513  150.5147 LP  0  0  0  0  0  0  0  0  0  0  0  0  # atno 17370 bound_to 10713
  156.5296  130.4181  149.6208 LP  0  0  0  0  0  0  0  0  0  0  0  0  # atno 17371 bound_to 10713
  141.1026  133.9744  157.3052 LP  0  0  0  0  0  0  0  0  0  0  0  0  # atno 17394 bound_to 11000
  139.9339  135.0198  156.8492 LP  0  0  0  0  0  0  0  0  0  0  0  0  # atno 17395 bound_to 11000

$$$$
