AV-unprocessed.smi:113|AV-procd|sdf|1099|dock2
  -GOLD-   2262018203D 1   1.00000     0.00000
 Structure written by MMmdl.
 53 56  0  0  0  0  0  0  0  0  2 V2000
  148.7791  141.7330  154.1695 C   0  0  0  0  0  0  0  0  0  0  0  0
  149.6931  141.3563  155.3161 C   0  0  0  0  0  0  0  0  0  0  0  0
  150.2005  140.0518  155.4713 C   0  0  0  0  0  0  0  0  0  0  0  0
  151.0537  139.7496  156.5617 C   0  0  0  0  0  0  0  0  0  0  0  0
  151.6215  138.3396  156.7560 C   0  0  0  0  0  0  0  0  0  0  0  0
  150.6648  137.2735  157.0184 N   0  0  0  0  0  0  0  0  0  0  0  0
  149.8391  137.3899  158.1618 C   0  0  0  0  0  0  0  0  0  0  0  0
  149.9166  138.3612  158.9172 O   0  0  0  0  0  0  0  0  0  0  0  0
  148.9255  136.2675  158.3832 C   0  0  0  0  0  0  0  0  0  0  0  0
  148.0323  136.3046  159.6137 C   0  0  0  0  0  0  0  0  0  0  0  0
  148.9082  135.2299  157.5117 C   0  0  0  0  0  0  0  0  0  0  0  0
  149.7082  135.1515  156.3796 N   0  0  0  0  0  0  0  0  0  0  0  0
  149.7319  133.9386  155.4572 C   0  0  2  0  0  0  0  0  0  0  0  0
  149.6708  134.2611  153.9599 C   0  0  0  0  0  0  0  0  0  0  0  0
  148.1807  134.1411  153.6335 C   0  0  1  0  0  0  0  0  0  0  0  0
  147.9947  133.2635  152.5387 O   0  0  0  0  0  0  0  0  0  0  0  0
  147.5272  133.6509  154.9471 C   0  0  1  0  0  0  0  0  0  0  0  0
  146.4201  132.5874  154.8346 C   0  0  0  0  0  0  0  0  0  0  0  0
  145.4751  132.9628  153.8546 O   0  0  0  0  0  0  0  0  0  0  0  0
  148.6124  133.1558  155.7222 O   0  0  0  0  0  0  0  0  0  0  0  0
  150.6560  136.1689  156.1380 C   0  0  0  0  0  0  0  0  0  0  0  0
  151.4512  136.0859  155.1984 O   0  0  0  0  0  0  0  0  0  0  0  0
  151.3740  140.7911  157.4754 C   0  0  0  0  0  0  0  0  0  0  0  0
  152.2165  140.5809  158.5936 C   0  0  0  0  0  0  0  0  0  0  0  0
  152.5081  141.6377  159.4784 C   0  0  0  0  0  0  0  0  0  0  0  0
  151.9658  142.9177  159.2587 C   0  0  0  0  0  0  0  0  0  0  0  0
  151.1281  143.1448  158.1512 C   0  0  0  0  0  0  0  0  0  0  0  0
  150.8334  142.0886  157.2660 C   0  0  0  0  0  0  0  0  0  0  0  0
  150.0267  142.3120  156.2071 N   0  3  0  0  0  0  0  0  0  0  0  0
  148.2348  140.8610  153.8061 H   0  0  0  0  0  0  0  0  0  0  0  0
  149.3604  142.1438  153.3436 H   0  0  0  0  0  0  0  0  0  0  0  0
  148.0496  142.4804  154.4830 H   0  0  0  0  0  0  0  0  0  0  0  0
  149.9268  139.2975  154.7487 H   0  0  0  0  0  0  0  0  0  0  0  0
  152.2077  138.0480  155.8830 H   0  0  0  0  0  0  0  0  0  0  0  0
  152.3412  138.3326  157.5764 H   0  0  0  0  0  0  0  0  0  0  0  0
  147.3901  135.4259  159.6780 H   0  0  0  0  0  0  0  0  0  0  0  0
  147.3889  137.1850  159.5919 H   0  0  0  0  0  0  0  0  0  0  0  0
  148.6351  136.3428  160.5216 H   0  0  0  0  0  0  0  0  0  0  0  0
  148.2339  134.4210  157.7407 H   0  0  0  0  0  0  0  0  0  0  0  0
  150.6534  133.4086  155.7035 H   0  0  0  0  0  0  0  0  0  0  0  0
  150.1237  135.2220  153.7165 H   0  0  0  0  0  0  0  0  0  0  0  0
  150.2434  133.4925  153.4383 H   0  0  0  0  0  0  0  0  0  0  0  0
  147.7629  135.1089  153.3552 H   0  0  0  0  0  0  0  0  0  0  0  0
  147.1272  132.8928  152.5934 H   0  0  0  0  0  0  0  0  0  0  0  0
  147.1256  134.5128  155.4829 H   0  0  0  0  0  0  0  0  0  0  0  0
  146.8281  131.6029  154.6050 H   0  0  0  0  0  0  0  0  0  0  0  0
  145.8980  132.4970  155.7874 H   0  0  0  0  0  0  0  0  0  0  0  0
  144.6267  132.6380  154.1154 H   0  0  0  0  0  0  0  0  0  0  0  0
  152.6517  139.6137  158.7946 H   0  0  0  0  0  0  0  0  0  0  0  0
  153.1506  141.4649  160.3294 H   0  0  0  0  0  0  0  0  0  0  0  0
  152.1927  143.7247  159.9402 H   0  0  0  0  0  0  0  0  0  0  0  0
  150.7145  144.1296  157.9880 H   0  0  0  0  0  0  0  0  0  0  0  0
  149.6496  143.2503  156.0749 H   0  0  0  0  0  0  0  0  0  0  0  0
  1  2  1  0  0  0  0
  1 30  1  0  0  0  0
  1 31  1  0  0  0  0
  1 32  1  0  0  0  0
  2 29  1  0  0  0  0
  2  3  2  0  0  0  0
  3  4  1  0  0  0  0
  3 33  1  0  0  0  0
  4  5  1  0  0  0  0
  4 23  2  0  0  0  0
  5  6  1  0  0  0  0
  5 34  1  0  0  0  0
  5 35  1  0  0  0  0
  6 21  1  0  0  0  0
  6  7  1  0  0  0  0
  7  8  2  0  0  0  0
  7  9  1  0  0  0  0
  9 10  1  0  0  0  0
  9 11  2  0  0  0  0
 10 36  1  0  0  0  0
 10 37  1  0  0  0  0
 10 38  1  0  0  0  0
 11 12  1  0  0  0  0
 11 39  1  0  0  0  0
 12 13  1  0  0  0  0
 12 21  1  0  0  0  0
 13 20  1  0  0  0  0
 13 14  1  0  0  0  0
 13 40  1  0  0  0  0
 14 15  1  0  0  0  0
 14 41  1  0  0  0  0
 14 42  1  0  0  0  0
 15 16  1  0  0  0  0
 15 17  1  0  0  0  0
 15 43  1  0  0  0  0
 16 44  1  0  0  0  0
 17 18  1  0  0  0  0
 17 20  1  0  0  0  0
 17 45  1  0  0  0  0
 18 19  1  0  0  0  0
 18 46  1  0  0  0  0
 18 47  1  0  0  0  0
 19 48  1  0  0  0  0
 21 22  2  0  0  0  0
 23 28  1  0  0  0  0
 23 24  1  0  0  0  0
 24 25  2  0  0  0  0
 24 49  1  0  0  0  0
 25 26  1  0  0  0  0
 25 50  1  0  0  0  0
 26 27  2  0  0  0  0
 26 51  1  0  0  0  0
 27 28  1  0  0  0  0
 27 52  1  0  0  0  0
 28 29  2  0  0  0  0
 29 53  1  0  0  0  0
M  CHG  1  29   1
M  END
> <s_m_source_file>
AV-unprocessed.smi

> <i_m_source_file_index>
113

> <i_lp_mmshare_version>
43012

> <i_f3d_flags>
0

> <s_epik_input>
W2NIXTFbY0hdW2NIXVtjSF1jKGMxMiluYyhbQ0gzXSlbY0hdYzJbQ0gyXW4zYyg9TyljKFtDSDNdKVtjSF1uKGMzPU8pW0NAQEhdNFtDSDJdW0NAQEhdKFtPSF0pW0NASF0oTzQpW0NIMl1bT0hd

> <s_epik_cmdline>
J2VwaWtfcHl0aG9uJywgJy1waCcsICc3LjAnLCAnLXRuJywgJzgnLCAnLW1hJywgJzIwMCcsICctbWV0YWxfYmluZGluZycsICctaW1hZScsICc8aW5maWxlLm1hZT4nLCAnLW9tYWUnLCAnPG91dGZpbGUubWFlPic=

> <r_lp_tautomer_probability>
1

> <r_epik_Ionization_Penalty>
0.705471

> <r_epik_Ionization_Penalty_Charging>
0.70547

> <r_epik_Ionization_Penalty_Neutral>
1.19947e-07

> <r_epik_State_Penalty>
0.728574

> <r_epik_Charging_Adjusted_Penalty>
1.43404

> <i_epik_Tot_Q>
1

> <i_epik_Tot_abs_Q>
1

> <r_epik_Metal_State_Penalty>
4.61665

> <b_epik_Metal_Only>
0

> <s_epik_Chemistry_Notes>
This compound contains an acetal/aminal-like group ( X-CH(R)-Y where X, Y are N, S, or O) that may be acid/base labile, releasing an aldehyde.

> <s_lp_Force_Field>
OPLS_2005

> <r_lp_Energy>
45.3358

> <b_lp_Chiralities_Consistent>
1

> <s_lp_Variant>
AV-unprocessed.smi:113-9

> <Gold.Version>
5.8.1

> <Gold.Id.Protein>
6NUR|6NUR_protein|mol2

> <Gold.PLP.Fitness>
54.2889

> <Gold.PLP.PLP>
-42.8790

> <Gold.PLP.part.hbond>
-3.5947

> <Gold.PLP.part.metal>
0.0000

> <Gold.PLP.part.buried>
-5.2231

> <Gold.PLP.part.nonpolar>
-35.6500

> <Gold.PLP.part.repulsive>
0.2364

> <Gold.PLP.ligand.clash>
0.0000

> <Gold.PLP.ligand.torsion>
0.3377

> <Gold.PLP.Chemscore.Hbond>
4.0000

> <Gold.PLP.Chemscore.CHOScore>
0.0000

> <Gold.PLP.Chemscore.Metal>
0.0000

> <Gold.Chemscore.Hbonds>
donor molecule, donor type, donor heavy atom, donor atom, acceptor molecule, acceptor atom, score
      L1  H    19    48       P1 10957  0.49
      L1  H    29    53       P1  8028  2.00
      P1  H 10752 10763       L1    22  1.00

> <Gold.PLP.Chemscore.Internal.Correction>
0.0854

> <Gold.Rescore>
     Score         DG    S(hbond)    S(metal)    S(lipo)     H(rot)  DE(clash)    DE(int)     intcor
     16.94     -20.32       2.95        0.00     108.62       3.01       0.02       3.36       ----

> <Gold.Chemscore.Fitness>
16.9421

> <Gold.Chemscore.DG>
-20.3187

> <Gold.Chemscore.ZeroCoef>
-5.4800

> <Gold.Chemscore.Hbond>
2.9464

> <Gold.Chemscore.Metal>
0.0000

> <Gold.Chemscore.Lipo>
108.6210

> <Gold.Chemscore.Internal_Hbond>
0.0000

> <Gold.Chemscore.DEClash>
0.0166

> <Gold.Chemscore.DEInternal>
3.3600

> <Gold.Chemscore.Rot>
3.0120

> <Gold.Chemscore.Internal.Correction>
   9.000000E+99

> <Gold.Chemscore.Hbonds>
donor molecule, donor type, donor heavy atom, donor atom, acceptor molecule, acceptor atom, score
      L1  H    19    48       P1 10957  0.35
      L1  H    29    53       P1  8028  1.00
      P1  H 10752 10763       L1    22  1.00

> <Gold.Chemscore.Hbond.Weighted>
-9.8408

> <Gold.Chemscore.Metal.Weighted>
-0.0000

> <Gold.Chemscore.Lipo.Weighted>
-12.7087

> <Gold.Chemscore.Internal_Hbond.Weighted>
0.0000

> <Gold.Chemscore.DEClash.Weighted>
0.0166

> <Gold.Chemscore.DEInternal.Weighted>
3.3600

> <Gold.Chemscore.Rot.Weighted>
7.7108

> <Gold.Chemscore.Internal.Correction.Weighted>
   9.000000E+99

> <Gold.Protein.RotatedTorsions>
[ 6907 6896 6895 6894 ] final -162.33 input  -60.11 | X-H torsion
[ 7974 7965 7964 7962 ] final  -45.32 input  175.53 | X-H torsion
[ 8008 7997 7996 7995 ] final  111.54 input   59.86 | X-H torsion
[ 10167 10162 10161 10158 ] final   64.01 input  -65.29 | X-H torsion
[ 10718 10713 10712 10709 ] final    9.43 input   66.30 | X-H torsion
[ 10763 10752 10751 10750 ] final   61.09 input  -60.55 | X-H torsion
[ 11005 11000 10999 10996 ] final  -15.20 input  -57.11 | X-H torsion

> <Gold.Protein.ActiveResidues>
 VAL166  LYS551  ARG553  GLY616  TRP617  ASP618  TYR619  PRO620  LYS621  CYS622 
 ASP623  PHE694  ASN695  SER759  ASP760  ASP761  ALA762  ILE779  LEU786  VAL792 
 PHE793  MET794  SER795  GLU796  ALA797  LYS798  CYS799  TRP800  GLU811  SER814 

> <Gold.Protein.RotatedAtoms>
  151.3785  133.3829  159.2707 H   0  0  0  0  0  0  0  0  0  0  0  0  # atno 6907 bound_to 6896
  150.9595  134.8986  159.7732 H   0  0  0  0  0  0  0  0  0  0  0  0  # atno 6908 bound_to 6896
  152.5144  134.3744  159.9381 H   0  0  0  0  0  0  0  0  0  0  0  0  # atno 6909 bound_to 6896
  145.9832  140.7261  142.9353 H   0  0  0  0  0  0  0  0  0  0  0  0  # atno 7974 bound_to 7965
  156.2131  140.3017  155.9777 H   0  0  0  0  0  0  0  0  0  0  0  0  # atno 8008 bound_to 7997
  155.2674  140.0432  157.3020 H   0  0  0  0  0  0  0  0  0  0  0  0  # atno 8009 bound_to 7997
  154.5728  140.2353  155.8175 H   0  0  0  0  0  0  0  0  0  0  0  0  # atno 8010 bound_to 7997
  140.1269  144.4680  150.6887 H   0  0  0  0  0  0  0  0  0  0  0  0  # atno 10167 bound_to 10162
  156.9662  130.5951  149.5665 H   0  0  0  0  0  0  0  0  0  0  0  0  # atno 10718 bound_to 10713
  152.9940  135.5513  154.5978 H   0  0  0  0  0  0  0  0  0  0  0  0  # atno 10763 bound_to 10752
  154.5326  135.2814  155.1169 H   0  0  0  0  0  0  0  0  0  0  0  0  # atno 10764 bound_to 10752
  154.2478  135.6404  153.5282 H   0  0  0  0  0  0  0  0  0  0  0  0  # atno 10765 bound_to 10752
  140.7942  133.8264  155.9409 H   0  0  0  0  0  0  0  0  0  0  0  0  # atno 11005 bound_to 11000
  144.6867  140.2944  143.7273 LP  0  0  0  0  0  0  0  0  0  0  0  0  # atno 17320 bound_to 7965
  145.7738  139.1867  143.2197 LP  0  0  0  0  0  0  0  0  0  0  0  0  # atno 17321 bound_to 7965
  140.6840  143.2340  151.5310 LP  0  0  0  0  0  0  0  0  0  0  0  0  # atno 17342 bound_to 10162
  139.5540  144.2323  152.1580 LP  0  0  0  0  0  0  0  0  0  0  0  0  # atno 17343 bound_to 10162
  156.0301  130.5393  150.8513 LP  0  0  0  0  0  0  0  0  0  0  0  0  # atno 17370 bound_to 10713
  157.5624  131.0946  150.9540 LP  0  0  0  0  0  0  0  0  0  0  0  0  # atno 17371 bound_to 10713
  140.9359  134.1963  157.4832 LP  0  0  0  0  0  0  0  0  0  0  0  0  # atno 17394 bound_to 11000
  139.8728  134.9852  156.5271 LP  0  0  0  0  0  0  0  0  0  0  0  0  # atno 17395 bound_to 11000

$$$$
