AV-unprocessed.smi:1502|AV-procd|sdf|6067|dock5
  -GOLD-   22720 6183D 1   1.00000     0.00000
 Structure written by MMmdl.
 40 41  0  0  0  0  0  0  0  0  1 V2000
  149.6942  140.2402  157.2139 O   0  0  0  0  0  0  0  0  0  0  0  0
  149.5460  141.2352  156.5053 C   0  0  0  0  0  0  0  0  0  0  0  0
  148.7199  141.1150  155.2121 C   0  0  0  0  0  0  0  0  0  0  0  0
  147.4653  141.8863  155.2015 N   0  0  0  0  0  0  0  0  0  0  0  0
  147.2189  142.5442  154.0091 N   0  0  0  0  0  0  0  0  0  0  0  0
  146.1566  143.2633  153.8888 C   0  0  0  0  0  0  0  0  0  0  0  0
  145.1998  143.4095  154.9632 C   0  0  0  0  0  0  0  0  0  0  0  0
  143.7926  144.3888  154.7436 Cl  0  0  0  0  0  0  0  0  0  0  0  0
  145.4486  142.7580  156.1269 C   0  0  0  0  0  0  0  0  0  0  0  0
  144.3509  142.8862  157.4582 Cl  0  0  0  0  0  0  0  0  0  0  0  0
  146.6501  141.9300  156.3006 C   0  0  0  0  0  0  0  0  0  0  0  0
  146.9162  141.3310  157.3429 O   0  0  0  0  0  0  0  0  0  0  0  0
  150.0770  142.4324  156.8091 N   0  0  0  0  0  0  0  0  0  0  0  0
  150.8707  142.7478  157.9943 C   0  0  0  0  0  0  0  0  0  0  0  0
  151.5649  144.1158  157.7995 C   0  0  0  0  0  0  0  0  0  0  0  0
  151.2594  145.1579  158.8924 C   0  0  0  0  0  0  0  0  0  0  0  0
  151.2949  144.6845  160.3607 C   0  0  0  0  0  0  0  0  0  0  0  0
  152.5634  143.9379  160.8095 C   0  0  0  0  0  0  0  0  0  0  0  0
  152.5090  142.4002  160.6741 C   0  0  0  0  0  0  0  0  0  0  0  0
  152.9662  141.8455  159.3135 C   0  0  0  0  0  0  0  0  0  0  0  0
  151.8586  141.5917  158.2699 C   0  0  0  0  0  0  0  0  0  0  0  0
  149.3546  141.4316  154.3824 H   0  0  0  0  0  0  0  0  0  0  0  0
  148.5147  140.0591  155.0270 H   0  0  0  0  0  0  0  0  0  0  0  0
  145.9222  143.8005  152.9697 H   0  0  0  0  0  0  0  0  0  0  0  0
  149.9061  143.1930  156.1675 H   0  0  0  0  0  0  0  0  0  0  0  0
  150.1765  142.8123  158.8311 H   0  0  0  0  0  0  0  0  0  0  0  0
  152.6433  143.9918  157.7135 H   0  0  0  0  0  0  0  0  0  0  0  0
  151.2771  144.5532  156.8420 H   0  0  0  0  0  0  0  0  0  0  0  0
  151.9531  145.9907  158.7725 H   0  0  0  0  0  0  0  0  0  0  0  0
  150.2698  145.5752  158.7024 H   0  0  0  0  0  0  0  0  0  0  0  0
  151.2005  145.5790  160.9776 H   0  0  0  0  0  0  0  0  0  0  0  0
  150.4103  144.0961  160.6029 H   0  0  0  0  0  0  0  0  0  0  0  0
  153.4505  144.3490  160.3268 H   0  0  0  0  0  0  0  0  0  0  0  0
  152.6928  144.1525  161.8712 H   0  0  0  0  0  0  0  0  0  0  0  0
  153.1924  141.9971  161.4225 H   0  0  0  0  0  0  0  0  0  0  0  0
  151.5276  142.0104  160.9471 H   0  0  0  0  0  0  0  0  0  0  0  0
  153.7529  142.4757  158.8997 H   0  0  0  0  0  0  0  0  0  0  0  0
  153.4535  140.8860  159.4906 H   0  0  0  0  0  0  0  0  0  0  0  0
  151.2868  140.7159  158.5796 H   0  0  0  0  0  0  0  0  0  0  0  0
  152.3455  141.3067  157.3362 H   0  0  0  0  0  0  0  0  0  0  0  0
  1  2  2  0  0  0  0
  2  3  1  0  0  0  0
  2 13  1  0  0  0  0
  3  4  1  0  0  0  0
  3 22  1  0  0  0  0
  3 23  1  0  0  0  0
  4 11  1  0  0  0  0
  4  5  1  0  0  0  0
  5  6  2  0  0  0  0
  6  7  1  0  0  0  0
  6 24  1  0  0  0  0
  7  8  1  0  0  0  0
  7  9  2  0  0  0  0
  9 10  1  0  0  0  0
  9 11  1  0  0  0  0
 11 12  2  0  0  0  0
 13 14  1  0  0  0  0
 13 25  1  0  0  0  0
 14 21  1  0  0  0  0
 14 15  1  0  0  0  0
 14 26  1  0  0  0  0
 15 16  1  0  0  0  0
 15 27  1  0  0  0  0
 15 28  1  0  0  0  0
 16 17  1  0  0  0  0
 16 29  1  0  0  0  0
 16 30  1  0  0  0  0
 17 18  1  0  0  0  0
 17 31  1  0  0  0  0
 17 32  1  0  0  0  0
 18 19  1  0  0  0  0
 18 33  1  0  0  0  0
 18 34  1  0  0  0  0
 19 20  1  0  0  0  0
 19 35  1  0  0  0  0
 19 36  1  0  0  0  0
 20 21  1  0  0  0  0
 20 37  1  0  0  0  0
 20 38  1  0  0  0  0
 21 39  1  0  0  0  0
 21 40  1  0  0  0  0
M  END
> <s_m_source_file>
AV-unprocessed.smi

> <i_m_source_file_index>
1502

> <i_lp_mmshare_version>
43012

> <i_f3d_flags>
0

> <s_epik_input>
Tz1jMWMoQ2wpYyhDbClbY0hdbm4xW0NIMl1DKD1PKVtOSF1bQ0hdMltDSDJdW0NIMl1bQ0gyXVtDSDJdW0NIMl1bQ0gyXVtDSDJdMg==

> <s_epik_cmdline>
J2VwaWtfcHl0aG9uJywgJy1waCcsICc3LjAnLCAnLXRuJywgJzgnLCAnLW1hJywgJzIwMCcsICctbWV0YWxfYmluZGluZycsICctaW1hZScsICc8aW5maWxlLm1hZT4nLCAnLW9tYWUnLCAnPG91dGZpbGUubWFlPic=

> <r_lp_tautomer_probability>
1

> <r_epik_Ionization_Penalty>
2.0245e-08

> <r_epik_Ionization_Penalty_Charging>
3.01779e-11

> <r_epik_Ionization_Penalty_Neutral>
2.02148e-08

> <r_epik_State_Penalty>
-0

> <r_epik_Charging_Adjusted_Penalty>
3.01779e-11

> <i_epik_Tot_Q>
0

> <i_epik_Tot_abs_Q>
0

> <r_epik_Metal_State_Penalty>
-0

> <b_epik_Metal_Only>
0

> <s_lp_Force_Field>
OPLS_2005

> <r_lp_Energy>
35.729

> <b_lp_Chiralities_Consistent>
1

> <s_lp_Variant>
AV-unprocessed.smi:1502-1

> <Gold.Version>
5.8.1

> <Gold.Id.Protein>
6NUR|6NUR_protein|mol2

> <Gold.PLP.Fitness>
44.3586

> <Gold.PLP.PLP>
-42.3262

> <Gold.PLP.part.hbond>
-1.0000

> <Gold.PLP.part.metal>
0.0000

> <Gold.PLP.part.buried>
-6.2156

> <Gold.PLP.part.nonpolar>
-35.9965

> <Gold.PLP.part.repulsive>
0.2638

> <Gold.PLP.ligand.clash>
0.0000

> <Gold.PLP.ligand.torsion>
0.4777

> <Gold.PLP.Chemscore.Hbond>
0.9920

> <Gold.PLP.Chemscore.CHOScore>
0.0000

> <Gold.PLP.Chemscore.Metal>
0.0000

> <Gold.Chemscore.Hbonds>
donor molecule, donor type, donor heavy atom, donor atom, acceptor molecule, acceptor atom, score
      L1  H    13    25       P1  8028  0.99

> <Gold.PLP.Chemscore.Internal.Correction>
0.0119

> <Gold.Rescore>
     Score         DG    S(hbond)    S(metal)    S(lipo)     H(rot)  DE(clash)    DE(int)     intcor
     14.90     -17.88       0.92        0.00     112.21       1.49       0.06       2.92       ----

> <Gold.Chemscore.Fitness>
14.9039

> <Gold.Chemscore.DG>
-17.8754

> <Gold.Chemscore.ZeroCoef>
-5.4800

> <Gold.Chemscore.Hbond>
0.9198

> <Gold.Chemscore.Metal>
0.0000

> <Gold.Chemscore.Lipo>
112.2132

> <Gold.Chemscore.Internal_Hbond>
0.0000

> <Gold.Chemscore.DEClash>
0.0550

> <Gold.Chemscore.DEInternal>
2.9165

> <Gold.Chemscore.Rot>
1.4866

> <Gold.Chemscore.Internal.Correction>
   9.000000E+99

> <Gold.Chemscore.Hbonds>
donor molecule, donor type, donor heavy atom, donor atom, acceptor molecule, acceptor atom, score
      L1  H    13    25       P1  8028  0.94

> <Gold.Chemscore.Hbond.Weighted>
-3.0721

> <Gold.Chemscore.Metal.Weighted>
-0.0000

> <Gold.Chemscore.Lipo.Weighted>
-13.1289

> <Gold.Chemscore.Internal_Hbond.Weighted>
0.0000

> <Gold.Chemscore.DEClash.Weighted>
0.0550

> <Gold.Chemscore.DEInternal.Weighted>
2.9165

> <Gold.Chemscore.Rot.Weighted>
3.8057

> <Gold.Chemscore.Internal.Correction.Weighted>
   9.000000E+99

> <Gold.Protein.RotatedTorsions>
[ 6907 6896 6895 6894 ] final  137.04 input  -60.11 | X-H torsion
[ 7974 7965 7964 7962 ] final  142.07 input  175.53 | X-H torsion
[ 8008 7997 7996 7995 ] final -141.33 input   59.86 | X-H torsion
[ 10167 10162 10161 10158 ] final  136.41 input  -65.29 | X-H torsion
[ 10718 10713 10712 10709 ] final  144.62 input   66.30 | X-H torsion
[ 10763 10752 10751 10750 ] final  -75.05 input  -60.55 | X-H torsion
[ 11005 11000 10999 10996 ] final   13.80 input  -57.11 | X-H torsion

> <Gold.Protein.ActiveResidues>
 VAL166  LYS551  ARG553  GLY616  TRP617  ASP618  TYR619  PRO620  LYS621  CYS622 
 ASP623  PHE694  ASN695  SER759  ASP760  ASP761  ALA762  ILE779  LEU786  VAL792 
 PHE793  MET794  SER795  GLU796  ALA797  LYS798  CYS799  TRP800  GLU811  SER814 

> <Gold.Protein.RotatedAtoms>
  152.2826  133.5485  159.5507 H   0  0  0  0  0  0  0  0  0  0  0  0  # atno 6907 bound_to 6896
  150.7202  134.0542  159.3818 H   0  0  0  0  0  0  0  0  0  0  0  0  # atno 6908 bound_to 6896
  151.8452  135.0577  160.0503 H   0  0  0  0  0  0  0  0  0  0  0  0  # atno 6909 bound_to 6896
  144.9040  139.5384  143.5740 H   0  0  0  0  0  0  0  0  0  0  0  0  # atno 7974 bound_to 7965
  155.4760  140.0556  157.2973 H   0  0  0  0  0  0  0  0  0  0  0  0  # atno 8008 bound_to 7997
  154.4679  140.2027  156.0023 H   0  0  0  0  0  0  0  0  0  0  0  0  # atno 8009 bound_to 7997
  156.1006  140.3219  155.7941 H   0  0  0  0  0  0  0  0  0  0  0  0  # atno 8010 bound_to 7997
  139.5181  144.6466  151.5422 H   0  0  0  0  0  0  0  0  0  0  0  0  # atno 10167 bound_to 10162
  157.3551  131.0956  151.0966 H   0  0  0  0  0  0  0  0  0  0  0  0  # atno 10718 bound_to 10713
  154.4814  135.5844  153.6392 H   0  0  0  0  0  0  0  0  0  0  0  0  # atno 10763 bound_to 10752
  152.9848  135.6090  154.3241 H   0  0  0  0  0  0  0  0  0  0  0  0  # atno 10764 bound_to 10752
  154.3133  135.2844  155.2535 H   0  0  0  0  0  0  0  0  0  0  0  0  # atno 10765 bound_to 10752
  140.4767  134.0977  155.7743 H   0  0  0  0  0  0  0  0  0  0  0  0  # atno 11005 bound_to 11000
  146.3124  139.7793  142.9010 LP  0  0  0  0  0  0  0  0  0  0  0  0  # atno 17320 bound_to 7965
  145.3568  141.0318  143.3307 LP  0  0  0  0  0  0  0  0  0  0  0  0  # atno 17321 bound_to 7965
  140.6253  143.9180  150.6560 LP  0  0  0  0  0  0  0  0  0  0  0  0  # atno 17342 bound_to 10162
  140.2466  143.3624  152.1441 LP  0  0  0  0  0  0  0  0  0  0  0  0  # atno 17343 bound_to 10162
  157.2127  130.6445  149.5780 LP  0  0  0  0  0  0  0  0  0  0  0  0  # atno 17370 bound_to 10713
  155.9728  130.4655  150.6255 LP  0  0  0  0  0  0  0  0  0  0  0  0  # atno 17371 bound_to 10713
  141.1551  133.8897  157.1998 LP  0  0  0  0  0  0  0  0  0  0  0  0  # atno 17394 bound_to 11000
  139.9852  135.0084  156.9844 LP  0  0  0  0  0  0  0  0  0  0  0  0  # atno 17395 bound_to 11000

$$$$
