AV-unprocessed.smi:3321|AV-procd|sdf|12770|dock4
  -GOLD-   2272019113D 1   1.00000     0.00000
 Structure written by MMmdl.
 41 42  0  0  0  0  0  0  0  0  2 V2000
  146.6992  140.5334  154.0323 C   0  0  0  0  0  0  0  0  0  0  0  0
  147.8319  139.4952  153.9715 C   0  0  1  0  0  0  0  0  0  0  0  0
  147.8726  138.8962  152.6165 N   0  3  0  0  0  0  0  0  0  0  0  0
  146.5522  138.6138  152.0139 C   0  0  0  0  0  0  0  0  0  0  0  0
  145.7007  137.7404  152.9463 C   0  0  0  0  0  0  0  0  0  0  0  0
  145.1947  136.5615  152.2705 N   0  0  0  0  0  0  0  0  0  0  0  0
  144.2323  135.6720  152.7001 C   0  0  0  0  0  0  0  0  0  0  0  0
  144.1000  134.7184  151.7320 C   0  0  0  0  0  0  0  0  0  0  0  0
  145.0382  135.1134  150.7376 C   0  0  0  0  0  0  0  0  0  0  0  0
  145.6935  136.2159  151.0640 N   0  0  0  0  0  0  0  0  0  0  0  0
  149.1777  140.1521  154.3481 C   0  0  0  0  0  0  0  0  0  0  0  0
  149.4819  141.2078  153.7892 O   0  0  0  0  0  0  0  0  0  0  0  0
  149.9855  139.5697  155.2699 N   0  0  0  0  0  0  0  0  0  0  0  0
  149.7247  138.3117  155.9835 C   0  0  0  0  0  0  0  0  0  0  0  0
  150.6735  137.2302  155.4369 C   0  0  0  0  0  0  0  0  0  0  0  0
  152.1426  137.6730  155.5777 C   0  0  0  0  0  0  0  0  0  0  0  0
  152.3692  139.0897  155.0150 C   0  0  0  0  0  0  0  0  0  0  0  0
  151.3297  140.0804  155.5727 C   0  0  0  0  0  0  0  0  0  0  0  0
  146.6189  140.9892  155.0197 H   0  0  0  0  0  0  0  0  0  0  0  0
  145.7362  140.0730  153.8098 H   0  0  0  0  0  0  0  0  0  0  0  0
  146.8554  141.3371  153.3114 H   0  0  0  0  0  0  0  0  0  0  0  0
  147.6035  138.6800  154.6577 H   0  0  0  0  0  0  0  0  0  0  0  0
  148.3536  139.5400  152.0051 H   0  0  0  0  0  0  0  0  0  0  0  0
  146.0300  139.5491  151.8094 H   0  0  0  0  0  0  0  0  0  0  0  0
  146.6985  138.1115  151.0566 H   0  0  0  0  0  0  0  0  0  0  0  0
  146.2839  137.4187  153.8104 H   0  0  0  0  0  0  0  0  0  0  0  0
  144.8533  138.3105  153.3292 H   0  0  0  0  0  0  0  0  0  0  0  0
  143.7273  135.7887  153.6479 H   0  0  0  0  0  0  0  0  0  0  0  0
  143.4360  133.8667  151.7343 H   0  0  0  0  0  0  0  0  0  0  0  0
  145.2626  134.6341  149.7962 H   0  0  0  0  0  0  0  0  0  0  0  0
  149.9120  138.4610  157.0480 H   0  0  0  0  0  0  0  0  0  0  0  0
  148.6925  137.9732  155.9273 H   0  0  0  0  0  0  0  0  0  0  0  0
  150.5160  136.2895  155.9653 H   0  0  0  0  0  0  0  0  0  0  0  0
  150.4455  137.0395  154.3873 H   0  0  0  0  0  0  0  0  0  0  0  0
  152.4166  137.6630  156.6333 H   0  0  0  0  0  0  0  0  0  0  0  0
  152.8020  136.9594  155.0825 H   0  0  0  0  0  0  0  0  0  0  0  0
  153.3777  139.4289  155.2532 H   0  0  0  0  0  0  0  0  0  0  0  0
  152.3000  139.0651  153.9265 H   0  0  0  0  0  0  0  0  0  0  0  0
  151.5117  141.0753  155.1641 H   0  0  0  0  0  0  0  0  0  0  0  0
  151.4468  140.1804  156.6528 H   0  0  0  0  0  0  0  0  0  0  0  0
  148.4038  138.0381  152.6646 H   0  0  0  0  0  0  0  0  0  0  0  0
  1  2  1  0  0  0  0
  1 19  1  0  0  0  0
  1 20  1  0  0  0  0
  1 21  1  0  0  0  0
  2  3  1  0  0  0  0
  2 11  1  0  0  0  0
  2 22  1  0  0  0  0
  3  4  1  0  0  0  0
  3 23  1  0  0  0  0
  3 41  1  0  0  0  0
  4  5  1  0  0  0  0
  4 24  1  0  0  0  0
  4 25  1  0  0  0  0
  5  6  1  0  0  0  0
  5 26  1  0  0  0  0
  5 27  1  0  0  0  0
  6 10  1  0  0  0  0
  6  7  1  0  0  0  0
  7  8  2  0  0  0  0
  7 28  1  0  0  0  0
  8  9  1  0  0  0  0
  8 29  1  0  0  0  0
  9 10  2  0  0  0  0
  9 30  1  0  0  0  0
 11 12  2  0  0  0  0
 11 13  1  0  0  0  0
 13 18  1  0  0  0  0
 13 14  1  0  0  0  0
 14 15  1  0  0  0  0
 14 31  1  0  0  0  0
 14 32  1  0  0  0  0
 15 16  1  0  0  0  0
 15 33  1  0  0  0  0
 15 34  1  0  0  0  0
 16 17  1  0  0  0  0
 16 35  1  0  0  0  0
 16 36  1  0  0  0  0
 17 18  1  0  0  0  0
 17 37  1  0  0  0  0
 17 38  1  0  0  0  0
 18 39  1  0  0  0  0
 18 40  1  0  0  0  0
M  CHG  1   3   1
M  END
> <s_m_source_file>
AV-unprocessed.smi

> <i_m_source_file_index>
3321

> <i_lp_mmshare_version>
43012

> <i_f3d_flags>
0

> <s_epik_input>
W0NIMl0xW0NIMl1bQ0gyXVtDSDJdW0NIMl1OMUMoPU8pW0NASF0oW0NIM10pW05IXVtDSDJdW0NIMl1uMltjSF1bY0hdW2NIXW4y

> <s_epik_cmdline>
J2VwaWtfcHl0aG9uJywgJy1waCcsICc3LjAnLCAnLXRuJywgJzgnLCAnLW1hJywgJzIwMCcsICctbWV0YWxfYmluZGluZycsICctaW1hZScsICc8aW5maWxlLm1hZT4nLCAnLW9tYWUnLCAnPG91dGZpbGUubWFlPic=

> <r_lp_tautomer_probability>
1

> <r_epik_Ionization_Penalty>
0.202061

> <r_epik_Ionization_Penalty_Charging>
0.202058

> <r_epik_Ionization_Penalty_Neutral>
2.46932e-06

> <r_epik_State_Penalty>
0.191938

> <r_epik_Charging_Adjusted_Penalty>
0.393996

> <i_epik_Tot_Q>
1

> <i_epik_Tot_abs_Q>
1

> <r_epik_Metal_State_Penalty>
0.192188

> <b_epik_Metal_Only>
0

> <s_lp_Force_Field>
OPLS_2005

> <r_lp_Energy>
26.1916

> <b_lp_Chiralities_Consistent>
1

> <s_lp_Variant>
AV-unprocessed.smi:3321-2

> <Gold.Version>
5.8.1

> <Gold.Id.Protein>
6NUR|6NUR_protein|mol2

> <Gold.PLP.Fitness>
46.3100

> <Gold.PLP.PLP>
-32.6052

> <Gold.PLP.part.hbond>
-3.9752

> <Gold.PLP.part.metal>
0.0000

> <Gold.PLP.part.buried>
-4.3011

> <Gold.PLP.part.nonpolar>
-27.6857

> <Gold.PLP.part.repulsive>
2.1613

> <Gold.PLP.ligand.clash>
0.0000

> <Gold.PLP.ligand.torsion>
0.9106

> <Gold.PLP.Chemscore.Hbond>
4.1508

> <Gold.PLP.Chemscore.CHOScore>
1.0000

> <Gold.PLP.Chemscore.Metal>
0.0000

> <Gold.Chemscore.Hbonds>
donor molecule, donor type, donor heavy atom, donor atom, acceptor molecule, acceptor atom, score
      L1  H     3    23       P1  7957  1.00
      L1  H     3    41       P1  7948  2.00
      P1  H  7989  7998       L1    12  0.19
      P1  H  8011  8017       L1    12  0.88
      L1  C     9    30       P1  7921  1.00

> <Gold.PLP.Chemscore.Internal.Correction>
0.0735

> <Gold.Rescore>
     Score         DG    S(hbond)    S(metal)    S(lipo)     H(rot)  DE(clash)    DE(int)     intcor
     16.98     -19.07       3.10        0.00      66.79       1.79       1.31       0.78       ----

> <Gold.Chemscore.Fitness>
16.9846

> <Gold.Chemscore.DG>
-19.0743

> <Gold.Chemscore.ZeroCoef>
-5.4800

> <Gold.Chemscore.Hbond>
3.1047

> <Gold.Chemscore.Metal>
0.0000

> <Gold.Chemscore.Lipo>
66.7881

> <Gold.Chemscore.Internal_Hbond>
0.0000

> <Gold.Chemscore.DEClash>
1.3085

> <Gold.Chemscore.DEInternal>
0.7812

> <Gold.Chemscore.Rot>
1.7928

> <Gold.Chemscore.Internal.Correction>
   9.000000E+99

> <Gold.Chemscore.Hbonds>
donor molecule, donor type, donor heavy atom, donor atom, acceptor molecule, acceptor atom, score
      L1  H     3    23       P1  7957  0.95
      L1  H     3    41       P1  7948  0.88
      P1  H  7989  7998       L1    12  0.06
      P1  H  8011  8017       L1    12  0.86

> <Gold.Chemscore.Hbond.Weighted>
-10.3696

> <Gold.Chemscore.Metal.Weighted>
-0.0000

> <Gold.Chemscore.Lipo.Weighted>
-7.8142

> <Gold.Chemscore.Internal_Hbond.Weighted>
0.0000

> <Gold.Chemscore.DEClash.Weighted>
1.3085

> <Gold.Chemscore.DEInternal.Weighted>
0.7812

> <Gold.Chemscore.Rot.Weighted>
4.5895

> <Gold.Chemscore.Internal.Correction.Weighted>
   9.000000E+99

> <Gold.Protein.RotatedTorsions>
[ 6907 6896 6895 6894 ] final -148.36 input  -60.11 | X-H torsion
[ 7974 7965 7964 7962 ] final  104.38 input  175.53 | X-H torsion
[ 8008 7997 7996 7995 ] final  117.61 input   59.86 | X-H torsion
[ 10167 10162 10161 10158 ] final  -41.72 input  -65.29 | X-H torsion
[ 10718 10713 10712 10709 ] final  -47.10 input   66.30 | X-H torsion
[ 10763 10752 10751 10750 ] final   41.15 input  -60.55 | X-H torsion
[ 11005 11000 10999 10996 ] final  -65.01 input  -57.11 | X-H torsion

> <Gold.Protein.ActiveResidues>
 VAL166  LYS551  ARG553  GLY616  TRP617  ASP618  TYR619  PRO620  LYS621  CYS622 
 ASP623  PHE694  ASN695  SER759  ASP760  ASP761  ALA762  ILE779  LEU786  VAL792 
 PHE793  MET794  SER795  GLU796  ALA797  LYS798  CYS799  TRP800  GLU811  SER814 

> <Gold.Protein.RotatedAtoms>
  151.1687  133.4798  159.2593 H   0  0  0  0  0  0  0  0  0  0  0  0  # atno 6907 bound_to 6896
  151.1378  135.0164  159.8622 H   0  0  0  0  0  0  0  0  0  0  0  0  # atno 6908 bound_to 6896
  152.5462  134.1584  159.8600 H   0  0  0  0  0  0  0  0  0  0  0  0  # atno 6909 bound_to 6896
  145.3336  139.2480  143.3647 H   0  0  0  0  0  0  0  0  0  0  0  0  # atno 7974 bound_to 7965
  156.2503  140.2892  156.0705 H   0  0  0  0  0  0  0  0  0  0  0  0  # atno 8008 bound_to 7997
  155.1676  140.0401  157.2873 H   0  0  0  0  0  0  0  0  0  0  0  0  # atno 8009 bound_to 7997
  154.6349  140.2508  155.7397 H   0  0  0  0  0  0  0  0  0  0  0  0  # atno 8010 bound_to 7997
  140.6993  143.3078  151.3106 H   0  0  0  0  0  0  0  0  0  0  0  0  # atno 10167 bound_to 10162
  156.2118  130.4161  149.9105 H   0  0  0  0  0  0  0  0  0  0  0  0  # atno 10718 bound_to 10713
  152.9916  135.6170  154.2742 H   0  0  0  0  0  0  0  0  0  0  0  0  # atno 10763 bound_to 10752
  154.2473  135.2786  155.2832 H   0  0  0  0  0  0  0  0  0  0  0  0  # atno 10764 bound_to 10752
  154.5318  135.5786  153.6823 H   0  0  0  0  0  0  0  0  0  0  0  0  # atno 10765 bound_to 10752
  141.1442  133.6674  156.5920 H   0  0  0  0  0  0  0  0  0  0  0  0  # atno 11005 bound_to 11000
  146.3036  140.3918  142.8695 LP  0  0  0  0  0  0  0  0  0  0  0  0  # atno 17320 bound_to 7965
  144.8845  140.7444  143.5965 LP  0  0  0  0  0  0  0  0  0  0  0  0  # atno 17321 bound_to 7965
  139.6491  144.0396  152.2613 LP  0  0  0  0  0  0  0  0  0  0  0  0  # atno 17342 bound_to 10162
  139.9927  144.6350  150.7800 LP  0  0  0  0  0  0  0  0  0  0  0  0  # atno 17343 bound_to 10162
  156.6781  130.8847  151.3572 LP  0  0  0  0  0  0  0  0  0  0  0  0  # atno 17370 bound_to 10713
  157.7042  130.9367  150.0880 LP  0  0  0  0  0  0  0  0  0  0  0  0  # atno 17371 bound_to 10713
  140.3756  134.7568  157.4627 LP  0  0  0  0  0  0  0  0  0  0  0  0  # atno 17394 bound_to 11000
  140.0677  134.5906  155.8676 LP  0  0  0  0  0  0  0  0  0  0  0  0  # atno 17395 bound_to 11000

$$$$
