AV-unprocessed.smi:2693|AV-procd|sdf|10397|dock2
  -GOLD-   2272014433D 1   1.00000     0.00000
 Structure written by MMmdl.
 45 47  0  0  0  0  0  0  0  0  1 V2000
  149.2947  133.7490  154.2597 C   0  0  0  0  0  0  0  0  0  0  0  0
  150.2053  133.9937  155.3742 N   0  0  0  0  0  0  0  0  0  0  0  0
  150.9493  132.8530  155.9006 C   0  0  0  0  0  0  0  0  0  0  0  0
  150.3559  135.2717  155.9204 C   0  0  0  0  0  0  0  0  0  0  0  0
  149.2454  135.9967  156.1097 N   0  0  0  0  0  0  0  0  0  0  0  0
  149.3861  137.2300  156.6388 C   0  0  0  0  0  0  0  0  0  0  0  0
  150.6476  137.7576  156.9790 C   0  0  0  0  0  0  0  0  0  0  0  0
  150.7208  139.0563  157.5495 N   0  0  0  0  0  0  0  0  0  0  0  0
  151.7534  139.9155  157.5351 C   0  0  0  0  0  0  0  0  0  0  0  0
  152.8290  139.7280  156.9677 O   0  0  0  0  0  0  0  0  0  0  0  0
  151.4577  141.0375  158.2038 N   0  0  0  0  0  0  0  0  0  0  0  0
  152.3633  142.1822  158.3490 C   0  0  2  0  0  0  0  0  0  0  0  0
  153.3016  142.0424  159.5501 C   0  0  2  0  0  0  0  0  0  0  0  0
  153.7621  140.9276  160.4179 C   0  0  0  0  0  0  0  0  0  0  0  0
  153.6821  141.6896  161.7687 C   0  0  0  0  0  0  0  0  0  0  0  0
  152.9898  142.9331  161.4861 O   0  0  0  0  0  0  0  0  0  0  0  0
  152.1717  142.6229  160.3755 C   0  0  1  0  0  0  0  0  0  0  0  0
  151.7666  143.4265  159.1194 C   0  0  0  0  0  0  0  0  0  0  0  0
  152.4547  144.7863  158.9024 C   0  0  0  0  0  0  0  0  0  0  0  0
  150.2648  143.6898  158.9621 C   0  0  0  0  0  0  0  0  0  0  0  0
  151.7534  136.9057  156.7458 C   0  0  0  0  0  0  0  0  0  0  0  0
  151.5987  135.6727  156.2180 N   0  0  0  0  0  0  0  0  0  0  0  0
  148.2634  133.9178  154.5701 H   0  0  0  0  0  0  0  0  0  0  0  0
  149.3705  132.7267  153.8894 H   0  0  0  0  0  0  0  0  0  0  0  0
  149.5187  134.4178  153.4283 H   0  0  0  0  0  0  0  0  0  0  0  0
  150.7918  132.7559  156.9752 H   0  0  0  0  0  0  0  0  0  0  0  0
  152.0167  132.9808  155.7191 H   0  0  0  0  0  0  0  0  0  0  0  0
  150.6392  131.9164  155.4372 H   0  0  0  0  0  0  0  0  0  0  0  0
  148.4811  137.8002  156.7893 H   0  0  0  0  0  0  0  0  0  0  0  0
  149.8729  139.3859  157.9874 H   0  0  0  0  0  0  0  0  0  0  0  0
  150.5491  141.1137  158.6366 H   0  0  0  0  0  0  0  0  0  0  0  0
  152.8894  142.4518  157.4316 H   0  0  0  0  0  0  0  0  0  0  0  0
  154.1309  142.7415  159.4175 H   0  0  0  0  0  0  0  0  0  0  0  0
  153.0851  140.0731  160.3885 H   0  0  0  0  0  0  0  0  0  0  0  0
  154.7731  140.5944  160.1820 H   0  0  0  0  0  0  0  0  0  0  0  0
  153.1322  141.1083  162.5099 H   0  0  0  0  0  0  0  0  0  0  0  0
  154.6709  141.9062  162.1737 H   0  0  0  0  0  0  0  0  0  0  0  0
  151.4061  141.8937  160.6604 H   0  0  0  0  0  0  0  0  0  0  0  0
  152.1544  145.5062  159.6643 H   0  0  0  0  0  0  0  0  0  0  0  0
  152.1918  145.2113  157.9330 H   0  0  0  0  0  0  0  0  0  0  0  0
  153.5416  144.7349  158.9331 H   0  0  0  0  0  0  0  0  0  0  0  0
  149.9284  144.4983  159.6121 H   0  0  0  0  0  0  0  0  0  0  0  0
  149.6662  142.8150  159.2167 H   0  0  0  0  0  0  0  0  0  0  0  0
  150.0145  143.9643  157.9370 H   0  0  0  0  0  0  0  0  0  0  0  0
  152.7667  137.1805  156.9928 H   0  0  0  0  0  0  0  0  0  0  0  0
  1  2  1  0  0  0  0
  1 23  1  0  0  0  0
  1 24  1  0  0  0  0
  1 25  1  0  0  0  0
  2  3  1  0  0  0  0
  2  4  1  0  0  0  0
  3 26  1  0  0  0  0
  3 27  1  0  0  0  0
  3 28  1  0  0  0  0
  4 22  1  0  0  0  0
  4  5  2  0  0  0  0
  5  6  1  0  0  0  0
  6  7  2  0  0  0  0
  6 29  1  0  0  0  0
  7  8  1  0  0  0  0
  7 21  1  0  0  0  0
  8  9  1  0  0  0  0
  8 30  1  0  0  0  0
  9 10  2  0  0  0  0
  9 11  1  0  0  0  0
 11 12  1  0  0  0  0
 11 31  1  0  0  0  0
 12 18  1  0  0  0  0
 12 13  1  0  0  0  0
 12 32  1  0  0  0  0
 13 17  1  0  0  0  0
 13 14  1  0  0  0  0
 13 33  1  0  0  0  0
 14 15  1  0  0  0  0
 14 34  1  0  0  0  0
 14 35  1  0  0  0  0
 15 16  1  0  0  0  0
 15 36  1  0  0  0  0
 15 37  1  0  0  0  0
 16 17  1  0  0  0  0
 17 18  1  0  0  0  0
 17 38  1  0  0  0  0
 18 19  1  0  0  0  0
 18 20  1  0  0  0  0
 19 39  1  0  0  0  0
 19 40  1  0  0  0  0
 19 41  1  0  0  0  0
 20 42  1  0  0  0  0
 20 43  1  0  0  0  0
 20 44  1  0  0  0  0
 21 22  2  0  0  0  0
 21 45  1  0  0  0  0
M  END
> <s_m_source_file>
AV-unprocessed.smi

> <i_m_source_file_index>
2693

> <i_lp_mmshare_version>
43012

> <i_f3d_flags>
0

> <s_epik_input>
W0NIM11OKFtDSDNdKWMxbltjSF1jKFtjSF1uMSlbTkhdQyg9TylbTkhdW0NASF0yQyhbQ0gzXSkoW0NIM10pW0NAQEhdKFtDQEhdMjMpT1tDSDJdW0NIMl0z

> <s_epik_cmdline>
J2VwaWtfcHl0aG9uJywgJy1waCcsICc3LjAnLCAnLXRuJywgJzgnLCAnLW1hJywgJzIwMCcsICctbWV0YWxfYmluZGluZycsICctaW1hZScsICc8aW5maWxlLm1hZT4nLCAnLW9tYWUnLCAnPG91dGZpbGUubWFlPic=

> <r_lp_tautomer_probability>
1

> <r_epik_Ionization_Penalty>
0.00031779

> <r_epik_Ionization_Penalty_Charging>
0

> <r_epik_Ionization_Penalty_Neutral>
0.00031779

> <r_epik_State_Penalty>
-0

> <r_epik_Charging_Adjusted_Penalty>
0

> <i_epik_Tot_Q>
0

> <i_epik_Tot_abs_Q>
0

> <r_epik_Metal_State_Penalty>
-0

> <b_epik_Metal_Only>
0

> <s_lp_Force_Field>
OPLS_2005

> <r_lp_Energy>
57.3168

> <b_lp_Chiralities_Consistent>
1

> <s_lp_Variant>
AV-unprocessed.smi:2693-1

> <Gold.Version>
5.8.1

> <Gold.Id.Protein>
6NUR|6NUR_protein|mol2

> <Gold.PLP.Fitness>
42.5509

> <Gold.PLP.PLP>
-38.3226

> <Gold.PLP.part.hbond>
-2.0000

> <Gold.PLP.part.metal>
0.0000

> <Gold.PLP.part.buried>
-5.3455

> <Gold.PLP.part.nonpolar>
-30.2915

> <Gold.PLP.part.repulsive>
0.2325

> <Gold.PLP.ligand.clash>
0.0000

> <Gold.PLP.ligand.torsion>
1.0182

> <Gold.PLP.Chemscore.Hbond>
2.0000

> <Gold.PLP.Chemscore.CHOScore>
0.0000

> <Gold.PLP.Chemscore.Metal>
0.0000

> <Gold.Chemscore.Hbonds>
donor molecule, donor type, donor heavy atom, donor atom, acceptor molecule, acceptor atom, score
      P1  H  7997  8008       L1    10  1.00
      P1  H 10752 10763       L1    22  1.00

> <Gold.PLP.Chemscore.Internal.Correction>
0.2646

> <Gold.Rescore>
     Score         DG    S(hbond)    S(metal)    S(lipo)     H(rot)  DE(clash)    DE(int)     intcor
     18.96     -21.08       1.74        0.00     105.45       1.00       0.07       2.06       ----

> <Gold.Chemscore.Fitness>
18.9550

> <Gold.Chemscore.DG>
-21.0793

> <Gold.Chemscore.ZeroCoef>
-5.4800

> <Gold.Chemscore.Hbond>
1.7429

> <Gold.Chemscore.Metal>
0.0000

> <Gold.Chemscore.Lipo>
105.4534

> <Gold.Chemscore.Internal_Hbond>
0.0000

> <Gold.Chemscore.DEClash>
0.0661

> <Gold.Chemscore.DEInternal>
2.0582

> <Gold.Chemscore.Rot>
1.0000

> <Gold.Chemscore.Internal.Correction>
   9.000000E+99

> <Gold.Chemscore.Hbonds>
donor molecule, donor type, donor heavy atom, donor atom, acceptor molecule, acceptor atom, score
      P1  H  7997  8008       L1    10  0.99
      P1  H 10752 10763       L1    22  0.47

> <Gold.Chemscore.Hbond.Weighted>
-5.8212

> <Gold.Chemscore.Metal.Weighted>
-0.0000

> <Gold.Chemscore.Lipo.Weighted>
-12.3381

> <Gold.Chemscore.Internal_Hbond.Weighted>
0.0000

> <Gold.Chemscore.DEClash.Weighted>
0.0661

> <Gold.Chemscore.DEInternal.Weighted>
2.0582

> <Gold.Chemscore.Rot.Weighted>
2.5600

> <Gold.Chemscore.Internal.Correction.Weighted>
   9.000000E+99

> <Gold.Protein.RotatedTorsions>
[ 6907 6896 6895 6894 ] final  -95.40 input  -60.11 | X-H torsion
[ 7974 7965 7964 7962 ] final   63.44 input  175.53 | X-H torsion
[ 8008 7997 7996 7995 ] final  -47.13 input   59.86 | X-H torsion
[ 10167 10162 10161 10158 ] final  131.93 input  -65.29 | X-H torsion
[ 10718 10713 10712 10709 ] final  -75.58 input   66.30 | X-H torsion
[ 10763 10752 10751 10750 ] final   73.31 input  -60.55 | X-H torsion
[ 11005 11000 10999 10996 ] final -145.08 input  -57.11 | X-H torsion

> <Gold.Protein.ActiveResidues>
 VAL166  LYS551  ARG553  GLY616  TRP617  ASP618  TYR619  PRO620  LYS621  CYS622 
 ASP623  PHE694  ASN695  SER759  ASP760  ASP761  ALA762  ILE779  LEU786  VAL792 
 PHE793  MET794  SER795  GLU796  ALA797  LYS798  CYS799  TRP800  GLU811  SER814 

> <Gold.Protein.RotatedAtoms>
  150.6963  134.1664  159.4195 H   0  0  0  0  0  0  0  0  0  0  0  0  # atno 6907 bound_to 6896
  151.9643  135.0106  160.0558 H   0  0  0  0  0  0  0  0  0  0  0  0  # atno 6908 bound_to 6896
  152.1899  133.4731  159.5039 H   0  0  0  0  0  0  0  0  0  0  0  0  # atno 6909 bound_to 6896
  145.8618  139.3319  143.0815 H   0  0  0  0  0  0  0  0  0  0  0  0  # atno 7974 bound_to 7965
  154.4013  140.1354  156.4124 H   0  0  0  0  0  0  0  0  0  0  0  0  # atno 8008 bound_to 7997
  155.7721  140.3483  155.5232 H   0  0  0  0  0  0  0  0  0  0  0  0  # atno 8009 bound_to 7997
  155.8757  140.0979  157.1510 H   0  0  0  0  0  0  0  0  0  0  0  0  # atno 8010 bound_to 7997
  139.5362  144.6684  151.4779 H   0  0  0  0  0  0  0  0  0  0  0  0  # atno 10167 bound_to 10162
  156.0203  130.4444  150.3065 H   0  0  0  0  0  0  0  0  0  0  0  0  # atno 10718 bound_to 10713
  153.0514  135.5067  154.7875 H   0  0  0  0  0  0  0  0  0  0  0  0  # atno 10763 bound_to 10752
  154.6735  135.2956  154.9713 H   0  0  0  0  0  0  0  0  0  0  0  0  # atno 10764 bound_to 10752
  154.0523  135.6702  153.4854 H   0  0  0  0  0  0  0  0  0  0  0  0  # atno 10765 bound_to 10752
  140.7959  134.2914  157.4996 H   0  0  0  0  0  0  0  0  0  0  0  0  # atno 11005 bound_to 11000
  145.9240  140.9095  143.0390 LP  0  0  0  0  0  0  0  0  0  0  0  0  # atno 17320 bound_to 7965
  144.6726  140.1327  143.7442 LP  0  0  0  0  0  0  0  0  0  0  0  0  # atno 17321 bound_to 7965
  140.6569  143.8580  150.6845 LP  0  0  0  0  0  0  0  0  0  0  0  0  # atno 17342 bound_to 10162
  140.1963  143.3996  152.1826 LP  0  0  0  0  0  0  0  0  0  0  0  0  # atno 17343 bound_to 10162
  157.1167  131.0236  151.3026 LP  0  0  0  0  0  0  0  0  0  0  0  0  # atno 17370 bound_to 10713
  157.4661  130.7681  149.7280 LP  0  0  0  0  0  0  0  0  0  0  0  0  # atno 17371 bound_to 10713
  139.8726  134.9401  156.3761 LP  0  0  0  0  0  0  0  0  0  0  0  0  # atno 17394 bound_to 11000
  140.9343  133.7557  156.0065 LP  0  0  0  0  0  0  0  0  0  0  0  0  # atno 17395 bound_to 11000

$$$$
