AV-unprocessed.smi:2505|AV-procd|sdf|9856|dock4
  -GOLD-   2272013483D 1   1.00000     0.00000
 Structure written by MMmdl.
 48 52  0  0  0  0  0  0  0  0  1 V2000
  146.4776  137.0527  155.6278 O   0  0  0  0  0  0  0  0  0  0  0  0
  147.1144  136.8606  154.5951 C   0  0  0  0  0  0  0  0  0  0  0  0
  148.2936  137.4373  154.2948 N   0  0  0  0  0  0  0  0  0  0  0  0
  149.0692  138.3565  155.0506 C   0  0  0  0  0  0  0  0  0  0  0  0
  149.7139  139.4086  154.3671 C   0  0  0  0  0  0  0  0  0  0  0  0
  150.4770  140.3192  155.0075 N   0  0  0  0  0  0  0  0  0  0  0  0
  150.5896  140.1859  156.3315 C   0  0  0  0  0  0  0  0  0  0  0  0
  151.4692  141.1737  157.0332 C   0  0  0  0  0  0  0  0  0  0  0  0
  151.7042  141.0810  158.5271 C   0  0  0  0  0  0  0  0  0  0  0  0
  150.8789  142.2075  157.9703 C   0  0  0  0  0  0  0  0  0  0  0  0
  150.0414  139.2285  157.0846 N   0  0  0  0  0  0  0  0  0  0  0  0
  149.2761  138.3124  156.4521 C   0  0  0  0  0  0  0  0  0  0  0  0
  146.6563  136.0342  153.6388 N   0  0  0  0  0  0  0  0  0  0  0  0
  145.4149  135.2574  153.6523 C   0  0  1  0  0  0  0  0  0  0  0  0
  144.2272  136.0577  153.0930 C   0  0  2  0  0  0  0  0  0  0  0  0
  143.0809  136.4259  153.9958 C   0  0  0  0  0  0  0  0  0  0  0  0
  142.0658  135.3112  153.7289 C   0  0  0  0  0  0  0  0  0  0  0  0
  142.8437  134.2343  153.2115 O   0  0  0  0  0  0  0  0  0  0  0  0
  143.8295  134.7936  152.3466 C   0  0  2  0  0  0  0  0  0  0  0  0
  145.2664  134.2476  152.4875 C   0  0  0  0  0  0  0  0  0  0  0  0
  146.1480  134.3911  151.2436 C   0  0  0  0  0  0  0  0  0  0  0  0
  145.9572  133.1154  150.4207 C   0  0  0  0  0  0  0  0  0  0  0  0
  145.5200  132.0431  151.4239 C   0  0  0  0  0  0  0  0  0  0  0  0
  145.4157  132.7558  152.7762 C   0  0  0  0  0  0  0  0  0  0  0  0
  148.6785  137.1917  153.3942 H   0  0  0  0  0  0  0  0  0  0  0  0
  149.6202  139.5204  153.2968 H   0  0  0  0  0  0  0  0  0  0  0  0
  152.3048  141.4758  156.4046 H   0  0  0  0  0  0  0  0  0  0  0  0
  151.1807  140.3006  159.0762 H   0  0  0  0  0  0  0  0  0  0  0  0
  152.7004  141.3199  158.8933 H   0  0  0  0  0  0  0  0  0  0  0  0
  151.3221  143.2012  157.9625 H   0  0  0  0  0  0  0  0  0  0  0  0
  149.8060  142.1772  158.1500 H   0  0  0  0  0  0  0  0  0  0  0  0
  148.8514  137.5532  157.0886 H   0  0  0  0  0  0  0  0  0  0  0  0
  147.2269  135.9401  152.8109 H   0  0  0  0  0  0  0  0  0  0  0  0
  145.1747  134.8101  154.6197 H   0  0  0  0  0  0  0  0  0  0  0  0
  144.5371  136.8453  152.4036 H   0  0  0  0  0  0  0  0  0  0  0  0
  143.3925  136.4247  155.0406 H   0  0  0  0  0  0  0  0  0  0  0  0
  142.6665  137.4089  153.7710 H   0  0  0  0  0  0  0  0  0  0  0  0
  141.5173  135.0172  154.6239 H   0  0  0  0  0  0  0  0  0  0  0  0
  141.3443  135.6235  152.9724 H   0  0  0  0  0  0  0  0  0  0  0  0
  143.4734  134.9669  151.3299 H   0  0  0  0  0  0  0  0  0  0  0  0
  145.9122  135.2825  150.6614 H   0  0  0  0  0  0  0  0  0  0  0  0
  147.1988  134.4660  151.5257 H   0  0  0  0  0  0  0  0  0  0  0  0
  145.1752  133.2638  149.6752 H   0  0  0  0  0  0  0  0  0  0  0  0
  146.8689  132.8376  149.8908 H   0  0  0  0  0  0  0  0  0  0  0  0
  144.5509  131.6361  151.1325 H   0  0  0  0  0  0  0  0  0  0  0  0
  146.2254  131.2125  151.4670 H   0  0  0  0  0  0  0  0  0  0  0  0
  146.3282  132.5774  153.3456 H   0  0  0  0  0  0  0  0  0  0  0  0
  144.5957  132.3561  153.3731 H   0  0  0  0  0  0  0  0  0  0  0  0
  1  2  2  0  0  0  0
  2  3  1  0  0  0  0
  2 13  1  0  0  0  0
  3  4  1  0  0  0  0
  3 25  1  0  0  0  0
  4 12  1  0  0  0  0
  4  5  2  0  0  0  0
  5  6  1  0  0  0  0
  5 26  1  0  0  0  0
  6  7  2  0  0  0  0
  7  8  1  0  0  0  0
  7 11  1  0  0  0  0
  8 10  1  0  0  0  0
  8  9  1  0  0  0  0
  8 27  1  0  0  0  0
  9 10  1  0  0  0  0
  9 28  1  0  0  0  0
  9 29  1  0  0  0  0
 10 30  1  0  0  0  0
 10 31  1  0  0  0  0
 11 12  2  0  0  0  0
 12 32  1  0  0  0  0
 13 14  1  0  0  0  0
 13 33  1  0  0  0  0
 14 20  1  0  0  0  0
 14 15  1  0  0  0  0
 14 34  1  0  0  0  0
 15 19  1  0  0  0  0
 15 16  1  0  0  0  0
 15 35  1  0  0  0  0
 16 17  1  0  0  0  0
 16 36  1  0  0  0  0
 16 37  1  0  0  0  0
 17 18  1  0  0  0  0
 17 38  1  0  0  0  0
 17 39  1  0  0  0  0
 18 19  1  0  0  0  0
 19 20  1  0  0  0  0
 19 40  1  0  0  0  0
 20 24  1  0  0  0  0
 20 21  1  0  0  0  0
 21 22  1  0  0  0  0
 21 41  1  0  0  0  0
 21 42  1  0  0  0  0
 22 23  1  0  0  0  0
 22 43  1  0  0  0  0
 22 44  1  0  0  0  0
 23 24  1  0  0  0  0
 23 45  1  0  0  0  0
 23 46  1  0  0  0  0
 24 47  1  0  0  0  0
 24 48  1  0  0  0  0
M  END
> <s_m_source_file>
AV-unprocessed.smi

> <i_m_source_file_index>
2505

> <i_lp_mmshare_version>
43012

> <i_f3d_flags>
0

> <s_epik_input>
W0NIMl0xW0NIMl1bQ0hdMWMobltjSF0yKW5bY0hdYzJbTkhdQyg9TylbTkhdW0NAQEhdM1tDQEBIXShbQ0gyXVtDSDJdTzQpW0NASF00QzM1W0NIMl1bQ0gyXVtDSDJdW0NIMl01

> <s_epik_cmdline>
J2VwaWtfcHl0aG9uJywgJy1waCcsICc3LjAnLCAnLXRuJywgJzgnLCAnLW1hJywgJzIwMCcsICctbWV0YWxfYmluZGluZycsICctaW1hZScsICc8aW5maWxlLm1hZT4nLCAnLW9tYWUnLCAnPG91dGZpbGUubWFlPic=

> <r_lp_tautomer_probability>
1

> <r_epik_Ionization_Penalty>
2.6075e-05

> <r_epik_Ionization_Penalty_Charging>
0

> <r_epik_Ionization_Penalty_Neutral>
2.6075e-05

> <r_epik_State_Penalty>
-0

> <r_epik_Charging_Adjusted_Penalty>
0

> <i_epik_Tot_Q>
0

> <i_epik_Tot_abs_Q>
0

> <r_epik_Metal_State_Penalty>
-0

> <b_epik_Metal_Only>
0

> <s_lp_Force_Field>
OPLS_2005

> <r_lp_Energy>
62.9039

> <b_lp_Chiralities_Consistent>
1

> <s_lp_Variant>
AV-unprocessed.smi:2505-4

> <Gold.Version>
5.8.1

> <Gold.Id.Protein>
6NUR|6NUR_protein|mol2

> <Gold.PLP.Fitness>
43.3767

> <Gold.PLP.PLP>
-32.3021

> <Gold.PLP.part.hbond>
-3.0000

> <Gold.PLP.part.metal>
0.0000

> <Gold.PLP.part.buried>
-6.1521

> <Gold.PLP.part.nonpolar>
-24.0568

> <Gold.PLP.part.repulsive>
0.3016

> <Gold.PLP.ligand.clash>
0.0000

> <Gold.PLP.ligand.torsion>
0.6142

> <Gold.PLP.Chemscore.Hbond>
3.0000

> <Gold.PLP.Chemscore.CHOScore>
1.0000

> <Gold.PLP.Chemscore.Metal>
0.0000

> <Gold.Chemscore.Hbonds>
donor molecule, donor type, donor heavy atom, donor atom, acceptor molecule, acceptor atom, score
      L1  H     3    25       P1  7948  1.00
      L1  H    13    33       P1  7948  1.00
      P1  H  7989  7998       L1     6  0.95
      L1  C     5    26       P1  7957  1.00

> <Gold.PLP.Chemscore.Internal.Correction>
0.3032

> <Gold.Rescore>
     Score         DG    S(hbond)    S(metal)    S(lipo)     H(rot)  DE(clash)    DE(int)     intcor
     19.49     -20.15       2.49        0.00      79.97       1.17       0.06       0.59       ----

> <Gold.Chemscore.Fitness>
19.4936

> <Gold.Chemscore.DG>
-20.1496

> <Gold.Chemscore.ZeroCoef>
-5.4800

> <Gold.Chemscore.Hbond>
2.4909

> <Gold.Chemscore.Metal>
0.0000

> <Gold.Chemscore.Lipo>
79.9703

> <Gold.Chemscore.Internal_Hbond>
0.0000

> <Gold.Chemscore.DEClash>
0.0624

> <Gold.Chemscore.DEInternal>
0.5937

> <Gold.Chemscore.Rot>
1.1744

> <Gold.Chemscore.Internal.Correction>
   9.000000E+99

> <Gold.Chemscore.Hbonds>
donor molecule, donor type, donor heavy atom, donor atom, acceptor molecule, acceptor atom, score
      L1  H     3    25       P1  7948  1.00
      L1  H    13    33       P1  7948  0.93
      P1  H  7989  7998       L1     6  0.21

> <Gold.Chemscore.Hbond.Weighted>
-8.3195

> <Gold.Chemscore.Metal.Weighted>
-0.0000

> <Gold.Chemscore.Lipo.Weighted>
-9.3565

> <Gold.Chemscore.Internal_Hbond.Weighted>
0.0000

> <Gold.Chemscore.DEClash.Weighted>
0.0624

> <Gold.Chemscore.DEInternal.Weighted>
0.5937

> <Gold.Chemscore.Rot.Weighted>
3.0064

> <Gold.Chemscore.Internal.Correction.Weighted>
   9.000000E+99

> <Gold.Protein.RotatedTorsions>
[ 6907 6896 6895 6894 ] final    8.34 input  -60.11 | X-H torsion
[ 7974 7965 7964 7962 ] final   -5.09 input  175.53 | X-H torsion
[ 8008 7997 7996 7995 ] final    9.38 input   59.86 | X-H torsion
[ 10167 10162 10161 10158 ] final  141.46 input  -65.29 | X-H torsion
[ 10718 10713 10712 10709 ] final  -68.65 input   66.30 | X-H torsion
[ 10763 10752 10751 10750 ] final  116.45 input  -60.55 | X-H torsion
[ 11005 11000 10999 10996 ] final   82.17 input  -57.11 | X-H torsion

> <Gold.Protein.ActiveResidues>
 VAL166  LYS551  ARG553  GLY616  TRP617  ASP618  TYR619  PRO620  LYS621  CYS622 
 ASP623  PHE694  ASN695  SER759  ASP760  ASP761  ALA762  ILE779  LEU786  VAL792 
 PHE793  MET794  SER795  GLU796  ALA797  LYS798  CYS799  TRP800  GLU811  SER814 

> <Gold.Protein.RotatedAtoms>
  151.7045  135.0924  160.0256 H   0  0  0  0  0  0  0  0  0  0  0  0  # atno 6907 bound_to 6896
  152.3700  133.6402  159.6088 H   0  0  0  0  0  0  0  0  0  0  0  0  # atno 6908 bound_to 6896
  150.7666  133.9202  159.3437 H   0  0  0  0  0  0  0  0  0  0  0  0  # atno 6909 bound_to 6896
  146.2360  140.1969  142.8333 H   0  0  0  0  0  0  0  0  0  0  0  0  # atno 7974 bound_to 7965
  154.7793  140.2816  155.6076 H   0  0  0  0  0  0  0  0  0  0  0  0  # atno 8008 bound_to 7997
  156.2947  140.2626  156.2543 H   0  0  0  0  0  0  0  0  0  0  0  0  # atno 8009 bound_to 7997
  154.9804  140.0375  157.2264 H   0  0  0  0  0  0  0  0  0  0  0  0  # atno 8010 bound_to 7997
  139.5020  144.6170  151.6141 H   0  0  0  0  0  0  0  0  0  0  0  0  # atno 10167 bound_to 10162
  156.0495  130.4298  150.2031 H   0  0  0  0  0  0  0  0  0  0  0  0  # atno 10718 bound_to 10713
  153.5374  135.3565  155.2703 H   0  0  0  0  0  0  0  0  0  0  0  0  # atno 10763 bound_to 10752
  154.8721  135.4083  154.3082 H   0  0  0  0  0  0  0  0  0  0  0  0  # atno 10764 bound_to 10752
  153.3782  135.7067  153.6653 H   0  0  0  0  0  0  0  0  0  0  0  0  # atno 10765 bound_to 10752
  139.9073  134.8051  156.2139 H   0  0  0  0  0  0  0  0  0  0  0  0  # atno 11005 bound_to 11000
  144.9813  140.8462  143.5395 LP  0  0  0  0  0  0  0  0  0  0  0  0  # atno 17320 bound_to 7965
  145.1963  139.2275  143.5216 LP  0  0  0  0  0  0  0  0  0  0  0  0  # atno 17321 bound_to 7965
  140.5861  143.9862  150.6296 LP  0  0  0  0  0  0  0  0  0  0  0  0  # atno 17342 bound_to 10162
  140.3027  143.3250  152.0956 LP  0  0  0  0  0  0  0  0  0  0  0  0  # atno 17343 bound_to 10162
  157.0117  130.9953  151.3364 LP  0  0  0  0  0  0  0  0  0  0  0  0  # atno 17370 bound_to 10713
  157.5406  130.8117  149.8024 LP  0  0  0  0  0  0  0  0  0  0  0  0  # atno 17371 bound_to 10713
  141.0448  133.6919  156.1663 LP  0  0  0  0  0  0  0  0  0  0  0  0  # atno 17394 bound_to 11000
  140.6901  134.4675  157.5588 LP  0  0  0  0  0  0  0  0  0  0  0  0  # atno 17395 bound_to 11000

$$$$
