AV-unprocessed.smi:3337|AV-procd|sdf|12866|dock6
  -GOLD-   2272019263D 1   1.00000     0.00000
 Structure written by MMmdl.
 46 47  0  0  0  0  0  0  0  0  2 V2000
  144.5779  133.1467  149.6093 C   0  0  0  0  0  0  0  0  0  0  0  0
  145.2329  133.2600  150.9931 C   0  0  1  0  0  0  0  0  0  0  0  0
  145.7831  131.9022  151.4644 C   0  0  0  0  0  0  0  0  0  0  0  0
  146.4831  132.0320  152.8285 C   0  0  1  0  0  0  0  0  0  0  0  0
  147.0591  130.6872  153.2931 C   0  0  0  0  0  0  0  0  0  0  0  0
  147.5765  133.1194  152.7597 C   0  0  0  0  0  0  0  0  0  0  0  0
  147.0336  134.4310  152.3178 N   0  3  2  0  0  0  0  0  0  0  0  0
  146.2553  135.1310  153.3750 C   0  0  0  0  0  0  0  0  0  0  0  0
  147.0764  135.3831  154.6538 C   0  0  0  0  0  0  0  0  0  0  0  0
  148.1142  136.3814  154.4262 N   0  0  0  0  0  0  0  0  0  0  0  0
  148.6424  137.1720  155.3748 C   0  0  0  0  0  0  0  0  0  0  0  0
  148.2836  137.1289  156.5521 O   0  0  0  0  0  0  0  0  0  0  0  0
  149.7223  138.1668  154.9141 C   0  0  1  0  0  0  0  0  0  0  0  0
  149.4297  139.6175  155.3491 C   0  0  0  0  0  0  0  0  0  0  0  0
  151.0454  137.7281  155.3424 N   0  0  0  0  0  0  0  0  0  0  0  0
  151.6752  136.5699  155.1330 C   0  0  0  0  0  0  0  0  0  0  0  0
  152.8683  136.4943  155.7052 N   0  0  0  0  0  0  0  0  0  0  0  0
  152.9145  137.7234  156.2996 C   0  0  0  0  0  0  0  0  0  0  0  0
  151.8435  138.4972  156.1243 N   0  0  0  0  0  0  0  0  0  0  0  0
  146.3529  134.3237  150.9980 C   0  0  0  0  0  0  0  0  0  0  0  0
  145.2992  132.8369  148.8522 H   0  0  0  0  0  0  0  0  0  0  0  0
  144.1552  134.1016  149.2950 H   0  0  0  0  0  0  0  0  0  0  0  0
  143.7688  132.4158  149.6163 H   0  0  0  0  0  0  0  0  0  0  0  0
  144.4528  133.5699  151.6887 H   0  0  0  0  0  0  0  0  0  0  0  0
  144.9721  131.1757  151.5303 H   0  0  0  0  0  0  0  0  0  0  0  0
  146.4866  131.5144  150.7263 H   0  0  0  0  0  0  0  0  0  0  0  0
  145.7382  132.3339  153.5661 H   0  0  0  0  0  0  0  0  0  0  0  0
  147.8160  130.3176  152.6004 H   0  0  0  0  0  0  0  0  0  0  0  0
  146.2775  129.9304  153.3670 H   0  0  0  0  0  0  0  0  0  0  0  0
  147.5225  130.7774  154.2761 H   0  0  0  0  0  0  0  0  0  0  0  0
  148.0752  133.2269  153.7238 H   0  0  0  0  0  0  0  0  0  0  0  0
  148.3511  132.8151  152.0542 H   0  0  0  0  0  0  0  0  0  0  0  0
  145.8451  136.0672  152.9971 H   0  0  0  0  0  0  0  0  0  0  0  0
  145.3976  134.5107  153.6385 H   0  0  0  0  0  0  0  0  0  0  0  0
  146.4266  135.6959  155.4732 H   0  0  0  0  0  0  0  0  0  0  0  0
  147.5765  134.4730  154.9825 H   0  0  0  0  0  0  0  0  0  0  0  0
  148.4610  136.4750  153.4824 H   0  0  0  0  0  0  0  0  0  0  0  0
  149.7186  138.1514  153.8231 H   0  0  0  0  0  0  0  0  0  0  0  0
  148.4679  139.9582  154.9643 H   0  0  0  0  0  0  0  0  0  0  0  0
  150.1913  140.2986  154.9685 H   0  0  0  0  0  0  0  0  0  0  0  0
  149.4074  139.7216  156.4349 H   0  0  0  0  0  0  0  0  0  0  0  0
  151.2507  135.7633  154.5533 H   0  0  0  0  0  0  0  0  0  0  0  0
  153.7599  138.0554  156.8843 H   0  0  0  0  0  0  0  0  0  0  0  0
  147.1063  134.0548  150.2561 H   0  0  0  0  0  0  0  0  0  0  0  0
  145.9635  135.2906  150.6825 H   0  0  0  0  0  0  0  0  0  0  0  0
  147.8435  135.0155  152.1665 H   0  0  0  0  0  0  0  0  0  0  0  0
  1  2  1  0  0  0  0
  1 21  1  0  0  0  0
  1 22  1  0  0  0  0
  1 23  1  0  0  0  0
  2 20  1  0  0  0  0
  2  3  1  0  0  0  0
  2 24  1  0  0  0  0
  3  4  1  0  0  0  0
  3 25  1  0  0  0  0
  3 26  1  0  0  0  0
  4  5  1  0  0  0  0
  4  6  1  0  0  0  0
  4 27  1  0  0  0  0
  5 28  1  0  0  0  0
  5 29  1  0  0  0  0
  5 30  1  0  0  0  0
  6  7  1  0  0  0  0
  6 31  1  0  0  0  0
  6 32  1  0  0  0  0
  7  8  1  0  0  0  0
  7 20  1  0  0  0  0
  7 46  1  0  0  0  0
  8  9  1  0  0  0  0
  8 33  1  0  0  0  0
  8 34  1  0  0  0  0
  9 10  1  0  0  0  0
  9 35  1  0  0  0  0
  9 36  1  0  0  0  0
 10 11  1  0  0  0  0
 10 37  1  0  0  0  0
 11 12  2  0  0  0  0
 11 13  1  0  0  0  0
 13 14  1  0  0  0  0
 13 15  1  0  0  0  0
 13 38  1  0  0  0  0
 14 39  1  0  0  0  0
 14 40  1  0  0  0  0
 14 41  1  0  0  0  0
 15 19  1  0  0  0  0
 15 16  1  0  0  0  0
 16 17  2  0  0  0  0
 16 42  1  0  0  0  0
 17 18  1  0  0  0  0
 18 19  2  0  0  0  0
 18 43  1  0  0  0  0
 20 44  1  0  0  0  0
 20 45  1  0  0  0  0
M  CHG  1   7   1
M  END
> <s_m_source_file>
AV-unprocessed.smi

> <i_m_source_file_index>
3337

> <i_lp_mmshare_version>
43012

> <i_f3d_flags>
0

> <s_epik_input>
W0NIM11bQ0BASF0xW0NIMl1bQ0BASF0oW0NIM10pW0NIMl1OKFtDSDJdMSlbQ0gyXVtDSDJdW05IXUMoPU8pW0NASF0oW0NIM10pbjJbY0hdbltjSF1uMg==

> <s_epik_cmdline>
J2VwaWtfcHl0aG9uJywgJy1waCcsICc3LjAnLCAnLXRuJywgJzgnLCAnLW1hJywgJzIwMCcsICctbWV0YWxfYmluZGluZycsICctaW1hZScsICc8aW5maWxlLm1hZT4nLCAnLW9tYWUnLCAnPG91dGZpbGUubWFlPic=

> <r_lp_tautomer_probability>
1

> <r_epik_Ionization_Penalty>
0.00175613

> <r_epik_Ionization_Penalty_Charging>
0.00174812

> <r_epik_Ionization_Penalty_Neutral>
8.01354e-06

> <r_epik_State_Penalty>
0.00118332

> <r_epik_Charging_Adjusted_Penalty>
0.00293143

> <i_epik_Tot_Q>
1

> <i_epik_Tot_abs_Q>
1

> <r_epik_Metal_State_Penalty>
-0

> <b_epik_Metal_Only>
0

> <s_lp_Force_Field>
OPLS_2005

> <r_lp_Energy>
23.9818

> <b_lp_Chiralities_Consistent>
1

> <s_lp_Variant>
AV-unprocessed.smi:3337-6

> <Gold.Version>
5.8.1

> <Gold.Id.Protein>
6NUR|6NUR_protein|mol2

> <Gold.PLP.Fitness>
50.1666

> <Gold.PLP.PLP>
-35.9130

> <Gold.PLP.part.hbond>
-3.7408

> <Gold.PLP.part.metal>
0.0000

> <Gold.PLP.part.buried>
-3.5624

> <Gold.PLP.part.nonpolar>
-28.8304

> <Gold.PLP.part.repulsive>
0.1348

> <Gold.PLP.ligand.clash>
0.0000

> <Gold.PLP.ligand.torsion>
0.4880

> <Gold.PLP.Chemscore.Hbond>
4.0362

> <Gold.PLP.Chemscore.CHOScore>
0.9910

> <Gold.PLP.Chemscore.Metal>
0.0000

> <Gold.Chemscore.Hbonds>
donor molecule, donor type, donor heavy atom, donor atom, acceptor molecule, acceptor atom, score
      L1  H     7    46       P1  7948  2.00
      L1  H    10    37       P1  7948  1.00
      P1  H 10752 10765       L1    17  0.04

> <Gold.PLP.Chemscore.Internal.Correction>
0.1480

> <Gold.Rescore>
     Score         DG    S(hbond)    S(metal)    S(lipo)     H(rot)  DE(clash)    DE(int)     intcor
     14.65     -15.35       2.76        0.00      60.63       2.51       0.08       0.63       ----

> <Gold.Chemscore.Fitness>
14.6465

> <Gold.Chemscore.DG>
-15.3485

> <Gold.Chemscore.ZeroCoef>
-5.4800

> <Gold.Chemscore.Hbond>
2.7569

> <Gold.Chemscore.Metal>
0.0000

> <Gold.Chemscore.Lipo>
60.6281

> <Gold.Chemscore.Internal_Hbond>
0.0000

> <Gold.Chemscore.DEClash>
0.0752

> <Gold.Chemscore.DEInternal>
0.6267

> <Gold.Chemscore.Rot>
2.5129

> <Gold.Chemscore.Internal.Correction>
   9.000000E+99

> <Gold.Chemscore.Hbonds>
donor molecule, donor type, donor heavy atom, donor atom, acceptor molecule, acceptor atom, score
      L1  H     7    46       P1  7948  0.82
      L1  H    10    37       P1  7948  1.00

> <Gold.Chemscore.Hbond.Weighted>
-9.2081

> <Gold.Chemscore.Metal.Weighted>
-0.0000

> <Gold.Chemscore.Lipo.Weighted>
-7.0935

> <Gold.Chemscore.Internal_Hbond.Weighted>
0.0000

> <Gold.Chemscore.DEClash.Weighted>
0.0752

> <Gold.Chemscore.DEInternal.Weighted>
0.6267

> <Gold.Chemscore.Rot.Weighted>
6.4331

> <Gold.Chemscore.Internal.Correction.Weighted>
   9.000000E+99

> <Gold.Protein.RotatedTorsions>
[ 6907 6896 6895 6894 ] final   66.20 input  -60.11 | X-H torsion
[ 7974 7965 7964 7962 ] final  -38.57 input  175.53 | X-H torsion
[ 8008 7997 7996 7995 ] final   87.64 input   59.86 | X-H torsion
[ 10167 10162 10161 10158 ] final  -16.24 input  -65.29 | X-H torsion
[ 10718 10713 10712 10709 ] final   -5.77 input   66.30 | X-H torsion
[ 10763 10752 10751 10750 ] final -165.13 input  -60.55 | X-H torsion
[ 11005 11000 10999 10996 ] final -107.22 input  -57.11 | X-H torsion

> <Gold.Protein.ActiveResidues>
 VAL166  LYS551  ARG553  GLY616  TRP617  ASP618  TYR619  PRO620  LYS621  CYS622 
 ASP623  PHE694  ASN695  SER759  ASP760  ASP761  ALA762  ILE779  LEU786  VAL792 
 PHE793  MET794  SER795  GLU796  ALA797  LYS798  CYS799  TRP800  GLU811  SER814 

> <Gold.Protein.RotatedAtoms>
  152.4463  134.5487  159.9860 H   0  0  0  0  0  0  0  0  0  0  0  0  # atno 6907 bound_to 6896
  151.5571  133.3403  159.2972 H   0  0  0  0  0  0  0  0  0  0  0  0  # atno 6908 bound_to 6896
  150.8381  134.7694  159.6973 H   0  0  0  0  0  0  0  0  0  0  0  0  # atno 6909 bound_to 6896
  146.0474  140.6527  142.9058 H   0  0  0  0  0  0  0  0  0  0  0  0  # atno 7974 bound_to 7965
  155.9779  140.3380  155.6635 H   0  0  0  0  0  0  0  0  0  0  0  0  # atno 8008 bound_to 7997
  155.6588  140.0714  157.2579 H   0  0  0  0  0  0  0  0  0  0  0  0  # atno 8009 bound_to 7997
  154.4183  140.1712  156.1742 H   0  0  0  0  0  0  0  0  0  0  0  0  # atno 8010 bound_to 7997
  140.7231  143.5136  150.9719 H   0  0  0  0  0  0  0  0  0  0  0  0  # atno 10167 bound_to 10162
  156.7418  130.5212  149.5822 H   0  0  0  0  0  0  0  0  0  0  0  0  # atno 10718 bound_to 10713
  154.6962  135.2979  154.9408 H   0  0  0  0  0  0  0  0  0  0  0  0  # atno 10763 bound_to 10752
  154.0356  135.6664  153.4789 H   0  0  0  0  0  0  0  0  0  0  0  0  # atno 10764 bound_to 10752
  153.0647  135.5095  154.8080 H   0  0  0  0  0  0  0  0  0  0  0  0  # atno 10765 bound_to 10752
  141.0965  133.8961  157.1949 H   0  0  0  0  0  0  0  0  0  0  0  0  # atno 11005 bound_to 11000
  144.7105  140.4019  143.7084 LP  0  0  0  0  0  0  0  0  0  0  0  0  # atno 17320 bound_to 7965
  145.6782  139.1613  143.2716 LP  0  0  0  0  0  0  0  0  0  0  0  0  # atno 17321 bound_to 7965
  139.8851  143.7023  152.3152 LP  0  0  0  0  0  0  0  0  0  0  0  0  # atno 17342 bound_to 10162
  139.7319  144.7580  151.0788 LP  0  0  0  0  0  0  0  0  0  0  0  0  # atno 17343 bound_to 10162
  156.1460  130.6277  151.0531 LP  0  0  0  0  0  0  0  0  0  0  0  0  # atno 17370 bound_to 10713
  157.6815  131.0836  150.7356 LP  0  0  0  0  0  0  0  0  0  0  0  0  # atno 17371 bound_to 10713
  139.9803  135.0100  156.9734 LP  0  0  0  0  0  0  0  0  0  0  0  0  # atno 17394 bound_to 11000
  140.5127  134.0986  155.7274 LP  0  0  0  0  0  0  0  0  0  0  0  0  # atno 17395 bound_to 11000

$$$$
