AV-unprocessed.smi:2799|AV-procd|sdf|10789|dock3
  -GOLD-   2272015223D 1   1.00000     0.00000
 Structure written by MMmdl.
 52 53  0  0  0  0  0  0  0  0  2 V2000
  147.0655  140.3178  153.2093 C   0  0  0  0  0  0  0  0  0  0  0  0
  146.9927  138.9279  152.5558 C   0  0  0  0  0  0  0  0  0  0  0  0
  146.4789  139.0402  151.1126 C   0  0  0  0  0  0  0  0  0  0  0  0
  146.1198  137.9536  153.3717 C   0  0  0  0  0  0  0  0  0  0  0  0
  146.4463  136.5308  153.0646 N   0  3  2  0  0  0  0  0  0  0  0  0
  145.5541  136.0269  151.9825 C   0  0  0  0  0  0  0  0  0  0  0  0
  145.9146  134.6070  151.5389 C   0  0  0  0  0  0  0  0  0  0  0  0
  145.8292  133.6622  152.7337 C   0  0  0  0  0  0  0  0  0  0  0  0
  146.7758  134.1555  153.8286 C   0  0  0  0  0  0  0  0  0  0  0  0
  146.5123  135.6241  154.2601 C   0  0  1  0  0  0  0  0  0  0  0  0
  147.6167  136.0706  155.2616 C   0  0  0  0  0  0  0  0  0  0  0  0
  147.1443  136.1220  156.6436 N   0  0  0  0  0  0  0  0  0  0  0  0
  147.5880  135.3540  157.6495 C   0  0  0  0  0  0  0  0  0  0  0  0
  148.4448  134.4826  157.5048 O   0  0  0  0  0  0  0  0  0  0  0  0
  146.9798  135.6800  158.8050 N   0  0  0  0  0  0  0  0  0  0  0  0
  147.1318  135.1176  160.0848 C   0  0  0  0  0  0  0  0  0  0  0  0
  147.0378  133.7929  160.3628 C   0  0  0  0  0  0  0  0  0  0  0  0
  147.2012  133.3045  161.7111 C   0  0  0  0  0  0  0  0  0  0  0  0
  147.4341  134.1927  162.6871 C   0  0  0  0  0  0  0  0  0  0  0  0
  147.5211  135.5703  162.4249 N   0  0  0  0  0  0  0  0  0  0  0  0
  147.7798  136.4605  163.5595 C   0  0  0  0  0  0  0  0  0  0  0  0
  147.3847  136.0885  161.1680 C   0  0  0  0  0  0  0  0  0  0  0  0
  147.4712  137.3021  160.9650 O   0  0  0  0  0  0  0  0  0  0  0  0
  146.0750  140.7646  153.3021 H   0  0  0  0  0  0  0  0  0  0  0  0
  147.6817  140.9968  152.6191 H   0  0  0  0  0  0  0  0  0  0  0  0
  147.5037  140.2689  154.2062 H   0  0  0  0  0  0  0  0  0  0  0  0
  148.0060  138.5273  152.5061 H   0  0  0  0  0  0  0  0  0  0  0  0
  145.4649  139.4405  151.0822 H   0  0  0  0  0  0  0  0  0  0  0  0
  146.4680  138.0672  150.6207 H   0  0  0  0  0  0  0  0  0  0  0  0
  147.1138  139.6987  150.5188 H   0  0  0  0  0  0  0  0  0  0  0  0
  146.2115  138.1923  154.4279 H   0  0  0  0  0  0  0  0  0  0  0  0
  145.0660  138.1384  153.1564 H   0  0  0  0  0  0  0  0  0  0  0  0
  144.5180  136.0474  152.3253 H   0  0  0  0  0  0  0  0  0  0  0  0
  145.6135  136.6942  151.1219 H   0  0  0  0  0  0  0  0  0  0  0  0
  145.2349  134.2769  150.7527 H   0  0  0  0  0  0  0  0  0  0  0  0
  146.9189  134.5893  151.1133 H   0  0  0  0  0  0  0  0  0  0  0  0
  144.8066  133.6222  153.1113 H   0  0  0  0  0  0  0  0  0  0  0  0
  146.0947  132.6482  152.4336 H   0  0  0  0  0  0  0  0  0  0  0  0
  146.6848  133.4849  154.6832 H   0  0  0  0  0  0  0  0  0  0  0  0
  147.8036  134.0593  153.4747 H   0  0  0  0  0  0  0  0  0  0  0  0
  145.5422  135.6675  154.7584 H   0  0  0  0  0  0  0  0  0  0  0  0
  148.4861  135.4173  155.1712 H   0  0  0  0  0  0  0  0  0  0  0  0
  147.9844  137.0725  155.0551 H   0  0  0  0  0  0  0  0  0  0  0  0
  146.4391  136.8130  156.8557 H   0  0  0  0  0  0  0  0  0  0  0  0
  146.3440  136.4638  158.7694 H   0  0  0  0  0  0  0  0  0  0  0  0
  146.8250  133.0630  159.5990 H   0  0  0  0  0  0  0  0  0  0  0  0
  147.1396  132.2483  161.9275 H   0  0  0  0  0  0  0  0  0  0  0  0
  147.5697  133.9064  163.7199 H   0  0  0  0  0  0  0  0  0  0  0  0
  147.0294  137.2509  163.6126 H   0  0  0  0  0  0  0  0  0  0  0  0
  148.7601  136.9283  163.4587 H   0  0  0  0  0  0  0  0  0  0  0  0
  147.7624  135.9381  164.5167 H   0  0  0  0  0  0  0  0  0  0  0  0
  147.3816  136.5335  152.6829 H   0  0  0  0  0  0  0  0  0  0  0  0
  1  2  1  0  0  0  0
  1 24  1  0  0  0  0
  1 25  1  0  0  0  0
  1 26  1  0  0  0  0
  2  3  1  0  0  0  0
  2  4  1  0  0  0  0
  2 27  1  0  0  0  0
  3 28  1  0  0  0  0
  3 29  1  0  0  0  0
  3 30  1  0  0  0  0
  4  5  1  0  0  0  0
  4 31  1  0  0  0  0
  4 32  1  0  0  0  0
  5 10  1  0  0  0  0
  5  6  1  0  0  0  0
  5 52  1  0  0  0  0
  6  7  1  0  0  0  0
  6 33  1  0  0  0  0
  6 34  1  0  0  0  0
  7  8  1  0  0  0  0
  7 35  1  0  0  0  0
  7 36  1  0  0  0  0
  8  9  1  0  0  0  0
  8 37  1  0  0  0  0
  8 38  1  0  0  0  0
  9 10  1  0  0  0  0
  9 39  1  0  0  0  0
  9 40  1  0  0  0  0
 10 11  1  0  0  0  0
 10 41  1  0  0  0  0
 11 12  1  0  0  0  0
 11 42  1  0  0  0  0
 11 43  1  0  0  0  0
 12 13  1  0  0  0  0
 12 44  1  0  0  0  0
 13 14  2  0  0  0  0
 13 15  1  0  0  0  0
 15 16  1  0  0  0  0
 15 45  1  0  0  0  0
 16 22  1  0  0  0  0
 16 17  2  0  0  0  0
 17 18  1  0  0  0  0
 17 46  1  0  0  0  0
 18 19  2  0  0  0  0
 18 47  1  0  0  0  0
 19 20  1  0  0  0  0
 19 48  1  0  0  0  0
 20 21  1  0  0  0  0
 20 22  1  0  0  0  0
 21 49  1  0  0  0  0
 21 50  1  0  0  0  0
 21 51  1  0  0  0  0
 22 23  2  0  0  0  0
M  CHG  1   5   1
M  END
> <s_m_source_file>
AV-unprocessed.smi

> <i_m_source_file_index>
2799

> <i_lp_mmshare_version>
43012

> <i_f3d_flags>
0

> <s_epik_input>
W0NIM11bQ0hdKFtDSDNdKVtDSDJdTjFbQ0gyXVtDSDJdW0NIMl1bQ0gyXVtDQEhdMVtDSDJdW05IXUMoPU8pW05IXWMyW2NIXVtjSF1bY0hdbihbQ0gzXSljMj1P

> <s_epik_cmdline>
J2VwaWtfcHl0aG9uJywgJy1waCcsICc3LjAnLCAnLXRuJywgJzgnLCAnLW1hJywgJzIwMCcsICctbWV0YWxfYmluZGluZycsICctaW1hZScsICc8aW5maWxlLm1hZT4nLCAnLW9tYWUnLCAnPG91dGZpbGUubWFlPic=

> <r_lp_tautomer_probability>
1

> <r_epik_Ionization_Penalty>
0.0010885

> <r_epik_Ionization_Penalty_Charging>
0.00106921

> <r_epik_Ionization_Penalty_Neutral>
1.92865e-05

> <r_epik_State_Penalty>
0.000697184

> <r_epik_Charging_Adjusted_Penalty>
0.0017664

> <i_epik_Tot_Q>
1

> <i_epik_Tot_abs_Q>
1

> <r_epik_Metal_State_Penalty>
-0

> <b_epik_Metal_Only>
0

> <s_lp_Force_Field>
OPLS_2005

> <r_lp_Energy>
37.4199

> <b_lp_Chiralities_Consistent>
1

> <s_lp_Variant>
AV-unprocessed.smi:2799-1

> <Gold.Version>
5.8.1

> <Gold.Id.Protein>
6NUR|6NUR_protein|mol2

> <Gold.PLP.Fitness>
44.6547

> <Gold.PLP.PLP>
-36.7571

> <Gold.PLP.part.hbond>
-3.0000

> <Gold.PLP.part.metal>
0.0000

> <Gold.PLP.part.buried>
0.4344

> <Gold.PLP.part.nonpolar>
-34.1547

> <Gold.PLP.part.repulsive>
0.0132

> <Gold.PLP.ligand.clash>
0.0000

> <Gold.PLP.ligand.torsion>
1.8254

> <Gold.PLP.Chemscore.Hbond>
3.7920

> <Gold.PLP.Chemscore.CHOScore>
0.0000

> <Gold.PLP.Chemscore.Metal>
0.0000

> <Gold.Chemscore.Hbonds>
donor molecule, donor type, donor heavy atom, donor atom, acceptor molecule, acceptor atom, score
      L1  H     5    52       P1  7948  2.00
      P1  H  6931  6943       L1    23  0.74
      P1  H  6934  6947       L1    23  1.00

> <Gold.PLP.Chemscore.Internal.Correction>
0.1725

> <Gold.Rescore>
     Score         DG    S(hbond)    S(metal)    S(lipo)     H(rot)  DE(clash)    DE(int)     intcor
     18.38     -20.86       2.74        0.00      87.47       1.57       0.81       1.67       ----

> <Gold.Chemscore.Fitness>
18.3796

> <Gold.Chemscore.DG>
-20.8596

> <Gold.Chemscore.ZeroCoef>
-5.4800

> <Gold.Chemscore.Hbond>
2.7429

> <Gold.Chemscore.Metal>
0.0000

> <Gold.Chemscore.Lipo>
87.4725

> <Gold.Chemscore.Internal_Hbond>
0.0000

> <Gold.Chemscore.DEClash>
0.8075

> <Gold.Chemscore.DEInternal>
1.6725

> <Gold.Chemscore.Rot>
1.5688

> <Gold.Chemscore.Internal.Correction>
   9.000000E+99

> <Gold.Chemscore.Hbonds>
donor molecule, donor type, donor heavy atom, donor atom, acceptor molecule, acceptor atom, score
      L1  H     5    52       P1  7948  1.00
      P1  H  6931  6943       L1    23  0.66
      P1  H  6934  6947       L1    23  0.95

> <Gold.Chemscore.Hbond.Weighted>
-9.1614

> <Gold.Chemscore.Metal.Weighted>
-0.0000

> <Gold.Chemscore.Lipo.Weighted>
-10.2343

> <Gold.Chemscore.Internal_Hbond.Weighted>
0.0000

> <Gold.Chemscore.DEClash.Weighted>
0.8075

> <Gold.Chemscore.DEInternal.Weighted>
1.6725

> <Gold.Chemscore.Rot.Weighted>
4.0161

> <Gold.Chemscore.Internal.Correction.Weighted>
   9.000000E+99

> <Gold.Protein.RotatedTorsions>
[ 6907 6896 6895 6894 ] final   52.20 input  -60.11 | X-H torsion
[ 7974 7965 7964 7962 ] final -154.77 input  175.53 | X-H torsion
[ 8008 7997 7996 7995 ] final -142.14 input   59.86 | X-H torsion
[ 10167 10162 10161 10158 ] final -123.11 input  -65.29 | X-H torsion
[ 10718 10713 10712 10709 ] final  139.45 input   66.30 | X-H torsion
[ 10763 10752 10751 10750 ] final   92.22 input  -60.55 | X-H torsion
[ 11005 11000 10999 10996 ] final -117.77 input  -57.11 | X-H torsion

> <Gold.Protein.ActiveResidues>
 VAL166  LYS551  ARG553  GLY616  TRP617  ASP618  TYR619  PRO620  LYS621  CYS622 
 ASP623  PHE694  ASN695  SER759  ASP760  ASP761  ALA762  ILE779  LEU786  VAL792 
 PHE793  MET794  SER795  GLU796  ALA797  LYS798  CYS799  TRP800  GLU811  SER814 

> <Gold.Protein.RotatedAtoms>
  152.3208  134.7383  160.0313 H   0  0  0  0  0  0  0  0  0  0  0  0  # atno 6907 bound_to 6896
  151.7832  133.3346  159.3485 H   0  0  0  0  0  0  0  0  0  0  0  0  # atno 6908 bound_to 6896
  150.7369  134.5843  159.5999 H   0  0  0  0  0  0  0  0  0  0  0  0  # atno 6909 bound_to 6896
  144.7672  140.4341  143.5933 H   0  0  0  0  0  0  0  0  0  0  0  0  # atno 7974 bound_to 7965
  155.4894  140.0566  157.2956 H   0  0  0  0  0  0  0  0  0  0  0  0  # atno 8008 bound_to 7997
  154.4629  140.2005  156.0147 H   0  0  0  0  0  0  0  0  0  0  0  0  # atno 8009 bound_to 7997
  156.0923  140.3231  155.7836 H   0  0  0  0  0  0  0  0  0  0  0  0  # atno 8010 bound_to 7997
  140.0070  143.5481  152.2279 H   0  0  0  0  0  0  0  0  0  0  0  0  # atno 10167 bound_to 10162
  157.4143  131.1031  151.0421 H   0  0  0  0  0  0  0  0  0  0  0  0  # atno 10718 bound_to 10713
  153.2168  135.4369  155.0443 H   0  0  0  0  0  0  0  0  0  0  0  0  # atno 10763 bound_to 10752
  154.8229  135.3346  154.6987 H   0  0  0  0  0  0  0  0  0  0  0  0  # atno 10764 bound_to 10752
  153.7421  135.7004  153.5020 H   0  0  0  0  0  0  0  0  0  0  0  0  # atno 10765 bound_to 10752
  141.0332  133.9949  157.3111 H   0  0  0  0  0  0  0  0  0  0  0  0  # atno 11005 bound_to 11000
  145.6432  139.1553  143.2904 LP  0  0  0  0  0  0  0  0  0  0  0  0  # atno 17320 bound_to 7965
  146.1790  140.6527  142.9198 LP  0  0  0  0  0  0  0  0  0  0  0  0  # atno 17321 bound_to 7965
  139.6231  144.7632  151.2697 LP  0  0  0  0  0  0  0  0  0  0  0  0  # atno 17342 bound_to 10162
  140.7396  143.6612  150.8162 LP  0  0  0  0  0  0  0  0  0  0  0  0  # atno 17343 bound_to 10162
  157.1375  130.6128  149.5546 LP  0  0  0  0  0  0  0  0  0  0  0  0  # atno 17370 bound_to 10713
  155.9860  130.4893  150.7059 LP  0  0  0  0  0  0  0  0  0  0  0  0  # atno 17371 bound_to 10713
  139.9222  135.0201  156.8106 LP  0  0  0  0  0  0  0  0  0  0  0  0  # atno 17394 bound_to 11000
  140.6369  133.9854  155.7689 LP  0  0  0  0  0  0  0  0  0  0  0  0  # atno 17395 bound_to 11000

$$$$
