AV-unprocessed.smi:2883|AV-procd|sdf|11081|dock1
  -GOLD-   2272015553D 1   1.00000     0.00000
 Structure written by MMmdl.
 39 41  0  0  0  0  0  0  0  0  1 V2000
  153.1557  143.0604  160.4038 C   0  0  0  0  0  0  0  0  0  0  0  0
  152.0796  143.6578  159.4790 C   0  0  0  0  0  0  0  0  0  0  0  0
  150.9844  144.3423  160.3309 C   0  0  0  0  0  0  0  0  0  0  0  0
  152.7065  144.7738  158.6105 C   0  0  0  0  0  0  0  0  0  0  0  0
  151.4799  142.5436  158.6046 C   0  0  0  0  0  0  0  0  0  0  0  0
  151.8373  141.2831  158.8842 N   0  0  0  0  0  0  0  0  0  0  0  0
  151.2174  140.2941  158.2062 C   0  0  0  0  0  0  0  0  0  0  0  0
  150.2075  140.5618  157.2618 C   0  0  0  0  0  0  0  0  0  0  0  0
  149.8744  141.9168  157.0675 C   0  0  0  0  0  0  0  0  0  0  0  0
  148.8690  142.2549  156.1514 N   0  0  0  0  0  0  0  0  0  0  0  0
  148.1388  141.2194  155.4261 C   0  0  2  0  0  0  0  0  0  0  0  0
  148.2169  141.3825  153.9063 C   0  0  0  0  0  0  0  0  0  0  0  0
  146.7335  141.3667  153.5110 C   0  0  2  0  0  0  0  0  0  0  0  0
  146.0413  142.6877  153.8698 C   0  0  0  0  0  0  0  0  0  0  0  0
  145.9497  142.5862  155.3911 C   0  0  0  0  0  0  0  0  0  0  0  0
  146.6145  141.2254  155.6606 C   0  0  1  0  0  0  0  0  0  0  0  0
  146.1949  140.5142  154.5081 O   0  0  0  0  0  0  0  0  0  0  0  0
  150.5037  142.8953  157.7579 N   0  0  0  0  0  0  0  0  0  0  0  0
  153.6034  143.8247  161.0398 H   0  0  0  0  0  0  0  0  0  0  0  0
  153.9592  142.5984  159.8292 H   0  0  0  0  0  0  0  0  0  0  0  0
  152.7358  142.2940  161.0563 H   0  0  0  0  0  0  0  0  0  0  0  0
  150.5231  143.6508  161.0372 H   0  0  0  0  0  0  0  0  0  0  0  0
  150.1909  144.7512  159.7039 H   0  0  0  0  0  0  0  0  0  0  0  0
  151.3938  145.1646  160.9186 H   0  0  0  0  0  0  0  0  0  0  0  0
  153.0914  145.5868  159.2271 H   0  0  0  0  0  0  0  0  0  0  0  0
  151.9750  145.2018  157.9240 H   0  0  0  0  0  0  0  0  0  0  0  0
  153.5441  144.4075  158.0157 H   0  0  0  0  0  0  0  0  0  0  0  0
  151.5245  139.2817  158.4231 H   0  0  0  0  0  0  0  0  0  0  0  0
  149.7140  139.7664  156.7231 H   0  0  0  0  0  0  0  0  0  0  0  0
  148.4969  143.1933  156.1531 H   0  0  0  0  0  0  0  0  0  0  0  0
  148.5433  140.2411  155.6903 H   0  0  0  0  0  0  0  0  0  0  0  0
  148.7142  142.2991  153.5860 H   0  0  0  0  0  0  0  0  0  0  0  0
  148.7469  140.5388  153.4633 H   0  0  0  0  0  0  0  0  0  0  0  0
  146.5509  141.0359  152.4883 H   0  0  0  0  0  0  0  0  0  0  0  0
  146.6072  143.5579  153.5360 H   0  0  0  0  0  0  0  0  0  0  0  0
  145.0451  142.7373  153.4290 H   0  0  0  0  0  0  0  0  0  0  0  0
  146.4414  143.4126  155.9046 H   0  0  0  0  0  0  0  0  0  0  0  0
  144.9058  142.5701  155.7064 H   0  0  0  0  0  0  0  0  0  0  0  0
  146.3081  140.7647  156.6002 H   0  0  0  0  0  0  0  0  0  0  0  0
  1  2  1  0  0  0  0
  1 19  1  0  0  0  0
  1 20  1  0  0  0  0
  1 21  1  0  0  0  0
  2  3  1  0  0  0  0
  2  4  1  0  0  0  0
  2  5  1  0  0  0  0
  3 22  1  0  0  0  0
  3 23  1  0  0  0  0
  3 24  1  0  0  0  0
  4 25  1  0  0  0  0
  4 26  1  0  0  0  0
  4 27  1  0  0  0  0
  5 18  1  0  0  0  0
  5  6  2  0  0  0  0
  6  7  1  0  0  0  0
  7  8  2  0  0  0  0
  7 28  1  0  0  0  0
  8  9  1  0  0  0  0
  8 29  1  0  0  0  0
  9 10  1  0  0  0  0
  9 18  2  0  0  0  0
 10 11  1  0  0  0  0
 10 30  1  0  0  0  0
 11 16  1  0  0  0  0
 11 12  1  0  0  0  0
 11 31  1  0  0  0  0
 12 13  1  0  0  0  0
 12 32  1  0  0  0  0
 12 33  1  0  0  0  0
 13 17  1  0  0  0  0
 13 14  1  0  0  0  0
 13 34  1  0  0  0  0
 14 15  1  0  0  0  0
 14 35  1  0  0  0  0
 14 36  1  0  0  0  0
 15 16  1  0  0  0  0
 15 37  1  0  0  0  0
 15 38  1  0  0  0  0
 16 17  1  0  0  0  0
 16 39  1  0  0  0  0
M  END
> <s_m_source_file>
AV-unprocessed.smi

> <i_m_source_file_index>
2883

> <i_lp_mmshare_version>
43012

> <i_f3d_flags>
0

> <s_epik_input>
W0NIM11DKFtDSDNdKShbQ0gzXSljMW5bY0hdW2NIXWMobjEpW05IXVtDQEhdKFtDSDJdW0NAQEhdMjMpW0NAQEhdKE8zKVtDSDJdW0NIMl0y

> <s_epik_cmdline>
J2VwaWtfcHl0aG9uJywgJy1waCcsICc3LjAnLCAnLXRuJywgJzgnLCAnLW1hJywgJzIwMCcsICctbWV0YWxfYmluZGluZycsICctaW1hZScsICc8aW5maWxlLm1hZT4nLCAnLW9tYWUnLCAnPG91dGZpbGUubWFlPic=

> <r_lp_tautomer_probability>
1

> <r_epik_Ionization_Penalty>
0.453006

> <r_epik_Ionization_Penalty_Charging>
0

> <r_epik_Ionization_Penalty_Neutral>
0.453006

> <r_epik_State_Penalty>
0.455155

> <r_epik_Charging_Adjusted_Penalty>
0.455155

> <i_epik_Tot_Q>
0

> <i_epik_Tot_abs_Q>
0

> <r_epik_Metal_State_Penalty>
0.255592

> <b_epik_Metal_Only>
0

> <s_lp_Force_Field>
OPLS_2005

> <r_lp_Energy>
33.5757

> <b_lp_Chiralities_Consistent>
1

> <s_lp_Variant>
AV-unprocessed.smi:2883-7

> <Gold.Version>
5.8.1

> <Gold.Id.Protein>
6NUR|6NUR_protein|mol2

> <Gold.PLP.Fitness>
39.4342

> <Gold.PLP.PLP>
-36.5200

> <Gold.PLP.part.hbond>
-0.7727

> <Gold.PLP.part.metal>
0.0000

> <Gold.PLP.part.buried>
-5.7522

> <Gold.PLP.part.nonpolar>
-29.4329

> <Gold.PLP.part.repulsive>
0.3534

> <Gold.PLP.ligand.clash>
0.0000

> <Gold.PLP.ligand.torsion>
0.1048

> <Gold.PLP.Chemscore.Hbond>
0.9920

> <Gold.PLP.Chemscore.CHOScore>
0.0000

> <Gold.PLP.Chemscore.Metal>
0.0000

> <Gold.Chemscore.Hbonds>
donor molecule, donor type, donor heavy atom, donor atom, acceptor molecule, acceptor atom, score
      L1  H    10    30       P1  8028  0.83

> <Gold.PLP.Chemscore.Internal.Correction>
0.1478

> <Gold.Rescore>
     Score         DG    S(hbond)    S(metal)    S(lipo)     H(rot)  DE(clash)    DE(int)     intcor
     16.25     -16.58       0.95        0.00      92.86       1.15       0.10       0.23       ----

> <Gold.Chemscore.Fitness>
16.2530

> <Gold.Chemscore.DG>
-16.5842

> <Gold.Chemscore.ZeroCoef>
-5.4800

> <Gold.Chemscore.Hbond>
0.9519

> <Gold.Chemscore.Metal>
0.0000

> <Gold.Chemscore.Lipo>
92.8561

> <Gold.Chemscore.Internal_Hbond>
0.0000

> <Gold.Chemscore.DEClash>
0.0999

> <Gold.Chemscore.DEInternal>
0.2313

> <Gold.Chemscore.Rot>
1.1482

> <Gold.Chemscore.Internal.Correction>
   9.000000E+99

> <Gold.Chemscore.Hbonds>
donor molecule, donor type, donor heavy atom, donor atom, acceptor molecule, acceptor atom, score
      L1  H    10    30       P1  8028  0.75

> <Gold.Chemscore.Hbond.Weighted>
-3.1793

> <Gold.Chemscore.Metal.Weighted>
-0.0000

> <Gold.Chemscore.Lipo.Weighted>
-10.8642

> <Gold.Chemscore.Internal_Hbond.Weighted>
0.0000

> <Gold.Chemscore.DEClash.Weighted>
0.0999

> <Gold.Chemscore.DEInternal.Weighted>
0.2313

> <Gold.Chemscore.Rot.Weighted>
2.9393

> <Gold.Chemscore.Internal.Correction.Weighted>
   9.000000E+99

> <Gold.Protein.RotatedTorsions>
[ 6907 6896 6895 6894 ] final  158.62 input  -60.11 | X-H torsion
[ 7974 7965 7964 7962 ] final   72.15 input  175.53 | X-H torsion
[ 8008 7997 7996 7995 ] final   68.94 input   59.86 | X-H torsion
[ 10167 10162 10161 10158 ] final  155.64 input  -65.29 | X-H torsion
[ 10718 10713 10712 10709 ] final  -83.09 input   66.30 | X-H torsion
[ 10763 10752 10751 10750 ] final -178.30 input  -60.55 | X-H torsion
[ 11005 11000 10999 10996 ] final  149.43 input  -57.11 | X-H torsion

> <Gold.Protein.ActiveResidues>
 VAL166  LYS551  ARG553  GLY616  TRP617  ASP618  TYR619  PRO620  LYS621  CYS622 
 ASP623  PHE694  ASN695  SER759  ASP760  ASP761  ALA762  ILE779  LEU786  VAL792 
 PHE793  MET794  SER795  GLU796  ALA797  LYS798  CYS799  TRP800  GLU811  SER814 

> <Gold.Protein.RotatedAtoms>
  151.9977  133.3814  159.4169 H   0  0  0  0  0  0  0  0  0  0  0  0  # atno 6907 bound_to 6896
  150.6914  134.3868  159.5068 H   0  0  0  0  0  0  0  0  0  0  0  0  # atno 6908 bound_to 6896
  152.1610  134.8911  160.0592 H   0  0  0  0  0  0  0  0  0  0  0  0  # atno 6909 bound_to 6896
  145.7569  139.2784  143.1399 H   0  0  0  0  0  0  0  0  0  0  0  0  # atno 7974 bound_to 7965
  155.7159  140.3494  155.4994 H   0  0  0  0  0  0  0  0  0  0  0  0  # atno 8008 bound_to 7997
  155.9313  140.1085  157.1152 H   0  0  0  0  0  0  0  0  0  0  0  0  # atno 8009 bound_to 7997
  154.4086  140.1230  156.4793 H   0  0  0  0  0  0  0  0  0  0  0  0  # atno 8010 bound_to 7997
  139.4821  144.5080  151.8068 H   0  0  0  0  0  0  0  0  0  0  0  0  # atno 10167 bound_to 10162
  156.0023  130.4654  150.4204 H   0  0  0  0  0  0  0  0  0  0  0  0  # atno 10718 bound_to 10713
  154.5494  135.2812  155.1022 H   0  0  0  0  0  0  0  0  0  0  0  0  # atno 10763 bound_to 10752
  154.2474  135.6346  153.5232 H   0  0  0  0  0  0  0  0  0  0  0  0  # atno 10764 bound_to 10752
  152.9999  135.5574  154.6056 H   0  0  0  0  0  0  0  0  0  0  0  0  # atno 10765 bound_to 10752
  140.1044  134.8963  157.1844 H   0  0  0  0  0  0  0  0  0  0  0  0  # atno 11005 bound_to 11000
  146.0302  140.8265  142.9880 LP  0  0  0  0  0  0  0  0  0  0  0  0  # atno 17320 bound_to 7965
  144.6838  140.2757  143.7299 LP  0  0  0  0  0  0  0  0  0  0  0  0  # atno 17321 bound_to 7965
  140.4580  144.1762  150.5903 LP  0  0  0  0  0  0  0  0  0  0  0  0  # atno 17342 bound_to 10162
  140.4515  143.2485  151.9342 LP  0  0  0  0  0  0  0  0  0  0  0  0  # atno 17343 bound_to 10162
  157.2261  131.0493  151.2519 LP  0  0  0  0  0  0  0  0  0  0  0  0  # atno 17370 bound_to 10713
  157.3755  130.7204  149.6594 LP  0  0  0  0  0  0  0  0  0  0  0  0  # atno 17371 bound_to 10713
  140.3176  134.2953  155.7253 LP  0  0  0  0  0  0  0  0  0  0  0  0  # atno 17394 bound_to 11000
  141.2114  133.7689  156.9865 LP  0  0  0  0  0  0  0  0  0  0  0  0  # atno 17395 bound_to 11000

$$$$
