AV-unprocessed.smi:1810|AV-procd|sdf|7333|dock6
  -GOLD-   22720 8593D 1   1.00000     0.00000
 Structure written by MMmdl.
 40 41  0  0  0  0  0  0  0  0  1 V2000
  151.4940  144.9522  160.2965 C   0  0  0  0  0  0  0  0  0  0  0  0
  151.8070  143.5847  159.7512 C   0  0  0  0  0  0  0  0  0  0  0  0
  151.3738  143.3201  158.5624 N   0  0  0  0  0  0  0  0  0  0  0  0
  151.6072  142.0957  157.9681 N   0  0  0  0  0  0  0  0  0  0  0  0
  151.0327  141.9645  156.6248 C   0  0  0  0  0  0  0  0  0  0  0  0
  149.6905  141.2175  156.6557 C   0  0  0  0  0  0  0  0  0  0  0  0
  148.9572  141.5521  155.4854 O   0  0  0  0  0  0  0  0  0  0  0  0
  148.2439  140.5547  154.8553 C   0  0  0  0  0  0  0  0  0  0  0  0
  148.0898  139.2404  155.3666 C   0  0  0  0  0  0  0  0  0  0  0  0
  147.3442  138.2807  154.6548 C   0  0  0  0  0  0  0  0  0  0  0  0
  146.7465  138.6279  153.4286 C   0  0  0  0  0  0  0  0  0  0  0  0
  145.8034  137.3985  152.5352 S   0  0  0  0  0  0  0  0  0  0  0  0
  144.2224  138.0767  152.5543 N   0  0  0  0  0  0  0  0  0  0  0  0
  146.2630  137.3874  151.1379 O   0  0  0  0  0  0  0  0  0  0  0  0
  145.7632  136.1574  153.3240 O   0  0  0  0  0  0  0  0  0  0  0  0
  146.8901  139.9284  152.9084 C   0  0  0  0  0  0  0  0  0  0  0  0
  147.6377  140.8833  153.6241 C   0  0  0  0  0  0  0  0  0  0  0  0
  152.2920  141.0688  158.5471 C   0  0  0  0  0  0  0  0  0  0  0  0
  152.4722  139.9898  157.9807 O   0  0  0  0  0  0  0  0  0  0  0  0
  152.7796  141.3748  159.8941 C   0  0  0  0  0  0  0  0  0  0  0  0
  153.5015  140.3252  160.5381 C   0  0  0  0  0  0  0  0  0  0  0  0
  154.0870  139.4852  161.0781 N   0  0  0  0  0  0  0  0  0  0  0  0
  152.5577  142.5737  160.4889 C   0  0  0  0  0  0  0  0  0  0  0  0
  153.0419  142.9414  161.8850 C   0  0  0  0  0  0  0  0  0  0  0  0
  152.4098  145.4930  160.5358 H   0  0  0  0  0  0  0  0  0  0  0  0
  150.8965  144.8787  161.2052 H   0  0  0  0  0  0  0  0  0  0  0  0
  150.9328  145.5565  159.5820 H   0  0  0  0  0  0  0  0  0  0  0  0
  150.8851  142.9528  156.1854 H   0  0  0  0  0  0  0  0  0  0  0  0
  151.7310  141.4532  155.9598 H   0  0  0  0  0  0  0  0  0  0  0  0
  149.8631  140.1409  156.6954 H   0  0  0  0  0  0  0  0  0  0  0  0
  149.1287  141.5069  157.5452 H   0  0  0  0  0  0  0  0  0  0  0  0
  148.5349  138.9419  156.3034 H   0  0  0  0  0  0  0  0  0  0  0  0
  147.2333  137.2821  155.0512 H   0  0  0  0  0  0  0  0  0  0  0  0
  143.7524  137.9866  151.6539 H   0  0  0  0  0  0  0  0  0  0  0  0
  144.2149  139.0285  152.9199 H   0  0  0  0  0  0  0  0  0  0  0  0
  146.4344  140.1999  151.9678 H   0  0  0  0  0  0  0  0  0  0  0  0
  147.7472  141.8806  153.2238 H   0  0  0  0  0  0  0  0  0  0  0  0
  153.5834  142.1255  162.3630 H   0  0  0  0  0  0  0  0  0  0  0  0
  152.1988  143.1951  162.5285 H   0  0  0  0  0  0  0  0  0  0  0  0
  153.7139  143.7992  161.8427 H   0  0  0  0  0  0  0  0  0  0  0  0
  1  2  1  0  0  0  0
  1 25  1  0  0  0  0
  1 26  1  0  0  0  0
  1 27  1  0  0  0  0
  2 23  1  0  0  0  0
  2  3  2  0  0  0  0
  3  4  1  0  0  0  0
  4  5  1  0  0  0  0
  4 18  1  0  0  0  0
  5  6  1  0  0  0  0
  5 28  1  0  0  0  0
  5 29  1  0  0  0  0
  6  7  1  0  0  0  0
  6 30  1  0  0  0  0
  6 31  1  0  0  0  0
  7  8  1  0  0  0  0
  8 17  1  0  0  0  0
  8  9  2  0  0  0  0
  9 10  1  0  0  0  0
  9 32  1  0  0  0  0
 10 11  2  0  0  0  0
 10 33  1  0  0  0  0
 11 12  1  0  0  0  0
 11 16  1  0  0  0  0
 12 13  1  0  0  0  0
 12 14  2  0  0  0  0
 12 15  2  0  0  0  0
 13 34  1  0  0  0  0
 13 35  1  0  0  0  0
 16 17  2  0  0  0  0
 16 36  1  0  0  0  0
 17 37  1  0  0  0  0
 18 19  2  0  0  0  0
 18 20  1  0  0  0  0
 20 21  1  0  0  0  0
 20 23  2  0  0  0  0
 21 22  3  0  0  0  0
 23 24  1  0  0  0  0
 24 38  1  0  0  0  0
 24 39  1  0  0  0  0
 24 40  1  0  0  0  0
M  END
> <s_m_source_file>
AV-unprocessed.smi

> <i_m_source_file_index>
1810

> <i_lp_mmshare_version>
43012

> <i_f3d_flags>
0

> <s_epik_input>
TiNDYyhjMVtDSDNdKWMoPU8pbihuYzFbQ0gzXSlbQ0gyXVtDSDJdT2MyW2NIXVtjSF1jKFMoPU8pKD1PKVtOSDJdKVtjSF1bY0hdMg==

> <s_epik_cmdline>
J2VwaWtfcHl0aG9uJywgJy1waCcsICc3LjAnLCAnLXRuJywgJzgnLCAnLW1hJywgJzIwMCcsICctbWV0YWxfYmluZGluZycsICctaW1hZScsICc8aW5maWxlLm1hZT4nLCAnLW9tYWUnLCAnPG91dGZpbGUubWFlPic=

> <r_lp_tautomer_probability>
1

> <r_epik_Ionization_Penalty>
0.000347403

> <r_epik_Ionization_Penalty_Charging>
5.27838e-11

> <r_epik_Ionization_Penalty_Neutral>
0.000347403

> <r_epik_State_Penalty>
0.00021091

> <r_epik_Charging_Adjusted_Penalty>
0.000210911

> <i_epik_Tot_Q>
0

> <i_epik_Tot_abs_Q>
0

> <r_epik_Metal_State_Penalty>
0.18648

> <b_epik_Metal_Only>
0

> <s_lp_Force_Field>
OPLS_2005

> <r_lp_Energy>
32.1268

> <b_lp_Chiralities_Consistent>
1

> <s_lp_Variant>
AV-unprocessed.smi:1810-1

> <Gold.Version>
5.8.1

> <Gold.Id.Protein>
6NUR|6NUR_protein|mol2

> <Gold.PLP.Fitness>
52.6268

> <Gold.PLP.PLP>
-43.0129

> <Gold.PLP.part.hbond>
-3.7588

> <Gold.PLP.part.metal>
0.0000

> <Gold.PLP.part.buried>
-6.5873

> <Gold.PLP.part.nonpolar>
-35.3979

> <Gold.PLP.part.repulsive>
4.0226

> <Gold.PLP.ligand.clash>
0.0000

> <Gold.PLP.ligand.torsion>
1.7656

> <Gold.PLP.Chemscore.Hbond>
3.7190

> <Gold.PLP.Chemscore.CHOScore>
0.0000

> <Gold.PLP.Chemscore.Metal>
0.0000

> <Gold.Chemscore.Hbonds>
donor molecule, donor type, donor heavy atom, donor atom, acceptor molecule, acceptor atom, score
      L1  H    13    34       P1 10171  0.85
      L1  H    13    35       P1 10175  0.74
      P1  H  7954  7966       L1    14  0.28
      P1  H  7997  8010       L1    19  0.36

> <Gold.PLP.Chemscore.Internal.Correction>
1.9881

> <Gold.Rescore>
     Score         DG    S(hbond)    S(metal)    S(lipo)     H(rot)  DE(clash)    DE(int)     intcor
     18.89     -24.35       3.68        0.00      99.88       1.99       3.70       1.76       ----

> <Gold.Chemscore.Fitness>
18.8900

> <Gold.Chemscore.DG>
-24.3470

> <Gold.Chemscore.ZeroCoef>
-5.4800

> <Gold.Chemscore.Hbond>
3.6772

> <Gold.Chemscore.Metal>
0.0000

> <Gold.Chemscore.Lipo>
99.8779

> <Gold.Chemscore.Internal_Hbond>
0.0000

> <Gold.Chemscore.DEClash>
3.6985

> <Gold.Chemscore.DEInternal>
1.7584

> <Gold.Chemscore.Rot>
1.9925

> <Gold.Chemscore.Internal.Correction>
   9.000000E+99

> <Gold.Chemscore.Hbonds>
donor molecule, donor type, donor heavy atom, donor atom, acceptor molecule, acceptor atom, score
      L1  H    13    34       P1 10171  0.81
      L1  H    13    35       P1 10175  0.72
      P1  H  7954  7966       L1    14  0.29
      P1  H  7997  8010       L1    19  0.24

> <Gold.Chemscore.Hbond.Weighted>
-12.2820

> <Gold.Chemscore.Metal.Weighted>
-0.0000

> <Gold.Chemscore.Lipo.Weighted>
-11.6857

> <Gold.Chemscore.Internal_Hbond.Weighted>
0.0000

> <Gold.Chemscore.DEClash.Weighted>
3.6985

> <Gold.Chemscore.DEInternal.Weighted>
1.7584

> <Gold.Chemscore.Rot.Weighted>
5.1007

> <Gold.Chemscore.Internal.Correction.Weighted>
   9.000000E+99

> <Gold.Protein.RotatedTorsions>
[ 6907 6896 6895 6894 ] final   38.76 input  -60.11 | X-H torsion
[ 7974 7965 7964 7962 ] final   19.79 input  175.53 | X-H torsion
[ 8008 7997 7996 7995 ] final   45.46 input   59.86 | X-H torsion
[ 10167 10162 10161 10158 ] final   12.49 input  -65.29 | X-H torsion
[ 10718 10713 10712 10709 ] final   -0.33 input   66.30 | X-H torsion
[ 10763 10752 10751 10750 ] final    7.90 input  -60.55 | X-H torsion
[ 11005 11000 10999 10996 ] final  107.32 input  -57.11 | X-H torsion

> <Gold.Protein.ActiveResidues>
 VAL166  LYS551  ARG553  GLY616  TRP617  ASP618  TYR619  PRO620  LYS621  CYS622 
 ASP623  PHE694  ASN695  SER759  ASP760  ASP761  ALA762  ILE779  LEU786  VAL792 
 PHE793  MET794  SER795  GLU796  ALA797  LYS798  CYS799  TRP800  GLU811  SER814 

> <Gold.Protein.RotatedAtoms>
  152.1607  134.8914  160.0541 H   0  0  0  0  0  0  0  0  0  0  0  0  # atno 6907 bound_to 6896
  151.9911  133.3786  159.4153 H   0  0  0  0  0  0  0  0  0  0  0  0  # atno 6908 bound_to 6896
  150.6887  134.3858  159.5098 H   0  0  0  0  0  0  0  0  0  0  0  0  # atno 6909 bound_to 6896
  146.2136  139.8262  142.8669 H   0  0  0  0  0  0  0  0  0  0  0  0  # atno 7974 bound_to 7965
  155.3363  140.3405  155.4239 H   0  0  0  0  0  0  0  0  0  0  0  0  # atno 8008 bound_to 7997
  156.1836  140.1672  156.8264 H   0  0  0  0  0  0  0  0  0  0  0  0  # atno 8009 bound_to 7997
  154.5361  140.0735  156.8413 H   0  0  0  0  0  0  0  0  0  0  0  0  # atno 8010 bound_to 7997
  140.6064  143.8499  150.7018 H   0  0  0  0  0  0  0  0  0  0  0  0  # atno 10167 bound_to 10162
  156.8220  130.5459  149.5696 H   0  0  0  0  0  0  0  0  0  0  0  0  # atno 10718 bound_to 10713
  153.2311  135.6892  153.7889 H   0  0  0  0  0  0  0  0  0  0  0  0  # atno 10763 bound_to 10752
  153.7053  135.3291  155.3235 H   0  0  0  0  0  0  0  0  0  0  0  0  # atno 10764 bound_to 10752
  154.8314  135.4577  154.1196 H   0  0  0  0  0  0  0  0  0  0  0  0  # atno 10765 bound_to 10752
  139.8826  134.9397  156.5802 H   0  0  0  0  0  0  0  0  0  0  0  0  # atno 11005 bound_to 11000
  145.3045  141.0203  143.3590 LP  0  0  0  0  0  0  0  0  0  0  0  0  # atno 17320 bound_to 7965
  144.8982  139.4685  143.6645 LP  0  0  0  0  0  0  0  0  0  0  0  0  # atno 17321 bound_to 7965
  140.2057  143.3924  152.1757 LP  0  0  0  0  0  0  0  0  0  0  0  0  # atno 17342 bound_to 10162
  139.5328  144.7178  151.4996 LP  0  0  0  0  0  0  0  0  0  0  0  0  # atno 17343 bound_to 10162
  156.0983  130.5949  150.9851 LP  0  0  0  0  0  0  0  0  0  0  0  0  # atno 17370 bound_to 10713
  157.6452  131.0905  150.8168 LP  0  0  0  0  0  0  0  0  0  0  0  0  # atno 17371 bound_to 10713
  140.8033  133.8488  155.8745 LP  0  0  0  0  0  0  0  0  0  0  0  0  # atno 17394 bound_to 11000
  140.9573  134.1701  157.4681 LP  0  0  0  0  0  0  0  0  0  0  0  0  # atno 17395 bound_to 11000

$$$$
