AV-unprocessed.smi:1320|AV-procd|sdf|5461|dock5
  -GOLD-   22720 5 33D 1   1.00000     0.00000
 Structure written by MMmdl.
 37 38  0  0  0  0  0  0  0  0  2 V2000
  141.9256  136.3533  153.3691 O   0  0  0  0  0  0  0  0  0  0  0  0
  142.4059  137.4444  153.0681 C   0  0  0  0  0  0  0  0  0  0  0  0
  143.6300  137.5927  152.5318 N   0  0  0  0  0  0  0  0  0  0  0  0
  144.5561  136.5082  152.2156 C   0  0  0  0  0  0  0  0  0  0  0  0
  144.4389  136.0230  150.7570 C   0  0  0  0  0  0  0  0  0  0  0  0
  144.7167  134.5408  150.5758 C   0  0  0  0  0  0  0  0  0  0  0  0
  145.9586  133.9663  150.9218 C   0  0  0  0  0  0  0  0  0  0  0  0
  146.1665  132.5888  150.7016 C   0  0  0  0  0  0  0  0  0  0  0  0
  145.1299  131.8154  150.1393 C   0  0  0  0  0  0  0  0  0  0  0  0
  143.9096  132.4401  149.8115 C   0  0  0  0  0  0  0  0  0  0  0  0
  143.7486  133.7621  150.0390 N   0  3  0  0  0  0  0  0  0  0  0  0
  141.7347  138.5931  153.2633 N   0  0  0  0  0  0  0  0  0  0  0  0
  140.3930  138.7721  153.8236 C   0  0  0  0  0  0  0  0  0  0  0  0
  140.3005  138.1384  155.2250 C   0  0  0  0  0  0  0  0  0  0  0  0
  139.0068  137.3235  155.2361 C   0  0  0  0  0  0  0  0  0  0  0  0
  138.8340  136.8761  153.7887 C   0  0  0  0  0  0  0  0  0  0  0  0
  139.3186  138.0709  152.9666 C   0  0  0  0  0  0  0  0  0  0  0  0
  143.9343  138.5294  152.3082 H   0  0  0  0  0  0  0  0  0  0  0  0
  145.5837  136.8067  152.4296 H   0  0  0  0  0  0  0  0  0  0  0  0
  144.3376  135.6795  152.8891 H   0  0  0  0  0  0  0  0  0  0  0  0
  143.4363  136.2360  150.3841 H   0  0  0  0  0  0  0  0  0  0  0  0
  145.1213  136.5927  150.1243 H   0  0  0  0  0  0  0  0  0  0  0  0
  146.7464  134.5743  151.3422 H   0  0  0  0  0  0  0  0  0  0  0  0
  147.1113  132.1323  150.9570 H   0  0  0  0  0  0  0  0  0  0  0  0
  145.2706  130.7595  149.9598 H   0  0  0  0  0  0  0  0  0  0  0  0
  143.0650  131.9276  149.3745 H   0  0  0  0  0  0  0  0  0  0  0  0
  142.2037  139.4403  152.9764 H   0  0  0  0  0  0  0  0  0  0  0  0
  140.1604  139.8355  153.9034 H   0  0  0  0  0  0  0  0  0  0  0  0
  141.1415  137.4650  155.3994 H   0  0  0  0  0  0  0  0  0  0  0  0
  140.3183  138.8860  156.0185 H   0  0  0  0  0  0  0  0  0  0  0  0
  139.0442  136.4868  155.9341 H   0  0  0  0  0  0  0  0  0  0  0  0
  138.1714  137.9625  155.5255 H   0  0  0  0  0  0  0  0  0  0  0  0
  139.4709  136.0126  153.5932 H   0  0  0  0  0  0  0  0  0  0  0  0
  137.8072  136.5936  153.5547 H   0  0  0  0  0  0  0  0  0  0  0  0
  138.4860  138.7566  152.8044 H   0  0  0  0  0  0  0  0  0  0  0  0
  139.6761  137.7659  151.9820 H   0  0  0  0  0  0  0  0  0  0  0  0
  142.8597  134.1947  149.7872 H   0  0  0  0  0  0  0  0  0  0  0  0
  1  2  2  0  0  0  0
  2  3  1  0  0  0  0
  2 12  1  0  0  0  0
  3  4  1  0  0  0  0
  3 18  1  0  0  0  0
  4  5  1  0  0  0  0
  4 19  1  0  0  0  0
  4 20  1  0  0  0  0
  5  6  1  0  0  0  0
  5 21  1  0  0  0  0
  5 22  1  0  0  0  0
  6 11  1  0  0  0  0
  6  7  2  0  0  0  0
  7  8  1  0  0  0  0
  7 23  1  0  0  0  0
  8  9  2  0  0  0  0
  8 24  1  0  0  0  0
  9 10  1  0  0  0  0
  9 25  1  0  0  0  0
 10 11  2  0  0  0  0
 10 26  1  0  0  0  0
 11 37  1  0  0  0  0
 12 13  1  0  0  0  0
 12 27  1  0  0  0  0
 13 17  1  0  0  0  0
 13 14  1  0  0  0  0
 13 28  1  0  0  0  0
 14 15  1  0  0  0  0
 14 29  1  0  0  0  0
 14 30  1  0  0  0  0
 15 16  1  0  0  0  0
 15 31  1  0  0  0  0
 15 32  1  0  0  0  0
 16 17  1  0  0  0  0
 16 33  1  0  0  0  0
 16 34  1  0  0  0  0
 17 35  1  0  0  0  0
 17 36  1  0  0  0  0
M  CHG  1  11   1
M  END
> <s_m_source_file>
AV-unprocessed.smi

> <i_m_source_file_index>
1320

> <i_lp_mmshare_version>
43012

> <i_f3d_flags>
0

> <s_epik_input>
W0NIMl0xW0NIMl1bQ0gyXVtDSDJdW0NIXTFbTkhdQyg9TylbTkhdW0NIMl1bQ0gyXWMyW2NIXVtjSF1bY0hdW2NIXW4y

> <s_epik_cmdline>
J2VwaWtfcHl0aG9uJywgJy1waCcsICc3LjAnLCAnLXRuJywgJzgnLCAnLW1hJywgJzIwMCcsICctbWV0YWxfYmluZGluZycsICctaW1hZScsICc8aW5maWxlLm1hZT4nLCAnLW9tYWUnLCAnPG91dGZpbGUubWFlPic=

> <r_epik_Ionization_Penalty>
1.56194

> <r_epik_Ionization_Penalty_Charging>
1.56188

> <r_epik_Ionization_Penalty_Neutral>
5.76468e-05

> <r_epik_State_Penalty>
1.65696

> <r_epik_Charging_Adjusted_Penalty>
3.21884

> <i_epik_Tot_Q>
1

> <i_epik_Tot_abs_Q>
1

> <r_epik_Metal_State_Penalty>
1.69837

> <b_epik_Metal_Only>
0

> <s_lp_Force_Field>
OPLS_2005

> <r_lp_Energy>
32.6171

> <b_lp_Chiralities_Consistent>
1

> <s_lp_Variant>
AV-unprocessed.smi:1320-2

> <Gold.Version>
5.8.1

> <Gold.Id.Protein>
6NUR|6NUR_protein|mol2

> <Gold.PLP.Fitness>
46.7731

> <Gold.PLP.PLP>
-35.6389

> <Gold.PLP.part.hbond>
-4.1640

> <Gold.PLP.part.metal>
0.0000

> <Gold.PLP.part.buried>
-4.0562

> <Gold.PLP.part.nonpolar>
-28.3842

> <Gold.PLP.part.repulsive>
0.2314

> <Gold.PLP.ligand.clash>
0.0000

> <Gold.PLP.ligand.torsion>
0.4032

> <Gold.PLP.Chemscore.Hbond>
3.9760

> <Gold.PLP.Chemscore.CHOScore>
0.0000

> <Gold.PLP.Chemscore.Metal>
0.0000

> <Gold.Chemscore.Hbonds>
donor molecule, donor type, donor heavy atom, donor atom, acceptor molecule, acceptor atom, score
      L1  H     3    18       P1 10175  0.98
      L1  H    11    37       P1 10186  2.00
      L1  H    12    27       P1 10175  1.00

> <Gold.PLP.Chemscore.Internal.Correction>
0.0125

> <Gold.Rescore>
     Score         DG    S(hbond)    S(metal)    S(lipo)     H(rot)  DE(clash)    DE(int)     intcor
     19.70     -21.19       2.81        0.00      88.93       1.59       0.49       1.01       ----

> <Gold.Chemscore.Fitness>
19.6986

> <Gold.Chemscore.DG>
-21.1935

> <Gold.Chemscore.ZeroCoef>
-5.4800

> <Gold.Chemscore.Hbond>
2.8104

> <Gold.Chemscore.Metal>
0.0000

> <Gold.Chemscore.Lipo>
88.9330

> <Gold.Chemscore.Internal_Hbond>
0.0000

> <Gold.Chemscore.DEClash>
0.4897

> <Gold.Chemscore.DEInternal>
1.0052

> <Gold.Chemscore.Rot>
1.5932

> <Gold.Chemscore.Internal.Correction>
   9.000000E+99

> <Gold.Chemscore.Hbonds>
donor molecule, donor type, donor heavy atom, donor atom, acceptor molecule, acceptor atom, score
      L1  H     3    18       P1 10175  0.93
      L1  H    11    37       P1 10186  0.99
      L1  H    12    27       P1 10175  0.90

> <Gold.Chemscore.Hbond.Weighted>
-9.3869

> <Gold.Chemscore.Metal.Weighted>
-0.0000

> <Gold.Chemscore.Lipo.Weighted>
-10.4052

> <Gold.Chemscore.Internal_Hbond.Weighted>
0.0000

> <Gold.Chemscore.DEClash.Weighted>
0.4897

> <Gold.Chemscore.DEInternal.Weighted>
1.0052

> <Gold.Chemscore.Rot.Weighted>
4.0785

> <Gold.Chemscore.Internal.Correction.Weighted>
   9.000000E+99

> <Gold.Protein.RotatedTorsions>
[ 6907 6896 6895 6894 ] final  154.40 input  -60.11 | X-H torsion
[ 7974 7965 7964 7962 ] final  -69.30 input  175.53 | X-H torsion
[ 8008 7997 7996 7995 ] final  112.13 input   59.86 | X-H torsion
[ 10167 10162 10161 10158 ] final   94.12 input  -65.29 | X-H torsion
[ 10718 10713 10712 10709 ] final  170.01 input   66.30 | X-H torsion
[ 10763 10752 10751 10750 ] final  -67.76 input  -60.55 | X-H torsion
[ 11005 11000 10999 10996 ] final  -51.32 input  -57.11 | X-H torsion

> <Gold.Protein.ActiveResidues>
 VAL166  LYS551  ARG553  GLY616  TRP617  ASP618  TYR619  PRO620  LYS621  CYS622 
 ASP623  PHE694  ASN695  SER759  ASP760  ASP761  ALA762  ILE779  LEU786  VAL792 
 PHE793  MET794  SER795  GLU796  ALA797  LYS798  CYS799  TRP800  GLU811  SER814 

> <Gold.Protein.RotatedAtoms>
  152.0590  133.4053  159.4409 H   0  0  0  0  0  0  0  0  0  0  0  0  # atno 6907 bound_to 6896
  150.6867  134.3222  159.4800 H   0  0  0  0  0  0  0  0  0  0  0  0  # atno 6908 bound_to 6896
  152.1041  134.9321  160.0619 H   0  0  0  0  0  0  0  0  0  0  0  0  # atno 6909 bound_to 6896
  145.7056  140.9099  143.0708 H   0  0  0  0  0  0  0  0  0  0  0  0  # atno 7974 bound_to 7965
  156.2171  140.3005  155.9866 H   0  0  0  0  0  0  0  0  0  0  0  0  # atno 8008 bound_to 7997
  155.2576  140.0428  157.3011 H   0  0  0  0  0  0  0  0  0  0  0  0  # atno 8009 bound_to 7997
  154.5785  140.2368  155.8096 H   0  0  0  0  0  0  0  0  0  0  0  0  # atno 8010 bound_to 7997
  139.8114  144.6772  150.9635 H   0  0  0  0  0  0  0  0  0  0  0  0  # atno 10167 bound_to 10162
  157.0143  131.0213  151.2794 H   0  0  0  0  0  0  0  0  0  0  0  0  # atno 10718 bound_to 10713
  154.3791  135.6078  153.5781 H   0  0  0  0  0  0  0  0  0  0  0  0  # atno 10763 bound_to 10752
  152.9788  135.5856  154.4431 H   0  0  0  0  0  0  0  0  0  0  0  0  # atno 10764 bound_to 10752
  154.4197  135.2845  155.1961 H   0  0  0  0  0  0  0  0  0  0  0  0  # atno 10765 bound_to 10752
  141.0864  133.6641  156.3860 H   0  0  0  0  0  0  0  0  0  0  0  0  # atno 11005 bound_to 11000
  144.6956  139.9005  143.7458 LP  0  0  0  0  0  0  0  0  0  0  0  0  # atno 17320 bound_to 7965
  146.0759  139.3747  143.0494 LP  0  0  0  0  0  0  0  0  0  0  0  0  # atno 17321 bound_to 7965
  140.7817  143.4181  151.0885 LP  0  0  0  0  0  0  0  0  0  0  0  0  # atno 17342 bound_to 10162
  139.7847  143.8304  152.3143 LP  0  0  0  0  0  0  0  0  0  0  0  0  # atno 17343 bound_to 10162
  157.5297  130.8051  149.7903 LP  0  0  0  0  0  0  0  0  0  0  0  0  # atno 17370 bound_to 10713
  156.0125  130.3827  150.2218 LP  0  0  0  0  0  0  0  0  0  0  0  0  # atno 17371 bound_to 10713
  140.5352  134.6174  157.5362 LP  0  0  0  0  0  0  0  0  0  0  0  0  # atno 17394 bound_to 11000
  139.9683  134.7335  156.0092 LP  0  0  0  0  0  0  0  0  0  0  0  0  # atno 17395 bound_to 11000

$$$$
