AV-unprocessed.smi:1322|AV-procd|sdf|5463|dock1
  -GOLD-   22720 5 33D 1   1.00000     0.00000
 Structure written by MMmdl.
 32 33  0  0  0  0  0  0  0  0  1 V2000
  150.0612  140.0671  157.8481 C   0  0  0  0  0  0  0  0  0  0  0  0
  150.9398  141.1872  157.2596 C   0  0  2  0  0  0  0  0  0  0  0  0
  151.9527  140.6735  156.2160 C   0  0  0  0  0  0  0  0  0  0  0  0
  151.5078  139.4704  155.5355 N   0  0  0  0  0  0  0  0  0  0  0  0
  151.5864  138.1622  155.9651 C   0  0  0  0  0  0  0  0  0  0  0  0
  151.0487  137.3794  154.9841 C   0  0  0  0  0  0  0  0  0  0  0  0
  150.6678  138.3118  153.9788 C   0  0  0  0  0  0  0  0  0  0  0  0
  150.9462  139.5620  154.3107 N   0  0  0  0  0  0  0  0  0  0  0  0
  151.6642  141.8777  158.3234 N   0  0  0  0  0  0  0  0  0  0  0  0
  152.7482  141.4099  158.9613 C   0  0  0  0  0  0  0  0  0  0  0  0
  153.2730  140.3272  158.6975 O   0  0  0  0  0  0  0  0  0  0  0  0
  153.3133  142.3089  160.0689 C   0  0  0  0  0  0  0  0  0  0  0  0
  153.2605  141.6920  161.4773 C   0  0  0  0  0  0  0  0  0  0  0  0
  152.7728  143.0443  162.0056 C   0  0  0  0  0  0  0  0  0  0  0  0
  152.3482  143.3959  160.5767 C   0  0  0  0  0  0  0  0  0  0  0  0
  149.4641  139.5813  157.0764 H   0  0  0  0  0  0  0  0  0  0  0  0
  149.3655  140.4578  158.5912 H   0  0  0  0  0  0  0  0  0  0  0  0
  150.6684  139.3010  158.3313 H   0  0  0  0  0  0  0  0  0  0  0  0
  150.2866  141.9082  156.7642 H   0  0  0  0  0  0  0  0  0  0  0  0
  152.1431  141.4399  155.4630 H   0  0  0  0  0  0  0  0  0  0  0  0
  152.9110  140.4626  156.6930 H   0  0  0  0  0  0  0  0  0  0  0  0
  152.0119  137.9006  156.9228 H   0  0  0  0  0  0  0  0  0  0  0  0
  150.9444  136.3045  154.9837 H   0  0  0  0  0  0  0  0  0  0  0  0
  150.2017  138.1185  153.0238 H   0  0  0  0  0  0  0  0  0  0  0  0
  151.3038  142.7769  158.6074 H   0  0  0  0  0  0  0  0  0  0  0  0
  154.2995  142.7163  159.8381 H   0  0  0  0  0  0  0  0  0  0  0  0
  152.5169  140.9012  161.5922 H   0  0  0  0  0  0  0  0  0  0  0  0
  154.2303  141.3859  161.8706 H   0  0  0  0  0  0  0  0  0  0  0  0
  151.9538  142.9845  162.7229 H   0  0  0  0  0  0  0  0  0  0  0  0
  153.5865  143.6732  162.3705 H   0  0  0  0  0  0  0  0  0  0  0  0
  152.6122  144.4093  160.2730 H   0  0  0  0  0  0  0  0  0  0  0  0
  151.2931  143.1884  160.3893 H   0  0  0  0  0  0  0  0  0  0  0  0
  1  2  1  0  0  0  0
  1 16  1  0  0  0  0
  1 17  1  0  0  0  0
  1 18  1  0  0  0  0
  2  3  1  0  0  0  0
  2  9  1  0  0  0  0
  2 19  1  0  0  0  0
  3  4  1  0  0  0  0
  3 20  1  0  0  0  0
  3 21  1  0  0  0  0
  4  8  1  0  0  0  0
  4  5  1  0  0  0  0
  5  6  2  0  0  0  0
  5 22  1  0  0  0  0
  6  7  1  0  0  0  0
  6 23  1  0  0  0  0
  7  8  2  0  0  0  0
  7 24  1  0  0  0  0
  9 10  1  0  0  0  0
  9 25  1  0  0  0  0
 10 11  2  0  0  0  0
 10 12  1  0  0  0  0
 12 15  1  0  0  0  0
 12 13  1  0  0  0  0
 12 26  1  0  0  0  0
 13 14  1  0  0  0  0
 13 27  1  0  0  0  0
 13 28  1  0  0  0  0
 14 15  1  0  0  0  0
 14 29  1  0  0  0  0
 14 30  1  0  0  0  0
 15 31  1  0  0  0  0
 15 32  1  0  0  0  0
M  END
> <s_m_source_file>
AV-unprocessed.smi

> <i_m_source_file_index>
1322

> <i_lp_mmshare_version>
43012

> <i_f3d_flags>
0

> <s_epik_input>
W0NIMl0xW0NIMl1bQ0gyXVtDSF0xQyg9TylbTkhdW0NASF0oW0NIM10pW0NIMl1uMltjSF1bY0hdW2NIXW4y

> <s_epik_cmdline>
J2VwaWtfcHl0aG9uJywgJy1waCcsICc3LjAnLCAnLXRuJywgJzgnLCAnLW1hJywgJzIwMCcsICctbWV0YWxfYmluZGluZycsICctaW1hZScsICc8aW5maWxlLm1hZT4nLCAnLW9tYWUnLCAnPG91dGZpbGUubWFlPic=

> <r_lp_tautomer_probability>
1

> <r_epik_Ionization_Penalty>
0.000326653

> <r_epik_Ionization_Penalty_Charging>
0

> <r_epik_Ionization_Penalty_Neutral>
0.000326653

> <r_epik_State_Penalty>
-0

> <r_epik_Charging_Adjusted_Penalty>
0

> <i_epik_Tot_Q>
0

> <i_epik_Tot_abs_Q>
0

> <r_epik_Metal_State_Penalty>
-0

> <b_epik_Metal_Only>
0

> <s_lp_Force_Field>
OPLS_2005

> <r_lp_Energy>
10.8536

> <b_lp_Chiralities_Consistent>
1

> <s_lp_Variant>
AV-unprocessed.smi:1322-1

> <Gold.Version>
5.8.1

> <Gold.Id.Protein>
6NUR|6NUR_protein|mol2

> <Gold.PLP.Fitness>
42.9337

> <Gold.PLP.PLP>
-33.3473

> <Gold.PLP.part.hbond>
-2.0000

> <Gold.PLP.part.metal>
0.0000

> <Gold.PLP.part.buried>
-3.6877

> <Gold.PLP.part.nonpolar>
-27.4737

> <Gold.PLP.part.repulsive>
0.2170

> <Gold.PLP.ligand.clash>
0.0000

> <Gold.PLP.ligand.torsion>
1.1173

> <Gold.PLP.Chemscore.Hbond>
1.8800

> <Gold.PLP.Chemscore.CHOScore>
1.9204

> <Gold.PLP.Chemscore.Metal>
0.0000

> <Gold.Chemscore.Hbonds>
donor molecule, donor type, donor heavy atom, donor atom, acceptor molecule, acceptor atom, score
      P1  H  7989  7998       L1     8  1.00
      P1  H  7997  8009       L1    11  0.66
      L1  C     7    24       P1  7948  0.94
      L1  C     7    24       P1  7949  0.07
      L1  C     7    24       P1  7957  0.47

> <Gold.PLP.Chemscore.Internal.Correction>
0.4199

> <Gold.Rescore>
     Score         DG    S(hbond)    S(metal)    S(lipo)     H(rot)  DE(clash)    DE(int)     intcor
     11.89     -16.14       1.52        0.00      81.69       1.55       0.86       3.39       ----

> <Gold.Chemscore.Fitness>
11.8875

> <Gold.Chemscore.DG>
-16.1378

> <Gold.Chemscore.ZeroCoef>
-5.4800

> <Gold.Chemscore.Hbond>
1.5152

> <Gold.Chemscore.Metal>
0.0000

> <Gold.Chemscore.Lipo>
81.6904

> <Gold.Chemscore.Internal_Hbond>
0.0000

> <Gold.Chemscore.DEClash>
0.8586

> <Gold.Chemscore.DEInternal>
3.3917

> <Gold.Chemscore.Rot>
1.5471

> <Gold.Chemscore.Internal.Correction>
   9.000000E+99

> <Gold.Chemscore.Hbonds>
donor molecule, donor type, donor heavy atom, donor atom, acceptor molecule, acceptor atom, score
      P1  H  7989  7998       L1     8  0.70
      P1  H  7997  8009       L1    11  0.64

> <Gold.Chemscore.Hbond.Weighted>
-5.0607

> <Gold.Chemscore.Metal.Weighted>
-0.0000

> <Gold.Chemscore.Lipo.Weighted>
-9.5578

> <Gold.Chemscore.Internal_Hbond.Weighted>
0.0000

> <Gold.Chemscore.DEClash.Weighted>
0.8586

> <Gold.Chemscore.DEInternal.Weighted>
3.3917

> <Gold.Chemscore.Rot.Weighted>
3.9606

> <Gold.Chemscore.Internal.Correction.Weighted>
   9.000000E+99

> <Gold.Protein.RotatedTorsions>
[ 6907 6896 6895 6894 ] final  102.53 input  -60.11 | X-H torsion
[ 7974 7965 7964 7962 ] final  116.06 input  175.53 | X-H torsion
[ 8008 7997 7996 7995 ] final  152.90 input   59.86 | X-H torsion
[ 10167 10162 10161 10158 ] final -173.16 input  -65.29 | X-H torsion
[ 10718 10713 10712 10709 ] final  -72.75 input   66.30 | X-H torsion
[ 10763 10752 10751 10750 ] final  -19.65 input  -60.55 | X-H torsion
[ 11005 11000 10999 10996 ] final  173.33 input  -57.11 | X-H torsion

> <Gold.Protein.ActiveResidues>
 VAL166  LYS551  ARG553  GLY616  TRP617  ASP618  TYR619  PRO620  LYS621  CYS622 
 ASP623  PHE694  ASN695  SER759  ASP760  ASP761  ALA762  ILE779  LEU786  VAL792 
 PHE793  MET794  SER795  GLU796  ALA797  LYS798  CYS799  TRP800  GLU811  SER814 

> <Gold.Protein.RotatedAtoms>
  152.5321  133.9961  159.7873 H   0  0  0  0  0  0  0  0  0  0  0  0  # atno 6907 bound_to 6896
  151.0188  133.5888  159.2681 H   0  0  0  0  0  0  0  0  0  0  0  0  # atno 6908 bound_to 6896
  151.2935  135.0755  159.9266 H   0  0  0  0  0  0  0  0  0  0  0  0  # atno 6909 bound_to 6896
  145.1843  139.3033  143.4401 H   0  0  0  0  0  0  0  0  0  0  0  0  # atno 7974 bound_to 7965
  156.2607  140.2008  156.6406 H   0  0  0  0  0  0  0  0  0  0  0  0  # atno 8008 bound_to 7997
  154.6613  140.0560  157.0089 H   0  0  0  0  0  0  0  0  0  0  0  0  # atno 8009 bound_to 7997
  155.1273  140.3230  155.4485 H   0  0  0  0  0  0  0  0  0  0  0  0  # atno 8010 bound_to 7997
  139.5704  144.1655  152.1375 H   0  0  0  0  0  0  0  0  0  0  0  0  # atno 10167 bound_to 10162
  156.0307  130.4379  150.2640 H   0  0  0  0  0  0  0  0  0  0  0  0  # atno 10718 bound_to 10713
  153.6080  135.6997  153.5358 H   0  0  0  0  0  0  0  0  0  0  0  0  # atno 10763 bound_to 10752
  153.3040  135.4120  155.1277 H   0  0  0  0  0  0  0  0  0  0  0  0  # atno 10764 bound_to 10752
  154.8569  135.3656  154.5618 H   0  0  0  0  0  0  0  0  0  0  0  0  # atno 10765 bound_to 10752
  140.3393  134.7290  157.4191 H   0  0  0  0  0  0  0  0  0  0  0  0  # atno 11005 bound_to 11000
  146.3447  140.2034  142.8589 LP  0  0  0  0  0  0  0  0  0  0  0  0  # atno 17320 bound_to 7965
  145.0104  140.8709  143.5227 LP  0  0  0  0  0  0  0  0  0  0  0  0  # atno 17321 bound_to 7965
  140.1187  144.5393  150.6877 LP  0  0  0  0  0  0  0  0  0  0  0  0  # atno 17342 bound_to 10162
  140.6988  143.2421  151.4923 LP  0  0  0  0  0  0  0  0  0  0  0  0  # atno 17343 bound_to 10162
  157.0742  131.0125  151.3179 LP  0  0  0  0  0  0  0  0  0  0  0  0  # atno 17370 bound_to 10713
  157.4976  130.7860  149.7572 LP  0  0  0  0  0  0  0  0  0  0  0  0  # atno 17371 bound_to 10713
  140.0794  134.5752  155.8556 LP  0  0  0  0  0  0  0  0  0  0  0  0  # atno 17394 bound_to 11000
  141.2043  133.6638  156.6111 LP  0  0  0  0  0  0  0  0  0  0  0  0  # atno 17395 bound_to 11000

$$$$
