AV-unprocessed.smi:752|AV-procd|sdf|3596|dock2
  -GOLD-   22720 0593D 1   1.00000     0.00000
 Structure written by MMmdl.
 41 42  0  0  0  0  0  0  0  0  1 V2000
  153.0964  143.1772  162.8021 C   0  0  0  0  0  0  0  0  0  0  0  0
  152.9907  142.3164  161.5389 C   0  0  0  0  0  0  0  0  0  0  0  0
  152.4353  143.0691  160.3767 C   0  0  0  0  0  0  0  0  0  0  0  0
  152.1538  142.5033  159.2004 N   0  0  0  0  0  0  0  0  0  0  0  0
  151.6692  143.4204  158.2620 C   0  0  0  0  0  0  0  0  0  0  0  0
  151.2900  142.9531  156.8857 C   0  0  0  0  0  0  0  0  0  0  0  0
  150.1778  141.9011  156.9483 C   0  0  0  0  0  0  0  0  0  0  0  0
  150.4156  140.7240  156.6748 O   0  0  0  0  0  0  0  0  0  0  0  0
  148.9600  142.3448  157.2980 N   0  0  0  0  0  0  0  0  0  0  0  0
  147.7582  141.5243  157.4211 C   0  0  0  0  0  0  0  0  0  0  0  0
  147.1432  141.1644  156.0515 C   0  0  1  0  0  0  0  0  0  0  0  0
  146.8875  142.4019  155.1609 C   0  0  0  0  0  0  0  0  0  0  0  0
  146.3050  142.0151  153.7916 C   0  0  0  0  0  0  0  0  0  0  0  0
  147.2037  141.0032  153.0665 C   0  0  0  0  0  0  0  0  0  0  0  0
  147.4440  139.7623  153.9413 C   0  0  1  0  0  0  0  0  0  0  0  0
  148.3259  138.8813  153.2780 O   0  0  0  0  0  0  0  0  0  0  0  0
  148.0383  140.1530  155.3057 C   0  0  0  0  0  0  0  0  0  0  0  0
  151.6116  144.7055  158.7435 C   0  0  0  0  0  0  0  0  0  0  0  0
  152.1509  144.8054  160.3970 S   0  0  0  0  0  0  0  0  0  0  0  0
  153.5004  142.5991  163.6332 H   0  0  0  0  0  0  0  0  0  0  0  0
  152.1188  143.5554  163.1025 H   0  0  0  0  0  0  0  0  0  0  0  0
  153.7529  144.0328  162.6413 H   0  0  0  0  0  0  0  0  0  0  0  0
  153.9737  141.9277  161.2700 H   0  0  0  0  0  0  0  0  0  0  0  0
  152.3550  141.4516  161.7306 H   0  0  0  0  0  0  0  0  0  0  0  0
  150.9692  143.8003  156.2779 H   0  0  0  0  0  0  0  0  0  0  0  0
  152.1474  142.5150  156.3734 H   0  0  0  0  0  0  0  0  0  0  0  0
  148.8578  143.3290  157.4996 H   0  0  0  0  0  0  0  0  0  0  0  0
  147.9573  140.6200  157.9987 H   0  0  0  0  0  0  0  0  0  0  0  0
  147.0375  142.0987  158.0038 H   0  0  0  0  0  0  0  0  0  0  0  0
  146.1824  140.6810  156.2359 H   0  0  0  0  0  0  0  0  0  0  0  0
  146.1974  143.0884  155.6506 H   0  0  0  0  0  0  0  0  0  0  0  0
  147.8193  142.9512  155.0190 H   0  0  0  0  0  0  0  0  0  0  0  0
  145.3097  141.5895  153.9258 H   0  0  0  0  0  0  0  0  0  0  0  0
  146.1795  142.9069  153.1770 H   0  0  0  0  0  0  0  0  0  0  0  0
  146.7461  140.7142  152.1197 H   0  0  0  0  0  0  0  0  0  0  0  0
  148.1560  141.4759  152.8208 H   0  0  0  0  0  0  0  0  0  0  0  0
  146.4994  139.2388  154.0947 H   0  0  0  0  0  0  0  0  0  0  0  0
  148.6862  139.3261  152.5260 H   0  0  0  0  0  0  0  0  0  0  0  0
  149.0324  140.5808  155.1654 H   0  0  0  0  0  0  0  0  0  0  0  0
  148.1714  139.2580  155.9150 H   0  0  0  0  0  0  0  0  0  0  0  0
  151.2835  145.5955  158.2277 H   0  0  0  0  0  0  0  0  0  0  0  0
  1  2  1  0  0  0  0
  1 20  1  0  0  0  0
  1 21  1  0  0  0  0
  1 22  1  0  0  0  0
  2  3  1  0  0  0  0
  2 23  1  0  0  0  0
  2 24  1  0  0  0  0
  3 19  1  0  0  0  0
  3  4  2  0  0  0  0
  4  5  1  0  0  0  0
  5  6  1  0  0  0  0
  5 18  2  0  0  0  0
  6  7  1  0  0  0  0
  6 25  1  0  0  0  0
  6 26  1  0  0  0  0
  7  8  2  0  0  0  0
  7  9  1  0  0  0  0
  9 10  1  0  0  0  0
  9 27  1  0  0  0  0
 10 11  1  0  0  0  0
 10 28  1  0  0  0  0
 10 29  1  0  0  0  0
 11 17  1  0  0  0  0
 11 12  1  0  0  0  0
 11 30  1  0  0  0  0
 12 13  1  0  0  0  0
 12 31  1  0  0  0  0
 12 32  1  0  0  0  0
 13 14  1  0  0  0  0
 13 33  1  0  0  0  0
 13 34  1  0  0  0  0
 14 15  1  0  0  0  0
 14 35  1  0  0  0  0
 14 36  1  0  0  0  0
 15 16  1  0  0  0  0
 15 17  1  0  0  0  0
 15 37  1  0  0  0  0
 16 38  1  0  0  0  0
 17 39  1  0  0  0  0
 17 40  1  0  0  0  0
 18 19  1  0  0  0  0
 18 41  1  0  0  0  0
M  END
> <s_m_source_file>
AV-unprocessed.smi

> <i_m_source_file_index>
752

> <i_lp_mmshare_version>
43012

> <i_f3d_flags>
0

> <s_epik_input>
W0NIM11bQ0gyXWMxbmMoW2NIXXMxKVtDSDJdQyg9TylbTkhdW0NIMl1bQ0BASF0yW0NIMl1bQ0gyXVtDSDJdW0NAQEhdKFtPSF0pW0NIMl0y

> <s_epik_cmdline>
J2VwaWtfcHl0aG9uJywgJy1waCcsICc3LjAnLCAnLXRuJywgJzgnLCAnLW1hJywgJzIwMCcsICctbWV0YWxfYmluZGluZycsICctaW1hZScsICc8aW5maWxlLm1hZT4nLCAnLW9tYWUnLCAnPG91dGZpbGUubWFlPic=

> <r_lp_tautomer_probability>
1

> <r_epik_Ionization_Penalty>
5.44903e-05

> <r_epik_Ionization_Penalty_Charging>
0

> <r_epik_Ionization_Penalty_Neutral>
5.44903e-05

> <r_epik_State_Penalty>
-0

> <r_epik_Charging_Adjusted_Penalty>
0

> <i_epik_Tot_Q>
0

> <i_epik_Tot_abs_Q>
0

> <r_epik_Metal_State_Penalty>
-0

> <b_epik_Metal_Only>
0

> <s_lp_Force_Field>
OPLS_2005

> <r_lp_Energy>
4.53549

> <b_lp_Chiralities_Consistent>
1

> <s_lp_Variant>
AV-unprocessed.smi:752-2

> <Gold.Version>
5.8.1

> <Gold.Id.Protein>
6NUR|6NUR_protein|mol2

> <Gold.PLP.Fitness>
43.3323

> <Gold.PLP.PLP>
-40.7492

> <Gold.PLP.part.hbond>
-2.9993

> <Gold.PLP.part.metal>
0.0000

> <Gold.PLP.part.buried>
-4.8433

> <Gold.PLP.part.nonpolar>
-33.1195

> <Gold.PLP.part.repulsive>
0.0763

> <Gold.PLP.ligand.clash>
0.0000

> <Gold.PLP.ligand.torsion>
0.3082

> <Gold.PLP.Chemscore.Hbond>
1.0421

> <Gold.PLP.Chemscore.CHOScore>
0.0000

> <Gold.PLP.Chemscore.Metal>
0.0000

> <Gold.Chemscore.Hbonds>
donor molecule, donor type, donor heavy atom, donor atom, acceptor molecule, acceptor atom, score
      L1  H     9    27       P1  8028  0.11
      L1  H    16    38       P1  7957  1.00

> <Gold.PLP.Chemscore.Internal.Correction>
0.0732

> <Gold.Rescore>
     Score         DG    S(hbond)    S(metal)    S(lipo)     H(rot)  DE(clash)    DE(int)     intcor
     15.33     -17.42       1.08        0.00     116.67       2.08       0.59       1.50       ----

> <Gold.Chemscore.Fitness>
15.3345

> <Gold.Chemscore.DG>
-17.4156

> <Gold.Chemscore.ZeroCoef>
-5.4800

> <Gold.Chemscore.Hbond>
1.0840

> <Gold.Chemscore.Metal>
0.0000

> <Gold.Chemscore.Lipo>
116.6674

> <Gold.Chemscore.Internal_Hbond>
0.0000

> <Gold.Chemscore.DEClash>
0.5851

> <Gold.Chemscore.DEInternal>
1.4960

> <Gold.Chemscore.Rot>
2.0840

> <Gold.Chemscore.Internal.Correction>
   9.000000E+99

> <Gold.Chemscore.Hbonds>
donor molecule, donor type, donor heavy atom, donor atom, acceptor molecule, acceptor atom, score
      L1  H     9    27       P1  8028  0.03
      L1  H    16    38       P1  7957  1.00

> <Gold.Chemscore.Hbond.Weighted>
-3.6205

> <Gold.Chemscore.Metal.Weighted>
-0.0000

> <Gold.Chemscore.Lipo.Weighted>
-13.6501

> <Gold.Chemscore.Internal_Hbond.Weighted>
0.0000

> <Gold.Chemscore.DEClash.Weighted>
0.5851

> <Gold.Chemscore.DEInternal.Weighted>
1.4960

> <Gold.Chemscore.Rot.Weighted>
5.3350

> <Gold.Chemscore.Internal.Correction.Weighted>
   9.000000E+99

> <Gold.Protein.RotatedTorsions>
[ 6907 6896 6895 6894 ] final  -89.56 input  -60.11 | X-H torsion
[ 7974 7965 7964 7962 ] final   17.31 input  175.53 | X-H torsion
[ 8008 7997 7996 7995 ] final  -59.08 input   59.86 | X-H torsion
[ 10167 10162 10161 10158 ] final  160.23 input  -65.29 | X-H torsion
[ 10718 10713 10712 10709 ] final   26.59 input   66.30 | X-H torsion
[ 10763 10752 10751 10750 ] final    1.13 input  -60.55 | X-H torsion
[ 11005 11000 10999 10996 ] final  133.01 input  -57.11 | X-H torsion

> <Gold.Protein.ActiveResidues>
 VAL166  LYS551  ARG553  GLY616  TRP617  ASP618  TYR619  PRO620  LYS621  CYS622 
 ASP623  PHE694  ASN695  SER759  ASP760  ASP761  ALA762  ILE779  LEU786  VAL792 
 PHE793  MET794  SER795  GLU796  ALA797  LYS798  CYS799  TRP800  GLU811  SER814 

> <Gold.Protein.RotatedAtoms>
  150.6875  134.2567  159.4532 H   0  0  0  0  0  0  0  0  0  0  0  0  # atno 6907 bound_to 6896
  152.0501  134.9656  160.0584 H   0  0  0  0  0  0  0  0  0  0  0  0  # atno 6908 bound_to 6896
  152.1124  133.4273  159.4674 H   0  0  0  0  0  0  0  0  0  0  0  0  # atno 6909 bound_to 6896
  146.2222  139.8620  142.8603 H   0  0  0  0  0  0  0  0  0  0  0  0  # atno 7974 bound_to 7965
  154.4336  140.1070  156.6058 H   0  0  0  0  0  0  0  0  0  0  0  0  # atno 8008 bound_to 7997
  155.5862  140.3491  155.4535 H   0  0  0  0  0  0  0  0  0  0  0  0  # atno 8009 bound_to 7997
  156.0281  140.1254  157.0276 H   0  0  0  0  0  0  0  0  0  0  0  0  # atno 8010 bound_to 7997
  139.4838  144.4653  151.8649 H   0  0  0  0  0  0  0  0  0  0  0  0  # atno 10167 bound_to 10162
  157.2089  130.6925  149.6220 H   0  0  0  0  0  0  0  0  0  0  0  0  # atno 10718 bound_to 10713
  153.3119  135.6963  153.7107 H   0  0  0  0  0  0  0  0  0  0  0  0  # atno 10763 bound_to 10752
  153.5981  135.3467  155.2936 H   0  0  0  0  0  0  0  0  0  0  0  0  # atno 10764 bound_to 10752
  154.8577  135.4334  154.2260 H   0  0  0  0  0  0  0  0  0  0  0  0  # atno 10765 bound_to 10752
  139.9825  134.9543  156.9663 H   0  0  0  0  0  0  0  0  0  0  0  0  # atno 11005 bound_to 11000
  145.2694  141.0103  143.3780 LP  0  0  0  0  0  0  0  0  0  0  0  0  # atno 17320 bound_to 7965
  144.9235  139.4383  143.6529 LP  0  0  0  0  0  0  0  0  0  0  0  0  # atno 17321 bound_to 7965
  140.4119  144.2358  150.5888 LP  0  0  0  0  0  0  0  0  0  0  0  0  # atno 17342 bound_to 10162
  140.4958  143.2333  151.8751 LP  0  0  0  0  0  0  0  0  0  0  0  0  # atno 17343 bound_to 10162
  155.9692  130.4558  150.5900 LP  0  0  0  0  0  0  0  0  0  0  0  0  # atno 17370 bound_to 10713
  157.3692  131.0763  151.1572 LP  0  0  0  0  0  0  0  0  0  0  0  0  # atno 17371 bound_to 10713
  140.5068  134.1042  155.7262 LP  0  0  0  0  0  0  0  0  0  0  0  0  # atno 17394 bound_to 11000
  141.1495  133.8995  157.2133 LP  0  0  0  0  0  0  0  0  0  0  0  0  # atno 17395 bound_to 11000

$$$$
