AV-unprocessed.smi:1726|AV-procd|sdf|6961|dock9
  -GOLD-   22720 8173D 1   1.00000     0.00000
 Structure written by MMmdl.
 42 43  0  0  0  0  0  0  0  0  3 V2000
  145.7824  134.8080  151.7463 C   0  0  0  0  0  0  0  0  0  0  0  0
  146.0720  135.4788  153.0970 C   0  0  0  0  0  0  0  0  0  0  0  0
  146.7525  136.7905  152.9499 N   0  3  1  0  0  0  0  0  0  0  0  0
  145.9434  137.7539  152.1586 C   0  0  0  0  0  0  0  0  0  0  0  0
  146.7195  139.0562  151.9020 C   0  0  0  0  0  0  0  0  0  0  0  0
  147.1853  139.6894  153.2192 C   0  0  0  0  0  0  0  0  0  0  0  0
  147.9985  138.6702  154.0315 C   0  0  1  0  0  0  0  0  0  0  0  0
  148.3925  139.2535  155.3101 N   0  0  0  0  0  0  0  0  0  0  0  0
  149.6166  139.7168  155.6012 C   0  0  0  0  0  0  0  0  0  0  0  0
  150.5518  139.6921  154.8009 O   0  0  0  0  0  0  0  0  0  0  0  0
  149.6695  140.1719  156.8655 N   0  0  0  0  0  0  0  0  0  0  0  0
  150.7473  140.7522  157.5552 C   0  0  0  0  0  0  0  0  0  0  0  0
  150.7264  141.9882  158.1264 C   0  0  0  0  0  0  0  0  0  0  0  0
  151.8702  142.5340  158.8461 C   0  0  0  0  0  0  0  0  0  0  0  0
  151.9167  143.9433  159.4091 C   0  0  0  0  0  0  0  0  0  0  0  0
  152.8141  144.6686  158.7430 F   0  0  0  0  0  0  0  0  0  0  0  0
  150.7316  144.5443  159.2982 F   0  0  0  0  0  0  0  0  0  0  0  0
  152.2638  143.9318  160.6962 F   0  0  0  0  0  0  0  0  0  0  0  0
  152.9431  141.6638  158.8625 C   0  0  0  0  0  0  0  0  0  0  0  0
  153.0356  140.4177  158.3485 N   0  5  0  0  0  0  0  0  0  0  0  0
  151.9592  139.9164  157.6793 C   0  0  0  0  0  0  0  0  0  0  0  0
  151.9769  138.7904  157.1807 O   0  0  0  0  0  0  0  0  0  0  0  0
  147.1832  137.3775  154.2469 C   0  0  0  0  0  0  0  0  0  0  0  0
  145.1955  133.9004  151.8892 H   0  0  0  0  0  0  0  0  0  0  0  0
  146.6950  134.5208  151.2249 H   0  0  0  0  0  0  0  0  0  0  0  0
  145.2130  135.4685  151.0918 H   0  0  0  0  0  0  0  0  0  0  0  0
  145.1171  135.6261  153.6034 H   0  0  0  0  0  0  0  0  0  0  0  0
  146.6614  134.8200  153.7363 H   0  0  0  0  0  0  0  0  0  0  0  0
  145.6703  137.3083  151.2013 H   0  0  0  0  0  0  0  0  0  0  0  0
  145.0123  137.9681  152.6861 H   0  0  0  0  0  0  0  0  0  0  0  0
  147.5834  138.8489  151.2690 H   0  0  0  0  0  0  0  0  0  0  0  0
  146.0950  139.7601  151.3512 H   0  0  0  0  0  0  0  0  0  0  0  0
  147.7845  140.5775  153.0146 H   0  0  0  0  0  0  0  0  0  0  0  0
  146.3186  140.0213  153.7931 H   0  0  0  0  0  0  0  0  0  0  0  0
  148.9007  138.4280  153.4656 H   0  0  0  0  0  0  0  0  0  0  0  0
  147.6833  139.3081  156.0269 H   0  0  0  0  0  0  0  0  0  0  0  0
  148.8378  140.0514  157.4250 H   0  0  0  0  0  0  0  0  0  0  0  0
  149.8416  142.6018  158.0829 H   0  0  0  0  0  0  0  0  0  0  0  0
  153.8680  142.0247  159.3610 H   0  0  0  0  0  0  0  0  0  0  0  0
  146.3057  137.5806  154.8633 H   0  0  0  0  0  0  0  0  0  0  0  0
  147.7915  136.6584  154.7942 H   0  0  0  0  0  0  0  0  0  0  0  0
  147.5910  136.6188  152.4134 H   0  0  0  0  0  0  0  0  0  0  0  0
  1  2  1  0  0  0  0
  1 24  1  0  0  0  0
  1 25  1  0  0  0  0
  1 26  1  0  0  0  0
  2  3  1  0  0  0  0
  2 27  1  0  0  0  0
  2 28  1  0  0  0  0
  3 23  1  0  0  0  0
  3  4  1  0  0  0  0
  3 42  1  0  0  0  0
  4  5  1  0  0  0  0
  4 29  1  0  0  0  0
  4 30  1  0  0  0  0
  5  6  1  0  0  0  0
  5 31  1  0  0  0  0
  5 32  1  0  0  0  0
  6  7  1  0  0  0  0
  6 33  1  0  0  0  0
  6 34  1  0  0  0  0
  7  8  1  0  0  0  0
  7 23  1  0  0  0  0
  7 35  1  0  0  0  0
  8  9  1  0  0  0  0
  8 36  1  0  0  0  0
  9 10  2  0  0  0  0
  9 11  1  0  0  0  0
 11 12  1  0  0  0  0
 11 37  1  0  0  0  0
 12 21  1  0  0  0  0
 12 13  2  0  0  0  0
 13 14  1  0  0  0  0
 13 38  1  0  0  0  0
 14 15  1  0  0  0  0
 14 19  2  0  0  0  0
 15 16  1  0  0  0  0
 15 17  1  0  0  0  0
 15 18  1  0  0  0  0
 19 20  1  0  0  0  0
 19 39  1  0  0  0  0
 20 21  1  0  0  0  0
 21 22  2  0  0  0  0
 23 40  1  0  0  0  0
 23 41  1  0  0  0  0
M  CHG  1   3   1
M  CHG  1  20  -1
M  END
> <s_m_source_file>
AV-unprocessed.smi

> <i_m_source_file_index>
1726

> <i_lp_mmshare_version>
43012

> <i_f3d_flags>
0

> <s_epik_input>
W0NIM11bQ0gyXU4xW0NIMl1bQ0gyXVtDSDJdW0NASF0oW0NIMl0xKVtOSF1DKD1PKVtOSF1jMltjSF1jKEMoRikoRilGKVtjSF1bbkhdYzI9Tw==

> <s_epik_cmdline>
J2VwaWtfcHl0aG9uJywgJy1waCcsICc3LjAnLCAnLXRuJywgJzgnLCAnLW1hJywgJzIwMCcsICctbWV0YWxfYmluZGluZycsICctaW1hZScsICc8aW5maWxlLm1hZT4nLCAnLW9tYWUnLCAnPG91dGZpbGUubWFlPic=

> <r_lp_tautomer_probability>
1

> <r_epik_Ionization_Penalty>
3.01007

> <r_epik_Ionization_Penalty_Charging>
0.14897

> <r_epik_Ionization_Penalty_Neutral>
2.8611

> <r_epik_State_Penalty>
2.85632

> <r_epik_Charging_Adjusted_Penalty>
3.00529

> <i_epik_Tot_Q>
0

> <i_epik_Tot_abs_Q>
2

> <r_epik_Metal_State_Penalty>
0.443826

> <b_epik_Metal_Only>
1

> <s_lp_Force_Field>
OPLS_2005

> <r_lp_Energy>
27.5117

> <b_lp_Chiralities_Consistent>
1

> <s_lp_Variant>
AV-unprocessed.smi:1726-5

> <Gold.Version>
5.8.1

> <Gold.Id.Protein>
6NUR|6NUR_protein|mol2

> <Gold.PLP.Fitness>
50.2768

> <Gold.PLP.PLP>
-37.9673

> <Gold.PLP.part.hbond>
-3.0000

> <Gold.PLP.part.metal>
0.0000

> <Gold.PLP.part.buried>
-1.4778

> <Gold.PLP.part.nonpolar>
-33.2397

> <Gold.PLP.part.repulsive>
0.1234

> <Gold.PLP.ligand.clash>
0.0000

> <Gold.PLP.ligand.torsion>
0.8558

> <Gold.PLP.Chemscore.Hbond>
4.6494

> <Gold.PLP.Chemscore.CHOScore>
0.0000

> <Gold.PLP.Chemscore.Metal>
0.0000

> <Gold.Chemscore.Hbonds>
donor molecule, donor type, donor heavy atom, donor atom, acceptor molecule, acceptor atom, score
      L1  H     3    42       P1  7948  1.92
      P1  H  7989  7998       L1    10  0.93
      P1  H  7997  8008       L1    20  1.52

> <Gold.PLP.Chemscore.Internal.Correction>
0.0728

> <Gold.Rescore>
     Score         DG    S(hbond)    S(metal)    S(lipo)     H(rot)  DE(clash)    DE(int)     intcor
     17.72     -19.17       2.20        0.00      82.38       1.28       0.59       0.86       ----

> <Gold.Chemscore.Fitness>
17.7183

> <Gold.Chemscore.DG>
-19.1748

> <Gold.Chemscore.ZeroCoef>
-5.4800

> <Gold.Chemscore.Hbond>
2.1954

> <Gold.Chemscore.Metal>
0.0000

> <Gold.Chemscore.Lipo>
82.3769

> <Gold.Chemscore.Internal_Hbond>
0.0000

> <Gold.Chemscore.DEClash>
0.5930

> <Gold.Chemscore.DEInternal>
0.8636

> <Gold.Chemscore.Rot>
1.2796

> <Gold.Chemscore.Internal.Correction>
   9.000000E+99

> <Gold.Chemscore.Hbonds>
donor molecule, donor type, donor heavy atom, donor atom, acceptor molecule, acceptor atom, score
      L1  H     3    42       P1  7948  0.90
      P1  H  7989  7998       L1    10  0.89
      P1  H  7997  8008       L1    20  0.17

> <Gold.Chemscore.Hbond.Weighted>
-7.3326

> <Gold.Chemscore.Metal.Weighted>
-0.0000

> <Gold.Chemscore.Lipo.Weighted>
-9.6381

> <Gold.Chemscore.Internal_Hbond.Weighted>
0.0000

> <Gold.Chemscore.DEClash.Weighted>
0.5930

> <Gold.Chemscore.DEInternal.Weighted>
0.8636

> <Gold.Chemscore.Rot.Weighted>
3.2759

> <Gold.Chemscore.Internal.Correction.Weighted>
   9.000000E+99

> <Gold.Protein.RotatedTorsions>
[ 6907 6896 6895 6894 ] final -143.63 input  -60.11 | X-H torsion
[ 7974 7965 7964 7962 ] final  102.44 input  175.53 | X-H torsion
[ 8008 7997 7996 7995 ] final  -78.76 input   59.86 | X-H torsion
[ 10167 10162 10161 10158 ] final  102.67 input  -65.29 | X-H torsion
[ 10718 10713 10712 10709 ] final  104.72 input   66.30 | X-H torsion
[ 10763 10752 10751 10750 ] final  -14.24 input  -60.55 | X-H torsion
[ 11005 11000 10999 10996 ] final  -74.85 input  -57.11 | X-H torsion

> <Gold.Protein.ActiveResidues>
 VAL166  LYS551  ARG553  GLY616  TRP617  ASP618  TYR619  PRO620  LYS621  CYS622 
 ASP623  PHE694  ASN695  SER759  ASP760  ASP761  ALA762  ILE779  LEU786  VAL792 
 PHE793  MET794  SER795  GLU796  ALA797  LYS798  CYS799  TRP800  GLU811  SER814 

> <Gold.Protein.RotatedAtoms>
  151.1031  133.5228  159.2608 H   0  0  0  0  0  0  0  0  0  0  0  0  # atno 6907 bound_to 6896
  151.2051  135.0458  159.8898 H   0  0  0  0  0  0  0  0  0  0  0  0  # atno 6908 bound_to 6896
  152.5444  134.0854  159.8307 H   0  0  0  0  0  0  0  0  0  0  0  0  # atno 6909 bound_to 6896
  145.3590  139.2422  143.3517 H   0  0  0  0  0  0  0  0  0  0  0  0  # atno 7974 bound_to 7965
  154.5720  140.0689  156.8978 H   0  0  0  0  0  0  0  0  0  0  0  0  # atno 8008 bound_to 7997
  155.2617  140.3359  155.4254 H   0  0  0  0  0  0  0  0  0  0  0  0  # atno 8009 bound_to 7997
  156.2125  140.1765  156.7647 H   0  0  0  0  0  0  0  0  0  0  0  0  # atno 8010 bound_to 7997
  139.7330  144.7031  151.0693 H   0  0  0  0  0  0  0  0  0  0  0  0  # atno 10167 bound_to 10162
  157.6730  131.0810  150.5749 H   0  0  0  0  0  0  0  0  0  0  0  0  # atno 10718 bound_to 10713
  153.5253  135.7015  153.5711 H   0  0  0  0  0  0  0  0  0  0  0  0  # atno 10763 bound_to 10752
  153.3742  135.3937  155.1810 H   0  0  0  0  0  0  0  0  0  0  0  0  # atno 10764 bound_to 10752
  154.8690  135.3819  154.4745 H   0  0  0  0  0  0  0  0  0  0  0  0  # atno 10765 bound_to 10752
  141.1639  133.6926  156.7428 H   0  0  0  0  0  0  0  0  0  0  0  0  # atno 11005 bound_to 11000
  146.2935  140.4221  142.8730 LP  0  0  0  0  0  0  0  0  0  0  0  0  # atno 17320 bound_to 7965
  144.8660  140.7207  143.6077 LP  0  0  0  0  0  0  0  0  0  0  0  0  # atno 17321 bound_to 7965
  140.7774  143.5020  150.9760 LP  0  0  0  0  0  0  0  0  0  0  0  0  # atno 17342 bound_to 10162
  139.8708  143.7195  152.3166 LP  0  0  0  0  0  0  0  0  0  0  0  0  # atno 17343 bound_to 10162
  156.6050  130.4364  149.5882 LP  0  0  0  0  0  0  0  0  0  0  0  0  # atno 17370 bound_to 10713
  156.2476  130.6888  151.1614 LP  0  0  0  0  0  0  0  0  0  0  0  0  # atno 17371 bound_to 10713
  140.2662  134.8428  157.3804 LP  0  0  0  0  0  0  0  0  0  0  0  0  # atno 17394 bound_to 11000
  140.1564  134.4784  155.7924 LP  0  0  0  0  0  0  0  0  0  0  0  0  # atno 17395 bound_to 11000

$$$$
