AV-unprocessed.smi:685|AV-procd|sdf|3335|dock10
  -GOLD-   22720 0303D 1   1.00000     0.00000
 Structure written by MMmdl.
 51 52  0  0  0  0  0  0  0  0  2 V2000
  146.9624  141.8667  153.8411 C   0  0  0  0  0  0  0  0  0  0  0  0
  148.2528  141.4577  154.4688 C   0  0  0  0  0  0  0  0  0  0  0  0
  148.9789  142.2396  155.3117 N   0  3  0  0  0  0  0  0  0  0  0  0
  150.0864  141.5937  155.7048 N   0  0  0  0  0  0  0  0  0  0  0  0
  151.0110  142.2636  156.6197 C   0  0  0  0  0  0  0  0  0  0  0  0
  150.1342  140.3535  155.1397 C   0  0  0  0  0  0  0  0  0  0  0  0
  151.2285  139.3598  155.3580 C   0  0  0  0  0  0  0  0  0  0  0  0
  148.9754  140.2643  154.3575 C   0  0  0  0  0  0  0  0  0  0  0  0
  148.5620  139.0833  153.5248 C   0  0  0  0  0  0  0  0  0  0  0  0
  147.1388  138.5810  153.8512 C   0  0  2  0  0  0  0  0  0  0  0  0
  146.9737  138.1726  155.3232 C   0  0  0  0  0  0  0  0  0  0  0  0
  146.7940  137.4466  152.9992 N   0  0  0  0  0  0  0  0  0  0  0  0
  145.5528  136.9718  152.8084 C   0  0  0  0  0  0  0  0  0  0  0  0
  144.5542  137.4705  153.3294 O   0  0  0  0  0  0  0  0  0  0  0  0
  145.4291  135.7573  151.8831 C   0  0  0  0  0  0  0  0  0  0  0  0
  145.1994  134.4367  152.6434 C   0  0  0  0  0  0  0  0  0  0  0  0
  145.1107  133.2114  151.7162 C   0  0  0  0  0  0  0  0  0  0  0  0
  146.2958  133.0890  150.7555 C   0  0  0  0  0  0  0  0  0  0  0  0
  145.8112  132.1538  149.6431 C   0  0  0  0  0  0  0  0  0  0  0  0
  144.2779  132.2486  149.6403 C   0  0  0  0  0  0  0  0  0  0  0  0
  143.9034  133.2116  150.7728 C   0  0  0  0  0  0  0  0  0  0  0  0
  146.9597  141.6125  152.7811 H   0  0  0  0  0  0  0  0  0  0  0  0
  146.8114  142.9421  153.9388 H   0  0  0  0  0  0  0  0  0  0  0  0
  146.1304  141.3536  154.3237 H   0  0  0  0  0  0  0  0  0  0  0  0
  152.0359  142.0539  156.3124 H   0  0  0  0  0  0  0  0  0  0  0  0
  150.8473  141.8855  157.6292 H   0  0  0  0  0  0  0  0  0  0  0  0
  150.8438  143.3412  156.6000 H   0  0  0  0  0  0  0  0  0  0  0  0
  150.8395  138.3434  155.3062 H   0  0  0  0  0  0  0  0  0  0  0  0
  151.6852  139.4974  156.3382 H   0  0  0  0  0  0  0  0  0  0  0  0
  151.9977  139.4772  154.5948 H   0  0  0  0  0  0  0  0  0  0  0  0
  148.6178  139.3600  152.4713 H   0  0  0  0  0  0  0  0  0  0  0  0
  149.2735  138.2653  153.6416 H   0  0  0  0  0  0  0  0  0  0  0  0
  146.4255  139.3827  153.6517 H   0  0  0  0  0  0  0  0  0  0  0  0
  147.1482  139.0149  155.9929 H   0  0  0  0  0  0  0  0  0  0  0  0
  147.6702  137.3791  155.5960 H   0  0  0  0  0  0  0  0  0  0  0  0
  145.9639  137.8092  155.5176 H   0  0  0  0  0  0  0  0  0  0  0  0
  147.5564  136.9801  152.5286 H   0  0  0  0  0  0  0  0  0  0  0  0
  144.6053  135.9368  151.1916 H   0  0  0  0  0  0  0  0  0  0  0  0
  146.3344  135.6817  151.2797 H   0  0  0  0  0  0  0  0  0  0  0  0
  145.9951  134.2867  153.3746 H   0  0  0  0  0  0  0  0  0  0  0  0
  144.2713  134.5051  153.2129 H   0  0  0  0  0  0  0  0  0  0  0  0
  145.0749  132.3056  152.3241 H   0  0  0  0  0  0  0  0  0  0  0  0
  146.5309  134.0657  150.3298 H   0  0  0  0  0  0  0  0  0  0  0  0
  147.1962  132.7189  151.2468 H   0  0  0  0  0  0  0  0  0  0  0  0
  146.2400  132.4265  148.6782 H   0  0  0  0  0  0  0  0  0  0  0  0
  146.1160  131.1286  149.8572 H   0  0  0  0  0  0  0  0  0  0  0  0
  143.8936  132.5970  148.6811 H   0  0  0  0  0  0  0  0  0  0  0  0
  143.8471  131.2636  149.8251 H   0  0  0  0  0  0  0  0  0  0  0  0
  142.9799  132.9188  151.2732 H   0  0  0  0  0  0  0  0  0  0  0  0
  143.7528  134.2111  150.3625 H   0  0  0  0  0  0  0  0  0  0  0  0
  148.7769  143.1772  155.6356 H   0  0  0  0  0  0  0  0  0  0  0  0
  1  2  1  0  0  0  0
  1 22  1  0  0  0  0
  1 23  1  0  0  0  0
  1 24  1  0  0  0  0
  2  8  1  0  0  0  0
  2  3  2  0  0  0  0
  3  4  1  0  0  0  0
  3 51  1  0  0  0  0
  4  5  1  0  0  0  0
  4  6  1  0  0  0  0
  5 25  1  0  0  0  0
  5 26  1  0  0  0  0
  5 27  1  0  0  0  0
  6  7  1  0  0  0  0
  6  8  2  0  0  0  0
  7 28  1  0  0  0  0
  7 29  1  0  0  0  0
  7 30  1  0  0  0  0
  8  9  1  0  0  0  0
  9 10  1  0  0  0  0
  9 31  1  0  0  0  0
  9 32  1  0  0  0  0
 10 11  1  0  0  0  0
 10 12  1  0  0  0  0
 10 33  1  0  0  0  0
 11 34  1  0  0  0  0
 11 35  1  0  0  0  0
 11 36  1  0  0  0  0
 12 13  1  0  0  0  0
 12 37  1  0  0  0  0
 13 14  2  0  0  0  0
 13 15  1  0  0  0  0
 15 16  1  0  0  0  0
 15 38  1  0  0  0  0
 15 39  1  0  0  0  0
 16 17  1  0  0  0  0
 16 40  1  0  0  0  0
 16 41  1  0  0  0  0
 17 21  1  0  0  0  0
 17 18  1  0  0  0  0
 17 42  1  0  0  0  0
 18 19  1  0  0  0  0
 18 43  1  0  0  0  0
 18 44  1  0  0  0  0
 19 20  1  0  0  0  0
 19 45  1  0  0  0  0
 19 46  1  0  0  0  0
 20 21  1  0  0  0  0
 20 47  1  0  0  0  0
 20 48  1  0  0  0  0
 21 49  1  0  0  0  0
 21 50  1  0  0  0  0
M  CHG  1   3   1
M  END
> <s_m_source_file>
AV-unprocessed.smi

> <i_m_source_file_index>
685

> <i_lp_mmshare_version>
43012

> <i_f3d_flags>
0

> <s_epik_input>
W0NIM11jMW5uKFtDSDNdKWMoW0NIM10pYzFbQ0gyXVtDQEhdKFtDSDNdKVtOSF1DKD1PKVtDSDJdW0NIMl1bQ0hdMltDSDJdW0NIMl1bQ0gyXVtDSDJdMg==

> <s_epik_cmdline>
J2VwaWtfcHl0aG9uJywgJy1waCcsICc3LjAnLCAnLXRuJywgJzgnLCAnLW1hJywgJzIwMCcsICctbWV0YWxfYmluZGluZycsICctaW1hZScsICc8aW5maWxlLm1hZT4nLCAnLW9tYWUnLCAnPG91dGZpbGUubWFlPic=

> <r_lp_tautomer_probability>
1

> <r_epik_Ionization_Penalty>
2.26429

> <r_epik_Ionization_Penalty_Charging>
2.26429

> <r_epik_Ionization_Penalty_Neutral>
2.3289e-07

> <r_epik_State_Penalty>
2.41237

> <r_epik_Charging_Adjusted_Penalty>
4.67666

> <i_epik_Tot_Q>
1

> <i_epik_Tot_abs_Q>
1

> <r_epik_Metal_State_Penalty>
2.42525

> <b_epik_Metal_Only>
0

> <s_lp_Force_Field>
OPLS_2005

> <r_lp_Energy>
28.552

> <b_lp_Chiralities_Consistent>
1

> <s_lp_Variant>
AV-unprocessed.smi:685-3

> <Gold.Version>
5.8.1

> <Gold.Id.Protein>
6NUR|6NUR_protein|mol2

> <Gold.PLP.Fitness>
49.6006

> <Gold.PLP.PLP>
-41.4100

> <Gold.PLP.part.hbond>
-1.8696

> <Gold.PLP.part.metal>
0.0000

> <Gold.PLP.part.buried>
-3.6413

> <Gold.PLP.part.nonpolar>
-37.3292

> <Gold.PLP.part.repulsive>
0.3791

> <Gold.PLP.ligand.clash>
0.0000

> <Gold.PLP.ligand.torsion>
0.4313

> <Gold.PLP.Chemscore.Hbond>
3.0000

> <Gold.PLP.Chemscore.CHOScore>
0.0000

> <Gold.PLP.Chemscore.Metal>
0.0000

> <Gold.Chemscore.Hbonds>
donor molecule, donor type, donor heavy atom, donor atom, acceptor molecule, acceptor atom, score
      L1  H     3    51       P1  8028  2.00
      L1  H    12    37       P1  7948  1.00

> <Gold.PLP.Chemscore.Internal.Correction>
0.0532

> <Gold.Rescore>
     Score         DG    S(hbond)    S(metal)    S(lipo)     H(rot)  DE(clash)    DE(int)     intcor
     19.34     -20.86       1.96        0.00     110.83       1.61       1.26       0.27       ----

> <Gold.Chemscore.Fitness>
19.3353

> <Gold.Chemscore.DG>
-20.8595

> <Gold.Chemscore.ZeroCoef>
-5.4800

> <Gold.Chemscore.Hbond>
1.9560

> <Gold.Chemscore.Metal>
0.0000

> <Gold.Chemscore.Lipo>
110.8262

> <Gold.Chemscore.Internal_Hbond>
0.0000

> <Gold.Chemscore.DEClash>
1.2558

> <Gold.Chemscore.DEInternal>
0.2685

> <Gold.Chemscore.Rot>
1.6095

> <Gold.Chemscore.Internal.Correction>
   9.000000E+99

> <Gold.Chemscore.Hbonds>
donor molecule, donor type, donor heavy atom, donor atom, acceptor molecule, acceptor atom, score
      L1  H     3    51       P1  8028  0.93
      L1  H    12    37       P1  7948  1.00

> <Gold.Chemscore.Hbond.Weighted>
-6.5331

> <Gold.Chemscore.Metal.Weighted>
-0.0000

> <Gold.Chemscore.Lipo.Weighted>
-12.9667

> <Gold.Chemscore.Internal_Hbond.Weighted>
0.0000

> <Gold.Chemscore.DEClash.Weighted>
1.2558

> <Gold.Chemscore.DEInternal.Weighted>
0.2685

> <Gold.Chemscore.Rot.Weighted>
4.1202

> <Gold.Chemscore.Internal.Correction.Weighted>
   9.000000E+99

> <Gold.Protein.RotatedTorsions>
[ 6907 6896 6895 6894 ] final   11.69 input  -60.11 | X-H torsion
[ 7974 7965 7964 7962 ] final   29.87 input  175.53 | X-H torsion
[ 8008 7997 7996 7995 ] final -127.52 input   59.86 | X-H torsion
[ 10167 10162 10161 10158 ] final  -23.18 input  -65.29 | X-H torsion
[ 10718 10713 10712 10709 ] final    8.72 input   66.30 | X-H torsion
[ 10763 10752 10751 10750 ] final  -38.54 input  -60.55 | X-H torsion
[ 11005 11000 10999 10996 ] final   23.66 input  -57.11 | X-H torsion

> <Gold.Protein.ActiveResidues>
 VAL166  LYS551  ARG553  GLY616  TRP617  ASP618  TYR619  PRO620  LYS621  CYS622 
 ASP623  PHE694  ASN695  SER759  ASP760  ASP761  ALA762  ILE779  LEU786  VAL792 
 PHE793  MET794  SER795  GLU796  ALA797  LYS798  CYS799  TRP800  GLU811  SER814 

> <Gold.Protein.RotatedAtoms>
  151.7583  135.0816  160.0341 H   0  0  0  0  0  0  0  0  0  0  0  0  # atno 6907 bound_to 6896
  152.3370  133.6019  159.5858 H   0  0  0  0  0  0  0  0  0  0  0  0  # atno 6908 bound_to 6896
  150.7456  133.9696  159.3583 H   0  0  0  0  0  0  0  0  0  0  0  0  # atno 6909 bound_to 6896
  146.1646  139.6864  142.9010 H   0  0  0  0  0  0  0  0  0  0  0  0  # atno 7974 bound_to 7965
  155.2475  140.0431  157.2982 H   0  0  0  0  0  0  0  0  0  0  0  0  # atno 8008 bound_to 7997
  154.5790  140.2395  155.8051 H   0  0  0  0  0  0  0  0  0  0  0  0  # atno 8009 bound_to 7997
  156.2179  140.2979  155.9890 H   0  0  0  0  0  0  0  0  0  0  0  0  # atno 8010 bound_to 7997
  140.7287  143.4466  151.0577 H   0  0  0  0  0  0  0  0  0  0  0  0  # atno 10167 bound_to 10162
  156.9557  130.5914  149.5659 H   0  0  0  0  0  0  0  0  0  0  0  0  # atno 10718 bound_to 10713
  153.9146  135.6789  153.4750 H   0  0  0  0  0  0  0  0  0  0  0  0  # atno 10763 bound_to 10752
  153.1061  135.4805  154.8950 H   0  0  0  0  0  0  0  0  0  0  0  0  # atno 10764 bound_to 10752
  154.7510  135.3185  154.8514 H   0  0  0  0  0  0  0  0  0  0  0  0  # atno 10765 bound_to 10752
  140.3672  134.2061  155.7668 H   0  0  0  0  0  0  0  0  0  0  0  0  # atno 11005 bound_to 11000
  145.4501  141.0428  143.2809 LP  0  0  0  0  0  0  0  0  0  0  0  0  # atno 17320 bound_to 7965
  144.8074  139.6026  143.7045 LP  0  0  0  0  0  0  0  0  0  0  0  0  # atno 17321 bound_to 7965
  139.8139  143.7913  152.3173 LP  0  0  0  0  0  0  0  0  0  0  0  0  # atno 17342 bound_to 10162
  139.7972  144.7388  150.9874 LP  0  0  0  0  0  0  0  0  0  0  0  0  # atno 17343 bound_to 10162
  156.0343  130.5432  150.8615 LP  0  0  0  0  0  0  0  0  0  0  0  0  # atno 17370 bound_to 10713
  157.5691  131.0946  150.9444 LP  0  0  0  0  0  0  0  0  0  0  0  0  # atno 17371 bound_to 10713
  141.1966  133.8079  157.0665 LP  0  0  0  0  0  0  0  0  0  0  0  0  # atno 17394 bound_to 11000
  140.0580  134.9770  157.1254 LP  0  0  0  0  0  0  0  0  0  0  0  0  # atno 17395 bound_to 11000

$$$$
