AV-unprocessed.smi:1591|AV-procd|sdf|6399|dock2
  -GOLD-   22720 7 33D 1   1.00000     0.00000
 Structure written by MMmdl.
 51 54  0  0  0  0  0  0  0  0  2 V2000
  149.4764  133.5437  153.8098 C   0  0  0  0  0  0  0  0  0  0  0  0
  148.1068  133.1817  154.4047 C   0  0  0  0  0  0  0  0  0  0  0  0
  147.0523  134.3099  154.2811 C   0  0  2  0  0  0  0  0  0  0  0  0
  146.3143  134.4091  155.5426 N   0  0  0  0  0  0  0  0  0  0  0  0
  146.8281  134.7172  156.7436 C   0  0  0  0  0  0  0  0  0  0  0  0
  148.0303  134.8771  156.9521 O   0  0  0  0  0  0  0  0  0  0  0  0
  145.8160  134.8842  157.8801 C   0  0  0  0  0  0  0  0  0  0  0  0
  146.4590  135.4653  159.0683 N   0  0  0  0  0  0  0  0  0  0  0  0
  146.5271  134.6591  160.2188 C   0  0  0  0  0  0  0  0  0  0  0  0
  147.0632  135.1056  161.3701 C   0  0  0  0  0  0  0  0  0  0  0  0
  147.5825  136.4668  161.4062 C   0  0  0  0  0  0  0  0  0  0  0  0
  148.0747  136.8922  162.4495 O   0  0  0  0  0  0  0  0  0  0  0  0
  147.4944  137.2101  160.2645 N   0  5  0  0  0  0  0  0  0  0  0  0
  146.9438  136.7433  159.1007 C   0  0  0  0  0  0  0  0  0  0  0  0
  146.8706  137.4345  158.0846 O   0  0  0  0  0  0  0  0  0  0  0  0
  146.0599  134.1756  153.0751 C   0  0  0  0  0  0  0  0  0  0  0  0
  145.3371  132.7967  153.0595 C   0  0  0  0  0  0  0  0  0  0  0  0
  144.3532  132.7094  151.8720 C   0  0  1  0  0  0  0  0  0  0  0  0
  143.2870  133.8167  151.9974 C   0  0  0  0  0  0  0  0  0  0  0  0
  143.9828  135.1926  151.9762 C   0  0  2  0  0  0  0  0  0  0  0  0
  144.7493  135.3725  150.6519 C   0  0  0  0  0  0  0  0  0  0  0  0
  145.8102  134.2615  150.5329 C   0  0  2  0  0  0  0  0  0  0  0  0
  145.1219  132.8808  150.5454 C   0  0  0  0  0  0  0  0  0  0  0  0
  146.7977  134.3540  151.7159 C   0  0  0  0  0  0  0  0  0  0  0  0
  144.9668  135.2855  153.1595 C   0  0  0  0  0  0  0  0  0  0  0  0
  150.1546  132.6914  153.8580 H   0  0  0  0  0  0  0  0  0  0  0  0
  149.9471  134.3661  154.3491 H   0  0  0  0  0  0  0  0  0  0  0  0
  149.3851  133.8359  152.7633 H   0  0  0  0  0  0  0  0  0  0  0  0
  147.7622  132.2872  153.8891 H   0  0  0  0  0  0  0  0  0  0  0  0
  148.2431  132.9007  155.4489 H   0  0  0  0  0  0  0  0  0  0  0  0
  147.6153  135.2319  154.1253 H   0  0  0  0  0  0  0  0  0  0  0  0
  145.3133  134.2922  155.4844 H   0  0  0  0  0  0  0  0  0  0  0  0
  144.9876  135.5157  157.5542 H   0  0  0  0  0  0  0  0  0  0  0  0
  145.3649  133.9160  158.1022 H   0  0  0  0  0  0  0  0  0  0  0  0
  146.1126  133.6676  160.1093 H   0  0  0  0  0  0  0  0  0  0  0  0
  147.1043  134.4740  162.2451 H   0  0  0  0  0  0  0  0  0  0  0  0
  146.0600  131.9844  152.9841 H   0  0  0  0  0  0  0  0  0  0  0  0
  144.7919  132.6347  153.9901 H   0  0  0  0  0  0  0  0  0  0  0  0
  143.8634  131.7352  151.8816 H   0  0  0  0  0  0  0  0  0  0  0  0
  142.5672  133.7440  151.1812 H   0  0  0  0  0  0  0  0  0  0  0  0
  142.7201  133.6940  152.9213 H   0  0  0  0  0  0  0  0  0  0  0  0
  143.2319  135.9782  152.0683 H   0  0  0  0  0  0  0  0  0  0  0  0
  144.0609  135.3326  149.8067 H   0  0  0  0  0  0  0  0  0  0  0  0
  145.2235  136.3541  150.6188 H   0  0  0  0  0  0  0  0  0  0  0  0
  146.3560  134.3838  149.5969 H   0  0  0  0  0  0  0  0  0  0  0  0
  145.8616  132.0876  150.4308 H   0  0  0  0  0  0  0  0  0  0  0  0
  144.4398  132.7910  149.6990 H   0  0  0  0  0  0  0  0  0  0  0  0
  147.3192  135.3119  151.6916 H   0  0  0  0  0  0  0  0  0  0  0  0
  147.5579  133.5860  151.5792 H   0  0  0  0  0  0  0  0  0  0  0  0
  144.3949  135.2052  154.0840 H   0  0  0  0  0  0  0  0  0  0  0  0
  145.4317  136.2723  153.1777 H   0  0  0  0  0  0  0  0  0  0  0  0
  1  2  1  0  0  0  0
  1 26  1  0  0  0  0
  1 27  1  0  0  0  0
  1 28  1  0  0  0  0
  2  3  1  0  0  0  0
  2 29  1  0  0  0  0
  2 30  1  0  0  0  0
  3  4  1  0  0  0  0
  3 16  1  0  0  0  0
  3 31  1  0  0  0  0
  4  5  1  0  0  0  0
  4 32  1  0  0  0  0
  5  6  2  0  0  0  0
  5  7  1  0  0  0  0
  7  8  1  0  0  0  0
  7 33  1  0  0  0  0
  7 34  1  0  0  0  0
  8 14  1  0  0  0  0
  8  9  1  0  0  0  0
  9 10  2  0  0  0  0
  9 35  1  0  0  0  0
 10 11  1  0  0  0  0
 10 36  1  0  0  0  0
 11 12  2  0  0  0  0
 11 13  1  0  0  0  0
 13 14  1  0  0  0  0
 14 15  2  0  0  0  0
 16 24  1  0  0  0  0
 16 25  1  0  0  0  0
 16 17  1  0  0  0  0
 17 18  1  0  0  0  0
 17 37  1  0  0  0  0
 17 38  1  0  0  0  0
 18 23  1  0  0  0  0
 18 19  1  0  0  0  0
 18 39  1  0  0  0  0
 19 20  1  0  0  0  0
 19 40  1  0  0  0  0
 19 41  1  0  0  0  0
 20 21  1  0  0  0  0
 20 25  1  0  0  0  0
 20 42  1  0  0  0  0
 21 22  1  0  0  0  0
 21 43  1  0  0  0  0
 21 44  1  0  0  0  0
 22 23  1  0  0  0  0
 22 24  1  0  0  0  0
 22 45  1  0  0  0  0
 23 46  1  0  0  0  0
 23 47  1  0  0  0  0
 24 48  1  0  0  0  0
 24 49  1  0  0  0  0
 25 50  1  0  0  0  0
 25 51  1  0  0  0  0
M  CHG  1  13  -1
M  END
> <s_m_source_file>
AV-unprocessed.smi

> <i_m_source_file_index>
1591

> <i_lp_mmshare_version>
43012

> <i_f3d_flags>
0

> <s_epik_input>
W0NIMl0xW0NASF0oW0NIMl0yKVtDSDJdW0NASF0oW0NIMl0zKVtDSDJdW0NAQEhdMVtDSDJdQzIzW0NASF0oW0NIMl1bQ0gzXSlbTkhdQyg9TylbQ0gyXW40W2NIXVtjSF1jKD1PKVtuSF1jND1P

> <s_epik_cmdline>
J2VwaWtfcHl0aG9uJywgJy1waCcsICc3LjAnLCAnLXRuJywgJzgnLCAnLW1hJywgJzIwMCcsICctbWV0YWxfYmluZGluZycsICctaW1hZScsICc8aW5maWxlLm1hZT4nLCAnLW9tYWUnLCAnPG91dGZpbGUubWFlPic=

> <r_lp_tautomer_probability>
0.999537

> <r_epik_Ionization_Penalty>
3.13902

> <r_epik_Ionization_Penalty_Charging>
2.97334e-08

> <r_epik_Ionization_Penalty_Neutral>
3.13902

> <r_epik_State_Penalty>
3.13814

> <r_epik_Charging_Adjusted_Penalty>
3.13814

> <i_epik_Tot_Q>
-1

> <i_epik_Tot_abs_Q>
1

> <r_epik_Metal_State_Penalty>
0.465244

> <b_epik_Metal_Only>
1

> <s_lp_Force_Field>
OPLS_2005

> <r_lp_Energy>
48.864

> <b_lp_Chiralities_Consistent>
1

> <s_lp_Variant>
AV-unprocessed.smi:1591-3

> <Gold.Version>
5.8.1

> <Gold.Id.Protein>
6NUR|6NUR_protein|mol2

> <Gold.PLP.Fitness>
35.6709

> <Gold.PLP.PLP>
-28.2076

> <Gold.PLP.part.hbond>
-2.2492

> <Gold.PLP.part.metal>
0.0000

> <Gold.PLP.part.buried>
-1.0450

> <Gold.PLP.part.nonpolar>
-24.3766

> <Gold.PLP.part.repulsive>
0.0000

> <Gold.PLP.ligand.clash>
0.0000

> <Gold.PLP.ligand.torsion>
0.8660

> <Gold.PLP.Chemscore.Hbond>
3.0000

> <Gold.PLP.Chemscore.CHOScore>
0.0000

> <Gold.PLP.Chemscore.Metal>
0.0000

> <Gold.Chemscore.Hbonds>
donor molecule, donor type, donor heavy atom, donor atom, acceptor molecule, acceptor atom, score
      P1  H  6931  6943       L1    12  1.00
      P1  H  6934  6947       L1    13  2.00

> <Gold.PLP.Chemscore.Internal.Correction>
0.1953

> <Gold.Rescore>
     Score         DG    S(hbond)    S(metal)    S(lipo)     H(rot)  DE(clash)    DE(int)     intcor
     12.01     -13.87       1.33        0.00      77.32       1.99       0.12       1.74       ----

> <Gold.Chemscore.Fitness>
12.0117

> <Gold.Chemscore.DG>
-13.8703

> <Gold.Chemscore.ZeroCoef>
-5.4800

> <Gold.Chemscore.Hbond>
1.3256

> <Gold.Chemscore.Metal>
0.0000

> <Gold.Chemscore.Lipo>
77.3196

> <Gold.Chemscore.Internal_Hbond>
0.0000

> <Gold.Chemscore.DEClash>
0.1160

> <Gold.Chemscore.DEInternal>
1.7426

> <Gold.Chemscore.Rot>
1.9858

> <Gold.Chemscore.Internal.Correction>
   9.000000E+99

> <Gold.Chemscore.Hbonds>
donor molecule, donor type, donor heavy atom, donor atom, acceptor molecule, acceptor atom, score
      P1  H  6931  6943       L1    12  0.44
      P1  H  6934  6947       L1    13  0.41

> <Gold.Chemscore.Hbond.Weighted>
-4.4276

> <Gold.Chemscore.Metal.Weighted>
-0.0000

> <Gold.Chemscore.Lipo.Weighted>
-9.0464

> <Gold.Chemscore.Internal_Hbond.Weighted>
0.0000

> <Gold.Chemscore.DEClash.Weighted>
0.1160

> <Gold.Chemscore.DEInternal.Weighted>
1.7426

> <Gold.Chemscore.Rot.Weighted>
5.0836

> <Gold.Chemscore.Internal.Correction.Weighted>
   9.000000E+99

> <Gold.Protein.RotatedTorsions>
[ 6907 6896 6895 6894 ] final  -79.80 input  -60.11 | X-H torsion
[ 7974 7965 7964 7962 ] final  -22.01 input  175.53 | X-H torsion
[ 8008 7997 7996 7995 ] final -168.50 input   59.86 | X-H torsion
[ 10167 10162 10161 10158 ] final -145.72 input  -65.29 | X-H torsion
[ 10718 10713 10712 10709 ] final -145.45 input   66.30 | X-H torsion
[ 10763 10752 10751 10750 ] final -148.68 input  -60.55 | X-H torsion
[ 11005 11000 10999 10996 ] final  113.36 input  -57.11 | X-H torsion

> <Gold.Protein.ActiveResidues>
 VAL166  LYS551  ARG553  GLY616  TRP617  ASP618  TYR619  PRO620  LYS621  CYS622 
 ASP623  PHE694  ASN695  SER759  ASP760  ASP761  ALA762  ILE779  LEU786  VAL792 
 PHE793  MET794  SER795  GLU796  ALA797  LYS798  CYS799  TRP800  GLU811  SER814 

> <Gold.Protein.RotatedAtoms>
  150.6942  134.4067  159.5142 H   0  0  0  0  0  0  0  0  0  0  0  0  # atno 6907 bound_to 6896
  152.1832  134.8734  160.0533 H   0  0  0  0  0  0  0  0  0  0  0  0  # atno 6908 bound_to 6896
  151.9717  133.3693  159.4110 H   0  0  0  0  0  0  0  0  0  0  0  0  # atno 6909 bound_to 6896
  146.1700  140.4421  142.8536 H   0  0  0  0  0  0  0  0  0  0  0  0  # atno 7974 bound_to 7965
  155.8922  140.1027  157.1410 H   0  0  0  0  0  0  0  0  0  0  0  0  # atno 8008 bound_to 7997
  154.4016  140.1308  156.4394 H   0  0  0  0  0  0  0  0  0  0  0  0  # atno 8009 bound_to 7997
  155.7520  140.3465  155.5157 H   0  0  0  0  0  0  0  0  0  0  0  0  # atno 8010 bound_to 7997
  139.7779  143.8143  152.2634 H   0  0  0  0  0  0  0  0  0  0  0  0  # atno 10167 bound_to 10162
  156.3826  130.7845  151.2039 H   0  0  0  0  0  0  0  0  0  0  0  0  # atno 10718 bound_to 10713
  154.8219  135.3328  154.7011 H   0  0  0  0  0  0  0  0  0  0  0  0  # atno 10763 bound_to 10752
  153.7643  135.6930  153.4923 H   0  0  0  0  0  0  0  0  0  0  0  0  # atno 10764 bound_to 10752
  153.2088  135.4489  155.0304 H   0  0  0  0  0  0  0  0  0  0  0  0  # atno 10765 bound_to 10752
  139.8951  134.9548  156.6727 H   0  0  0  0  0  0  0  0  0  0  0  0  # atno 11005 bound_to 11000
  144.8149  140.6450  143.6391 LP  0  0  0  0  0  0  0  0  0  0  0  0  # atno 17320 bound_to 7965
  145.4366  139.1541  143.3993 LP  0  0  0  0  0  0  0  0  0  0  0  0  # atno 17321 bound_to 7965
  139.8197  144.7301  150.9589 LP  0  0  0  0  0  0  0  0  0  0  0  0  # atno 17342 bound_to 10162
  140.7817  143.4171  151.0900 LP  0  0  0  0  0  0  0  0  0  0  0  0  # atno 17343 bound_to 10162
  157.7493  131.0339  150.4294 LP  0  0  0  0  0  0  0  0  0  0  0  0  # atno 17370 bound_to 10713
  156.4541  130.4018  149.6617 LP  0  0  0  0  0  0  0  0  0  0  0  0  # atno 17371 bound_to 10713
  140.7360  133.9018  155.8244 LP  0  0  0  0  0  0  0  0  0  0  0  0  # atno 17394 bound_to 11000
  141.0115  134.1013  157.4216 LP  0  0  0  0  0  0  0  0  0  0  0  0  # atno 17395 bound_to 11000

$$$$
