AV-unprocessed.smi:2032|AV-procd|sdf|8248|dock2
  -GOLD-   2272010513D 1   1.00000     0.00000
 Structure written by MMmdl.
 41 42  0  0  0  0  0  0  0  0  2 V2000
  154.2926  141.3231  160.9051 C   0  0  0  0  0  0  0  0  0  0  0  0
  153.5412  141.8442  159.6758 C   0  0  1  0  0  0  0  0  0  0  0  0
  152.3651  140.9303  159.2815 C   0  0  0  0  0  0  0  0  0  0  0  0
  151.5918  141.4517  158.1496 N   0  0  0  0  0  0  0  0  0  0  0  0
  150.4480  140.5818  157.7856 C   0  0  1  0  0  0  0  0  0  0  0  0
  149.6487  141.1232  156.5727 C   0  0  0  0  0  0  0  0  0  0  0  0
  150.8608  139.1073  157.5016 C   0  0  0  0  0  0  0  0  0  0  0  0
  149.8231  138.1329  157.8314 N   0  0  0  0  0  0  0  0  0  0  0  0
  149.9497  137.1024  158.6797 C   0  0  0  0  0  0  0  0  0  0  0  0
  151.0224  136.9071  159.2557 O   0  0  0  0  0  0  0  0  0  0  0  0
  148.8228  136.3658  158.8100 N   0  5  0  0  0  0  0  0  0  0  0  0
  148.4818  135.8612  160.0070 C   0  0  0  0  0  0  0  0  0  0  0  0
  148.2900  136.6216  161.0913 N   0  0  0  0  0  0  0  0  0  0  0  0
  147.9549  135.8885  162.2312 C   0  0  0  0  0  0  0  0  0  0  0  0
  147.8988  134.5377  162.0119 C   0  0  0  0  0  0  0  0  0  0  0  0
  148.2658  134.1437  160.3564 S   0  0  0  0  0  0  0  0  0  0  0  0
  151.1726  142.8175  158.4821 C   0  0  0  0  0  0  0  0  0  0  0  0
  152.3499  143.7282  158.8801 C   0  0  1  0  0  0  0  0  0  0  0  0
  151.8828  145.1254  159.3018 C   0  0  0  0  0  0  0  0  0  0  0  0
  153.0452  143.1431  159.9736 O   0  0  0  0  0  0  0  0  0  0  0  0
  154.7045  140.3306  160.7209 H   0  0  0  0  0  0  0  0  0  0  0  0
  153.6341  141.2568  161.7716 H   0  0  0  0  0  0  0  0  0  0  0  0
  155.1205  141.9832  161.1649 H   0  0  0  0  0  0  0  0  0  0  0  0
  154.2428  141.9155  158.8427 H   0  0  0  0  0  0  0  0  0  0  0  0
  152.7901  139.9584  159.0393 H   0  0  0  0  0  0  0  0  0  0  0  0
  151.7087  140.7851  160.1410 H   0  0  0  0  0  0  0  0  0  0  0  0
  149.7617  140.5640  158.6334 H   0  0  0  0  0  0  0  0  0  0  0  0
  148.8342  140.4610  156.2814 H   0  0  0  0  0  0  0  0  0  0  0  0
  150.2933  141.2518  155.7027 H   0  0  0  0  0  0  0  0  0  0  0  0
  149.1706  142.0783  156.7837 H   0  0  0  0  0  0  0  0  0  0  0  0
  151.1096  138.9888  156.4466 H   0  0  0  0  0  0  0  0  0  0  0  0
  151.7486  138.8169  158.0619 H   0  0  0  0  0  0  0  0  0  0  0  0
  148.9272  138.2535  157.3827 H   0  0  0  0  0  0  0  0  0  0  0  0
  147.7755  136.4108  163.1591 H   0  0  0  0  0  0  0  0  0  0  0  0
  147.6669  133.7546  162.7181 H   0  0  0  0  0  0  0  0  0  0  0  0
  150.6823  143.2852  157.6305 H   0  0  0  0  0  0  0  0  0  0  0  0
  150.4422  142.7904  159.2923 H   0  0  0  0  0  0  0  0  0  0  0  0
  153.0350  143.8288  158.0363 H   0  0  0  0  0  0  0  0  0  0  0  0
  151.3487  145.6223  158.4917 H   0  0  0  0  0  0  0  0  0  0  0  0
  152.7310  145.7535  159.5752 H   0  0  0  0  0  0  0  0  0  0  0  0
  151.2148  145.0750  160.1624 H   0  0  0  0  0  0  0  0  0  0  0  0
  1  2  1  0  0  0  0
  1 21  1  0  0  0  0
  1 22  1  0  0  0  0
  1 23  1  0  0  0  0
  2 20  1  0  0  0  0
  2  3  1  0  0  0  0
  2 24  1  0  0  0  0
  3  4  1  0  0  0  0
  3 25  1  0  0  0  0
  3 26  1  0  0  0  0
  4  5  1  0  0  0  0
  4 17  1  0  0  0  0
  5  6  1  0  0  0  0
  5  7  1  0  0  0  0
  5 27  1  0  0  0  0
  6 28  1  0  0  0  0
  6 29  1  0  0  0  0
  6 30  1  0  0  0  0
  7  8  1  0  0  0  0
  7 31  1  0  0  0  0
  7 32  1  0  0  0  0
  8  9  1  0  0  0  0
  8 33  1  0  0  0  0
  9 10  2  0  0  0  0
  9 11  1  0  0  0  0
 11 12  1  0  0  0  0
 12 16  1  0  0  0  0
 12 13  2  0  0  0  0
 13 14  1  0  0  0  0
 14 15  2  0  0  0  0
 14 34  1  0  0  0  0
 15 16  1  0  0  0  0
 15 35  1  0  0  0  0
 17 18  1  0  0  0  0
 17 36  1  0  0  0  0
 17 37  1  0  0  0  0
 18 19  1  0  0  0  0
 18 20  1  0  0  0  0
 18 38  1  0  0  0  0
 19 39  1  0  0  0  0
 19 40  1  0  0  0  0
 19 41  1  0  0  0  0
M  CHG  1  11  -1
M  END
> <s_m_source_file>
AV-unprocessed.smi

> <i_m_source_file_index>
2032

> <i_lp_mmshare_version>
43012

> <i_f3d_flags>
0

> <s_epik_input>
W0NIM11bQ0BASF0xW0NIMl1OKFtDSDJdW0NASF0oTzEpW0NIM10pW0NASF0oW0NIM10pW0NIMl1bTkhdQyg9TylbTkhdYzJuW2NIXVtjSF1zMg==

> <s_epik_cmdline>
J2VwaWtfcHl0aG9uJywgJy1waCcsICc3LjAnLCAnLXRuJywgJzgnLCAnLW1hJywgJzIwMCcsICctbWV0YWxfYmluZGluZycsICctaW1hZScsICc8aW5maWxlLm1hZT4nLCAnLW9tYWUnLCAnPG91dGZpbGUubWFlPic=

> <r_lp_tautomer_probability>
0.999

> <r_epik_Ionization_Penalty>
7.22375

> <r_epik_Ionization_Penalty_Charging>
5.82415

> <r_epik_Ionization_Penalty_Neutral>
1.39959

> <r_epik_State_Penalty>
6.03347

> <r_epik_Charging_Adjusted_Penalty>
11.8576

> <i_epik_Tot_Q>
-1

> <i_epik_Tot_abs_Q>
1

> <r_epik_Metal_State_Penalty>
2.01024

> <b_epik_Metal_Only>
1

> <s_lp_Force_Field>
OPLS_2005

> <r_lp_Energy>
22.8045

> <b_lp_Chiralities_Consistent>
1

> <s_lp_Variant>
AV-unprocessed.smi:2032-18

> <Gold.Version>
5.8.1

> <Gold.Id.Protein>
6NUR|6NUR_protein|mol2

> <Gold.PLP.Fitness>
49.9805

> <Gold.PLP.PLP>
-43.8319

> <Gold.PLP.part.hbond>
-3.1795

> <Gold.PLP.part.metal>
0.0000

> <Gold.PLP.part.buried>
-6.4403

> <Gold.PLP.part.nonpolar>
-34.1877

> <Gold.PLP.part.repulsive>
0.1093

> <Gold.PLP.ligand.clash>
0.0000

> <Gold.PLP.ligand.torsion>
1.1623

> <Gold.PLP.Chemscore.Hbond>
2.7753

> <Gold.PLP.Chemscore.CHOScore>
0.0000

> <Gold.PLP.Chemscore.Metal>
0.0000

> <Gold.Chemscore.Hbonds>
donor molecule, donor type, donor heavy atom, donor atom, acceptor molecule, acceptor atom, score
      P1  H  6896  6908       L1    10  1.00
      P1  H  6931  6943       L1    13  1.00

> <Gold.PLP.Chemscore.Internal.Correction>
0.1474

> <Gold.Rescore>
     Score         DG    S(hbond)    S(metal)    S(lipo)     H(rot)  DE(clash)    DE(int)     intcor
     20.27     -21.07       2.41        0.00      98.17       1.54       0.02       0.79       ----

> <Gold.Chemscore.Fitness>
20.2682

> <Gold.Chemscore.DG>
-21.0749

> <Gold.Chemscore.ZeroCoef>
-5.4800

> <Gold.Chemscore.Hbond>
2.4129

> <Gold.Chemscore.Metal>
0.0000

> <Gold.Chemscore.Lipo>
98.1717

> <Gold.Chemscore.Internal_Hbond>
0.0000

> <Gold.Chemscore.DEClash>
0.0203

> <Gold.Chemscore.DEInternal>
0.7865

> <Gold.Chemscore.Rot>
1.5431

> <Gold.Chemscore.Internal.Correction>
   9.000000E+99

> <Gold.Chemscore.Hbonds>
donor molecule, donor type, donor heavy atom, donor atom, acceptor molecule, acceptor atom, score
      P1  H  6896  6908       L1    10  0.85
      P1  H  6931  6943       L1    13  0.29

> <Gold.Chemscore.Hbond.Weighted>
-8.0591

> <Gold.Chemscore.Metal.Weighted>
-0.0000

> <Gold.Chemscore.Lipo.Weighted>
-11.4861

> <Gold.Chemscore.Internal_Hbond.Weighted>
0.0000

> <Gold.Chemscore.DEClash.Weighted>
0.0203

> <Gold.Chemscore.DEInternal.Weighted>
0.7865

> <Gold.Chemscore.Rot.Weighted>
3.9503

> <Gold.Chemscore.Internal.Correction.Weighted>
   9.000000E+99

> <Gold.Protein.RotatedTorsions>
[ 6907 6896 6895 6894 ] final -142.36 input  -60.11 | X-H torsion
[ 7974 7965 7964 7962 ] final -155.22 input  175.53 | X-H torsion
[ 8008 7997 7996 7995 ] final  115.73 input   59.86 | X-H torsion
[ 10167 10162 10161 10158 ] final  -67.13 input  -65.29 | X-H torsion
[ 10718 10713 10712 10709 ] final    2.26 input   66.30 | X-H torsion
[ 10763 10752 10751 10750 ] final   72.40 input  -60.55 | X-H torsion
[ 11005 11000 10999 10996 ] final  -38.12 input  -57.11 | X-H torsion

> <Gold.Protein.ActiveResidues>
 VAL166  LYS551  ARG553  GLY616  TRP617  ASP618  TYR619  PRO620  LYS621  CYS622 
 ASP623  PHE694  ASN695  SER759  ASP760  ASP761  ALA762  ILE779  LEU786  VAL792 
 PHE793  MET794  SER795  GLU796  ALA797  LYS798  CYS799  TRP800  GLU811  SER814 

> <Gold.Protein.RotatedAtoms>
  151.0860  133.5353  159.2617 H   0  0  0  0  0  0  0  0  0  0  0  0  # atno 6907 bound_to 6896
  151.2238  135.0528  159.8970 H   0  0  0  0  0  0  0  0  0  0  0  0  # atno 6908 bound_to 6896
  152.5429  134.0658  159.8226 H   0  0  0  0  0  0  0  0  0  0  0  0  # atno 6909 bound_to 6896
  144.7651  140.4280  143.5948 H   0  0  0  0  0  0  0  0  0  0  0  0  # atno 7974 bound_to 7965
  156.2398  140.2932  156.0414 H   0  0  0  0  0  0  0  0  0  0  0  0  # atno 8008 bound_to 7997
  155.1984  140.0409  157.2930 H   0  0  0  0  0  0  0  0  0  0  0  0  # atno 8009 bound_to 7997
  154.6147  140.2461  155.7631 H   0  0  0  0  0  0  0  0  0  0  0  0  # atno 8010 bound_to 7997
  140.5606  143.2313  151.6735 H   0  0  0  0  0  0  0  0  0  0  0  0  # atno 10167 bound_to 10162
  156.8603  130.5584  149.5663 H   0  0  0  0  0  0  0  0  0  0  0  0  # atno 10718 bound_to 10713
  153.0456  135.5101  154.7738 H   0  0  0  0  0  0  0  0  0  0  0  0  # atno 10763 bound_to 10752
  154.6640  135.2943  154.9831 H   0  0  0  0  0  0  0  0  0  0  0  0  # atno 10764 bound_to 10752
  154.0672  135.6682  153.4872 H   0  0  0  0  0  0  0  0  0  0  0  0  # atno 10765 bound_to 10752
  141.0003  133.6958  156.2011 H   0  0  0  0  0  0  0  0  0  0  0  0  # atno 11005 bound_to 11000
  145.6497  139.1563  143.2869 LP  0  0  0  0  0  0  0  0  0  0  0  0  # atno 17320 bound_to 7965
  146.1750  140.6586  142.9215 LP  0  0  0  0  0  0  0  0  0  0  0  0  # atno 17321 bound_to 7965
  139.5068  144.3668  152.0509 LP  0  0  0  0  0  0  0  0  0  0  0  0  # atno 17342 bound_to 10162
  140.2794  144.3876  150.6124 LP  0  0  0  0  0  0  0  0  0  0  0  0  # atno 17343 bound_to 10162
  156.0780  130.5797  150.9510 LP  0  0  0  0  0  0  0  0  0  0  0  0  # atno 17370 bound_to 10713
  157.6253  131.0926  150.8544 LP  0  0  0  0  0  0  0  0  0  0  0  0  # atno 17371 bound_to 10713
  140.6899  134.4677  157.5588 LP  0  0  0  0  0  0  0  0  0  0  0  0  # atno 17394 bound_to 11000
  139.9035  134.8501  156.1797 LP  0  0  0  0  0  0  0  0  0  0  0  0  # atno 17395 bound_to 11000

$$$$
