AV-unprocessed.smi:1992|AV-procd|sdf|8069|dock6
  -GOLD-   2272010273D 1   1.00000     0.00000
 Structure written by MMmdl.
 46 47  0  0  0  0  0  0  0  0  2 V2000
  152.3436  140.0930  158.9715 C   0  0  0  0  0  0  0  0  0  0  0  0
  152.5109  140.1073  157.5580 O   0  0  0  0  0  0  0  0  0  0  0  0
  151.6466  139.3556  156.7887 C   0  0  0  0  0  0  0  0  0  0  0  0
  151.8409  139.3220  155.3937 C   0  0  0  0  0  0  0  0  0  0  0  0
  150.9604  138.5583  154.6050 C   0  0  0  0  0  0  0  0  0  0  0  0
  149.9201  137.8425  155.2308 C   0  0  0  0  0  0  0  0  0  0  0  0
  149.0351  137.0958  154.4076 N   0  0  0  0  0  0  0  0  0  0  0  0
  147.8077  136.6358  154.7040 C   0  0  0  0  0  0  0  0  0  0  0  0
  147.2395  136.7682  155.7871 O   0  0  0  0  0  0  0  0  0  0  0  0
  147.2746  135.9787  153.6645 N   0  0  0  0  0  0  0  0  0  0  0  0
  145.9566  135.3445  153.6450 C   0  0  0  0  0  0  0  0  0  0  0  0
  145.5925  134.7102  152.2649 C   0  0  0  0  0  0  0  0  0  0  0  0
  146.8038  134.0137  151.6991 N   0  3  0  0  0  0  0  0  0  0  0  0
  146.5795  133.3811  150.3741 C   0  0  0  0  0  0  0  0  0  0  0  0
  147.5242  133.0860  152.6075 C   0  0  0  0  0  0  0  0  0  0  0  0
  144.3507  133.7938  152.4195 C   0  0  0  0  0  0  0  0  0  0  0  0
  143.1477  134.7388  152.5069 C   0  0  0  0  0  0  0  0  0  0  0  0
  143.5630  136.0057  151.7465 C   0  0  0  0  0  0  0  0  0  0  0  0
  145.0246  135.7946  151.3242 C   0  0  0  0  0  0  0  0  0  0  0  0
  149.8013  137.9489  156.6383 C   0  0  0  0  0  0  0  0  0  0  0  0
  150.6408  138.6822  157.3998 N   0  0  0  0  0  0  0  0  0  0  0  0
  153.0963  140.7339  159.4304 H   0  0  0  0  0  0  0  0  0  0  0  0
  152.4720  139.0888  159.3782 H   0  0  0  0  0  0  0  0  0  0  0  0
  151.3633  140.4746  159.2613 H   0  0  0  0  0  0  0  0  0  0  0  0
  152.6490  139.8741  154.9370 H   0  0  0  0  0  0  0  0  0  0  0  0
  151.0877  138.5218  153.5329 H   0  0  0  0  0  0  0  0  0  0  0  0
  149.4024  136.8378  153.5035 H   0  0  0  0  0  0  0  0  0  0  0  0
  147.8123  135.9350  152.8112 H   0  0  0  0  0  0  0  0  0  0  0  0
  145.8742  134.6193  154.4554 H   0  0  0  0  0  0  0  0  0  0  0  0
  145.2350  136.1180  153.9059 H   0  0  0  0  0  0  0  0  0  0  0  0
  145.9145  132.5204  150.4509 H   0  0  0  0  0  0  0  0  0  0  0  0
  147.5236  133.0325  149.9542 H   0  0  0  0  0  0  0  0  0  0  0  0
  146.1564  134.0776  149.6521 H   0  0  0  0  0  0  0  0  0  0  0  0
  146.8626  132.3169  153.0067 H   0  0  0  0  0  0  0  0  0  0  0  0
  147.9882  133.6219  153.4353 H   0  0  0  0  0  0  0  0  0  0  0  0
  148.3367  132.5834  152.0817 H   0  0  0  0  0  0  0  0  0  0  0  0
  144.1783  133.1841  151.5343 H   0  0  0  0  0  0  0  0  0  0  0  0
  144.4106  133.1092  153.2644 H   0  0  0  0  0  0  0  0  0  0  0  0
  142.2486  134.2861  152.0876 H   0  0  0  0  0  0  0  0  0  0  0  0
  142.9308  134.9807  153.5481 H   0  0  0  0  0  0  0  0  0  0  0  0
  142.9259  136.1852  150.8797 H   0  0  0  0  0  0  0  0  0  0  0  0
  143.4750  136.8753  152.3989 H   0  0  0  0  0  0  0  0  0  0  0  0
  145.5930  136.7249  151.3500 H   0  0  0  0  0  0  0  0  0  0  0  0
  145.0370  135.4441  150.2916 H   0  0  0  0  0  0  0  0  0  0  0  0
  149.0093  137.4608  157.1842 H   0  0  0  0  0  0  0  0  0  0  0  0
  147.4660  134.7571  151.5291 H   0  0  0  0  0  0  0  0  0  0  0  0
  1  2  1  0  0  0  0
  1 22  1  0  0  0  0
  1 23  1  0  0  0  0
  1 24  1  0  0  0  0
  2  3  1  0  0  0  0
  3 21  1  0  0  0  0
  3  4  2  0  0  0  0
  4  5  1  0  0  0  0
  4 25  1  0  0  0  0
  5  6  2  0  0  0  0
  5 26  1  0  0  0  0
  6  7  1  0  0  0  0
  6 20  1  0  0  0  0
  7  8  1  0  0  0  0
  7 27  1  0  0  0  0
  8  9  2  0  0  0  0
  8 10  1  0  0  0  0
 10 11  1  0  0  0  0
 10 28  1  0  0  0  0
 11 12  1  0  0  0  0
 11 29  1  0  0  0  0
 11 30  1  0  0  0  0
 12 19  1  0  0  0  0
 12 13  1  0  0  0  0
 12 16  1  0  0  0  0
 13 14  1  0  0  0  0
 13 15  1  0  0  0  0
 13 46  1  0  0  0  0
 14 31  1  0  0  0  0
 14 32  1  0  0  0  0
 14 33  1  0  0  0  0
 15 34  1  0  0  0  0
 15 35  1  0  0  0  0
 15 36  1  0  0  0  0
 16 17  1  0  0  0  0
 16 37  1  0  0  0  0
 16 38  1  0  0  0  0
 17 18  1  0  0  0  0
 17 39  1  0  0  0  0
 17 40  1  0  0  0  0
 18 19  1  0  0  0  0
 18 41  1  0  0  0  0
 18 42  1  0  0  0  0
 19 43  1  0  0  0  0
 19 44  1  0  0  0  0
 20 21  2  0  0  0  0
 20 45  1  0  0  0  0
M  CHG  1  13   1
M  END
> <s_m_source_file>
AV-unprocessed.smi

> <i_m_source_file_index>
1992

> <i_lp_mmshare_version>
43012

> <i_f3d_flags>
0

> <s_epik_input>
W0NIM11PYzFbY0hdW2NIXWMoW2NIXW4xKVtOSF1DKD1PKVtOSF1bQ0gyXUMyKE4oW0NIM10pW0NIM10pW0NIMl1bQ0gyXVtDSDJdW0NIMl0y

> <s_epik_cmdline>
J2VwaWtfcHl0aG9uJywgJy1waCcsICc3LjAnLCAnLXRuJywgJzgnLCAnLW1hJywgJzIwMCcsICctbWV0YWxfYmluZGluZycsICctaW1hZScsICc8aW5maWxlLm1hZT4nLCAnLW9tYWUnLCAnPG91dGZpbGUubWFlPic=

> <r_lp_tautomer_probability>
1

> <r_epik_Ionization_Penalty>
0.00219675

> <r_epik_Ionization_Penalty_Charging>
0.00211816

> <r_epik_Ionization_Penalty_Neutral>
7.85887e-05

> <r_epik_State_Penalty>
0.00145254

> <r_epik_Charging_Adjusted_Penalty>
0.0035707

> <i_epik_Tot_Q>
1

> <i_epik_Tot_abs_Q>
1

> <r_epik_Metal_State_Penalty>
-0

> <b_epik_Metal_Only>
0

> <s_lp_Force_Field>
OPLS_2005

> <r_lp_Energy>
46.5796

> <b_lp_Chiralities_Consistent>
1

> <s_lp_Variant>
AV-unprocessed.smi:1992-1

> <Gold.Version>
5.8.1

> <Gold.Id.Protein>
6NUR|6NUR_protein|mol2

> <Gold.PLP.Fitness>
42.7711

> <Gold.PLP.PLP>
-29.0446

> <Gold.PLP.part.hbond>
-3.9239

> <Gold.PLP.part.metal>
0.0000

> <Gold.PLP.part.buried>
-3.6909

> <Gold.PLP.part.nonpolar>
-21.4311

> <Gold.PLP.part.repulsive>
0.0622

> <Gold.PLP.ligand.clash>
0.0000

> <Gold.PLP.ligand.torsion>
0.4298

> <Gold.PLP.Chemscore.Hbond>
4.8072

> <Gold.PLP.Chemscore.CHOScore>
0.0000

> <Gold.PLP.Chemscore.Metal>
0.0000

> <Gold.Chemscore.Hbonds>
donor molecule, donor type, donor heavy atom, donor atom, acceptor molecule, acceptor atom, score
      L1  H     7    27       P1  7948  0.91
      L1  H    10    28       P1  7948  0.94
      L1  H    13    46       P1  7948  1.85
      P1  H  7997  8008       L1     2  0.88

> <Gold.PLP.Chemscore.Internal.Correction>
0.1643

> <Gold.Rescore>
     Score         DG    S(hbond)    S(metal)    S(lipo)     H(rot)  DE(clash)    DE(int)     intcor
     18.56     -20.33       3.61        0.00      61.43       1.71       0.11       1.67       ----

> <Gold.Chemscore.Fitness>
18.5560

> <Gold.Chemscore.DG>
-20.3327

> <Gold.Chemscore.ZeroCoef>
-5.4800

> <Gold.Chemscore.Hbond>
3.6073

> <Gold.Chemscore.Metal>
0.0000

> <Gold.Chemscore.Lipo>
61.4297

> <Gold.Chemscore.Internal_Hbond>
0.0000

> <Gold.Chemscore.DEClash>
0.1104

> <Gold.Chemscore.DEInternal>
1.6663

> <Gold.Chemscore.Rot>
1.7122

> <Gold.Chemscore.Internal.Correction>
   9.000000E+99

> <Gold.Chemscore.Hbonds>
donor molecule, donor type, donor heavy atom, donor atom, acceptor molecule, acceptor atom, score
      L1  H     7    27       P1  7948  0.81
      L1  H    10    28       P1  7948  0.89
      L1  H    13    46       P1  7948  0.40
      P1  H  7997  8008       L1     2  0.65

> <Gold.Chemscore.Hbond.Weighted>
-12.0485

> <Gold.Chemscore.Metal.Weighted>
-0.0000

> <Gold.Chemscore.Lipo.Weighted>
-7.1873

> <Gold.Chemscore.Internal_Hbond.Weighted>
0.0000

> <Gold.Chemscore.DEClash.Weighted>
0.1104

> <Gold.Chemscore.DEInternal.Weighted>
1.6663

> <Gold.Chemscore.Rot.Weighted>
4.3831

> <Gold.Chemscore.Internal.Correction.Weighted>
   9.000000E+99

> <Gold.Protein.RotatedTorsions>
[ 6907 6896 6895 6894 ] final  130.31 input  -60.11 | X-H torsion
[ 7974 7965 7964 7962 ] final   55.01 input  175.53 | X-H torsion
[ 8008 7997 7996 7995 ] final  -75.95 input   59.86 | X-H torsion
[ 10167 10162 10161 10158 ] final  -38.25 input  -65.29 | X-H torsion
[ 10718 10713 10712 10709 ] final  -27.81 input   66.30 | X-H torsion
[ 10763 10752 10751 10750 ] final   77.79 input  -60.55 | X-H torsion
[ 11005 11000 10999 10996 ] final -102.17 input  -57.11 | X-H torsion

> <Gold.Protein.ActiveResidues>
 VAL166  LYS551  ARG553  GLY616  TRP617  ASP618  TYR619  PRO620  LYS621  CYS622 
 ASP623  PHE694  ASN695  SER759  ASP760  ASP761  ALA762  ILE779  LEU786  VAL792 
 PHE793  MET794  SER795  GLU796  ALA797  LYS798  CYS799  TRP800  GLU811  SER814 

> <Gold.Protein.RotatedAtoms>
  152.3539  133.6213  159.5964 H   0  0  0  0  0  0  0  0  0  0  0  0  # atno 6907 bound_to 6896
  150.7555  133.9531  159.3501 H   0  0  0  0  0  0  0  0  0  0  0  0  # atno 6908 bound_to 6896
  151.7379  135.0861  160.0362 H   0  0  0  0  0  0  0  0  0  0  0  0  # atno 6909 bound_to 6896
  145.9549  139.4006  143.0283 H   0  0  0  0  0  0  0  0  0  0  0  0  # atno 7974 bound_to 7965
  154.5462  140.0735  156.8593 H   0  0  0  0  0  0  0  0  0  0  0  0  # atno 8008 bound_to 7997
  155.3082  140.3388  155.4227 H   0  0  0  0  0  0  0  0  0  0  0  0  # atno 8009 bound_to 7997
  156.1920  140.1689  156.8059 H   0  0  0  0  0  0  0  0  0  0  0  0  # atno 8010 bound_to 7997
  140.7097  143.3289  151.2614 H   0  0  0  0  0  0  0  0  0  0  0  0  # atno 10167 bound_to 10162
  156.4334  130.4449  149.7102 H   0  0  0  0  0  0  0  0  0  0  0  0  # atno 10718 bound_to 10713
  153.0825  135.4901  154.8531 H   0  0  0  0  0  0  0  0  0  0  0  0  # atno 10763 bound_to 10752
  154.7169  135.3031  154.9112 H   0  0  0  0  0  0  0  0  0  0  0  0  # atno 10764 bound_to 10752
  153.9788  135.6792  153.4802 H   0  0  0  0  0  0  0  0  0  0  0  0  # atno 10765 bound_to 10752
  141.1200  133.8537  157.1326 H   0  0  0  0  0  0  0  0  0  0  0  0  # atno 11005 bound_to 11000
  145.8120  140.9721  143.0944 LP  0  0  0  0  0  0  0  0  0  0  0  0  # atno 17320 bound_to 7965
  144.6803  139.9933  143.7484 LP  0  0  0  0  0  0  0  0  0  0  0  0  # atno 17321 bound_to 7965
  139.6766  143.9928  152.2784 LP  0  0  0  0  0  0  0  0  0  0  0  0  # atno 17342 bound_to 10162
  139.9544  144.6599  150.8141 LP  0  0  0  0  0  0  0  0  0  0  0  0  # atno 17343 bound_to 10162
  156.3996  130.7668  151.2675 LP  0  0  0  0  0  0  0  0  0  0  0  0  # atno 17370 bound_to 10713
  157.7508  131.0244  150.3874 LP  0  0  0  0  0  0  0  0  0  0  0  0  # atno 17371 bound_to 10713
  140.0150  134.9971  157.0475 LP  0  0  0  0  0  0  0  0  0  0  0  0  # atno 17394 bound_to 11000
  140.4535  134.1558  155.7184 LP  0  0  0  0  0  0  0  0  0  0  0  0  # atno 17395 bound_to 11000

$$$$
