AV-unprocessed.smi:1464|AV-procd|sdf|5939|dock9
  -GOLD-   22720 6 23D 1   1.00000     0.00000
 Structure written by MMmdl.
 40 41  0  0  0  0  0  0  0  0  2 V2000
  152.5052  144.2277  158.2511 C   0  0  0  0  0  0  0  0  0  0  0  0
  151.6726  143.4443  159.2870 C   0  0  2  0  0  0  0  0  0  0  0  0
  152.3335  143.4654  160.6803 C   0  0  0  0  0  0  0  0  0  0  0  0
  153.5791  142.5679  160.7468 C   0  0  0  0  0  0  0  0  0  0  0  0
  153.2473  141.1286  160.3289 C   0  0  0  0  0  0  0  0  0  0  0  0
  152.5889  141.0691  158.9368 C   0  0  1  0  0  0  0  0  0  0  0  0
  152.2257  139.6821  158.6486 N   0  0  0  0  0  0  0  0  0  0  0  0
  153.0675  138.7038  158.2793 C   0  0  0  0  0  0  0  0  0  0  0  0
  154.2797  138.8726  158.1361 O   0  0  0  0  0  0  0  0  0  0  0  0
  152.4167  137.3330  158.0349 C   0  0  0  0  0  0  0  0  0  0  0  0
  150.9629  137.3061  158.2537 N   0  0  0  0  0  0  0  0  0  0  0  0
  150.5763  136.8783  159.5956 N   0  5  0  0  0  0  0  0  0  0  0  0
  149.2580  136.8447  159.9261 C   0  0  0  0  0  0  0  0  0  0  0  0
  148.8586  136.5171  161.0410 O   0  0  0  0  0  0  0  0  0  0  0  0
  148.2877  137.2094  158.9071 C   0  0  0  0  0  0  0  0  0  0  0  0
  148.6719  137.5725  157.6676 C   0  0  0  0  0  0  0  0  0  0  0  0
  150.0739  137.6305  157.2718 C   0  0  0  0  0  0  0  0  0  0  0  0
  150.4313  137.9535  156.1386 O   0  0  0  0  0  0  0  0  0  0  0  0
  151.3408  141.9872  158.8660 C   0  0  2  0  0  0  0  0  0  0  0  0
  150.6180  141.9183  157.5059 C   0  0  0  0  0  0  0  0  0  0  0  0
  153.4614  143.7489  158.0423 H   0  0  0  0  0  0  0  0  0  0  0  0
  152.7160  145.2367  158.6059 H   0  0  0  0  0  0  0  0  0  0  0  0
  151.9743  144.3307  157.3051 H   0  0  0  0  0  0  0  0  0  0  0  0
  150.7258  143.9781  159.3811 H   0  0  0  0  0  0  0  0  0  0  0  0
  152.5946  144.4866  160.9600 H   0  0  0  0  0  0  0  0  0  0  0  0
  151.6121  143.1248  161.4243 H   0  0  0  0  0  0  0  0  0  0  0  0
  154.3635  142.9670  160.1033 H   0  0  0  0  0  0  0  0  0  0  0  0
  153.9842  142.5732  161.7590 H   0  0  0  0  0  0  0  0  0  0  0  0
  154.1568  140.5262  160.3375 H   0  0  0  0  0  0  0  0  0  0  0  0
  152.5796  140.6875  161.0707 H   0  0  0  0  0  0  0  0  0  0  0  0
  153.3161  141.4223  158.2044 H   0  0  0  0  0  0  0  0  0  0  0  0
  151.2478  139.4458  158.7332 H   0  0  0  0  0  0  0  0  0  0  0  0
  152.6401  137.0158  157.0149 H   0  0  0  0  0  0  0  0  0  0  0  0
  152.9084  136.6032  158.6808 H   0  0  0  0  0  0  0  0  0  0  0  0
  147.2352  137.1861  159.1489 H   0  0  0  0  0  0  0  0  0  0  0  0
  147.9166  137.8336  156.9417 H   0  0  0  0  0  0  0  0  0  0  0  0
  150.6294  141.6117  159.6037 H   0  0  0  0  0  0  0  0  0  0  0  0
  151.2917  142.1510  156.6811 H   0  0  0  0  0  0  0  0  0  0  0  0
  149.7845  142.6198  157.4668 H   0  0  0  0  0  0  0  0  0  0  0  0
  150.2096  140.9246  157.3206 H   0  0  0  0  0  0  0  0  0  0  0  0
  1  2  1  0  0  0  0
  1 21  1  0  0  0  0
  1 22  1  0  0  0  0
  1 23  1  0  0  0  0
  2 19  1  0  0  0  0
  2  3  1  0  0  0  0
  2 24  1  0  0  0  0
  3  4  1  0  0  0  0
  3 25  1  0  0  0  0
  3 26  1  0  0  0  0
  4  5  1  0  0  0  0
  4 27  1  0  0  0  0
  4 28  1  0  0  0  0
  5  6  1  0  0  0  0
  5 29  1  0  0  0  0
  5 30  1  0  0  0  0
  6  7  1  0  0  0  0
  6 19  1  0  0  0  0
  6 31  1  0  0  0  0
  7  8  1  0  0  0  0
  7 32  1  0  0  0  0
  8  9  2  0  0  0  0
  8 10  1  0  0  0  0
 10 33  1  0  0  0  0
 10 34  1  0  0  0  0
 10 11  1  0  0  0  0
 11 12  1  0  0  0  0
 11 17  1  0  0  0  0
 12 13  1  0  0  0  0
 13 14  2  0  0  0  0
 13 15  1  0  0  0  0
 15 35  1  0  0  0  0
 15 16  2  0  0  0  0
 16 36  1  0  0  0  0
 16 17  1  0  0  0  0
 17 18  2  0  0  0  0
 19 20  1  0  0  0  0
 19 37  1  0  0  0  0
 20 38  1  0  0  0  0
 20 39  1  0  0  0  0
 20 40  1  0  0  0  0
M  CHG  1  12  -1
M  END
> <s_m_source_file>
AV-unprocessed.smi

> <i_m_source_file_index>
1464

> <i_lp_mmshare_version>
43012

> <i_f3d_flags>
0

> <s_epik_input>
W0NIM11bQ0BASF0xW0NIMl1bQ0gyXVtDSDJdW0NASF0oW0NASF0xW0NIM10pW05IXUMoPU8pW0NIMl1uMltuSF1jKD1PKVtjSF1bY0hdYzI9Tw==

> <s_epik_cmdline>
J2VwaWtfcHl0aG9uJywgJy1waCcsICc3LjAnLCAnLXRuJywgJzgnLCAnLW1hJywgJzIwMCcsICctbWV0YWxfYmluZGluZycsICctaW1hZScsICc8aW5maWxlLm1hZT4nLCAnLW9tYWUnLCAnPG91dGZpbGUubWFlPic=

> <r_lp_tautomer_probability>
1

> <r_epik_Ionization_Penalty>
0.101366

> <r_epik_Ionization_Penalty_Charging>
0.101366

> <r_epik_Ionization_Penalty_Neutral>
1.90469e-08

> <r_epik_State_Penalty>
0.035861

> <r_epik_Charging_Adjusted_Penalty>
0.137227

> <i_epik_Tot_Q>
-1

> <i_epik_Tot_abs_Q>
1

> <r_epik_Metal_State_Penalty>
0.035861

> <b_epik_Metal_Only>
0

> <s_lp_Force_Field>
OPLS_2005

> <r_lp_Energy>
29.8831

> <b_lp_Chiralities_Consistent>
1

> <s_lp_Variant>
AV-unprocessed.smi:1464-5

> <Gold.Version>
5.8.1

> <Gold.Id.Protein>
6NUR|6NUR_protein|mol2

> <Gold.PLP.Fitness>
44.8859

> <Gold.PLP.PLP>
-34.0739

> <Gold.PLP.part.hbond>
-3.0000

> <Gold.PLP.part.metal>
0.0000

> <Gold.PLP.part.buried>
-5.2347

> <Gold.PLP.part.nonpolar>
-26.1086

> <Gold.PLP.part.repulsive>
0.1144

> <Gold.PLP.ligand.clash>
0.0000

> <Gold.PLP.ligand.torsion>
0.5967

> <Gold.PLP.Chemscore.Hbond>
4.0000

> <Gold.PLP.Chemscore.CHOScore>
0.0000

> <Gold.PLP.Chemscore.Metal>
0.0000

> <Gold.Chemscore.Hbonds>
donor molecule, donor type, donor heavy atom, donor atom, acceptor molecule, acceptor atom, score
      P1  H  6896  6908       L1    12  2.00
      P1  H  6931  6943       L1    14  0.85
      P1  H  7997  8009       L1     9  1.00

> <Gold.PLP.Chemscore.Internal.Correction>
0.0054

> <Gold.Rescore>
     Score         DG    S(hbond)    S(metal)    S(lipo)     H(rot)  DE(clash)    DE(int)     intcor
     17.63     -18.12       2.01        0.00      86.58       1.64       0.04       0.45       ----

> <Gold.Chemscore.Fitness>
17.6316

> <Gold.Chemscore.DG>
-18.1194

> <Gold.Chemscore.ZeroCoef>
-5.4800

> <Gold.Chemscore.Hbond>
2.0112

> <Gold.Chemscore.Metal>
0.0000

> <Gold.Chemscore.Lipo>
86.5809

> <Gold.Chemscore.Internal_Hbond>
0.0000

> <Gold.Chemscore.DEClash>
0.0354

> <Gold.Chemscore.DEInternal>
0.4525

> <Gold.Chemscore.Rot>
1.6438

> <Gold.Chemscore.Internal.Correction>
   9.000000E+99

> <Gold.Chemscore.Hbonds>
donor molecule, donor type, donor heavy atom, donor atom, acceptor molecule, acceptor atom, score
      P1  H  6896  6908       L1    12  0.31
      P1  H  6931  6943       L1    14  0.14
      P1  H  7997  8009       L1     9  0.95

> <Gold.Chemscore.Hbond.Weighted>
-6.7175

> <Gold.Chemscore.Metal.Weighted>
-0.0000

> <Gold.Chemscore.Lipo.Weighted>
-10.1300

> <Gold.Chemscore.Internal_Hbond.Weighted>
0.0000

> <Gold.Chemscore.DEClash.Weighted>
0.0354

> <Gold.Chemscore.DEInternal.Weighted>
0.4525

> <Gold.Chemscore.Rot.Weighted>
4.2080

> <Gold.Chemscore.Internal.Correction.Weighted>
   9.000000E+99

> <Gold.Protein.RotatedTorsions>
[ 6907 6896 6895 6894 ] final -145.36 input  -60.11 | X-H torsion
[ 7974 7965 7964 7962 ] final   72.81 input  175.53 | X-H torsion
[ 8008 7997 7996 7995 ] final  134.17 input   59.86 | X-H torsion
[ 10167 10162 10161 10158 ] final    5.68 input  -65.29 | X-H torsion
[ 10718 10713 10712 10709 ] final -162.32 input   66.30 | X-H torsion
[ 10763 10752 10751 10750 ] final  122.33 input  -60.55 | X-H torsion
[ 11005 11000 10999 10996 ] final  -60.31 input  -57.11 | X-H torsion

> <Gold.Protein.ActiveResidues>
 VAL166  LYS551  ARG553  GLY616  TRP617  ASP618  TYR619  PRO620  LYS621  CYS622 
 ASP623  PHE694  ASN695  SER759  ASP760  ASP761  ALA762  ILE779  LEU786  VAL792 
 PHE793  MET794  SER795  GLU796  ALA797  LYS798  CYS799  TRP800  GLU811  SER814 

> <Gold.Protein.RotatedAtoms>
  151.1267  133.5065  159.2600 H   0  0  0  0  0  0  0  0  0  0  0  0  # atno 6907 bound_to 6896
  151.1802  135.0357  159.8799 H   0  0  0  0  0  0  0  0  0  0  0  0  # atno 6908 bound_to 6896
  152.5458  134.1120  159.8416 H   0  0  0  0  0  0  0  0  0  0  0  0  # atno 6909 bound_to 6896
  145.7487  139.2751  143.1444 H   0  0  0  0  0  0  0  0  0  0  0  0  # atno 7974 bound_to 7965
  156.2997  140.2503  156.3373 H   0  0  0  0  0  0  0  0  0  0  0  0  # atno 8008 bound_to 7997
  154.9089  140.0404  157.1954 H   0  0  0  0  0  0  0  0  0  0  0  0  # atno 8009 bound_to 7997
  154.8426  140.2893  155.5654 H   0  0  0  0  0  0  0  0  0  0  0  0  # atno 8010 bound_to 7997
  140.6469  143.7640  150.7513 H   0  0  0  0  0  0  0  0  0  0  0  0  # atno 10167 bound_to 10162
  156.6087  130.8841  151.2931 H   0  0  0  0  0  0  0  0  0  0  0  0  # atno 10718 bound_to 10713
  153.6281  135.3401  155.3033 H   0  0  0  0  0  0  0  0  0  0  0  0  # atno 10763 bound_to 10752
  154.8586  135.4289  154.2135 H   0  0  0  0  0  0  0  0  0  0  0  0  # atno 10764 bound_to 10752
  153.3024  135.7025  153.7264 H   0  0  0  0  0  0  0  0  0  0  0  0  # atno 10765 bound_to 10752
  141.1282  133.6621  156.5204 H   0  0  0  0  0  0  0  0  0  0  0  0  # atno 11005 bound_to 11000
  146.0378  140.8195  142.9844 LP  0  0  0  0  0  0  0  0  0  0  0  0  # atno 17320 bound_to 7965
  144.6854  140.2864  143.7284 LP  0  0  0  0  0  0  0  0  0  0  0  0  # atno 17321 bound_to 7965
  140.1283  143.4549  152.2270 LP  0  0  0  0  0  0  0  0  0  0  0  0  # atno 17342 bound_to 10162
  139.5680  144.7446  151.3968 LP  0  0  0  0  0  0  0  0  0  0  0  0  # atno 17343 bound_to 10162
  157.7260  130.9623  150.1638 LP  0  0  0  0  0  0  0  0  0  0  0  0  # atno 17370 bound_to 10713
  156.2408  130.3691  149.8339 LP  0  0  0  0  0  0  0  0  0  0  0  0  # atno 17371 bound_to 10713
  140.4296  134.7113  157.4935 LP  0  0  0  0  0  0  0  0  0  0  0  0  # atno 17394 bound_to 11000
  140.0303  134.6416  155.9116 LP  0  0  0  0  0  0  0  0  0  0  0  0  # atno 17395 bound_to 11000

$$$$
