AV-unprocessed.smi:2106|AV-procd|sdf|8593|dock8
  -GOLD-   2272011323D 1   1.00000     0.00000
 Structure written by MMmdl.
 47 48  0  0  0  0  0  0  0  0  1 V2000
  153.5503  143.7297  163.3225 C   0  0  0  0  0  0  0  0  0  0  0  0
  153.0665  143.5783  161.9105 C   0  0  0  0  0  0  0  0  0  0  0  0
  152.0949  144.3584  161.2240 C   0  0  0  0  0  0  0  0  0  0  0  0
  152.0308  143.7995  159.9788 C   0  0  0  0  0  0  0  0  0  0  0  0
  151.1931  144.1711  158.7995 C   0  0  0  0  0  0  0  0  0  0  0  0
  152.9303  142.7479  159.9642 N   0  0  0  0  0  0  0  0  0  0  0  0
  153.2433  141.8216  158.8873 C   0  0  0  0  0  0  0  0  0  0  0  0
  152.0855  140.8537  158.6389 C   0  0  0  0  0  0  0  0  0  0  0  0
  151.1408  140.8077  159.4263 O   0  0  0  0  0  0  0  0  0  0  0  0
  152.1751  140.0850  157.5428 N   0  0  0  0  0  0  0  0  0  0  0  0
  151.1947  139.0879  157.1334 C   0  0  0  0  0  0  0  0  0  0  0  0
  151.3431  138.7431  155.6401 C   0  0  0  0  0  0  0  0  0  0  0  0
  150.0843  138.5465  154.9228 N   0  0  0  0  0  0  0  0  0  0  0  0
  149.3541  137.3678  155.3837 C   0  0  0  0  0  0  0  0  0  0  0  0
  148.0147  137.1900  154.6427 C   0  0  1  0  0  0  0  0  0  0  0  0
  147.2065  136.0063  155.1847 C   0  0  0  0  0  0  0  0  0  0  0  0
  147.2344  138.3720  154.7960 O   0  0  0  0  0  0  0  0  0  0  0  0
  147.8864  139.5420  154.3102 C   0  0  1  0  0  0  0  0  0  0  0  0
  146.9471  140.7350  154.5158 C   0  0  0  0  0  0  0  0  0  0  0  0
  149.2233  139.7168  155.0558 C   0  0  0  0  0  0  0  0  0  0  0  0
  153.5639  142.6164  161.1508 N   0  0  0  0  0  0  0  0  0  0  0  0
  153.0745  144.5797  163.8120 H   0  0  0  0  0  0  0  0  0  0  0  0
  154.6282  143.8901  163.3539 H   0  0  0  0  0  0  0  0  0  0  0  0
  153.3266  142.8401  163.9116 H   0  0  0  0  0  0  0  0  0  0  0  0
  151.5287  145.2014  161.5915 H   0  0  0  0  0  0  0  0  0  0  0  0
  150.5519  145.0222  159.0302 H   0  0  0  0  0  0  0  0  0  0  0  0
  150.5523  143.3418  158.4994 H   0  0  0  0  0  0  0  0  0  0  0  0
  151.8178  144.4437  157.9490 H   0  0  0  0  0  0  0  0  0  0  0  0
  153.4596  142.3847  157.9791 H   0  0  0  0  0  0  0  0  0  0  0  0
  154.1500  141.2680  159.1371 H   0  0  0  0  0  0  0  0  0  0  0  0
  152.9922  140.1885  156.9586 H   0  0  0  0  0  0  0  0  0  0  0  0
  151.2898  138.1896  157.7457 H   0  0  0  0  0  0  0  0  0  0  0  0
  150.2094  139.5045  157.3390 H   0  0  0  0  0  0  0  0  0  0  0  0
  151.9318  139.5163  155.1442 H   0  0  0  0  0  0  0  0  0  0  0  0
  151.9316  137.8275  155.5663 H   0  0  0  0  0  0  0  0  0  0  0  0
  149.9533  136.4704  155.2339 H   0  0  0  0  0  0  0  0  0  0  0  0
  149.1693  137.4458  156.4564 H   0  0  0  0  0  0  0  0  0  0  0  0
  148.2043  137.0272  153.5803 H   0  0  0  0  0  0  0  0  0  0  0  0
  147.7584  135.0723  155.0762 H   0  0  0  0  0  0  0  0  0  0  0  0
  146.2637  135.8996  154.6476 H   0  0  0  0  0  0  0  0  0  0  0  0
  146.9744  136.1379  156.2418 H   0  0  0  0  0  0  0  0  0  0  0  0
  148.0752  139.4244  153.2417 H   0  0  0  0  0  0  0  0  0  0  0  0
  147.3963  141.6563  154.1442 H   0  0  0  0  0  0  0  0  0  0  0  0
  146.7147  140.8770  155.5716 H   0  0  0  0  0  0  0  0  0  0  0  0
  146.0066  140.5863  153.9848 H   0  0  0  0  0  0  0  0  0  0  0  0
  149.0263  139.9105  156.1115 H   0  0  0  0  0  0  0  0  0  0  0  0
  149.7377  140.5972  154.6690 H   0  0  0  0  0  0  0  0  0  0  0  0
  1  2  1  0  0  0  0
  1 22  1  0  0  0  0
  1 23  1  0  0  0  0
  1 24  1  0  0  0  0
  2 21  2  0  0  0  0
  2  3  1  0  0  0  0
  3  4  2  0  0  0  0
  3 25  1  0  0  0  0
  4  5  1  0  0  0  0
  4  6  1  0  0  0  0
  5 26  1  0  0  0  0
  5 27  1  0  0  0  0
  5 28  1  0  0  0  0
  6  7  1  0  0  0  0
  6 21  1  0  0  0  0
  7  8  1  0  0  0  0
  7 29  1  0  0  0  0
  7 30  1  0  0  0  0
  8  9  2  0  0  0  0
  8 10  1  0  0  0  0
 10 11  1  0  0  0  0
 10 31  1  0  0  0  0
 11 12  1  0  0  0  0
 11 32  1  0  0  0  0
 11 33  1  0  0  0  0
 12 13  1  0  0  0  0
 12 34  1  0  0  0  0
 12 35  1  0  0  0  0
 13 20  1  0  0  0  0
 13 14  1  0  0  0  0
 14 15  1  0  0  0  0
 14 36  1  0  0  0  0
 14 37  1  0  0  0  0
 15 16  1  0  0  0  0
 15 17  1  0  0  0  0
 15 38  1  0  0  0  0
 16 39  1  0  0  0  0
 16 40  1  0  0  0  0
 16 41  1  0  0  0  0
 17 18  1  0  0  0  0
 18 19  1  0  0  0  0
 18 20  1  0  0  0  0
 18 42  1  0  0  0  0
 19 43  1  0  0  0  0
 19 44  1  0  0  0  0
 19 45  1  0  0  0  0
 20 46  1  0  0  0  0
 20 47  1  0  0  0  0
M  END
> <s_m_source_file>
AV-unprocessed.smi

> <i_m_source_file_index>
2106

> <i_lp_mmshare_version>
43012

> <i_f3d_flags>
0

> <s_epik_input>
W0NIM11jMVtjSF1jKFtDSDNdKW4objEpW0NIMl1DKD1PKVtOSF1bQ0gyXVtDSDJdTjJbQ0gyXVtDQEBIXShbQ0gzXSlPW0NAQEhdKFtDSDNdKVtDSDJdMg==

> <s_epik_cmdline>
J2VwaWtfcHl0aG9uJywgJy1waCcsICc3LjAnLCAnLXRuJywgJzgnLCAnLW1hJywgJzIwMCcsICctbWV0YWxfYmluZGluZycsICctaW1hZScsICc8aW5maWxlLm1hZT4nLCAnLW9tYWUnLCAnPG91dGZpbGUubWFlPic=

> <r_lp_tautomer_probability>
1

> <r_epik_Ionization_Penalty>
0.197284

> <r_epik_Ionization_Penalty_Charging>
0

> <r_epik_Ionization_Penalty_Neutral>
0.197284

> <r_epik_State_Penalty>
0.186684

> <r_epik_Charging_Adjusted_Penalty>
0.186684

> <i_epik_Tot_Q>
0

> <i_epik_Tot_abs_Q>
0

> <r_epik_Metal_State_Penalty>
0.186634

> <b_epik_Metal_Only>
0

> <s_lp_Force_Field>
OPLS_2005

> <r_lp_Energy>
17.5566

> <b_lp_Chiralities_Consistent>
1

> <s_lp_Variant>
AV-unprocessed.smi:2106-1

> <Gold.Version>
5.8.1

> <Gold.Id.Protein>
6NUR|6NUR_protein|mol2

> <Gold.PLP.Fitness>
44.0778

> <Gold.PLP.PLP>
-45.3083

> <Gold.PLP.part.hbond>
-1.1179

> <Gold.PLP.part.metal>
0.0000

> <Gold.PLP.part.buried>
-6.2308

> <Gold.PLP.part.nonpolar>
-39.8339

> <Gold.PLP.part.repulsive>
0.4056

> <Gold.PLP.ligand.clash>
0.0000

> <Gold.PLP.ligand.torsion>
0.6223

> <Gold.PLP.Chemscore.Hbond>
0.0000

> <Gold.PLP.Chemscore.CHOScore>
0.0000

> <Gold.PLP.Chemscore.Metal>
0.0000

> <Gold.PLP.Chemscore.Internal.Correction>
0.0142

> <Gold.Rescore>
     Score         DG    S(hbond)    S(metal)    S(lipo)     H(rot)  DE(clash)    DE(int)     intcor
     13.75     -14.50       0.00        0.00     113.55       1.67       0.00       0.75       ----

> <Gold.Chemscore.Fitness>
13.7480

> <Gold.Chemscore.DG>
-14.5012

> <Gold.Chemscore.ZeroCoef>
-5.4800

> <Gold.Chemscore.Hbond>
0.0000

> <Gold.Chemscore.Metal>
0.0000

> <Gold.Chemscore.Lipo>
113.5495

> <Gold.Chemscore.Internal_Hbond>
0.0000

> <Gold.Chemscore.DEClash>
0.0030

> <Gold.Chemscore.DEInternal>
0.7502

> <Gold.Chemscore.Rot>
1.6657

> <Gold.Chemscore.Internal.Correction>
   9.000000E+99

> <Gold.Chemscore.Hbond.Weighted>
-0.0000

> <Gold.Chemscore.Metal.Weighted>
-0.0000

> <Gold.Chemscore.Lipo.Weighted>
-13.2853

> <Gold.Chemscore.Internal_Hbond.Weighted>
0.0000

> <Gold.Chemscore.DEClash.Weighted>
0.0030

> <Gold.Chemscore.DEInternal.Weighted>
0.7502

> <Gold.Chemscore.Rot.Weighted>
4.2641

> <Gold.Chemscore.Internal.Correction.Weighted>
   9.000000E+99

> <Gold.Protein.RotatedTorsions>
[ 6907 6896 6895 6894 ] final -112.35 input  -60.11 | X-H torsion
[ 7974 7965 7964 7962 ] final   -2.19 input  175.53 | X-H torsion
[ 8008 7997 7996 7995 ] final  -11.78 input   59.86 | X-H torsion
[ 10167 10162 10161 10158 ] final  137.22 input  -65.29 | X-H torsion
[ 10718 10713 10712 10709 ] final  -50.71 input   66.30 | X-H torsion
[ 10763 10752 10751 10750 ] final   95.37 input  -60.55 | X-H torsion
[ 11005 11000 10999 10996 ] final  -92.04 input  -57.11 | X-H torsion

> <Gold.Protein.ActiveResidues>
 VAL166  LYS551  ARG553  GLY616  TRP617  ASP618  TYR619  PRO620  LYS621  CYS622 
 ASP623  PHE694  ASN695  SER759  ASP760  ASP761  ALA762  ILE779  LEU786  VAL792 
 PHE793  MET794  SER795  GLU796  ALA797  LYS798  CYS799  TRP800  GLU811  SER814 

> <Gold.Protein.RotatedAtoms>
  150.7752  133.9102  159.3366 H   0  0  0  0  0  0  0  0  0  0  0  0  # atno 6907 bound_to 6896
  151.6978  135.0933  160.0255 H   0  0  0  0  0  0  0  0  0  0  0  0  # atno 6908 bound_to 6896
  152.3786  133.6477  159.6178 H   0  0  0  0  0  0  0  0  0  0  0  0  # atno 6909 bound_to 6896
  146.2407  140.1534  142.8333 H   0  0  0  0  0  0  0  0  0  0  0  0  # atno 7974 bound_to 7965
  154.5435  140.2293  155.8602 H   0  0  0  0  0  0  0  0  0  0  0  0  # atno 8008 bound_to 7997
  156.1880  140.3084  155.9239 H   0  0  0  0  0  0  0  0  0  0  0  0  # atno 8009 bound_to 7997
  155.3211  140.0440  157.3030 H   0  0  0  0  0  0  0  0  0  0  0  0  # atno 8010 bound_to 7997
  139.5152  144.6421  151.5539 H   0  0  0  0  0  0  0  0  0  0  0  0  # atno 10167 bound_to 10162
  156.1776  130.4150  149.9554 H   0  0  0  0  0  0  0  0  0  0  0  0  # atno 10718 bound_to 10713
  153.2524  135.4256  155.0811 H   0  0  0  0  0  0  0  0  0  0  0  0  # atno 10763 bound_to 10752
  154.8387  135.3429  154.6493 H   0  0  0  0  0  0  0  0  0  0  0  0  # atno 10764 bound_to 10752
  153.6915  135.7033  153.5145 H   0  0  0  0  0  0  0  0  0  0  0  0  # atno 10765 bound_to 10752
  141.1531  133.7795  156.9965 H   0  0  0  0  0  0  0  0  0  0  0  0  # atno 11005 bound_to 11000
  145.0149  140.8745  143.5202 LP  0  0  0  0  0  0  0  0  0  0  0  0  # atno 17320 bound_to 7965
  145.1573  139.2479  143.5409 LP  0  0  0  0  0  0  0  0  0  0  0  0  # atno 17321 bound_to 7965
  140.6192  143.9290  150.6513 LP  0  0  0  0  0  0  0  0  0  0  0  0  # atno 17342 bound_to 10162
  140.2558  143.3560  152.1366 LP  0  0  0  0  0  0  0  0  0  0  0  0  # atno 17343 bound_to 10162
  156.7335  130.9052  151.3627 LP  0  0  0  0  0  0  0  0  0  0  0  0  # atno 17370 bound_to 10713
  157.6846  130.9173  150.0354 LP  0  0  0  0  0  0  0  0  0  0  0  0  # atno 17371 bound_to 10713
  140.0968  134.9559  157.1862 LP  0  0  0  0  0  0  0  0  0  0  0  0  # atno 17394 bound_to 11000
  140.3371  134.2745  155.7218 LP  0  0  0  0  0  0  0  0  0  0  0  0  # atno 17395 bound_to 11000

$$$$
