AV-unprocessed.smi:1531|AV-procd|sdf|6156|dock1
  -GOLD-   22720 6303D 1   1.00000     0.00000
 Structure written by MMmdl.
 44 45  0  0  0  0  0  0  0  0  1 V2000
  152.7796  144.9401  157.5067 C   0  0  0  0  0  0  0  0  0  0  0  0
  151.8997  144.7553  158.7513 C   0  0  0  0  0  0  0  0  0  0  0  0
  151.8834  143.3115  159.3110 C   0  0  2  0  0  0  0  0  0  0  0  0
  153.1607  143.0060  160.1279 C   0  0  0  0  0  0  0  0  0  0  0  0
  153.1717  141.5731  160.6803 C   0  0  0  0  0  0  0  0  0  0  0  0
  153.0109  140.5465  159.5532 C   0  0  0  0  0  0  0  0  0  0  0  0
  151.7314  140.8167  158.7518 C   0  0  0  0  0  0  0  0  0  0  0  0
  151.7023  142.2534  158.1892 C   0  0  1  0  0  0  0  0  0  0  0  0
  150.4424  142.4643  157.4773 N   0  0  0  0  0  0  0  0  0  0  0  0
  149.9059  141.6224  156.5823 C   0  0  0  0  0  0  0  0  0  0  0  0
  150.4230  140.5541  156.2558 O   0  0  0  0  0  0  0  0  0  0  0  0
  148.7447  142.0962  156.1021 N   0  0  0  0  0  0  0  0  0  0  0  0
  147.8942  141.4763  155.1530 C   0  0  0  0  0  0  0  0  0  0  0  0
  146.8651  142.0504  154.3543 C   0  0  0  0  0  0  0  0  0  0  0  0
  146.2948  141.1357  153.5845 N   0  0  0  0  0  0  0  0  0  0  0  0
  146.9396  139.9777  153.8742 N   0  0  0  0  0  0  0  0  0  0  0  0
  146.5576  138.7527  153.1948 C   0  0  0  0  0  0  0  0  0  0  0  0
  146.0323  137.7102  154.1833 C   0  0  0  0  0  0  0  0  0  0  0  0
  146.6539  136.5283  154.2100 N   0  0  0  0  0  0  0  0  0  0  0  0
  145.0796  137.9699  154.9150 O   0  0  0  0  0  0  0  0  0  0  0  0
  147.9205  140.1529  154.8309 C   0  0  0  0  0  0  0  0  0  0  0  0
  152.8245  145.9914  157.2217 H   0  0  0  0  0  0  0  0  0  0  0  0
  152.3929  144.3903  156.6494 H   0  0  0  0  0  0  0  0  0  0  0  0
  153.8002  144.6046  157.6922 H   0  0  0  0  0  0  0  0  0  0  0  0
  152.2698  145.4443  159.5103 H   0  0  0  0  0  0  0  0  0  0  0  0
  150.8815  145.0766  158.5289 H   0  0  0  0  0  0  0  0  0  0  0  0
  151.0298  143.2261  159.9856 H   0  0  0  0  0  0  0  0  0  0  0  0
  154.0414  143.1587  159.5027 H   0  0  0  0  0  0  0  0  0  0  0  0
  153.2542  143.6982  160.9641 H   0  0  0  0  0  0  0  0  0  0  0  0
  154.1018  141.3900  161.2192 H   0  0  0  0  0  0  0  0  0  0  0  0
  152.3652  141.4529  161.4049 H   0  0  0  0  0  0  0  0  0  0  0  0
  153.8759  140.5878  158.8900 H   0  0  0  0  0  0  0  0  0  0  0  0
  152.9850  139.5384  159.9676 H   0  0  0  0  0  0  0  0  0  0  0  0
  151.6544  140.0932  157.9392 H   0  0  0  0  0  0  0  0  0  0  0  0
  150.8638  140.6534  159.3927 H   0  0  0  0  0  0  0  0  0  0  0  0
  152.5322  142.3658  157.4885 H   0  0  0  0  0  0  0  0  0  0  0  0
  149.9450  143.3182  157.6823 H   0  0  0  0  0  0  0  0  0  0  0  0
  148.4314  142.9862  156.4609 H   0  0  0  0  0  0  0  0  0  0  0  0
  146.5140  143.0700  154.3007 H   0  0  0  0  0  0  0  0  0  0  0  0
  145.7992  138.9713  152.4412 H   0  0  0  0  0  0  0  0  0  0  0  0
  147.4282  138.3599  152.6678 H   0  0  0  0  0  0  0  0  0  0  0  0
  146.3466  135.8130  154.8534 H   0  0  0  0  0  0  0  0  0  0  0  0
  147.4344  136.3574  153.5931 H   0  0  0  0  0  0  0  0  0  0  0  0
  148.5352  139.3392  155.1871 H   0  0  0  0  0  0  0  0  0  0  0  0
  1  2  1  0  0  0  0
  1 22  1  0  0  0  0
  1 23  1  0  0  0  0
  1 24  1  0  0  0  0
  2  3  1  0  0  0  0
  2 25  1  0  0  0  0
  2 26  1  0  0  0  0
  3  8  1  0  0  0  0
  3  4  1  0  0  0  0
  3 27  1  0  0  0  0
  4  5  1  0  0  0  0
  4 28  1  0  0  0  0
  4 29  1  0  0  0  0
  5  6  1  0  0  0  0
  5 30  1  0  0  0  0
  5 31  1  0  0  0  0
  6  7  1  0  0  0  0
  6 32  1  0  0  0  0
  6 33  1  0  0  0  0
  7  8  1  0  0  0  0
  7 34  1  0  0  0  0
  7 35  1  0  0  0  0
  8  9  1  0  0  0  0
  8 36  1  0  0  0  0
  9 10  1  0  0  0  0
  9 37  1  0  0  0  0
 10 11  2  0  0  0  0
 10 12  1  0  0  0  0
 12 13  1  0  0  0  0
 12 38  1  0  0  0  0
 13 21  2  0  0  0  0
 13 14  1  0  0  0  0
 14 15  2  0  0  0  0
 14 39  1  0  0  0  0
 15 16  1  0  0  0  0
 16 17  1  0  0  0  0
 16 21  1  0  0  0  0
 17 18  1  0  0  0  0
 17 40  1  0  0  0  0
 17 41  1  0  0  0  0
 18 19  1  0  0  0  0
 18 20  2  0  0  0  0
 19 42  1  0  0  0  0
 19 43  1  0  0  0  0
 21 44  1  0  0  0  0
M  END
> <s_m_source_file>
AV-unprocessed.smi

> <i_m_source_file_index>
1531

> <i_lp_mmshare_version>
43012

> <i_f3d_flags>
0

> <s_epik_input>
W0NIM11bQ0gyXVtDQEBIXTFbQ0gyXVtDSDJdW0NIMl1bQ0gyXVtDQEhdMVtOSF1DKD1PKVtOSF1jMltjSF1ubihbY0hdMilbQ0gyXUMoPU8pW05IMl0=

> <s_epik_cmdline>
J2VwaWtfcHl0aG9uJywgJy1waCcsICc3LjAnLCAnLXRuJywgJzgnLCAnLW1hJywgJzIwMCcsICctbWV0YWxfYmluZGluZycsICctaW1hZScsICc8aW5maWxlLm1hZT4nLCAnLW9tYWUnLCAnPG91dGZpbGUubWFlPic=

> <r_lp_tautomer_probability>
1

> <r_epik_Ionization_Penalty>
4.83437e-05

> <r_epik_Ionization_Penalty_Charging>
0

> <r_epik_Ionization_Penalty_Neutral>
4.83437e-05

> <r_epik_State_Penalty>
-0

> <r_epik_Charging_Adjusted_Penalty>
0

> <i_epik_Tot_Q>
0

> <i_epik_Tot_abs_Q>
0

> <r_epik_Metal_State_Penalty>
-0

> <b_epik_Metal_Only>
0

> <s_lp_Force_Field>
OPLS_2005

> <r_lp_Energy>
14.6895

> <b_lp_Chiralities_Consistent>
1

> <s_lp_Variant>
AV-unprocessed.smi:1531-1

> <Gold.Version>
5.8.1

> <Gold.Id.Protein>
6NUR|6NUR_protein|mol2

> <Gold.PLP.Fitness>
46.5567

> <Gold.PLP.PLP>
-42.6066

> <Gold.PLP.part.hbond>
-2.2167

> <Gold.PLP.part.metal>
0.0000

> <Gold.PLP.part.buried>
-5.6232

> <Gold.PLP.part.nonpolar>
-35.9388

> <Gold.PLP.part.repulsive>
0.4701

> <Gold.PLP.ligand.clash>
0.0000

> <Gold.PLP.ligand.torsion>
0.3347

> <Gold.PLP.Chemscore.Hbond>
1.5120

> <Gold.PLP.Chemscore.CHOScore>
0.0000

> <Gold.PLP.Chemscore.Metal>
0.0000

> <Gold.Chemscore.Hbonds>
donor molecule, donor type, donor heavy atom, donor atom, acceptor molecule, acceptor atom, score
      L1  H    12    38       P1  8028  0.50
      L1  H    19    43       P1  7948  0.31

> <Gold.PLP.Chemscore.Internal.Correction>
0.0834

> <Gold.Rescore>
     Score         DG    S(hbond)    S(metal)    S(lipo)     H(rot)  DE(clash)    DE(int)     intcor
     15.65     -19.32       1.68        0.00     116.97       2.13       1.10       2.57       ----

> <Gold.Chemscore.Fitness>
15.6536

> <Gold.Chemscore.DG>
-19.3151

> <Gold.Chemscore.ZeroCoef>
-5.4800

> <Gold.Chemscore.Hbond>
1.6801

> <Gold.Chemscore.Metal>
0.0000

> <Gold.Chemscore.Lipo>
116.9689

> <Gold.Chemscore.Internal_Hbond>
0.0000

> <Gold.Chemscore.DEClash>
1.0963

> <Gold.Chemscore.DEInternal>
2.5652

> <Gold.Chemscore.Rot>
2.1335

> <Gold.Chemscore.Internal.Correction>
   9.000000E+99

> <Gold.Chemscore.Hbonds>
donor molecule, donor type, donor heavy atom, donor atom, acceptor molecule, acceptor atom, score
      L1  H    12    38       P1  8028  0.39
      L1  H    19    43       P1  7948  0.31

> <Gold.Chemscore.Hbond.Weighted>
-5.6116

> <Gold.Chemscore.Metal.Weighted>
-0.0000

> <Gold.Chemscore.Lipo.Weighted>
-13.6854

> <Gold.Chemscore.Internal_Hbond.Weighted>
0.0000

> <Gold.Chemscore.DEClash.Weighted>
1.0963

> <Gold.Chemscore.DEInternal.Weighted>
2.5652

> <Gold.Chemscore.Rot.Weighted>
5.4618

> <Gold.Chemscore.Internal.Correction.Weighted>
   9.000000E+99

> <Gold.Protein.RotatedTorsions>
[ 6907 6896 6895 6894 ] final   40.55 input  -60.11 | X-H torsion
[ 7974 7965 7964 7962 ] final -151.00 input  175.53 | X-H torsion
[ 8008 7997 7996 7995 ] final  134.07 input   59.86 | X-H torsion
[ 10167 10162 10161 10158 ] final -113.83 input  -65.29 | X-H torsion
[ 10718 10713 10712 10709 ] final  -11.37 input   66.30 | X-H torsion
[ 10763 10752 10751 10750 ] final  -92.45 input  -60.55 | X-H torsion
[ 11005 11000 10999 10996 ] final  -29.90 input  -57.11 | X-H torsion

> <Gold.Protein.ActiveResidues>
 VAL166  LYS551  ARG553  GLY616  TRP617  ASP618  TYR619  PRO620  LYS621  CYS622 
 ASP623  PHE694  ASN695  SER759  ASP760  ASP761  ALA762  ILE779  LEU786  VAL792 
 PHE793  MET794  SER795  GLU796  ALA797  LYS798  CYS799  TRP800  GLU811  SER814 

> <Gold.Protein.RotatedAtoms>
  152.1839  134.8730  160.0523 H   0  0  0  0  0  0  0  0  0  0  0  0  # atno 6907 bound_to 6896
  151.9644  133.3700  159.4055 H   0  0  0  0  0  0  0  0  0  0  0  0  # atno 6908 bound_to 6896
  150.6922  134.4130  159.5214 H   0  0  0  0  0  0  0  0  0  0  0  0  # atno 6909 bound_to 6896
  144.7875  140.4856  143.5796 H   0  0  0  0  0  0  0  0  0  0  0  0  # atno 7974 bound_to 7965
  156.2997  140.2505  156.3356 H   0  0  0  0  0  0  0  0  0  0  0  0  # atno 8008 bound_to 7997
  154.9103  140.0403  157.1962 H   0  0  0  0  0  0  0  0  0  0  0  0  # atno 8009 bound_to 7997
  154.8411  140.2891  155.5663 H   0  0  0  0  0  0  0  0  0  0  0  0  # atno 8010 bound_to 7997
  140.1076  143.4556  152.1773 H   0  0  0  0  0  0  0  0  0  0  0  0  # atno 10167 bound_to 10162
  156.6600  130.4979  149.6034 H   0  0  0  0  0  0  0  0  0  0  0  0  # atno 10718 bound_to 10713
  154.6862  135.5231  153.8329 H   0  0  0  0  0  0  0  0  0  0  0  0  # atno 10763 bound_to 10752
  153.0599  135.6564  154.0497 H   0  0  0  0  0  0  0  0  0  0  0  0  # atno 10764 bound_to 10752
  154.0378  135.2980  155.3339 H   0  0  0  0  0  0  0  0  0  0  0  0  # atno 10765 bound_to 10752
  140.9336  133.7323  156.0972 H   0  0  0  0  0  0  0  0  0  0  0  0  # atno 11005 bound_to 11000
  145.5883  139.1494  143.3196 LP  0  0  0  0  0  0  0  0  0  0  0  0  # atno 17320 bound_to 7965
  146.2113  140.6010  142.9058 LP  0  0  0  0  0  0  0  0  0  0  0  0  # atno 17321 bound_to 7965
  139.5637  144.7422  151.4083 LP  0  0  0  0  0  0  0  0  0  0  0  0  # atno 17342 bound_to 10162
  140.6943  143.7786  150.7303 LP  0  0  0  0  0  0  0  0  0  0  0  0  # atno 17343 bound_to 10162
  156.2018  130.6625  151.1176 LP  0  0  0  0  0  0  0  0  0  0  0  0  # atno 17370 bound_to 10713
  157.7113  131.0733  150.6491 LP  0  0  0  0  0  0  0  0  0  0  0  0  # atno 17371 bound_to 10713
  140.7829  134.3704  157.5483 LP  0  0  0  0  0  0  0  0  0  0  0  0  # atno 17394 bound_to 11000
  139.8802  134.9093  156.2987 LP  0  0  0  0  0  0  0  0  0  0  0  0  # atno 17395 bound_to 11000

$$$$
