AV-unprocessed.smi:119|AV-procd|sdf|1135|dock4
  -GOLD-   2262018263D 1   1.00000     0.00000
 Structure written by MMmdl.
 51 54  0  0  0  0  0  0  0  0  1 V2000
  152.4752  139.6967  155.6296 C   0  0  0  0  0  0  0  0  0  0  0  0
  151.1149  139.4177  156.2887 C   0  0  2  0  0  0  0  0  0  0  0  0
  149.9576  140.2490  155.6993 C   0  0  0  0  0  0  0  0  0  0  0  0
  150.0636  141.7777  155.8730 C   0  0  0  0  0  0  0  0  0  0  0  0
  149.9033  142.2074  157.2683 N   0  0  0  0  0  0  0  0  0  0  0  0
  148.7007  142.4849  157.8370 C   0  0  0  0  0  0  0  0  0  0  0  0
  148.5996  142.8039  159.0249 O   0  0  0  0  0  0  0  0  0  0  0  0
  147.4192  142.4024  156.9777 C   0  0  0  0  0  0  0  0  0  0  0  0
  146.3186  141.6553  157.6267 N   0  0  0  0  0  0  0  0  0  0  0  0
  146.0533  140.3327  157.1959 C   0  0  0  0  0  0  0  0  0  0  0  0
  146.7122  139.8099  156.2955 O   0  0  0  0  0  0  0  0  0  0  0  0
  144.9680  139.6515  157.8911 C   0  0  0  0  0  0  0  0  0  0  0  0
  144.6357  138.3983  157.5375 F   0  0  0  0  0  0  0  0  0  0  0  0
  144.2853  140.2595  158.8835 C   0  0  0  0  0  0  0  0  0  0  0  0
  144.5596  141.5506  159.3033 N   0  0  0  0  0  0  0  0  0  0  0  0
  143.8377  142.2217  160.4552 C   0  0  1  0  0  0  0  0  0  0  0  0
  144.7273  142.8874  161.5088 C   0  0  0  0  0  0  0  0  0  0  0  0
  143.7269  143.8408  162.1201 C   0  0  0  0  0  0  0  0  0  0  0  0
  142.9657  144.3154  160.8822 C   0  0  0  0  0  0  0  0  0  0  0  0
  143.0416  143.2463  159.9398 O   0  0  0  0  0  0  0  0  0  0  0  0
  145.5982  142.2749  158.6755 C   0  0  0  0  0  0  0  0  0  0  0  0
  145.8723  143.4212  159.0387 O   0  0  0  0  0  0  0  0  0  0  0  0
  151.0930  142.3164  158.0379 C   0  0  0  0  0  0  0  0  0  0  0  0
  151.5849  143.5982  158.3719 C   0  0  0  0  0  0  0  0  0  0  0  0
  152.7608  143.7312  159.1341 C   0  0  0  0  0  0  0  0  0  0  0  0
  153.4518  142.5842  159.5676 C   0  0  0  0  0  0  0  0  0  0  0  0
  152.9673  141.3041  159.2381 C   0  0  0  0  0  0  0  0  0  0  0  0
  151.7936  141.1647  158.4706 C   0  0  0  0  0  0  0  0  0  0  0  0
  151.2145  139.5362  158.0991 S   0  0  0  0  0  0  0  0  0  0  0  0
  152.4203  139.5682  154.5483 H   0  0  0  0  0  0  0  0  0  0  0  0
  153.2353  139.0104  156.0036 H   0  0  0  0  0  0  0  0  0  0  0  0
  152.8261  140.7094  155.8266 H   0  0  0  0  0  0  0  0  0  0  0  0
  150.8775  138.3729  156.0863 H   0  0  0  0  0  0  0  0  0  0  0  0
  149.8940  140.0331  154.6323 H   0  0  0  0  0  0  0  0  0  0  0  0
  149.0180  139.8920  156.1209 H   0  0  0  0  0  0  0  0  0  0  0  0
  151.0267  142.1276  155.5004 H   0  0  0  0  0  0  0  0  0  0  0  0
  149.3389  142.2699  155.2252 H   0  0  0  0  0  0  0  0  0  0  0  0
  147.1002  143.4161  156.7327 H   0  0  0  0  0  0  0  0  0  0  0  0
  147.6504  141.9537  156.0120 H   0  0  0  0  0  0  0  0  0  0  0  0
  143.4910  139.6900  159.3360 H   0  0  0  0  0  0  0  0  0  0  0  0
  143.2110  141.4449  160.8991 H   0  0  0  0  0  0  0  0  0  0  0  0
  145.1457  142.1612  162.2060 H   0  0  0  0  0  0  0  0  0  0  0  0
  145.5204  143.4760  161.0493 H   0  0  0  0  0  0  0  0  0  0  0  0
  143.0581  143.3038  162.7946 H   0  0  0  0  0  0  0  0  0  0  0  0
  144.1913  144.6568  162.6747 H   0  0  0  0  0  0  0  0  0  0  0  0
  141.9305  144.5719  161.1084 H   0  0  0  0  0  0  0  0  0  0  0  0
  143.4462  145.1931  160.4487 H   0  0  0  0  0  0  0  0  0  0  0  0
  151.0591  144.4834  158.0443 H   0  0  0  0  0  0  0  0  0  0  0  0
  153.1310  144.7136  159.3878 H   0  0  0  0  0  0  0  0  0  0  0  0
  154.3525  142.6863  160.1546 H   0  0  0  0  0  0  0  0  0  0  0  0
  153.5002  140.4274  159.5760 H   0  0  0  0  0  0  0  0  0  0  0  0
  1  2  1  0  0  0  0
  1 30  1  0  0  0  0
  1 31  1  0  0  0  0
  1 32  1  0  0  0  0
  2 29  1  0  0  0  0
  2  3  1  0  0  0  0
  2 33  1  0  0  0  0
  3  4  1  0  0  0  0
  3 34  1  0  0  0  0
  3 35  1  0  0  0  0
  4  5  1  0  0  0  0
  4 36  1  0  0  0  0
  4 37  1  0  0  0  0
  5  6  1  0  0  0  0
  5 23  1  0  0  0  0
  6  7  2  0  0  0  0
  6  8  1  0  0  0  0
  8  9  1  0  0  0  0
  8 38  1  0  0  0  0
  8 39  1  0  0  0  0
  9 21  1  0  0  0  0
  9 10  1  0  0  0  0
 10 11  2  0  0  0  0
 10 12  1  0  0  0  0
 12 13  1  0  0  0  0
 12 14  2  0  0  0  0
 14 15  1  0  0  0  0
 14 40  1  0  0  0  0
 15 16  1  0  0  0  0
 15 21  1  0  0  0  0
 16 20  1  0  0  0  0
 16 17  1  0  0  0  0
 16 41  1  0  0  0  0
 17 18  1  0  0  0  0
 17 42  1  0  0  0  0
 17 43  1  0  0  0  0
 18 19  1  0  0  0  0
 18 44  1  0  0  0  0
 18 45  1  0  0  0  0
 19 20  1  0  0  0  0
 19 46  1  0  0  0  0
 19 47  1  0  0  0  0
 21 22  2  0  0  0  0
 23 28  2  0  0  0  0
 23 24  1  0  0  0  0
 24 25  2  0  0  0  0
 24 48  1  0  0  0  0
 25 26  1  0  0  0  0
 25 49  1  0  0  0  0
 26 27  2  0  0  0  0
 26 50  1  0  0  0  0
 27 28  1  0  0  0  0
 27 51  1  0  0  0  0
 28 29  1  0  0  0  0
M  END
> <s_m_source_file>
AV-unprocessed.smi

> <i_m_source_file_index>
119

> <i_lp_mmshare_version>
43012

> <i_f3d_flags>
0

> <s_epik_input>
W2NIXTFbY0hdW2NIXVtjSF1jKGMxMilTW0NASF0oW0NIM10pW0NIMl1bQ0gyXU4yQyg9TylbQ0gyXW4zYyg9TyljKEYpW2NIXW4oYzM9TylbQ0BASF00W0NIMl1bQ0gyXVtDSDJdTzQ=

> <s_epik_cmdline>
J2VwaWtfcHl0aG9uJywgJy1waCcsICc3LjAnLCAnLXRuJywgJzgnLCAnLW1hJywgJzIwMCcsICctbWV0YWxfYmluZGluZycsICctaW1hZScsICc8aW5maWxlLm1hZT4nLCAnLW9tYWUnLCAnPG91dGZpbGUubWFlPic=

> <r_lp_tautomer_probability>
1

> <r_epik_Ionization_Penalty>
1.68882e-06

> <r_epik_Ionization_Penalty_Charging>
3.67303e-09

> <r_epik_Ionization_Penalty_Neutral>
1.68515e-06

> <r_epik_State_Penalty>
-0

> <r_epik_Charging_Adjusted_Penalty>
3.67303e-09

> <i_epik_Tot_Q>
0

> <i_epik_Tot_abs_Q>
0

> <r_epik_Metal_State_Penalty>
-0

> <b_epik_Metal_Only>
0

> <s_epik_Chemistry_Notes>
This compound contains an acetal/aminal-like group ( X-CH(R)-Y where X, Y are N, S, or O) that may be acid/base labile, releasing an aldehyde.

> <s_lp_Force_Field>
OPLS_2005

> <r_lp_Energy>
51.5083

> <b_lp_Chiralities_Consistent>
1

> <s_lp_Variant>
AV-unprocessed.smi:119-3

> <Gold.Version>
5.8.1

> <Gold.Id.Protein>
6NUR|6NUR_protein|mol2

> <Gold.PLP.Fitness>
42.0330

> <Gold.PLP.PLP>
-42.7984

> <Gold.PLP.part.hbond>
-1.0000

> <Gold.PLP.part.metal>
0.0000

> <Gold.PLP.part.buried>
-3.2448

> <Gold.PLP.part.nonpolar>
-38.9808

> <Gold.PLP.part.repulsive>
0.1951

> <Gold.PLP.ligand.clash>
0.0000

> <Gold.PLP.ligand.torsion>
0.5743

> <Gold.PLP.Chemscore.Hbond>
0.1217

> <Gold.PLP.Chemscore.CHOScore>
0.0000

> <Gold.PLP.Chemscore.Metal>
0.0000

> <Gold.PLP.Chemscore.Internal.Correction>
0.0181

> <Gold.Rescore>
     Score         DG    S(hbond)    S(metal)    S(lipo)     H(rot)  DE(clash)    DE(int)     intcor
     12.34     -15.96       0.26        0.00     115.49       1.53       0.36       3.26       ----

> <Gold.Chemscore.Fitness>
12.3421

> <Gold.Chemscore.DG>
-15.9616

> <Gold.Chemscore.ZeroCoef>
-5.4800

> <Gold.Chemscore.Hbond>
0.2626

> <Gold.Chemscore.Metal>
0.0000

> <Gold.Chemscore.Lipo>
115.4938

> <Gold.Chemscore.Internal_Hbond>
0.0000

> <Gold.Chemscore.DEClash>
0.3552

> <Gold.Chemscore.DEInternal>
3.2644

> <Gold.Chemscore.Rot>
1.5266

> <Gold.Chemscore.Internal.Correction>
   9.000000E+99

> <Gold.Chemscore.Hbonds>
donor molecule, donor type, donor heavy atom, donor atom, acceptor molecule, acceptor atom, score
      P1  H  6933  6944       L1     7  0.02

> <Gold.Chemscore.Hbond.Weighted>
-0.8770

> <Gold.Chemscore.Metal.Weighted>
-0.0000

> <Gold.Chemscore.Lipo.Weighted>
-13.5128

> <Gold.Chemscore.Internal_Hbond.Weighted>
0.0000

> <Gold.Chemscore.DEClash.Weighted>
0.3552

> <Gold.Chemscore.DEInternal.Weighted>
3.2644

> <Gold.Chemscore.Rot.Weighted>
3.9081

> <Gold.Chemscore.Internal.Correction.Weighted>
   9.000000E+99

> <Gold.Protein.RotatedTorsions>
[ 6907 6896 6895 6894 ] final  111.26 input  -60.11 | X-H torsion
[ 7974 7965 7964 7962 ] final -152.43 input  175.53 | X-H torsion
[ 8008 7997 7996 7995 ] final   -2.08 input   59.86 | X-H torsion
[ 10167 10162 10161 10158 ] final  -18.77 input  -65.29 | X-H torsion
[ 10718 10713 10712 10709 ] final   -0.84 input   66.30 | X-H torsion
[ 10763 10752 10751 10750 ] final   74.56 input  -60.55 | X-H torsion
[ 11005 11000 10999 10996 ] final  117.23 input  -57.11 | X-H torsion

> <Gold.Protein.ActiveResidues>
 VAL166  LYS551  ARG553  GLY616  TRP617  ASP618  TYR619  PRO620  LYS621  CYS622 
 ASP623  PHE694  ASN695  SER759  ASP760  ASP761  ALA762  ILE779  LEU786  VAL792 
 PHE793  MET794  SER795  GLU796  ALA797  LYS798  CYS799  TRP800  GLU811  SER814 

> <Gold.Protein.RotatedAtoms>
  152.4978  133.8682  159.7284 H   0  0  0  0  0  0  0  0  0  0  0  0  # atno 6907 bound_to 6896
  150.9176  133.6911  159.2846 H   0  0  0  0  0  0  0  0  0  0  0  0  # atno 6908 bound_to 6896
  151.4299  135.1012  159.9691 H   0  0  0  0  0  0  0  0  0  0  0  0  # atno 6909 bound_to 6896
  144.7794  140.4663  143.5850 H   0  0  0  0  0  0  0  0  0  0  0  0  # atno 7974 bound_to 7965
  154.6397  140.2543  155.7336 H   0  0  0  0  0  0  0  0  0  0  0  0  # atno 8008 bound_to 7997
  156.2522  140.2890  156.0706 H   0  0  0  0  0  0  0  0  0  0  0  0  # atno 8009 bound_to 7997
  155.1616  140.0384  157.2834 H   0  0  0  0  0  0  0  0  0  0  0  0  # atno 8010 bound_to 7997
  140.7262  143.4884  151.0024 H   0  0  0  0  0  0  0  0  0  0  0  0  # atno 10167 bound_to 10162
  156.8144  130.5435  149.5705 H   0  0  0  0  0  0  0  0  0  0  0  0  # atno 10718 bound_to 10713
  153.0595  135.5021  154.8059 H   0  0  0  0  0  0  0  0  0  0  0  0  # atno 10763 bound_to 10752
  154.6860  135.2976  154.9549 H   0  0  0  0  0  0  0  0  0  0  0  0  # atno 10764 bound_to 10752
  154.0320  135.6728  153.4834 H   0  0  0  0  0  0  0  0  0  0  0  0  # atno 10765 bound_to 10752
  139.9067  134.9607  156.7319 H   0  0  0  0  0  0  0  0  0  0  0  0  # atno 11005 bound_to 11000
  145.6092  139.1511  143.3085 LP  0  0  0  0  0  0  0  0  0  0  0  0  # atno 17320 bound_to 7965
  146.1994  140.6209  142.9109 LP  0  0  0  0  0  0  0  0  0  0  0  0  # atno 17321 bound_to 7965
  139.8587  143.7343  152.3174 LP  0  0  0  0  0  0  0  0  0  0  0  0  # atno 17342 bound_to 10162
  139.7551  144.7523  151.0448 LP  0  0  0  0  0  0  0  0  0  0  0  0  # atno 17343 bound_to 10162
  156.1025  130.5980  150.9918 LP  0  0  0  0  0  0  0  0  0  0  0  0  # atno 17370 bound_to 10713
  157.6489  131.0900  150.8093 LP  0  0  0  0  0  0  0  0  0  0  0  0  # atno 17371 bound_to 10713
  140.6919  133.9383  155.7971 LP  0  0  0  0  0  0  0  0  0  0  0  0  # atno 17394 bound_to 11000
  141.0436  134.0587  157.3872 LP  0  0  0  0  0  0  0  0  0  0  0  0  # atno 17395 bound_to 11000

$$$$
