AV-unprocessed.smi:1830|AV-procd|sdf|7440|dock1
  -GOLD-   22720 9123D 1   1.00000     0.00000
 Structure written by MMmdl.
 52 55  0  0  0  0  0  0  0  0  1 V2000
  150.3031  140.0938  154.3301 O   0  0  0  0  0  0  0  0  0  0  0  0
  150.0249  139.2549  155.1856 C   0  0  0  0  0  0  0  0  0  0  0  0
  150.7748  139.0372  156.2750 N   0  0  0  0  0  0  0  0  0  0  0  0
  152.0283  139.7165  156.5859 C   0  0  0  0  0  0  0  0  0  0  0  0
  152.0047  140.3235  157.9988 C   0  0  2  0  0  0  0  0  0  0  0  0
  151.6600  141.8307  157.9745 C   0  0  0  0  0  0  0  0  0  0  0  0
  151.7528  142.3778  159.3147 N   0  0  0  0  0  0  0  0  0  0  0  0
  151.5291  143.7971  159.4613 C   0  0  0  0  0  0  0  0  0  0  0  0
  152.0886  144.1257  160.8569 C   0  0  0  0  0  0  0  0  0  0  0  0
  153.0512  142.9586  161.1711 C   0  0  0  0  0  0  0  0  0  0  0  0
  153.0677  142.1722  159.8594 C   0  0  1  0  0  0  0  0  0  0  0  0
  153.3989  140.6748  159.9293 C   0  0  0  0  0  0  0  0  0  0  0  0
  153.2887  140.1385  158.6091 O   0  0  0  0  0  0  0  0  0  0  0  0
  148.9589  138.4364  155.1697 N   0  0  0  0  0  0  0  0  0  0  0  0
  147.9227  138.2877  154.1990 C   0  0  0  0  0  0  0  0  0  0  0  0
  147.5921  139.2808  153.2425 C   0  0  0  0  0  0  0  0  0  0  0  0
  146.5576  139.0341  152.3224 C   0  0  0  0  0  0  0  0  0  0  0  0
  145.8833  137.8034  152.3885 C   0  0  0  0  0  0  0  0  0  0  0  0
  146.1797  136.8499  153.2934 N   0  0  0  0  0  0  0  0  0  0  0  0
  147.1788  137.0757  154.1815 C   0  0  0  0  0  0  0  0  0  0  0  0
  147.4391  136.0705  155.1367 N   0  0  0  0  0  0  0  0  0  0  0  0
  146.4156  135.0295  155.1740 C   0  0  0  0  0  0  0  0  0  0  0  0
  147.1479  133.7072  155.4114 C   0  0  0  0  0  0  0  0  0  0  0  0
  148.5282  133.9680  154.8218 C   0  0  0  0  0  0  0  0  0  0  0  0
  148.7576  135.4391  155.1623 C   0  0  0  0  0  0  0  0  0  0  0  0
  150.4709  138.3278  156.9255 H   0  0  0  0  0  0  0  0  0  0  0  0
  152.8802  139.0444  156.4688 H   0  0  0  0  0  0  0  0  0  0  0  0
  152.1596  140.5092  155.8488 H   0  0  0  0  0  0  0  0  0  0  0  0
  151.2572  139.7999  158.5978 H   0  0  0  0  0  0  0  0  0  0  0  0
  152.3445  142.3575  157.3078 H   0  0  0  0  0  0  0  0  0  0  0  0
  150.6542  141.9820  157.5812 H   0  0  0  0  0  0  0  0  0  0  0  0
  152.0847  144.3466  158.6995 H   0  0  0  0  0  0  0  0  0  0  0  0
  150.4736  144.0515  159.3604 H   0  0  0  0  0  0  0  0  0  0  0  0
  152.5992  145.0891  160.8586 H   0  0  0  0  0  0  0  0  0  0  0  0
  151.2899  144.1679  161.5983 H   0  0  0  0  0  0  0  0  0  0  0  0
  154.0461  143.2990  161.4593 H   0  0  0  0  0  0  0  0  0  0  0  0
  152.6516  142.3488  161.9826 H   0  0  0  0  0  0  0  0  0  0  0  0
  153.7991  142.6460  159.2009 H   0  0  0  0  0  0  0  0  0  0  0  0
  154.4127  140.5202  160.2988 H   0  0  0  0  0  0  0  0  0  0  0  0
  152.7201  140.1495  160.6027 H   0  0  0  0  0  0  0  0  0  0  0  0
  148.8928  137.7997  155.9503 H   0  0  0  0  0  0  0  0  0  0  0  0
  148.0995  140.2295  153.1862 H   0  0  0  0  0  0  0  0  0  0  0  0
  146.2876  139.7737  151.5835 H   0  0  0  0  0  0  0  0  0  0  0  0
  145.0827  137.5793  151.6991 H   0  0  0  0  0  0  0  0  0  0  0  0
  145.6859  135.2258  155.9597 H   0  0  0  0  0  0  0  0  0  0  0  0
  145.8798  134.9918  154.2239 H   0  0  0  0  0  0  0  0  0  0  0  0
  147.2345  133.5183  156.4822 H   0  0  0  0  0  0  0  0  0  0  0  0
  146.6421  132.8548  154.9573 H   0  0  0  0  0  0  0  0  0  0  0  0
  149.2989  133.3121  155.2271 H   0  0  0  0  0  0  0  0  0  0  0  0
  148.5018  133.8361  153.7392 H   0  0  0  0  0  0  0  0  0  0  0  0
  149.4908  135.9007  154.5006 H   0  0  0  0  0  0  0  0  0  0  0  0
  149.1472  135.5286  156.1767 H   0  0  0  0  0  0  0  0  0  0  0  0
  1  2  2  0  0  0  0
  2  3  1  0  0  0  0
  2 14  1  0  0  0  0
  3  4  1  0  0  0  0
  3 26  1  0  0  0  0
  4  5  1  0  0  0  0
  4 27  1  0  0  0  0
  4 28  1  0  0  0  0
  5 13  1  0  0  0  0
  5  6  1  0  0  0  0
  5 29  1  0  0  0  0
  6  7  1  0  0  0  0
  6 30  1  0  0  0  0
  6 31  1  0  0  0  0
  7 11  1  0  0  0  0
  7  8  1  0  0  0  0
  8  9  1  0  0  0  0
  8 32  1  0  0  0  0
  8 33  1  0  0  0  0
  9 10  1  0  0  0  0
  9 34  1  0  0  0  0
  9 35  1  0  0  0  0
 10 11  1  0  0  0  0
 10 36  1  0  0  0  0
 10 37  1  0  0  0  0
 11 12  1  0  0  0  0
 11 38  1  0  0  0  0
 12 13  1  0  0  0  0
 12 39  1  0  0  0  0
 12 40  1  0  0  0  0
 14 15  1  0  0  0  0
 14 41  1  0  0  0  0
 15 20  1  0  0  0  0
 15 16  2  0  0  0  0
 16 17  1  0  0  0  0
 16 42  1  0  0  0  0
 17 18  2  0  0  0  0
 17 43  1  0  0  0  0
 18 19  1  0  0  0  0
 18 44  1  0  0  0  0
 19 20  2  0  0  0  0
 20 21  1  0  0  0  0
 21 25  1  0  0  0  0
 21 22  1  0  0  0  0
 22 23  1  0  0  0  0
 22 45  1  0  0  0  0
 22 46  1  0  0  0  0
 23 24  1  0  0  0  0
 23 47  1  0  0  0  0
 23 48  1  0  0  0  0
 24 25  1  0  0  0  0
 24 49  1  0  0  0  0
 24 50  1  0  0  0  0
 25 51  1  0  0  0  0
 25 52  1  0  0  0  0
M  END
> <s_m_source_file>
AV-unprocessed.smi

> <i_m_source_file_index>
1830

> <i_lp_mmshare_version>
43012

> <i_f3d_flags>
0

> <s_epik_input>
W0NIMl0xW0NIMl1bQ0gyXVtDQEhdKE4xMilbQ0gyXU9bQ0BASF0oW0NIMl0yKVtDSDJdW05IXUMoPU8pW05IXWMzW2NIXVtjSF1bY0hdbmMzTjRbQ0gyXVtDSDJdW0NIMl1bQ0gyXTQ=

> <s_epik_cmdline>
J2VwaWtfcHl0aG9uJywgJy1waCcsICc3LjAnLCAnLXRuJywgJzgnLCAnLW1hJywgJzIwMCcsICctbWV0YWxfYmluZGluZycsICctaW1hZScsICc8aW5maWxlLm1hZT4nLCAnLW9tYWUnLCAnPG91dGZpbGUubWFlPic=

> <r_lp_tautomer_probability>
1

> <r_epik_Ionization_Penalty>
1.16487

> <r_epik_Ionization_Penalty_Charging>
0

> <r_epik_Ionization_Penalty_Neutral>
1.16487

> <r_epik_State_Penalty>
1.21807

> <r_epik_Charging_Adjusted_Penalty>
1.21807

> <i_epik_Tot_Q>
0

> <i_epik_Tot_abs_Q>
0

> <r_epik_Metal_State_Penalty>
1.19922

> <b_epik_Metal_Only>
0

> <s_lp_Force_Field>
OPLS_2005

> <r_lp_Energy>
77.1598

> <b_lp_Chiralities_Consistent>
1

> <s_lp_Variant>
AV-unprocessed.smi:1830-9

> <Gold.Version>
5.8.1

> <Gold.Id.Protein>
6NUR|6NUR_protein|mol2

> <Gold.PLP.Fitness>
43.0077

> <Gold.PLP.PLP>
-35.4741

> <Gold.PLP.part.hbond>
-2.0000

> <Gold.PLP.part.metal>
0.0000

> <Gold.PLP.part.buried>
-1.5007

> <Gold.PLP.part.nonpolar>
-32.5426

> <Gold.PLP.part.repulsive>
0.3799

> <Gold.PLP.ligand.clash>
0.0000

> <Gold.PLP.ligand.torsion>
0.7923

> <Gold.PLP.Chemscore.Hbond>
2.0000

> <Gold.PLP.Chemscore.CHOScore>
1.0000

> <Gold.PLP.Chemscore.Metal>
0.0000

> <Gold.Chemscore.Hbonds>
donor molecule, donor type, donor heavy atom, donor atom, acceptor molecule, acceptor atom, score
      P1  H  7989  7998       L1     1  1.00
      P1  H  7997  8010       L1    13  0.97
      L1  C    18    44       P1 10171  1.00

> <Gold.PLP.Chemscore.Internal.Correction>
0.1181

> <Gold.Rescore>
     Score         DG    S(hbond)    S(metal)    S(lipo)     H(rot)  DE(clash)    DE(int)     intcor
     17.67     -20.58       1.86        0.00     105.90       1.37       0.39       2.51       ----

> <Gold.Chemscore.Fitness>
17.6719

> <Gold.Chemscore.DG>
-20.5761

> <Gold.Chemscore.ZeroCoef>
-5.4800

> <Gold.Chemscore.Hbond>
1.8637

> <Gold.Chemscore.Metal>
0.0000

> <Gold.Chemscore.Lipo>
105.8984

> <Gold.Chemscore.Internal_Hbond>
0.0000

> <Gold.Chemscore.DEClash>
0.3896

> <Gold.Chemscore.DEInternal>
2.5145

> <Gold.Chemscore.Rot>
1.3746

> <Gold.Chemscore.Internal.Correction>
   9.000000E+99

> <Gold.Chemscore.Hbonds>
donor molecule, donor type, donor heavy atom, donor atom, acceptor molecule, acceptor atom, score
      P1  H  7989  7998       L1     1  0.98
      P1  H  7997  8010       L1    13  0.51

> <Gold.Chemscore.Hbond.Weighted>
-6.2248

> <Gold.Chemscore.Metal.Weighted>
-0.0000

> <Gold.Chemscore.Lipo.Weighted>
-12.3901

> <Gold.Chemscore.Internal_Hbond.Weighted>
0.0000

> <Gold.Chemscore.DEClash.Weighted>
0.3896

> <Gold.Chemscore.DEInternal.Weighted>
2.5145

> <Gold.Chemscore.Rot.Weighted>
3.5189

> <Gold.Chemscore.Internal.Correction.Weighted>
   9.000000E+99

> <Gold.Protein.RotatedTorsions>
[ 6907 6896 6895 6894 ] final  103.67 input  -60.11 | X-H torsion
[ 7974 7965 7964 7962 ] final   58.30 input  175.53 | X-H torsion
[ 8008 7997 7996 7995 ] final   28.85 input   59.86 | X-H torsion
[ 10167 10162 10161 10158 ] final   26.15 input  -65.29 | X-H torsion
[ 10718 10713 10712 10709 ] final  100.58 input   66.30 | X-H torsion
[ 10763 10752 10751 10750 ] final  -95.24 input  -60.55 | X-H torsion
[ 11005 11000 10999 10996 ] final  145.25 input  -57.11 | X-H torsion

> <Gold.Protein.ActiveResidues>
 VAL166  LYS551  ARG553  GLY616  TRP617  ASP618  TYR619  PRO620  LYS621  CYS622 
 ASP623  PHE694  ASN695  SER759  ASP760  ASP761  ALA762  ILE779  LEU786  VAL792 
 PHE793  MET794  SER795  GLU796  ALA797  LYS798  CYS799  TRP800  GLU811  SER814 

> <Gold.Protein.RotatedAtoms>
  152.5288  133.9790  159.7797 H   0  0  0  0  0  0  0  0  0  0  0  0  # atno 6907 bound_to 6896
  151.0048  133.6014  159.2697 H   0  0  0  0  0  0  0  0  0  0  0  0  # atno 6908 bound_to 6896
  151.3110  135.0800  159.9325 H   0  0  0  0  0  0  0  0  0  0  0  0  # atno 6909 bound_to 6896
  145.9196  139.3719  143.0486 H   0  0  0  0  0  0  0  0  0  0  0  0  # atno 7974 bound_to 7965
  155.0652  140.3194  155.4648 H   0  0  0  0  0  0  0  0  0  0  0  0  # atno 8008 bound_to 7997
  156.2803  140.2121  156.5724 H   0  0  0  0  0  0  0  0  0  0  0  0  # atno 8009 bound_to 7997
  154.7099  140.0499  157.0527 H   0  0  0  0  0  0  0  0  0  0  0  0  # atno 8010 bound_to 7997
  140.5046  144.0259  150.6347 H   0  0  0  0  0  0  0  0  0  0  0  0  # atno 10167 bound_to 10162
  157.6850  131.0702  150.5121 H   0  0  0  0  0  0  0  0  0  0  0  0  # atno 10718 bound_to 10713
  154.7130  135.5128  153.8695 H   0  0  0  0  0  0  0  0  0  0  0  0  # atno 10763 bound_to 10752
  153.0797  135.6627  154.0081 H   0  0  0  0  0  0  0  0  0  0  0  0  # atno 10764 bound_to 10752
  153.9919  135.3019  155.3390 H   0  0  0  0  0  0  0  0  0  0  0  0  # atno 10765 bound_to 10752
  140.0697  134.9159  157.1324 H   0  0  0  0  0  0  0  0  0  0  0  0  # atno 11005 bound_to 11000
  145.8566  140.9499  143.0721 LP  0  0  0  0  0  0  0  0  0  0  0  0  # atno 17320 bound_to 7965
  144.6751  140.0476  143.7479 LP  0  0  0  0  0  0  0  0  0  0  0  0  # atno 17321 bound_to 7965
  140.3564  143.2933  152.0431 LP  0  0  0  0  0  0  0  0  0  0  0  0  # atno 17342 bound_to 10162
  139.4880  144.6335  151.7022 LP  0  0  0  0  0  0  0  0  0  0  0  0  # atno 17343 bound_to 10162
  156.5438  130.4214  149.6141 LP  0  0  0  0  0  0  0  0  0  0  0  0  # atno 17370 bound_to 10713
  156.2962  130.7151  151.2012 LP  0  0  0  0  0  0  0  0  0  0  0  0  # atno 17371 bound_to 10713
  140.3646  134.2457  155.7183 LP  0  0  0  0  0  0  0  0  0  0  0  0  # atno 17394 bound_to 11000
  141.2007  133.7981  157.0477 LP  0  0  0  0  0  0  0  0  0  0  0  0  # atno 17395 bound_to 11000

$$$$
