AV-unprocessed.smi:2981|AV-procd|sdf|11375|dock3
  -GOLD-   2272016293D 1   1.00000     0.00000
 Structure written by MMmdl.
 31 32  0  0  0  0  0  0  0  0  1 V2000
  151.0620  137.4298  156.5899 O   0  0  0  0  0  0  0  0  0  0  0  0
  150.7722  138.5940  156.8695 C   0  0  0  0  0  0  0  0  0  0  0  0
  151.5668  139.7650  156.2734 C   0  0  0  0  0  0  0  0  0  0  0  0
  151.7990  140.8548  157.2331 N   0  0  0  0  0  0  0  0  0  0  0  0
  151.0919  142.0118  156.9561 N   0  0  0  0  0  0  0  0  0  0  0  0
  151.2041  143.0269  157.7416 C   0  0  0  0  0  0  0  0  0  0  0  0
  152.0533  143.0055  158.9121 C   0  0  0  0  0  0  0  0  0  0  0  0
  152.1631  144.3986  159.9293 Cl  0  0  0  0  0  0  0  0  0  0  0  0
  152.7472  141.8687  159.1709 C   0  0  0  0  0  0  0  0  0  0  0  0
  153.7848  141.7672  160.5521 Cl  0  0  0  0  0  0  0  0  0  0  0  0
  152.6445  140.6916  158.2972 C   0  0  0  0  0  0  0  0  0  0  0  0
  153.2592  139.6428  158.4956 O   0  0  0  0  0  0  0  0  0  0  0  0
  149.7771  138.9218  157.7072 N   0  0  0  0  0  0  0  0  0  0  0  0
  148.8968  137.9683  158.3744 C   0  0  1  0  0  0  0  0  0  0  0  0
  147.9685  137.2669  157.3656 C   0  0  0  0  0  0  0  0  0  0  0  0
  147.3339  136.0484  158.0473 C   0  0  0  0  0  0  0  0  0  0  0  0
  148.5636  135.4508  159.2687 S   0  0  0  0  0  0  0  0  0  0  0  0
  147.9472  135.4520  160.6041 O   0  0  0  0  0  0  0  0  0  0  0  0
  149.2358  134.2517  158.7458 O   0  0  0  0  0  0  0  0  0  0  0  0
  149.6941  136.8840  159.1167 C   0  0  0  0  0  0  0  0  0  0  0  0
  152.5213  139.4034  155.8856 H   0  0  0  0  0  0  0  0  0  0  0  0
  151.0197  140.1350  155.4043 H   0  0  0  0  0  0  0  0  0  0  0  0
  150.6642  143.9574  157.5654 H   0  0  0  0  0  0  0  0  0  0  0  0
  149.6113  139.9013  157.8878 H   0  0  0  0  0  0  0  0  0  0  0  0
  148.2677  138.4943  159.0952 H   0  0  0  0  0  0  0  0  0  0  0  0
  147.2102  137.9444  156.9719 H   0  0  0  0  0  0  0  0  0  0  0  0
  148.5584  136.9210  156.5153 H   0  0  0  0  0  0  0  0  0  0  0  0
  146.4337  136.3356  158.5911 H   0  0  0  0  0  0  0  0  0  0  0  0
  147.0789  135.2526  157.3471 H   0  0  0  0  0  0  0  0  0  0  0  0
  150.5611  136.5635  158.5378 H   0  0  0  0  0  0  0  0  0  0  0  0
  150.0331  137.2023  160.1029 H   0  0  0  0  0  0  0  0  0  0  0  0
  1  2  2  0  0  0  0
  2  3  1  0  0  0  0
  2 13  1  0  0  0  0
  3  4  1  0  0  0  0
  3 21  1  0  0  0  0
  3 22  1  0  0  0  0
  4 11  1  0  0  0  0
  4  5  1  0  0  0  0
  5  6  2  0  0  0  0
  6  7  1  0  0  0  0
  6 23  1  0  0  0  0
  7  8  1  0  0  0  0
  7  9  2  0  0  0  0
  9 10  1  0  0  0  0
  9 11  1  0  0  0  0
 11 12  2  0  0  0  0
 13 14  1  0  0  0  0
 13 24  1  0  0  0  0
 14 20  1  0  0  0  0
 14 15  1  0  0  0  0
 14 25  1  0  0  0  0
 15 16  1  0  0  0  0
 15 26  1  0  0  0  0
 15 27  1  0  0  0  0
 16 17  1  0  0  0  0
 16 28  1  0  0  0  0
 16 29  1  0  0  0  0
 17 18  2  0  0  0  0
 17 19  2  0  0  0  0
 17 20  1  0  0  0  0
 20 30  1  0  0  0  0
 20 31  1  0  0  0  0
M  END
> <s_m_source_file>
AV-unprocessed.smi

> <i_m_source_file_index>
2981

> <i_lp_mmshare_version>
43012

> <i_f3d_flags>
0

> <s_epik_input>
Tz1TMSg9TylbQ0gyXVtDSDJdW0NASF0oW0NIMl0xKVtOSF1DKD1PKVtDSDJdbjJuW2NIXWMoQ2wpYyhDbCljMj1P

> <s_epik_cmdline>
J2VwaWtfcHl0aG9uJywgJy1waCcsICc3LjAnLCAnLXRuJywgJzgnLCAnLW1hJywgJzIwMCcsICctbWV0YWxfYmluZGluZycsICctaW1hZScsICc8aW5maWxlLm1hZT4nLCAnLW9tYWUnLCAnPG91dGZpbGUubWFlPic=

> <r_lp_tautomer_probability>
1

> <r_epik_Ionization_Penalty>
1.07216e-07

> <r_epik_Ionization_Penalty_Charging>
2.33395e-11

> <r_epik_Ionization_Penalty_Neutral>
1.07193e-07

> <r_epik_State_Penalty>
-0

> <r_epik_Charging_Adjusted_Penalty>
2.33395e-11

> <i_epik_Tot_Q>
0

> <i_epik_Tot_abs_Q>
0

> <r_epik_Metal_State_Penalty>
-0

> <b_epik_Metal_Only>
0

> <s_lp_Force_Field>
OPLS_2005

> <r_lp_Energy>
17.277

> <b_lp_Chiralities_Consistent>
1

> <s_lp_Variant>
AV-unprocessed.smi:2981-2

> <Gold.Version>
5.8.1

> <Gold.Id.Protein>
6NUR|6NUR_protein|mol2

> <Gold.PLP.Fitness>
37.0585

> <Gold.PLP.PLP>
-28.9546

> <Gold.PLP.part.hbond>
-2.0000

> <Gold.PLP.part.metal>
0.0000

> <Gold.PLP.part.buried>
-4.3911

> <Gold.PLP.part.nonpolar>
-22.6856

> <Gold.PLP.part.repulsive>
0.1713

> <Gold.PLP.ligand.clash>
0.0000

> <Gold.PLP.ligand.torsion>
0.4485

> <Gold.PLP.Chemscore.Hbond>
2.0000

> <Gold.PLP.Chemscore.CHOScore>
1.0000

> <Gold.PLP.Chemscore.Metal>
0.0000

> <Gold.Chemscore.Hbonds>
donor molecule, donor type, donor heavy atom, donor atom, acceptor molecule, acceptor atom, score
      P1  H  6896  6908       L1    19  1.00
      P1  H  7997  8010       L1    12  0.79
      L1  C     6    23       P1  8028  0.60

> <Gold.PLP.Chemscore.Internal.Correction>
0.0010

> <Gold.Rescore>
     Score         DG    S(hbond)    S(metal)    S(lipo)     H(rot)  DE(clash)    DE(int)     intcor
     13.74     -15.50       1.93        0.00      67.95       1.70       0.00       1.76       ----

> <Gold.Chemscore.Fitness>
13.7386

> <Gold.Chemscore.DG>
-15.4983

> <Gold.Chemscore.ZeroCoef>
-5.4800

> <Gold.Chemscore.Hbond>
1.9260

> <Gold.Chemscore.Metal>
0.0000

> <Gold.Chemscore.Lipo>
67.9488

> <Gold.Chemscore.Internal_Hbond>
0.0000

> <Gold.Chemscore.DEClash>
0.0009

> <Gold.Chemscore.DEInternal>
1.7589

> <Gold.Chemscore.Rot>
1.7049

> <Gold.Chemscore.Internal.Correction>
   9.000000E+99

> <Gold.Chemscore.Hbonds>
donor molecule, donor type, donor heavy atom, donor atom, acceptor molecule, acceptor atom, score
      P1  H  6896  6908       L1    19  0.29
      P1  H  7997  8010       L1    12  0.11

> <Gold.Chemscore.Hbond.Weighted>
-6.4330

> <Gold.Chemscore.Metal.Weighted>
-0.0000

> <Gold.Chemscore.Lipo.Weighted>
-7.9500

> <Gold.Chemscore.Internal_Hbond.Weighted>
0.0000

> <Gold.Chemscore.DEClash.Weighted>
0.0009

> <Gold.Chemscore.DEInternal.Weighted>
1.7589

> <Gold.Chemscore.Rot.Weighted>
4.3646

> <Gold.Chemscore.Internal.Correction.Weighted>
   9.000000E+99

> <Gold.Protein.RotatedTorsions>
[ 6907 6896 6895 6894 ] final  156.22 input  -60.11 | X-H torsion
[ 7974 7965 7964 7962 ] final -169.40 input  175.53 | X-H torsion
[ 8008 7997 7996 7995 ] final   21.64 input   59.86 | X-H torsion
[ 10167 10162 10161 10158 ] final  177.33 input  -65.29 | X-H torsion
[ 10718 10713 10712 10709 ] final   46.43 input   66.30 | X-H torsion
[ 10763 10752 10751 10750 ] final  125.87 input  -60.55 | X-H torsion
[ 11005 11000 10999 10996 ] final   41.87 input  -57.11 | X-H torsion

> <Gold.Protein.ActiveResidues>
 VAL166  LYS551  ARG553  GLY616  TRP617  ASP618  TYR619  PRO620  LYS621  CYS622 
 ASP623  PHE694  ASN695  SER759  ASP760  ASP761  ALA762  ILE779  LEU786  VAL792 
 PHE793  MET794  SER795  GLU796  ALA797  LYS798  CYS799  TRP800  GLU811  SER814 

> <Gold.Protein.RotatedAtoms>
  152.0328  133.3944  159.4304 H   0  0  0  0  0  0  0  0  0  0  0  0  # atno 6907 bound_to 6896
  150.6881  134.3502  159.4915 H   0  0  0  0  0  0  0  0  0  0  0  0  # atno 6908 bound_to 6896
  152.1290  134.9149  160.0610 H   0  0  0  0  0  0  0  0  0  0  0  0  # atno 6909 bound_to 6896
  144.7186  140.2227  143.6314 H   0  0  0  0  0  0  0  0  0  0  0  0  # atno 7974 bound_to 7965
  154.9536  140.3069  155.5063 H   0  0  0  0  0  0  0  0  0  0  0  0  # atno 8008 bound_to 7997
  156.2984  140.2314  156.4554 H   0  0  0  0  0  0  0  0  0  0  0  0  # atno 8009 bound_to 7997
  154.8031  140.0433  157.1276 H   0  0  0  0  0  0  0  0  0  0  0  0  # atno 8010 bound_to 7997
  139.5249  144.2810  152.0546 H   0  0  0  0  0  0  0  0  0  0  0  0  # atno 10167 bound_to 10162
  157.4480  130.8121  149.7760 H   0  0  0  0  0  0  0  0  0  0  0  0  # atno 10718 bound_to 10713
  153.6843  135.3309  155.3186 H   0  0  0  0  0  0  0  0  0  0  0  0  # atno 10763 bound_to 10752
  154.8457  135.4416  154.1574 H   0  0  0  0  0  0  0  0  0  0  0  0  # atno 10764 bound_to 10752
  153.2599  135.6990  153.7667 H   0  0  0  0  0  0  0  0  0  0  0  0  # atno 10765 bound_to 10752
  140.1793  134.4123  155.8209 H   0  0  0  0  0  0  0  0  0  0  0  0  # atno 11005 bound_to 11000
  145.8485  139.2164  143.1786 LP  0  0  0  0  0  0  0  0  0  0  0  0  # atno 17320 bound_to 7965
  146.0282  140.8283  142.9889 LP  0  0  0  0  0  0  0  0  0  0  0  0  # atno 17321 bound_to 7965
  140.2266  144.4412  150.6318 LP  0  0  0  0  0  0  0  0  0  0  0  0  # atno 17342 bound_to 10162
  140.6383  143.2199  151.6346 LP  0  0  0  0  0  0  0  0  0  0  0  0  # atno 17343 bound_to 10162
  155.9975  130.3899  150.2737 LP  0  0  0  0  0  0  0  0  0  0  0  0  # atno 17370 bound_to 10713
  157.0906  131.0169  151.3123 LP  0  0  0  0  0  0  0  0  0  0  0  0  # atno 17371 bound_to 10713
  141.2222  133.6993  156.7903 LP  0  0  0  0  0  0  0  0  0  0  0  0  # atno 17394 bound_to 11000
  140.2286  134.8703  157.3452 LP  0  0  0  0  0  0  0  0  0  0  0  0  # atno 17395 bound_to 11000

$$$$
