AV-unprocessed.smi:3015|AV-procd|sdf|11473|dock4
  -GOLD-   2272016413D 1   1.00000     0.00000
 Structure written by MMmdl.
 23 23  0  0  0  0  0  0  0  0  1 V2000
  151.4530  140.4698  155.2932 N   0  0  0  0  0  0  0  0  0  0  0  0
  150.3619  141.3840  155.6701 C   0  0  1  0  0  0  0  0  0  0  0  0
  149.0799  141.0476  154.8864 C   0  0  0  0  0  0  0  0  0  0  0  0
  149.2419  141.3201  153.5103 O   0  0  0  0  0  0  0  0  0  0  0  0
  150.1241  141.3705  157.1951 C   0  0  0  0  0  0  0  0  0  0  0  0
  151.1497  142.1857  157.9627 C   0  0  0  0  0  0  0  0  0  0  0  0
  151.9366  141.5982  158.9749 C   0  0  0  0  0  0  0  0  0  0  0  0
  152.8730  142.3987  159.6572 C   0  0  0  0  0  0  0  0  0  0  0  0
  152.9834  143.7564  159.2965 C   0  0  0  0  0  0  0  0  0  0  0  0
  152.2359  144.3298  158.3289 N   0  0  0  0  0  0  0  0  0  0  0  0
  151.3401  143.5550  157.6799 C   0  0  0  0  0  0  0  0  0  0  0  0
  152.3416  140.8067  155.6609 H   0  0  0  0  0  0  0  0  0  0  0  0
  151.2976  139.5474  155.6971 H   0  0  0  0  0  0  0  0  0  0  0  0
  150.6564  142.3951  155.3860 H   0  0  0  0  0  0  0  0  0  0  0  0
  148.8362  139.9899  154.9930 H   0  0  0  0  0  0  0  0  0  0  0  0
  148.2296  141.6139  155.2680 H   0  0  0  0  0  0  0  0  0  0  0  0
  149.1737  140.5075  153.0328 H   0  0  0  0  0  0  0  0  0  0  0  0
  149.1392  141.7761  157.4285 H   0  0  0  0  0  0  0  0  0  0  0  0
  150.1224  140.3449  157.5673 H   0  0  0  0  0  0  0  0  0  0  0  0
  151.8276  140.5529  159.2240 H   0  0  0  0  0  0  0  0  0  0  0  0
  153.4919  141.9824  160.4381 H   0  0  0  0  0  0  0  0  0  0  0  0
  153.6905  144.3990  159.7997 H   0  0  0  0  0  0  0  0  0  0  0  0
  150.7582  144.0430  156.9118 H   0  0  0  0  0  0  0  0  0  0  0  0
  1  2  1  0  0  0  0
  1 12  1  0  0  0  0
  1 13  1  0  0  0  0
  2  3  1  0  0  0  0
  2  5  1  0  0  0  0
  2 14  1  0  0  0  0
  3  4  1  0  0  0  0
  3 15  1  0  0  0  0
  3 16  1  0  0  0  0
  4 17  1  0  0  0  0
  5  6  1  0  0  0  0
  5 18  1  0  0  0  0
  5 19  1  0  0  0  0
  6 11  1  0  0  0  0
  6  7  2  0  0  0  0
  7  8  1  0  0  0  0
  7 20  1  0  0  0  0
  8  9  2  0  0  0  0
  8 21  1  0  0  0  0
  9 10  1  0  0  0  0
  9 22  1  0  0  0  0
 10 11  2  0  0  0  0
 11 23  1  0  0  0  0
M  END
> <s_m_source_file>
AV-unprocessed.smi

> <i_m_source_file_index>
3015

> <i_lp_mmshare_version>
43012

> <i_f3d_flags>
0

> <s_epik_input>
W09IXVtDSDJdW0NAQEhdKFtOSDJdKVtDSDJdYzFbY0hdW2NIXVtjSF1uW2NIXTE=

> <s_epik_cmdline>
J2VwaWtfcHl0aG9uJywgJy1waCcsICc3LjAnLCAnLXRuJywgJzgnLCAnLW1hJywgJzIwMCcsICctbWV0YWxfYmluZGluZycsICctaW1hZScsICc8aW5maWxlLm1hZT4nLCAnLW9tYWUnLCAnPG91dGZpbGUubWFlPic=

> <r_epik_Ionization_Penalty>
2.0687

> <r_epik_Ionization_Penalty_Charging>
0

> <r_epik_Ionization_Penalty_Neutral>
2.0687

> <r_epik_State_Penalty>
2.52199

> <r_epik_Charging_Adjusted_Penalty>
2.52199

> <i_epik_Tot_Q>
0

> <i_epik_Tot_abs_Q>
0

> <r_epik_Metal_State_Penalty>
2.50694

> <b_epik_Metal_Only>
0

> <s_lp_Force_Field>
OPLS_2005

> <r_lp_Energy>
7.66909

> <b_lp_Chiralities_Consistent>
1

> <s_lp_Variant>
AV-unprocessed.smi:3015-4

> <Gold.Version>
5.8.1

> <Gold.Id.Protein>
6NUR|6NUR_protein|mol2

> <Gold.PLP.Fitness>
38.2611

> <Gold.PLP.PLP>
-28.2912

> <Gold.PLP.part.hbond>
-4.0000

> <Gold.PLP.part.metal>
0.0000

> <Gold.PLP.part.buried>
-4.0227

> <Gold.PLP.part.nonpolar>
-19.9738

> <Gold.PLP.part.repulsive>
0.0459

> <Gold.PLP.ligand.clash>
0.0000

> <Gold.PLP.ligand.torsion>
0.2435

> <Gold.PLP.Chemscore.Hbond>
2.4800

> <Gold.PLP.Chemscore.CHOScore>
1.0000

> <Gold.PLP.Chemscore.Metal>
0.0000

> <Gold.Chemscore.Hbonds>
donor molecule, donor type, donor heavy atom, donor atom, acceptor molecule, acceptor atom, score
      L1  H     4    17       P1  7957  0.62
      P1  H  7989  7998       L1     1  0.88
      P1  H  8011  8017       L1     4  0.94
      L1  C    11    23       P1  8028  1.00

> <Gold.PLP.Chemscore.Internal.Correction>
0.0168

> <Gold.Rescore>
     Score         DG    S(hbond)    S(metal)    S(lipo)     H(rot)  DE(clash)    DE(int)     intcor
     13.03     -13.22       1.48        0.00      69.28       2.08       0.02       0.17       ----

> <Gold.Chemscore.Fitness>
13.0265

> <Gold.Chemscore.DG>
-13.2161

> <Gold.Chemscore.ZeroCoef>
-5.4800

> <Gold.Chemscore.Hbond>
1.4819

> <Gold.Chemscore.Metal>
0.0000

> <Gold.Chemscore.Lipo>
69.2798

> <Gold.Chemscore.Internal_Hbond>
0.0000

> <Gold.Chemscore.DEClash>
0.0212

> <Gold.Chemscore.DEInternal>
0.1684

> <Gold.Chemscore.Rot>
2.0778

> <Gold.Chemscore.Internal.Correction>
   9.000000E+99

> <Gold.Chemscore.Hbonds>
donor molecule, donor type, donor heavy atom, donor atom, acceptor molecule, acceptor atom, score
      L1  H     4    17       P1  7957  0.61
      P1  H  7989  7998       L1     1  0.07
      P1  H  8011  8017       L1     4  0.36

> <Gold.Chemscore.Hbond.Weighted>
-4.9496

> <Gold.Chemscore.Metal.Weighted>
-0.0000

> <Gold.Chemscore.Lipo.Weighted>
-8.1057

> <Gold.Chemscore.Internal_Hbond.Weighted>
0.0000

> <Gold.Chemscore.DEClash.Weighted>
0.0212

> <Gold.Chemscore.DEInternal.Weighted>
0.1684

> <Gold.Chemscore.Rot.Weighted>
5.3193

> <Gold.Chemscore.Internal.Correction.Weighted>
   9.000000E+99

> <Gold.Protein.RotatedTorsions>
[ 6907 6896 6895 6894 ] final -136.18 input  -60.11 | X-H torsion
[ 7974 7965 7964 7962 ] final  -72.10 input  175.53 | X-H torsion
[ 8008 7997 7996 7995 ] final -138.10 input   59.86 | X-H torsion
[ 10167 10162 10161 10158 ] final   -3.30 input  -65.29 | X-H torsion
[ 10718 10713 10712 10709 ] final   92.12 input   66.30 | X-H torsion
[ 10763 10752 10751 10750 ] final  -14.93 input  -60.55 | X-H torsion
[ 11005 11000 10999 10996 ] final  -12.71 input  -57.11 | X-H torsion

> <Gold.Protein.ActiveResidues>
 VAL166  LYS551  ARG553  GLY616  TRP617  ASP618  TYR619  PRO620  LYS621  CYS622 
 ASP623  PHE694  ASN695  SER759  ASP760  ASP761  ALA762  ILE779  LEU786  VAL792 
 PHE793  MET794  SER795  GLU796  ALA797  LYS798  CYS799  TRP800  GLU811  SER814 

> <Gold.Protein.RotatedAtoms>
  151.0069  133.6002  159.2687 H   0  0  0  0  0  0  0  0  0  0  0  0  # atno 6907 bound_to 6896
  151.3168  135.0807  159.9301 H   0  0  0  0  0  0  0  0  0  0  0  0  # atno 6908 bound_to 6896
  152.5289  133.9723  159.7822 H   0  0  0  0  0  0  0  0  0  0  0  0  # atno 6909 bound_to 6896
  145.6695  140.9226  143.0890 H   0  0  0  0  0  0  0  0  0  0  0  0  # atno 7974 bound_to 7965
  155.4228  140.0519  157.3024 H   0  0  0  0  0  0  0  0  0  0  0  0  # atno 8008 bound_to 7997
  154.4895  140.2114  155.9539 H   0  0  0  0  0  0  0  0  0  0  0  0  # atno 8009 bound_to 7997
  156.1322  140.3169  155.8371 H   0  0  0  0  0  0  0  0  0  0  0  0  # atno 8010 bound_to 7997
  140.6885  143.6555  150.8312 H   0  0  0  0  0  0  0  0  0  0  0  0  # atno 10167 bound_to 10162
  157.6959  131.0432  150.3833 H   0  0  0  0  0  0  0  0  0  0  0  0  # atno 10718 bound_to 10713
  153.5356  135.7014  153.5661 H   0  0  0  0  0  0  0  0  0  0  0  0  # atno 10763 bound_to 10752
  153.3649  135.3960  155.1746 H   0  0  0  0  0  0  0  0  0  0  0  0  # atno 10764 bound_to 10752
  154.8679  135.3798  154.4857 H   0  0  0  0  0  0  0  0  0  0  0  0  # atno 10765 bound_to 10752
  140.7686  133.8457  155.9187 H   0  0  0  0  0  0  0  0  0  0  0  0  # atno 11005 bound_to 11000
  144.7062  139.8554  143.7429 LP  0  0  0  0  0  0  0  0  0  0  0  0  # atno 17320 bound_to 7965
  146.1057  139.4057  143.0319 LP  0  0  0  0  0  0  0  0  0  0  0  0  # atno 17321 bound_to 7965
  140.0265  143.5487  152.2778 LP  0  0  0  0  0  0  0  0  0  0  0  0  # atno 17342 bound_to 10162
  139.6265  144.7638  151.2628 LP  0  0  0  0  0  0  0  0  0  0  0  0  # atno 17343 bound_to 10162
  156.4245  130.3959  149.6802 LP  0  0  0  0  0  0  0  0  0  0  0  0  # atno 17370 bound_to 10713
  156.4042  130.7689  151.2699 LP  0  0  0  0  0  0  0  0  0  0  0  0  # atno 17371 bound_to 10713
  140.9595  134.1673  157.4665 LP  0  0  0  0  0  0  0  0  0  0  0  0  # atno 17394 bound_to 11000
  139.8759  134.9939  156.5670 LP  0  0  0  0  0  0  0  0  0  0  0  0  # atno 17395 bound_to 11000

$$$$
