AV-unprocessed.smi:2768|AV-procd|sdf|10653|dock9
  -GOLD-   2272015103D 1   1.00000     0.00000
 Structure written by MMmdl.
 34 35  0  0  0  0  0  0  0  0  2 V2000
  153.2753  138.6583  160.4948 O   0  0  0  0  0  0  0  0  0  0  0  0
  153.6180  139.6512  159.8427 C   0  0  0  0  0  0  0  0  0  0  0  0
  153.5044  139.8991  158.5056 N   0  5  0  0  0  0  0  0  0  0  0  0
  152.5189  139.2637  157.6263 C   0  0  1  0  0  0  0  0  0  0  0  0
  151.9253  140.2971  156.6352 C   0  0  0  0  0  0  0  0  0  0  0  0
  150.9624  139.6638  155.5988 C   0  0  0  0  0  0  0  0  0  0  0  0
  151.6165  138.5167  154.7998 C   0  0  0  0  0  0  0  0  0  0  0  0
  152.2111  137.4731  155.7717 C   0  0  0  0  0  0  0  0  0  0  0  0
  153.1629  138.0908  156.8318 C   0  0  1  0  0  0  0  0  0  0  0  0
  154.3500  138.5129  156.1850 O   0  0  0  0  0  0  0  0  0  0  0  0
  154.2668  140.8338  160.5935 C   0  0  0  0  0  0  0  0  0  0  0  0
  154.4547  140.4883  161.8704 F   0  0  0  0  0  0  0  0  0  0  0  0
  155.4709  141.0955  160.0734 F   0  0  0  0  0  0  0  0  0  0  0  0
  153.3753  142.0726  160.5202 C   0  0  0  0  0  0  0  0  0  0  0  0
  152.9086  142.7032  161.6965 C   0  0  0  0  0  0  0  0  0  0  0  0
  152.1004  143.8494  161.5752 C   0  0  0  0  0  0  0  0  0  0  0  0
  151.7848  144.3240  160.2882 C   0  0  0  0  0  0  0  0  0  0  0  0
  152.2982  143.6296  159.1754 C   0  0  0  0  0  0  0  0  0  0  0  0
  153.0756  142.5313  159.2806 N   0  0  0  0  0  0  0  0  0  0  0  0
  151.6867  138.8428  158.1930 H   0  0  0  0  0  0  0  0  0  0  0  0
  153.4520  137.3104  157.5371 H   0  0  0  0  0  0  0  0  0  0  0  0
  151.3973  141.0748  157.1881 H   0  0  0  0  0  0  0  0  0  0  0  0
  152.7325  140.8024  156.1026 H   0  0  0  0  0  0  0  0  0  0  0  0
  150.0656  139.2921  156.0987 H   0  0  0  0  0  0  0  0  0  0  0  0
  150.6182  140.4337  154.9078 H   0  0  0  0  0  0  0  0  0  0  0  0
  150.8867  138.0481  154.1391 H   0  0  0  0  0  0  0  0  0  0  0  0
  152.4049  138.9170  154.1615 H   0  0  0  0  0  0  0  0  0  0  0  0
  151.3928  136.9536  156.2741 H   0  0  0  0  0  0  0  0  0  0  0  0
  152.7385  136.7049  155.2046 H   0  0  0  0  0  0  0  0  0  0  0  0
  154.4854  139.4210  156.4126 H   0  0  0  0  0  0  0  0  0  0  0  0
  153.1747  142.3236  162.6721 H   0  0  0  0  0  0  0  0  0  0  0  0
  151.7307  144.3568  162.4540 H   0  0  0  0  0  0  0  0  0  0  0  0
  151.1671  145.1999  160.1566 H   0  0  0  0  0  0  0  0  0  0  0  0
  152.0776  143.9655  158.1730 H   0  0  0  0  0  0  0  0  0  0  0  0
  1  2  2  0  0  0  0
  2  3  1  0  0  0  0
  2 11  1  0  0  0  0
  3  4  1  0  0  0  0
  4 20  1  0  0  0  0
  4  9  1  0  0  0  0
  4  5  1  0  0  0  0
  5  6  1  0  0  0  0
  5 22  1  0  0  0  0
  5 23  1  0  0  0  0
  6  7  1  0  0  0  0
  6 24  1  0  0  0  0
  6 25  1  0  0  0  0
  7  8  1  0  0  0  0
  7 26  1  0  0  0  0
  7 27  1  0  0  0  0
  8  9  1  0  0  0  0
  8 28  1  0  0  0  0
  8 29  1  0  0  0  0
  9 21  1  0  0  0  0
  9 10  1  0  0  0  0
 10 30  1  0  0  0  0
 11 12  1  0  0  0  0
 11 13  1  0  0  0  0
 11 14  1  0  0  0  0
 14 19  1  0  0  0  0
 14 15  2  0  0  0  0
 15 16  1  0  0  0  0
 15 31  1  0  0  0  0
 16 17  2  0  0  0  0
 16 32  1  0  0  0  0
 17 18  1  0  0  0  0
 17 33  1  0  0  0  0
 18 19  2  0  0  0  0
 18 34  1  0  0  0  0
M  CHG  1   3  -1
M  END
> <s_m_source_file>
AV-unprocessed.smi

> <i_m_source_file_index>
2768

> <i_lp_mmshare_version>
43012

> <i_f3d_flags>
0

> <s_epik_input>
bjFbY0hdW2NIXVtjSF1bY0hdYzFDKEYpKEYpQyg9TylbTkhdW0NAQEhdMltDSDJdW0NIMl1bQ0gyXVtDSDJdW0NASF0yW09IXQ==

> <s_epik_cmdline>
J2VwaWtfcHl0aG9uJywgJy1waCcsICc3LjAnLCAnLXRuJywgJzgnLCAnLW1hJywgJzIwMCcsICctbWV0YWxfYmluZGluZycsICctaW1hZScsICc8aW5maWxlLm1hZT4nLCAnLW9tYWUnLCAnPG91dGZpbGUubWFlPic=

> <r_lp_tautomer_probability>
1

> <r_epik_Ionization_Penalty>
5.70553

> <r_epik_Ionization_Penalty_Charging>
5.70553

> <r_epik_Ionization_Penalty_Neutral>
5.5493e-06

> <r_epik_State_Penalty>
5.70549

> <r_epik_Charging_Adjusted_Penalty>
11.411

> <i_epik_Tot_Q>
-1

> <i_epik_Tot_abs_Q>
1

> <r_epik_Metal_State_Penalty>
1.6859

> <b_epik_Metal_Only>
1

> <s_lp_Force_Field>
OPLS_2005

> <r_lp_Energy>
27.4562

> <b_lp_Chiralities_Consistent>
1

> <s_lp_Variant>
AV-unprocessed.smi:2768-6

> <Gold.Version>
5.8.1

> <Gold.Id.Protein>
6NUR|6NUR_protein|mol2

> <Gold.PLP.Fitness>
47.2099

> <Gold.PLP.PLP>
-43.7057

> <Gold.PLP.part.hbond>
-1.4809

> <Gold.PLP.part.metal>
0.0000

> <Gold.PLP.part.buried>
-3.8787

> <Gold.PLP.part.nonpolar>
-37.6988

> <Gold.PLP.part.repulsive>
0.0000

> <Gold.PLP.ligand.clash>
1.5612

> <Gold.PLP.ligand.torsion>
0.4776

> <Gold.PLP.Chemscore.Hbond>
2.0000

> <Gold.PLP.Chemscore.CHOScore>
0.0000

> <Gold.PLP.Chemscore.Metal>
0.0000

> <Gold.Chemscore.Hbonds>
donor molecule, donor type, donor heavy atom, donor atom, acceptor molecule, acceptor atom, score
      P1  H  7997  8009       L1     3  1.00

> <Gold.PLP.Chemscore.Internal.Correction>
0.0207

> <Gold.Rescore>
     Score         DG    S(hbond)    S(metal)    S(lipo)     H(rot)  DE(clash)    DE(int)     intcor
     13.69     -15.81       0.81        0.00     107.79       1.95       0.32       1.80       ----

> <Gold.Chemscore.Fitness>
13.6924

> <Gold.Chemscore.DG>
-15.8093

> <Gold.Chemscore.ZeroCoef>
-5.4800

> <Gold.Chemscore.Hbond>
0.8116

> <Gold.Chemscore.Metal>
0.0000

> <Gold.Chemscore.Lipo>
107.7883

> <Gold.Chemscore.Internal_Hbond>
0.0000

> <Gold.Chemscore.DEClash>
0.3206

> <Gold.Chemscore.DEInternal>
1.7962

> <Gold.Chemscore.Rot>
1.9503

> <Gold.Chemscore.Internal.Correction>
   9.000000E+99

> <Gold.Chemscore.Hbonds>
donor molecule, donor type, donor heavy atom, donor atom, acceptor molecule, acceptor atom, score
      P1  H  7997  8009       L1     3  0.02

> <Gold.Chemscore.Hbond.Weighted>
-2.7108

> <Gold.Chemscore.Metal.Weighted>
-0.0000

> <Gold.Chemscore.Lipo.Weighted>
-12.6112

> <Gold.Chemscore.Internal_Hbond.Weighted>
0.0000

> <Gold.Chemscore.DEClash.Weighted>
0.3206

> <Gold.Chemscore.DEInternal.Weighted>
1.7962

> <Gold.Chemscore.Rot.Weighted>
4.9928

> <Gold.Chemscore.Internal.Correction.Weighted>
   9.000000E+99

> <Gold.Protein.RotatedTorsions>
[ 6907 6896 6895 6894 ] final  118.72 input  -60.11 | X-H torsion
[ 7974 7965 7964 7962 ] final    8.80 input  175.53 | X-H torsion
[ 8008 7997 7996 7995 ] final  148.29 input   59.86 | X-H torsion
[ 10167 10162 10161 10158 ] final -125.53 input  -65.29 | X-H torsion
[ 10718 10713 10712 10709 ] final -147.56 input   66.30 | X-H torsion
[ 10763 10752 10751 10750 ] final  121.56 input  -60.55 | X-H torsion
[ 11005 11000 10999 10996 ] final  -35.02 input  -57.11 | X-H torsion

> <Gold.Protein.ActiveResidues>
 VAL166  LYS551  ARG553  GLY616  TRP617  ASP618  TYR619  PRO620  LYS621  CYS622 
 ASP623  PHE694  ASN695  SER759  ASP760  ASP761  ALA762  ILE779  LEU786  VAL792 
 PHE793  MET794  SER795  GLU796  ALA797  LYS798  CYS799  TRP800  GLU811  SER814 

> <Gold.Protein.RotatedAtoms>
  152.4523  133.7653  159.6769 H   0  0  0  0  0  0  0  0  0  0  0  0  # atno 6907 bound_to 6896
  150.8438  133.7883  159.3057 H   0  0  0  0  0  0  0  0  0  0  0  0  # atno 6908 bound_to 6896
  151.5499  135.1070  159.9999 H   0  0  0  0  0  0  0  0  0  0  0  0  # atno 6909 bound_to 6896
  146.2412  139.9879  142.8429 H   0  0  0  0  0  0  0  0  0  0  0  0  # atno 7974 bound_to 7965
  156.2796  140.2132  156.5674 H   0  0  0  0  0  0  0  0  0  0  0  0  # atno 8008 bound_to 7997
  154.7163  140.0507  157.0620 H   0  0  0  0  0  0  0  0  0  0  0  0  # atno 8009 bound_to 7997
  155.0538  140.3159  155.4686 H   0  0  0  0  0  0  0  0  0  0  0  0  # atno 8010 bound_to 7997
  139.9811  143.5741  152.2378 H   0  0  0  0  0  0  0  0  0  0  0  0  # atno 10167 bound_to 10162
  156.4091  130.7972  151.2188 H   0  0  0  0  0  0  0  0  0  0  0  0  # atno 10718 bound_to 10713
  153.6159  135.3422  155.2994 H   0  0  0  0  0  0  0  0  0  0  0  0  # atno 10763 bound_to 10752
  154.8609  135.4261  154.2259 H   0  0  0  0  0  0  0  0  0  0  0  0  # atno 10764 bound_to 10752
  153.3121  135.7032  153.7179 H   0  0  0  0  0  0  0  0  0  0  0  0  # atno 10765 bound_to 10752
  140.9763  133.7081  156.1607 H   0  0  0  0  0  0  0  0  0  0  0  0  # atno 11005 bound_to 11000
  145.1531  140.9633  143.4421 LP  0  0  0  0  0  0  0  0  0  0  0  0  # atno 17320 bound_to 7965
  145.0187  139.3444  143.6083 LP  0  0  0  0  0  0  0  0  0  0  0  0  # atno 17321 bound_to 7965
  139.6409  144.7654  151.2341 LP  0  0  0  0  0  0  0  0  0  0  0  0  # atno 17342 bound_to 10162
  140.7489  143.6319  150.8415 LP  0  0  0  0  0  0  0  0  0  0  0  0  # atno 17343 bound_to 10162
  157.7506  131.0263  150.3957 LP  0  0  0  0  0  0  0  0  0  0  0  0  # atno 17370 bound_to 10713
  156.4252  130.3961  149.6798 LP  0  0  0  0  0  0  0  0  0  0  0  0  # atno 17371 bound_to 10713
  140.7254  134.4312  157.5571 LP  0  0  0  0  0  0  0  0  0  0  0  0  # atno 17394 bound_to 11000
  139.8932  134.8737  156.2236 LP  0  0  0  0  0  0  0  0  0  0  0  0  # atno 17395 bound_to 11000

$$$$
