AV-unprocessed.smi:1894|AV-procd|sdf|7679|dock2
  -GOLD-   22720 9423D 1   1.00000     0.00000
 Structure written by MMmdl.
 32 34  0  0  0  0  0  0  0  0  1 V2000
  150.3045  141.7075  157.1709 O   0  0  0  0  0  0  0  0  0  0  0  0
  151.4302  141.2398  157.3401 C   0  0  0  0  0  0  0  0  0  0  0  0
  151.9504  140.1478  156.4057 C   0  0  0  0  0  0  0  0  0  0  0  0
  150.8520  139.4486  155.7653 N   0  0  0  0  0  0  0  0  0  0  0  0
  149.7333  138.9352  156.2800 C   0  0  0  0  0  0  0  0  0  0  0  0
  148.9498  138.3525  155.3830 N   0  0  0  0  0  0  0  0  0  0  0  0
  149.6981  138.5582  154.2585 C   0  0  0  0  0  0  0  0  0  0  0  0
  150.8479  139.2101  154.4322 N   0  0  0  0  0  0  0  0  0  0  0  0
  152.2585  141.6278  158.3224 N   0  0  0  0  0  0  0  0  0  0  0  0
  151.9660  142.6340  159.3374 C   0  0  0  0  0  0  0  0  0  0  0  0
  151.4781  143.9440  158.7397 C   0  0  0  0  0  0  0  0  0  0  0  0
  152.4240  144.8847  158.0303 C   0  0  0  0  0  0  0  0  0  0  0  0
  151.8285  145.2753  159.3629 C   0  0  0  0  0  0  0  0  0  0  0  0
  153.1656  142.8789  160.2349 C   0  0  0  0  0  0  0  0  0  0  0  0
  153.7345  141.7752  161.0939 C   0  0  0  0  0  0  0  0  0  0  0  0
  153.0286  142.9473  161.7376 C   0  0  0  0  0  0  0  0  0  0  0  0
  152.5829  140.5884  155.6341 H   0  0  0  0  0  0  0  0  0  0  0  0
  152.5653  139.4357  156.9588 H   0  0  0  0  0  0  0  0  0  0  0  0
  149.4895  138.9869  157.3312 H   0  0  0  0  0  0  0  0  0  0  0  0
  149.3860  138.2170  153.2823 H   0  0  0  0  0  0  0  0  0  0  0  0
  153.1608  141.1779  158.3797 H   0  0  0  0  0  0  0  0  0  0  0  0
  151.1687  142.2462  159.9753 H   0  0  0  0  0  0  0  0  0  0  0  0
  150.4815  143.8743  158.3074 H   0  0  0  0  0  0  0  0  0  0  0  0
  153.4820  144.6317  158.0146 H   0  0  0  0  0  0  0  0  0  0  0  0
  152.0533  145.3952  157.1439 H   0  0  0  0  0  0  0  0  0  0  0  0
  151.0596  146.0449  159.3663 H   0  0  0  0  0  0  0  0  0  0  0  0
  152.4938  145.2776  160.2236 H   0  0  0  0  0  0  0  0  0  0  0  0
  153.8964  143.5595  159.8013 H   0  0  0  0  0  0  0  0  0  0  0  0
  153.2187  140.8167  161.0959 H   0  0  0  0  0  0  0  0  0  0  0  0
  154.8168  141.7226  161.1917 H   0  0  0  0  0  0  0  0  0  0  0  0
  153.6403  143.6772  162.2639 H   0  0  0  0  0  0  0  0  0  0  0  0
  152.0489  142.7601  162.1723 H   0  0  0  0  0  0  0  0  0  0  0  0
  1  2  2  0  0  0  0
  2  3  1  0  0  0  0
  2  9  1  0  0  0  0
  3  4  1  0  0  0  0
  3 17  1  0  0  0  0
  3 18  1  0  0  0  0
  4  8  1  0  0  0  0
  4  5  1  0  0  0  0
  5  6  2  0  0  0  0
  5 19  1  0  0  0  0
  6  7  1  0  0  0  0
  7  8  2  0  0  0  0
  7 20  1  0  0  0  0
  9 10  1  0  0  0  0
  9 21  1  0  0  0  0
 10 11  1  0  0  0  0
 10 14  1  0  0  0  0
 10 22  1  0  0  0  0
 11 13  1  0  0  0  0
 11 12  1  0  0  0  0
 11 23  1  0  0  0  0
 12 13  1  0  0  0  0
 12 24  1  0  0  0  0
 12 25  1  0  0  0  0
 13 26  1  0  0  0  0
 13 27  1  0  0  0  0
 14 16  1  0  0  0  0
 14 15  1  0  0  0  0
 14 28  1  0  0  0  0
 15 16  1  0  0  0  0
 15 29  1  0  0  0  0
 15 30  1  0  0  0  0
 16 31  1  0  0  0  0
 16 32  1  0  0  0  0
M  END
> <s_m_source_file>
AV-unprocessed.smi

> <i_m_source_file_index>
1894

> <i_lp_mmshare_version>
43012

> <i_f3d_flags>
0

> <s_epik_input>
W0NIMl0xW0NIMl1bQ0hdMVtDSF0oW0NIXTJbQ0gyXVtDSDJdMilbTkhdQyg9TylbQ0gyXW4zW2NIXW5bY0hdbjM=

> <s_epik_cmdline>
J2VwaWtfcHl0aG9uJywgJy1waCcsICc3LjAnLCAnLXRuJywgJzgnLCAnLW1hJywgJzIwMCcsICctbWV0YWxfYmluZGluZycsICctaW1hZScsICc8aW5maWxlLm1hZT4nLCAnLW9tYWUnLCAnPG91dGZpbGUubWFlPic=

> <r_lp_tautomer_probability>
1

> <r_epik_Ionization_Penalty>
9.18136e-06

> <r_epik_Ionization_Penalty_Charging>
0

> <r_epik_Ionization_Penalty_Neutral>
9.18136e-06

> <r_epik_State_Penalty>
-0

> <r_epik_Charging_Adjusted_Penalty>
0

> <i_epik_Tot_Q>
0

> <i_epik_Tot_abs_Q>
0

> <r_epik_Metal_State_Penalty>
-0

> <b_epik_Metal_Only>
0

> <s_lp_Force_Field>
OPLS_2005

> <r_lp_Energy>
25.0863

> <b_lp_Chiralities_Consistent>
1

> <s_lp_Variant>
AV-unprocessed.smi:1894-1

> <Gold.Version>
5.8.1

> <Gold.Id.Protein>
6NUR|6NUR_protein|mol2

> <Gold.PLP.Fitness>
46.2199

> <Gold.PLP.PLP>
-39.0789

> <Gold.PLP.part.hbond>
-1.0000

> <Gold.PLP.part.metal>
0.0000

> <Gold.PLP.part.buried>
-4.3959

> <Gold.PLP.part.nonpolar>
-33.6606

> <Gold.PLP.part.repulsive>
0.3962

> <Gold.PLP.ligand.clash>
0.0000

> <Gold.PLP.ligand.torsion>
1.7017

> <Gold.PLP.Chemscore.Hbond>
1.0000

> <Gold.PLP.Chemscore.CHOScore>
1.7941

> <Gold.PLP.Chemscore.Metal>
0.0000

> <Gold.Chemscore.Hbonds>
donor molecule, donor type, donor heavy atom, donor atom, acceptor molecule, acceptor atom, score
      P1  H  7989  7998       L1     8  0.94
      L1  C     7    20       P1  7948  1.00
      L1  C     7    20       P1  7957  0.26

> <Gold.PLP.Chemscore.Internal.Correction>
2.1623

> <Gold.Rescore>
     Score         DG    S(hbond)    S(metal)    S(lipo)     H(rot)  DE(clash)    DE(int)     intcor
     10.01     -12.87       0.96        0.00      90.50       2.50       0.00       2.86       ----

> <Gold.Chemscore.Fitness>
10.0097

> <Gold.Chemscore.DG>
-12.8724

> <Gold.Chemscore.ZeroCoef>
-5.4800

> <Gold.Chemscore.Hbond>
0.9576

> <Gold.Chemscore.Metal>
0.0000

> <Gold.Chemscore.Lipo>
90.4954

> <Gold.Chemscore.Internal_Hbond>
0.0000

> <Gold.Chemscore.DEClash>
0.0038

> <Gold.Chemscore.DEInternal>
2.8589

> <Gold.Chemscore.Rot>
2.4977

> <Gold.Chemscore.Internal.Correction>
   9.000000E+99

> <Gold.Chemscore.Hbonds>
donor molecule, donor type, donor heavy atom, donor atom, acceptor molecule, acceptor atom, score
      P1  H  7989  7998       L1     8  0.59

> <Gold.Chemscore.Hbond.Weighted>
-3.1985

> <Gold.Chemscore.Metal.Weighted>
-0.0000

> <Gold.Chemscore.Lipo.Weighted>
-10.5880

> <Gold.Chemscore.Internal_Hbond.Weighted>
0.0000

> <Gold.Chemscore.DEClash.Weighted>
0.0038

> <Gold.Chemscore.DEInternal.Weighted>
2.8589

> <Gold.Chemscore.Rot.Weighted>
6.3941

> <Gold.Chemscore.Internal.Correction.Weighted>
   9.000000E+99

> <Gold.Protein.RotatedTorsions>
[ 6907 6896 6895 6894 ] final  -38.31 input  -60.11 | X-H torsion
[ 7974 7965 7964 7962 ] final  138.18 input  175.53 | X-H torsion
[ 8008 7997 7996 7995 ] final  -83.70 input   59.86 | X-H torsion
[ 10167 10162 10161 10158 ] final   16.48 input  -65.29 | X-H torsion
[ 10718 10713 10712 10709 ] final   40.07 input   66.30 | X-H torsion
[ 10763 10752 10751 10750 ] final   90.88 input  -60.55 | X-H torsion
[ 11005 11000 10999 10996 ] final   28.45 input  -57.11 | X-H torsion

> <Gold.Protein.ActiveResidues>
 VAL166  LYS551  ARG553  GLY616  TRP617  ASP618  TYR619  PRO620  LYS621  CYS622 
 ASP623  PHE694  ASN695  SER759  ASP760  ASP761  ALA762  ILE779  LEU786  VAL792 
 PHE793  MET794  SER795  GLU796  ALA797  LYS798  CYS799  TRP800  GLU811  SER814 

> <Gold.Protein.RotatedAtoms>
  151.0040  134.9344  159.7969 H   0  0  0  0  0  0  0  0  0  0  0  0  # atno 6907 bound_to 6896
  152.5285  134.3116  159.9125 H   0  0  0  0  0  0  0  0  0  0  0  0  # atno 6908 bound_to 6896
  151.3122  133.4034  159.2682 H   0  0  0  0  0  0  0  0  0  0  0  0  # atno 6909 bound_to 6896
  144.9397  139.4946  143.5578 H   0  0  0  0  0  0  0  0  0  0  0  0  # atno 7974 bound_to 7965
  154.6219  140.0615  156.9626 H   0  0  0  0  0  0  0  0  0  0  0  0  # atno 8008 bound_to 7997
  155.1803  140.3298  155.4358 H   0  0  0  0  0  0  0  0  0  0  0  0  # atno 8009 bound_to 7997
  156.2436  140.1898  156.6900 H   0  0  0  0  0  0  0  0  0  0  0  0  # atno 8010 bound_to 7997
  140.5794  143.9009  150.6777 H   0  0  0  0  0  0  0  0  0  0  0  0  # atno 10167 bound_to 10162
  157.3779  130.7737  149.7170 H   0  0  0  0  0  0  0  0  0  0  0  0  # atno 10718 bound_to 10713
  153.2023  135.4417  155.0281 H   0  0  0  0  0  0  0  0  0  0  0  0  # atno 10763 bound_to 10752
  154.8154  135.3313  154.7193 H   0  0  0  0  0  0  0  0  0  0  0  0  # atno 10764 bound_to 10752
  153.7637  135.6989  153.4976 H   0  0  0  0  0  0  0  0  0  0  0  0  # atno 10765 bound_to 10752
  140.3154  134.2602  155.7726 H   0  0  0  0  0  0  0  0  0  0  0  0  # atno 11005 bound_to 11000
  146.3281  139.8407  142.8891 LP  0  0  0  0  0  0  0  0  0  0  0  0  # atno 17320 bound_to 7965
  145.3010  141.0194  143.3608 LP  0  0  0  0  0  0  0  0  0  0  0  0  # atno 17321 bound_to 7965
  140.2505  143.3597  152.1410 LP  0  0  0  0  0  0  0  0  0  0  0  0  # atno 17342 bound_to 10162
  139.5161  144.6973  151.5595 LP  0  0  0  0  0  0  0  0  0  0  0  0  # atno 17343 bound_to 10162
  155.9769  130.4069  150.3746 LP  0  0  0  0  0  0  0  0  0  0  0  0  # atno 17370 bound_to 10713
  157.1846  131.0400  151.2731 LP  0  0  0  0  0  0  0  0  0  0  0  0  # atno 17371 bound_to 10713
  141.2099  133.7736  156.9969 LP  0  0  0  0  0  0  0  0  0  0  0  0  # atno 17394 bound_to 11000
  140.0988  134.9548  157.1890 LP  0  0  0  0  0  0  0  0  0  0  0  0  # atno 17395 bound_to 11000

$$$$
