AV-unprocessed.smi:79|AV-procd|sdf|783|dock5
  -GOLD-   2262017143D 1   1.00000     0.00000
 Structure written by MMmdl.
 56 59  0  0  0  0  0  0  0  0  2 V2000
  143.6921  132.7508  148.4433 C   0  0  0  0  0  0  0  0  0  0  0  0
  144.4204  132.6645  149.7929 C   0  0  2  0  0  0  0  0  0  0  0  0
  144.3987  133.9439  150.3892 O   0  0  0  0  0  0  0  0  0  0  0  0
  145.8896  132.2152  149.6597 C   0  0  0  0  0  0  0  0  0  0  0  0
  146.5542  132.0224  150.9739 N   0  3  1  0  0  0  0  0  0  0  0  0
  147.0997  133.2906  151.5222 C   0  0  0  0  0  0  0  0  0  0  0  0
  147.8791  133.0428  152.8247 C   0  0  0  0  0  0  0  0  0  0  0  0
  147.0532  132.3191  153.7886 N   0  0  0  0  0  0  0  0  0  0  0  0
  146.3441  133.1010  154.6443 C   0  0  0  0  0  0  0  0  0  0  0  0
  145.2775  133.8134  154.1927 N   0  0  0  0  0  0  0  0  0  0  0  0
  144.5824  134.5922  155.0268 C   0  0  0  0  0  0  0  0  0  0  0  0
  144.7778  134.8016  156.3296 N   0  0  0  0  0  0  0  0  0  0  0  0
  145.8437  134.0872  156.7911 C   0  0  0  0  0  0  0  0  0  0  0  0
  146.6731  133.2216  156.0238 C   0  0  0  0  0  0  0  0  0  0  0  0
  147.6497  132.6599  156.8372 N   0  0  0  0  0  0  0  0  0  0  0  0
  147.4154  133.1690  158.0159 C   0  0  0  0  0  0  0  0  0  0  0  0
  146.3544  134.0446  158.0772 N   0  0  0  0  0  0  0  0  0  0  0  0
  145.8720  134.7495  159.2552 C   0  0  0  0  0  0  0  0  0  0  0  0
  146.9541  135.5795  159.9710 C   0  0  0  0  0  0  0  0  0  0  0  0
  146.2703  136.4718  161.0267 C   0  0  0  0  0  0  0  0  0  0  0  0
  147.1994  137.1111  161.8792 O   0  0  0  0  0  0  0  0  0  0  0  0
  148.1748  134.7786  160.4462 C   0  0  0  0  0  0  0  0  0  0  0  0
  149.0939  135.6563  159.7592 O   0  0  0  0  0  0  0  0  0  0  0  0
  147.9850  136.2727  159.0684 C   0  0  0  0  0  0  0  0  0  0  0  0
  146.4577  131.0715  153.2986 C   0  0  2  0  0  0  0  0  0  0  0  0
  147.5128  129.9595  153.1689 C   0  0  0  0  0  0  0  0  0  0  0  0
  145.7075  131.3064  151.9672 C   0  0  0  0  0  0  0  0  0  0  0  0
  143.6440  131.7761  147.9570 H   0  0  0  0  0  0  0  0  0  0  0  0
  144.1946  133.4382  147.7616 H   0  0  0  0  0  0  0  0  0  0  0  0
  142.6671  133.1001  148.5728 H   0  0  0  0  0  0  0  0  0  0  0  0
  143.8726  131.9981  150.4584 H   0  0  0  0  0  0  0  0  0  0  0  0
  145.2638  134.3212  150.3360 H   0  0  0  0  0  0  0  0  0  0  0  0
  145.9124  131.2789  149.0996 H   0  0  0  0  0  0  0  0  0  0  0  0
  146.4609  132.9351  149.0710 H   0  0  0  0  0  0  0  0  0  0  0  0
  147.7615  133.7581  150.7923 H   0  0  0  0  0  0  0  0  0  0  0  0
  146.2802  133.9884  151.7025 H   0  0  0  0  0  0  0  0  0  0  0  0
  148.7756  132.4576  152.6194 H   0  0  0  0  0  0  0  0  0  0  0  0
  148.2274  133.9949  153.2244 H   0  0  0  0  0  0  0  0  0  0  0  0
  143.7509  135.1239  154.5881 H   0  0  0  0  0  0  0  0  0  0  0  0
  148.0143  132.9150  158.8783 H   0  0  0  0  0  0  0  0  0  0  0  0
  145.0345  135.3833  158.9605 H   0  0  0  0  0  0  0  0  0  0  0  0
  145.4514  134.0052  159.9327 H   0  0  0  0  0  0  0  0  0  0  0  0
  145.6767  137.2551  160.5559 H   0  0  0  0  0  0  0  0  0  0  0  0
  145.5898  135.8873  161.6466 H   0  0  0  0  0  0  0  0  0  0  0  0
  146.7898  137.2518  162.7190 H   0  0  0  0  0  0  0  0  0  0  0  0
  148.3227  134.7780  161.5266 H   0  0  0  0  0  0  0  0  0  0  0  0
  148.2193  133.7619  160.0529 H   0  0  0  0  0  0  0  0  0  0  0  0
  147.9452  135.9625  158.0239 H   0  0  0  0  0  0  0  0  0  0  0  0
  147.9916  137.3603  159.1499 H   0  0  0  0  0  0  0  0  0  0  0  0
  145.7366  130.7113  154.0338 H   0  0  0  0  0  0  0  0  0  0  0  0
  147.0483  129.0155  152.8828 H   0  0  0  0  0  0  0  0  0  0  0  0
  148.0249  129.7963  154.1176 H   0  0  0  0  0  0  0  0  0  0  0  0
  148.2683  130.1938  152.4189 H   0  0  0  0  0  0  0  0  0  0  0  0
  144.8079  131.8959  152.1479 H   0  0  0  0  0  0  0  0  0  0  0  0
  145.3700  130.3498  151.5704 H   0  0  0  0  0  0  0  0  0  0  0  0
  147.3556  131.4327  150.8005 H   0  0  0  0  0  0  0  0  0  0  0  0
  1  2  1  0  0  0  0
  1 28  1  0  0  0  0
  1 29  1  0  0  0  0
  1 30  1  0  0  0  0
  2  3  1  0  0  0  0
  2  4  1  0  0  0  0
  2 31  1  0  0  0  0
  3 32  1  0  0  0  0
  4  5  1  0  0  0  0
  4 33  1  0  0  0  0
  4 34  1  0  0  0  0
  5 27  1  0  0  0  0
  5  6  1  0  0  0  0
  5 56  1  0  0  0  0
  6  7  1  0  0  0  0
  6 35  1  0  0  0  0
  6 36  1  0  0  0  0
  7  8  1  0  0  0  0
  7 37  1  0  0  0  0
  7 38  1  0  0  0  0
  8  9  1  0  0  0  0
  8 25  1  0  0  0  0
  9 14  1  0  0  0  0
  9 10  2  0  0  0  0
 10 11  1  0  0  0  0
 11 12  2  0  0  0  0
 11 39  1  0  0  0  0
 12 13  1  0  0  0  0
 13 17  1  0  0  0  0
 13 14  2  0  0  0  0
 14 15  1  0  0  0  0
 15 16  2  0  0  0  0
 16 17  1  0  0  0  0
 16 40  1  0  0  0  0
 17 18  1  0  0  0  0
 18 19  1  0  0  0  0
 18 41  1  0  0  0  0
 18 42  1  0  0  0  0
 19 24  1  0  0  0  0
 19 20  1  0  0  0  0
 19 22  1  0  0  0  0
 20 21  1  0  0  0  0
 20 43  1  0  0  0  0
 20 44  1  0  0  0  0
 21 45  1  0  0  0  0
 22 23  1  0  0  0  0
 22 46  1  0  0  0  0
 22 47  1  0  0  0  0
 23 24  1  0  0  0  0
 24 48  1  0  0  0  0
 24 49  1  0  0  0  0
 25 26  1  0  0  0  0
 25 27  1  0  0  0  0
 25 50  1  0  0  0  0
 26 51  1  0  0  0  0
 26 52  1  0  0  0  0
 26 53  1  0  0  0  0
 27 54  1  0  0  0  0
 27 55  1  0  0  0  0
M  CHG  1   5   1
M  END
> <s_m_source_file>
AV-unprocessed.smi

> <i_m_source_file_index>
79

> <i_lp_mmshare_version>
43012

> <i_f3d_flags>
0

> <s_epik_input>
W0NIM11bQ0BIXShbT0hdKVtDSDJdTjFbQ0gyXVtDSDJdTihbQ0BASF0oW0NIM10pW0NIMl0xKWMobltjSF1uMiljKGMyMyluW2NIXW4zW0NIMl1DNChbQ0gyXVtPSF0pW0NIMl1PW0NIMl00

> <s_epik_cmdline>
J2VwaWtfcHl0aG9uJywgJy1waCcsICc3LjAnLCAnLXRuJywgJzgnLCAnLW1hJywgJzIwMCcsICctbWV0YWxfYmluZGluZycsICctaW1hZScsICc8aW5maWxlLm1hZT4nLCAnLW9tYWUnLCAnPG91dGZpbGUubWFlPic=

> <r_lp_tautomer_probability>
1

> <r_epik_Ionization_Penalty>
0.00515943

> <r_epik_Ionization_Penalty_Charging>
0.00509693

> <r_epik_Ionization_Penalty_Neutral>
6.25007e-05

> <r_epik_State_Penalty>
-0

> <r_epik_Charging_Adjusted_Penalty>
0.00509693

> <i_epik_Tot_Q>
1

> <i_epik_Tot_abs_Q>
1

> <r_epik_Metal_State_Penalty>
-0

> <b_epik_Metal_Only>
0

> <s_lp_Force_Field>
OPLS_2005

> <r_lp_Energy>
51.2807

> <b_lp_Chiralities_Consistent>
1

> <s_lp_Variant>
AV-unprocessed.smi:79-7

> <Gold.Version>
5.8.1

> <Gold.Id.Protein>
6NUR|6NUR_protein|mol2

> <Gold.PLP.Fitness>
42.5860

> <Gold.PLP.PLP>
-32.5468

> <Gold.PLP.part.hbond>
-4.2090

> <Gold.PLP.part.metal>
0.0000

> <Gold.PLP.part.buried>
-4.8859

> <Gold.PLP.part.nonpolar>
-23.2634

> <Gold.PLP.part.repulsive>
0.2633

> <Gold.PLP.ligand.clash>
0.0000

> <Gold.PLP.ligand.torsion>
0.7832

> <Gold.PLP.Chemscore.Hbond>
3.5593

> <Gold.PLP.Chemscore.CHOScore>
0.0000

> <Gold.PLP.Chemscore.Metal>
0.0000

> <Gold.Chemscore.Hbonds>
donor molecule, donor type, donor heavy atom, donor atom, acceptor molecule, acceptor atom, score
      L1  H     5    56       P1 10747  1.00
      P1  H  6896  6907       L1    23  1.00
      P1  H  6931  6943       L1    21  0.61
      P1  H  6934  6947       L1    21  0.57

> <Gold.PLP.Chemscore.Internal.Correction>
0.9278

> <Gold.Rescore>
     Score         DG    S(hbond)    S(metal)    S(lipo)     H(rot)  DE(clash)    DE(int)     intcor
     12.68     -15.01       2.65        0.00      87.13       3.72       0.04       2.29       ----

> <Gold.Chemscore.Fitness>
12.6816

> <Gold.Chemscore.DG>
-15.0059

> <Gold.Chemscore.ZeroCoef>
-5.4800

> <Gold.Chemscore.Hbond>
2.6532

> <Gold.Chemscore.Metal>
0.0000

> <Gold.Chemscore.Lipo>
87.1292

> <Gold.Chemscore.Internal_Hbond>
0.0000

> <Gold.Chemscore.DEClash>
0.0351

> <Gold.Chemscore.DEInternal>
2.2892

> <Gold.Chemscore.Rot>
3.7226

> <Gold.Chemscore.Internal.Correction>
   9.000000E+99

> <Gold.Chemscore.Hbonds>
donor molecule, donor type, donor heavy atom, donor atom, acceptor molecule, acceptor atom, score
      L1  H     5    56       P1 10747  1.00
      P1  H  6896  6907       L1    23  0.59
      P1  H  6931  6943       L1    21  0.30
      P1  H  6934  6947       L1    21  0.05

> <Gold.Chemscore.Hbond.Weighted>
-8.8616

> <Gold.Chemscore.Metal.Weighted>
-0.0000

> <Gold.Chemscore.Lipo.Weighted>
-10.1941

> <Gold.Chemscore.Internal_Hbond.Weighted>
0.0000

> <Gold.Chemscore.DEClash.Weighted>
0.0351

> <Gold.Chemscore.DEInternal.Weighted>
2.2892

> <Gold.Chemscore.Rot.Weighted>
9.5298

> <Gold.Chemscore.Internal.Correction.Weighted>
   9.000000E+99

> <Gold.Protein.RotatedTorsions>
[ 6907 6896 6895 6894 ] final  -55.60 input  -60.11 | X-H torsion
[ 7974 7965 7964 7962 ] final   54.30 input  175.53 | X-H torsion
[ 8008 7997 7996 7995 ] final   52.54 input   59.86 | X-H torsion
[ 10167 10162 10161 10158 ] final   82.38 input  -65.29 | X-H torsion
[ 10718 10713 10712 10709 ] final -159.88 input   66.30 | X-H torsion
[ 10763 10752 10751 10750 ] final  -21.96 input  -60.55 | X-H torsion
[ 11005 11000 10999 10996 ] final  102.38 input  -57.11 | X-H torsion

> <Gold.Protein.ActiveResidues>
 VAL166  LYS551  ARG553  GLY616  TRP617  ASP618  TYR619  PRO620  LYS621  CYS622 
 ASP623  PHE694  ASN695  SER759  ASP760  ASP761  ALA762  ILE779  LEU786  VAL792 
 PHE793  MET794  SER795  GLU796  ALA797  LYS798  CYS799  TRP800  GLU811  SER814 

> <Gold.Protein.RotatedAtoms>
  150.8238  134.7458  159.6794 H   0  0  0  0  0  0  0  0  0  0  0  0  # atno 6907 bound_to 6896
  152.4351  134.5699  159.9928 H   0  0  0  0  0  0  0  0  0  0  0  0  # atno 6908 bound_to 6896
  151.5877  133.3332  159.3057 H   0  0  0  0  0  0  0  0  0  0  0  0  # atno 6909 bound_to 6896
  145.9623  139.4071  143.0240 H   0  0  0  0  0  0  0  0  0  0  0  0  # atno 7974 bound_to 7965
  155.4535  140.3459  155.4304 H   0  0  0  0  0  0  0  0  0  0  0  0  # atno 8008 bound_to 7997
  156.1205  140.1486  156.9241 H   0  0  0  0  0  0  0  0  0  0  0  0  # atno 8009 bound_to 7997
  154.4820  140.0867  156.7378 H   0  0  0  0  0  0  0  0  0  0  0  0  # atno 8010 bound_to 7997
  139.9293  144.6162  150.8360 H   0  0  0  0  0  0  0  0  0  0  0  0  # atno 10167 bound_to 10162
  156.5743  130.8702  151.2847 H   0  0  0  0  0  0  0  0  0  0  0  0  # atno 10718 bound_to 10713
  153.6443  135.6983  153.5230 H   0  0  0  0  0  0  0  0  0  0  0  0  # atno 10763 bound_to 10752
  153.2757  135.4201  155.1030 H   0  0  0  0  0  0  0  0  0  0  0  0  # atno 10764 bound_to 10752
  154.8492  135.3589  154.5987 H   0  0  0  0  0  0  0  0  0  0  0  0  # atno 10765 bound_to 10752
  139.8777  134.9222  156.5050 H   0  0  0  0  0  0  0  0  0  0  0  0  # atno 11005 bound_to 11000
  145.8022  140.9765  143.0992 LP  0  0  0  0  0  0  0  0  0  0  0  0  # atno 17320 bound_to 7965
  144.6818  139.9816  143.7483 LP  0  0  0  0  0  0  0  0  0  0  0  0  # atno 17321 bound_to 7965
  140.7641  143.3241  151.2555 LP  0  0  0  0  0  0  0  0  0  0  0  0  # atno 17342 bound_to 10162
  139.6795  143.9879  152.2800 LP  0  0  0  0  0  0  0  0  0  0  0  0  # atno 17343 bound_to 10162
  157.7341  130.9741  150.2011 LP  0  0  0  0  0  0  0  0  0  0  0  0  # atno 17370 bound_to 10713
  156.2687  130.3719  149.8054 LP  0  0  0  0  0  0  0  0  0  0  0  0  # atno 17371 bound_to 10713
  140.8562  133.8094  155.9218 LP  0  0  0  0  0  0  0  0  0  0  0  0  # atno 17394 bound_to 11000
  140.9095  134.2278  157.4994 LP  0  0  0  0  0  0  0  0  0  0  0  0  # atno 17395 bound_to 11000

$$$$
