AV-unprocessed.smi:170|AV-procd|sdf|1407|dock2
  -GOLD-   2262019163D 1   1.00000     0.00000
 Structure written by MMmdl.
 57 61  0  0  0  0  0  0  0  0  1 V2000
  150.5707  141.6904  158.8665 O   0  0  0  0  0  0  0  0  0  0  0  0
  151.9358  141.5676  159.2201 C   0  0  1  0  0  0  0  0  0  0  0  0
  152.6533  140.5729  158.2869 C   0  0  0  0  0  0  0  0  0  0  0  0
  152.1150  139.2291  158.3951 N   0  0  0  0  0  0  0  0  0  0  0  0
  152.1879  138.3941  159.4867 C   0  0  0  0  0  0  0  0  0  0  0  0
  151.6232  137.2277  159.3319 N   0  0  0  0  0  0  0  0  0  0  0  0
  151.1270  137.2602  158.0337 C   0  0  0  0  0  0  0  0  0  0  0  0
  150.4127  136.3398  157.2144 C   0  0  0  0  0  0  0  0  0  0  0  0
  150.0365  135.0963  157.5895 N   0  0  0  0  0  0  0  0  0  0  0  0
  150.6386  134.0927  156.7198 C   0  0  0  0  0  0  0  0  0  0  0  0
  150.3626  132.6850  157.2633 C   0  0  0  0  0  0  0  0  0  0  0  0
  148.9584  132.5067  157.3889 O   0  0  0  0  0  0  0  0  0  0  0  0
  148.3847  133.4284  158.3094 C   0  0  0  0  0  0  0  0  0  0  0  0
  148.6034  134.8830  157.8299 C   0  0  1  0  0  0  0  0  0  0  0  0
  148.0145  135.9093  158.8329 C   0  0  0  0  0  0  0  0  0  0  0  0
  148.2700  135.5674  160.2992 C   0  0  0  0  0  0  0  0  0  0  0  0
  147.3641  134.5552  161.0175 C   0  0  0  0  0  0  0  0  0  0  0  0
  147.5248  135.3876  162.2923 C   0  0  0  0  0  0  0  0  0  0  0  0
  147.8818  136.5741  161.3925 C   0  0  0  0  0  0  0  0  0  0  0  0
  150.0716  136.7337  155.9630 N   0  0  0  0  0  0  0  0  0  0  0  0
  150.4179  137.9489  155.5273 C   0  0  0  0  0  0  0  0  0  0  0  0
  151.0882  138.9077  156.1705 N   0  0  0  0  0  0  0  0  0  0  0  0
  151.4239  138.5156  157.4330 C   0  0  0  0  0  0  0  0  0  0  0  0
  152.6096  142.9537  159.2443 C   0  0  2  0  0  0  0  0  0  0  0  0
  152.2324  143.8745  160.4173 C   0  0  0  0  0  0  0  0  0  0  0  0
  151.9097  145.2030  159.7503 C   0  0  0  0  0  0  0  0  0  0  0  0
  152.5173  145.0605  158.3592 C   0  0  0  0  0  0  0  0  0  0  0  0
  152.3167  143.6893  158.0623 O   0  0  0  0  0  0  0  0  0  0  0  0
  150.3797  141.0541  158.1943 H   0  0  0  0  0  0  0  0  0  0  0  0
  151.9592  141.1681  160.2348 H   0  0  0  0  0  0  0  0  0  0  0  0
  152.5780  140.8953  157.2475 H   0  0  0  0  0  0  0  0  0  0  0  0
  153.7171  140.5332  158.5248 H   0  0  0  0  0  0  0  0  0  0  0  0
  152.6781  138.6787  160.4064 H   0  0  0  0  0  0  0  0  0  0  0  0
  150.2303  134.1875  155.7124 H   0  0  0  0  0  0  0  0  0  0  0  0
  151.7152  134.2553  156.6483 H   0  0  0  0  0  0  0  0  0  0  0  0
  150.7582  131.9334  156.5801 H   0  0  0  0  0  0  0  0  0  0  0  0
  150.8519  132.5331  158.2268 H   0  0  0  0  0  0  0  0  0  0  0  0
  147.3220  133.1997  158.3804 H   0  0  0  0  0  0  0  0  0  0  0  0
  148.8106  133.2755  159.3026 H   0  0  0  0  0  0  0  0  0  0  0  0
  148.0828  134.9921  156.8786 H   0  0  0  0  0  0  0  0  0  0  0  0
  148.4154  136.8993  158.6122 H   0  0  0  0  0  0  0  0  0  0  0  0
  146.9373  135.9931  158.6886 H   0  0  0  0  0  0  0  0  0  0  0  0
  149.3115  135.2814  160.4592 H   0  0  0  0  0  0  0  0  0  0  0  0
  146.3406  134.5590  160.6377 H   0  0  0  0  0  0  0  0  0  0  0  0
  147.7672  133.5438  161.0757 H   0  0  0  0  0  0  0  0  0  0  0  0
  146.6123  135.5133  162.8757 H   0  0  0  0  0  0  0  0  0  0  0  0
  148.3616  135.0581  162.9105 H   0  0  0  0  0  0  0  0  0  0  0  0
  148.7029  137.1930  161.7555 H   0  0  0  0  0  0  0  0  0  0  0  0
  147.0111  137.1765  161.1279 H   0  0  0  0  0  0  0  0  0  0  0  0
  150.1160  138.1867  154.5179 H   0  0  0  0  0  0  0  0  0  0  0  0
  153.6920  142.8121  159.2612 H   0  0  0  0  0  0  0  0  0  0  0  0
  151.3819  143.5130  160.9961 H   0  0  0  0  0  0  0  0  0  0  0  0
  153.0746  143.9740  161.1030 H   0  0  0  0  0  0  0  0  0  0  0  0
  150.8284  145.3192  159.6673 H   0  0  0  0  0  0  0  0  0  0  0  0
  152.3008  146.0619  160.2963 H   0  0  0  0  0  0  0  0  0  0  0  0
  152.0410  145.7072  157.6221 H   0  0  0  0  0  0  0  0  0  0  0  0
  153.5860  145.2802  158.3741 H   0  0  0  0  0  0  0  0  0  0  0  0
  1  2  1  0  0  0  0
  1 29  1  0  0  0  0
  2  3  1  0  0  0  0
  2 24  1  0  0  0  0
  2 30  1  0  0  0  0
  3  4  1  0  0  0  0
  3 31  1  0  0  0  0
  3 32  1  0  0  0  0
  4 23  1  0  0  0  0
  4  5  1  0  0  0  0
  5  6  2  0  0  0  0
  5 33  1  0  0  0  0
  6  7  1  0  0  0  0
  7 23  2  0  0  0  0
  7  8  1  0  0  0  0
  8  9  1  0  0  0  0
  8 20  2  0  0  0  0
  9 14  1  0  0  0  0
  9 10  1  0  0  0  0
 10 11  1  0  0  0  0
 10 34  1  0  0  0  0
 10 35  1  0  0  0  0
 11 12  1  0  0  0  0
 11 36  1  0  0  0  0
 11 37  1  0  0  0  0
 12 13  1  0  0  0  0
 13 14  1  0  0  0  0
 13 38  1  0  0  0  0
 13 39  1  0  0  0  0
 14 15  1  0  0  0  0
 14 40  1  0  0  0  0
 15 16  1  0  0  0  0
 15 41  1  0  0  0  0
 15 42  1  0  0  0  0
 16 19  1  0  0  0  0
 16 17  1  0  0  0  0
 16 43  1  0  0  0  0
 17 18  1  0  0  0  0
 17 44  1  0  0  0  0
 17 45  1  0  0  0  0
 18 19  1  0  0  0  0
 18 46  1  0  0  0  0
 18 47  1  0  0  0  0
 19 48  1  0  0  0  0
 19 49  1  0  0  0  0
 20 21  1  0  0  0  0
 21 22  2  0  0  0  0
 21 50  1  0  0  0  0
 22 23  1  0  0  0  0
 24 28  1  0  0  0  0
 24 25  1  0  0  0  0
 24 51  1  0  0  0  0
 25 26  1  0  0  0  0
 25 52  1  0  0  0  0
 25 53  1  0  0  0  0
 26 27  1  0  0  0  0
 26 54  1  0  0  0  0
 26 55  1  0  0  0  0
 27 28  1  0  0  0  0
 27 56  1  0  0  0  0
 27 57  1  0  0  0  0
M  END
> <s_m_source_file>
AV-unprocessed.smi

> <i_m_source_file_index>
170

> <i_lp_mmshare_version>
43012

> <i_f3d_flags>
0

> <s_epik_input>
TzFbQ0gyXVtDSDJdW0NIMl1bQ0BIXTFbQ0BIXShbT0hdKVtDSDJdbihbY0hdbjIpYyhjMjMpbltjSF1uYzNONFtDSDJdW0NIMl1PW0NIMl1bQ0BIXTRbQ0gyXVtDSF01W0NIMl1bQ0gyXVtDSDJdNQ==

> <s_epik_cmdline>
J2VwaWtfcHl0aG9uJywgJy1waCcsICc3LjAnLCAnLXRuJywgJzgnLCAnLW1hJywgJzIwMCcsICctbWV0YWxfYmluZGluZycsICctaW1hZScsICc8aW5maWxlLm1hZT4nLCAnLW9tYWUnLCAnPG91dGZpbGUubWFlPic=

> <r_lp_tautomer_probability>
1

> <r_epik_Ionization_Penalty>
4.98275e-05

> <r_epik_Ionization_Penalty_Charging>
0

> <r_epik_Ionization_Penalty_Neutral>
4.98275e-05

> <r_epik_State_Penalty>
-0

> <r_epik_Charging_Adjusted_Penalty>
0

> <i_epik_Tot_Q>
0

> <i_epik_Tot_abs_Q>
0

> <r_epik_Metal_State_Penalty>
-0

> <b_epik_Metal_Only>
0

> <s_lp_Force_Field>
OPLS_2005

> <r_lp_Energy>
52.7393

> <b_lp_Chiralities_Consistent>
1

> <s_lp_Variant>
AV-unprocessed.smi:170-2

> <Gold.Version>
5.8.1

> <Gold.Id.Protein>
6NUR|6NUR_protein|mol2

> <Gold.PLP.Fitness>
47.4068

> <Gold.PLP.PLP>
-44.5136

> <Gold.PLP.part.hbond>
-2.8028

> <Gold.PLP.part.metal>
0.0000

> <Gold.PLP.part.buried>
-6.2267

> <Gold.PLP.part.nonpolar>
-35.9248

> <Gold.PLP.part.repulsive>
0.0872

> <Gold.PLP.ligand.clash>
0.0000

> <Gold.PLP.ligand.torsion>
0.6809

> <Gold.PLP.Chemscore.Hbond>
1.3005

> <Gold.PLP.Chemscore.CHOScore>
0.0000

> <Gold.PLP.Chemscore.Metal>
0.0000

> <Gold.Chemscore.Hbonds>
donor molecule, donor type, donor heavy atom, donor atom, acceptor molecule, acceptor atom, score
      P1  H  6896  6908       L1     9  0.19
      P1  H  6896  6909       L1     6  0.59

> <Gold.PLP.Chemscore.Internal.Correction>
0.3535

> <Gold.Rescore>
     Score         DG    S(hbond)    S(metal)    S(lipo)     H(rot)  DE(clash)    DE(int)     intcor
     13.43     -14.71       0.90        0.00     110.23       2.61       0.16       1.12       ----

> <Gold.Chemscore.Fitness>
13.4255

> <Gold.Chemscore.DG>
-14.7062

> <Gold.Chemscore.ZeroCoef>
-5.4800

> <Gold.Chemscore.Hbond>
0.9048

> <Gold.Chemscore.Metal>
0.0000

> <Gold.Chemscore.Lipo>
110.2315

> <Gold.Chemscore.Internal_Hbond>
0.0000

> <Gold.Chemscore.DEClash>
0.1604

> <Gold.Chemscore.DEInternal>
1.1202

> <Gold.Chemscore.Rot>
2.6144

> <Gold.Chemscore.Internal.Correction>
   9.000000E+99

> <Gold.Chemscore.Hbonds>
donor molecule, donor type, donor heavy atom, donor atom, acceptor molecule, acceptor atom, score
      P1  H  6896  6909       L1     6  0.42

> <Gold.Chemscore.Hbond.Weighted>
-3.0220

> <Gold.Chemscore.Metal.Weighted>
-0.0000

> <Gold.Chemscore.Lipo.Weighted>
-12.8971

> <Gold.Chemscore.Internal_Hbond.Weighted>
0.0000

> <Gold.Chemscore.DEClash.Weighted>
0.1604

> <Gold.Chemscore.DEInternal.Weighted>
1.1202

> <Gold.Chemscore.Rot.Weighted>
6.6929

> <Gold.Chemscore.Internal.Correction.Weighted>
   9.000000E+99

> <Gold.Protein.RotatedTorsions>
[ 6907 6896 6895 6894 ] final  132.23 input  -60.11 | X-H torsion
[ 7974 7965 7964 7962 ] final   70.71 input  175.53 | X-H torsion
[ 8008 7997 7996 7995 ] final  107.71 input   59.86 | X-H torsion
[ 10167 10162 10161 10158 ] final -110.85 input  -65.29 | X-H torsion
[ 10718 10713 10712 10709 ] final  142.63 input   66.30 | X-H torsion
[ 10763 10752 10751 10750 ] final  -59.10 input  -60.55 | X-H torsion
[ 11005 11000 10999 10996 ] final  -15.02 input  -57.11 | X-H torsion

> <Gold.Protein.ActiveResidues>
 VAL166  LYS551  ARG553  GLY616  TRP617  ASP618  TYR619  PRO620  LYS621  CYS622 
 ASP623  PHE694  ASN695  SER759  ASP760  ASP761  ALA762  ILE779  LEU786  VAL792 
 PHE793  MET794  SER795  GLU796  ALA797  LYS798  CYS799  TRP800  GLU811  SER814 

> <Gold.Protein.RotatedAtoms>
  152.3345  133.5996  159.5832 H   0  0  0  0  0  0  0  0  0  0  0  0  # atno 6907 bound_to 6896
  150.7442  133.9817  159.3587 H   0  0  0  0  0  0  0  0  0  0  0  0  # atno 6908 bound_to 6896
  151.7688  135.0792  160.0408 H   0  0  0  0  0  0  0  0  0  0  0  0  # atno 6909 bound_to 6896
  145.7749  139.2860  143.1300 H   0  0  0  0  0  0  0  0  0  0  0  0  # atno 7974 bound_to 7965
  156.1846  140.3090  155.9213 H   0  0  0  0  0  0  0  0  0  0  0  0  # atno 8008 bound_to 7997
  155.3310  140.0461  157.3059 H   0  0  0  0  0  0  0  0  0  0  0  0  # atno 8009 bound_to 7997
  154.5381  140.2252  155.8698 H   0  0  0  0  0  0  0  0  0  0  0  0  # atno 8010 bound_to 7997
  140.1400  143.4287  152.1569 H   0  0  0  0  0  0  0  0  0  0  0  0  # atno 10167 bound_to 10162
  157.3784  131.0988  151.0762 H   0  0  0  0  0  0  0  0  0  0  0  0  # atno 10718 bound_to 10713
  154.2485  135.6330  153.5232 H   0  0  0  0  0  0  0  0  0  0  0  0  # atno 10763 bound_to 10752
  152.9917  135.5559  154.5834 H   0  0  0  0  0  0  0  0  0  0  0  0  # atno 10764 bound_to 10752
  154.5355  135.2891  155.1117 H   0  0  0  0  0  0  0  0  0  0  0  0  # atno 10765 bound_to 10752
  140.7924  133.8277  155.9392 H   0  0  0  0  0  0  0  0  0  0  0  0  # atno 11005 bound_to 11000
  146.0133  140.8415  142.9960 LP  0  0  0  0  0  0  0  0  0  0  0  0  # atno 17320 bound_to 7965
  144.6806  140.2522  143.7330 LP  0  0  0  0  0  0  0  0  0  0  0  0  # atno 17321 bound_to 7965
  139.5477  144.7312  151.4533 LP  0  0  0  0  0  0  0  0  0  0  0  0  # atno 17342 bound_to 10162
  140.6766  143.8176  150.7066 LP  0  0  0  0  0  0  0  0  0  0  0  0  # atno 17343 bound_to 10162
  157.1840  130.6322  149.5681 LP  0  0  0  0  0  0  0  0  0  0  0  0  # atno 17370 bound_to 10713
  155.9770  130.4744  150.6566 LP  0  0  0  0  0  0  0  0  0  0  0  0  # atno 17371 bound_to 10713
  140.9376  134.1942  157.4820 LP  0  0  0  0  0  0  0  0  0  0  0  0  # atno 17394 bound_to 11000
  139.8730  134.9859  156.5300 LP  0  0  0  0  0  0  0  0  0  0  0  0  # atno 17395 bound_to 11000

$$$$
