AV-unprocessed.smi:132|AV-procd|sdf|1164|dock6
  -GOLD-   2262018303D 1   1.00000     0.00000
 Structure written by MMmdl.
 41 44  0  0  0  0  0  0  0  0  1 V2000
  147.3048  137.7384  160.8799 O   0  0  0  0  0  0  0  0  0  0  0  0
  147.1270  136.5279  160.7332 C   0  0  0  0  0  0  0  0  0  0  0  0
  146.6952  135.6429  161.8095 C   0  0  0  0  0  0  0  0  0  0  0  0
  146.5015  136.1409  163.0425 F   0  0  0  0  0  0  0  0  0  0  0  0
  146.4882  134.3267  161.5887 C   0  0  0  0  0  0  0  0  0  0  0  0
  146.6613  133.7315  160.3513 N   0  0  0  0  0  0  0  0  0  0  0  0
  146.4103  132.2537  160.1631 C   0  0  1  0  0  0  0  0  0  0  0  0
  146.1766  131.5658  161.5131 C   0  0  0  0  0  0  0  0  0  0  0  0
  145.0480  130.6137  161.1813 C   0  0  0  0  0  0  0  0  0  0  0  0
  144.2595  131.4173  160.1551 C   0  0  0  0  0  0  0  0  0  0  0  0
  145.2597  132.0784  159.3864 O   0  0  0  0  0  0  0  0  0  0  0  0
  147.0964  134.5069  159.2541 C   0  0  0  0  0  0  0  0  0  0  0  0
  147.2662  133.9970  158.1444 O   0  0  0  0  0  0  0  0  0  0  0  0
  147.3222  135.8855  159.4858 N   0  0  0  0  0  0  0  0  0  0  0  0
  147.7366  136.7140  158.3638 C   0  0  0  0  0  0  0  0  0  0  0  0
  149.0319  137.4123  158.6497 C   0  0  0  0  0  0  0  0  0  0  0  0
  150.1366  136.8716  159.1653 N   0  0  0  0  0  0  0  0  0  0  0  0
  151.0551  137.8938  159.2383 N   0  0  0  0  0  0  0  0  0  0  0  0
  150.4411  138.9827  158.7627 C   0  0  0  0  0  0  0  0  0  0  0  0
  150.9710  140.3382  158.6277 C   0  0  0  0  0  0  0  0  0  0  0  0
  150.3824  141.2610  157.7327 C   0  0  0  0  0  0  0  0  0  0  0  0
  150.9014  142.5649  157.6112 C   0  0  0  0  0  0  0  0  0  0  0  0
  152.0144  142.9563  158.3797 C   0  0  0  0  0  0  0  0  0  0  0  0
  152.6497  144.5537  158.2306 Cl  0  0  0  0  0  0  0  0  0  0  0  0
  152.6086  142.0418  159.2699 C   0  0  0  0  0  0  0  0  0  0  0  0
  152.0890  140.7386  159.3933 C   0  0  0  0  0  0  0  0  0  0  0  0
  149.1627  138.7359  158.3695 O   0  0  0  0  0  0  0  0  0  0  0  0
  146.1736  133.7201  162.4235 H   0  0  0  0  0  0  0  0  0  0  0  0
  147.2507  131.8410  159.6039 H   0  0  0  0  0  0  0  0  0  0  0  0
  147.0821  131.0727  161.8681 H   0  0  0  0  0  0  0  0  0  0  0  0
  145.8510  132.2953  162.2563 H   0  0  0  0  0  0  0  0  0  0  0  0
  145.4434  129.7055  160.7248 H   0  0  0  0  0  0  0  0  0  0  0  0
  144.4546  130.3320  162.0516 H   0  0  0  0  0  0  0  0  0  0  0  0
  143.6248  130.7905  159.5284 H   0  0  0  0  0  0  0  0  0  0  0  0
  143.6268  132.1548  160.6499 H   0  0  0  0  0  0  0  0  0  0  0  0
  147.8236  136.0711  157.4861 H   0  0  0  0  0  0  0  0  0  0  0  0
  146.9517  137.4353  158.1343 H   0  0  0  0  0  0  0  0  0  0  0  0
  149.5269  140.9814  157.1353 H   0  0  0  0  0  0  0  0  0  0  0  0
  150.4434  143.2646  156.9275 H   0  0  0  0  0  0  0  0  0  0  0  0
  153.4637  142.3381  159.8597 H   0  0  0  0  0  0  0  0  0  0  0  0
  152.5570  140.0489  160.0803 H   0  0  0  0  0  0  0  0  0  0  0  0
  1  2  2  0  0  0  0
  2 14  1  0  0  0  0
  2  3  1  0  0  0  0
  3  4  1  0  0  0  0
  3  5  2  0  0  0  0
  5  6  1  0  0  0  0
  5 28  1  0  0  0  0
  6  7  1  0  0  0  0
  6 12  1  0  0  0  0
  7 11  1  0  0  0  0
  7  8  1  0  0  0  0
  7 29  1  0  0  0  0
  8  9  1  0  0  0  0
  8 30  1  0  0  0  0
  8 31  1  0  0  0  0
  9 10  1  0  0  0  0
  9 32  1  0  0  0  0
  9 33  1  0  0  0  0
 10 11  1  0  0  0  0
 10 34  1  0  0  0  0
 10 35  1  0  0  0  0
 12 13  2  0  0  0  0
 12 14  1  0  0  0  0
 14 15  1  0  0  0  0
 15 16  1  0  0  0  0
 15 36  1  0  0  0  0
 15 37  1  0  0  0  0
 16 27  1  0  0  0  0
 16 17  2  0  0  0  0
 17 18  1  0  0  0  0
 18 19  2  0  0  0  0
 19 20  1  0  0  0  0
 19 27  1  0  0  0  0
 20 26  1  0  0  0  0
 20 21  2  0  0  0  0
 21 22  1  0  0  0  0
 21 38  1  0  0  0  0
 22 23  2  0  0  0  0
 22 39  1  0  0  0  0
 23 24  1  0  0  0  0
 23 25  1  0  0  0  0
 25 26  2  0  0  0  0
 25 40  1  0  0  0  0
 26 41  1  0  0  0  0
M  END
> <s_m_source_file>
AV-unprocessed.smi

> <i_m_source_file_index>
132

> <i_lp_mmshare_version>
43012

> <i_f3d_flags>
0

> <s_epik_input>
TzFbQ0gyXVtDSDJdW0NIMl1bQ0BIXTFuKFtjSF1jKEYpYzI9TyljKD1PKW4yW0NIMl1jM25uYyhvMyktYzRbY0hdW2NIXWMoQ2wpW2NIXVtjSF00

> <s_epik_cmdline>
J2VwaWtfcHl0aG9uJywgJy1waCcsICc3LjAnLCAnLXRuJywgJzgnLCAnLW1hJywgJzIwMCcsICctbWV0YWxfYmluZGluZycsICctaW1hZScsICc8aW5maWxlLm1hZT4nLCAnLW9tYWUnLCAnPG91dGZpbGUubWFlPic=

> <r_lp_tautomer_probability>
1

> <r_epik_Ionization_Penalty>
2.5553e-09

> <r_epik_Ionization_Penalty_Charging>
2.54231e-09

> <r_epik_Ionization_Penalty_Neutral>
1.29923e-11

> <r_epik_State_Penalty>
-0

> <r_epik_Charging_Adjusted_Penalty>
2.54231e-09

> <i_epik_Tot_Q>
0

> <i_epik_Tot_abs_Q>
0

> <r_epik_Metal_State_Penalty>
-0

> <b_epik_Metal_Only>
0

> <s_epik_Chemistry_Notes>
This compound contains an acetal/aminal-like group ( X-CH(R)-Y where X, Y are N, S, or O) that may be acid/base labile, releasing an aldehyde.

> <s_lp_Force_Field>
OPLS_2005

> <r_lp_Energy>
32.8563

> <b_lp_Chiralities_Consistent>
1

> <s_lp_Variant>
AV-unprocessed.smi:132-2

> <Gold.Version>
5.8.1

> <Gold.Id.Protein>
6NUR|6NUR_protein|mol2

> <Gold.PLP.Fitness>
54.4826

> <Gold.PLP.PLP>
-47.5820

> <Gold.PLP.part.hbond>
-3.0000

> <Gold.PLP.part.metal>
0.0000

> <Gold.PLP.part.buried>
-5.8146

> <Gold.PLP.part.nonpolar>
-39.3789

> <Gold.PLP.part.repulsive>
0.0000

> <Gold.PLP.ligand.clash>
0.0000

> <Gold.PLP.ligand.torsion>
0.5343

> <Gold.PLP.Chemscore.Hbond>
2.6480

> <Gold.PLP.Chemscore.CHOScore>
0.0000

> <Gold.PLP.Chemscore.Metal>
0.0000

> <Gold.Chemscore.Hbonds>
donor molecule, donor type, donor heavy atom, donor atom, acceptor molecule, acceptor atom, score
      P1  H  6896  6907       L1    17  0.38
      P1  H  6931  6943       L1     1  0.50
      P1  H  6934  6947       L1     1  0.41

> <Gold.PLP.Chemscore.Internal.Correction>
0.0253

> <Gold.Rescore>
     Score         DG    S(hbond)    S(metal)    S(lipo)     H(rot)  DE(clash)    DE(int)     intcor
     18.05     -20.84       2.59        0.00      94.39       1.70       0.05       2.73       ----

> <Gold.Chemscore.Fitness>
18.0524

> <Gold.Chemscore.DG>
-20.8352

> <Gold.Chemscore.ZeroCoef>
-5.4800

> <Gold.Chemscore.Hbond>
2.5923

> <Gold.Chemscore.Metal>
0.0000

> <Gold.Chemscore.Lipo>
94.3916

> <Gold.Chemscore.Internal_Hbond>
0.0000

> <Gold.Chemscore.DEClash>
0.0515

> <Gold.Chemscore.DEInternal>
2.7313

> <Gold.Chemscore.Rot>
1.6980

> <Gold.Chemscore.Internal.Correction>
   9.000000E+99

> <Gold.Chemscore.Hbonds>
donor molecule, donor type, donor heavy atom, donor atom, acceptor molecule, acceptor atom, score
      P1  H  6896  6907       L1    17  0.09
      P1  H  6931  6943       L1     1  0.44
      P1  H  6934  6947       L1     1  0.39

> <Gold.Chemscore.Hbond.Weighted>
-8.6583

> <Gold.Chemscore.Metal.Weighted>
-0.0000

> <Gold.Chemscore.Lipo.Weighted>
-11.0438

> <Gold.Chemscore.Internal_Hbond.Weighted>
0.0000

> <Gold.Chemscore.DEClash.Weighted>
0.0515

> <Gold.Chemscore.DEInternal.Weighted>
2.7313

> <Gold.Chemscore.Rot.Weighted>
4.3469

> <Gold.Chemscore.Internal.Correction.Weighted>
   9.000000E+99

> <Gold.Protein.RotatedTorsions>
[ 6907 6896 6895 6894 ] final   -8.97 input  -60.11 | X-H torsion
[ 7974 7965 7964 7962 ] final    0.79 input  175.53 | X-H torsion
[ 8008 7997 7996 7995 ] final   98.42 input   59.86 | X-H torsion
[ 10167 10162 10161 10158 ] final  135.59 input  -65.29 | X-H torsion
[ 10718 10713 10712 10709 ] final  -46.67 input   66.30 | X-H torsion
[ 10763 10752 10751 10750 ] final -139.97 input  -60.55 | X-H torsion
[ 11005 11000 10999 10996 ] final  -51.77 input  -57.11 | X-H torsion

> <Gold.Protein.ActiveResidues>
 VAL166  LYS551  ARG553  GLY616  TRP617  ASP618  TYR619  PRO620  LYS621  CYS622 
 ASP623  PHE694  ASN695  SER759  ASP760  ASP761  ALA762  ILE779  LEU786  VAL792 
 PHE793  MET794  SER795  GLU796  ALA797  LYS798  CYS799  TRP800  GLU811  SER814 

> <Gold.Protein.RotatedAtoms>
  151.4253  135.1003  159.9625 H   0  0  0  0  0  0  0  0  0  0  0  0  # atno 6907 bound_to 6896
  152.4975  133.8669  159.7289 H   0  0  0  0  0  0  0  0  0  0  0  0  # atno 6908 bound_to 6896
  150.9194  133.6841  159.2863 H   0  0  0  0  0  0  0  0  0  0  0  0  # atno 6909 bound_to 6896
  146.2436  140.1084  142.8345 H   0  0  0  0  0  0  0  0  0  0  0  0  # atno 7974 bound_to 7965
  156.1002  140.3244  155.7932 H   0  0  0  0  0  0  0  0  0  0  0  0  # atno 8008 bound_to 7997
  155.4849  140.0557  157.2979 H   0  0  0  0  0  0  0  0  0  0  0  0  # atno 8009 bound_to 7997
  154.4692  140.2003  156.0054 H   0  0  0  0  0  0  0  0  0  0  0  0  # atno 8010 bound_to 7997
  139.5211  144.6509  151.5305 H   0  0  0  0  0  0  0  0  0  0  0  0  # atno 10167 bound_to 10162
  156.2159  130.4163  149.9054 H   0  0  0  0  0  0  0  0  0  0  0  0  # atno 10718 bound_to 10713
  154.8593  135.3567  154.5632 H   0  0  0  0  0  0  0  0  0  0  0  0  # atno 10763 bound_to 10752
  153.6246  135.7004  153.5302 H   0  0  0  0  0  0  0  0  0  0  0  0  # atno 10764 bound_to 10752
  153.3100  135.4181  155.1287 H   0  0  0  0  0  0  0  0  0  0  0  0  # atno 10765 bound_to 10752
  141.0889  133.6636  156.3926 H   0  0  0  0  0  0  0  0  0  0  0  0  # atno 11005 bound_to 11000
  145.0508  140.9016  143.4997 LP  0  0  0  0  0  0  0  0  0  0  0  0  # atno 17320 bound_to 7965
  145.1182  139.2711  143.5602 LP  0  0  0  0  0  0  0  0  0  0  0  0  # atno 17321 bound_to 7965
  140.6313  143.9069  150.6608 LP  0  0  0  0  0  0  0  0  0  0  0  0  # atno 17342 bound_to 10162
  140.2375  143.3689  152.1515 LP  0  0  0  0  0  0  0  0  0  0  0  0  # atno 17343 bound_to 10162
  156.6716  130.8822  151.3563 LP  0  0  0  0  0  0  0  0  0  0  0  0  # atno 17370 bound_to 10713
  157.7063  130.9389  150.0942 LP  0  0  0  0  0  0  0  0  0  0  0  0  # atno 17371 bound_to 10713
  140.5299  134.6223  157.5346 LP  0  0  0  0  0  0  0  0  0  0  0  0  # atno 17394 bound_to 11000
  139.9711  134.7291  156.0039 LP  0  0  0  0  0  0  0  0  0  0  0  0  # atno 17395 bound_to 11000

$$$$
