AV-unprocessed.smi:2627|AV-procd|sdf|10241|dock10
  -GOLD-   2272014253D 1   1.00000     0.00000
 Structure written by MMmdl.
 40 42  0  0  0  0  0  0  0  0  2 V2000
  152.8282  138.3897  154.4442 C   0  0  0  0  0  0  0  0  0  0  0  0
  151.4735  137.7814  154.8283 C   0  0  2  0  0  0  0  0  0  0  0  0
  151.2926  136.5832  154.1023 O   0  0  0  0  0  0  0  0  0  0  0  0
  150.3636  138.7585  154.5926 C   0  0  0  0  0  0  0  0  0  0  0  0
  149.2709  138.5561  153.8018 N   0  3  0  0  0  0  0  0  0  0  0  0
  148.4551  139.6877  153.8214 C   0  0  0  0  0  0  0  0  0  0  0  0
  147.2457  139.9506  153.1855 C   0  0  0  0  0  0  0  0  0  0  0  0
  146.6681  141.2153  153.4225 C   0  0  0  0  0  0  0  0  0  0  0  0
  147.2901  142.1604  154.2643 C   0  0  0  0  0  0  0  0  0  0  0  0
  148.5170  141.8827  154.9029 C   0  0  0  0  0  0  0  0  0  0  0  0
  149.0829  140.6313  154.6600 C   0  0  0  0  0  0  0  0  0  0  0  0
  150.2617  140.0204  155.1016 N   0  0  0  0  0  0  0  0  0  0  0  0
  151.1632  140.7575  155.9961 C   0  0  0  0  0  0  0  0  0  0  0  0
  150.4933  141.0848  157.3356 C   0  0  0  0  0  0  0  0  0  0  0  0
  151.5070  141.2345  158.3186 O   0  0  0  0  0  0  0  0  0  0  0  0
  151.6510  142.4640  158.9244 C   0  0  0  0  0  0  0  0  0  0  0  0
  151.2522  143.5936  158.1803 C   0  0  0  0  0  0  0  0  0  0  0  0
  151.3659  144.8895  158.7193 C   0  0  0  0  0  0  0  0  0  0  0  0
  151.8811  145.0688  160.0163 C   0  0  0  0  0  0  0  0  0  0  0  0
  152.2816  143.9505  160.7710 C   0  0  0  0  0  0  0  0  0  0  0  0
  152.1686  142.6544  160.2312 C   0  0  0  0  0  0  0  0  0  0  0  0
  153.0295  139.2933  155.0205 H   0  0  0  0  0  0  0  0  0  0  0  0
  152.8603  138.6552  153.3869 H   0  0  0  0  0  0  0  0  0  0  0  0
  153.6419  137.6897  154.6369 H   0  0  0  0  0  0  0  0  0  0  0  0
  151.4884  137.5168  155.8859 H   0  0  0  0  0  0  0  0  0  0  0  0
  150.5228  136.6728  153.5610 H   0  0  0  0  0  0  0  0  0  0  0  0
  146.7665  139.2278  152.5413 H   0  0  0  0  0  0  0  0  0  0  0  0
  145.7291  141.4654  152.9500 H   0  0  0  0  0  0  0  0  0  0  0  0
  146.8169  143.1187  154.4235 H   0  0  0  0  0  0  0  0  0  0  0  0
  148.9833  142.6136  155.5469 H   0  0  0  0  0  0  0  0  0  0  0  0
  152.0469  140.1399  156.1588 H   0  0  0  0  0  0  0  0  0  0  0  0
  151.5094  141.6616  155.4946 H   0  0  0  0  0  0  0  0  0  0  0  0
  149.9109  142.0035  157.2481 H   0  0  0  0  0  0  0  0  0  0  0  0
  149.8163  140.2754  157.6136 H   0  0  0  0  0  0  0  0  0  0  0  0
  150.8564  143.4647  157.1835 H   0  0  0  0  0  0  0  0  0  0  0  0
  151.0581  145.7453  158.1370 H   0  0  0  0  0  0  0  0  0  0  0  0
  151.9685  146.0618  160.4317 H   0  0  0  0  0  0  0  0  0  0  0  0
  152.6765  144.0866  161.7669 H   0  0  0  0  0  0  0  0  0  0  0  0
  152.4851  141.8222  160.8411 H   0  0  0  0  0  0  0  0  0  0  0  0
  149.1000  137.6997  153.2903 H   0  0  0  0  0  0  0  0  0  0  0  0
  1  2  1  0  0  0  0
  1 22  1  0  0  0  0
  1 23  1  0  0  0  0
  1 24  1  0  0  0  0
  2  3  1  0  0  0  0
  2  4  1  0  0  0  0
  2 25  1  0  0  0  0
  3 26  1  0  0  0  0
  4 12  1  0  0  0  0
  4  5  2  0  0  0  0
  5  6  1  0  0  0  0
  5 40  1  0  0  0  0
  6 11  2  0  0  0  0
  6  7  1  0  0  0  0
  7  8  2  0  0  0  0
  7 27  1  0  0  0  0
  8  9  1  0  0  0  0
  8 28  1  0  0  0  0
  9 10  2  0  0  0  0
  9 29  1  0  0  0  0
 10 11  1  0  0  0  0
 10 30  1  0  0  0  0
 11 12  1  0  0  0  0
 12 13  1  0  0  0  0
 13 14  1  0  0  0  0
 13 31  1  0  0  0  0
 13 32  1  0  0  0  0
 14 15  1  0  0  0  0
 14 33  1  0  0  0  0
 14 34  1  0  0  0  0
 15 16  1  0  0  0  0
 16 21  1  0  0  0  0
 16 17  2  0  0  0  0
 17 18  1  0  0  0  0
 17 35  1  0  0  0  0
 18 19  2  0  0  0  0
 18 36  1  0  0  0  0
 19 20  1  0  0  0  0
 19 37  1  0  0  0  0
 20 21  2  0  0  0  0
 20 38  1  0  0  0  0
 21 39  1  0  0  0  0
M  CHG  1   5   1
M  END
> <s_m_source_file>
AV-unprocessed.smi

> <i_m_source_file_index>
2627

> <i_lp_mmshare_version>
43012

> <i_f3d_flags>
0

> <s_epik_input>
W2NIXTFbY0hdW2NIXVtjSF1jKGMxMiluKGMobjIpW0NASF0oW0NIM10pW09IXSlbQ0gyXVtDSDJdT2MzW2NIXVtjSF1bY0hdW2NIXVtjSF0z

> <s_epik_cmdline>
J2VwaWtfcHl0aG9uJywgJy1waCcsICc3LjAnLCAnLXRuJywgJzgnLCAnLW1hJywgJzIwMCcsICctbWV0YWxfYmluZGluZycsICctaW1hZScsICc8aW5maWxlLm1hZT4nLCAnLW9tYWUnLCAnPG91dGZpbGUubWFlPic=

> <r_lp_tautomer_probability>
1

> <r_epik_Ionization_Penalty>
1.52183

> <r_epik_Ionization_Penalty_Charging>
1.5218

> <r_epik_Ionization_Penalty_Neutral>
2.92192e-05

> <r_epik_State_Penalty>
1.61369

> <r_epik_Charging_Adjusted_Penalty>
3.13549

> <i_epik_Tot_Q>
1

> <i_epik_Tot_abs_Q>
1

> <r_epik_Metal_State_Penalty>
5.66625

> <b_epik_Metal_Only>
0

> <s_lp_Force_Field>
OPLS_2005

> <r_lp_Energy>
19.9406

> <b_lp_Chiralities_Consistent>
1

> <s_lp_Variant>
AV-unprocessed.smi:2627-3

> <Gold.Version>
5.8.1

> <Gold.Id.Protein>
6NUR|6NUR_protein|mol2

> <Gold.PLP.Fitness>
60.3794

> <Gold.PLP.PLP>
-52.8298

> <Gold.PLP.part.hbond>
-4.4267

> <Gold.PLP.part.metal>
0.0000

> <Gold.PLP.part.buried>
-0.5531

> <Gold.PLP.part.nonpolar>
-48.3522

> <Gold.PLP.part.repulsive>
0.0548

> <Gold.PLP.ligand.clash>
0.0000

> <Gold.PLP.ligand.torsion>
0.9134

> <Gold.PLP.Chemscore.Hbond>
3.1138

> <Gold.PLP.Chemscore.CHOScore>
0.0000

> <Gold.PLP.Chemscore.Metal>
0.0000

> <Gold.Chemscore.Hbonds>
donor molecule, donor type, donor heavy atom, donor atom, acceptor molecule, acceptor atom, score
      L1  H     3    26       P1  7948  0.11
      L1  H     5    40       P1  7948  2.00
      P1  H 10752 10763       L1     3  1.00

> <Gold.PLP.Chemscore.Internal.Correction>
0.0352

> <Gold.Rescore>
     Score         DG    S(hbond)    S(metal)    S(lipo)     H(rot)  DE(clash)    DE(int)     intcor
     21.32     -22.32       1.83        0.00     138.38       2.13       0.11       0.90       ----

> <Gold.Chemscore.Fitness>
21.3150

> <Gold.Chemscore.DG>
-22.3245

> <Gold.Chemscore.ZeroCoef>
-5.4800

> <Gold.Chemscore.Hbond>
1.8285

> <Gold.Chemscore.Metal>
0.0000

> <Gold.Chemscore.Lipo>
138.3756

> <Gold.Chemscore.Internal_Hbond>
0.0000

> <Gold.Chemscore.DEClash>
0.1090

> <Gold.Chemscore.DEInternal>
0.9005

> <Gold.Chemscore.Rot>
2.1299

> <Gold.Chemscore.Internal.Correction>
   9.000000E+99

> <Gold.Chemscore.Hbonds>
donor molecule, donor type, donor heavy atom, donor atom, acceptor molecule, acceptor atom, score
      L1  H     5    40       P1  7948  0.93
      P1  H 10752 10763       L1     3  0.60

> <Gold.Chemscore.Hbond.Weighted>
-6.1071

> <Gold.Chemscore.Metal.Weighted>
-0.0000

> <Gold.Chemscore.Lipo.Weighted>
-16.1899

> <Gold.Chemscore.Internal_Hbond.Weighted>
0.0000

> <Gold.Chemscore.DEClash.Weighted>
0.1090

> <Gold.Chemscore.DEInternal.Weighted>
0.9005

> <Gold.Chemscore.Rot.Weighted>
5.4526

> <Gold.Chemscore.Internal.Correction.Weighted>
   9.000000E+99

> <Gold.Protein.RotatedTorsions>
[ 6907 6896 6895 6894 ] final -147.04 input  -60.11 | X-H torsion
[ 7974 7965 7964 7962 ] final    3.65 input  175.53 | X-H torsion
[ 8008 7997 7996 7995 ] final  -85.12 input   59.86 | X-H torsion
[ 10167 10162 10161 10158 ] final -121.80 input  -65.29 | X-H torsion
[ 10718 10713 10712 10709 ] final  -56.68 input   66.30 | X-H torsion
[ 10763 10752 10751 10750 ] final   31.52 input  -60.55 | X-H torsion
[ 11005 11000 10999 10996 ] final   22.60 input  -57.11 | X-H torsion

> <Gold.Protein.ActiveResidues>
 VAL166  LYS551  ARG553  GLY616  TRP617  ASP618  TYR619  PRO620  LYS621  CYS622 
 ASP623  PHE694  ASN695  SER759  ASP760  ASP761  ALA762  ILE779  LEU786  VAL792 
 PHE793  MET794  SER795  GLU796  ALA797  LYS798  CYS799  TRP800  GLU811  SER814 

> <Gold.Protein.RotatedAtoms>
  151.1500  133.4913  159.2595 H   0  0  0  0  0  0  0  0  0  0  0  0  # atno 6907 bound_to 6896
  151.1564  135.0252  159.8701 H   0  0  0  0  0  0  0  0  0  0  0  0  # atno 6908 bound_to 6896
  152.5463  134.1379  159.8520 H   0  0  0  0  0  0  0  0  0  0  0  0  # atno 6909 bound_to 6896
  146.2445  140.0653  142.8366 H   0  0  0  0  0  0  0  0  0  0  0  0  # atno 7974 bound_to 7965
  154.6373  140.0596  156.9803 H   0  0  0  0  0  0  0  0  0  0  0  0  # atno 8008 bound_to 7997
  155.1572  140.3279  155.4400 H   0  0  0  0  0  0  0  0  0  0  0  0  # atno 8009 bound_to 7997
  156.2513  140.1937  156.6681 H   0  0  0  0  0  0  0  0  0  0  0  0  # atno 8010 bound_to 7997
  140.0211  143.5343  152.2220 H   0  0  0  0  0  0  0  0  0  0  0  0  # atno 10167 bound_to 10162
  156.1270  130.4162  150.0337 H   0  0  0  0  0  0  0  0  0  0  0  0  # atno 10718 bound_to 10713
  153.0311  135.6437  154.1212 H   0  0  0  0  0  0  0  0  0  0  0  0  # atno 10763 bound_to 10752
  154.0934  135.2864  155.3268 H   0  0  0  0  0  0  0  0  0  0  0  0  # atno 10764 bound_to 10752
  154.6449  135.5447  153.7896 H   0  0  0  0  0  0  0  0  0  0  0  0  # atno 10765 bound_to 10752
  140.3788  134.1943  155.7664 H   0  0  0  0  0  0  0  0  0  0  0  0  # atno 11005 bound_to 11000
  145.0864  140.9255  143.4795 LP  0  0  0  0  0  0  0  0  0  0  0  0  # atno 17320 bound_to 7965
  145.0817  139.2955  143.5780 LP  0  0  0  0  0  0  0  0  0  0  0  0  # atno 17321 bound_to 7965
  139.6139  144.7615  151.2890 LP  0  0  0  0  0  0  0  0  0  0  0  0  # atno 17342 bound_to 10162
  140.7342  143.6773  150.8030 LP  0  0  0  0  0  0  0  0  0  0  0  0  # atno 17343 bound_to 10162
  156.8260  130.9375  151.3639 LP  0  0  0  0  0  0  0  0  0  0  0  0  # atno 17370 bound_to 10713
  157.6451  130.8837  149.9522 LP  0  0  0  0  0  0  0  0  0  0  0  0  # atno 17371 bound_to 10713
  141.1930  133.8160  157.0816 LP  0  0  0  0  0  0  0  0  0  0  0  0  # atno 17394 bound_to 11000
  140.0494  134.9813  157.1109 LP  0  0  0  0  0  0  0  0  0  0  0  0  # atno 17395 bound_to 11000

$$$$
