AV-unprocessed.smi:109|AV-procd|sdf|1055|dock10
  -GOLD-   2262018123D 1   1.00000     0.00000
 Structure written by MMmdl.
 58 61  0  0  0  0  0  0  0  0  1 V2000
  153.4196  139.5934  154.7681 O   0  0  0  0  0  0  0  0  0  0  0  0
  152.0774  139.6377  155.2016 C   0  0  0  0  0  0  0  0  0  0  0  0
  151.8200  140.9465  155.9679 C   0  0  0  0  0  0  0  0  0  0  0  0
  150.8191  140.8059  157.1408 C   0  0  2  0  0  0  0  0  0  0  0  0
  149.4616  141.0573  156.6514 N   0  0  0  0  0  0  0  0  0  0  0  0
  148.5151  140.0929  156.6120 C   0  0  0  0  0  0  0  0  0  0  0  0
  147.7558  139.7942  157.6984 N   0  0  0  0  0  0  0  0  0  0  0  0
  146.8284  138.8349  157.6254 C   0  0  0  0  0  0  0  0  0  0  0  0
  146.5033  138.0658  156.5834 N   0  0  0  0  0  0  0  0  0  0  0  0
  147.2666  138.3608  155.4917 C   0  0  0  0  0  0  0  0  0  0  0  0
  148.2835  139.3524  155.4246 C   0  0  0  0  0  0  0  0  0  0  0  0
  148.8423  139.3673  154.1532 N   0  0  0  0  0  0  0  0  0  0  0  0
  148.1876  138.4378  153.5098 C   0  0  0  0  0  0  0  0  0  0  0  0
  147.2192  137.7840  154.2419 N   0  0  0  0  0  0  0  0  0  0  0  0
  146.2959  136.6844  153.8191 C   0  0  2  0  0  0  0  0  0  0  0  0
  146.7703  136.1819  152.6051 O   0  0  0  0  0  0  0  0  0  0  0  0
  145.7489  136.2150  151.6100 C   0  0  2  0  0  0  0  0  0  0  0  0
  146.3517  136.3720  150.2028 C   0  0  0  0  0  0  0  0  0  0  0  0
  145.3238  136.5543  149.2531 O   0  0  0  0  0  0  0  0  0  0  0  0
  144.8119  137.3440  152.0614 C   0  0  2  0  0  0  0  0  0  0  0  0
  145.2769  138.6077  151.6152 O   0  0  0  0  0  0  0  0  0  0  0  0
  144.8631  137.1959  153.5766 C   0  0  2  0  0  0  0  0  0  0  0  0
  144.5023  138.3788  154.2700 O   0  0  0  0  0  0  0  0  0  0  0  0
  151.1200  141.7553  158.3361 C   0  0  0  0  0  0  0  0  0  0  0  0
  151.1522  143.2516  157.9348 C   0  0  0  0  0  0  0  0  0  0  0  0
  151.4930  144.1717  159.1188 C   0  0  0  0  0  0  0  0  0  0  0  0
  152.8213  143.7764  159.7749 C   0  0  0  0  0  0  0  0  0  0  0  0
  152.7927  142.3052  160.2043 C   0  0  0  0  0  0  0  0  0  0  0  0
  152.4645  141.3882  159.0162 C   0  0  0  0  0  0  0  0  0  0  0  0
  146.3669  135.9392  154.6124 H   0  0  0  0  0  0  0  0  0  0  0  0
  145.1918  135.2781  151.6741 H   0  0  0  0  0  0  0  0  0  0  0  0
  143.8004  137.2036  151.6790 H   0  0  0  0  0  0  0  0  0  0  0  0
  144.1839  136.3970  153.8774 H   0  0  0  0  0  0  0  0  0  0  0  0
  153.8270  138.8213  155.1302 H   0  0  0  0  0  0  0  0  0  0  0  0
  151.4298  139.5546  154.3289 H   0  0  0  0  0  0  0  0  0  0  0  0
  151.8819  138.7748  155.8386 H   0  0  0  0  0  0  0  0  0  0  0  0
  152.7851  141.2840  156.3415 H   0  0  0  0  0  0  0  0  0  0  0  0
  151.4707  141.7157  155.2779 H   0  0  0  0  0  0  0  0  0  0  0  0
  150.9085  139.7906  157.5261 H   0  0  0  0  0  0  0  0  0  0  0  0
  149.2788  142.0052  156.3549 H   0  0  0  0  0  0  0  0  0  0  0  0
  146.2671  138.6584  158.5310 H   0  0  0  0  0  0  0  0  0  0  0  0
  148.3971  138.2032  152.4764 H   0  0  0  0  0  0  0  0  0  0  0  0
  146.9891  137.2559  150.1630 H   0  0  0  0  0  0  0  0  0  0  0  0
  146.9665  135.5123  149.9344 H   0  0  0  0  0  0  0  0  0  0  0  0
  145.7064  136.5415  148.3891 H   0  0  0  0  0  0  0  0  0  0  0  0
  144.7745  139.2828  152.0447 H   0  0  0  0  0  0  0  0  0  0  0  0
  144.0907  138.9705  153.6589 H   0  0  0  0  0  0  0  0  0  0  0  0
  150.3256  141.6291  159.0736 H   0  0  0  0  0  0  0  0  0  0  0  0
  151.8775  143.4022  157.1341 H   0  0  0  0  0  0  0  0  0  0  0  0
  150.1871  143.5702  157.5446 H   0  0  0  0  0  0  0  0  0  0  0  0
  151.5405  145.2074  158.7815 H   0  0  0  0  0  0  0  0  0  0  0  0
  150.6929  144.1247  159.8587 H   0  0  0  0  0  0  0  0  0  0  0  0
  153.6414  143.9398  159.0744 H   0  0  0  0  0  0  0  0  0  0  0  0
  153.0166  144.4141  160.6377 H   0  0  0  0  0  0  0  0  0  0  0  0
  153.7550  142.0253  160.6339 H   0  0  0  0  0  0  0  0  0  0  0  0
  152.0502  142.1653  160.9909 H   0  0  0  0  0  0  0  0  0  0  0  0
  152.4497  140.3592  159.3753 H   0  0  0  0  0  0  0  0  0  0  0  0
  153.2713  141.4424  158.2840 H   0  0  0  0  0  0  0  0  0  0  0  0
  1  2  1  0  0  0  0
  1 34  1  0  0  0  0
  2  3  1  0  0  0  0
  2 35  1  0  0  0  0
  2 36  1  0  0  0  0
  3  4  1  0  0  0  0
  3 37  1  0  0  0  0
  3 38  1  0  0  0  0
  4  5  1  0  0  0  0
  4 24  1  0  0  0  0
  4 39  1  0  0  0  0
  5  6  1  0  0  0  0
  5 40  1  0  0  0  0
  6 11  1  0  0  0  0
  6  7  2  0  0  0  0
  7  8  1  0  0  0  0
  8  9  2  0  0  0  0
  8 41  1  0  0  0  0
  9 10  1  0  0  0  0
 10 14  1  0  0  0  0
 10 11  2  0  0  0  0
 11 12  1  0  0  0  0
 12 13  2  0  0  0  0
 13 14  1  0  0  0  0
 13 42  1  0  0  0  0
 14 15  1  0  0  0  0
 15 30  1  0  0  0  0
 15 22  1  0  0  0  0
 15 16  1  0  0  0  0
 16 17  1  0  0  0  0
 17 31  1  0  0  0  0
 17 18  1  0  0  0  0
 17 20  1  0  0  0  0
 18 19  1  0  0  0  0
 18 43  1  0  0  0  0
 18 44  1  0  0  0  0
 19 45  1  0  0  0  0
 20 32  1  0  0  0  0
 20 21  1  0  0  0  0
 20 22  1  0  0  0  0
 21 46  1  0  0  0  0
 22 33  1  0  0  0  0
 22 23  1  0  0  0  0
 23 47  1  0  0  0  0
 24 29  1  0  0  0  0
 24 25  1  0  0  0  0
 24 48  1  0  0  0  0
 25 26  1  0  0  0  0
 25 49  1  0  0  0  0
 25 50  1  0  0  0  0
 26 27  1  0  0  0  0
 26 51  1  0  0  0  0
 26 52  1  0  0  0  0
 27 28  1  0  0  0  0
 27 53  1  0  0  0  0
 27 54  1  0  0  0  0
 28 29  1  0  0  0  0
 28 55  1  0  0  0  0
 28 56  1  0  0  0  0
 29 57  1  0  0  0  0
 29 58  1  0  0  0  0
M  END
> <s_m_source_file>
AV-unprocessed.smi

> <i_m_source_file_index>
109

> <i_lp_mmshare_version>
43012

> <i_f3d_flags>
0

> <s_epik_input>
W0NIMl0xW0NIMl1bQ0gyXVtDSDJdW0NIMl1bQ0hdMVtDQEhdKFtDSDJdW0NIMl1bT0hdKVtOSF1jKG5bY0hdbjIpYyhjMjMpbltjSF1uM1tDQEBIXTRPW0NASF0oW0NIMl1bT0hdKVtDQEBIXShbT0hdKVtDQEhdNFtPSF0=

> <s_epik_cmdline>
J2VwaWtfcHl0aG9uJywgJy1waCcsICc3LjAnLCAnLXRuJywgJzgnLCAnLW1hJywgJzIwMCcsICctbWV0YWxfYmluZGluZycsICctaW1hZScsICc8aW5maWxlLm1hZT4nLCAnLW9tYWUnLCAnPG91dGZpbGUubWFlPic=

> <r_lp_tautomer_probability>
1

> <r_epik_Ionization_Penalty>
0.000793976

> <r_epik_Ionization_Penalty_Charging>
0

> <r_epik_Ionization_Penalty_Neutral>
0.000793976

> <r_epik_State_Penalty>
-0

> <r_epik_Charging_Adjusted_Penalty>
0

> <i_epik_Tot_Q>
0

> <i_epik_Tot_abs_Q>
0

> <r_epik_Metal_State_Penalty>
-0

> <b_epik_Metal_Only>
0

> <s_epik_Chemistry_Notes>
This compound contains an acetal/aminal-like group ( X-CH(R)-Y where X, Y are N, S, or O) that may be acid/base labile, releasing an aldehyde.

> <s_lp_Force_Field>
OPLS_2005

> <r_lp_Energy>
59.4654

> <b_lp_Chiralities_Consistent>
1

> <s_lp_Variant>
AV-unprocessed.smi:109-25

> <Gold.Version>
5.8.1

> <Gold.Id.Protein>
6NUR|6NUR_protein|mol2

> <Gold.PLP.Fitness>
51.7682

> <Gold.PLP.PLP>
-40.0791

> <Gold.PLP.part.hbond>
-6.8048

> <Gold.PLP.part.metal>
0.0000

> <Gold.PLP.part.buried>
-4.8095

> <Gold.PLP.part.nonpolar>
-29.6903

> <Gold.PLP.part.repulsive>
0.2509

> <Gold.PLP.ligand.clash>
0.0000

> <Gold.PLP.ligand.torsion>
1.8095

> <Gold.PLP.Chemscore.Hbond>
4.0000

> <Gold.PLP.Chemscore.CHOScore>
1.0000

> <Gold.PLP.Chemscore.Metal>
0.0000

> <Gold.Chemscore.Hbonds>
donor molecule, donor type, donor heavy atom, donor atom, acceptor molecule, acceptor atom, score
      L1  H    19    45       P1  7921  0.38
      L1  H    21    46       P1 10175  1.00
      L1  H    23    47       P1 10175  1.00
      L1  C    13    42       P1  7948  0.86
      L1  C    13    42       P1  7957  0.72

> <Gold.PLP.Chemscore.Internal.Correction>
0.3081

> <Gold.Rescore>
     Score         DG    S(hbond)    S(metal)    S(lipo)     H(rot)  DE(clash)    DE(int)     intcor
     13.14     -15.46       3.77        0.00      97.19       5.47       0.28       2.04       ----

> <Gold.Chemscore.Fitness>
13.1412

> <Gold.Chemscore.DG>
-15.4604

> <Gold.Chemscore.ZeroCoef>
-5.4800

> <Gold.Chemscore.Hbond>
3.7732

> <Gold.Chemscore.Metal>
0.0000

> <Gold.Chemscore.Lipo>
97.1908

> <Gold.Chemscore.Internal_Hbond>
0.0000

> <Gold.Chemscore.DEClash>
0.2810

> <Gold.Chemscore.DEInternal>
2.0381

> <Gold.Chemscore.Rot>
5.4662

> <Gold.Chemscore.Internal.Correction>
   9.000000E+99

> <Gold.Chemscore.Hbonds>
donor molecule, donor type, donor heavy atom, donor atom, acceptor molecule, acceptor atom, score
      L1  H    19    45       P1  7921  0.38
      L1  H    21    46       P1 10175  0.99
      L1  H    23    47       P1 10175  0.99

> <Gold.Chemscore.Hbond.Weighted>
-12.6026

> <Gold.Chemscore.Metal.Weighted>
-0.0000

> <Gold.Chemscore.Lipo.Weighted>
-11.3713

> <Gold.Chemscore.Internal_Hbond.Weighted>
0.0000

> <Gold.Chemscore.DEClash.Weighted>
0.2810

> <Gold.Chemscore.DEInternal.Weighted>
2.0381

> <Gold.Chemscore.Rot.Weighted>
13.9935

> <Gold.Chemscore.Internal.Correction.Weighted>
   9.000000E+99

> <Gold.Protein.RotatedTorsions>
[ 6907 6896 6895 6894 ] final   64.95 input  -60.11 | X-H torsion
[ 7974 7965 7964 7962 ] final   58.26 input  175.53 | X-H torsion
[ 8008 7997 7996 7995 ] final  101.06 input   59.86 | X-H torsion
[ 10167 10162 10161 10158 ] final -153.14 input  -65.29 | X-H torsion
[ 10718 10713 10712 10709 ] final -104.97 input   66.30 | X-H torsion
[ 10763 10752 10751 10750 ] final  -97.58 input  -60.55 | X-H torsion
[ 11005 11000 10999 10996 ] final  -85.19 input  -57.11 | X-H torsion

> <Gold.Protein.ActiveResidues>
 VAL166  LYS551  ARG553  GLY616  TRP617  ASP618  TYR619  PRO620  LYS621  CYS622 
 ASP623  PHE694  ASN695  SER759  ASP760  ASP761  ALA762  ILE779  LEU786  VAL792 
 PHE793  MET794  SER795  GLU796  ALA797  LYS798  CYS799  TRP800  GLU811  SER814 

> <Gold.Protein.RotatedAtoms>
  152.4371  134.5666  159.9908 H   0  0  0  0  0  0  0  0  0  0  0  0  # atno 6907 bound_to 6896
  151.5773  133.3376  159.3009 H   0  0  0  0  0  0  0  0  0  0  0  0  # atno 6908 bound_to 6896
  150.8270  134.7541  159.6886 H   0  0  0  0  0  0  0  0  0  0  0  0  # atno 6909 bound_to 6896
  145.9201  139.3723  143.0483 H   0  0  0  0  0  0  0  0  0  0  0  0  # atno 7974 bound_to 7965
  156.1263  140.3203  155.8283 H   0  0  0  0  0  0  0  0  0  0  0  0  # atno 8008 bound_to 7997
  155.4413  140.0525  157.3027 H   0  0  0  0  0  0  0  0  0  0  0  0  # atno 8009 bound_to 7997
  154.4865  140.2075  155.9657 H   0  0  0  0  0  0  0  0  0  0  0  0  # atno 8010 bound_to 7997
  139.7122  143.9091  152.2472 H   0  0  0  0  0  0  0  0  0  0  0  0  # atno 10167 bound_to 10162
  156.0326  130.5541  150.7472 H   0  0  0  0  0  0  0  0  0  0  0  0  # atno 10718 bound_to 10713
  154.7341  135.5041  153.9012 H   0  0  0  0  0  0  0  0  0  0  0  0  # atno 10763 bound_to 10752
  153.0978  135.6677  153.9739 H   0  0  0  0  0  0  0  0  0  0  0  0  # atno 10764 bound_to 10752
  153.9533  135.3055  155.3416 H   0  0  0  0  0  0  0  0  0  0  0  0  # atno 10765 bound_to 10752
  141.1643  133.7386  156.8978 H   0  0  0  0  0  0  0  0  0  0  0  0  # atno 11005 bound_to 11000
  145.8561  140.9502  143.0724 LP  0  0  0  0  0  0  0  0  0  0  0  0  # atno 17320 bound_to 7965
  144.6752  140.0469  143.7479 LP  0  0  0  0  0  0  0  0  0  0  0  0  # atno 17321 bound_to 7965
  139.8963  144.6937  150.8715 LP  0  0  0  0  0  0  0  0  0  0  0  0  # atno 17342 bound_to 10162
  140.7736  143.3548  151.1943 LP  0  0  0  0  0  0  0  0  0  0  0  0  # atno 17343 bound_to 10162
  157.5026  131.0919  151.0296 LP  0  0  0  0  0  0  0  0  0  0  0  0  # atno 17370 bound_to 10713
  157.0673  130.5850  149.5396 LP  0  0  0  0  0  0  0  0  0  0  0  0  # atno 17371 bound_to 10713
  140.1603  134.9170  157.2706 LP  0  0  0  0  0  0  0  0  0  0  0  0  # atno 17394 bound_to 11000
  140.2619  134.3562  155.7404 LP  0  0  0  0  0  0  0  0  0  0  0  0  # atno 17395 bound_to 11000

$$$$
