AV-unprocessed.smi:1130|AV-procd|sdf|4848|dock9
  -GOLD-   22720 3413D 1   1.00000     0.00000
 Structure written by MMmdl.
 36 37  0  0  0  0  0  0  0  0  1 V2000
  152.8363  138.5400  154.9037 C   0  0  0  0  0  0  0  0  0  0  0  0
  151.4053  138.9533  154.8449 C   0  0  0  0  0  0  0  0  0  0  0  0
  151.0577  140.2342  154.8206 N   0  0  0  0  0  0  0  0  0  0  0  0
  149.6572  140.1882  154.7641 O   0  0  0  0  0  0  0  0  0  0  0  0
  149.3297  138.8737  154.7822 C   0  0  0  0  0  0  0  0  0  0  0  0
  147.8927  138.4858  154.6807 C   0  0  0  0  0  0  0  0  0  0  0  0
  147.2647  138.9193  153.3468 C   0  0  0  0  0  0  0  0  0  0  0  0
  147.0865  137.7903  152.4412 N   0  0  0  0  0  0  0  0  0  0  0  0
  145.9163  137.1908  152.1823 C   0  0  0  0  0  0  0  0  0  0  0  0
  144.8450  137.5189  152.6925 O   0  0  0  0  0  0  0  0  0  0  0  0
  146.0547  136.1906  151.3019 N   0  0  0  0  0  0  0  0  0  0  0  0
  144.9671  135.3495  150.8151 C   0  0  0  0  0  0  0  0  0  0  0  0
  145.3557  133.8613  150.7794 C   0  0  2  0  0  0  0  0  0  0  0  0
  144.3250  132.9428  150.1165 C   0  0  0  0  0  0  0  0  0  0  0  0
  144.4723  131.6219  150.8599 C   0  0  0  0  0  0  0  0  0  0  0  0
  145.4651  131.9293  151.9824 C   0  0  0  0  0  0  0  0  0  0  0  0
  145.4434  133.3433  152.0968 O   0  0  0  0  0  0  0  0  0  0  0  0
  150.3805  138.0576  154.8151 N   0  0  0  0  0  0  0  0  0  0  0  0
  153.4801  139.3121  154.4808 H   0  0  0  0  0  0  0  0  0  0  0  0
  152.9902  137.6195  154.3400 H   0  0  0  0  0  0  0  0  0  0  0  0
  153.1347  138.3677  155.9379 H   0  0  0  0  0  0  0  0  0  0  0  0
  147.8157  137.4042  154.7993 H   0  0  0  0  0  0  0  0  0  0  0  0
  147.3549  138.9313  155.5184 H   0  0  0  0  0  0  0  0  0  0  0  0
  146.3086  139.4172  153.5178 H   0  0  0  0  0  0  0  0  0  0  0  0
  147.9094  139.6471  152.8533 H   0  0  0  0  0  0  0  0  0  0  0  0
  147.9120  137.4473  151.9718 H   0  0  0  0  0  0  0  0  0  0  0  0
  146.9768  135.9973  150.9390 H   0  0  0  0  0  0  0  0  0  0  0  0
  144.0787  135.4929  151.4322 H   0  0  0  0  0  0  0  0  0  0  0  0
  144.7026  135.6877  149.8128 H   0  0  0  0  0  0  0  0  0  0  0  0
  146.3269  133.7341  150.2971 H   0  0  0  0  0  0  0  0  0  0  0  0
  143.3156  133.3312  150.2587 H   0  0  0  0  0  0  0  0  0  0  0  0
  144.4965  132.8436  149.0444 H   0  0  0  0  0  0  0  0  0  0  0  0
  143.5098  131.3098  151.2667 H   0  0  0  0  0  0  0  0  0  0  0  0
  144.8390  130.8227  150.2150 H   0  0  0  0  0  0  0  0  0  0  0  0
  145.1996  131.4477  152.9239 H   0  0  0  0  0  0  0  0  0  0  0  0
  146.4706  131.6075  151.7064 H   0  0  0  0  0  0  0  0  0  0  0  0
  1  2  1  0  0  0  0
  1 19  1  0  0  0  0
  1 20  1  0  0  0  0
  1 21  1  0  0  0  0
  2 18  1  0  0  0  0
  2  3  2  0  0  0  0
  3  4  1  0  0  0  0
  4  5  1  0  0  0  0
  5  6  1  0  0  0  0
  5 18  2  0  0  0  0
  6  7  1  0  0  0  0
  6 22  1  0  0  0  0
  6 23  1  0  0  0  0
  7  8  1  0  0  0  0
  7 24  1  0  0  0  0
  7 25  1  0  0  0  0
  8  9  1  0  0  0  0
  8 26  1  0  0  0  0
  9 10  2  0  0  0  0
  9 11  1  0  0  0  0
 11 12  1  0  0  0  0
 11 27  1  0  0  0  0
 12 13  1  0  0  0  0
 12 28  1  0  0  0  0
 12 29  1  0  0  0  0
 13 17  1  0  0  0  0
 13 14  1  0  0  0  0
 13 30  1  0  0  0  0
 14 15  1  0  0  0  0
 14 31  1  0  0  0  0
 14 32  1  0  0  0  0
 15 16  1  0  0  0  0
 15 33  1  0  0  0  0
 15 34  1  0  0  0  0
 16 17  1  0  0  0  0
 16 35  1  0  0  0  0
 16 36  1  0  0  0  0
M  END
> <s_m_source_file>
AV-unprocessed.smi

> <i_m_source_file_index>
1130

> <i_lp_mmshare_version>
43012

> <i_f3d_flags>
0

> <s_epik_input>
W0NIM11jMW5vYyhuMSlbQ0gyXVtDSDJdW05IXUMoPU8pW05IXVtDSDJdW0NAQEhdMltDSDJdW0NIMl1bQ0gyXU8y

> <s_epik_cmdline>
J2VwaWtfcHl0aG9uJywgJy1waCcsICc3LjAnLCAnLXRuJywgJzgnLCAnLW1hJywgJzIwMCcsICctbWV0YWxfYmluZGluZycsICctaW1hZScsICc8aW5maWxlLm1hZT4nLCAnLW9tYWUnLCAnPG91dGZpbGUubWFlPic=

> <r_lp_tautomer_probability>
1

> <r_epik_Ionization_Penalty>
4.67036e-05

> <r_epik_Ionization_Penalty_Charging>
0

> <r_epik_Ionization_Penalty_Neutral>
4.67036e-05

> <r_epik_State_Penalty>
-0

> <r_epik_Charging_Adjusted_Penalty>
0

> <i_epik_Tot_Q>
0

> <i_epik_Tot_abs_Q>
0

> <r_epik_Metal_State_Penalty>
-0

> <b_epik_Metal_Only>
0

> <s_lp_Force_Field>
OPLS_2005

> <r_lp_Energy>
8.95109

> <b_lp_Chiralities_Consistent>
1

> <s_lp_Variant>
AV-unprocessed.smi:1130-1

> <Gold.Version>
5.8.1

> <Gold.Id.Protein>
6NUR|6NUR_protein|mol2

> <Gold.PLP.Fitness>
37.4486

> <Gold.PLP.PLP>
-31.6141

> <Gold.PLP.part.hbond>
-2.8355

> <Gold.PLP.part.metal>
0.0000

> <Gold.PLP.part.buried>
-7.0635

> <Gold.PLP.part.nonpolar>
-23.9013

> <Gold.PLP.part.repulsive>
0.8118

> <Gold.PLP.ligand.clash>
0.0000

> <Gold.PLP.ligand.torsion>
0.6009

> <Gold.PLP.Chemscore.Hbond>
2.3379

> <Gold.PLP.Chemscore.CHOScore>
0.0000

> <Gold.PLP.Chemscore.Metal>
0.0000

> <Gold.Chemscore.Hbonds>
donor molecule, donor type, donor heavy atom, donor atom, acceptor molecule, acceptor atom, score
      L1  H     8    26       P1  7948  0.94
      L1  H    11    27       P1  7948  0.47
      P1  H  7989  7998       L1     3  1.00

> <Gold.PLP.Chemscore.Internal.Correction>
0.0226

> <Gold.Rescore>
     Score         DG    S(hbond)    S(metal)    S(lipo)     H(rot)  DE(clash)    DE(int)     intcor
     12.79     -13.42       2.28        0.00      53.81       2.33       0.00       0.63       ----

> <Gold.Chemscore.Fitness>
12.7882

> <Gold.Chemscore.DG>
-13.4224

> <Gold.Chemscore.ZeroCoef>
-5.4800

> <Gold.Chemscore.Hbond>
2.2779

> <Gold.Chemscore.Metal>
0.0000

> <Gold.Chemscore.Lipo>
53.8111

> <Gold.Chemscore.Internal_Hbond>
0.0000

> <Gold.Chemscore.DEClash>
0.0000

> <Gold.Chemscore.DEInternal>
0.6342

> <Gold.Chemscore.Rot>
2.3288

> <Gold.Chemscore.Internal.Correction>
   9.000000E+99

> <Gold.Chemscore.Hbonds>
donor molecule, donor type, donor heavy atom, donor atom, acceptor molecule, acceptor atom, score
      L1  H     8    26       P1  7948  0.89
      L1  H    11    27       P1  7948  0.45
      P1  H  7989  7998       L1     3  0.47

> <Gold.Chemscore.Hbond.Weighted>
-7.6082

> <Gold.Chemscore.Metal.Weighted>
-0.0000

> <Gold.Chemscore.Lipo.Weighted>
-6.2959

> <Gold.Chemscore.Internal_Hbond.Weighted>
0.0000

> <Gold.Chemscore.DEClash.Weighted>
0.0000

> <Gold.Chemscore.DEInternal.Weighted>
0.6342

> <Gold.Chemscore.Rot.Weighted>
5.9617

> <Gold.Chemscore.Internal.Correction.Weighted>
   9.000000E+99

> <Gold.Protein.RotatedTorsions>
[ 6907 6896 6895 6894 ] final   80.31 input  -60.11 | X-H torsion
[ 7974 7965 7964 7962 ] final  155.84 input  175.53 | X-H torsion
[ 8008 7997 7996 7995 ] final  -54.03 input   59.86 | X-H torsion
[ 10167 10162 10161 10158 ] final  129.12 input  -65.29 | X-H torsion
[ 10718 10713 10712 10709 ] final -156.65 input   66.30 | X-H torsion
[ 10763 10752 10751 10750 ] final    8.32 input  -60.55 | X-H torsion
[ 11005 11000 10999 10996 ] final  -42.09 input  -57.11 | X-H torsion

> <Gold.Protein.ActiveResidues>
 VAL166  LYS551  ARG553  GLY616  TRP617  ASP618  TYR619  PRO620  LYS621  CYS622 
 ASP623  PHE694  ASN695  SER759  ASP760  ASP761  ALA762  ILE779  LEU786  VAL792 
 PHE793  MET794  SER795  GLU796  ALA797  LYS798  CYS799  TRP800  GLU811  SER814 

> <Gold.Protein.RotatedAtoms>
  152.5230  134.3377  159.9205 H   0  0  0  0  0  0  0  0  0  0  0  0  # atno 6907 bound_to 6896
  151.3327  133.3988  159.2671 H   0  0  0  0  0  0  0  0  0  0  0  0  # atno 6908 bound_to 6896
  150.9867  134.9229  159.7934 H   0  0  0  0  0  0  0  0  0  0  0  0  # atno 6909 bound_to 6896
  144.8000  139.7123  143.6186 H   0  0  0  0  0  0  0  0  0  0  0  0  # atno 7974 bound_to 7965
  154.4150  140.1186  156.5250 H   0  0  0  0  0  0  0  0  0  0  0  0  # atno 8008 bound_to 7997
  155.6663  140.3496  155.4782 H   0  0  0  0  0  0  0  0  0  0  0  0  # atno 8009 bound_to 7997
  155.9670  140.1134  157.0835 H   0  0  0  0  0  0  0  0  0  0  0  0  # atno 8010 bound_to 7997
  139.5493  144.6800  151.4374 H   0  0  0  0  0  0  0  0  0  0  0  0  # atno 10167 bound_to 10162
  156.5294  130.8514  151.2711 H   0  0  0  0  0  0  0  0  0  0  0  0  # atno 10718 bound_to 10713
  153.2264  135.6887  153.7941 H   0  0  0  0  0  0  0  0  0  0  0  0  # atno 10763 bound_to 10752
  153.7121  135.3280  155.3249 H   0  0  0  0  0  0  0  0  0  0  0  0  # atno 10764 bound_to 10752
  154.8293  135.4593  154.1132 H   0  0  0  0  0  0  0  0  0  0  0  0  # atno 10765 bound_to 10752
  141.0291  133.6828  156.2547 H   0  0  0  0  0  0  0  0  0  0  0  0  # atno 11005 bound_to 11000
  146.2278  139.5756  142.9575 LP  0  0  0  0  0  0  0  0  0  0  0  0  # atno 17320 bound_to 7965
  145.5578  141.0407  143.2243 LP  0  0  0  0  0  0  0  0  0  0  0  0  # atno 17321 bound_to 7965
  140.6751  143.8208  150.7048 LP  0  0  0  0  0  0  0  0  0  0  0  0  # atno 17342 bound_to 10162
  140.1644  143.4248  152.2045 LP  0  0  0  0  0  0  0  0  0  0  0  0  # atno 17343 bound_to 10162
  157.7424  130.9890  150.2515 LP  0  0  0  0  0  0  0  0  0  0  0  0  # atno 17370 bound_to 10713
  156.3074  130.3767  149.7693 LP  0  0  0  0  0  0  0  0  0  0  0  0  # atno 17371 bound_to 10713
  140.6438  134.5138  157.5572 LP  0  0  0  0  0  0  0  0  0  0  0  0  # atno 17394 bound_to 11000
  139.9196  134.8176  156.1254 LP  0  0  0  0  0  0  0  0  0  0  0  0  # atno 17395 bound_to 11000

$$$$
