AV-unprocessed.smi:1550|AV-procd|sdf|6229|dock5
  -GOLD-   22720 6403D 1   1.00000     0.00000
 Structure written by MMmdl.
 42 43  0  0  0  0  0  0  0  0  2 V2000
  154.4627  138.3289  159.4405 C   0  0  0  0  0  0  0  0  0  0  0  0
  153.5078  139.4084  159.9713 C   0  0  1  0  0  0  0  0  0  0  0  0
  154.1994  140.6537  159.9202 O   0  0  0  0  0  0  0  0  0  0  0  0
  153.8267  141.6027  160.9134 C   0  0  0  0  0  0  0  0  0  0  0  0
  152.7737  142.5466  160.3195 C   0  0  2  0  0  0  0  0  0  0  0  0
  153.3505  143.4049  159.1766 C   0  0  0  0  0  0  0  0  0  0  0  0
  152.3020  144.4013  158.6682 C   0  0  0  0  0  0  0  0  0  0  0  0
  151.7516  145.2153  159.8439 C   0  0  0  0  0  0  0  0  0  0  0  0
  151.2653  144.2781  160.9605 C   0  0  0  0  0  0  0  0  0  0  0  0
  152.3227  143.4118  161.3601 O   0  0  0  0  0  0  0  0  0  0  0  0
  152.2220  139.4787  159.1315 C   0  0  0  0  0  0  0  0  0  0  0  0
  151.1315  139.3180  159.6796 O   0  0  0  0  0  0  0  0  0  0  0  0
  152.4018  139.7184  157.8180 N   0  0  0  0  0  0  0  0  0  0  0  0
  151.4504  139.7631  156.7856 C   0  0  0  0  0  0  0  0  0  0  0  0
  150.1260  140.0226  156.9674 C   0  0  0  0  0  0  0  0  0  0  0  0
  149.1760  140.0313  155.8616 C   0  0  0  0  0  0  0  0  0  0  0  0
  147.6922  140.3145  156.0091 C   0  0  0  0  0  0  0  0  0  0  0  0
  147.1459  139.4664  156.8797 F   0  0  0  0  0  0  0  0  0  0  0  0
  147.5025  141.5523  156.4652 F   0  0  0  0  0  0  0  0  0  0  0  0
  147.0542  140.1923  154.8450 F   0  0  0  0  0  0  0  0  0  0  0  0
  149.7742  139.7380  154.6524 C   0  0  0  0  0  0  0  0  0  0  0  0
  151.0702  139.4614  154.3888 N   0  5  0  0  0  0  0  0  0  0  0  0
  151.9510  139.4584  155.4290 C   0  0  0  0  0  0  0  0  0  0  0  0
  153.1453  139.2083  155.2618 O   0  0  0  0  0  0  0  0  0  0  0  0
  153.9889  137.3468  159.4397 H   0  0  0  0  0  0  0  0  0  0  0  0
  155.3549  138.2630  160.0634 H   0  0  0  0  0  0  0  0  0  0  0  0
  154.7886  138.5459  158.4224 H   0  0  0  0  0  0  0  0  0  0  0  0
  153.2646  139.1721  161.0093 H   0  0  0  0  0  0  0  0  0  0  0  0
  153.4320  141.1251  161.8110 H   0  0  0  0  0  0  0  0  0  0  0  0
  154.7109  142.1702  161.2073 H   0  0  0  0  0  0  0  0  0  0  0  0
  151.9373  141.9550  159.9427 H   0  0  0  0  0  0  0  0  0  0  0  0
  154.2267  143.9488  159.5321 H   0  0  0  0  0  0  0  0  0  0  0  0
  153.6883  142.7695  158.3573 H   0  0  0  0  0  0  0  0  0  0  0  0
  152.7357  145.0619  157.9171 H   0  0  0  0  0  0  0  0  0  0  0  0
  151.4888  143.8622  158.1809 H   0  0  0  0  0  0  0  0  0  0  0  0
  152.5322  145.8699  160.2337 H   0  0  0  0  0  0  0  0  0  0  0  0
  150.9386  145.8604  159.5097 H   0  0  0  0  0  0  0  0  0  0  0  0
  150.9423  144.8601  161.8239 H   0  0  0  0  0  0  0  0  0  0  0  0
  150.4053  143.6925  160.6319 H   0  0  0  0  0  0  0  0  0  0  0  0
  153.3457  139.9235  157.5237 H   0  0  0  0  0  0  0  0  0  0  0  0
  149.7339  140.2071  157.9542 H   0  0  0  0  0  0  0  0  0  0  0  0
  149.1075  139.7210  153.7638 H   0  0  0  0  0  0  0  0  0  0  0  0
  1  2  1  0  0  0  0
  1 25  1  0  0  0  0
  1 26  1  0  0  0  0
  1 27  1  0  0  0  0
  2  3  1  0  0  0  0
  2 11  1  0  0  0  0
  2 28  1  0  0  0  0
  3  4  1  0  0  0  0
  4  5  1  0  0  0  0
  4 29  1  0  0  0  0
  4 30  1  0  0  0  0
  5 10  1  0  0  0  0
  5  6  1  0  0  0  0
  5 31  1  0  0  0  0
  6  7  1  0  0  0  0
  6 32  1  0  0  0  0
  6 33  1  0  0  0  0
  7  8  1  0  0  0  0
  7 34  1  0  0  0  0
  7 35  1  0  0  0  0
  8  9  1  0  0  0  0
  8 36  1  0  0  0  0
  8 37  1  0  0  0  0
  9 10  1  0  0  0  0
  9 38  1  0  0  0  0
  9 39  1  0  0  0  0
 11 12  2  0  0  0  0
 11 13  1  0  0  0  0
 13 14  1  0  0  0  0
 13 40  1  0  0  0  0
 14 23  1  0  0  0  0
 14 15  2  0  0  0  0
 15 16  1  0  0  0  0
 15 41  1  0  0  0  0
 16 17  1  0  0  0  0
 16 21  2  0  0  0  0
 17 18  1  0  0  0  0
 17 19  1  0  0  0  0
 17 20  1  0  0  0  0
 21 22  1  0  0  0  0
 21 42  1  0  0  0  0
 22 23  1  0  0  0  0
 23 24  2  0  0  0  0
M  CHG  1  22  -1
M  END
> <s_m_source_file>
AV-unprocessed.smi

> <i_m_source_file_index>
1550

> <i_lp_mmshare_version>
43012

> <i_f3d_flags>
0

> <s_epik_input>
TzFbQ0gyXVtDSDJdW0NIMl1bQ0gyXVtDQEhdMVtDSDJdT1tDQEBIXShbQ0gzXSlDKD1PKVtOSF1jMltjSF1jKEMoRikoRilGKVtjSF1bbkhdYzI9Tw==

> <s_epik_cmdline>
J2VwaWtfcHl0aG9uJywgJy1waCcsICc3LjAnLCAnLXRuJywgJzgnLCAnLW1hJywgJzIwMCcsICctbWV0YWxfYmluZGluZycsICctaW1hZScsICc8aW5maWxlLm1hZT4nLCAnLW9tYWUnLCAnPG91dGZpbGUubWFlPic=

> <r_epik_Ionization_Penalty>
2.54933

> <r_epik_Ionization_Penalty_Charging>
0.0583423

> <r_epik_Ionization_Penalty_Neutral>
2.49099

> <r_epik_State_Penalty>
2.65532

> <r_epik_Charging_Adjusted_Penalty>
2.71366

> <i_epik_Tot_Q>
-1

> <i_epik_Tot_abs_Q>
1

> <r_epik_Metal_State_Penalty>
0.516364

> <b_epik_Metal_Only>
0

> <s_lp_Force_Field>
OPLS_2005

> <r_lp_Energy>
27.7266

> <b_lp_Chiralities_Consistent>
1

> <s_lp_Variant>
AV-unprocessed.smi:1550-6

> <Gold.Version>
5.8.1

> <Gold.Id.Protein>
6NUR|6NUR_protein|mol2

> <Gold.PLP.Fitness>
45.1692

> <Gold.PLP.PLP>
-40.8452

> <Gold.PLP.part.hbond>
-3.0000

> <Gold.PLP.part.metal>
0.0000

> <Gold.PLP.part.buried>
-0.9760

> <Gold.PLP.part.nonpolar>
-36.2621

> <Gold.PLP.part.repulsive>
0.3646

> <Gold.PLP.ligand.clash>
0.0000

> <Gold.PLP.ligand.torsion>
0.7842

> <Gold.PLP.Chemscore.Hbond>
1.9500

> <Gold.PLP.Chemscore.CHOScore>
0.0000

> <Gold.PLP.Chemscore.Metal>
0.0000

> <Gold.Chemscore.Hbonds>
donor molecule, donor type, donor heavy atom, donor atom, acceptor molecule, acceptor atom, score
      P1  H  7989  7998       L1    22  1.00
      P1  H  7997  8010       L1    24  1.00

> <Gold.PLP.Chemscore.Internal.Correction>
0.0423

> <Gold.Rescore>
     Score         DG    S(hbond)    S(metal)    S(lipo)     H(rot)  DE(clash)    DE(int)     intcor
     14.12     -16.66       1.03        0.00     106.13       1.82       0.54       2.01       ----

> <Gold.Chemscore.Fitness>
14.1194

> <Gold.Chemscore.DG>
-16.6647

> <Gold.Chemscore.ZeroCoef>
-5.4800

> <Gold.Chemscore.Hbond>
1.0289

> <Gold.Chemscore.Metal>
0.0000

> <Gold.Chemscore.Lipo>
106.1255

> <Gold.Chemscore.Internal_Hbond>
0.0000

> <Gold.Chemscore.DEClash>
0.5387

> <Gold.Chemscore.DEInternal>
2.0066

> <Gold.Chemscore.Rot>
1.8236

> <Gold.Chemscore.Internal.Correction>
   9.000000E+99

> <Gold.Chemscore.Hbonds>
donor molecule, donor type, donor heavy atom, donor atom, acceptor molecule, acceptor atom, score
      P1  H  7989  7998       L1    22  0.15
      P1  H  7997  8010       L1    24  0.99

> <Gold.Chemscore.Hbond.Weighted>
-3.4364

> <Gold.Chemscore.Metal.Weighted>
-0.0000

> <Gold.Chemscore.Lipo.Weighted>
-12.4167

> <Gold.Chemscore.Internal_Hbond.Weighted>
0.0000

> <Gold.Chemscore.DEClash.Weighted>
0.5387

> <Gold.Chemscore.DEInternal.Weighted>
2.0066

> <Gold.Chemscore.Rot.Weighted>
4.6684

> <Gold.Chemscore.Internal.Correction.Weighted>
   9.000000E+99

> <Gold.Protein.RotatedTorsions>
[ 6907 6896 6895 6894 ] final -128.27 input  -60.11 | X-H torsion
[ 7974 7965 7964 7962 ] final  -75.67 input  175.53 | X-H torsion
[ 8008 7997 7996 7995 ] final   98.48 input   59.86 | X-H torsion
[ 10167 10162 10161 10158 ] final   87.13 input  -65.29 | X-H torsion
[ 10718 10713 10712 10709 ] final  -24.45 input   66.30 | X-H torsion
[ 10763 10752 10751 10750 ] final   -6.60 input  -60.55 | X-H torsion
[ 11005 11000 10999 10996 ] final  128.23 input  -57.11 | X-H torsion

> <Gold.Protein.ActiveResidues>
 VAL166  LYS551  ARG553  GLY616  TRP617  ASP618  TYR619  PRO620  LYS621  CYS622 
 ASP623  PHE694  ASN695  SER759  ASP760  ASP761  ALA762  ILE779  LEU786  VAL792 
 PHE793  MET794  SER795  GLU796  ALA797  LYS798  CYS799  TRP800  GLU811  SER814 

> <Gold.Protein.RotatedAtoms>
  150.9161  133.6937  159.2842 H   0  0  0  0  0  0  0  0  0  0  0  0  # atno 6907 bound_to 6896
  151.4407  135.1018  159.9679 H   0  0  0  0  0  0  0  0  0  0  0  0  # atno 6908 bound_to 6896
  152.4955  133.8570  159.7286 H   0  0  0  0  0  0  0  0  0  0  0  0  # atno 6909 bound_to 6896
  145.6229  140.9358  143.1128 H   0  0  0  0  0  0  0  0  0  0  0  0  # atno 7974 bound_to 7965
  156.1009  140.3243  155.7940 H   0  0  0  0  0  0  0  0  0  0  0  0  # atno 8008 bound_to 7997
  155.4839  140.0556  157.2980 H   0  0  0  0  0  0  0  0  0  0  0  0  # atno 8009 bound_to 7997
  154.4696  140.2005  156.0044 H   0  0  0  0  0  0  0  0  0  0  0  0  # atno 8010 bound_to 7997
  139.8805  144.6443  150.8849 H   0  0  0  0  0  0  0  0  0  0  0  0  # atno 10167 bound_to 10162
  156.4775  130.4538  149.6832 H   0  0  0  0  0  0  0  0  0  0  0  0  # atno 10718 bound_to 10713
  153.4146  135.7008  153.6335 H   0  0  0  0  0  0  0  0  0  0  0  0  # atno 10763 bound_to 10752
  153.4815  135.3692  155.2445 H   0  0  0  0  0  0  0  0  0  0  0  0  # atno 10764 bound_to 10752
  154.8719  135.4067  154.3504 H   0  0  0  0  0  0  0  0  0  0  0  0  # atno 10765 bound_to 10752
  139.9549  134.9615  156.8971 H   0  0  0  0  0  0  0  0  0  0  0  0  # atno 11005 bound_to 11000
  144.7224  139.7987  143.7377 LP  0  0  0  0  0  0  0  0  0  0  0  0  # atno 17320 bound_to 7965
  146.1417  139.4475  143.0105 LP  0  0  0  0  0  0  0  0  0  0  0  0  # atno 17321 bound_to 7965
  140.7745  143.3590  151.1865 LP  0  0  0  0  0  0  0  0  0  0  0  0  # atno 17342 bound_to 10162
  139.7201  143.9238  152.2982 LP  0  0  0  0  0  0  0  0  0  0  0  0  # atno 17343 bound_to 10162
  156.3556  130.7454  151.2420 LP  0  0  0  0  0  0  0  0  0  0  0  0  # atno 17370 bound_to 10713
  157.7486  131.0365  150.4411 LP  0  0  0  0  0  0  0  0  0  0  0  0  # atno 17371 bound_to 10713
  140.5632  134.0515  155.7405 LP  0  0  0  0  0  0  0  0  0  0  0  0  # atno 17394 bound_to 11000
  141.1219  133.9447  157.2713 LP  0  0  0  0  0  0  0  0  0  0  0  0  # atno 17395 bound_to 11000

$$$$
