AV-unprocessed.smi:1180|AV-procd|sdf|4964|dock8
  -GOLD-   22720 3553D 1   1.00000     0.00000
 Structure written by MMmdl.
 37 38  0  0  0  0  0  0  0  0  2 V2000
  149.9182  134.5048  154.2780 C   0  0  0  0  0  0  0  0  0  0  0  0
  150.1397  135.9894  154.4741 C   0  0  0  0  0  0  0  0  0  0  0  0
  149.1275  136.7582  154.6114 N   0  0  0  0  0  0  0  0  0  0  0  0
  149.3255  138.1380  154.7890 C   0  0  0  0  0  0  0  0  0  0  0  0
  148.0670  138.9744  154.9383 C   0  0  0  0  0  0  0  0  0  0  0  0
  150.5800  138.6725  154.8185 C   0  0  0  0  0  0  0  0  0  0  0  0
  150.8526  140.1657  155.0040 C   0  0  0  0  0  0  0  0  0  0  0  0
  151.5954  140.5700  156.2804 C   0  0  0  0  0  0  0  0  0  0  0  0
  152.5239  139.8879  156.7154 O   0  0  0  0  0  0  0  0  0  0  0  0
  151.1677  141.6936  156.8753 N   0  0  0  0  0  0  0  0  0  0  0  0
  151.7313  142.2650  158.0935 C   0  0  0  0  0  0  0  0  0  0  0  0
  151.3102  143.7335  158.2950 C   0  0  2  0  0  0  0  0  0  0  0  0
  152.2803  144.5430  159.1487 C   0  0  0  0  0  0  0  0  0  0  0  0
  151.3798  145.4207  160.0243 C   0  0  0  0  0  0  0  0  0  0  0  0
  150.0681  145.2493  159.5071 O   0  0  0  0  0  0  0  0  0  0  0  0
  149.9789  143.9209  159.0221 C   0  0  0  0  0  0  0  0  0  0  0  0
  151.7200  137.7515  154.6644 C   0  0  0  0  0  0  0  0  0  0  0  0
  152.8728  138.1804  154.6998 O   0  0  0  0  0  0  0  0  0  0  0  0
  151.4451  136.4275  154.4876 N   0  5  0  0  0  0  0  0  0  0  0  0
  148.9049  134.2190  154.5631 H   0  0  0  0  0  0  0  0  0  0  0  0
  150.6165  133.9289  154.8864 H   0  0  0  0  0  0  0  0  0  0  0  0
  150.0695  134.2387  153.2316 H   0  0  0  0  0  0  0  0  0  0  0  0
  147.9559  139.6495  154.0897 H   0  0  0  0  0  0  0  0  0  0  0  0
  148.1043  139.5672  155.8523 H   0  0  0  0  0  0  0  0  0  0  0  0
  147.1778  138.3447  154.9853 H   0  0  0  0  0  0  0  0  0  0  0  0
  151.3937  140.5585  154.1421 H   0  0  0  0  0  0  0  0  0  0  0  0
  149.9015  140.6978  154.9969 H   0  0  0  0  0  0  0  0  0  0  0  0
  150.4002  142.1918  156.4487 H   0  0  0  0  0  0  0  0  0  0  0  0
  151.3933  141.6605  158.9355 H   0  0  0  0  0  0  0  0  0  0  0  0
  152.8194  142.1832  158.0735 H   0  0  0  0  0  0  0  0  0  0  0  0
  151.2327  144.2242  157.3232 H   0  0  0  0  0  0  0  0  0  0  0  0
  152.9068  143.9061  159.7743 H   0  0  0  0  0  0  0  0  0  0  0  0
  152.9402  145.1426  158.5209 H   0  0  0  0  0  0  0  0  0  0  0  0
  151.4036  145.0789  161.0601 H   0  0  0  0  0  0  0  0  0  0  0  0
  151.6734  146.4704  160.0068 H   0  0  0  0  0  0  0  0  0  0  0  0
  149.1178  143.7906  158.3659 H   0  0  0  0  0  0  0  0  0  0  0  0
  149.8819  143.2304  159.8618 H   0  0  0  0  0  0  0  0  0  0  0  0
  1  2  1  0  0  0  0
  1 20  1  0  0  0  0
  1 21  1  0  0  0  0
  1 22  1  0  0  0  0
  2 19  1  0  0  0  0
  2  3  2  0  0  0  0
  3  4  1  0  0  0  0
  4  5  1  0  0  0  0
  4  6  2  0  0  0  0
  5 23  1  0  0  0  0
  5 24  1  0  0  0  0
  5 25  1  0  0  0  0
  6  7  1  0  0  0  0
  6 17  1  0  0  0  0
  7  8  1  0  0  0  0
  7 26  1  0  0  0  0
  7 27  1  0  0  0  0
  8  9  2  0  0  0  0
  8 10  1  0  0  0  0
 10 11  1  0  0  0  0
 10 28  1  0  0  0  0
 11 12  1  0  0  0  0
 11 29  1  0  0  0  0
 11 30  1  0  0  0  0
 12 16  1  0  0  0  0
 12 13  1  0  0  0  0
 12 31  1  0  0  0  0
 13 14  1  0  0  0  0
 13 32  1  0  0  0  0
 13 33  1  0  0  0  0
 14 15  1  0  0  0  0
 14 34  1  0  0  0  0
 14 35  1  0  0  0  0
 15 16  1  0  0  0  0
 16 36  1  0  0  0  0
 16 37  1  0  0  0  0
 17 18  2  0  0  0  0
 17 19  1  0  0  0  0
M  CHG  1  19  -1
M  END
> <s_m_source_file>
AV-unprocessed.smi

> <i_m_source_file_index>
1180

> <i_lp_mmshare_version>
43012

> <i_f3d_flags>
0

> <s_epik_input>
W0NIM11jMW5jKFtDSDNdKWMoYyg9TylbbkhdMSlbQ0gyXUMoPU8pW05IXVtDSDJdW0NAQEhdMltDSDJdW0NIMl1PW0NIMl0y

> <s_epik_cmdline>
J2VwaWtfcHl0aG9uJywgJy1waCcsICc3LjAnLCAnLXRuJywgJzgnLCAnLW1hJywgJzIwMCcsICctbWV0YWxfYmluZGluZycsICctaW1hZScsICc8aW5maWxlLm1hZT4nLCAnLW9tYWUnLCAnPG91dGZpbGUubWFlPic=

> <r_lp_tautomer_probability>
0.839158

> <r_epik_Ionization_Penalty>
6.60319

> <r_epik_Ionization_Penalty_Charging>
6.85407e-08

> <r_epik_Ionization_Penalty_Neutral>
6.60319

> <r_epik_State_Penalty>
4.42883

> <r_epik_Charging_Adjusted_Penalty>
4.42883

> <i_epik_Tot_Q>
-1

> <i_epik_Tot_abs_Q>
1

> <r_epik_Metal_State_Penalty>
0.797578

> <b_epik_Metal_Only>
1

> <s_lp_Force_Field>
OPLS_2005

> <r_lp_Energy>
24.7937

> <b_lp_Chiralities_Consistent>
1

> <s_lp_Variant>
AV-unprocessed.smi:1180-5

> <Gold.Version>
5.8.1

> <Gold.Id.Protein>
6NUR|6NUR_protein|mol2

> <Gold.PLP.Fitness>
42.3818

> <Gold.PLP.PLP>
-34.7887

> <Gold.PLP.part.hbond>
-3.1320

> <Gold.PLP.part.metal>
0.0000

> <Gold.PLP.part.buried>
-5.0064

> <Gold.PLP.part.nonpolar>
-27.5052

> <Gold.PLP.part.repulsive>
0.6095

> <Gold.PLP.ligand.clash>
0.0000

> <Gold.PLP.ligand.torsion>
0.7066

> <Gold.PLP.Chemscore.Hbond>
3.0000

> <Gold.PLP.Chemscore.CHOScore>
0.0000

> <Gold.PLP.Chemscore.Metal>
0.0000

> <Gold.Chemscore.Hbonds>
donor molecule, donor type, donor heavy atom, donor atom, acceptor molecule, acceptor atom, score
      P1  H  7997  8009       L1     9  1.00
      P1  H 10752 10763       L1    19  2.00

> <Gold.PLP.Chemscore.Internal.Correction>
0.0063

> <Gold.Rescore>
     Score         DG    S(hbond)    S(metal)    S(lipo)     H(rot)  DE(clash)    DE(int)     intcor
     13.93     -16.09       1.91        0.00      74.70       1.76       0.12       2.05       ----

> <Gold.Chemscore.Fitness>
13.9278

> <Gold.Chemscore.DG>
-16.0928

> <Gold.Chemscore.ZeroCoef>
-5.4800

> <Gold.Chemscore.Hbond>
1.9081

> <Gold.Chemscore.Metal>
0.0000

> <Gold.Chemscore.Lipo>
74.6967

> <Gold.Chemscore.Internal_Hbond>
0.0000

> <Gold.Chemscore.DEClash>
0.1179

> <Gold.Chemscore.DEInternal>
2.0471

> <Gold.Chemscore.Rot>
1.7577

> <Gold.Chemscore.Internal.Correction>
   9.000000E+99

> <Gold.Chemscore.Hbonds>
donor molecule, donor type, donor heavy atom, donor atom, acceptor molecule, acceptor atom, score
      P1  H  7997  8009       L1     9  1.00
      P1  H 10752 10763       L1    19  0.60

> <Gold.Chemscore.Hbond.Weighted>
-6.3731

> <Gold.Chemscore.Metal.Weighted>
-0.0000

> <Gold.Chemscore.Lipo.Weighted>
-8.7395

> <Gold.Chemscore.Internal_Hbond.Weighted>
0.0000

> <Gold.Chemscore.DEClash.Weighted>
0.1179

> <Gold.Chemscore.DEInternal.Weighted>
2.0471

> <Gold.Chemscore.Rot.Weighted>
4.4998

> <Gold.Chemscore.Internal.Correction.Weighted>
   9.000000E+99

> <Gold.Protein.RotatedTorsions>
[ 6907 6896 6895 6894 ] final  151.83 input  -60.11 | X-H torsion
[ 7974 7965 7964 7962 ] final   80.76 input  175.53 | X-H torsion
[ 8008 7997 7996 7995 ] final -165.47 input   59.86 | X-H torsion
[ 10167 10162 10161 10158 ] final   73.93 input  -65.29 | X-H torsion
[ 10718 10713 10712 10709 ] final  128.65 input   66.30 | X-H torsion
[ 10763 10752 10751 10750 ] final   62.17 input  -60.55 | X-H torsion
[ 11005 11000 10999 10996 ] final  159.27 input  -57.11 | X-H torsion

> <Gold.Protein.ActiveResidues>
 VAL166  LYS551  ARG553  GLY616  TRP617  ASP618  TYR619  PRO620  LYS621  CYS622 
 ASP623  PHE694  ASN695  SER759  ASP760  ASP761  ALA762  ILE779  LEU786  VAL792 
 PHE793  MET794  SER795  GLU796  ALA797  LYS798  CYS799  TRP800  GLU811  SER814 

> <Gold.Protein.RotatedAtoms>
  152.0952  133.4221  159.4561 H   0  0  0  0  0  0  0  0  0  0  0  0  # atno 6907 bound_to 6896
  150.6863  134.2825  159.4642 H   0  0  0  0  0  0  0  0  0  0  0  0  # atno 6908 bound_to 6896
  152.0680  134.9551  160.0625 H   0  0  0  0  0  0  0  0  0  0  0  0  # atno 6909 bound_to 6896
  145.6470  139.2438  143.1998 H   0  0  0  0  0  0  0  0  0  0  0  0  # atno 7974 bound_to 7965
  155.8502  140.0962  157.1679 H   0  0  0  0  0  0  0  0  0  0  0  0  # atno 8008 bound_to 7997
  154.3985  140.1384  156.3897 H   0  0  0  0  0  0  0  0  0  0  0  0  # atno 8009 bound_to 7997
  155.7969  140.3454  155.5383 H   0  0  0  0  0  0  0  0  0  0  0  0  # atno 8010 bound_to 7997
  140.0191  144.5554  150.7596 H   0  0  0  0  0  0  0  0  0  0  0  0  # atno 10167 bound_to 10162
  157.5225  131.1098  150.9132 H   0  0  0  0  0  0  0  0  0  0  0  0  # atno 10718 bound_to 10713
  152.9974  135.5474  154.6150 H   0  0  0  0  0  0  0  0  0  0  0  0  # atno 10763 bound_to 10752
  154.5462  135.2823  155.1052 H   0  0  0  0  0  0  0  0  0  0  0  0  # atno 10764 bound_to 10752
  154.2310  135.6433  153.5228 H   0  0  0  0  0  0  0  0  0  0  0  0  # atno 10765 bound_to 10752
  140.1946  134.8382  157.2950 H   0  0  0  0  0  0  0  0  0  0  0  0  # atno 11005 bound_to 11000
  146.1234  140.7279  142.9446 LP  0  0  0  0  0  0  0  0  0  0  0  0  # atno 17320 bound_to 7965
  144.7136  140.4130  143.7061 LP  0  0  0  0  0  0  0  0  0  0  0  0  # atno 17321 bound_to 7965
  140.7350  143.2735  151.3813 LP  0  0  0  0  0  0  0  0  0  0  0  0  # atno 17342 bound_to 10162
  139.6152  144.1018  152.2338 LP  0  0  0  0  0  0  0  0  0  0  0  0  # atno 17343 bound_to 10162
  156.9738  130.5501  149.5292 LP  0  0  0  0  0  0  0  0  0  0  0  0  # atno 17370 bound_to 10713
  156.0364  130.5451  150.8663 LP  0  0  0  0  0  0  0  0  0  0  0  0  # atno 17371 bound_to 10713
  140.2122  134.4125  155.7607 LP  0  0  0  0  0  0  0  0  0  0  0  0  # atno 17394 bound_to 11000
  141.2227  133.7124  156.8355 LP  0  0  0  0  0  0  0  0  0  0  0  0  # atno 17395 bound_to 11000

$$$$
