AV-unprocessed.smi:39|AV-procd|sdf|353|dock4
  -GOLD-   2262016193D 1   1.00000     0.00000
 Structure written by MMmdl.
 32 33  0  0  0  0  0  0  0  0  3 V2000
  147.0890  141.4562  152.4650 C   0  0  0  0  0  0  0  0  0  0  0  0
  147.5177  141.5404  153.9206 C   0  0  0  0  0  0  0  0  0  0  0  0
  148.7166  141.0735  154.3550 C   0  0  0  0  0  0  0  0  0  0  0  0
  149.1342  141.1358  155.6775 N   0  0  0  0  0  0  0  0  0  0  0  0
  150.4734  140.5912  156.1157 C   0  0  1  0  0  0  0  0  0  0  0  0
  150.2972  139.3321  156.9596 C   0  0  0  0  0  0  0  0  0  0  0  0
  151.5797  138.5941  156.6324 C   0  0  1  0  0  0  0  0  0  0  0  0
  151.5207  137.1608  156.9350 N   0  0  0  0  0  0  0  0  0  0  0  0
  151.1200  136.8488  158.0641 N   0  3  0  0  0  0  0  0  0  0  0  0
  150.6362  136.5980  159.0632 N   0  5  0  0  0  0  0  0  0  0  0  0
  151.7703  138.9239  155.1398 C   0  0  1  0  0  0  0  0  0  0  0  0
  151.0512  137.9969  154.1358 C   0  0  0  0  0  0  0  0  0  0  0  0
  151.8608  136.8894  153.7991 O   0  0  0  0  0  0  0  0  0  0  0  0
  151.2287  140.2392  154.9925 O   0  0  0  0  0  0  0  0  0  0  0  0
  148.2711  141.6824  156.6492 C   0  0  0  0  0  0  0  0  0  0  0  0
  148.5593  141.7379  157.8442 O   0  0  0  0  0  0  0  0  0  0  0  0
  147.0423  142.1666  156.2037 N   0  0  0  0  0  0  0  0  0  0  0  0
  146.5903  142.1435  154.8820 C   0  0  0  0  0  0  0  0  0  0  0  0
  145.4841  142.6075  154.6102 O   0  0  0  0  0  0  0  0  0  0  0  0
  151.0020  141.3935  156.6343 H   0  0  0  0  0  0  0  0  0  0  0  0
  152.3977  139.0647  157.1828 H   0  0  0  0  0  0  0  0  0  0  0  0
  152.8318  138.9677  154.8925 H   0  0  0  0  0  0  0  0  0  0  0  0
  146.4235  142.5640  156.8955 H   0  0  0  0  0  0  0  0  0  0  0  0
  147.8573  140.9970  151.8422 H   0  0  0  0  0  0  0  0  0  0  0  0
  146.8881  142.4518  152.0678 H   0  0  0  0  0  0  0  0  0  0  0  0
  146.1809  140.8598  152.3694 H   0  0  0  0  0  0  0  0  0  0  0  0
  149.3731  140.6259  153.6254 H   0  0  0  0  0  0  0  0  0  0  0  0
  150.1815  139.5774  158.0159 H   0  0  0  0  0  0  0  0  0  0  0  0
  149.4222  138.7750  156.6204 H   0  0  0  0  0  0  0  0  0  0  0  0
  150.0890  137.6564  154.5184 H   0  0  0  0  0  0  0  0  0  0  0  0
  150.8529  138.5384  153.2105 H   0  0  0  0  0  0  0  0  0  0  0  0
  151.5415  136.5181  152.9910 H   0  0  0  0  0  0  0  0  0  0  0  0
  1  2  1  0  0  0  0
  1 24  1  0  0  0  0
  1 25  1  0  0  0  0
  1 26  1  0  0  0  0
  2 18  1  0  0  0  0
  2  3  2  0  0  0  0
  3  4  1  0  0  0  0
  3 27  1  0  0  0  0
  4  5  1  0  0  0  0
  4 15  1  0  0  0  0
  5 20  1  0  0  0  0
  5 14  1  0  0  0  0
  5  6  1  0  0  0  0
  6  7  1  0  0  0  0
  6 28  1  0  0  0  0
  6 29  1  0  0  0  0
  7 21  1  0  0  0  0
  7  8  1  0  0  0  0
  7 11  1  0  0  0  0
  8  9  2  0  0  0  0
  9 10  2  0  0  0  0
 11 22  1  0  0  0  0
 11 12  1  0  0  0  0
 11 14  1  0  0  0  0
 12 13  1  0  0  0  0
 12 30  1  0  0  0  0
 12 31  1  0  0  0  0
 13 32  1  0  0  0  0
 15 16  2  0  0  0  0
 15 17  1  0  0  0  0
 17 23  1  0  0  0  0
 17 18  1  0  0  0  0
 18 19  2  0  0  0  0
M  CHG  1   9   1
M  CHG  1  10  -1
M  END
> <s_m_source_file>
AV-unprocessed.smi

> <i_m_source_file_index>
39

> <i_lp_mmshare_version>
43012

> <i_f3d_flags>
0

> <s_epik_input>
Tz1jMVtuSF1jKD1PKW4oW2NIXWMxW0NIM10pW0NASF0yW0NIMl1bQ0BIXShOPVtOK109W04tXSlbQ0BIXShPMilbQ0gyXVtPSF0=

> <s_epik_cmdline>
J2VwaWtfcHl0aG9uJywgJy1waCcsICc3LjAnLCAnLXRuJywgJzgnLCAnLW1hJywgJzIwMCcsICctbWV0YWxfYmluZGluZycsICctaW1hZScsICc8aW5maWxlLm1hZT4nLCAnLW9tYWUnLCAnPG91dGZpbGUubWFlPic=

> <r_lp_tautomer_probability>
0.999537

> <r_epik_Ionization_Penalty>
0.00127512

> <r_epik_Ionization_Penalty_Charging>
0.00127507

> <r_epik_Ionization_Penalty_Neutral>
5.43433e-08

> <r_epik_State_Penalty>
0.000844892

> <r_epik_Charging_Adjusted_Penalty>
0.00211996

> <i_epik_Tot_Q>
0

> <i_epik_Tot_abs_Q>
2

> <r_epik_Metal_State_Penalty>
0.680636

> <b_epik_Metal_Only>
0

> <s_epik_Chemistry_Notes>
This compound contains an acetal/aminal-like group ( X-CH(R)-Y where X, Y are N, S, or O) that may be acid/base labile, releasing an aldehyde.

> <s_lp_Force_Field>
OPLS_2005

> <r_lp_Energy>
27.4259

> <b_lp_Chiralities_Consistent>
1

> <s_lp_Variant>
AV-unprocessed.smi:39-3

> <Gold.Version>
5.8.1

> <Gold.Id.Protein>
6NUR|6NUR_protein|mol2

> <Gold.PLP.Fitness>
40.3833

> <Gold.PLP.PLP>
-26.5294

> <Gold.PLP.part.hbond>
-4.6776

> <Gold.PLP.part.metal>
0.0000

> <Gold.PLP.part.buried>
-5.6148

> <Gold.PLP.part.nonpolar>
-16.6476

> <Gold.PLP.part.repulsive>
0.3662

> <Gold.PLP.ligand.clash>
0.0000

> <Gold.PLP.ligand.torsion>
0.5780

> <Gold.PLP.Chemscore.Hbond>
4.0000

> <Gold.PLP.Chemscore.CHOScore>
0.9979

> <Gold.PLP.Chemscore.Metal>
0.0000

> <Gold.Chemscore.Hbonds>
donor molecule, donor type, donor heavy atom, donor atom, acceptor molecule, acceptor atom, score
      L1  H    13    32       P1  7949  1.00
      P1  H  6896  6907       L1    10  1.00
      P1  H  7989  7998       L1    14  1.00
      P1  H 10752 10763       L1    13  1.00
      L1  C     3    27       P1  7957  0.97

> <Gold.PLP.Chemscore.Internal.Correction>
0.0161

> <Gold.Rescore>
     Score         DG    S(hbond)    S(metal)    S(lipo)     H(rot)  DE(clash)    DE(int)     intcor
     13.98     -15.01       3.34        0.00      46.38       2.75       0.18       0.85       ----

> <Gold.Chemscore.Fitness>
13.9833

> <Gold.Chemscore.DG>
-15.0056

> <Gold.Chemscore.ZeroCoef>
-5.4800

> <Gold.Chemscore.Hbond>
3.3369

> <Gold.Chemscore.Metal>
0.0000

> <Gold.Chemscore.Lipo>
46.3789

> <Gold.Chemscore.Internal_Hbond>
0.0000

> <Gold.Chemscore.DEClash>
0.1763

> <Gold.Chemscore.DEInternal>
0.8459

> <Gold.Chemscore.Rot>
2.7524

> <Gold.Chemscore.Internal.Correction>
   9.000000E+99

> <Gold.Chemscore.Hbonds>
donor molecule, donor type, donor heavy atom, donor atom, acceptor molecule, acceptor atom, score
      L1  H    13    32       P1  7949  0.94
      P1  H  6896  6907       L1    10  0.93
      P1  H  7989  7998       L1    14  0.73
      P1  H 10752 10763       L1    13  0.29

> <Gold.Chemscore.Hbond.Weighted>
-11.1454

> <Gold.Chemscore.Metal.Weighted>
-0.0000

> <Gold.Chemscore.Lipo.Weighted>
-5.4263

> <Gold.Chemscore.Internal_Hbond.Weighted>
0.0000

> <Gold.Chemscore.DEClash.Weighted>
0.1763

> <Gold.Chemscore.DEInternal.Weighted>
0.8459

> <Gold.Chemscore.Rot.Weighted>
7.0461

> <Gold.Chemscore.Internal.Correction.Weighted>
   9.000000E+99

> <Gold.Protein.RotatedTorsions>
[ 6907 6896 6895 6894 ] final  -39.98 input  -60.11 | X-H torsion
[ 7974 7965 7964 7962 ] final -155.61 input  175.53 | X-H torsion
[ 8008 7997 7996 7995 ] final -165.01 input   59.86 | X-H torsion
[ 10167 10162 10161 10158 ] final -166.01 input  -65.29 | X-H torsion
[ 10718 10713 10712 10709 ] final -154.04 input   66.30 | X-H torsion
[ 10763 10752 10751 10750 ] final   45.94 input  -60.55 | X-H torsion
[ 11005 11000 10999 10996 ] final  -15.83 input  -57.11 | X-H torsion

> <Gold.Protein.ActiveResidues>
 VAL166  LYS551  ARG553  GLY616  TRP617  ASP618  TYR619  PRO620  LYS621  CYS622 
 ASP623  PHE694  ASN695  SER759  ASP760  ASP761  ALA762  ILE779  LEU786  VAL792 
 PHE793  MET794  SER795  GLU796  ALA797  LYS798  CYS799  TRP800  GLU811  SER814 

> <Gold.Protein.RotatedAtoms>
  150.9839  134.9188  159.7859 H   0  0  0  0  0  0  0  0  0  0  0  0  # atno 6907 bound_to 6896
  152.5230  134.3373  159.9214 H   0  0  0  0  0  0  0  0  0  0  0  0  # atno 6908 bound_to 6896
  151.3380  133.3933  159.2703 H   0  0  0  0  0  0  0  0  0  0  0  0  # atno 6909 bound_to 6896
  144.7632  140.4225  143.5961 H   0  0  0  0  0  0  0  0  0  0  0  0  # atno 7974 bound_to 7965
  155.8437  140.0952  157.1718 H   0  0  0  0  0  0  0  0  0  0  0  0  # atno 8008 bound_to 7997
  154.3983  140.1396  156.3821 H   0  0  0  0  0  0  0  0  0  0  0  0  # atno 8009 bound_to 7997
  155.8036  140.3452  155.5419 H   0  0  0  0  0  0  0  0  0  0  0  0  # atno 8010 bound_to 7997
  139.6143  144.0751  152.1873 H   0  0  0  0  0  0  0  0  0  0  0  0  # atno 10167 bound_to 10162
  156.4939  130.8360  151.2582 H   0  0  0  0  0  0  0  0  0  0  0  0  # atno 10718 bound_to 10713
  152.9817  135.6024  154.3518 H   0  0  0  0  0  0  0  0  0  0  0  0  # atno 10763 bound_to 10752
  154.3207  135.2770  155.2523 H   0  0  0  0  0  0  0  0  0  0  0  0  # atno 10764 bound_to 10752
  154.4691  135.5946  153.6364 H   0  0  0  0  0  0  0  0  0  0  0  0  # atno 10765 bound_to 10752
  140.8006  133.8217  155.9466 H   0  0  0  0  0  0  0  0  0  0  0  0  # atno 11005 bound_to 11000
  145.6553  139.1572  143.2839 LP  0  0  0  0  0  0  0  0  0  0  0  0  # atno 17320 bound_to 7965
  146.1715  140.6638  142.9231 LP  0  0  0  0  0  0  0  0  0  0  0  0  # atno 17321 bound_to 7965
  140.0377  144.6031  150.7436 LP  0  0  0  0  0  0  0  0  0  0  0  0  # atno 17342 bound_to 10162
  140.7340  143.2724  151.3846 LP  0  0  0  0  0  0  0  0  0  0  0  0  # atno 17343 bound_to 10162
  157.7470  131.0004  150.2925 LP  0  0  0  0  0  0  0  0  0  0  0  0  # atno 17370 bound_to 10713
  156.3399  130.3813  149.7418 LP  0  0  0  0  0  0  0  0  0  0  0  0  # atno 17371 bound_to 10713
  140.9298  134.2036  157.4871 LP  0  0  0  0  0  0  0  0  0  0  0  0  # atno 17394 bound_to 11000
  139.8722  134.9828  156.5171 LP  0  0  0  0  0  0  0  0  0  0  0  0  # atno 17395 bound_to 11000

$$$$
