AV-unprocessed.smi:532|AV-procd|sdf|2852|dock7
  -GOLD-   2262023343D 1   1.00000     0.00000
 Structure written by MMmdl.
 48 50  0  0  0  0  0  0  0  0  2 V2000
  147.7264  141.1021  153.5363 C   0  0  0  0  0  0  0  0  0  0  0  0
  148.8778  141.7451  154.0531 O   0  0  0  0  0  0  0  0  0  0  0  0
  149.2036  141.3026  155.3595 C   0  0  0  0  0  0  0  0  0  0  0  0
  150.4402  142.0658  155.8472 C   0  0  0  0  0  0  0  0  0  0  0  0
  151.1986  141.2863  156.8190 N   0  0  0  0  0  0  0  0  0  0  0  0
  151.5735  141.6385  158.0799 C   0  0  0  0  0  0  0  0  0  0  0  0
  151.2364  142.8661  158.6597 N   0  0  0  0  0  0  0  0  0  0  0  0
  149.8544  143.3477  158.6784 C   0  0  0  0  0  0  0  0  0  0  0  0
  149.4991  144.0807  159.9843 C   0  0  2  0  0  0  0  0  0  0  0  0
  148.0299  144.5239  159.9942 C   0  0  0  0  0  0  0  0  0  0  0  0
  150.4468  145.2738  160.1810 C   0  0  0  0  0  0  0  0  0  0  0  0
  151.9169  144.8312  160.0923 C   0  0  1  0  0  0  0  0  0  0  0  0
  152.3950  144.1292  161.3744 C   0  0  0  0  0  0  0  0  0  0  0  0
  152.1532  144.0017  158.8078 C   0  0  0  0  0  0  0  0  0  0  0  0
  152.3236  140.7284  158.7061 N   0  0  0  0  0  0  0  0  0  0  0  0
  152.4239  139.7066  157.7757 C   0  0  0  0  0  0  0  0  0  0  0  0
  151.7663  140.0215  156.6283 C   0  0  0  0  0  0  0  0  0  0  0  0
  151.7320  139.1460  155.4350 C   0  0  0  0  0  0  0  0  0  0  0  0
  151.1524  139.4923  154.4079 O   0  0  0  0  0  0  0  0  0  0  0  0
  152.4079  137.9707  155.6361 N   0  5  0  0  0  0  0  0  0  0  0  0
  153.0779  137.6076  156.7848 C   0  0  0  0  0  0  0  0  0  0  0  0
  153.6626  136.5279  156.8825 O   0  0  0  0  0  0  0  0  0  0  0  0
  153.1039  138.4610  157.8561 N   0  0  0  0  0  0  0  0  0  0  0  0
  153.8186  138.1067  159.0857 C   0  0  0  0  0  0  0  0  0  0  0  0
  147.5143  141.4796  152.5361 H   0  0  0  0  0  0  0  0  0  0  0  0
  146.8532  141.2936  154.1613 H   0  0  0  0  0  0  0  0  0  0  0  0
  147.8766  140.0241  153.4642 H   0  0  0  0  0  0  0  0  0  0  0  0
  148.3638  141.4717  156.0351 H   0  0  0  0  0  0  0  0  0  0  0  0
  149.4065  140.2303  155.3489 H   0  0  0  0  0  0  0  0  0  0  0  0
  151.0731  142.3218  155.0063 H   0  0  0  0  0  0  0  0  0  0  0  0
  150.1599  143.0235  156.2826 H   0  0  0  0  0  0  0  0  0  0  0  0
  149.6922  143.9995  157.8187 H   0  0  0  0  0  0  0  0  0  0  0  0
  149.1815  142.4985  158.5521 H   0  0  0  0  0  0  0  0  0  0  0  0
  149.6346  143.3848  160.8130 H   0  0  0  0  0  0  0  0  0  0  0  0
  147.8209  145.2227  159.1836 H   0  0  0  0  0  0  0  0  0  0  0  0
  147.7747  145.0159  160.9332 H   0  0  0  0  0  0  0  0  0  0  0  0
  147.3622  143.6700  159.8778 H   0  0  0  0  0  0  0  0  0  0  0  0
  150.2531  146.0176  159.4066 H   0  0  0  0  0  0  0  0  0  0  0  0
  150.2521  145.7673  161.1339 H   0  0  0  0  0  0  0  0  0  0  0  0
  152.5191  145.7362  160.0048 H   0  0  0  0  0  0  0  0  0  0  0  0
  151.8714  143.1889  161.5422 H   0  0  0  0  0  0  0  0  0  0  0  0
  152.2290  144.7581  162.2493 H   0  0  0  0  0  0  0  0  0  0  0  0
  153.4629  143.9158  161.3296 H   0  0  0  0  0  0  0  0  0  0  0  0
  153.1897  143.6724  158.7483 H   0  0  0  0  0  0  0  0  0  0  0  0
  152.0125  144.6486  157.9408 H   0  0  0  0  0  0  0  0  0  0  0  0
  153.4101  137.1908  159.5147 H   0  0  0  0  0  0  0  0  0  0  0  0
  153.7526  138.8811  159.8494 H   0  0  0  0  0  0  0  0  0  0  0  0
  154.8771  137.9441  158.8781 H   0  0  0  0  0  0  0  0  0  0  0  0
  1  2  1  0  0  0  0
  1 25  1  0  0  0  0
  1 26  1  0  0  0  0
  1 27  1  0  0  0  0
  2  3  1  0  0  0  0
  3  4  1  0  0  0  0
  3 28  1  0  0  0  0
  3 29  1  0  0  0  0
  4  5  1  0  0  0  0
  4 30  1  0  0  0  0
  4 31  1  0  0  0  0
  5 17  1  0  0  0  0
  5  6  1  0  0  0  0
  6  7  1  0  0  0  0
  6 15  2  0  0  0  0
  7 14  1  0  0  0  0
  7  8  1  0  0  0  0
  8  9  1  0  0  0  0
  8 32  1  0  0  0  0
  8 33  1  0  0  0  0
  9 10  1  0  0  0  0
  9 11  1  0  0  0  0
  9 34  1  0  0  0  0
 10 35  1  0  0  0  0
 10 36  1  0  0  0  0
 10 37  1  0  0  0  0
 11 12  1  0  0  0  0
 11 38  1  0  0  0  0
 11 39  1  0  0  0  0
 12 13  1  0  0  0  0
 12 14  1  0  0  0  0
 12 40  1  0  0  0  0
 13 41  1  0  0  0  0
 13 42  1  0  0  0  0
 13 43  1  0  0  0  0
 14 44  1  0  0  0  0
 14 45  1  0  0  0  0
 15 16  1  0  0  0  0
 16 23  1  0  0  0  0
 16 17  2  0  0  0  0
 17 18  1  0  0  0  0
 18 19  2  0  0  0  0
 18 20  1  0  0  0  0
 20 21  1  0  0  0  0
 21 22  2  0  0  0  0
 21 23  1  0  0  0  0
 23 24  1  0  0  0  0
 24 46  1  0  0  0  0
 24 47  1  0  0  0  0
 24 48  1  0  0  0  0
M  CHG  1  20  -1
M  END
> <s_m_source_file>
AV-unprocessed.smi

> <i_m_source_file_index>
532

> <i_lp_mmshare_version>
43012

> <i_f3d_flags>
0

> <s_epik_input>
W0NIM11uMWMoPU8pW25IXWMoPU8pYyhjMTIpbihbQ0gyXVtDSDJdT1tDSDNdKWMobjIpTjNbQ0gyXVtDQEBIXShbQ0gzXSlbQ0gyXVtDQEBIXShbQ0gzXSlbQ0gyXTM=

> <s_epik_cmdline>
J2VwaWtfcHl0aG9uJywgJy1waCcsICc3LjAnLCAnLXRuJywgJzgnLCAnLW1hJywgJzIwMCcsICctbWV0YWxfYmluZGluZycsICctaW1hZScsICc8aW5maWxlLm1hZT4nLCAnLW9tYWUnLCAnPG91dGZpbGUubWFlPic=

> <r_lp_tautomer_probability>
1

> <r_epik_Ionization_Penalty>
5.12128

> <r_epik_Ionization_Penalty_Charging>
0.0789629

> <r_epik_Ionization_Penalty_Neutral>
5.04232

> <r_epik_State_Penalty>
5.03111

> <r_epik_Charging_Adjusted_Penalty>
5.11007

> <i_epik_Tot_Q>
-1

> <i_epik_Tot_abs_Q>
1

> <r_epik_Metal_State_Penalty>
1.14201

> <b_epik_Metal_Only>
1

> <s_lp_Force_Field>
OPLS_2005

> <r_lp_Energy>
45.9264

> <b_lp_Chiralities_Consistent>
1

> <s_lp_Variant>
AV-unprocessed.smi:532-5

> <Gold.Version>
5.8.1

> <Gold.Id.Protein>
6NUR|6NUR_protein|mol2

> <Gold.PLP.Fitness>
47.5179

> <Gold.PLP.PLP>
-42.1461

> <Gold.PLP.part.hbond>
-3.0000

> <Gold.PLP.part.metal>
0.0000

> <Gold.PLP.part.buried>
-3.3952

> <Gold.PLP.part.nonpolar>
-35.3113

> <Gold.PLP.part.repulsive>
0.3361

> <Gold.PLP.ligand.clash>
0.0000

> <Gold.PLP.ligand.torsion>
1.3266

> <Gold.PLP.Chemscore.Hbond>
2.5280

> <Gold.PLP.Chemscore.CHOScore>
0.0000

> <Gold.PLP.Chemscore.Metal>
0.0000

> <Gold.Chemscore.Hbonds>
donor molecule, donor type, donor heavy atom, donor atom, acceptor molecule, acceptor atom, score
      P1  H  7989  7998       L1    19  1.00
      P1  H  8011  8017       L1     2  0.51
      P1  H 10752 10763       L1    22  0.99

> <Gold.PLP.Chemscore.Internal.Correction>
0.4410

> <Gold.Rescore>
     Score         DG    S(hbond)    S(metal)    S(lipo)     H(rot)  DE(clash)    DE(int)     intcor
     16.93     -20.24       2.26        0.00      92.45       1.41       0.57       2.74       ----

> <Gold.Chemscore.Fitness>
16.9278

> <Gold.Chemscore.DG>
-20.2382

> <Gold.Chemscore.ZeroCoef>
-5.4800

> <Gold.Chemscore.Hbond>
2.2643

> <Gold.Chemscore.Metal>
0.0000

> <Gold.Chemscore.Lipo>
92.4535

> <Gold.Chemscore.Internal_Hbond>
0.0000

> <Gold.Chemscore.DEClash>
0.5709

> <Gold.Chemscore.DEInternal>
2.7395

> <Gold.Chemscore.Rot>
1.4147

> <Gold.Chemscore.Internal.Correction>
   9.000000E+99

> <Gold.Chemscore.Hbonds>
donor molecule, donor type, donor heavy atom, donor atom, acceptor molecule, acceptor atom, score
      P1  H  7989  7998       L1    19  0.99
      P1  H  8011  8017       L1     2  0.17
      P1  H 10752 10763       L1    22  0.89

> <Gold.Chemscore.Hbond.Weighted>
-7.5627

> <Gold.Chemscore.Metal.Weighted>
-0.0000

> <Gold.Chemscore.Lipo.Weighted>
-10.8171

> <Gold.Chemscore.Internal_Hbond.Weighted>
0.0000

> <Gold.Chemscore.DEClash.Weighted>
0.5709

> <Gold.Chemscore.DEInternal.Weighted>
2.7395

> <Gold.Chemscore.Rot.Weighted>
3.6216

> <Gold.Chemscore.Internal.Correction.Weighted>
   9.000000E+99

> <Gold.Protein.RotatedTorsions>
[ 6907 6896 6895 6894 ] final  -44.70 input  -60.11 | X-H torsion
[ 7974 7965 7964 7962 ] final   36.49 input  175.53 | X-H torsion
[ 8008 7997 7996 7995 ] final   26.65 input   59.86 | X-H torsion
[ 10167 10162 10161 10158 ] final  145.38 input  -65.29 | X-H torsion
[ 10718 10713 10712 10709 ] final  167.02 input   66.30 | X-H torsion
[ 10763 10752 10751 10750 ] final  123.22 input  -60.55 | X-H torsion
[ 11005 11000 10999 10996 ] final  -27.63 input  -57.11 | X-H torsion

> <Gold.Protein.ActiveResidues>
 VAL166  LYS551  ARG553  GLY616  TRP617  ASP618  TYR619  PRO620  LYS621  CYS622 
 ASP623  PHE694  ASN695  SER759  ASP760  ASP761  ALA762  ILE779  LEU786  VAL792 
 PHE793  MET794  SER795  GLU796  ALA797  LYS798  CYS799  TRP800  GLU811  SER814 

> <Gold.Protein.RotatedAtoms>
  150.9300  134.8715  159.7544 H   0  0  0  0  0  0  0  0  0  0  0  0  # atno 6907 bound_to 6896
  152.5033  134.4093  159.9453 H   0  0  0  0  0  0  0  0  0  0  0  0  # atno 6908 bound_to 6896
  151.4121  133.3684  159.2780 H   0  0  0  0  0  0  0  0  0  0  0  0  # atno 6909 bound_to 6896
  146.1207  139.6011  142.9291 H   0  0  0  0  0  0  0  0  0  0  0  0  # atno 7974 bound_to 7965
  155.0305  140.3158  155.4760 H   0  0  0  0  0  0  0  0  0  0  0  0  # atno 8008 bound_to 7997
  156.2875  140.2181  156.5369 H   0  0  0  0  0  0  0  0  0  0  0  0  # atno 8009 bound_to 7997
  154.7374  140.0476  157.0769 H   0  0  0  0  0  0  0  0  0  0  0  0  # atno 8010 bound_to 7997
  139.4927  144.5906  151.6689 H   0  0  0  0  0  0  0  0  0  0  0  0  # atno 10167 bound_to 10162
  157.0575  131.0331  151.2659 H   0  0  0  0  0  0  0  0  0  0  0  0  # atno 10718 bound_to 10713
  153.6421  135.3377  155.3074 H   0  0  0  0  0  0  0  0  0  0  0  0  # atno 10763 bound_to 10752
  154.8557  135.4320  154.1994 H   0  0  0  0  0  0  0  0  0  0  0  0  # atno 10764 bound_to 10752
  153.2915  135.7017  153.7362 H   0  0  0  0  0  0  0  0  0  0  0  0  # atno 10765 bound_to 10752
  140.9137  133.7444  156.0705 H   0  0  0  0  0  0  0  0  0  0  0  0  # atno 11005 bound_to 11000
  145.5471  141.0416  143.2299 LP  0  0  0  0  0  0  0  0  0  0  0  0  # atno 17320 bound_to 7965
  144.7595  139.6992  143.7240 LP  0  0  0  0  0  0  0  0  0  0  0  0  # atno 17321 bound_to 7965
  140.5532  144.0391  150.6136 LP  0  0  0  0  0  0  0  0  0  0  0  0  # atno 17342 bound_to 10162
  140.3452  143.2995  152.0545 LP  0  0  0  0  0  0  0  0  0  0  0  0  # atno 17343 bound_to 10162
  157.4981  130.7863  149.7576 LP  0  0  0  0  0  0  0  0  0  0  0  0  # atno 17370 bound_to 10713
  155.9988  130.3892  150.2686 LP  0  0  0  0  0  0  0  0  0  0  0  0  # atno 17371 bound_to 10713
  140.8078  134.3435  157.5421 LP  0  0  0  0  0  0  0  0  0  0  0  0  # atno 17394 bound_to 11000
  139.8762  134.9236  156.3329 LP  0  0  0  0  0  0  0  0  0  0  0  0  # atno 17395 bound_to 11000

$$$$
