AV-unprocessed.smi:1125|AV-procd|sdf|4834|dock2
  -GOLD-   22720 3393D 1   1.00000     0.00000
 Structure written by MMmdl.
 46 47  0  0  0  0  0  0  0  0  2 V2000
  154.8824  142.4371  164.6676 C   0  0  0  0  0  0  0  0  0  0  0  0
  153.9650  142.2834  163.5181 N   0  3  2  0  0  0  0  0  0  0  0  0
  154.5296  141.4105  162.4585 C   0  0  0  0  0  0  0  0  0  0  0  0
  153.5077  141.1726  161.3336 C   0  0  0  0  0  0  0  0  0  0  0  0
  153.0190  142.5040  160.7402 C   0  0  1  0  0  0  0  0  0  0  0  0
  152.0049  142.2511  159.7220 N   0  0  0  0  0  0  0  0  0  0  0  0
  151.5290  143.1638  158.8597 C   0  0  0  0  0  0  0  0  0  0  0  0
  151.8703  144.3463  158.8680 O   0  0  0  0  0  0  0  0  0  0  0  0
  150.5136  142.6670  157.8294 C   0  0  0  0  0  0  0  0  0  0  0  0
  150.8785  141.2850  157.3703 C   0  0  0  0  0  0  0  0  0  0  0  0
  151.2312  140.9046  156.1001 C   0  0  0  0  0  0  0  0  0  0  0  0
  151.6002  139.2060  156.0114 S   0  0  0  0  0  0  0  0  0  0  0  0
  151.2526  139.0598  157.7382 C   0  0  0  0  0  0  0  0  0  0  0  0
  151.3339  137.7784  158.5325 C   0  0  0  0  0  0  0  0  0  0  0  0
  151.8067  136.6280  157.6222 C   0  0  0  0  0  0  0  0  0  0  0  0
  149.9543  137.3822  159.1015 C   0  0  0  0  0  0  0  0  0  0  0  0
  152.2964  137.9618  159.7214 C   0  0  0  0  0  0  0  0  0  0  0  0
  150.8868  140.2259  158.2833 N   0  0  0  0  0  0  0  0  0  0  0  0
  152.4665  143.3971  161.8667 C   0  0  0  0  0  0  0  0  0  0  0  0
  153.5101  143.5895  162.9798 C   0  0  0  0  0  0  0  0  0  0  0  0
  155.8048  142.9364  164.3682 H   0  0  0  0  0  0  0  0  0  0  0  0
  155.1404  141.4642  165.0874 H   0  0  0  0  0  0  0  0  0  0  0  0
  154.4153  143.0261  165.4578 H   0  0  0  0  0  0  0  0  0  0  0  0
  155.4341  141.8667  162.0526 H   0  0  0  0  0  0  0  0  0  0  0  0
  154.8238  140.4538  162.8914 H   0  0  0  0  0  0  0  0  0  0  0  0
  153.9559  140.5561  160.5532 H   0  0  0  0  0  0  0  0  0  0  0  0
  152.6617  140.6063  161.7263 H   0  0  0  0  0  0  0  0  0  0  0  0
  153.8703  143.0033  160.2732 H   0  0  0  0  0  0  0  0  0  0  0  0
  151.6653  141.3036  159.6369 H   0  0  0  0  0  0  0  0  0  0  0  0
  149.5167  142.6835  158.2722 H   0  0  0  0  0  0  0  0  0  0  0  0
  150.4871  143.3558  156.9843 H   0  0  0  0  0  0  0  0  0  0  0  0
  151.3033  141.5207  155.2159 H   0  0  0  0  0  0  0  0  0  0  0  0
  151.8571  135.6845  158.1670 H   0  0  0  0  0  0  0  0  0  0  0  0
  152.8007  136.8207  157.2168 H   0  0  0  0  0  0  0  0  0  0  0  0
  151.1300  136.4860  156.7788 H   0  0  0  0  0  0  0  0  0  0  0  0
  149.2221  137.2254  158.3084 H   0  0  0  0  0  0  0  0  0  0  0  0
  149.5605  138.1458  159.7733 H   0  0  0  0  0  0  0  0  0  0  0  0
  150.0131  136.4545  159.6717 H   0  0  0  0  0  0  0  0  0  0  0  0
  152.3643  137.0549  160.3232 H   0  0  0  0  0  0  0  0  0  0  0  0
  151.9660  138.7683  160.3771 H   0  0  0  0  0  0  0  0  0  0  0  0
  153.3050  138.2043  159.3852 H   0  0  0  0  0  0  0  0  0  0  0  0
  152.1732  144.3696  161.4700 H   0  0  0  0  0  0  0  0  0  0  0  0
  151.5643  142.9503  162.2870 H   0  0  0  0  0  0  0  0  0  0  0  0
  153.0776  144.1862  163.7839 H   0  0  0  0  0  0  0  0  0  0  0  0
  154.3675  144.1459  162.5977 H   0  0  0  0  0  0  0  0  0  0  0  0
  153.1421  141.8149  163.8697 H   0  0  0  0  0  0  0  0  0  0  0  0
  1  2  1  0  0  0  0
  1 21  1  0  0  0  0
  1 22  1  0  0  0  0
  1 23  1  0  0  0  0
  2 20  1  0  0  0  0
  2  3  1  0  0  0  0
  2 46  1  0  0  0  0
  3  4  1  0  0  0  0
  3 24  1  0  0  0  0
  3 25  1  0  0  0  0
  4  5  1  0  0  0  0
  4 26  1  0  0  0  0
  4 27  1  0  0  0  0
  5  6  1  0  0  0  0
  5 19  1  0  0  0  0
  5 28  1  0  0  0  0
  6  7  1  0  0  0  0
  6 29  1  0  0  0  0
  7  8  2  0  0  0  0
  7  9  1  0  0  0  0
  9 10  1  0  0  0  0
  9 30  1  0  0  0  0
  9 31  1  0  0  0  0
 10 18  1  0  0  0  0
 10 11  2  0  0  0  0
 11 12  1  0  0  0  0
 11 32  1  0  0  0  0
 12 13  1  0  0  0  0
 13 14  1  0  0  0  0
 13 18  2  0  0  0  0
 14 15  1  0  0  0  0
 14 16  1  0  0  0  0
 14 17  1  0  0  0  0
 15 33  1  0  0  0  0
 15 34  1  0  0  0  0
 15 35  1  0  0  0  0
 16 36  1  0  0  0  0
 16 37  1  0  0  0  0
 16 38  1  0  0  0  0
 17 39  1  0  0  0  0
 17 40  1  0  0  0  0
 17 41  1  0  0  0  0
 19 20  1  0  0  0  0
 19 42  1  0  0  0  0
 19 43  1  0  0  0  0
 20 44  1  0  0  0  0
 20 45  1  0  0  0  0
M  CHG  1   2   1
M  END
> <s_m_source_file>
AV-unprocessed.smi

> <i_m_source_file_index>
1125

> <i_lp_mmshare_version>
43012

> <i_f3d_flags>
0

> <s_epik_input>
W0NIM11OMVtDSDJdW0NIMl1bQ0hdKFtDSDJdW0NIMl0xKVtOSF1DKD1PKVtDSDJdYzJbY0hdc2MobjIpQyhbQ0gzXSkoW0NIM10pW0NIM10=

> <s_epik_cmdline>
J2VwaWtfcHl0aG9uJywgJy1waCcsICc3LjAnLCAnLXRuJywgJzgnLCAnLW1hJywgJzIwMCcsICctbWV0YWxfYmluZGluZycsICctaW1hZScsICc8aW5maWxlLm1hZT4nLCAnLW9tYWUnLCAnPG91dGZpbGUubWFlPic=

> <r_epik_Ionization_Penalty>
0.00829478

> <r_epik_Ionization_Penalty_Charging>
0.0082618

> <r_epik_Ionization_Penalty_Neutral>
3.29858e-05

> <r_epik_State_Penalty>
0.00621662

> <r_epik_Charging_Adjusted_Penalty>
0.0144784

> <i_epik_Tot_Q>
1

> <i_epik_Tot_abs_Q>
1

> <r_epik_Metal_State_Penalty>
0.00621672

> <b_epik_Metal_Only>
0

> <s_lp_Force_Field>
OPLS_2005

> <r_lp_Energy>
7.4161

> <b_lp_Chiralities_Consistent>
1

> <s_lp_Variant>
AV-unprocessed.smi:1125-1

> <Gold.Version>
5.8.1

> <Gold.Id.Protein>
6NUR|6NUR_protein|mol2

> <Gold.PLP.Fitness>
35.6970

> <Gold.PLP.PLP>
-36.5979

> <Gold.PLP.part.hbond>
-0.3076

> <Gold.PLP.part.metal>
0.0000

> <Gold.PLP.part.buried>
-2.9125

> <Gold.PLP.part.nonpolar>
-32.8795

> <Gold.PLP.part.repulsive>
0.2200

> <Gold.PLP.ligand.clash>
0.0000

> <Gold.PLP.ligand.torsion>
0.4597

> <Gold.PLP.Chemscore.Hbond>
0.0000

> <Gold.PLP.Chemscore.CHOScore>
0.0000

> <Gold.PLP.Chemscore.Metal>
0.0000

> <Gold.PLP.Chemscore.Internal.Correction>
0.0185

> <Gold.Rescore>
     Score         DG    S(hbond)    S(metal)    S(lipo)     H(rot)  DE(clash)    DE(int)     intcor
     12.17     -15.26       0.00        0.00     114.27       1.40       1.19       1.90       ----

> <Gold.Chemscore.Fitness>
12.1722

> <Gold.Chemscore.DG>
-15.2582

> <Gold.Chemscore.ZeroCoef>
-5.4800

> <Gold.Chemscore.Hbond>
0.0000

> <Gold.Chemscore.Metal>
0.0000

> <Gold.Chemscore.Lipo>
114.2733

> <Gold.Chemscore.Internal_Hbond>
0.0000

> <Gold.Chemscore.DEClash>
1.1903

> <Gold.Chemscore.DEInternal>
1.8957

> <Gold.Chemscore.Rot>
1.4030

> <Gold.Chemscore.Internal.Correction>
   9.000000E+99

> <Gold.Chemscore.Hbond.Weighted>
-0.0000

> <Gold.Chemscore.Metal.Weighted>
-0.0000

> <Gold.Chemscore.Lipo.Weighted>
-13.3700

> <Gold.Chemscore.Internal_Hbond.Weighted>
0.0000

> <Gold.Chemscore.DEClash.Weighted>
1.1903

> <Gold.Chemscore.DEInternal.Weighted>
1.8957

> <Gold.Chemscore.Rot.Weighted>
3.5917

> <Gold.Chemscore.Internal.Correction.Weighted>
   9.000000E+99

> <Gold.Protein.RotatedTorsions>
[ 6907 6896 6895 6894 ] final  -88.04 input  -60.11 | X-H torsion
[ 7974 7965 7964 7962 ] final -111.56 input  175.53 | X-H torsion
[ 8008 7997 7996 7995 ] final  -61.08 input   59.86 | X-H torsion
[ 10167 10162 10161 10158 ] final  -83.42 input  -65.29 | X-H torsion
[ 10718 10713 10712 10709 ] final -178.14 input   66.30 | X-H torsion
[ 10763 10752 10751 10750 ] final  -67.14 input  -60.55 | X-H torsion
[ 11005 11000 10999 10996 ] final   25.55 input  -57.11 | X-H torsion

> <Gold.Protein.ActiveResidues>
 VAL166  LYS551  ARG553  GLY616  TRP617  ASP618  TYR619  PRO620  LYS621  CYS622 
 ASP623  PHE694  ASN695  SER759  ASP760  ASP761  ALA762  ILE779  LEU786  VAL792 
 PHE793  MET794  SER795  GLU796  ALA797  LYS798  CYS799  TRP800  GLU811  SER814 

> <Gold.Protein.RotatedAtoms>
  150.6867  134.2803  159.4624 H   0  0  0  0  0  0  0  0  0  0  0  0  # atno 6907 bound_to 6896
  152.0717  134.9526  160.0583 H   0  0  0  0  0  0  0  0  0  0  0  0  # atno 6908 bound_to 6896
  152.0913  133.4167  159.4582 H   0  0  0  0  0  0  0  0  0  0  0  0  # atno 6909 bound_to 6896
  145.1547  140.8847  143.3626 H   0  0  0  0  0  0  0  0  0  0  0  0  # atno 7974 bound_to 7965
  154.4430  140.1025  156.6375 H   0  0  0  0  0  0  0  0  0  0  0  0  # atno 8008 bound_to 7997
  155.5537  140.3486  155.4456 H   0  0  0  0  0  0  0  0  0  0  0  0  # atno 8009 bound_to 7997
  156.0510  140.1304  157.0039 H   0  0  0  0  0  0  0  0  0  0  0  0  # atno 8010 bound_to 7997
  140.4228  143.2578  151.8867 H   0  0  0  0  0  0  0  0  0  0  0  0  # atno 10167 bound_to 10162
  156.8398  130.9682  151.3101 H   0  0  0  0  0  0  0  0  0  0  0  0  # atno 10718 bound_to 10713
  154.3701  135.6097  153.5735 H   0  0  0  0  0  0  0  0  0  0  0  0  # atno 10763 bound_to 10752
  152.9790  135.5836  154.4532 H   0  0  0  0  0  0  0  0  0  0  0  0  # atno 10764 bound_to 10752
  154.4285  135.2847  155.1906 H   0  0  0  0  0  0  0  0  0  0  0  0  # atno 10765 bound_to 10752
  140.3466  134.2274  155.7684 H   0  0  0  0  0  0  0  0  0  0  0  0  # atno 11005 bound_to 11000
  145.0394  139.3273  143.5984 LP  0  0  0  0  0  0  0  0  0  0  0  0  # atno 17320 bound_to 7965
  146.3490  139.9762  142.8701 LP  0  0  0  0  0  0  0  0  0  0  0  0  # atno 17321 bound_to 7965
  139.4783  144.5419  151.8515 LP  0  0  0  0  0  0  0  0  0  0  0  0  # atno 17342 bound_to 10162
  140.4515  144.1849  150.5898 LP  0  0  0  0  0  0  0  0  0  0  0  0  # atno 17343 bound_to 10162
  157.6362  130.8768  149.9363 LP  0  0  0  0  0  0  0  0  0  0  0  0  # atno 17370 bound_to 10713
  156.0887  130.3665  150.0437 LP  0  0  0  0  0  0  0  0  0  0  0  0  # atno 17371 bound_to 10713
  141.2024  133.7939  157.0394 LP  0  0  0  0  0  0  0  0  0  0  0  0  # atno 17394 bound_to 11000
  140.0737  134.9688  157.1510 LP  0  0  0  0  0  0  0  0  0  0  0  0  # atno 17395 bound_to 11000

$$$$
