AV-unprocessed.smi:101|AV-procd|sdf|937|dock8
  -GOLD-   2262017453D 1   1.00000     0.00000
 Structure written by MMmdl.
 43 45  0  0  0  0  0  0  0  0  2 V2000
  144.8809  136.9366  157.3137 C   0  0  0  0  0  0  0  0  0  0  0  0
  145.1204  137.0880  155.8216 C   0  0  0  0  0  0  0  0  0  0  0  0
  146.0930  137.8847  155.3257 C   0  0  0  0  0  0  0  0  0  0  0  0
  146.3120  138.0173  153.9642 N   0  0  0  0  0  0  0  0  0  0  0  0
  147.4204  138.8993  153.4141 C   0  0  2  0  0  0  0  0  0  0  0  0
  148.6082  138.6468  154.1064 O   0  0  0  0  0  0  0  0  0  0  0  0
  148.8704  139.7114  155.0130 C   0  0  1  0  0  0  0  0  0  0  0  0
  150.3426  139.7204  155.4449 C   0  0  0  0  0  0  0  0  0  0  0  0
  150.4930  140.6726  156.4844 O   0  0  0  0  0  0  0  0  0  0  0  0
  151.6228  140.7133  157.2140 C   0  0  0  0  0  0  0  0  0  0  0  0
  152.4744  139.8221  157.2061 O   0  0  0  0  0  0  0  0  0  0  0  0
  151.7326  141.9535  158.0354 C   0  0  0  0  0  0  0  0  0  0  0  0
  152.4630  141.9218  159.2464 C   0  0  0  0  0  0  0  0  0  0  0  0
  152.5828  143.0778  160.0423 C   0  0  0  0  0  0  0  0  0  0  0  0
  151.9745  144.2798  159.6365 C   0  0  0  0  0  0  0  0  0  0  0  0
  151.2450  144.3246  158.4342 C   0  0  0  0  0  0  0  0  0  0  0  0
  151.1230  143.1696  157.6375 C   0  0  0  0  0  0  0  0  0  0  0  0
  148.3855  140.9390  154.2391 C   0  0  1  0  0  0  0  0  0  0  0  0
  149.3511  141.3444  153.2863 O   0  0  0  0  0  0  0  0  0  0  0  0
  147.1299  140.4178  153.5488 C   0  0  2  0  0  0  0  0  0  0  0  0
  145.9974  140.7196  154.3455 O   0  0  0  0  0  0  0  0  0  0  0  0
  145.5035  137.2896  153.0524 C   0  0  0  0  0  0  0  0  0  0  0  0
  145.7259  137.4283  151.8492 O   0  0  0  0  0  0  0  0  0  0  0  0
  144.5189  136.4849  153.5429 N   0  5  0  0  0  0  0  0  0  0  0  0
  144.2780  136.3433  154.8780 C   0  0  0  0  0  0  0  0  0  0  0  0
  143.3835  135.6155  155.3074 O   0  0  0  0  0  0  0  0  0  0  0  0
  145.5648  137.5595  157.8908 H   0  0  0  0  0  0  0  0  0  0  0  0
  145.0283  135.9002  157.6193 H   0  0  0  0  0  0  0  0  0  0  0  0
  143.8618  137.2298  157.5681 H   0  0  0  0  0  0  0  0  0  0  0  0
  146.7120  138.4238  156.0258 H   0  0  0  0  0  0  0  0  0  0  0  0
  147.5607  138.5746  152.3816 H   0  0  0  0  0  0  0  0  0  0  0  0
  148.2358  139.5951  155.8932 H   0  0  0  0  0  0  0  0  0  0  0  0
  150.6540  138.7284  155.7755 H   0  0  0  0  0  0  0  0  0  0  0  0
  150.9787  140.0083  154.6070 H   0  0  0  0  0  0  0  0  0  0  0  0
  152.9387  141.0100  159.5782 H   0  0  0  0  0  0  0  0  0  0  0  0
  153.1421  143.0412  160.9655 H   0  0  0  0  0  0  0  0  0  0  0  0
  152.0668  145.1663  160.2466 H   0  0  0  0  0  0  0  0  0  0  0  0
  150.7771  145.2465  158.1210 H   0  0  0  0  0  0  0  0  0  0  0  0
  150.5551  143.2394  156.7210 H   0  0  0  0  0  0  0  0  0  0  0  0
  148.1856  141.7846  154.8989 H   0  0  0  0  0  0  0  0  0  0  0  0
  149.4002  140.6823  152.6136 H   0  0  0  0  0  0  0  0  0  0  0  0
  146.9839  140.8553  152.5603 H   0  0  0  0  0  0  0  0  0  0  0  0
  145.2331  140.7057  153.7884 H   0  0  0  0  0  0  0  0  0  0  0  0
  1  2  1  0  0  0  0
  1 27  1  0  0  0  0
  1 28  1  0  0  0  0
  1 29  1  0  0  0  0
  2 25  1  0  0  0  0
  2  3  2  0  0  0  0
  3  4  1  0  0  0  0
  3 30  1  0  0  0  0
  4  5  1  0  0  0  0
  4 22  1  0  0  0  0
  5 20  1  0  0  0  0
  5  6  1  0  0  0  0
  5 31  1  0  0  0  0
  6  7  1  0  0  0  0
  7  8  1  0  0  0  0
  7 18  1  0  0  0  0
  7 32  1  0  0  0  0
  8  9  1  0  0  0  0
  8 33  1  0  0  0  0
  8 34  1  0  0  0  0
  9 10  1  0  0  0  0
 10 11  2  0  0  0  0
 10 12  1  0  0  0  0
 12 17  1  0  0  0  0
 12 13  2  0  0  0  0
 13 14  1  0  0  0  0
 13 35  1  0  0  0  0
 14 15  2  0  0  0  0
 14 36  1  0  0  0  0
 15 16  1  0  0  0  0
 15 37  1  0  0  0  0
 16 17  2  0  0  0  0
 16 38  1  0  0  0  0
 17 39  1  0  0  0  0
 18 19  1  0  0  0  0
 18 20  1  0  0  0  0
 18 40  1  0  0  0  0
 19 41  1  0  0  0  0
 20 21  1  0  0  0  0
 20 42  1  0  0  0  0
 21 43  1  0  0  0  0
 22 23  2  0  0  0  0
 22 24  1  0  0  0  0
 24 25  1  0  0  0  0
 25 26  2  0  0  0  0
M  CHG  1  24  -1
M  END
> <s_m_source_file>
AV-unprocessed.smi

> <i_m_source_file_index>
101

> <i_lp_mmshare_version>
43012

> <i_f3d_flags>
0

> <s_epik_input>
Tz1jMVtuSF1jKD1PKW4oW2NIXWMxW0NIM10pW0NAQEhdMk9bQ0BIXShbQ0BASF0oW09IXSlbQ0BIXTJbT0hdKVtDSDJdT0MoPU8pYzNbY0hdW2NIXVtjSF1bY0hdW2NIXTM=

> <s_epik_cmdline>
J2VwaWtfcHl0aG9uJywgJy1waCcsICc3LjAnLCAnLXRuJywgJzgnLCAnLW1hJywgJzIwMCcsICctbWV0YWxfYmluZGluZycsICctaW1hZScsICc8aW5maWxlLm1hZT4nLCAnLW9tYWUnLCAnPG91dGZpbGUubWFlPic=

> <r_lp_tautomer_probability>
0.999537

> <r_epik_Ionization_Penalty>
3.21006

> <r_epik_Ionization_Penalty_Charging>
5.75142e-08

> <r_epik_Ionization_Penalty_Neutral>
3.21006

> <r_epik_State_Penalty>
3.20925

> <r_epik_Charging_Adjusted_Penalty>
3.20925

> <i_epik_Tot_Q>
-1

> <i_epik_Tot_abs_Q>
1

> <r_epik_Metal_State_Penalty>
0.119957

> <b_epik_Metal_Only>
1

> <s_epik_Chemistry_Notes>
This compound has an ester and may undergo hydrolysis at high or low pH. This compound contains an acetal/aminal-like group ( X-CH(R)-Y where X, Y are N, S, or O) that may be acid/base labile, releasing an aldehyde.

> <s_lp_Force_Field>
OPLS_2005

> <r_lp_Energy>
45.504

> <b_lp_Chiralities_Consistent>
1

> <s_lp_Variant>
AV-unprocessed.smi:101-25

> <Gold.Version>
5.8.1

> <Gold.Id.Protein>
6NUR|6NUR_protein|mol2

> <Gold.PLP.Fitness>
47.6992

> <Gold.PLP.PLP>
-37.3700

> <Gold.PLP.part.hbond>
-4.3804

> <Gold.PLP.part.metal>
0.0000

> <Gold.PLP.part.buried>
-5.9170

> <Gold.PLP.part.nonpolar>
-28.6625

> <Gold.PLP.part.repulsive>
0.7372

> <Gold.PLP.ligand.clash>
0.0000

> <Gold.PLP.ligand.torsion>
0.8374

> <Gold.PLP.Chemscore.Hbond>
3.9744

> <Gold.PLP.Chemscore.CHOScore>
0.0000

> <Gold.PLP.Chemscore.Metal>
0.0000

> <Gold.Chemscore.Hbonds>
donor molecule, donor type, donor heavy atom, donor atom, acceptor molecule, acceptor atom, score
      L1  H    19    41       P1  7957  1.00
      L1  H    21    43       P1 10175  0.98
      P1  H  7997  8009       L1    11  1.00
      P1  H  8011  8017       L1    19  0.56

> <Gold.PLP.Chemscore.Internal.Correction>
0.0808

> <Gold.Rescore>
     Score         DG    S(hbond)    S(metal)    S(lipo)     H(rot)  DE(clash)    DE(int)     intcor
     17.91     -19.06       3.32        0.00      92.81       3.27       0.13       1.02       ----

> <Gold.Chemscore.Fitness>
17.9065

> <Gold.Chemscore.DG>
-19.0646

> <Gold.Chemscore.ZeroCoef>
-5.4800

> <Gold.Chemscore.Hbond>
3.3189

> <Gold.Chemscore.Metal>
0.0000

> <Gold.Chemscore.Lipo>
92.8143

> <Gold.Chemscore.Internal_Hbond>
0.0000

> <Gold.Chemscore.DEClash>
0.1337

> <Gold.Chemscore.DEInternal>
1.0244

> <Gold.Chemscore.Rot>
3.2656

> <Gold.Chemscore.Internal.Correction>
   9.000000E+99

> <Gold.Chemscore.Hbonds>
donor molecule, donor type, donor heavy atom, donor atom, acceptor molecule, acceptor atom, score
      L1  H    19    41       P1  7957  0.97
      L1  H    21    43       P1 10175  0.89
      P1  H  7997  8009       L1    11  0.95
      P1  H  8011  8017       L1    19  0.04

> <Gold.Chemscore.Hbond.Weighted>
-11.0852

> <Gold.Chemscore.Metal.Weighted>
-0.0000

> <Gold.Chemscore.Lipo.Weighted>
-10.8593

> <Gold.Chemscore.Internal_Hbond.Weighted>
0.0000

> <Gold.Chemscore.DEClash.Weighted>
0.1337

> <Gold.Chemscore.DEInternal.Weighted>
1.0244

> <Gold.Chemscore.Rot.Weighted>
8.3598

> <Gold.Chemscore.Internal.Correction.Weighted>
   9.000000E+99

> <Gold.Protein.RotatedTorsions>
[ 6907 6896 6895 6894 ] final    2.05 input  -60.11 | X-H torsion
[ 7974 7965 7964 7962 ] final  112.53 input  175.53 | X-H torsion
[ 8008 7997 7996 7995 ] final -174.84 input   59.86 | X-H torsion
[ 10167 10162 10161 10158 ] final   21.01 input  -65.29 | X-H torsion
[ 10718 10713 10712 10709 ] final   57.41 input   66.30 | X-H torsion
[ 10763 10752 10751 10750 ] final   20.51 input  -60.55 | X-H torsion
[ 11005 11000 10999 10996 ] final    2.90 input  -57.11 | X-H torsion

> <Gold.Protein.ActiveResidues>
 VAL166  LYS551  ARG553  GLY616  TRP617  ASP618  TYR619  PRO620  LYS621  CYS622 
 ASP623  PHE694  ASN695  SER759  ASP760  ASP761  ALA762  ILE779  LEU786  VAL792 
 PHE793  MET794  SER795  GLU796  ALA797  LYS798  CYS799  TRP800  GLU811  SER814 

> <Gold.Protein.RotatedAtoms>
  151.6025  135.1046  160.0063 H   0  0  0  0  0  0  0  0  0  0  0  0  # atno 6907 bound_to 6896
  152.4250  133.7176  159.6525 H   0  0  0  0  0  0  0  0  0  0  0  0  # atno 6908 bound_to 6896
  150.8139  133.8300  159.3192 H   0  0  0  0  0  0  0  0  0  0  0  0  # atno 6909 bound_to 6896
  145.2283  139.2831  143.4181 H   0  0  0  0  0  0  0  0  0  0  0  0  # atno 7974 bound_to 7965
  155.9751  140.1170  157.0777 H   0  0  0  0  0  0  0  0  0  0  0  0  # atno 8008 bound_to 7997
  154.4167  140.1155  156.5426 H   0  0  0  0  0  0  0  0  0  0  0  0  # atno 8009 bound_to 7997
  155.6545  140.3473  155.4762 H   0  0  0  0  0  0  0  0  0  0  0  0  # atno 8010 bound_to 7997
  140.5459  143.9594  150.6548 H   0  0  0  0  0  0  0  0  0  0  0  0  # atno 10167 bound_to 10162
  157.5512  130.8767  149.8966 H   0  0  0  0  0  0  0  0  0  0  0  0  # atno 10718 bound_to 10713
  153.1071  135.6687  153.9567 H   0  0  0  0  0  0  0  0  0  0  0  0  # atno 10763 bound_to 10752
  153.9121  135.3024  155.3450 H   0  0  0  0  0  0  0  0  0  0  0  0  # atno 10764 bound_to 10752
  154.7492  135.5043  153.9335 H   0  0  0  0  0  0  0  0  0  0  0  0  # atno 10765 bound_to 10752
  140.5991  133.9853  155.8123 H   0  0  0  0  0  0  0  0  0  0  0  0  # atno 11005 bound_to 11000
  146.3359  140.2611  142.8602 LP  0  0  0  0  0  0  0  0  0  0  0  0  # atno 17320 bound_to 7965
  144.9700  140.8359  143.5461 LP  0  0  0  0  0  0  0  0  0  0  0  0  # atno 17321 bound_to 7965
  140.3008  143.3262  152.0974 LP  0  0  0  0  0  0  0  0  0  0  0  0  # atno 17342 bound_to 10162
  139.5007  144.6698  151.6270 LP  0  0  0  0  0  0  0  0  0  0  0  0  # atno 17343 bound_to 10162
  156.0578  130.3705  150.1050 LP  0  0  0  0  0  0  0  0  0  0  0  0  # atno 17370 bound_to 10713
  156.9223  130.9687  151.3546 LP  0  0  0  0  0  0  0  0  0  0  0  0  # atno 17371 bound_to 10713
  141.0884  133.9955  157.3276 LP  0  0  0  0  0  0  0  0  0  0  0  0  # atno 17394 bound_to 11000
  139.9240  135.0201  156.8168 LP  0  0  0  0  0  0  0  0  0  0  0  0  # atno 17395 bound_to 11000

$$$$
