AV-unprocessed.smi:694|AV-procd|sdf|3382|dock7
  -GOLD-   22720 0363D 1   1.00000     0.00000
 Structure written by MMmdl.
 42 43  0  0  0  0  0  0  0  0  1 V2000
  152.3915  143.6022  161.9498 C   0  0  0  0  0  0  0  0  0  0  0  0
  152.6900  142.5222  161.0146 N   0  0  0  0  0  0  0  0  0  0  0  0
  153.7277  141.5495  161.3336 C   0  0  0  0  0  0  0  0  0  0  0  0
  151.9806  142.4331  159.7951 C   0  0  0  0  0  0  0  0  0  0  0  0
  151.9052  141.2189  159.0689 C   0  0  0  0  0  0  0  0  0  0  0  0
  151.1882  141.1859  157.8576 C   0  0  0  0  0  0  0  0  0  0  0  0
  150.5643  142.3584  157.3899 C   0  0  0  0  0  0  0  0  0  0  0  0
  149.8339  142.2822  156.1720 N   0  0  0  0  0  0  0  0  0  0  0  0
  149.6603  141.2279  155.3561 C   0  0  0  0  0  0  0  0  0  0  0  0
  150.0846  140.0905  155.5579 O   0  0  0  0  0  0  0  0  0  0  0  0
  148.9365  141.5634  154.2789 N   0  0  0  0  0  0  0  0  0  0  0  0
  148.5705  140.6516  153.1994 C   0  0  0  0  0  0  0  0  0  0  0  0
  147.3950  139.7274  153.5842 C   0  0  2  0  0  0  0  0  0  0  0  0
  147.7667  138.6137  154.5697 C   0  0  0  0  0  0  0  0  0  0  0  0
  146.6894  137.5315  154.4009 C   0  0  0  0  0  0  0  0  0  0  0  0
  145.8925  137.8974  153.1384 C   0  0  0  0  0  0  0  0  0  0  0  0
  146.7008  138.9888  152.4286 C   0  0  2  0  0  0  0  0  0  0  0  0
  147.6407  138.3757  151.5652 O   0  0  0  0  0  0  0  0  0  0  0  0
  150.6825  143.5217  158.1866 C   0  0  0  0  0  0  0  0  0  0  0  0
  151.3703  143.5574  159.3472 N   0  0  0  0  0  0  0  0  0  0  0  0
  151.3504  143.5543  162.2708 H   0  0  0  0  0  0  0  0  0  0  0  0
  152.5653  144.5719  161.4817 H   0  0  0  0  0  0  0  0  0  0  0  0
  153.0183  143.5448  162.8398 H   0  0  0  0  0  0  0  0  0  0  0  0
  154.5277  141.5850  160.5936 H   0  0  0  0  0  0  0  0  0  0  0  0
  153.3144  140.5407  161.3546 H   0  0  0  0  0  0  0  0  0  0  0  0
  154.1698  141.7463  162.3102 H   0  0  0  0  0  0  0  0  0  0  0  0
  152.3815  140.3142  159.4150 H   0  0  0  0  0  0  0  0  0  0  0  0
  151.1222  140.2666  157.2946 H   0  0  0  0  0  0  0  0  0  0  0  0
  149.3605  143.1318  155.9020 H   0  0  0  0  0  0  0  0  0  0  0  0
  148.6249  142.5198  154.1931 H   0  0  0  0  0  0  0  0  0  0  0  0
  148.3156  141.2483  152.3234 H   0  0  0  0  0  0  0  0  0  0  0  0
  149.4380  140.0538  152.9146 H   0  0  0  0  0  0  0  0  0  0  0  0
  146.6337  140.3373  154.0739 H   0  0  0  0  0  0  0  0  0  0  0  0
  148.7416  138.1972  154.3127 H   0  0  0  0  0  0  0  0  0  0  0  0
  147.8286  138.9789  155.5953 H   0  0  0  0  0  0  0  0  0  0  0  0
  147.1533  136.5499  154.2993 H   0  0  0  0  0  0  0  0  0  0  0  0
  146.0312  137.4910  155.2695 H   0  0  0  0  0  0  0  0  0  0  0  0
  145.6906  137.0337  152.5034 H   0  0  0  0  0  0  0  0  0  0  0  0
  144.9265  138.3074  153.4361 H   0  0  0  0  0  0  0  0  0  0  0  0
  146.0621  139.6509  151.8429 H   0  0  0  0  0  0  0  0  0  0  0  0
  148.1027  137.7090  152.0496 H   0  0  0  0  0  0  0  0  0  0  0  0
  150.2103  144.4539  157.9211 H   0  0  0  0  0  0  0  0  0  0  0  0
  1  2  1  0  0  0  0
  1 21  1  0  0  0  0
  1 22  1  0  0  0  0
  1 23  1  0  0  0  0
  2  3  1  0  0  0  0
  2  4  1  0  0  0  0
  3 24  1  0  0  0  0
  3 25  1  0  0  0  0
  3 26  1  0  0  0  0
  4 20  1  0  0  0  0
  4  5  2  0  0  0  0
  5  6  1  0  0  0  0
  5 27  1  0  0  0  0
  6  7  2  0  0  0  0
  6 28  1  0  0  0  0
  7  8  1  0  0  0  0
  7 19  1  0  0  0  0
  8  9  1  0  0  0  0
  8 29  1  0  0  0  0
  9 10  2  0  0  0  0
  9 11  1  0  0  0  0
 11 12  1  0  0  0  0
 11 30  1  0  0  0  0
 12 13  1  0  0  0  0
 12 31  1  0  0  0  0
 12 32  1  0  0  0  0
 13 17  1  0  0  0  0
 13 14  1  0  0  0  0
 13 33  1  0  0  0  0
 14 15  1  0  0  0  0
 14 34  1  0  0  0  0
 14 35  1  0  0  0  0
 15 16  1  0  0  0  0
 15 36  1  0  0  0  0
 15 37  1  0  0  0  0
 16 17  1  0  0  0  0
 16 38  1  0  0  0  0
 16 39  1  0  0  0  0
 17 18  1  0  0  0  0
 17 40  1  0  0  0  0
 18 41  1  0  0  0  0
 19 20  2  0  0  0  0
 19 42  1  0  0  0  0
M  END
> <s_m_source_file>
AV-unprocessed.smi

> <i_m_source_file_index>
694

> <i_lp_mmshare_version>
43012

> <i_f3d_flags>
0

> <s_epik_input>
W0NIM11OKFtDSDNdKWMxW2NIXVtjSF1jKFtjSF1uMSlbTkhdQyg9TylbTkhdW0NIMl1bQ0BASF0yW0NIMl1bQ0gyXVtDSDJdW0NASF0yW09IXQ==

> <s_epik_cmdline>
J2VwaWtfcHl0aG9uJywgJy1waCcsICc3LjAnLCAnLXRuJywgJzgnLCAnLW1hJywgJzIwMCcsICctbWV0YWxfYmluZGluZycsICctaW1hZScsICc8aW5maWxlLm1hZT4nLCAnLW9tYWUnLCAnPG91dGZpbGUubWFlPic=

> <r_lp_tautomer_probability>
1

> <r_epik_Ionization_Penalty>
0.60335

> <r_epik_Ionization_Penalty_Charging>
0

> <r_epik_Ionization_Penalty_Neutral>
0.60335

> <r_epik_State_Penalty>
0.616805

> <r_epik_Charging_Adjusted_Penalty>
0.616805

> <i_epik_Tot_Q>
0

> <i_epik_Tot_abs_Q>
0

> <r_epik_Metal_State_Penalty>
0.301709

> <b_epik_Metal_Only>
0

> <s_lp_Force_Field>
OPLS_2005

> <r_lp_Energy>
30.3621

> <b_lp_Chiralities_Consistent>
1

> <s_lp_Variant>
AV-unprocessed.smi:694-7

> <Gold.Version>
5.8.1

> <Gold.Id.Protein>
6NUR|6NUR_protein|mol2

> <Gold.PLP.Fitness>
47.2969

> <Gold.PLP.PLP>
-37.2477

> <Gold.PLP.part.hbond>
-3.7208

> <Gold.PLP.part.metal>
0.0000

> <Gold.PLP.part.buried>
-0.4456

> <Gold.PLP.part.nonpolar>
-33.8877

> <Gold.PLP.part.repulsive>
1.2342

> <Gold.PLP.ligand.clash>
0.0000

> <Gold.PLP.ligand.torsion>
0.4164

> <Gold.PLP.Chemscore.Hbond>
2.7840

> <Gold.PLP.Chemscore.CHOScore>
0.8382

> <Gold.PLP.Chemscore.Metal>
0.0000

> <Gold.Chemscore.Hbonds>
donor molecule, donor type, donor heavy atom, donor atom, acceptor molecule, acceptor atom, score
      L1  H     8    29       P1  8028  1.00
      L1  H    18    41       P1  7948  0.82
      P1  H  7954  7966       L1    18  0.85
      L1  C    19    42       P1  8028  0.65
      L1  C    19    42       P1  8029  0.13

> <Gold.PLP.Chemscore.Internal.Correction>
0.0154

> <Gold.Rescore>
     Score         DG    S(hbond)    S(metal)    S(lipo)     H(rot)  DE(clash)    DE(int)     intcor
     15.27     -19.00       2.30        0.00      87.61       1.73       1.93       1.79       ----

> <Gold.Chemscore.Fitness>
15.2726

> <Gold.Chemscore.DG>
-18.9985

> <Gold.Chemscore.ZeroCoef>
-5.4800

> <Gold.Chemscore.Hbond>
2.3015

> <Gold.Chemscore.Metal>
0.0000

> <Gold.Chemscore.Lipo>
87.6070

> <Gold.Chemscore.Internal_Hbond>
0.0000

> <Gold.Chemscore.DEClash>
1.9317

> <Gold.Chemscore.DEInternal>
1.7942

> <Gold.Chemscore.Rot>
1.7259

> <Gold.Chemscore.Internal.Correction>
   9.000000E+99

> <Gold.Chemscore.Hbonds>
donor molecule, donor type, donor heavy atom, donor atom, acceptor molecule, acceptor atom, score
      L1  H     8    29       P1  8028  1.00
      L1  H    18    41       P1  7948  0.81
      P1  H  7954  7966       L1    18  0.14

> <Gold.Chemscore.Hbond.Weighted>
-7.6869

> <Gold.Chemscore.Metal.Weighted>
-0.0000

> <Gold.Chemscore.Lipo.Weighted>
-10.2500

> <Gold.Chemscore.Internal_Hbond.Weighted>
0.0000

> <Gold.Chemscore.DEClash.Weighted>
1.9317

> <Gold.Chemscore.DEInternal.Weighted>
1.7942

> <Gold.Chemscore.Rot.Weighted>
4.4184

> <Gold.Chemscore.Internal.Correction.Weighted>
   9.000000E+99

> <Gold.Protein.RotatedTorsions>
[ 6907 6896 6895 6894 ] final -117.72 input  -60.11 | X-H torsion
[ 7974 7965 7964 7962 ] final  -22.09 input  175.53 | X-H torsion
[ 8008 7997 7996 7995 ] final   74.38 input   59.86 | X-H torsion
[ 10167 10162 10161 10158 ] final  -42.08 input  -65.29 | X-H torsion
[ 10718 10713 10712 10709 ] final    2.91 input   66.30 | X-H torsion
[ 10763 10752 10751 10750 ] final  -93.02 input  -60.55 | X-H torsion
[ 11005 11000 10999 10996 ] final   59.31 input  -57.11 | X-H torsion

> <Gold.Protein.ActiveResidues>
 VAL166  LYS551  ARG553  GLY616  TRP617  ASP618  TYR619  PRO620  LYS621  CYS622 
 ASP623  PHE694  ASN695  SER759  ASP760  ASP761  ALA762  ILE779  LEU786  VAL792 
 PHE793  MET794  SER795  GLU796  ALA797  LYS798  CYS799  TRP800  GLU811  SER814 

> <Gold.Protein.RotatedAtoms>
  150.8160  133.8337  159.3160 H   0  0  0  0  0  0  0  0  0  0  0  0  # atno 6907 bound_to 6896
  151.6109  135.1038  160.0090 H   0  0  0  0  0  0  0  0  0  0  0  0  # atno 6908 bound_to 6896
  152.4251  133.7141  159.6552 H   0  0  0  0  0  0  0  0  0  0  0  0  # atno 6909 bound_to 6896
  146.1696  140.4431  142.8538 H   0  0  0  0  0  0  0  0  0  0  0  0  # atno 7974 bound_to 7965
  155.7975  140.3477  155.5384 H   0  0  0  0  0  0  0  0  0  0  0  0  # atno 8008 bound_to 7997
  155.8572  140.0965  157.1657 H   0  0  0  0  0  0  0  0  0  0  0  0  # atno 8009 bound_to 7997
  154.4010  140.1365  156.3903 H   0  0  0  0  0  0  0  0  0  0  0  0  # atno 8010 bound_to 7997
  140.6981  143.3058  151.3158 H   0  0  0  0  0  0  0  0  0  0  0  0  # atno 10167 bound_to 10162
  156.8700  130.5617  149.5658 H   0  0  0  0  0  0  0  0  0  0  0  0  # atno 10718 bound_to 10713
  154.6918  135.5210  153.8403 H   0  0  0  0  0  0  0  0  0  0  0  0  # atno 10763 bound_to 10752
  153.0638  135.6577  154.0412 H   0  0  0  0  0  0  0  0  0  0  0  0  # atno 10764 bound_to 10752
  154.0284  135.2987  155.3351 H   0  0  0  0  0  0  0  0  0  0  0  0  # atno 10765 bound_to 10752
  140.0313  134.6007  155.9503 H   0  0  0  0  0  0  0  0  0  0  0  0  # atno 11005 bound_to 11000
  144.8143  140.6440  143.6395 LP  0  0  0  0  0  0  0  0  0  0  0  0  # atno 17320 bound_to 7965
  145.4376  139.1540  143.3988 LP  0  0  0  0  0  0  0  0  0  0  0  0  # atno 17321 bound_to 7965
  139.6463  144.0445  152.2593 LP  0  0  0  0  0  0  0  0  0  0  0  0  # atno 17342 bound_to 10162
  139.9967  144.6323  150.7766 LP  0  0  0  0  0  0  0  0  0  0  0  0  # atno 17343 bound_to 10162
  156.0731  130.5759  150.9422 LP  0  0  0  0  0  0  0  0  0  0  0  0  # atno 17370 bound_to 10713
  157.6201  131.0930  150.8638 LP  0  0  0  0  0  0  0  0  0  0  0  0  # atno 17371 bound_to 10713
  141.1833  133.6550  156.5110 LP  0  0  0  0  0  0  0  0  0  0  0  0  # atno 17394 bound_to 11000
  140.4220  134.7178  157.4895 LP  0  0  0  0  0  0  0  0  0  0  0  0  # atno 17395 bound_to 11000

$$$$
