AV-unprocessed.smi:1278|AV-procd|sdf|5354|dock10
  -GOLD-   22720 4493D 1   1.00000     0.00000
 Structure written by MMmdl.
 38 39  0  0  0  0  0  0  0  0  3 V2000
  146.0678  132.3284  151.7727 C   0  0  0  0  0  0  0  0  0  0  0  0
  146.3872  133.8239  151.9087 C   0  0  1  0  0  0  0  0  0  0  0  0
  145.2380  134.6941  151.3732 C   0  0  0  0  0  0  0  0  0  0  0  0
  145.5733  136.1806  151.5456 C   0  0  0  0  0  0  0  0  0  0  0  0
  145.9127  136.5015  153.0096 C   0  0  0  0  0  0  0  0  0  0  0  0
  147.0259  135.6491  153.5015 N   0  3  1  0  0  0  0  0  0  0  0  0
  147.4574  136.0270  154.8699 C   0  0  0  0  0  0  0  0  0  0  0  0
  146.3971  135.6824  155.9331 C   0  0  0  0  0  0  0  0  0  0  0  0
  146.6424  136.4010  157.1778 N   0  0  0  0  0  0  0  0  0  0  0  0
  147.1448  135.8706  158.3019 C   0  0  0  0  0  0  0  0  0  0  0  0
  147.4232  134.6699  158.3437 O   0  0  0  0  0  0  0  0  0  0  0  0
  147.3008  136.7660  159.3020 N   0  5  0  0  0  0  0  0  0  0  0  0
  147.3758  136.3443  160.5750 C   0  0  0  0  0  0  0  0  0  0  0  0
  147.7017  137.1485  161.5934 N   0  0  0  0  0  0  0  0  0  0  0  0
  147.7248  136.4978  162.8286 C   0  0  0  0  0  0  0  0  0  0  0  0
  147.4155  135.1662  162.7475 C   0  0  0  0  0  0  0  0  0  0  0  0
  147.0877  134.6855  161.1072 S   0  0  0  0  0  0  0  0  0  0  0  0
  146.7072  134.2020  153.3691 C   0  0  0  0  0  0  0  0  0  0  0  0
  145.1876  132.0553  152.3560 H   0  0  0  0  0  0  0  0  0  0  0  0
  146.8999  131.7155  152.1205 H   0  0  0  0  0  0  0  0  0  0  0  0
  145.8747  132.0609  150.7333 H   0  0  0  0  0  0  0  0  0  0  0  0
  147.2741  134.0257  151.3061 H   0  0  0  0  0  0  0  0  0  0  0  0
  145.0540  134.4749  150.3207 H   0  0  0  0  0  0  0  0  0  0  0  0
  144.3148  134.4625  151.9064 H   0  0  0  0  0  0  0  0  0  0  0  0
  146.4185  136.4427  150.9076 H   0  0  0  0  0  0  0  0  0  0  0  0
  144.7339  136.7929  151.2147 H   0  0  0  0  0  0  0  0  0  0  0  0
  146.1904  137.5536  153.0872 H   0  0  0  0  0  0  0  0  0  0  0  0
  145.0349  136.3567  153.6416 H   0  0  0  0  0  0  0  0  0  0  0  0
  148.3744  135.4884  155.1125 H   0  0  0  0  0  0  0  0  0  0  0  0
  147.7101  137.0881  154.9014 H   0  0  0  0  0  0  0  0  0  0  0  0
  145.3996  135.9579  155.5932 H   0  0  0  0  0  0  0  0  0  0  0  0
  146.3760  134.6076  156.1219 H   0  0  0  0  0  0  0  0  0  0  0  0
  146.4214  137.3861  157.1904 H   0  0  0  0  0  0  0  0  0  0  0  0
  147.9726  137.0610  163.7157 H   0  0  0  0  0  0  0  0  0  0  0  0
  147.3631  134.4419  163.5463 H   0  0  0  0  0  0  0  0  0  0  0  0
  145.8627  133.9568  154.0155 H   0  0  0  0  0  0  0  0  0  0  0  0
  147.5490  133.6022  153.7135 H   0  0  0  0  0  0  0  0  0  0  0  0
  147.8117  135.8378  152.8958 H   0  0  0  0  0  0  0  0  0  0  0  0
  1  2  1  0  0  0  0
  1 19  1  0  0  0  0
  1 20  1  0  0  0  0
  1 21  1  0  0  0  0
  2 18  1  0  0  0  0
  2  3  1  0  0  0  0
  2 22  1  0  0  0  0
  3  4  1  0  0  0  0
  3 23  1  0  0  0  0
  3 24  1  0  0  0  0
  4  5  1  0  0  0  0
  4 25  1  0  0  0  0
  4 26  1  0  0  0  0
  5  6  1  0  0  0  0
  5 27  1  0  0  0  0
  5 28  1  0  0  0  0
  6  7  1  0  0  0  0
  6 18  1  0  0  0  0
  6 38  1  0  0  0  0
  7  8  1  0  0  0  0
  7 29  1  0  0  0  0
  7 30  1  0  0  0  0
  8  9  1  0  0  0  0
  8 31  1  0  0  0  0
  8 32  1  0  0  0  0
  9 10  1  0  0  0  0
  9 33  1  0  0  0  0
 10 11  2  0  0  0  0
 10 12  1  0  0  0  0
 12 13  1  0  0  0  0
 13 17  1  0  0  0  0
 13 14  2  0  0  0  0
 14 15  1  0  0  0  0
 15 16  2  0  0  0  0
 15 34  1  0  0  0  0
 16 17  1  0  0  0  0
 16 35  1  0  0  0  0
 18 36  1  0  0  0  0
 18 37  1  0  0  0  0
M  CHG  1   6   1
M  CHG  1  12  -1
M  END
> <s_m_source_file>
AV-unprocessed.smi

> <i_m_source_file_index>
1278

> <i_lp_mmshare_version>
43012

> <i_f3d_flags>
0

> <s_epik_input>
W0NIM11bQ0BASF0xW0NIMl1bQ0gyXVtDSDJdTihbQ0gyXTEpW0NIMl1bQ0gyXVtOSF1DKD1PKVtOSF1jMm5bY0hdW2NIXXMy

> <s_epik_cmdline>
J2VwaWtfcHl0aG9uJywgJy1waCcsICc3LjAnLCAnLXRuJywgJzgnLCAnLW1hJywgJzIwMCcsICctbWV0YWxfYmluZGluZycsICctaW1hZScsICc8aW5maWxlLm1hZT4nLCAnLW9tYWUnLCAnPG91dGZpbGUubWFlPic=

> <r_lp_tautomer_probability>
0.999

> <r_epik_Ionization_Penalty>
6.22019

> <r_epik_Ionization_Penalty_Charging>
5.38911

> <r_epik_Ionization_Penalty_Neutral>
0.831074

> <r_epik_State_Penalty>
5.38904

> <r_epik_Charging_Adjusted_Penalty>
10.7782

> <i_epik_Tot_Q>
0

> <i_epik_Tot_abs_Q>
2

> <r_epik_Metal_State_Penalty>
1.41502

> <b_epik_Metal_Only>
1

> <s_lp_Force_Field>
OPLS_2005

> <r_lp_Energy>
5.28715

> <b_lp_Chiralities_Consistent>
1

> <s_lp_Variant>
AV-unprocessed.smi:1278-8

> <Gold.Version>
5.8.1

> <Gold.Id.Protein>
6NUR|6NUR_protein|mol2

> <Gold.PLP.Fitness>
38.7517

> <Gold.PLP.PLP>
-28.4622

> <Gold.PLP.part.hbond>
-3.0000

> <Gold.PLP.part.metal>
0.0000

> <Gold.PLP.part.buried>
-3.2632

> <Gold.PLP.part.nonpolar>
-21.5321

> <Gold.PLP.part.repulsive>
0.0000

> <Gold.PLP.ligand.clash>
0.0000

> <Gold.PLP.ligand.torsion>
0.3035

> <Gold.PLP.Chemscore.Hbond>
3.6180

> <Gold.PLP.Chemscore.CHOScore>
0.0000

> <Gold.PLP.Chemscore.Metal>
0.0000

> <Gold.Chemscore.Hbonds>
donor molecule, donor type, donor heavy atom, donor atom, acceptor molecule, acceptor atom, score
      L1  H     6    38       P1  7948  2.00
      P1  H  6931  6943       L1    14  0.85
      P1  H  6934  6947       L1    14  0.72

> <Gold.PLP.Chemscore.Internal.Correction>
0.0425

> <Gold.Rescore>
     Score         DG    S(hbond)    S(metal)    S(lipo)     H(rot)  DE(clash)    DE(int)     intcor
     13.26     -14.99       1.97        0.00      59.33       1.57       0.00       1.73       ----

> <Gold.Chemscore.Fitness>
13.2570

> <Gold.Chemscore.DG>
-14.9909

> <Gold.Chemscore.ZeroCoef>
-5.4800

> <Gold.Chemscore.Hbond>
1.9708

> <Gold.Chemscore.Metal>
0.0000

> <Gold.Chemscore.Lipo>
59.3284

> <Gold.Chemscore.Internal_Hbond>
0.0000

> <Gold.Chemscore.DEClash>
0.0015

> <Gold.Chemscore.DEInternal>
1.7324

> <Gold.Chemscore.Rot>
1.5676

> <Gold.Chemscore.Internal.Correction>
   9.000000E+99

> <Gold.Chemscore.Hbonds>
donor molecule, donor type, donor heavy atom, donor atom, acceptor molecule, acceptor atom, score
      L1  H     6    38       P1  7948  0.98
      P1  H  6931  6943       L1    14  0.14
      P1  H  6934  6947       L1    14  0.35

> <Gold.Chemscore.Hbond.Weighted>
-6.5825

> <Gold.Chemscore.Metal.Weighted>
-0.0000

> <Gold.Chemscore.Lipo.Weighted>
-6.9414

> <Gold.Chemscore.Internal_Hbond.Weighted>
0.0000

> <Gold.Chemscore.DEClash.Weighted>
0.0015

> <Gold.Chemscore.DEInternal.Weighted>
1.7324

> <Gold.Chemscore.Rot.Weighted>
4.0130

> <Gold.Chemscore.Internal.Correction.Weighted>
   9.000000E+99

> <Gold.Protein.RotatedTorsions>
[ 6907 6896 6895 6894 ] final  152.60 input  -60.11 | X-H torsion
[ 7974 7965 7964 7962 ] final -106.02 input  175.53 | X-H torsion
[ 8008 7997 7996 7995 ] final    1.02 input   59.86 | X-H torsion
[ 10167 10162 10161 10158 ] final  119.83 input  -65.29 | X-H torsion
[ 10718 10713 10712 10709 ] final    1.48 input   66.30 | X-H torsion
[ 10763 10752 10751 10750 ] final  114.53 input  -60.55 | X-H torsion
[ 11005 11000 10999 10996 ] final   97.07 input  -57.11 | X-H torsion

> <Gold.Protein.ActiveResidues>
 VAL166  LYS551  ARG553  GLY616  TRP617  ASP618  TYR619  PRO620  LYS621  CYS622 
 ASP623  PHE694  ASN695  SER759  ASP760  ASP761  ALA762  ILE779  LEU786  VAL792 
 PHE793  MET794  SER795  GLU796  ALA797  LYS798  CYS799  TRP800  GLU811  SER814 

> <Gold.Protein.RotatedAtoms>
  152.0845  133.4169  159.4515 H   0  0  0  0  0  0  0  0  0  0  0  0  # atno 6907 bound_to 6896
  150.6862  134.2944  159.4689 H   0  0  0  0  0  0  0  0  0  0  0  0  # atno 6908 bound_to 6896
  152.0789  134.9484  160.0624 H   0  0  0  0  0  0  0  0  0  0  0  0  # atno 6909 bound_to 6896
  145.2231  140.9142  143.3248 H   0  0  0  0  0  0  0  0  0  0  0  0  # atno 7974 bound_to 7965
  154.6749  140.2620  155.6969 H   0  0  0  0  0  0  0  0  0  0  0  0  # atno 8008 bound_to 7997
  156.2674  140.2822  156.1194 H   0  0  0  0  0  0  0  0  0  0  0  0  # atno 8009 bound_to 7997
  155.1115  140.0375  157.2715 H   0  0  0  0  0  0  0  0  0  0  0  0  # atno 8010 bound_to 7997
  139.6021  144.7059  151.3039 H   0  0  0  0  0  0  0  0  0  0  0  0  # atno 10167 bound_to 10162
  156.8487  130.5546  149.5671 H   0  0  0  0  0  0  0  0  0  0  0  0  # atno 10718 bound_to 10713
  153.5086  135.3622  155.2575 H   0  0  0  0  0  0  0  0  0  0  0  0  # atno 10763 bound_to 10752
  154.8743  135.4017  154.3395 H   0  0  0  0  0  0  0  0  0  0  0  0  # atno 10764 bound_to 10752
  153.4044  135.7076  153.6470 H   0  0  0  0  0  0  0  0  0  0  0  0  # atno 10765 bound_to 10752
  139.8778  134.8982  156.4253 H   0  0  0  0  0  0  0  0  0  0  0  0  # atno 11005 bound_to 11000
  144.9747  139.3844  143.6291 LP  0  0  0  0  0  0  0  0  0  0  0  0  # atno 17320 bound_to 7965
  146.3371  139.8861  142.8816 LP  0  0  0  0  0  0  0  0  0  0  0  0  # atno 17321 bound_to 7965
  140.7257  143.7010  150.7845 LP  0  0  0  0  0  0  0  0  0  0  0  0  # atno 17342 bound_to 10162
  140.0588  143.5175  152.2638 LP  0  0  0  0  0  0  0  0  0  0  0  0  # atno 17343 bound_to 10162
  156.0840  130.5843  150.9614 LP  0  0  0  0  0  0  0  0  0  0  0  0  # atno 17370 bound_to 10713
  157.6315  131.0920  150.8432 LP  0  0  0  0  0  0  0  0  0  0  0  0  # atno 17371 bound_to 10713
  140.9105  133.7715  155.9786 LP  0  0  0  0  0  0  0  0  0  0  0  0  # atno 17394 bound_to 11000
  140.8551  134.2907  157.5258 LP  0  0  0  0  0  0  0  0  0  0  0  0  # atno 17395 bound_to 11000

$$$$
