AV-unprocessed.smi:3311|AV-procd|sdf|12726|dock10
  -GOLD-   2272019 73D 1   1.00000     0.00000
 Structure written by MMmdl.
 43 44  0  0  0  0  0  0  0  0  1 V2000
  149.6087  140.7391  154.6144 C   0  0  0  0  0  0  0  0  0  0  0  0
  148.6262  140.8683  155.7910 C   0  0  1  0  0  0  0  0  0  0  0  0
  149.0792  141.9655  156.6545 N   0  0  0  0  0  0  0  0  0  0  0  0
  150.4164  141.8135  157.2349 C   0  0  0  0  0  0  0  0  0  0  0  0
  150.8922  143.0874  157.9702 C   0  0  0  0  0  0  0  0  0  0  0  0
  150.9613  144.1217  157.0047 O   0  0  0  0  0  0  0  0  0  0  0  0
  149.8314  143.5003  159.0187 C   0  0  0  0  0  0  0  0  0  0  0  0
  150.2579  144.7113  159.8683 C   0  0  0  0  0  0  0  0  0  0  0  0
  151.6149  144.4678  160.5427 C   0  0  0  0  0  0  0  0  0  0  0  0
  152.6883  144.1192  159.5027 C   0  0  0  0  0  0  0  0  0  0  0  0
  152.2745  142.9073  158.6487 C   0  0  0  0  0  0  0  0  0  0  0  0
  147.1615  141.0300  155.2840 C   0  0  1  0  0  0  0  0  0  0  0  0
  146.8310  142.3746  154.6143 C   0  0  0  0  0  0  0  0  0  0  0  0
  146.7135  139.9092  154.4624 N   0  0  0  0  0  0  0  0  0  0  0  0
  147.0569  139.5946  153.1618 C   0  0  0  0  0  0  0  0  0  0  0  0
  146.3946  138.4485  152.8277 C   0  0  0  0  0  0  0  0  0  0  0  0
  145.6607  138.1288  154.0033 C   0  0  0  0  0  0  0  0  0  0  0  0
  145.8537  139.0019  154.9781 N   0  0  0  0  0  0  0  0  0  0  0  0
  149.3238  139.9210  153.9526 H   0  0  0  0  0  0  0  0  0  0  0  0
  150.6190  140.5334  154.9695 H   0  0  0  0  0  0  0  0  0  0  0  0
  149.6499  141.6505  154.0171 H   0  0  0  0  0  0  0  0  0  0  0  0
  148.6888  139.9319  156.3469 H   0  0  0  0  0  0  0  0  0  0  0  0
  149.0397  142.8389  156.1392 H   0  0  0  0  0  0  0  0  0  0  0  0
  150.4613  140.9687  157.9169 H   0  0  0  0  0  0  0  0  0  0  0  0
  151.1218  141.5877  156.4344 H   0  0  0  0  0  0  0  0  0  0  0  0
  150.0892  144.4563  156.8630 H   0  0  0  0  0  0  0  0  0  0  0  0
  148.8794  143.7130  158.5301 H   0  0  0  0  0  0  0  0  0  0  0  0
  149.6428  142.6597  159.6880 H   0  0  0  0  0  0  0  0  0  0  0  0
  150.3130  145.6031  159.2431 H   0  0  0  0  0  0  0  0  0  0  0  0
  149.5004  144.9159  160.6256 H   0  0  0  0  0  0  0  0  0  0  0  0
  151.9152  145.3521  161.1059 H   0  0  0  0  0  0  0  0  0  0  0  0
  151.5259  143.6552  161.2652 H   0  0  0  0  0  0  0  0  0  0  0  0
  152.8676  144.9809  158.8584 H   0  0  0  0  0  0  0  0  0  0  0  0
  153.6338  143.9105  160.0037 H   0  0  0  0  0  0  0  0  0  0  0  0
  152.2469  142.0226  159.2863 H   0  0  0  0  0  0  0  0  0  0  0  0
  153.0487  142.7196  157.9038 H   0  0  0  0  0  0  0  0  0  0  0  0
  146.5462  141.0193  156.1859 H   0  0  0  0  0  0  0  0  0  0  0  0
  147.2170  143.2118  155.1960 H   0  0  0  0  0  0  0  0  0  0  0  0
  145.7517  142.5048  154.5301 H   0  0  0  0  0  0  0  0  0  0  0  0
  147.2356  142.4419  153.6051 H   0  0  0  0  0  0  0  0  0  0  0  0
  147.7393  140.2051  152.5885 H   0  0  0  0  0  0  0  0  0  0  0  0
  146.4306  137.9188  151.8875 H   0  0  0  0  0  0  0  0  0  0  0  0
  144.9986  137.2933  154.1766 H   0  0  0  0  0  0  0  0  0  0  0  0
  1  2  1  0  0  0  0
  1 19  1  0  0  0  0
  1 20  1  0  0  0  0
  1 21  1  0  0  0  0
  2  3  1  0  0  0  0
  2 12  1  0  0  0  0
  2 22  1  0  0  0  0
  3  4  1  0  0  0  0
  3 23  1  0  0  0  0
  4  5  1  0  0  0  0
  4 24  1  0  0  0  0
  4 25  1  0  0  0  0
  5 11  1  0  0  0  0
  5  6  1  0  0  0  0
  5  7  1  0  0  0  0
  6 26  1  0  0  0  0
  7  8  1  0  0  0  0
  7 27  1  0  0  0  0
  7 28  1  0  0  0  0
  8  9  1  0  0  0  0
  8 29  1  0  0  0  0
  8 30  1  0  0  0  0
  9 10  1  0  0  0  0
  9 31  1  0  0  0  0
  9 32  1  0  0  0  0
 10 11  1  0  0  0  0
 10 33  1  0  0  0  0
 10 34  1  0  0  0  0
 11 35  1  0  0  0  0
 11 36  1  0  0  0  0
 12 13  1  0  0  0  0
 12 14  1  0  0  0  0
 12 37  1  0  0  0  0
 13 38  1  0  0  0  0
 13 39  1  0  0  0  0
 13 40  1  0  0  0  0
 14 18  1  0  0  0  0
 14 15  1  0  0  0  0
 15 16  2  0  0  0  0
 15 41  1  0  0  0  0
 16 17  1  0  0  0  0
 16 42  1  0  0  0  0
 17 18  2  0  0  0  0
 17 43  1  0  0  0  0
M  END
> <s_m_source_file>
AV-unprocessed.smi

> <i_m_source_file_index>
3311

> <i_lp_mmshare_version>
43012

> <i_f3d_flags>
0

> <s_epik_input>
bjFbY0hdW2NIXVtjSF1uMVtDQEBIXShbQ0gzXSlbQ0BIXShbQ0gzXSlbTkhdW0NIMl1DMihbT0hdKVtDSDJdW0NIMl1bQ0gyXVtDSDJdW0NIMl0y

> <s_epik_cmdline>
J2VwaWtfcHl0aG9uJywgJy1waCcsICc3LjAnLCAnLXRuJywgJzgnLCAnLW1hJywgJzIwMCcsICctbWV0YWxfYmluZGluZycsICctaW1hZScsICc8aW5maWxlLm1hZT4nLCAnLW9tYWUnLCAnPG91dGZpbGUubWFlPic=

> <r_lp_tautomer_probability>
1

> <r_epik_Ionization_Penalty>
2.222

> <r_epik_Ionization_Penalty_Charging>
0

> <r_epik_Ionization_Penalty_Neutral>
2.222

> <r_epik_State_Penalty>
2.36562

> <r_epik_Charging_Adjusted_Penalty>
2.36562

> <i_epik_Tot_Q>
0

> <i_epik_Tot_abs_Q>
0

> <r_epik_Metal_State_Penalty>
2.36435

> <b_epik_Metal_Only>
0

> <s_lp_Force_Field>
OPLS_2005

> <r_lp_Energy>
31.437

> <b_lp_Chiralities_Consistent>
1

> <s_lp_Variant>
AV-unprocessed.smi:3311-8

> <Gold.Version>
5.8.1

> <Gold.Id.Protein>
6NUR|6NUR_protein|mol2

> <Gold.PLP.Fitness>
44.1731

> <Gold.PLP.PLP>
-35.5119

> <Gold.PLP.part.hbond>
-2.0000

> <Gold.PLP.part.metal>
0.0000

> <Gold.PLP.part.buried>
-3.7308

> <Gold.PLP.part.nonpolar>
-30.9562

> <Gold.PLP.part.repulsive>
0.0808

> <Gold.PLP.ligand.clash>
0.0000

> <Gold.PLP.ligand.torsion>
0.2595

> <Gold.PLP.Chemscore.Hbond>
1.9760

> <Gold.PLP.Chemscore.CHOScore>
1.0000

> <Gold.PLP.Chemscore.Metal>
0.0000

> <Gold.Chemscore.Hbonds>
donor molecule, donor type, donor heavy atom, donor atom, acceptor molecule, acceptor atom, score
      L1  H     3    23       P1  8028  1.00
      L1  H     6    26       P1  8028  0.88
      L1  C    15    41       P1  7957  1.00

> <Gold.PLP.Chemscore.Internal.Correction>
0.2522

> <Gold.Rescore>
     Score         DG    S(hbond)    S(metal)    S(lipo)     H(rot)  DE(clash)    DE(int)     intcor
     18.72     -18.96       1.91        0.00     105.94       2.07       0.05       0.19       ----

> <Gold.Chemscore.Fitness>
18.7214

> <Gold.Chemscore.DG>
-18.9607

> <Gold.Chemscore.ZeroCoef>
-5.4800

> <Gold.Chemscore.Hbond>
1.9107

> <Gold.Chemscore.Metal>
0.0000

> <Gold.Chemscore.Lipo>
105.9381

> <Gold.Chemscore.Internal_Hbond>
0.0000

> <Gold.Chemscore.DEClash>
0.0491

> <Gold.Chemscore.DEInternal>
0.1901

> <Gold.Chemscore.Rot>
2.0686

> <Gold.Chemscore.Internal.Correction>
   9.000000E+99

> <Gold.Chemscore.Hbonds>
donor molecule, donor type, donor heavy atom, donor atom, acceptor molecule, acceptor atom, score
      L1  H     3    23       P1  8028  0.99
      L1  H     6    26       P1  8028  0.68

> <Gold.Chemscore.Hbond.Weighted>
-6.3816

> <Gold.Chemscore.Metal.Weighted>
-0.0000

> <Gold.Chemscore.Lipo.Weighted>
-12.3948

> <Gold.Chemscore.Internal_Hbond.Weighted>
0.0000

> <Gold.Chemscore.DEClash.Weighted>
0.0491

> <Gold.Chemscore.DEInternal.Weighted>
0.1901

> <Gold.Chemscore.Rot.Weighted>
5.2957

> <Gold.Chemscore.Internal.Correction.Weighted>
   9.000000E+99

> <Gold.Protein.RotatedTorsions>
[ 6907 6896 6895 6894 ] final  173.12 input  -60.11 | X-H torsion
[ 7974 7965 7964 7962 ] final  -50.31 input  175.53 | X-H torsion
[ 8008 7997 7996 7995 ] final -112.42 input   59.86 | X-H torsion
[ 10167 10162 10161 10158 ] final  108.51 input  -65.29 | X-H torsion
[ 10718 10713 10712 10709 ] final   60.52 input   66.30 | X-H torsion
[ 10763 10752 10751 10750 ] final   84.99 input  -60.55 | X-H torsion
[ 11005 11000 10999 10996 ] final  131.18 input  -57.11 | X-H torsion

> <Gold.Protein.ActiveResidues>
 VAL166  LYS551  ARG553  GLY616  TRP617  ASP618  TYR619  PRO620  LYS621  CYS622 
 ASP623  PHE694  ASN695  SER759  ASP760  ASP761  ALA762  ILE779  LEU786  VAL792 
 PHE793  MET794  SER795  GLU796  ALA797  LYS798  CYS799  TRP800  GLU811  SER814 

> <Gold.Protein.RotatedAtoms>
  151.7734  133.3343  159.3450 H   0  0  0  0  0  0  0  0  0  0  0  0  # atno 6907 bound_to 6896
  150.7453  134.5997  159.6039 H   0  0  0  0  0  0  0  0  0  0  0  0  # atno 6908 bound_to 6896
  152.3325  134.7242  160.0337 H   0  0  0  0  0  0  0  0  0  0  0  0  # atno 6909 bound_to 6896
  145.9311  140.7748  142.9599 H   0  0  0  0  0  0  0  0  0  0  0  0  # atno 7974 bound_to 7965
  155.0049  140.0394  157.2375 H   0  0  0  0  0  0  0  0  0  0  0  0  # atno 8008 bound_to 7997
  154.7511  140.2767  155.6269 H   0  0  0  0  0  0  0  0  0  0  0  0  # atno 8009 bound_to 7997
  156.2885  140.2647  156.2265 H   0  0  0  0  0  0  0  0  0  0  0  0  # atno 8010 bound_to 7997
  139.6840  144.7115  151.1465 H   0  0  0  0  0  0  0  0  0  0  0  0  # atno 10167 bound_to 10162
  157.5759  130.8943  149.9347 H   0  0  0  0  0  0  0  0  0  0  0  0  # atno 10718 bound_to 10713
  153.1433  135.4633  154.9529 H   0  0  0  0  0  0  0  0  0  0  0  0  # atno 10763 bound_to 10752
  154.7765  135.3175  154.8082 H   0  0  0  0  0  0  0  0  0  0  0  0  # atno 10764 bound_to 10752
  153.8601  135.6913  153.4838 H   0  0  0  0  0  0  0  0  0  0  0  0  # atno 10765 bound_to 10752
  139.9715  134.9576  156.9401 H   0  0  0  0  0  0  0  0  0  0  0  0  # atno 11005 bound_to 11000
  144.6765  140.2129  143.7375 LP  0  0  0  0  0  0  0  0  0  0  0  0  # atno 17320 bound_to 7965
  145.8424  139.2136  143.1820 LP  0  0  0  0  0  0  0  0  0  0  0  0  # atno 17321 bound_to 7965
  140.7661  143.5657  150.9050 LP  0  0  0  0  0  0  0  0  0  0  0  0  # atno 17342 bound_to 10162
  139.9330  143.6470  152.3072 LP  0  0  0  0  0  0  0  0  0  0  0  0  # atno 17343 bound_to 10162
  156.0804  130.3674  150.0592 LP  0  0  0  0  0  0  0  0  0  0  0  0  # atno 17370 bound_to 10713
  156.8738  130.9533  151.3606 LP  0  0  0  0  0  0  0  0  0  0  0  0  # atno 17371 bound_to 10713
  140.5284  134.0838  155.7309 LP  0  0  0  0  0  0  0  0  0  0  0  0  # atno 17394 bound_to 11000
  141.1394  133.9164  157.2360 LP  0  0  0  0  0  0  0  0  0  0  0  0  # atno 17395 bound_to 11000

$$$$
