AV-unprocessed.smi:249|AV-procd|sdf|1902|dock3
  -GOLD-   2262020583D 1   1.00000     0.00000
 Structure written by MMmdl.
 64 67  0  0  0  0  0  0  0  0  2 V2000
  150.8747  145.3566  159.9406 C   0  0  0  0  0  0  0  0  0  0  0  0
  152.2503  145.0794  159.3122 C   0  0  0  0  0  0  0  0  0  0  0  0
  152.3261  143.7712  158.5985 N   0  3  2  0  0  0  0  0  0  0  0  0
  151.2896  143.6634  157.5315 C   0  0  0  0  0  0  0  0  0  0  0  0
  151.4380  142.3788  156.7059 C   0  0  0  0  0  0  0  0  0  0  0  0
  151.3633  141.1407  157.6136 C   0  0  1  0  0  0  0  0  0  0  0  0
  151.4099  139.8708  156.8764 N   0  0  0  0  0  0  0  0  0  0  0  0
  151.9272  138.7069  157.5872 C   0  0  0  0  0  0  0  0  0  0  0  0
  150.3715  139.5858  156.0546 C   0  0  0  0  0  0  0  0  0  0  0  0
  150.2356  140.2539  154.8787 N   0  0  0  0  0  0  0  0  0  0  0  0
  149.2128  139.9743  154.0647 C   0  0  0  0  0  0  0  0  0  0  0  0
  148.2321  139.0843  154.2319 N   0  0  0  0  0  0  0  0  0  0  0  0
  148.3624  138.4206  155.4162 C   0  0  0  0  0  0  0  0  0  0  0  0
  149.3930  138.6083  156.3784 C   0  0  0  0  0  0  0  0  0  0  0  0
  149.1968  137.7581  157.4596 N   0  0  0  0  0  0  0  0  0  0  0  0
  148.1079  137.1049  157.1547 C   0  0  0  0  0  0  0  0  0  0  0  0
  147.5455  137.4370  155.9425 N   0  0  0  0  0  0  0  0  0  0  0  0
  146.3424  136.8753  155.3547 C   0  0  0  0  0  0  0  0  0  0  0  0
  146.6275  135.9707  154.1305 C   0  0  1  0  0  0  0  0  0  0  0  0
  147.6125  134.8220  154.4563 C   0  0  0  0  0  0  0  0  0  0  0  0
  148.9257  135.3064  154.6493 O   0  0  0  0  0  0  0  0  0  0  0  0
  145.3140  135.4622  153.4846 C   0  0  2  0  0  0  0  0  0  0  0  0
  145.4912  134.6939  152.1866 C   0  0  0  0  0  0  0  0  0  0  0  0
  144.0923  134.7565  151.5847 C   0  0  0  0  0  0  0  0  0  0  0  0
  143.5637  136.0159  151.9820 O   0  0  0  0  0  0  0  0  0  0  0  0
  144.3609  136.5714  153.0239 C   0  0  0  0  0  0  0  0  0  0  0  0
  152.4448  141.2702  158.7007 C   0  0  0  0  0  0  0  0  0  0  0  0
  152.3011  142.5786  159.5083 C   0  0  1  0  0  0  0  0  0  0  0  0
  153.4018  142.6101  160.5893 C   0  0  0  0  0  0  0  0  0  0  0  0
  150.8264  146.3812  160.3100 H   0  0  0  0  0  0  0  0  0  0  0  0
  150.6648  144.7083  160.7905 H   0  0  0  0  0  0  0  0  0  0  0  0
  150.0745  145.2334  159.2102 H   0  0  0  0  0  0  0  0  0  0  0  0
  152.4266  145.9001  158.6210 H   0  0  0  0  0  0  0  0  0  0  0  0
  153.0341  145.1369  160.0689 H   0  0  0  0  0  0  0  0  0  0  0  0
  150.2968  143.7045  157.9828 H   0  0  0  0  0  0  0  0  0  0  0  0
  151.3557  144.5035  156.8425 H   0  0  0  0  0  0  0  0  0  0  0  0
  150.6537  142.3467  155.9493 H   0  0  0  0  0  0  0  0  0  0  0  0
  152.3873  142.4052  156.1698 H   0  0  0  0  0  0  0  0  0  0  0  0
  150.3955  141.1559  158.1174 H   0  0  0  0  0  0  0  0  0  0  0  0
  152.1177  137.8862  156.8943 H   0  0  0  0  0  0  0  0  0  0  0  0
  151.2259  138.3579  158.3456 H   0  0  0  0  0  0  0  0  0  0  0  0
  152.8681  138.9501  158.0811 H   0  0  0  0  0  0  0  0  0  0  0  0
  149.1734  140.5460  153.1491 H   0  0  0  0  0  0  0  0  0  0  0  0
  147.6847  136.3542  157.8066 H   0  0  0  0  0  0  0  0  0  0  0  0
  145.8096  136.3152  156.1242 H   0  0  0  0  0  0  0  0  0  0  0  0
  145.6942  137.7066  155.0766 H   0  0  0  0  0  0  0  0  0  0  0  0
  147.1258  136.5941  153.3865 H   0  0  0  0  0  0  0  0  0  0  0  0
  147.3019  134.2858  155.3525 H   0  0  0  0  0  0  0  0  0  0  0  0
  147.6267  134.0811  153.6568 H   0  0  0  0  0  0  0  0  0  0  0  0
  149.2564  135.6183  153.8206 H   0  0  0  0  0  0  0  0  0  0  0  0
  144.7823  134.8229  154.1914 H   0  0  0  0  0  0  0  0  0  0  0  0
  146.2025  135.2026  151.5342 H   0  0  0  0  0  0  0  0  0  0  0  0
  145.8333  133.6693  152.3349 H   0  0  0  0  0  0  0  0  0  0  0  0
  144.0972  134.6479  150.5001 H   0  0  0  0  0  0  0  0  0  0  0  0
  143.4641  133.9691  152.0025 H   0  0  0  0  0  0  0  0  0  0  0  0
  143.7358  136.9457  153.8351 H   0  0  0  0  0  0  0  0  0  0  0  0
  144.9164  137.4148  152.6113 H   0  0  0  0  0  0  0  0  0  0  0  0
  152.3781  140.4160  159.3756 H   0  0  0  0  0  0  0  0  0  0  0  0
  153.4396  141.2370  158.2538 H   0  0  0  0  0  0  0  0  0  0  0  0
  151.3338  142.5626  160.0135 H   0  0  0  0  0  0  0  0  0  0  0  0
  153.4499  141.6597  161.1221 H   0  0  0  0  0  0  0  0  0  0  0  0
  153.2185  143.3685  161.3495 H   0  0  0  0  0  0  0  0  0  0  0  0
  154.3852  142.7899  160.1534 H   0  0  0  0  0  0  0  0  0  0  0  0
  153.2229  143.7522  158.1341 H   0  0  0  0  0  0  0  0  0  0  0  0
  1  2  1  0  0  0  0
  1 30  1  0  0  0  0
  1 31  1  0  0  0  0
  1 32  1  0  0  0  0
  2  3  1  0  0  0  0
  2 33  1  0  0  0  0
  2 34  1  0  0  0  0
  3 28  1  0  0  0  0
  3  4  1  0  0  0  0
  3 64  1  0  0  0  0
  4  5  1  0  0  0  0
  4 35  1  0  0  0  0
  4 36  1  0  0  0  0
  5  6  1  0  0  0  0
  5 37  1  0  0  0  0
  5 38  1  0  0  0  0
  6  7  1  0  0  0  0
  6 27  1  0  0  0  0
  6 39  1  0  0  0  0
  7  8  1  0  0  0  0
  7  9  1  0  0  0  0
  8 40  1  0  0  0  0
  8 41  1  0  0  0  0
  8 42  1  0  0  0  0
  9 14  1  0  0  0  0
  9 10  2  0  0  0  0
 10 11  1  0  0  0  0
 11 12  2  0  0  0  0
 11 43  1  0  0  0  0
 12 13  1  0  0  0  0
 13 17  1  0  0  0  0
 13 14  2  0  0  0  0
 14 15  1  0  0  0  0
 15 16  2  0  0  0  0
 16 17  1  0  0  0  0
 16 44  1  0  0  0  0
 17 18  1  0  0  0  0
 18 19  1  0  0  0  0
 18 45  1  0  0  0  0
 18 46  1  0  0  0  0
 19 20  1  0  0  0  0
 19 22  1  0  0  0  0
 19 47  1  0  0  0  0
 20 21  1  0  0  0  0
 20 48  1  0  0  0  0
 20 49  1  0  0  0  0
 21 50  1  0  0  0  0
 22 26  1  0  0  0  0
 22 23  1  0  0  0  0
 22 51  1  0  0  0  0
 23 24  1  0  0  0  0
 23 52  1  0  0  0  0
 23 53  1  0  0  0  0
 24 25  1  0  0  0  0
 24 54  1  0  0  0  0
 24 55  1  0  0  0  0
 25 26  1  0  0  0  0
 26 56  1  0  0  0  0
 26 57  1  0  0  0  0
 27 28  1  0  0  0  0
 27 58  1  0  0  0  0
 27 59  1  0  0  0  0
 28 29  1  0  0  0  0
 28 60  1  0  0  0  0
 29 61  1  0  0  0  0
 29 62  1  0  0  0  0
 29 63  1  0  0  0  0
M  CHG  1   3   1
M  END
> <s_m_source_file>
AV-unprocessed.smi

> <i_m_source_file_index>
249

> <i_lp_mmshare_version>
43012

> <i_f3d_flags>
0

> <s_epik_input>
W0NIM11bQ0gyXU4xW0NIMl1bQ0gyXVtDQEhdKFtDSDJdW0NASF0xW0NIM10pTihbQ0gzXSljKG5bY0hdbjIpYyhjMjMpbltjSF1uM1tDSDJdW0NASF0oW0NIMl1bT0hdKVtDQEBIXTRbQ0gyXVtDSDJdT1tDSDJdNA==

> <s_epik_cmdline>
J2VwaWtfcHl0aG9uJywgJy1waCcsICc3LjAnLCAnLXRuJywgJzgnLCAnLW1hJywgJzIwMCcsICctbWV0YWxfYmluZGluZycsICctaW1hZScsICc8aW5maWxlLm1hZT4nLCAnLW9tYWUnLCAnPG91dGZpbGUubWFlPic=

> <r_lp_tautomer_probability>
1

> <r_epik_Ionization_Penalty>
0.00294688

> <r_epik_Ionization_Penalty_Charging>
0.00169971

> <r_epik_Ionization_Penalty_Neutral>
0.00124717

> <r_epik_State_Penalty>
-0

> <r_epik_Charging_Adjusted_Penalty>
0.00169971

> <i_epik_Tot_Q>
1

> <i_epik_Tot_abs_Q>
1

> <r_epik_Metal_State_Penalty>
-0

> <b_epik_Metal_Only>
0

> <s_lp_Force_Field>
OPLS_2005

> <r_lp_Energy>
53.6229

> <b_lp_Chiralities_Consistent>
1

> <s_lp_Variant>
AV-unprocessed.smi:249-5

> <Gold.Version>
5.8.1

> <Gold.Id.Protein>
6NUR|6NUR_protein|mol2

> <Gold.PLP.Fitness>
43.6144

> <Gold.PLP.PLP>
-36.2030

> <Gold.PLP.part.hbond>
-2.0000

> <Gold.PLP.part.metal>
0.0000

> <Gold.PLP.part.buried>
-4.1215

> <Gold.PLP.part.nonpolar>
-29.7246

> <Gold.PLP.part.repulsive>
0.4160

> <Gold.PLP.ligand.clash>
0.0000

> <Gold.PLP.ligand.torsion>
1.1567

> <Gold.PLP.Chemscore.Hbond>
1.9425

> <Gold.PLP.Chemscore.CHOScore>
1.0000

> <Gold.PLP.Chemscore.Metal>
0.0000

> <Gold.Chemscore.Hbonds>
donor molecule, donor type, donor heavy atom, donor atom, acceptor molecule, acceptor atom, score
      L1  H    21    50       P1  7948  0.96
      P1  H  7989  7998       L1    10  0.94
      L1  C    11    43       P1  7957  1.00

> <Gold.PLP.Chemscore.Internal.Correction>
0.8973

> <Gold.Rescore>
     Score         DG    S(hbond)    S(metal)    S(lipo)     H(rot)  DE(clash)    DE(int)     intcor
     11.12     -14.94       1.48        0.00     102.13       2.90       0.18       3.64       ----

> <Gold.Chemscore.Fitness>
11.1178

> <Gold.Chemscore.DG>
-14.9442

> <Gold.Chemscore.ZeroCoef>
-5.4800

> <Gold.Chemscore.Hbond>
1.4793

> <Gold.Chemscore.Metal>
0.0000

> <Gold.Chemscore.Lipo>
102.1271

> <Gold.Chemscore.Internal_Hbond>
0.0000

> <Gold.Chemscore.DEClash>
0.1831

> <Gold.Chemscore.DEInternal>
3.6433

> <Gold.Chemscore.Rot>
2.9006

> <Gold.Chemscore.Internal.Correction>
   9.000000E+99

> <Gold.Chemscore.Hbonds>
donor molecule, donor type, donor heavy atom, donor atom, acceptor molecule, acceptor atom, score
      L1  H    21    50       P1  7948  0.53
      P1  H  7989  7998       L1    10  0.22

> <Gold.Chemscore.Hbond.Weighted>
-4.9410

> <Gold.Chemscore.Metal.Weighted>
-0.0000

> <Gold.Chemscore.Lipo.Weighted>
-11.9489

> <Gold.Chemscore.Internal_Hbond.Weighted>
0.0000

> <Gold.Chemscore.DEClash.Weighted>
0.1831

> <Gold.Chemscore.DEInternal.Weighted>
3.6433

> <Gold.Chemscore.Rot.Weighted>
7.4256

> <Gold.Chemscore.Internal.Correction.Weighted>
   9.000000E+99

> <Gold.Protein.RotatedTorsions>
[ 6907 6896 6895 6894 ] final -117.34 input  -60.11 | X-H torsion
[ 7974 7965 7964 7962 ] final   19.17 input  175.53 | X-H torsion
[ 8008 7997 7996 7995 ] final   73.00 input   59.86 | X-H torsion
[ 10167 10162 10161 10158 ] final  150.04 input  -65.29 | X-H torsion
[ 10718 10713 10712 10709 ] final -162.30 input   66.30 | X-H torsion
[ 10763 10752 10751 10750 ] final   33.54 input  -60.55 | X-H torsion
[ 11005 11000 10999 10996 ] final  -26.20 input  -57.11 | X-H torsion

> <Gold.Protein.ActiveResidues>
 VAL166  LYS551  ARG553  GLY616  TRP617  ASP618  TYR619  PRO620  LYS621  CYS622 
 ASP623  PHE694  ASN695  SER759  ASP760  ASP761  ALA762  ILE779  LEU786  VAL792 
 PHE793  MET794  SER795  GLU796  ALA797  LYS798  CYS799  TRP800  GLU811  SER814 

> <Gold.Protein.RotatedAtoms>
  150.8129  133.8390  159.3173 H   0  0  0  0  0  0  0  0  0  0  0  0  # atno 6907 bound_to 6896
  151.6171  135.1033  160.0103 H   0  0  0  0  0  0  0  0  0  0  0  0  # atno 6908 bound_to 6896
  152.4220  133.7092  159.6526 H   0  0  0  0  0  0  0  0  0  0  0  0  # atno 6909 bound_to 6896
  146.2159  139.8351  142.8652 H   0  0  0  0  0  0  0  0  0  0  0  0  # atno 7974 bound_to 7965
  155.7772  140.3483  155.5278 H   0  0  0  0  0  0  0  0  0  0  0  0  # atno 8008 bound_to 7997
  155.8764  140.0995  157.1536 H   0  0  0  0  0  0  0  0  0  0  0  0  # atno 8009 bound_to 7997
  154.4021  140.1331  156.4129 H   0  0  0  0  0  0  0  0  0  0  0  0  # atno 8010 bound_to 7997
  139.4854  144.5554  151.7327 H   0  0  0  0  0  0  0  0  0  0  0  0  # atno 10167 bound_to 10162
  156.6085  130.8840  151.2931 H   0  0  0  0  0  0  0  0  0  0  0  0  # atno 10718 bound_to 10713
  153.0207  135.6384  154.1528 H   0  0  0  0  0  0  0  0  0  0  0  0  # atno 10763 bound_to 10752
  154.1262  135.2843  155.3198 H   0  0  0  0  0  0  0  0  0  0  0  0  # atno 10764 bound_to 10752
  154.6227  135.5519  153.7655 H   0  0  0  0  0  0  0  0  0  0  0  0  # atno 10765 bound_to 10752
  140.9008  133.7525  156.0541 H   0  0  0  0  0  0  0  0  0  0  0  0  # atno 11005 bound_to 11000
  145.2957  141.0180  143.3637 LP  0  0  0  0  0  0  0  0  0  0  0  0  # atno 17320 bound_to 7965
  144.9044  139.4608  143.6617 LP  0  0  0  0  0  0  0  0  0  0  0  0  # atno 17321 bound_to 7965
  140.5115  144.1018  150.5996 LP  0  0  0  0  0  0  0  0  0  0  0  0  # atno 17342 bound_to 10162
  140.3945  143.2735  152.0021 LP  0  0  0  0  0  0  0  0  0  0  0  0  # atno 17343 bound_to 10162
  157.7261  130.9624  150.1640 LP  0  0  0  0  0  0  0  0  0  0  0  0  # atno 17370 bound_to 10713
  156.2410  130.3691  149.8337 LP  0  0  0  0  0  0  0  0  0  0  0  0  # atno 17371 bound_to 10713
  140.8233  134.3264  157.5374 LP  0  0  0  0  0  0  0  0  0  0  0  0  # atno 17394 bound_to 11000
  139.8742  134.9321  156.3546 LP  0  0  0  0  0  0  0  0  0  0  0  0  # atno 17395 bound_to 11000

$$$$
