AV-unprocessed.smi:1466|AV-procd|sdf|5953|dock3
  -GOLD-   22720 6 33D 1   1.00000     0.00000
 Structure written by MMmdl.
 49 50  0  0  0  0  0  0  0  0  2 V2000
  149.1599  128.2885  153.9962 C   0  0  0  0  0  0  0  0  0  0  0  0
  148.4107  129.3571  153.3486 N   0  0  0  0  0  0  0  0  0  0  0  0
  147.2562  129.0455  152.5133 C   0  0  0  0  0  0  0  0  0  0  0  0
  148.7993  130.7011  153.5363 C   0  0  0  0  0  0  0  0  0  0  0  0
  149.7702  131.1019  154.4867 C   0  0  0  0  0  0  0  0  0  0  0  0
  150.1063  132.4650  154.6193 C   0  0  0  0  0  0  0  0  0  0  0  0
  149.4605  133.4267  153.8047 C   0  0  0  0  0  0  0  0  0  0  0  0
  149.7346  134.8205  153.8491 N   0  0  0  0  0  0  0  0  0  0  0  0
  150.5645  135.4815  154.6745 C   0  0  0  0  0  0  0  0  0  0  0  0
  151.2390  134.9660  155.5658 O   0  0  0  0  0  0  0  0  0  0  0  0
  150.5554  136.7980  154.4223 N   0  0  0  0  0  0  0  0  0  0  0  0
  151.3293  137.7923  155.1564 C   0  0  0  0  0  0  0  0  0  0  0  0
  150.4843  138.4667  156.2531 C   0  0  0  0  0  0  0  0  0  0  0  0
  151.1960  139.5976  156.8596 N   0  0  0  0  0  0  0  0  0  0  0  0
  151.5615  140.6940  155.9492 C   0  0  0  0  0  0  0  0  0  0  0  0
  150.7456  141.9880  156.1737 C   0  0  0  0  0  0  0  0  0  0  0  0
  150.2672  142.2492  157.6157 C   0  0  0  0  0  0  0  0  0  0  0  0
  151.3681  142.1718  158.6946 C   0  0  0  0  0  0  0  0  0  0  0  0
  152.2034  140.8696  158.7406 C   0  0  0  0  0  0  0  0  0  0  0  0
  151.4841  139.6300  158.1838 C   0  0  0  0  0  0  0  0  0  0  0  0
  151.1962  138.7146  158.9555 O   0  0  0  0  0  0  0  0  0  0  0  0
  148.5141  132.9743  152.8637 C   0  0  0  0  0  0  0  0  0  0  0  0
  148.2223  131.6592  152.7703 N   0  3  0  0  0  0  0  0  0  0  0  0
  149.1706  128.4275  155.0777 H   0  0  0  0  0  0  0  0  0  0  0  0
  150.1888  128.2703  153.6358 H   0  0  0  0  0  0  0  0  0  0  0  0
  148.7174  127.3137  153.7911 H   0  0  0  0  0  0  0  0  0  0  0  0
  146.3500  129.4801  152.9361 H   0  0  0  0  0  0  0  0  0  0  0  0
  147.1042  127.9690  152.4320 H   0  0  0  0  0  0  0  0  0  0  0  0
  147.3935  129.4389  151.5054 H   0  0  0  0  0  0  0  0  0  0  0  0
  150.2712  130.3835  155.1177 H   0  0  0  0  0  0  0  0  0  0  0  0
  150.8639  132.7415  155.3362 H   0  0  0  0  0  0  0  0  0  0  0  0
  149.1871  135.3911  153.2217 H   0  0  0  0  0  0  0  0  0  0  0  0
  149.9695  137.1392  153.6741 H   0  0  0  0  0  0  0  0  0  0  0  0
  152.2220  137.3291  155.5804 H   0  0  0  0  0  0  0  0  0  0  0  0
  151.6783  138.5410  154.4449 H   0  0  0  0  0  0  0  0  0  0  0  0
  149.5319  138.7988  155.8373 H   0  0  0  0  0  0  0  0  0  0  0  0
  150.2190  137.7423  157.0254 H   0  0  0  0  0  0  0  0  0  0  0  0
  152.6252  140.9073  156.0562 H   0  0  0  0  0  0  0  0  0  0  0  0
  151.4613  140.3841  154.9082 H   0  0  0  0  0  0  0  0  0  0  0  0
  151.3321  142.8382  155.8236 H   0  0  0  0  0  0  0  0  0  0  0  0
  149.8636  141.9563  155.5332 H   0  0  0  0  0  0  0  0  0  0  0  0
  149.8028  143.2348  157.6575 H   0  0  0  0  0  0  0  0  0  0  0  0
  149.4666  141.5507  157.8627 H   0  0  0  0  0  0  0  0  0  0  0  0
  152.0475  143.0150  158.5665 H   0  0  0  0  0  0  0  0  0  0  0  0
  150.9004  142.3211  159.6684 H   0  0  0  0  0  0  0  0  0  0  0  0
  153.1393  141.0059  158.1998 H   0  0  0  0  0  0  0  0  0  0  0  0
  152.5043  140.6747  159.7707 H   0  0  0  0  0  0  0  0  0  0  0  0
  147.9758  133.6226  152.1872 H   0  0  0  0  0  0  0  0  0  0  0  0
  147.5262  131.3707  152.0827 H   0  0  0  0  0  0  0  0  0  0  0  0
  1  2  1  0  0  0  0
  1 24  1  0  0  0  0
  1 25  1  0  0  0  0
  1 26  1  0  0  0  0
  2  3  1  0  0  0  0
  2  4  1  0  0  0  0
  3 27  1  0  0  0  0
  3 28  1  0  0  0  0
  3 29  1  0  0  0  0
  4 23  1  0  0  0  0
  4  5  2  0  0  0  0
  5  6  1  0  0  0  0
  5 30  1  0  0  0  0
  6  7  2  0  0  0  0
  6 31  1  0  0  0  0
  7  8  1  0  0  0  0
  7 22  1  0  0  0  0
  8  9  1  0  0  0  0
  8 32  1  0  0  0  0
  9 10  2  0  0  0  0
  9 11  1  0  0  0  0
 11 12  1  0  0  0  0
 11 33  1  0  0  0  0
 12 13  1  0  0  0  0
 12 34  1  0  0  0  0
 12 35  1  0  0  0  0
 13 14  1  0  0  0  0
 13 36  1  0  0  0  0
 13 37  1  0  0  0  0
 14 20  1  0  0  0  0
 14 15  1  0  0  0  0
 15 16  1  0  0  0  0
 15 38  1  0  0  0  0
 15 39  1  0  0  0  0
 16 17  1  0  0  0  0
 16 40  1  0  0  0  0
 16 41  1  0  0  0  0
 17 18  1  0  0  0  0
 17 42  1  0  0  0  0
 17 43  1  0  0  0  0
 18 19  1  0  0  0  0
 18 44  1  0  0  0  0
 18 45  1  0  0  0  0
 19 20  1  0  0  0  0
 19 46  1  0  0  0  0
 19 47  1  0  0  0  0
 20 21  2  0  0  0  0
 22 23  2  0  0  0  0
 22 48  1  0  0  0  0
 23 49  1  0  0  0  0
M  CHG  1  23   1
M  END
> <s_m_source_file>
AV-unprocessed.smi

> <i_m_source_file_index>
1466

> <i_lp_mmshare_version>
43012

> <i_f3d_flags>
0

> <s_epik_input>
W0NIM11OKFtDSDNdKWMxW2NIXVtjSF1jKFtjSF1uMSlbTkhdQyg9TylbTkhdW0NIMl1bQ0gyXU4yW0NIMl1bQ0gyXVtDSDJdW0NIMl1bQ0gyXUMyPU8=

> <s_epik_cmdline>
J2VwaWtfcHl0aG9uJywgJy1waCcsICc3LjAnLCAnLXRuJywgJzgnLCAnLW1hJywgJzIwMCcsICctbWV0YWxfYmluZGluZycsICctaW1hZScsICc8aW5maWxlLm1hZT4nLCAnLW9tYWUnLCAnPG91dGZpbGUubWFlPic=

> <r_lp_tautomer_probability>
0.999994

> <r_epik_Ionization_Penalty>
0.269687

> <r_epik_Ionization_Penalty_Charging>
0.269668

> <r_epik_Ionization_Penalty_Neutral>
1.89217e-05

> <r_epik_State_Penalty>
0.261755

> <r_epik_Charging_Adjusted_Penalty>
0.531423

> <i_epik_Tot_Q>
1

> <i_epik_Tot_abs_Q>
1

> <r_epik_Metal_State_Penalty>
0.546954

> <b_epik_Metal_Only>
0

> <s_lp_Force_Field>
OPLS_2005

> <r_lp_Energy>
31.5815

> <b_lp_Chiralities_Consistent>
1

> <s_lp_Variant>
AV-unprocessed.smi:1466-1

> <Gold.Version>
5.8.1

> <Gold.Id.Protein>
6NUR|6NUR_protein|mol2

> <Gold.PLP.Fitness>
45.4017

> <Gold.PLP.PLP>
-39.0882

> <Gold.PLP.part.hbond>
-5.6402

> <Gold.PLP.part.metal>
0.0000

> <Gold.PLP.part.buried>
-1.6642

> <Gold.PLP.part.nonpolar>
-31.2115

> <Gold.PLP.part.repulsive>
0.1748

> <Gold.PLP.ligand.clash>
0.0000

> <Gold.PLP.ligand.torsion>
0.2282

> <Gold.PLP.Chemscore.Hbond>
2.2450

> <Gold.PLP.Chemscore.CHOScore>
0.0000

> <Gold.PLP.Chemscore.Metal>
0.0000

> <Gold.Chemscore.Hbonds>
donor molecule, donor type, donor heavy atom, donor atom, acceptor molecule, acceptor atom, score
      L1  H     8    32       P1  7948  1.00
      L1  H    11    33       P1  7948  0.35
      P1  H 10752 10763       L1    10  0.84

> <Gold.PLP.Chemscore.Internal.Correction>
0.0350

> <Gold.Rescore>
     Score         DG    S(hbond)    S(metal)    S(lipo)     H(rot)  DE(clash)    DE(int)     intcor
     13.61     -15.34       1.41        0.00      76.92       1.50       0.29       1.44       ----

> <Gold.Chemscore.Fitness>
13.6119

> <Gold.Chemscore.DG>
-15.3412

> <Gold.Chemscore.ZeroCoef>
-5.4800

> <Gold.Chemscore.Hbond>
1.4113

> <Gold.Chemscore.Metal>
0.0000

> <Gold.Chemscore.Lipo>
76.9191

> <Gold.Chemscore.Internal_Hbond>
0.0000

> <Gold.Chemscore.DEClash>
0.2887

> <Gold.Chemscore.DEInternal>
1.4405

> <Gold.Chemscore.Rot>
1.5047

> <Gold.Chemscore.Internal.Correction>
   9.000000E+99

> <Gold.Chemscore.Hbonds>
donor molecule, donor type, donor heavy atom, donor atom, acceptor molecule, acceptor atom, score
      L1  H     8    32       P1  7948  0.24
      L1  H    11    33       P1  7948  0.16
      L1  H    23    49       P1 10747  0.01
      P1  H 10752 10763       L1    10  0.18

> <Gold.Chemscore.Hbond.Weighted>
-4.7138

> <Gold.Chemscore.Metal.Weighted>
-0.0000

> <Gold.Chemscore.Lipo.Weighted>
-8.9995

> <Gold.Chemscore.Internal_Hbond.Weighted>
0.0000

> <Gold.Chemscore.DEClash.Weighted>
0.2887

> <Gold.Chemscore.DEInternal.Weighted>
1.4405

> <Gold.Chemscore.Rot.Weighted>
3.8522

> <Gold.Chemscore.Internal.Correction.Weighted>
   9.000000E+99

> <Gold.Protein.RotatedTorsions>
[ 6907 6896 6895 6894 ] final  105.07 input  -60.11 | X-H torsion
[ 7974 7965 7964 7962 ] final  178.88 input  175.53 | X-H torsion
[ 8008 7997 7996 7995 ] final  116.36 input   59.86 | X-H torsion
[ 10167 10162 10161 10158 ] final  -56.82 input  -65.29 | X-H torsion
[ 10718 10713 10712 10709 ] final  -29.31 input   66.30 | X-H torsion
[ 10763 10752 10751 10750 ] final   79.61 input  -60.55 | X-H torsion
[ 11005 11000 10999 10996 ] final  158.59 input  -57.11 | X-H torsion

> <Gold.Protein.ActiveResidues>
 VAL166  LYS551  ARG553  GLY616  TRP617  ASP618  TYR619  PRO620  LYS621  CYS622 
 ASP623  PHE694  ASN695  SER759  ASP760  ASP761  ALA762  ILE779  LEU786  VAL792 
 PHE793  MET794  SER795  GLU796  ALA797  LYS798  CYS799  TRP800  GLU811  SER814 

> <Gold.Protein.RotatedAtoms>
  152.5243  133.9582  159.7704 H   0  0  0  0  0  0  0  0  0  0  0  0  # atno 6907 bound_to 6896
  150.9878  133.6172  159.2720 H   0  0  0  0  0  0  0  0  0  0  0  0  # atno 6908 bound_to 6896
  151.3326  135.0851  159.9397 H   0  0  0  0  0  0  0  0  0  0  0  0  # atno 6909 bound_to 6896
  144.7151  140.0463  143.6436 H   0  0  0  0  0  0  0  0  0  0  0  0  # atno 7974 bound_to 7965
  156.2435  140.2919  156.0511 H   0  0  0  0  0  0  0  0  0  0  0  0  # atno 8008 bound_to 7997
  155.1880  140.0406  157.2912 H   0  0  0  0  0  0  0  0  0  0  0  0  # atno 8009 bound_to 7997
  154.6214  140.2477  155.7552 H   0  0  0  0  0  0  0  0  0  0  0  0  # atno 8010 bound_to 7997
  140.6295  143.2453  151.5278 H   0  0  0  0  0  0  0  0  0  0  0  0  # atno 10167 bound_to 10162
  156.4141  130.4414  149.7231 H   0  0  0  0  0  0  0  0  0  0  0  0  # atno 10718 bound_to 10713
  153.0967  135.4833  154.8791 H   0  0  0  0  0  0  0  0  0  0  0  0  # atno 10763 bound_to 10752
  154.7332  135.3065  154.8858 H   0  0  0  0  0  0  0  0  0  0  0  0  # atno 10764 bound_to 10752
  153.9488  135.6826  153.4797 H   0  0  0  0  0  0  0  0  0  0  0  0  # atno 10765 bound_to 10752
  140.1880  134.8428  157.2879 H   0  0  0  0  0  0  0  0  0  0  0  0  # atno 11005 bound_to 11000
  145.9981  139.3069  143.0944 LP  0  0  0  0  0  0  0  0  0  0  0  0  # atno 17320 bound_to 7965
  145.8825  140.9354  143.0594 LP  0  0  0  0  0  0  0  0  0  0  0  0  # atno 17321 bound_to 7965
  139.5511  144.2394  152.1531 LP  0  0  0  0  0  0  0  0  0  0  0  0  # atno 17342 bound_to 10162
  140.1634  144.5004  150.6619 LP  0  0  0  0  0  0  0  0  0  0  0  0  # atno 17343 bound_to 10162
  156.4198  130.7763  151.2779 LP  0  0  0  0  0  0  0  0  0  0  0  0  # atno 17370 bound_to 10713
  157.7507  131.0186  150.3634 LP  0  0  0  0  0  0  0  0  0  0  0  0  # atno 17371 bound_to 10713
  140.2192  134.4044  155.7574 LP  0  0  0  0  0  0  0  0  0  0  0  0  # atno 17394 bound_to 11000
  141.2225  133.7157  156.8463 LP  0  0  0  0  0  0  0  0  0  0  0  0  # atno 17395 bound_to 11000

$$$$
