AV-unprocessed.smi:1688|AV-procd|sdf|6771|dock5
  -GOLD-   22720 7533D 1   1.00000     0.00000
 Structure written by MMmdl.
 36 38  0  0  0  0  0  0  0  0  2 V2000
  151.9140  137.6723  157.2995 O   0  0  0  0  0  0  0  0  0  0  0  0
  151.3039  138.9044  156.9608 C   0  0  0  0  0  0  0  0  0  0  0  0
  151.6857  139.9390  158.0517 C   0  0  0  0  0  0  0  0  0  0  0  0
  151.3227  141.3304  157.7330 N   0  0  0  0  0  0  0  0  0  0  0  0
  150.5217  141.8136  156.7440 C   0  0  0  0  0  0  0  0  0  0  0  0
  150.4978  143.1701  156.8570 N   0  3  0  0  0  0  0  0  0  0  0  0
  151.3021  143.5626  157.9283 C   0  0  0  0  0  0  0  0  0  0  0  0
  151.5920  144.8268  158.4325 C   0  0  0  0  0  0  0  0  0  0  0  0
  152.4588  144.8815  159.5434 C   0  0  0  0  0  0  0  0  0  0  0  0
  153.0043  143.7101  160.1073 C   0  0  0  0  0  0  0  0  0  0  0  0
  152.7053  142.4338  159.5864 C   0  0  0  0  0  0  0  0  0  0  0  0
  151.8419  142.3866  158.4920 C   0  0  0  0  0  0  0  0  0  0  0  0
  151.8627  139.3575  155.5911 C   0  0  0  0  0  0  0  0  0  0  0  0
  151.4439  138.4365  154.4312 C   0  0  0  0  0  0  0  0  0  0  0  0
  149.9187  138.2800  154.3679 C   0  0  0  0  0  0  0  0  0  0  0  0
  149.3665  137.7615  155.7025 C   0  0  0  0  0  0  0  0  0  0  0  0
  149.7738  138.6730  156.8746 C   0  0  0  0  0  0  0  0  0  0  0  0
  152.7529  137.8522  157.6952 H   0  0  0  0  0  0  0  0  0  0  0  0
  151.2528  139.6744  159.0172 H   0  0  0  0  0  0  0  0  0  0  0  0
  152.7665  139.9288  158.1994 H   0  0  0  0  0  0  0  0  0  0  0  0
  149.9949  141.2257  156.0063 H   0  0  0  0  0  0  0  0  0  0  0  0
  151.1776  145.7259  158.0005 H   0  0  0  0  0  0  0  0  0  0  0  0
  152.7110  145.8412  159.9710 H   0  0  0  0  0  0  0  0  0  0  0  0
  153.6646  143.7914  160.9585 H   0  0  0  0  0  0  0  0  0  0  0  0
  153.1274  141.5440  160.0287 H   0  0  0  0  0  0  0  0  0  0  0  0
  151.5061  140.3658  155.3754 H   0  0  0  0  0  0  0  0  0  0  0  0
  152.9506  139.4262  155.6303 H   0  0  0  0  0  0  0  0  0  0  0  0
  151.8133  138.8396  153.4878 H   0  0  0  0  0  0  0  0  0  0  0  0
  151.9088  137.4569  154.5484 H   0  0  0  0  0  0  0  0  0  0  0  0
  149.4600  139.2401  154.1281 H   0  0  0  0  0  0  0  0  0  0  0  0
  149.6480  137.5970  153.5623 H   0  0  0  0  0  0  0  0  0  0  0  0
  148.2798  137.6910  155.6503 H   0  0  0  0  0  0  0  0  0  0  0  0
  149.7302  136.7485  155.8791 H   0  0  0  0  0  0  0  0  0  0  0  0
  149.3960  138.2431  157.8027 H   0  0  0  0  0  0  0  0  0  0  0  0
  149.2732  139.6351  156.7590 H   0  0  0  0  0  0  0  0  0  0  0  0
  149.9715  143.7810  156.2454 H   0  0  0  0  0  0  0  0  0  0  0  0
  1  2  1  0  0  0  0
  1 18  1  0  0  0  0
  2 17  1  0  0  0  0
  2  3  1  0  0  0  0
  2 13  1  0  0  0  0
  3  4  1  0  0  0  0
  3 19  1  0  0  0  0
  3 20  1  0  0  0  0
  4 12  1  0  0  0  0
  4  5  1  0  0  0  0
  5  6  2  0  0  0  0
  5 21  1  0  0  0  0
  6  7  1  0  0  0  0
  6 36  1  0  0  0  0
  7 12  2  0  0  0  0
  7  8  1  0  0  0  0
  8  9  2  0  0  0  0
  8 22  1  0  0  0  0
  9 10  1  0  0  0  0
  9 23  1  0  0  0  0
 10 11  2  0  0  0  0
 10 24  1  0  0  0  0
 11 12  1  0  0  0  0
 11 25  1  0  0  0  0
 13 14  1  0  0  0  0
 13 26  1  0  0  0  0
 13 27  1  0  0  0  0
 14 15  1  0  0  0  0
 14 28  1  0  0  0  0
 14 29  1  0  0  0  0
 15 16  1  0  0  0  0
 15 30  1  0  0  0  0
 15 31  1  0  0  0  0
 16 17  1  0  0  0  0
 16 32  1  0  0  0  0
 16 33  1  0  0  0  0
 17 34  1  0  0  0  0
 17 35  1  0  0  0  0
M  CHG  1   6   1
M  END
> <s_m_source_file>
AV-unprocessed.smi

> <i_m_source_file_index>
1688

> <i_lp_mmshare_version>
43012

> <i_f3d_flags>
0

> <s_epik_input>
W0NIMl0xW0NIMl1bQ0gyXVtDSDJdW0NIMl1DMShbT0hdKVtDSDJdbihbY0hdbjIpYyhjMjMpW2NIXVtjSF1bY0hdW2NIXTM=

> <s_epik_cmdline>
J2VwaWtfcHl0aG9uJywgJy1waCcsICc3LjAnLCAnLXRuJywgJzgnLCAnLW1hJywgJzIwMCcsICctbWV0YWxfYmluZGluZycsICctaW1hZScsICc8aW5maWxlLm1hZT4nLCAnLW9tYWUnLCAnPG91dGZpbGUubWFlPic=

> <r_epik_Ionization_Penalty>
1.01013

> <r_epik_Ionization_Penalty_Charging>
1.01013

> <r_epik_Ionization_Penalty_Neutral>
4.42495e-08

> <r_epik_State_Penalty>
1.05948

> <r_epik_Charging_Adjusted_Penalty>
2.06961

> <i_epik_Tot_Q>
1

> <i_epik_Tot_abs_Q>
1

> <r_epik_Metal_State_Penalty>
5.0439

> <b_epik_Metal_Only>
0

> <s_lp_Force_Field>
OPLS_2005

> <r_lp_Energy>
19.8259

> <b_lp_Chiralities_Consistent>
1

> <s_lp_Variant>
AV-unprocessed.smi:1688-2

> <Gold.Version>
5.8.1

> <Gold.Id.Protein>
6NUR|6NUR_protein|mol2

> <Gold.PLP.Fitness>
44.7417

> <Gold.PLP.PLP>
-39.1492

> <Gold.PLP.part.hbond>
-1.0000

> <Gold.PLP.part.metal>
0.0000

> <Gold.PLP.part.buried>
-5.9511

> <Gold.PLP.part.nonpolar>
-32.6003

> <Gold.PLP.part.repulsive>
0.0380

> <Gold.PLP.ligand.clash>
0.0000

> <Gold.PLP.ligand.torsion>
0.2057

> <Gold.PLP.Chemscore.Hbond>
2.0000

> <Gold.PLP.Chemscore.CHOScore>
0.0000

> <Gold.PLP.Chemscore.Metal>
0.0000

> <Gold.Chemscore.Hbonds>
donor molecule, donor type, donor heavy atom, donor atom, acceptor molecule, acceptor atom, score
      L1  H     6    36       P1  8028  2.00

> <Gold.PLP.Chemscore.Internal.Correction>
0.0039

> <Gold.Rescore>
     Score         DG    S(hbond)    S(metal)    S(lipo)     H(rot)  DE(clash)    DE(int)     intcor
     16.64     -17.05       0.98        0.00     107.05       1.65       0.00       0.40       ----

> <Gold.Chemscore.Fitness>
16.6420

> <Gold.Chemscore.DG>
-17.0454

> <Gold.Chemscore.ZeroCoef>
-5.4800

> <Gold.Chemscore.Hbond>
0.9812

> <Gold.Chemscore.Metal>
0.0000

> <Gold.Chemscore.Lipo>
107.0478

> <Gold.Chemscore.Internal_Hbond>
0.0000

> <Gold.Chemscore.DEClash>
0.0000

> <Gold.Chemscore.DEInternal>
0.4035

> <Gold.Chemscore.Rot>
1.6548

> <Gold.Chemscore.Internal.Correction>
   9.000000E+99

> <Gold.Chemscore.Hbonds>
donor molecule, donor type, donor heavy atom, donor atom, acceptor molecule, acceptor atom, score
      L1  H     6    36       P1  8028  0.94

> <Gold.Chemscore.Hbond.Weighted>
-3.2772

> <Gold.Chemscore.Metal.Weighted>
-0.0000

> <Gold.Chemscore.Lipo.Weighted>
-12.5246

> <Gold.Chemscore.Internal_Hbond.Weighted>
0.0000

> <Gold.Chemscore.DEClash.Weighted>
0.0000

> <Gold.Chemscore.DEInternal.Weighted>
0.4035

> <Gold.Chemscore.Rot.Weighted>
4.2364

> <Gold.Chemscore.Internal.Correction.Weighted>
   9.000000E+99

> <Gold.Protein.RotatedTorsions>
[ 6907 6896 6895 6894 ] final -150.64 input  -60.11 | X-H torsion
[ 7974 7965 7964 7962 ] final -140.61 input  175.53 | X-H torsion
[ 8008 7997 7996 7995 ] final  169.60 input   59.86 | X-H torsion
[ 10167 10162 10161 10158 ] final  102.65 input  -65.29 | X-H torsion
[ 10718 10713 10712 10709 ] final   61.77 input   66.30 | X-H torsion
[ 10763 10752 10751 10750 ] final -100.02 input  -60.55 | X-H torsion
[ 11005 11000 10999 10996 ] final  -32.76 input  -57.11 | X-H torsion

> <Gold.Protein.ActiveResidues>
 VAL166  LYS551  ARG553  GLY616  TRP617  ASP618  TYR619  PRO620  LYS621  CYS622 
 ASP623  PHE694  ASN695  SER759  ASP760  ASP761  ALA762  ILE779  LEU786  VAL792 
 PHE793  MET794  SER795  GLU796  ALA797  LYS798  CYS799  TRP800  GLU811  SER814 

> <Gold.Protein.RotatedAtoms>
  151.2015  133.4608  159.2596 H   0  0  0  0  0  0  0  0  0  0  0  0  # atno 6907 bound_to 6896
  151.1064  135.0002  159.8483 H   0  0  0  0  0  0  0  0  0  0  0  0  # atno 6908 bound_to 6896
  152.5447  134.1938  159.8737 H   0  0  0  0  0  0  0  0  0  0  0  0  # atno 6909 bound_to 6896
  144.8583  140.6179  143.5345 H   0  0  0  0  0  0  0  0  0  0  0  0  # atno 7974 bound_to 7965
  156.1442  140.1560  156.8873 H   0  0  0  0  0  0  0  0  0  0  0  0  # atno 8008 bound_to 7997
  154.5014  140.0824  156.7843 H   0  0  0  0  0  0  0  0  0  0  0  0  # atno 8009 bound_to 7997
  155.4020  140.3415  155.4260 H   0  0  0  0  0  0  0  0  0  0  0  0  # atno 8010 bound_to 7997
  139.7332  144.7031  151.0690 H   0  0  0  0  0  0  0  0  0  0  0  0  # atno 10167 bound_to 10162
  157.5852  130.9013  149.9502 H   0  0  0  0  0  0  0  0  0  0  0  0  # atno 10718 bound_to 10713
  154.7545  135.4951  153.9349 H   0  0  0  0  0  0  0  0  0  0  0  0  # atno 10763 bound_to 10752
  153.1180  135.6725  153.9392 H   0  0  0  0  0  0  0  0  0  0  0  0  # atno 10764 bound_to 10752
  153.9132  135.3096  155.3427 H   0  0  0  0  0  0  0  0  0  0  0  0  # atno 10765 bound_to 10752
  140.9579  133.7182  156.1322 H   0  0  0  0  0  0  0  0  0  0  0  0  # atno 11005 bound_to 11000
  145.4362  139.1542  143.3995 LP  0  0  0  0  0  0  0  0  0  0  0  0  # atno 17320 bound_to 7965
  146.2841  140.4481  142.8765 LP  0  0  0  0  0  0  0  0  0  0  0  0  # atno 17321 bound_to 7965
  140.7774  143.5017  150.9763 LP  0  0  0  0  0  0  0  0  0  0  0  0  # atno 17342 bound_to 10162
  139.8705  143.7198  152.3166 LP  0  0  0  0  0  0  0  0  0  0  0  0  # atno 17343 bound_to 10162
  156.0900  130.3664  150.0412 LP  0  0  0  0  0  0  0  0  0  0  0  0  # atno 17370 bound_to 10713
  156.8545  130.9470  151.3623 LP  0  0  0  0  0  0  0  0  0  0  0  0  # atno 17371 bound_to 10713
  140.7510  134.4045  157.5541 LP  0  0  0  0  0  0  0  0  0  0  0  0  # atno 17394 bound_to 11000
  139.8868  134.8899  156.2563 LP  0  0  0  0  0  0  0  0  0  0  0  0  # atno 17395 bound_to 11000

$$$$
