AV-unprocessed.smi:2771|AV-procd|sdf|10662|dock4
  -GOLD-   2272015103D 1   1.00000     0.00000
 Structure written by MMmdl.
 43 44  0  0  0  0  0  0  0  0  1 V2000
  153.4005  140.3330  159.8872 C   0  0  0  0  0  0  0  0  0  0  0  0
  152.8723  141.6609  159.3869 C   0  0  0  0  0  0  0  0  0  0  0  0
  153.2988  142.8741  159.9617 C   0  0  0  0  0  0  0  0  0  0  0  0
  152.7688  144.0722  159.4501 C   0  0  0  0  0  0  0  0  0  0  0  0
  151.8404  144.0082  158.3928 C   0  0  0  0  0  0  0  0  0  0  0  0
  151.4636  142.7489  157.8739 C   0  0  0  0  0  0  0  0  0  0  0  0
  150.5226  142.7914  156.8107 N   0  0  0  0  0  0  0  0  0  0  0  0
  150.1462  141.7911  155.9947 C   0  0  0  0  0  0  0  0  0  0  0  0
  150.5672  140.6349  156.0433 O   0  0  0  0  0  0  0  0  0  0  0  0
  149.2322  142.2072  155.1064 N   0  0  0  0  0  0  0  0  0  0  0  0
  148.6067  141.3714  154.0858 C   0  0  0  0  0  0  0  0  0  0  0  0
  147.1249  141.7574  153.8660 C   0  0  2  0  0  0  0  0  0  0  0  0
  147.0910  143.1704  153.7892 O   0  0  0  0  0  0  0  0  0  0  0  0
  146.1626  141.3204  155.0065 C   0  0  0  0  0  0  0  0  0  0  0  0
  146.4811  142.0076  156.3586 C   0  0  0  0  0  0  0  0  0  0  0  0
  145.5430  141.5457  157.4862 C   0  0  0  0  0  0  0  0  0  0  0  0
  145.5765  140.0221  157.6560 C   0  0  0  0  0  0  0  0  0  0  0  0
  145.2421  139.3244  156.3321 C   0  0  0  0  0  0  0  0  0  0  0  0
  146.1854  139.7832  155.2090 C   0  0  0  0  0  0  0  0  0  0  0  0
  151.9807  141.5994  158.3747 N   0  0  0  0  0  0  0  0  0  0  0  0
  154.2663  140.4718  160.5350 H   0  0  0  0  0  0  0  0  0  0  0  0
  153.7015  139.7012  159.0509 H   0  0  0  0  0  0  0  0  0  0  0  0
  152.6295  139.8098  160.4531 H   0  0  0  0  0  0  0  0  0  0  0  0
  154.0123  142.8889  160.7724 H   0  0  0  0  0  0  0  0  0  0  0  0
  153.0682  145.0250  159.8610 H   0  0  0  0  0  0  0  0  0  0  0  0
  151.4240  144.9194  157.9886 H   0  0  0  0  0  0  0  0  0  0  0  0
  150.0837  143.6867  156.6552 H   0  0  0  0  0  0  0  0  0  0  0  0
  148.9427  143.1736  155.1394 H   0  0  0  0  0  0  0  0  0  0  0  0
  149.1949  141.5481  153.1888 H   0  0  0  0  0  0  0  0  0  0  0  0
  148.7151  140.3078  154.3071 H   0  0  0  0  0  0  0  0  0  0  0  0
  146.7689  141.3447  152.9208 H   0  0  0  0  0  0  0  0  0  0  0  0
  147.7448  143.5188  154.3768 H   0  0  0  0  0  0  0  0  0  0  0  0
  145.1491  141.6054  154.7188 H   0  0  0  0  0  0  0  0  0  0  0  0
  147.5156  141.8049  156.6391 H   0  0  0  0  0  0  0  0  0  0  0  0
  146.3892  143.0891  156.2802 H   0  0  0  0  0  0  0  0  0  0  0  0
  145.8232  142.0288  158.4228 H   0  0  0  0  0  0  0  0  0  0  0  0
  144.5238  141.8662  157.2665 H   0  0  0  0  0  0  0  0  0  0  0  0
  146.5650  139.7115  157.9970 H   0  0  0  0  0  0  0  0  0  0  0  0
  144.8700  139.7162  158.4282 H   0  0  0  0  0  0  0  0  0  0  0  0
  145.3099  138.2430  156.4552 H   0  0  0  0  0  0  0  0  0  0  0  0
  144.2098  139.5395  156.0534 H   0  0  0  0  0  0  0  0  0  0  0  0
  145.8997  139.2677  154.2920 H   0  0  0  0  0  0  0  0  0  0  0  0
  147.2021  139.4592  155.4362 H   0  0  0  0  0  0  0  0  0  0  0  0
  1  2  1  0  0  0  0
  1 21  1  0  0  0  0
  1 22  1  0  0  0  0
  1 23  1  0  0  0  0
  2 20  1  0  0  0  0
  2  3  2  0  0  0  0
  3  4  1  0  0  0  0
  3 24  1  0  0  0  0
  4  5  2  0  0  0  0
  4 25  1  0  0  0  0
  5  6  1  0  0  0  0
  5 26  1  0  0  0  0
  6  7  1  0  0  0  0
  6 20  2  0  0  0  0
  7  8  1  0  0  0  0
  7 27  1  0  0  0  0
  8  9  2  0  0  0  0
  8 10  1  0  0  0  0
 10 11  1  0  0  0  0
 10 28  1  0  0  0  0
 11 12  1  0  0  0  0
 11 29  1  0  0  0  0
 11 30  1  0  0  0  0
 12 13  1  0  0  0  0
 12 14  1  0  0  0  0
 12 31  1  0  0  0  0
 13 32  1  0  0  0  0
 14 19  1  0  0  0  0
 14 15  1  0  0  0  0
 14 33  1  0  0  0  0
 15 16  1  0  0  0  0
 15 34  1  0  0  0  0
 15 35  1  0  0  0  0
 16 17  1  0  0  0  0
 16 36  1  0  0  0  0
 16 37  1  0  0  0  0
 17 18  1  0  0  0  0
 17 38  1  0  0  0  0
 17 39  1  0  0  0  0
 18 19  1  0  0  0  0
 18 40  1  0  0  0  0
 18 41  1  0  0  0  0
 19 42  1  0  0  0  0
 19 43  1  0  0  0  0
M  END
> <s_m_source_file>
AV-unprocessed.smi

> <i_m_source_file_index>
2771

> <i_lp_mmshare_version>
43012

> <i_f3d_flags>
0

> <s_epik_input>
W0NIM11jMVtjSF1bY0hdW2NIXWMobjEpW05IXUMoPU8pW05IXVtDSDJdW0NASF0oW09IXSlbQ0hdMltDSDJdW0NIMl1bQ0gyXVtDSDJdW0NIMl0y

> <s_epik_cmdline>
J2VwaWtfcHl0aG9uJywgJy1waCcsICc3LjAnLCAnLXRuJywgJzgnLCAnLW1hJywgJzIwMCcsICctbWV0YWxfYmluZGluZycsICctaW1hZScsICc8aW5maWxlLm1hZT4nLCAnLW9tYWUnLCAnPG91dGZpbGUubWFlPic=

> <r_lp_tautomer_probability>
1

> <r_epik_Ionization_Penalty>
8.92802e-05

> <r_epik_Ionization_Penalty_Charging>
0

> <r_epik_Ionization_Penalty_Neutral>
8.92802e-05

> <r_epik_State_Penalty>
-0

> <r_epik_Charging_Adjusted_Penalty>
0

> <i_epik_Tot_Q>
0

> <i_epik_Tot_abs_Q>
0

> <r_epik_Metal_State_Penalty>
-0

> <b_epik_Metal_Only>
0

> <s_lp_Force_Field>
OPLS_2005

> <r_lp_Energy>
16.1378

> <b_lp_Chiralities_Consistent>
1

> <s_lp_Variant>
AV-unprocessed.smi:2771-1

> <Gold.Version>
5.8.1

> <Gold.Id.Protein>
6NUR|6NUR_protein|mol2

> <Gold.PLP.Fitness>
44.6406

> <Gold.PLP.PLP>
-36.3006

> <Gold.PLP.part.hbond>
-4.0000

> <Gold.PLP.part.metal>
0.0000

> <Gold.PLP.part.buried>
-3.4459

> <Gold.PLP.part.nonpolar>
-28.6674

> <Gold.PLP.part.repulsive>
0.2766

> <Gold.PLP.ligand.clash>
0.0000

> <Gold.PLP.ligand.torsion>
0.3068

> <Gold.PLP.Chemscore.Hbond>
2.9760

> <Gold.PLP.Chemscore.CHOScore>
0.0000

> <Gold.PLP.Chemscore.Metal>
0.0000

> <Gold.Chemscore.Hbonds>
donor molecule, donor type, donor heavy atom, donor atom, acceptor molecule, acceptor atom, score
      L1  H     7    27       P1  8028  0.99
      L1  H    10    28       P1  8028  1.00
      L1  H    13    32       P1  8028  0.98

> <Gold.PLP.Chemscore.Internal.Correction>
0.0257

> <Gold.Rescore>
     Score         DG    S(hbond)    S(metal)    S(lipo)     H(rot)  DE(clash)    DE(int)     intcor
     16.70     -18.64       2.64        0.00      79.93       1.95       0.23       1.71       ----

> <Gold.Chemscore.Fitness>
16.6992

> <Gold.Chemscore.DG>
-18.6408

> <Gold.Chemscore.ZeroCoef>
-5.4800

> <Gold.Chemscore.Hbond>
2.6376

> <Gold.Chemscore.Metal>
0.0000

> <Gold.Chemscore.Lipo>
79.9341

> <Gold.Chemscore.Internal_Hbond>
0.0000

> <Gold.Chemscore.DEClash>
0.2345

> <Gold.Chemscore.DEInternal>
1.7070

> <Gold.Chemscore.Rot>
1.9536

> <Gold.Chemscore.Internal.Correction>
   9.000000E+99

> <Gold.Chemscore.Hbonds>
donor molecule, donor type, donor heavy atom, donor atom, acceptor molecule, acceptor atom, score
      L1  H     7    27       P1  8028  0.93
      L1  H    10    28       P1  8028  0.99
      L1  H    13    32       P1  8028  0.46

> <Gold.Chemscore.Hbond.Weighted>
-8.8097

> <Gold.Chemscore.Metal.Weighted>
-0.0000

> <Gold.Chemscore.Lipo.Weighted>
-9.3523

> <Gold.Chemscore.Internal_Hbond.Weighted>
0.0000

> <Gold.Chemscore.DEClash.Weighted>
0.2345

> <Gold.Chemscore.DEInternal.Weighted>
1.7070

> <Gold.Chemscore.Rot.Weighted>
5.0013

> <Gold.Chemscore.Internal.Correction.Weighted>
   9.000000E+99

> <Gold.Protein.RotatedTorsions>
[ 6907 6896 6895 6894 ] final -156.50 input  -60.11 | X-H torsion
[ 7974 7965 7964 7962 ] final  -84.30 input  175.53 | X-H torsion
[ 8008 7997 7996 7995 ] final  167.34 input   59.86 | X-H torsion
[ 10167 10162 10161 10158 ] final  111.14 input  -65.29 | X-H torsion
[ 10718 10713 10712 10709 ] final -112.78 input   66.30 | X-H torsion
[ 10763 10752 10751 10750 ] final -158.33 input  -60.55 | X-H torsion
[ 11005 11000 10999 10996 ] final  134.06 input  -57.11 | X-H torsion

> <Gold.Protein.ActiveResidues>
 VAL166  LYS551  ARG553  GLY616  TRP617  ASP618  TYR619  PRO620  LYS621  CYS622 
 ASP623  PHE694  ASN695  SER759  ASP760  ASP761  ALA762  ILE779  LEU786  VAL792 
 PHE793  MET794  SER795  GLU796  ALA797  LYS798  CYS799  TRP800  GLU811  SER814 

> <Gold.Protein.RotatedAtoms>
  151.2886  133.4176  159.2631 H   0  0  0  0  0  0  0  0  0  0  0  0  # atno 6907 bound_to 6896
  151.0297  134.9530  159.8115 H   0  0  0  0  0  0  0  0  0  0  0  0  # atno 6908 bound_to 6896
  152.5343  134.2847  159.9073 H   0  0  0  0  0  0  0  0  0  0  0  0  # atno 6909 bound_to 6896
  145.5085  140.9542  143.1720 H   0  0  0  0  0  0  0  0  0  0  0  0  # atno 7974 bound_to 7965
  156.1642  140.1619  156.8559 H   0  0  0  0  0  0  0  0  0  0  0  0  # atno 8008 bound_to 7997
  154.5191  140.0782  156.8173 H   0  0  0  0  0  0  0  0  0  0  0  0  # atno 8009 bound_to 7997
  155.3645  140.3397  155.4244 H   0  0  0  0  0  0  0  0  0  0  0  0  # atno 8010 bound_to 7997
  139.6634  144.7128  151.1822 H   0  0  0  0  0  0  0  0  0  0  0  0  # atno 10167 bound_to 10162
  156.0726  130.5938  150.8554 H   0  0  0  0  0  0  0  0  0  0  0  0  # atno 10718 bound_to 10713
  154.7565  135.3106  154.8460 H   0  0  0  0  0  0  0  0  0  0  0  0  # atno 10763 bound_to 10752
  153.9232  135.6793  153.4751 H   0  0  0  0  0  0  0  0  0  0  0  0  # atno 10764 bound_to 10752
  153.1163  135.4843  154.9050 H   0  0  0  0  0  0  0  0  0  0  0  0  # atno 10765 bound_to 10752
  139.9891  134.9521  156.9814 H   0  0  0  0  0  0  0  0  0  0  0  0  # atno 11005 bound_to 11000
  144.7740  139.6670  143.7182 LP  0  0  0  0  0  0  0  0  0  0  0  0  # atno 17320 bound_to 7965
  146.2181  139.5586  142.9636 LP  0  0  0  0  0  0  0  0  0  0  0  0  # atno 17321 bound_to 7965
  140.7589  143.5957  150.8750 LP  0  0  0  0  0  0  0  0  0  0  0  0  # atno 17342 bound_to 10162
  139.9617  143.6156  152.3000 LP  0  0  0  0  0  0  0  0  0  0  0  0  # atno 17343 bound_to 10162
  157.5805  131.0946  150.9278 LP  0  0  0  0  0  0  0  0  0  0  0  0  # atno 17370 bound_to 10713
  156.9474  130.5407  149.5281 LP  0  0  0  0  0  0  0  0  0  0  0  0  # atno 17371 bound_to 10713
  140.4944  134.1161  155.7238 LP  0  0  0  0  0  0  0  0  0  0  0  0  # atno 17394 bound_to 11000
  141.1550  133.8899  157.2000 LP  0  0  0  0  0  0  0  0  0  0  0  0  # atno 17395 bound_to 11000

$$$$
