AV-unprocessed.smi:160|AV-procd|sdf|1373|dock1
  -GOLD-   2262019 93D 1   1.00000     0.00000
 Structure written by MMmdl.
 28 29  0  0  0  0  0  0  0  0  2 V2000
  151.9605  137.2202  154.0052 N   0  5  0  0  0  0  0  0  0  0  0  0
  152.6495  138.2874  154.4646 C   0  0  0  0  0  0  0  0  0  0  0  0
  153.8662  138.4550  154.3883 O   0  0  0  0  0  0  0  0  0  0  0  0
  151.7992  139.3471  155.1240 C   0  0  0  0  0  0  0  0  0  0  0  0
  152.3266  140.1624  156.0877 N   0  0  0  0  0  0  0  0  0  0  0  0
  151.2550  140.8960  156.3550 C   0  0  0  0  0  0  0  0  0  0  0  0
  150.1775  140.5777  155.6324 N   0  0  0  0  0  0  0  0  0  0  0  0
  148.8012  141.1734  155.6550 C   0  0  2  0  0  0  0  0  0  0  0  0
  147.9042  140.1969  156.0947 O   0  0  0  0  0  0  0  0  0  0  0  0
  147.1664  139.6867  154.9887 C   0  0  1  0  0  0  0  0  0  0  0  0
  145.8542  139.0583  155.4831 C   0  0  0  0  0  0  0  0  0  0  0  0
  145.0303  138.7263  154.3863 O   0  0  0  0  0  0  0  0  0  0  0  0
  146.9624  140.9525  154.1544 C   0  0  2  0  0  0  0  0  0  0  0  0
  146.5751  140.6811  152.8201 O   0  0  0  0  0  0  0  0  0  0  0  0
  148.3108  141.6619  154.2702 C   0  0  2  0  0  0  0  0  0  0  0  0
  149.1851  141.3553  153.1942 O   0  0  0  0  0  0  0  0  0  0  0  0
  150.5146  139.5488  154.8150 N   0  0  0  0  0  0  0  0  0  0  0  0
  148.8654  141.9724  156.3947 H   0  0  0  0  0  0  0  0  0  0  0  0
  147.7677  138.9652  154.4319 H   0  0  0  0  0  0  0  0  0  0  0  0
  146.1963  141.5730  154.6218 H   0  0  0  0  0  0  0  0  0  0  0  0
  148.1782  142.7438  154.2995 H   0  0  0  0  0  0  0  0  0  0  0  0
  151.6733  137.2114  153.0191 H   0  0  0  0  0  0  0  0  0  0  0  0
  151.2563  141.6849  157.0925 H   0  0  0  0  0  0  0  0  0  0  0  0
  146.0421  138.1775  156.0979 H   0  0  0  0  0  0  0  0  0  0  0  0
  145.3056  139.7717  156.0983 H   0  0  0  0  0  0  0  0  0  0  0  0
  144.8192  139.5186  153.9171 H   0  0  0  0  0  0  0  0  0  0  0  0
  145.6327  140.7253  152.7673 H   0  0  0  0  0  0  0  0  0  0  0  0
  148.7092  140.8541  152.5499 H   0  0  0  0  0  0  0  0  0  0  0  0
  1  2  1  0  0  0  0
  1 22  1  0  0  0  0
  2  3  2  0  0  0  0
  2  4  1  0  0  0  0
  4 17  2  0  0  0  0
  4  5  1  0  0  0  0
  5  6  2  0  0  0  0
  6  7  1  0  0  0  0
  6 23  1  0  0  0  0
  7  8  1  0  0  0  0
  7 17  1  0  0  0  0
  8 18  1  0  0  0  0
  8 15  1  0  0  0  0
  8  9  1  0  0  0  0
  9 10  1  0  0  0  0
 10 19  1  0  0  0  0
 10 11  1  0  0  0  0
 10 13  1  0  0  0  0
 11 12  1  0  0  0  0
 11 24  1  0  0  0  0
 11 25  1  0  0  0  0
 12 26  1  0  0  0  0
 13 20  1  0  0  0  0
 13 14  1  0  0  0  0
 13 15  1  0  0  0  0
 14 27  1  0  0  0  0
 15 21  1  0  0  0  0
 15 16  1  0  0  0  0
 16 28  1  0  0  0  0
M  CHG  1   1  -1
M  END
> <s_m_source_file>
AV-unprocessed.smi

> <i_m_source_file_index>
160

> <i_lp_mmshare_version>
43012

> <i_f3d_flags>
0

> <s_epik_input>
W05IMl1DKD1PKWMxbltjSF1uKG4xKVtDQEBIXTJPW0NASF0oW0NIMl1bT0hdKVtDQEBIXShbT0hdKVtDQEhdMltPSF0=

> <s_epik_cmdline>
J2VwaWtfcHl0aG9uJywgJy1waCcsICc3LjAnLCAnLXRuJywgJzgnLCAnLW1hJywgJzIwMCcsICctbWV0YWxfYmluZGluZycsICctaW1hZScsICc8aW5maWxlLm1hZT4nLCAnLW9tYWUnLCAnPG91dGZpbGUubWFlPic=

> <r_lp_tautomer_probability>
1

> <r_epik_Ionization_Penalty>
6.6993

> <r_epik_Ionization_Penalty_Charging>
6.6993

> <r_epik_Ionization_Penalty_Neutral>
6.01698e-06

> <r_epik_State_Penalty>
6.69929

> <r_epik_Charging_Adjusted_Penalty>
13.3986

> <i_epik_Tot_Q>
-1

> <i_epik_Tot_abs_Q>
1

> <r_epik_Metal_State_Penalty>
2.62798

> <b_epik_Metal_Only>
1

> <s_epik_Chemistry_Notes>
This compound contains an acetal/aminal-like group ( X-CH(R)-Y where X, Y are N, S, or O) that may be acid/base labile, releasing an aldehyde.

> <s_lp_Force_Field>
OPLS_2005

> <r_lp_Energy>
50.1619

> <b_lp_Chiralities_Consistent>
1

> <s_lp_Variant>
AV-unprocessed.smi:160-31

> <Gold.Version>
5.8.1

> <Gold.Id.Protein>
6NUR|6NUR_protein|mol2

> <Gold.PLP.Fitness>
49.9606

> <Gold.PLP.PLP>
-28.9894

> <Gold.PLP.part.hbond>
-8.8667

> <Gold.PLP.part.metal>
0.0000

> <Gold.PLP.part.buried>
-2.9234

> <Gold.PLP.part.nonpolar>
-17.1787

> <Gold.PLP.part.repulsive>
0.1096

> <Gold.PLP.ligand.clash>
0.0000

> <Gold.PLP.ligand.torsion>
0.3815

> <Gold.PLP.Chemscore.Hbond>
7.2380

> <Gold.PLP.Chemscore.CHOScore>
0.0000

> <Gold.PLP.Chemscore.Metal>
0.0000

> <Gold.Chemscore.Hbonds>
donor molecule, donor type, donor heavy atom, donor atom, acceptor molecule, acceptor atom, score
      L1  H     1    22       P1  7949  0.86
      L1  H    12    26       P1 10175  0.89
      L1  H    14    27       P1 10175  1.00
      L1  H    16    28       P1  7957  0.42
      P1  H  7997  8008       L1     5  1.00
      P1  H  8011  8017       L1    16  0.91
      P1  H 10752 10763       L1     1  2.00

> <Gold.PLP.Chemscore.Internal.Correction>
0.0202

> <Gold.Rescore>
     Score         DG    S(hbond)    S(metal)    S(lipo)     H(rot)  DE(clash)    DE(int)     intcor
      7.60      -9.46       3.71        0.00      16.41       4.04       0.14       1.71       ----

> <Gold.Chemscore.Fitness>
7.6040

> <Gold.Chemscore.DG>
-9.4552

> <Gold.Chemscore.ZeroCoef>
-5.4800

> <Gold.Chemscore.Hbond>
3.7122

> <Gold.Chemscore.Metal>
0.0000

> <Gold.Chemscore.Lipo>
16.4070

> <Gold.Chemscore.Internal_Hbond>
0.0000

> <Gold.Chemscore.DEClash>
0.1415

> <Gold.Chemscore.DEInternal>
1.7097

> <Gold.Chemscore.Rot>
4.0403

> <Gold.Chemscore.Internal.Correction>
   9.000000E+99

> <Gold.Chemscore.Hbonds>
donor molecule, donor type, donor heavy atom, donor atom, acceptor molecule, acceptor atom, score
      L1  H     1    22       P1  7949  0.78
      L1  H    12    26       P1 10175  0.81
      L1  H    14    27       P1 10175  0.44
      L1  H    16    28       P1  7957  0.40
      P1  H  7997  8008       L1     5  0.88
      P1  H  8011  8017       L1    16  0.21
      P1  H 10752 10763       L1     1  0.28

> <Gold.Chemscore.Hbond.Weighted>
-12.3987

> <Gold.Chemscore.Metal.Weighted>
-0.0000

> <Gold.Chemscore.Lipo.Weighted>
-1.9196

> <Gold.Chemscore.Internal_Hbond.Weighted>
0.0000

> <Gold.Chemscore.DEClash.Weighted>
0.1415

> <Gold.Chemscore.DEInternal.Weighted>
1.7097

> <Gold.Chemscore.Rot.Weighted>
10.3431

> <Gold.Chemscore.Internal.Correction.Weighted>
   9.000000E+99

> <Gold.Protein.RotatedTorsions>
[ 6907 6896 6895 6894 ] final -103.83 input  -60.11 | X-H torsion
[ 7974 7965 7964 7962 ] final  -57.90 input  175.53 | X-H torsion
[ 8008 7997 7996 7995 ] final  -41.34 input   59.86 | X-H torsion
[ 10167 10162 10161 10158 ] final  -71.29 input  -65.29 | X-H torsion
[ 10718 10713 10712 10709 ] final  -24.11 input   66.30 | X-H torsion
[ 10763 10752 10751 10750 ] final   32.90 input  -60.55 | X-H torsion
[ 11005 11000 10999 10996 ] final  128.35 input  -57.11 | X-H torsion

> <Gold.Protein.ActiveResidues>
 VAL166  LYS551  ARG553  GLY616  TRP617  ASP618  TYR619  PRO620  LYS621  CYS622 
 ASP623  PHE694  ASN695  SER759  ASP760  ASP761  ALA762  ILE779  LEU786  VAL792 
 PHE793  MET794  SER795  GLU796  ALA797  LYS798  CYS799  TRP800  GLU811  SER814 

> <Gold.Protein.RotatedAtoms>
  150.7258  134.0370  159.3752 H   0  0  0  0  0  0  0  0  0  0  0  0  # atno 6907 bound_to 6896
  151.8342  135.0609  160.0450 H   0  0  0  0  0  0  0  0  0  0  0  0  # atno 6908 bound_to 6896
  152.2911  133.5526  159.5594 H   0  0  0  0  0  0  0  0  0  0  0  0  # atno 6909 bound_to 6896
  145.8456  140.8387  143.0012 H   0  0  0  0  0  0  0  0  0  0  0  0  # atno 7974 bound_to 7965
  154.4005  140.1502  156.3174 H   0  0  0  0  0  0  0  0  0  0  0  0  # atno 8008 bound_to 7997
  155.8560  140.3455  155.5703 H   0  0  0  0  0  0  0  0  0  0  0  0  # atno 8009 bound_to 7997
  155.7932  140.0859  157.1988 H   0  0  0  0  0  0  0  0  0  0  0  0  # atno 8010 bound_to 7997
  140.5285  143.2324  151.7304 H   0  0  0  0  0  0  0  0  0  0  0  0  # atno 10167 bound_to 10162
  156.4820  130.4547  149.6806 H   0  0  0  0  0  0  0  0  0  0  0  0  # atno 10718 bound_to 10713
  153.0239  135.6401  154.1427 H   0  0  0  0  0  0  0  0  0  0  0  0  # atno 10763 bound_to 10752
  154.1158  135.2850  155.3221 H   0  0  0  0  0  0  0  0  0  0  0  0  # atno 10764 bound_to 10752
  154.6299  135.5496  153.7731 H   0  0  0  0  0  0  0  0  0  0  0  0  # atno 10765 bound_to 10752
  139.9556  134.9613  156.8989 H   0  0  0  0  0  0  0  0  0  0  0  0  # atno 11005 bound_to 11000
  144.6731  140.0877  143.7466 LP  0  0  0  0  0  0  0  0  0  0  0  0  # atno 17320 bound_to 7965
  145.9415  139.2672  143.1266 LP  0  0  0  0  0  0  0  0  0  0  0  0  # atno 17321 bound_to 7965
  139.4946  144.4150  152.0040 LP  0  0  0  0  0  0  0  0  0  0  0  0  # atno 17342 bound_to 10162
  140.3250  144.3383  150.6000 LP  0  0  0  0  0  0  0  0  0  0  0  0  # atno 17343 bound_to 10162
  156.3512  130.7433  151.2393 LP  0  0  0  0  0  0  0  0  0  0  0  0  # atno 17370 bound_to 10713
  157.7482  131.0376  150.4465 LP  0  0  0  0  0  0  0  0  0  0  0  0  # atno 17371 bound_to 10713
  140.5617  134.0529  155.7401 LP  0  0  0  0  0  0  0  0  0  0  0  0  # atno 17394 bound_to 11000
  141.1227  133.9435  157.2698 LP  0  0  0  0  0  0  0  0  0  0  0  0  # atno 17395 bound_to 11000

$$$$
