AV-unprocessed.smi:276|AV-procd|sdf|2084|dock5
  -GOLD-   2262021353D 1   1.00000     0.00000
 Structure written by MMmdl.
 57 61  0  0  0  0  0  0  0  0  1 V2000
  151.3579  144.9529  159.0297 C   0  0  0  0  0  0  0  0  0  0  0  0
  150.8367  143.9946  158.1257 O   0  0  0  0  0  0  0  0  0  0  0  0
  150.7115  142.7070  158.7080 C   0  0  2  0  0  0  0  0  0  0  0  0
  152.0017  142.1656  159.3350 C   0  0  0  0  0  0  0  0  0  0  0  0
  151.5877  140.7901  158.7949 C   0  0  2  0  0  0  0  0  0  0  0  0
  152.7237  139.9782  158.3514 N   0  0  0  0  0  0  0  0  0  0  0  0
  153.5332  139.3780  159.4044 C   0  0  0  0  0  0  0  0  0  0  0  0
  152.4619  139.0636  157.3899 C   0  0  0  0  0  0  0  0  0  0  0  0
  153.0223  139.2755  156.1726 N   0  0  0  0  0  0  0  0  0  0  0  0
  152.7974  138.4183  155.1725 C   0  0  0  0  0  0  0  0  0  0  0  0
  152.0650  137.3025  155.1776 N   0  0  0  0  0  0  0  0  0  0  0  0
  151.5195  137.0744  156.4067 C   0  0  0  0  0  0  0  0  0  0  0  0
  151.6693  137.8919  157.5625 C   0  0  0  0  0  0  0  0  0  0  0  0
  150.9825  137.3258  158.6309 N   0  0  0  0  0  0  0  0  0  0  0  0
  150.4461  136.2459  158.1316 C   0  0  0  0  0  0  0  0  0  0  0  0
  150.7171  136.0201  156.8018 N   0  0  0  0  0  0  0  0  0  0  0  0
  150.2556  134.9041  155.9960 C   0  0  0  0  0  0  0  0  0  0  0  0
  150.7173  133.5450  156.5553 C   0  0  1  0  0  0  0  0  0  0  0  0
  150.0148  133.2314  157.7436 O   0  0  0  0  0  0  0  0  0  0  0  0
  150.5920  132.4061  155.5227 C   0  0  1  0  0  0  0  0  0  0  0  0
  150.9290  130.9926  156.0076 C   0  0  0  0  0  0  0  0  0  0  0  0
  150.1079  130.0961  155.0891 C   0  0  0  0  0  0  0  0  0  0  0  0
  149.2219  131.0621  154.2958 C   0  0  0  0  0  0  0  0  0  0  0  0
  149.2733  132.2858  155.0138 O   0  0  0  0  0  0  0  0  0  0  0  0
  150.8030  141.5513  157.6926 C   0  0  0  0  0  0  0  0  0  0  0  0
  149.5332  140.9732  157.0546 C   0  0  0  0  0  0  0  0  0  0  0  0
  150.2870  140.8426  155.7270 C   0  0  0  0  0  0  0  0  0  0  0  0
  151.3597  141.7903  156.2740 C   0  0  0  0  0  0  0  0  0  0  0  0
  151.4221  145.9233  158.5374 H   0  0  0  0  0  0  0  0  0  0  0  0
  152.3592  144.6796  159.3650 H   0  0  0  0  0  0  0  0  0  0  0  0
  150.7136  145.0608  159.9034 H   0  0  0  0  0  0  0  0  0  0  0  0
  149.8434  142.6059  159.3636 H   0  0  0  0  0  0  0  0  0  0  0  0
  152.9020  142.5671  158.8652 H   0  0  0  0  0  0  0  0  0  0  0  0
  152.0450  142.2368  160.4220 H   0  0  0  0  0  0  0  0  0  0  0  0
  150.9246  140.2865  159.4998 H   0  0  0  0  0  0  0  0  0  0  0  0
  152.9538  138.6437  159.9656 H   0  0  0  0  0  0  0  0  0  0  0  0
  153.8857  140.1376  160.1021 H   0  0  0  0  0  0  0  0  0  0  0  0
  154.4112  138.8797  158.9905 H   0  0  0  0  0  0  0  0  0  0  0  0
  153.2710  138.6627  154.2331 H   0  0  0  0  0  0  0  0  0  0  0  0
  149.8387  135.5773  158.7243 H   0  0  0  0  0  0  0  0  0  0  0  0
  149.1671  134.9453  155.9364 H   0  0  0  0  0  0  0  0  0  0  0  0
  150.6291  135.0403  154.9804 H   0  0  0  0  0  0  0  0  0  0  0  0
  151.7696  133.6258  156.8314 H   0  0  0  0  0  0  0  0  0  0  0  0
  149.3052  133.8472  157.8437 H   0  0  0  0  0  0  0  0  0  0  0  0
  151.2393  132.6412  154.6754 H   0  0  0  0  0  0  0  0  0  0  0  0
  151.9979  130.7849  155.9536 H   0  0  0  0  0  0  0  0  0  0  0  0
  150.6117  130.8335  157.0383 H   0  0  0  0  0  0  0  0  0  0  0  0
  150.7380  129.5058  154.4230 H   0  0  0  0  0  0  0  0  0  0  0  0
  149.5035  129.4041  155.6765 H   0  0  0  0  0  0  0  0  0  0  0  0
  149.6274  131.2189  153.2950 H   0  0  0  0  0  0  0  0  0  0  0  0
  148.1971  130.7047  154.1941 H   0  0  0  0  0  0  0  0  0  0  0  0
  149.1978  140.0266  157.4779 H   0  0  0  0  0  0  0  0  0  0  0  0
  148.7215  141.7002  157.0046 H   0  0  0  0  0  0  0  0  0  0  0  0
  150.6580  139.8338  155.5465 H   0  0  0  0  0  0  0  0  0  0  0  0
  149.7457  141.2280  154.8629 H   0  0  0  0  0  0  0  0  0  0  0  0
  151.2155  142.8111  155.9191 H   0  0  0  0  0  0  0  0  0  0  0  0
  152.3848  141.4608  156.1071 H   0  0  0  0  0  0  0  0  0  0  0  0
  1  2  1  0  0  0  0
  1 29  1  0  0  0  0
  1 30  1  0  0  0  0
  1 31  1  0  0  0  0
  2  3  1  0  0  0  0
  3 25  1  0  0  0  0
  3  4  1  0  0  0  0
  3 32  1  0  0  0  0
  4  5  1  0  0  0  0
  4 33  1  0  0  0  0
  4 34  1  0  0  0  0
  5  6  1  0  0  0  0
  5 25  1  0  0  0  0
  5 35  1  0  0  0  0
  6  7  1  0  0  0  0
  6  8  1  0  0  0  0
  7 36  1  0  0  0  0
  7 37  1  0  0  0  0
  7 38  1  0  0  0  0
  8 13  1  0  0  0  0
  8  9  2  0  0  0  0
  9 10  1  0  0  0  0
 10 11  2  0  0  0  0
 10 39  1  0  0  0  0
 11 12  1  0  0  0  0
 12 16  1  0  0  0  0
 12 13  2  0  0  0  0
 13 14  1  0  0  0  0
 14 15  2  0  0  0  0
 15 16  1  0  0  0  0
 15 40  1  0  0  0  0
 16 17  1  0  0  0  0
 17 18  1  0  0  0  0
 17 41  1  0  0  0  0
 17 42  1  0  0  0  0
 18 19  1  0  0  0  0
 18 20  1  0  0  0  0
 18 43  1  0  0  0  0
 19 44  1  0  0  0  0
 20 24  1  0  0  0  0
 20 21  1  0  0  0  0
 20 45  1  0  0  0  0
 21 22  1  0  0  0  0
 21 46  1  0  0  0  0
 21 47  1  0  0  0  0
 22 23  1  0  0  0  0
 22 48  1  0  0  0  0
 22 49  1  0  0  0  0
 23 24  1  0  0  0  0
 23 50  1  0  0  0  0
 23 51  1  0  0  0  0
 25 28  1  0  0  0  0
 25 26  1  0  0  0  0
 26 27  1  0  0  0  0
 26 52  1  0  0  0  0
 26 53  1  0  0  0  0
 27 28  1  0  0  0  0
 27 54  1  0  0  0  0
 27 55  1  0  0  0  0
 28 56  1  0  0  0  0
 28 57  1  0  0  0  0
M  END
> <s_m_source_file>
AV-unprocessed.smi

> <i_m_source_file_index>
276

> <i_lp_mmshare_version>
43012

> <i_f3d_flags>
0

> <s_epik_input>
W0NIMl0xW0NIMl1bQ0gyXUMxMltDQEhdKE9bQ0gzXSlbQ0gyXVtDQEhdMk4oW0NIM10pYyhuW2NIXW4zKWMoYzM0KW5bY0hdbjRbQ0gyXVtDQEhdKFtPSF0pW0NAQEhdNVtDSDJdW0NIMl1bQ0gyXU81

> <s_epik_cmdline>
J2VwaWtfcHl0aG9uJywgJy1waCcsICc3LjAnLCAnLXRuJywgJzgnLCAnLW1hJywgJzIwMCcsICctbWV0YWxfYmluZGluZycsICctaW1hZScsICc8aW5maWxlLm1hZT4nLCAnLW9tYWUnLCAnPG91dGZpbGUubWFlPic=

> <r_lp_tautomer_probability>
1

> <r_epik_Ionization_Penalty>
0.00204117

> <r_epik_Ionization_Penalty_Charging>
0

> <r_epik_Ionization_Penalty_Neutral>
0.00204117

> <r_epik_State_Penalty>
0.00127401

> <r_epik_Charging_Adjusted_Penalty>
0.00127401

> <i_epik_Tot_Q>
0

> <i_epik_Tot_abs_Q>
0

> <r_epik_Metal_State_Penalty>
-0

> <b_epik_Metal_Only>
0

> <s_lp_Force_Field>
OPLS_2005

> <r_lp_Energy>
58.0628

> <b_lp_Chiralities_Consistent>
1

> <s_lp_Variant>
AV-unprocessed.smi:276-15

> <Gold.Version>
5.8.1

> <Gold.Id.Protein>
6NUR|6NUR_protein|mol2

> <Gold.PLP.Fitness>
46.0236

> <Gold.PLP.PLP>
-39.3456

> <Gold.PLP.part.hbond>
-3.1251

> <Gold.PLP.part.metal>
0.0000

> <Gold.PLP.part.buried>
-7.2707

> <Gold.PLP.part.nonpolar>
-30.0037

> <Gold.PLP.part.repulsive>
0.2494

> <Gold.PLP.ligand.clash>
0.0000

> <Gold.PLP.ligand.torsion>
0.6540

> <Gold.PLP.Chemscore.Hbond>
2.4280

> <Gold.PLP.Chemscore.CHOScore>
0.0000

> <Gold.PLP.Chemscore.Metal>
0.0000

> <Gold.Chemscore.Hbonds>
donor molecule, donor type, donor heavy atom, donor atom, acceptor molecule, acceptor atom, score
      P1  H  6896  6908       L1    19  1.00
      P1  H  7997  8009       L1     9  0.54
      P1  H 10752 10765       L1    11  0.83

> <Gold.PLP.Chemscore.Internal.Correction>
0.7021

> <Gold.Rescore>
     Score         DG    S(hbond)    S(metal)    S(lipo)     H(rot)  DE(clash)    DE(int)     intcor
     11.30     -13.79       0.84        0.00     106.51       2.72       1.68       0.81       ----

> <Gold.Chemscore.Fitness>
11.3050

> <Gold.Chemscore.DG>
-13.7903

> <Gold.Chemscore.ZeroCoef>
-5.4800

> <Gold.Chemscore.Hbond>
0.8395

> <Gold.Chemscore.Metal>
0.0000

> <Gold.Chemscore.Lipo>
106.5144

> <Gold.Chemscore.Internal_Hbond>
0.0000

> <Gold.Chemscore.DEClash>
1.6753

> <Gold.Chemscore.DEInternal>
0.8100

> <Gold.Chemscore.Rot>
2.7172

> <Gold.Chemscore.Internal.Correction>
   9.000000E+99

> <Gold.Chemscore.Hbonds>
donor molecule, donor type, donor heavy atom, donor atom, acceptor molecule, acceptor atom, score
      P1  H  6896  6908       L1    19  0.28
      P1  H  7997  8009       L1     9  0.07
      P1  H 10752 10765       L1    11  0.56

> <Gold.Chemscore.Hbond.Weighted>
-2.8041

> <Gold.Chemscore.Metal.Weighted>
-0.0000

> <Gold.Chemscore.Lipo.Weighted>
-12.4622

> <Gold.Chemscore.Internal_Hbond.Weighted>
0.0000

> <Gold.Chemscore.DEClash.Weighted>
1.6753

> <Gold.Chemscore.DEInternal.Weighted>
0.8100

> <Gold.Chemscore.Rot.Weighted>
6.9560

> <Gold.Chemscore.Internal.Correction.Weighted>
   9.000000E+99

> <Gold.Protein.RotatedTorsions>
[ 6907 6896 6895 6894 ] final  100.41 input  -60.11 | X-H torsion
[ 7974 7965 7964 7962 ] final  102.55 input  175.53 | X-H torsion
[ 8008 7997 7996 7995 ] final  167.26 input   59.86 | X-H torsion
[ 10167 10162 10161 10158 ] final -108.50 input  -65.29 | X-H torsion
[ 10718 10713 10712 10709 ] final -108.41 input   66.30 | X-H torsion
[ 10763 10752 10751 10750 ] final  173.05 input  -60.55 | X-H torsion
[ 11005 11000 10999 10996 ] final  168.68 input  -57.11 | X-H torsion

> <Gold.Protein.ActiveResidues>
 VAL166  LYS551  ARG553  GLY616  TRP617  ASP618  TYR619  PRO620  LYS621  CYS622 
 ASP623  PHE694  ASN695  SER759  ASP760  ASP761  ALA762  ILE779  LEU786  VAL792 
 PHE793  MET794  SER795  GLU796  ALA797  LYS798  CYS799  TRP800  GLU811  SER814 

> <Gold.Protein.RotatedAtoms>
  152.5372  134.0281  159.8012 H   0  0  0  0  0  0  0  0  0  0  0  0  # atno 6907 bound_to 6896
  151.0456  133.5660  159.2654 H   0  0  0  0  0  0  0  0  0  0  0  0  # atno 6908 bound_to 6896
  151.2613  135.0662  159.9153 H   0  0  0  0  0  0  0  0  0  0  0  0  # atno 6909 bound_to 6896
  145.3576  139.2425  143.3524 H   0  0  0  0  0  0  0  0  0  0  0  0  # atno 7974 bound_to 7965
  156.1649  140.1621  156.8548 H   0  0  0  0  0  0  0  0  0  0  0  0  # atno 8008 bound_to 7997
  154.5197  140.0781  156.8184 H   0  0  0  0  0  0  0  0  0  0  0  0  # atno 8009 bound_to 7997
  155.3632  140.3396  155.4243 H   0  0  0  0  0  0  0  0  0  0  0  0  # atno 8010 bound_to 7997
  140.1655  143.4085  152.1394 H   0  0  0  0  0  0  0  0  0  0  0  0  # atno 10167 bound_to 10162
  156.0484  130.5711  150.7957 H   0  0  0  0  0  0  0  0  0  0  0  0  # atno 10718 bound_to 10713
  154.4346  135.2760  155.1889 H   0  0  0  0  0  0  0  0  0  0  0  0  # atno 10763 bound_to 10752
  154.3781  135.6094  153.5779 H   0  0  0  0  0  0  0  0  0  0  0  0  # atno 10764 bound_to 10752
  152.9838  135.5873  154.4663 H   0  0  0  0  0  0  0  0  0  0  0  0  # atno 10765 bound_to 10752
  140.2898  134.7683  157.3828 H   0  0  0  0  0  0  0  0  0  0  0  0  # atno 11005 bound_to 11000
  146.2941  140.4204  142.8728 LP  0  0  0  0  0  0  0  0  0  0  0  0  # atno 17320 bound_to 7965
  144.8671  140.7220  143.6071 LP  0  0  0  0  0  0  0  0  0  0  0  0  # atno 17321 bound_to 7965
  139.5362  144.7211  151.4887 LP  0  0  0  0  0  0  0  0  0  0  0  0  # atno 17342 bound_to 10162
  140.6616  143.8487  150.6894 LP  0  0  0  0  0  0  0  0  0  0  0  0  # atno 17343 bound_to 10162
  157.5385  131.0940  150.9860 LP  0  0  0  0  0  0  0  0  0  0  0  0  # atno 17370 bound_to 10713
  157.0149  130.5651  149.5325 LP  0  0  0  0  0  0  0  0  0  0  0  0  # atno 17371 bound_to 10713
  140.1206  134.5224  155.8187 LP  0  0  0  0  0  0  0  0  0  0  0  0  # atno 17394 bound_to 11000
  141.2148  133.6755  156.6859 LP  0  0  0  0  0  0  0  0  0  0  0  0  # atno 17395 bound_to 11000

$$$$
