AV-unprocessed.smi:3301|AV-procd|sdf|12654|dock6
  -GOLD-   2272018593D 1   1.00000     0.00000
 Structure written by MMmdl.
 36 37  0  0  0  0  0  0  0  0  1 V2000
  147.2650  131.8371  153.1389 C   0  0  0  0  0  0  0  0  0  0  0  0
  147.1847  133.3502  152.8961 C   0  0  2  0  0  0  0  0  0  0  0  0
  147.1069  133.6736  151.3883 C   0  0  0  0  0  0  0  0  0  0  0  0
  145.8732  133.2129  150.7771 N   0  0  0  0  0  0  0  0  0  0  0  0
  144.5860  133.6572  151.0493 C   0  0  0  0  0  0  0  0  0  0  0  0
  143.7396  132.9265  150.2469 C   0  0  0  0  0  0  0  0  0  0  0  0
  144.4803  132.0406  149.4681 N   0  0  0  0  0  0  0  0  0  0  0  0
  145.7346  132.2700  149.8349 C   0  0  0  0  0  0  0  0  0  0  0  0
  148.3484  133.9926  153.5069 N   0  0  0  0  0  0  0  0  0  0  0  0
  148.8149  133.7526  154.7425 C   0  0  0  0  0  0  0  0  0  0  0  0
  148.3273  132.9125  155.4998 O   0  0  0  0  0  0  0  0  0  0  0  0
  150.0241  134.5841  155.1846 C   0  0  0  0  0  0  0  0  0  0  0  0
  149.7845  136.0208  155.0498 N   0  0  0  0  0  0  0  0  0  0  0  0
  148.4563  136.5766  155.2486 C   0  0  0  0  0  0  0  0  0  0  0  0
  148.5574  138.0298  154.7634 C   0  0  0  0  0  0  0  0  0  0  0  0
  150.0565  138.3272  154.6479 C   0  0  0  0  0  0  0  0  0  0  0  0
  150.6939  136.9512  154.7333 C   0  0  0  0  0  0  0  0  0  0  0  0
  151.8916  136.7559  154.5309 O   0  0  0  0  0  0  0  0  0  0  0  0
  146.3937  131.3276  152.7264 H   0  0  0  0  0  0  0  0  0  0  0  0
  147.3023  131.6116  154.2052 H   0  0  0  0  0  0  0  0  0  0  0  0
  148.1527  131.4058  152.6750 H   0  0  0  0  0  0  0  0  0  0  0  0
  146.2709  133.7035  153.3773 H   0  0  0  0  0  0  0  0  0  0  0  0
  147.2014  134.7477  151.2214 H   0  0  0  0  0  0  0  0  0  0  0  0
  147.9364  133.2022  150.8600 H   0  0  0  0  0  0  0  0  0  0  0  0
  144.3823  134.4259  151.7801 H   0  0  0  0  0  0  0  0  0  0  0  0
  142.6632  132.9703  150.1710 H   0  0  0  0  0  0  0  0  0  0  0  0
  146.5723  131.7333  149.4146 H   0  0  0  0  0  0  0  0  0  0  0  0
  148.8186  134.6956  152.9553 H   0  0  0  0  0  0  0  0  0  0  0  0
  150.2502  134.3457  156.2246 H   0  0  0  0  0  0  0  0  0  0  0  0
  150.9054  134.3064  154.6034 H   0  0  0  0  0  0  0  0  0  0  0  0
  147.7018  136.0169  154.6942 H   0  0  0  0  0  0  0  0  0  0  0  0
  148.2040  136.5342  156.3090 H   0  0  0  0  0  0  0  0  0  0  0  0
  148.0847  138.1307  153.7854 H   0  0  0  0  0  0  0  0  0  0  0  0
  148.0546  138.7184  155.4431 H   0  0  0  0  0  0  0  0  0  0  0  0
  150.3074  138.8251  153.7107 H   0  0  0  0  0  0  0  0  0  0  0  0
  150.4066  138.9416  155.4780 H   0  0  0  0  0  0  0  0  0  0  0  0
  1  2  1  0  0  0  0
  1 19  1  0  0  0  0
  1 20  1  0  0  0  0
  1 21  1  0  0  0  0
  2  3  1  0  0  0  0
  2  9  1  0  0  0  0
  2 22  1  0  0  0  0
  3  4  1  0  0  0  0
  3 23  1  0  0  0  0
  3 24  1  0  0  0  0
  4  8  1  0  0  0  0
  4  5  1  0  0  0  0
  5  6  2  0  0  0  0
  5 25  1  0  0  0  0
  6  7  1  0  0  0  0
  6 26  1  0  0  0  0
  7  8  2  0  0  0  0
  8 27  1  0  0  0  0
  9 10  1  0  0  0  0
  9 28  1  0  0  0  0
 10 11  2  0  0  0  0
 10 12  1  0  0  0  0
 12 13  1  0  0  0  0
 12 29  1  0  0  0  0
 12 30  1  0  0  0  0
 13 17  1  0  0  0  0
 13 14  1  0  0  0  0
 14 15  1  0  0  0  0
 14 31  1  0  0  0  0
 14 32  1  0  0  0  0
 15 16  1  0  0  0  0
 15 33  1  0  0  0  0
 15 34  1  0  0  0  0
 16 17  1  0  0  0  0
 16 35  1  0  0  0  0
 16 36  1  0  0  0  0
 17 18  2  0  0  0  0
M  END
> <s_m_source_file>
AV-unprocessed.smi

> <i_m_source_file_index>
3301

> <i_lp_mmshare_version>
43012

> <i_f3d_flags>
0

> <s_epik_input>
W2NIXTFuW2NIXVtjSF1uMVtDSDJdW0NAQEhdKFtDSDNdKVtOSF1DKD1PKVtDSDJdTjJbQ0gyXVtDSDJdW0NIMl1DMj1P

> <s_epik_cmdline>
J2VwaWtfcHl0aG9uJywgJy1waCcsICc3LjAnLCAnLXRuJywgJzgnLCAnLW1hJywgJzIwMCcsICctbWV0YWxfYmluZGluZycsICctaW1hZScsICc8aW5maWxlLm1hZT4nLCAnLW9tYWUnLCAnPG91dGZpbGUubWFlPic=

> <r_lp_tautomer_probability>
1

> <r_epik_Ionization_Penalty>
0.623868

> <r_epik_Ionization_Penalty_Charging>
0.623868

> <r_epik_Ionization_Penalty_Neutral>
4.45089e-08

> <r_epik_State_Penalty>
0.640129

> <r_epik_Charging_Adjusted_Penalty>
1.264

> <i_epik_Tot_Q>
0

> <i_epik_Tot_abs_Q>
0

> <r_epik_Metal_State_Penalty>
0.307431

> <b_epik_Metal_Only>
0

> <s_lp_Force_Field>
OPLS_2005

> <r_lp_Energy>
13.1823

> <b_lp_Chiralities_Consistent>
1

> <s_lp_Variant>
AV-unprocessed.smi:3301-3

> <Gold.Version>
5.8.1

> <Gold.Id.Protein>
6NUR|6NUR_protein|mol2

> <Gold.PLP.Fitness>
42.0581

> <Gold.PLP.PLP>
-31.0326

> <Gold.PLP.part.hbond>
-3.0000

> <Gold.PLP.part.metal>
0.0000

> <Gold.PLP.part.buried>
-4.8171

> <Gold.PLP.part.nonpolar>
-23.8861

> <Gold.PLP.part.repulsive>
0.3140

> <Gold.PLP.ligand.clash>
0.0000

> <Gold.PLP.ligand.torsion>
0.5831

> <Gold.PLP.Chemscore.Hbond>
2.0515

> <Gold.PLP.Chemscore.CHOScore>
2.0000

> <Gold.PLP.Chemscore.Metal>
0.0000

> <Gold.Chemscore.Hbonds>
donor molecule, donor type, donor heavy atom, donor atom, acceptor molecule, acceptor atom, score
      L1  H     9    28       P1  7948  0.75
      P1  H 10752 10765       L1    18  0.99
      P1  H 10785 10796       L1     7  0.05
      L1  C     6    26       P1 10186  1.00
      L1  C     8    27       P1 10747  0.63

> <Gold.PLP.Chemscore.Internal.Correction>
0.0372

> <Gold.Rescore>
     Score         DG    S(hbond)    S(metal)    S(lipo)     H(rot)  DE(clash)    DE(int)     intcor
      9.23     -11.55       1.95        0.00      45.90       2.26       0.12       2.20       ----

> <Gold.Chemscore.Fitness>
9.2344

> <Gold.Chemscore.DG>
-11.5541

> <Gold.Chemscore.ZeroCoef>
-5.4800

> <Gold.Chemscore.Hbond>
1.9466

> <Gold.Chemscore.Metal>
0.0000

> <Gold.Chemscore.Lipo>
45.8983

> <Gold.Chemscore.Internal_Hbond>
0.0000

> <Gold.Chemscore.DEClash>
0.1179

> <Gold.Chemscore.DEInternal>
2.2019

> <Gold.Chemscore.Rot>
2.2647

> <Gold.Chemscore.Internal.Correction>
   9.000000E+99

> <Gold.Chemscore.Hbonds>
donor molecule, donor type, donor heavy atom, donor atom, acceptor molecule, acceptor atom, score
      L1  H     9    28       P1  7948  0.09
      P1  H 10752 10765       L1    18  0.92
      P1  H 10785 10796       L1     7  0.06

> <Gold.Chemscore.Hbond.Weighted>
-6.5016

> <Gold.Chemscore.Metal.Weighted>
-0.0000

> <Gold.Chemscore.Lipo.Weighted>
-5.3701

> <Gold.Chemscore.Internal_Hbond.Weighted>
0.0000

> <Gold.Chemscore.DEClash.Weighted>
0.1179

> <Gold.Chemscore.DEInternal.Weighted>
2.2019

> <Gold.Chemscore.Rot.Weighted>
5.7975

> <Gold.Chemscore.Internal.Correction.Weighted>
   9.000000E+99

> <Gold.Protein.RotatedTorsions>
[ 6907 6896 6895 6894 ] final    7.98 input  -60.11 | X-H torsion
[ 7974 7965 7964 7962 ] final  -90.45 input  175.53 | X-H torsion
[ 8008 7997 7996 7995 ] final  -25.97 input   59.86 | X-H torsion
[ 10167 10162 10161 10158 ] final  -48.08 input  -65.29 | X-H torsion
[ 10718 10713 10712 10709 ] final  149.20 input   66.30 | X-H torsion
[ 10763 10752 10751 10750 ] final  170.24 input  -60.55 | X-H torsion
[ 11005 11000 10999 10996 ] final   86.42 input  -57.11 | X-H torsion

> <Gold.Protein.ActiveResidues>
 VAL166  LYS551  ARG553  GLY616  TRP617  ASP618  TYR619  PRO620  LYS621  CYS622 
 ASP623  PHE694  ASN695  SER759  ASP760  ASP761  ALA762  ILE779  LEU786  VAL792 
 PHE793  MET794  SER795  GLU796  ALA797  LYS798  CYS799  TRP800  GLU811  SER814 

> <Gold.Protein.RotatedAtoms>
  151.6986  135.0934  160.0246 H   0  0  0  0  0  0  0  0  0  0  0  0  # atno 6907 bound_to 6896
  152.3734  133.6445  159.6113 H   0  0  0  0  0  0  0  0  0  0  0  0  # atno 6908 bound_to 6896
  150.7691  133.9149  159.3422 H   0  0  0  0  0  0  0  0  0  0  0  0  # atno 6909 bound_to 6896
  145.4263  140.9554  143.2153 H   0  0  0  0  0  0  0  0  0  0  0  0  # atno 7974 bound_to 7965
  154.4448  140.1912  156.0702 H   0  0  0  0  0  0  0  0  0  0  0  0  # atno 8008 bound_to 7997
  156.0516  140.3308  155.7331 H   0  0  0  0  0  0  0  0  0  0  0  0  # atno 8009 bound_to 7997
  155.5548  140.0598  157.2833 H   0  0  0  0  0  0  0  0  0  0  0  0  # atno 8010 bound_to 7997
  140.6747  143.2756  151.4019 H   0  0  0  0  0  0  0  0  0  0  0  0  # atno 10167 bound_to 10162
  157.2991  131.0867  151.1404 H   0  0  0  0  0  0  0  0  0  0  0  0  # atno 10718 bound_to 10713
  154.3947  135.2754  155.2133 H   0  0  0  0  0  0  0  0  0  0  0  0  # atno 10763 bound_to 10752
  154.4185  135.6006  153.5999 H   0  0  0  0  0  0  0  0  0  0  0  0  # atno 10764 bound_to 10752
  152.9831  135.5966  154.4206 H   0  0  0  0  0  0  0  0  0  0  0  0  # atno 10765 bound_to 10752
  139.8945  134.8354  156.2718 H   0  0  0  0  0  0  0  0  0  0  0  0  # atno 11005 bound_to 11000
  144.8212  139.5788  143.6986 LP  0  0  0  0  0  0  0  0  0  0  0  0  # atno 17320 bound_to 7965
  146.2630  139.6455  142.9348 LP  0  0  0  0  0  0  0  0  0  0  0  0  # atno 17321 bound_to 7965
  139.6033  144.1250  152.2222 LP  0  0  0  0  0  0  0  0  0  0  0  0  # atno 17342 bound_to 10162
  140.0641  144.5833  150.7241 LP  0  0  0  0  0  0  0  0  0  0  0  0  # atno 17343 bound_to 10162
  157.2770  130.6732  149.6047 LP  0  0  0  0  0  0  0  0  0  0  0  0  # atno 17370 bound_to 10713
  155.9670  130.4461  150.5529 LP  0  0  0  0  0  0  0  0  0  0  0  0  # atno 17371 bound_to 10713
  141.0096  133.7103  156.1089 LP  0  0  0  0  0  0  0  0  0  0  0  0  # atno 17394 bound_to 11000
  140.7386  134.4175  157.5557 LP  0  0  0  0  0  0  0  0  0  0  0  0  # atno 17395 bound_to 11000

$$$$
