AV-unprocessed.smi:196|AV-procd|sdf|1535|dock9
  -GOLD-   2262019393D 1   1.00000     0.00000
 Structure written by MMmdl.
 47 50  0  0  0  0  0  0  0  0  1 V2000
  150.9829  141.4266  156.8184 C   0  0  0  0  0  0  0  0  0  0  0  0
  151.4779  140.5590  155.6519 C   0  0  1  0  0  0  0  0  0  0  0  0
  152.5172  139.6821  156.0793 O   0  0  0  0  0  0  0  0  0  0  0  0
  152.4493  138.4520  155.3630 C   0  0  0  0  0  0  0  0  0  0  0  0
  151.3674  138.6491  154.3050 C   0  0  0  0  0  0  0  0  0  0  0  0
  150.4343  139.6554  154.9674 C   0  0  2  0  0  0  0  0  0  0  0  0
  149.7430  140.3722  153.9613 O   0  0  0  0  0  0  0  0  0  0  0  0
  149.4104  139.0185  155.9462 C   0  0  0  0  0  0  0  0  0  0  0  0
  148.7098  137.8668  155.4004 N   0  0  0  0  0  0  0  0  0  0  0  0
  149.0293  136.5404  155.5862 C   0  0  0  0  0  0  0  0  0  0  0  0
  148.2424  135.6890  154.9867 N   0  0  0  0  0  0  0  0  0  0  0  0
  147.3146  136.4890  154.3319 C   0  0  0  0  0  0  0  0  0  0  0  0
  146.1901  136.2260  153.5047 C   0  0  0  0  0  0  0  0  0  0  0  0
  145.7831  134.9657  153.2165 N   0  0  0  0  0  0  0  0  0  0  0  0
  146.5311  133.8835  153.8531 C   0  0  0  0  0  0  0  0  0  0  0  0
  147.3199  133.2200  152.7316 C   0  0  1  0  0  0  0  0  0  0  0  0
  147.6497  131.9591  153.0096 F   0  0  0  0  0  0  0  0  0  0  0  0
  146.3549  133.3296  151.5603 C   0  0  0  0  0  0  0  0  0  0  0  0
  145.6744  134.6963  151.7724 C   0  0  1  0  0  0  0  0  0  0  0  0
  144.2301  134.6931  151.2401 C   0  0  0  0  0  0  0  0  0  0  0  0
  144.0294  134.6393  149.9196 N   0  0  0  0  0  0  0  0  0  0  0  0
  143.2914  134.7353  152.0318 O   0  0  0  0  0  0  0  0  0  0  0  0
  145.4925  137.2915  153.0273 N   0  0  0  0  0  0  0  0  0  0  0  0
  145.8766  138.5347  153.3319 C   0  0  0  0  0  0  0  0  0  0  0  0
  146.9033  138.9291  154.0879 N   0  0  0  0  0  0  0  0  0  0  0  0
  147.5999  137.8617  154.5738 C   0  0  0  0  0  0  0  0  0  0  0  0
  148.2383  133.7713  152.5262 H   0  0  0  0  0  0  0  0  0  0  0  0
  146.2324  135.4479  151.2088 H   0  0  0  0  0  0  0  0  0  0  0  0
  150.1673  142.0775  156.5029 H   0  0  0  0  0  0  0  0  0  0  0  0
  151.7864  142.0607  157.1932 H   0  0  0  0  0  0  0  0  0  0  0  0
  150.6304  140.8210  157.6532 H   0  0  0  0  0  0  0  0  0  0  0  0
  151.9240  141.2133  154.9001 H   0  0  0  0  0  0  0  0  0  0  0  0
  153.4134  138.1937  154.9245 H   0  0  0  0  0  0  0  0  0  0  0  0
  152.1704  137.6580  156.0567 H   0  0  0  0  0  0  0  0  0  0  0  0
  151.8235  139.0879  153.4155 H   0  0  0  0  0  0  0  0  0  0  0  0
  150.8940  137.7182  153.9955 H   0  0  0  0  0  0  0  0  0  0  0  0
  149.9767  140.0084  153.1212 H   0  0  0  0  0  0  0  0  0  0  0  0
  149.9083  138.7071  156.8652 H   0  0  0  0  0  0  0  0  0  0  0  0
  148.6610  139.7535  156.2431 H   0  0  0  0  0  0  0  0  0  0  0  0
  149.8691  136.2227  156.1873 H   0  0  0  0  0  0  0  0  0  0  0  0
  147.1760  134.2060  154.6724 H   0  0  0  0  0  0  0  0  0  0  0  0
  145.8083  133.1833  154.2736 H   0  0  0  0  0  0  0  0  0  0  0  0
  146.8608  133.2578  150.5969 H   0  0  0  0  0  0  0  0  0  0  0  0
  145.6263  132.5179  151.6134 H   0  0  0  0  0  0  0  0  0  0  0  0
  143.0879  134.6429  149.5539 H   0  0  0  0  0  0  0  0  0  0  0  0
  144.8198  134.6017  149.2927 H   0  0  0  0  0  0  0  0  0  0  0  0
  145.2729  139.3263  152.9129 H   0  0  0  0  0  0  0  0  0  0  0  0
  1  2  1  0  0  0  0
  1 29  1  0  0  0  0
  1 30  1  0  0  0  0
  1 31  1  0  0  0  0
  2  6  1  0  0  0  0
  2  3  1  0  0  0  0
  2 32  1  0  0  0  0
  3  4  1  0  0  0  0
  4  5  1  0  0  0  0
  4 33  1  0  0  0  0
  4 34  1  0  0  0  0
  5  6  1  0  0  0  0
  5 35  1  0  0  0  0
  5 36  1  0  0  0  0
  6  7  1  0  0  0  0
  6  8  1  0  0  0  0
  7 37  1  0  0  0  0
  8  9  1  0  0  0  0
  8 38  1  0  0  0  0
  8 39  1  0  0  0  0
  9 26  1  0  0  0  0
  9 10  1  0  0  0  0
 10 11  2  0  0  0  0
 10 40  1  0  0  0  0
 11 12  1  0  0  0  0
 12 26  2  0  0  0  0
 12 13  1  0  0  0  0
 13 14  1  0  0  0  0
 13 23  2  0  0  0  0
 14 19  1  0  0  0  0
 14 15  1  0  0  0  0
 15 16  1  0  0  0  0
 15 41  1  0  0  0  0
 15 42  1  0  0  0  0
 16 27  1  0  0  0  0
 16 17  1  0  0  0  0
 16 18  1  0  0  0  0
 18 19  1  0  0  0  0
 18 43  1  0  0  0  0
 18 44  1  0  0  0  0
 19 28  1  0  0  0  0
 19 20  1  0  0  0  0
 20 21  1  0  0  0  0
 20 22  2  0  0  0  0
 21 45  1  0  0  0  0
 21 46  1  0  0  0  0
 23 24  1  0  0  0  0
 24 25  2  0  0  0  0
 24 47  1  0  0  0  0
 25 26  1  0  0  0  0
M  END
> <s_m_source_file>
AV-unprocessed.smi

> <i_m_source_file_index>
196

> <i_lp_mmshare_version>
43012

> <i_f3d_flags>
0

> <s_epik_input>
W0NIMl0xW0NIMl1PW0NAQEhdKFtDSDNdKVtDQEBdMShbT0hdKVtDSDJdbihbY0hdbjIpYyhjMjMpbltjSF1uYzNONFtDSDJdW0NASF0oRilbQ0gyXVtDQEhdNEMoPU8pW05IMl0=

> <s_epik_cmdline>
J2VwaWtfcHl0aG9uJywgJy1waCcsICc3LjAnLCAnLXRuJywgJzgnLCAnLW1hJywgJzIwMCcsICctbWV0YWxfYmluZGluZycsICctaW1hZScsICc8aW5maWxlLm1hZT4nLCAnLW9tYWUnLCAnPG91dGZpbGUubWFlPic=

> <r_lp_tautomer_probability>
1

> <r_epik_Ionization_Penalty>
0.000857933

> <r_epik_Ionization_Penalty_Charging>
0

> <r_epik_Ionization_Penalty_Neutral>
0.000857933

> <r_epik_State_Penalty>
0.000462053

> <r_epik_Charging_Adjusted_Penalty>
0.000462053

> <i_epik_Tot_Q>
0

> <i_epik_Tot_abs_Q>
0

> <r_epik_Metal_State_Penalty>
-0

> <b_epik_Metal_Only>
0

> <s_lp_Force_Field>
OPLS_2005

> <r_lp_Energy>
46.5275

> <b_lp_Chiralities_Consistent>
1

> <s_lp_Variant>
AV-unprocessed.smi:196-8

> <Gold.Version>
5.8.1

> <Gold.Id.Protein>
6NUR|6NUR_protein|mol2

> <Gold.PLP.Fitness>
42.8171

> <Gold.PLP.PLP>
-31.2615

> <Gold.PLP.part.hbond>
-4.7432

> <Gold.PLP.part.metal>
0.0000

> <Gold.PLP.part.buried>
-1.8782

> <Gold.PLP.part.nonpolar>
-24.9270

> <Gold.PLP.part.repulsive>
0.8045

> <Gold.PLP.ligand.clash>
0.5916

> <Gold.PLP.ligand.torsion>
0.6965

> <Gold.PLP.Chemscore.Hbond>
3.4837

> <Gold.PLP.Chemscore.CHOScore>
1.0000

> <Gold.PLP.Chemscore.Metal>
0.0000

> <Gold.Chemscore.Hbonds>
donor molecule, donor type, donor heavy atom, donor atom, acceptor molecule, acceptor atom, score
      L1  H     7    37       P1  7957  0.91
      L1  H    21    45       P1 10186  0.88
      L1  H    21    46       P1  7921  0.76
      P1  H  7997  8009       L1     3  1.00
      L1  C    24    47       P1 10175  0.94

> <Gold.PLP.Chemscore.Internal.Correction>
0.0893

> <Gold.Rescore>
     Score         DG    S(hbond)    S(metal)    S(lipo)     H(rot)  DE(clash)    DE(int)     intcor
     12.67     -15.19       3.22        0.00      57.70       3.04       0.32       2.20       ----

> <Gold.Chemscore.Fitness>
12.6712

> <Gold.Chemscore.DG>
-15.1882

> <Gold.Chemscore.ZeroCoef>
-5.4800

> <Gold.Chemscore.Hbond>
3.2166

> <Gold.Chemscore.Metal>
0.0000

> <Gold.Chemscore.Lipo>
57.6952

> <Gold.Chemscore.Internal_Hbond>
0.0000

> <Gold.Chemscore.DEClash>
0.3220

> <Gold.Chemscore.DEInternal>
2.1951

> <Gold.Chemscore.Rot>
3.0413

> <Gold.Chemscore.Internal.Correction>
   9.000000E+99

> <Gold.Chemscore.Hbonds>
donor molecule, donor type, donor heavy atom, donor atom, acceptor molecule, acceptor atom, score
      L1  H     7    37       P1  7957  0.87
      L1  H    21    45       P1 10186  0.80
      L1  H    21    46       P1  7921  0.75
      P1  H  7997  8009       L1     3  0.74

> <Gold.Chemscore.Hbond.Weighted>
-10.7435

> <Gold.Chemscore.Metal.Weighted>
-0.0000

> <Gold.Chemscore.Lipo.Weighted>
-6.7503

> <Gold.Chemscore.Internal_Hbond.Weighted>
0.0000

> <Gold.Chemscore.DEClash.Weighted>
0.3220

> <Gold.Chemscore.DEInternal.Weighted>
2.1951

> <Gold.Chemscore.Rot.Weighted>
7.7856

> <Gold.Chemscore.Internal.Correction.Weighted>
   9.000000E+99

> <Gold.Protein.RotatedTorsions>
[ 6907 6896 6895 6894 ] final  100.38 input  -60.11 | X-H torsion
[ 7974 7965 7964 7962 ] final -165.39 input  175.53 | X-H torsion
[ 8008 7997 7996 7995 ] final -178.42 input   59.86 | X-H torsion
[ 10167 10162 10161 10158 ] final  149.25 input  -65.29 | X-H torsion
[ 10718 10713 10712 10709 ] final  118.97 input   66.30 | X-H torsion
[ 10763 10752 10751 10750 ] final   42.53 input  -60.55 | X-H torsion
[ 11005 11000 10999 10996 ] final -155.11 input  -57.11 | X-H torsion

> <Gold.Protein.ActiveResidues>
 VAL166  LYS551  ARG553  GLY616  TRP617  ASP618  TYR619  PRO620  LYS621  CYS622 
 ASP623  PHE694  ASN695  SER759  ASP760  ASP761  ALA762  ILE779  LEU786  VAL792 
 PHE793  MET794  SER795  GLU796  ALA797  LYS798  CYS799  TRP800  GLU811  SER814 

> <Gold.Protein.RotatedAtoms>
  152.5373  134.0286  159.8014 H   0  0  0  0  0  0  0  0  0  0  0  0  # atno 6907 bound_to 6896
  151.0461  133.5657  159.2654 H   0  0  0  0  0  0  0  0  0  0  0  0  # atno 6908 bound_to 6896
  151.2608  135.0661  159.9151 H   0  0  0  0  0  0  0  0  0  0  0  0  # atno 6909 bound_to 6896
  144.7271  140.2821  143.6234 H   0  0  0  0  0  0  0  0  0  0  0  0  # atno 7974 bound_to 7965
  156.0186  140.1256  157.0380 H   0  0  0  0  0  0  0  0  0  0  0  0  # atno 8008 bound_to 7997
  154.4303  140.1073  156.6001 H   0  0  0  0  0  0  0  0  0  0  0  0  # atno 8009 bound_to 7997
  155.5977  140.3470  155.4587 H   0  0  0  0  0  0  0  0  0  0  0  0  # atno 8010 bound_to 7997
  139.4864  144.5616  151.7220 H   0  0  0  0  0  0  0  0  0  0  0  0  # atno 10167 bound_to 10162
  157.5994  131.1053  150.7831 H   0  0  0  0  0  0  0  0  0  0  0  0  # atno 10718 bound_to 10713
  152.9881  135.6129  154.2964 H   0  0  0  0  0  0  0  0  0  0  0  0  # atno 10763 bound_to 10752
  154.2686  135.2780  155.2749 H   0  0  0  0  0  0  0  0  0  0  0  0  # atno 10764 bound_to 10752
  154.5142  135.5832  153.6686 H   0  0  0  0  0  0  0  0  0  0  0  0  # atno 10765 bound_to 10752
  140.6900  134.4052  157.5220 H   0  0  0  0  0  0  0  0  0  0  0  0  # atno 11005 bound_to 11000
  145.7939  139.1938  143.2087 LP  0  0  0  0  0  0  0  0  0  0  0  0  # atno 17320 bound_to 7965
  146.0733  140.7845  142.9677 LP  0  0  0  0  0  0  0  0  0  0  0  0  # atno 17321 bound_to 7965
  140.5187  144.0913  150.6016 LP  0  0  0  0  0  0  0  0  0  0  0  0  # atno 17342 bound_to 10162
  140.3863  143.2776  152.0112 LP  0  0  0  0  0  0  0  0  0  0  0  0  # atno 17343 bound_to 10162
  156.8233  130.4991  149.5340 LP  0  0  0  0  0  0  0  0  0  0  0  0  # atno 17370 bound_to 10713
  156.1063  130.6007  150.9976 LP  0  0  0  0  0  0  0  0  0  0  0  0  # atno 17371 bound_to 10713
  139.8926  134.8750  156.2262 LP  0  0  0  0  0  0  0  0  0  0  0  0  # atno 17394 bound_to 11000
  141.0249  133.7020  156.1331 LP  0  0  0  0  0  0  0  0  0  0  0  0  # atno 17395 bound_to 11000

$$$$
