AV-unprocessed.smi:994|AV-procd|sdf|4340|dock2
  -GOLD-   22720 2233D 1   1.00000     0.00000
 Structure written by MMmdl.
 38 39  0  0  0  0  0  0  0  0  3 V2000
  151.3239  139.7632  157.9340 O   0  0  0  0  0  0  0  0  0  0  0  0
  150.9197  140.8455  157.5081 C   0  0  0  0  0  0  0  0  0  0  0  0
  150.3663  141.0005  156.2953 N   0  0  0  0  0  0  0  0  0  0  0  0
  150.2110  139.9489  155.2898 C   0  0  1  0  0  0  0  0  0  0  0  0
  149.6414  140.5682  153.9952 C   0  0  0  0  0  0  0  0  0  0  0  0
  148.2147  141.0581  154.0902 C   0  0  0  0  0  0  0  0  0  0  0  0
  147.0255  140.5187  153.6306 C   0  0  0  0  0  0  0  0  0  0  0  0
  146.0080  141.3876  153.9878 N   0  0  0  0  0  0  0  0  0  0  0  0
  146.5796  142.4050  154.6284 C   0  0  0  0  0  0  0  0  0  0  0  0
  147.9002  142.2557  154.7140 N   0  3  0  0  0  0  0  0  0  0  0  0
  151.5868  139.3455  154.9751 C   0  0  0  0  0  0  0  0  0  0  0  0
  152.5796  139.9002  155.4937 O   0  0  0  0  0  0  0  0  0  0  0  0
  151.6241  138.3380  154.2333 O   0  5  0  0  0  0  0  0  0  0  0  0
  151.0168  142.1050  158.3789 C   0  0  0  0  0  0  0  0  0  0  0  0
  151.2784  143.3581  157.5157 C   0  0  0  0  0  0  0  0  0  0  0  0
  151.4012  144.6216  158.3836 C   0  0  0  0  0  0  0  0  0  0  0  0
  152.4921  144.4585  159.4540 C   0  0  0  0  0  0  0  0  0  0  0  0
  152.2418  143.2113  160.3165 C   0  0  0  0  0  0  0  0  0  0  0  0
  152.1195  141.9485  159.4479 C   0  0  0  0  0  0  0  0  0  0  0  0
  145.0229  141.2724  153.7955 H   0  0  0  0  0  0  0  0  0  0  0  0
  150.0818  141.9297  156.0217 H   0  0  0  0  0  0  0  0  0  0  0  0
  149.5435  139.1594  155.6412 H   0  0  0  0  0  0  0  0  0  0  0  0
  150.2636  141.4037  153.6694 H   0  0  0  0  0  0  0  0  0  0  0  0
  149.6727  139.8313  153.1911 H   0  0  0  0  0  0  0  0  0  0  0  0
  146.8126  139.6074  153.0906 H   0  0  0  0  0  0  0  0  0  0  0  0
  146.0386  143.2495  155.0300 H   0  0  0  0  0  0  0  0  0  0  0  0
  150.0630  142.2418  158.8922 H   0  0  0  0  0  0  0  0  0  0  0  0
  152.1939  143.2327  156.9353 H   0  0  0  0  0  0  0  0  0  0  0  0
  150.4722  143.4908  156.7927 H   0  0  0  0  0  0  0  0  0  0  0  0
  151.6245  145.4836  157.7546 H   0  0  0  0  0  0  0  0  0  0  0  0
  150.4447  144.8292  158.8646 H   0  0  0  0  0  0  0  0  0  0  0  0
  153.4675  144.3795  158.9720 H   0  0  0  0  0  0  0  0  0  0  0  0
  152.5300  145.3465  160.0857 H   0  0  0  0  0  0  0  0  0  0  0  0
  153.0508  143.0897  161.0374 H   0  0  0  0  0  0  0  0  0  0  0  0
  151.3277  143.3457  160.8965 H   0  0  0  0  0  0  0  0  0  0  0  0
  151.9056  141.0889  160.0843 H   0  0  0  0  0  0  0  0  0  0  0  0
  153.0805  141.7474  158.9713 H   0  0  0  0  0  0  0  0  0  0  0  0
  148.5512  142.8926  155.1515 H   0  0  0  0  0  0  0  0  0  0  0  0
  1  2  2  0  0  0  0
  2  3  1  0  0  0  0
  2 14  1  0  0  0  0
  3  4  1  0  0  0  0
  3 21  1  0  0  0  0
  4  5  1  0  0  0  0
  4 11  1  0  0  0  0
  4 22  1  0  0  0  0
  5  6  1  0  0  0  0
  5 23  1  0  0  0  0
  5 24  1  0  0  0  0
  6 10  1  0  0  0  0
  6  7  2  0  0  0  0
  7  8  1  0  0  0  0
  7 25  1  0  0  0  0
  8 20  1  0  0  0  0
  8  9  1  0  0  0  0
  9 10  2  0  0  0  0
  9 26  1  0  0  0  0
 10 38  1  0  0  0  0
 11 12  2  0  0  0  0
 11 13  1  0  0  0  0
 14 19  1  0  0  0  0
 14 15  1  0  0  0  0
 14 27  1  0  0  0  0
 15 16  1  0  0  0  0
 15 28  1  0  0  0  0
 15 29  1  0  0  0  0
 16 17  1  0  0  0  0
 16 30  1  0  0  0  0
 16 31  1  0  0  0  0
 17 18  1  0  0  0  0
 17 32  1  0  0  0  0
 17 33  1  0  0  0  0
 18 19  1  0  0  0  0
 18 34  1  0  0  0  0
 18 35  1  0  0  0  0
 19 36  1  0  0  0  0
 19 37  1  0  0  0  0
M  CHG  1  10   1
M  CHG  1  13  -1
M  END
> <s_m_source_file>
AV-unprocessed.smi

> <i_m_source_file_index>
994

> <i_lp_mmshare_version>
43012

> <i_f3d_flags>
0

> <s_epik_input>
W0NIMl0xW0NIMl1bQ0gyXVtDSDJdW0NIMl1bQ0hdMUMoPU8pW05IXVtDQEBIXShDKD1PKVtPSF0pW0NIMl1jMltjSF1bbkhdW2NIXW4y

> <s_epik_cmdline>
J2VwaWtfcHl0aG9uJywgJy1waCcsICc3LjAnLCAnLXRuJywgJzgnLCAnLW1hJywgJzIwMCcsICctbWV0YWxfYmluZGluZycsICctaW1hZScsICc8aW5maWxlLm1hZT4nLCAnLW9tYWUnLCAnPG91dGZpbGUubWFlPic=

> <r_lp_tautomer_probability>
1

> <r_epik_Ionization_Penalty>
0.469853

> <r_epik_Ionization_Penalty_Charging>
5.5863e-05

> <r_epik_Ionization_Penalty_Neutral>
0.469797

> <r_epik_State_Penalty>
0.377582

> <r_epik_Charging_Adjusted_Penalty>
0.377638

> <i_epik_Tot_Q>
0

> <i_epik_Tot_abs_Q>
2

> <r_epik_Metal_State_Penalty>
0.796804

> <b_epik_Metal_Only>
0

> <s_lp_Force_Field>
OPLS_2005

> <r_lp_Energy>
8.41083

> <b_lp_Chiralities_Consistent>
1

> <s_lp_Variant>
AV-unprocessed.smi:994-2

> <Gold.Version>
5.8.1

> <Gold.Id.Protein>
6NUR|6NUR_protein|mol2

> <Gold.PLP.Fitness>
53.9663

> <Gold.PLP.PLP>
-38.9474

> <Gold.PLP.part.hbond>
-3.0317

> <Gold.PLP.part.metal>
0.0000

> <Gold.PLP.part.buried>
-1.2002

> <Gold.PLP.part.nonpolar>
-35.7067

> <Gold.PLP.part.repulsive>
0.4243

> <Gold.PLP.ligand.clash>
0.0000

> <Gold.PLP.ligand.torsion>
1.0611

> <Gold.PLP.Chemscore.Hbond>
5.6960

> <Gold.PLP.Chemscore.CHOScore>
0.0000

> <Gold.PLP.Chemscore.Metal>
0.0000

> <Gold.Chemscore.Hbonds>
donor molecule, donor type, donor heavy atom, donor atom, acceptor molecule, acceptor atom, score
      L1  H     8    20       P1 10175  1.79
      L1  H    10    38       P1  8028  1.76
      P1  H  7997  8008       L1    12  2.00

> <Gold.PLP.Chemscore.Internal.Correction>
0.0530

> <Gold.Rescore>
     Score         DG    S(hbond)    S(metal)    S(lipo)     H(rot)  DE(clash)    DE(int)     intcor
     13.37     -17.29       2.33        0.00      93.96       2.72       0.81       3.11       ----

> <Gold.Chemscore.Fitness>
13.3663

> <Gold.Chemscore.DG>
-17.2877

> <Gold.Chemscore.ZeroCoef>
-5.4800

> <Gold.Chemscore.Hbond>
2.3293

> <Gold.Chemscore.Metal>
0.0000

> <Gold.Chemscore.Lipo>
93.9571

> <Gold.Chemscore.Internal_Hbond>
0.0000

> <Gold.Chemscore.DEClash>
0.8088

> <Gold.Chemscore.DEInternal>
3.1127

> <Gold.Chemscore.Rot>
2.7208

> <Gold.Chemscore.Internal.Correction>
   9.000000E+99

> <Gold.Chemscore.Hbonds>
donor molecule, donor type, donor heavy atom, donor atom, acceptor molecule, acceptor atom, score
      L1  H     8    20       P1 10175  0.37
      L1  H    10    38       P1  8028  0.86
      P1  H  7997  8008       L1    12  0.98

> <Gold.Chemscore.Hbond.Weighted>
-7.7799

> <Gold.Chemscore.Metal.Weighted>
-0.0000

> <Gold.Chemscore.Lipo.Weighted>
-10.9930

> <Gold.Chemscore.Internal_Hbond.Weighted>
0.0000

> <Gold.Chemscore.DEClash.Weighted>
0.8088

> <Gold.Chemscore.DEInternal.Weighted>
3.1127

> <Gold.Chemscore.Rot.Weighted>
6.9652

> <Gold.Chemscore.Internal.Correction.Weighted>
   9.000000E+99

> <Gold.Protein.RotatedTorsions>
[ 6907 6896 6895 6894 ] final -122.09 input  -60.11 | X-H torsion
[ 7974 7965 7964 7962 ] final   63.50 input  175.53 | X-H torsion
[ 8008 7997 7996 7995 ] final  -40.13 input   59.86 | X-H torsion
[ 10167 10162 10161 10158 ] final   46.45 input  -65.29 | X-H torsion
[ 10718 10713 10712 10709 ] final   62.11 input   66.30 | X-H torsion
[ 10763 10752 10751 10750 ] final  -83.69 input  -60.55 | X-H torsion
[ 11005 11000 10999 10996 ] final -109.77 input  -57.11 | X-H torsion

> <Gold.Protein.ActiveResidues>
 VAL166  LYS551  ARG553  GLY616  TRP617  ASP618  TYR619  PRO620  LYS621  CYS622 
 ASP623  PHE694  ASN695  SER759  ASP760  ASP761  ALA762  ILE779  LEU786  VAL792 
 PHE793  MET794  SER795  GLU796  ALA797  LYS798  CYS799  TRP800  GLU811  SER814 

> <Gold.Protein.RotatedAtoms>
  150.8543  133.7738  159.3014 H   0  0  0  0  0  0  0  0  0  0  0  0  # atno 6907 bound_to 6896
  151.5401  135.1067  159.9933 H   0  0  0  0  0  0  0  0  0  0  0  0  # atno 6908 bound_to 6896
  152.4578  133.7715  159.6857 H   0  0  0  0  0  0  0  0  0  0  0  0  # atno 6909 bound_to 6896
  145.8610  139.3315  143.0819 H   0  0  0  0  0  0  0  0  0  0  0  0  # atno 7974 bound_to 7965
  154.4015  140.1533  156.2976 H   0  0  0  0  0  0  0  0  0  0  0  0  # atno 8008 bound_to 7997
  155.8729  140.3448  155.5812 H   0  0  0  0  0  0  0  0  0  0  0  0  # atno 8009 bound_to 7997
  155.7754  140.0836  157.2077 H   0  0  0  0  0  0  0  0  0  0  0  0  # atno 8010 bound_to 7997
  140.3138  144.2788  150.6195 H   0  0  0  0  0  0  0  0  0  0  0  0  # atno 10167 bound_to 10162
  157.5877  130.9032  149.9547 H   0  0  0  0  0  0  0  0  0  0  0  0  # atno 10718 bound_to 10713
  154.5907  135.5547  153.7275 H   0  0  0  0  0  0  0  0  0  0  0  0  # atno 10763 bound_to 10752
  153.0115  135.6342  154.1853 H   0  0  0  0  0  0  0  0  0  0  0  0  # atno 10764 bound_to 10752
  154.1794  135.2888  155.3036 H   0  0  0  0  0  0  0  0  0  0  0  0  # atno 10765 bound_to 10752
  141.0829  133.9189  157.2249 H   0  0  0  0  0  0  0  0  0  0  0  0  # atno 11005 bound_to 11000
  145.9247  140.9090  143.0387 LP  0  0  0  0  0  0  0  0  0  0  0  0  # atno 17320 bound_to 7965
  144.6726  140.1337  143.7442 LP  0  0  0  0  0  0  0  0  0  0  0  0  # atno 17321 bound_to 7965
  140.5545  143.2201  151.7871 LP  0  0  0  0  0  0  0  0  0  0  0  0  # atno 17342 bound_to 10162
  139.4888  144.4432  151.9740 LP  0  0  0  0  0  0  0  0  0  0  0  0  # atno 17343 bound_to 10162
  156.0928  130.3662  150.0362 LP  0  0  0  0  0  0  0  0  0  0  0  0  # atno 17370 bound_to 10713
  156.8491  130.9452  151.3627 LP  0  0  0  0  0  0  0  0  0  0  0  0  # atno 17371 bound_to 10713
  139.9644  135.0146  156.9349 LP  0  0  0  0  0  0  0  0  0  0  0  0  # atno 17394 bound_to 11000
  140.5428  134.0703  155.7346 LP  0  0  0  0  0  0  0  0  0  0  0  0  # atno 17395 bound_to 11000

$$$$
