AV-unprocessed.smi:349|AV-procd|sdf|2397|dock4
  -GOLD-   2262022323D 1   1.00000     0.00000
 Structure written by MMmdl.
 43 44  0  0  0  0  0  0  0  0  1 V2000
  152.3614  145.2839  158.8426 C   0  0  0  0  0  0  0  0  0  0  0  0
  153.1347  144.0096  158.4687 C   0  0  0  0  0  0  0  0  0  0  0  0
  152.6859  142.7469  159.2371 C   0  0  1  0  0  0  0  0  0  0  0  0
  152.8830  142.9255  160.7522 C   0  0  0  0  0  0  0  0  0  0  0  0
  151.2241  142.3813  158.9396 C   0  0  0  0  0  0  0  0  0  0  0  0
  150.3260  143.1952  159.1563 O   0  0  0  0  0  0  0  0  0  0  0  0
  151.0028  141.1501  158.4520 N   0  0  0  0  0  0  0  0  0  0  0  0
  149.6973  140.5827  158.1250 C   0  0  0  0  0  0  0  0  0  0  0  0
  149.3327  140.7129  156.6453 C   0  0  0  0  0  0  0  0  0  0  0  0
  148.2490  141.5369  156.2637 C   0  0  0  0  0  0  0  0  0  0  0  0
  147.9314  141.6802  154.9018 C   0  0  0  0  0  0  0  0  0  0  0  0
  148.7183  140.9952  153.9603 C   0  0  0  0  0  0  0  0  0  0  0  0
  149.7605  140.2116  154.3028 N   0  0  0  0  0  0  0  0  0  0  0  0
  150.0725  140.0687  155.6147 C   0  0  0  0  0  0  0  0  0  0  0  0
  151.1563  139.2269  155.9238 N   0  0  0  0  0  0  0  0  0  0  0  0
  151.9989  138.8060  154.8092 C   0  0  0  0  0  0  0  0  0  0  0  0
  153.2363  138.0643  155.3421 C   0  0  0  0  0  0  0  0  0  0  0  0
  152.8212  136.9662  156.1500 O   0  0  0  0  0  0  0  0  0  0  0  0
  152.0554  137.3871  157.2758 C   0  0  0  0  0  0  0  0  0  0  0  0
  150.7897  138.1205  156.7988 C   0  0  0  0  0  0  0  0  0  0  0  0
  152.6800  146.1230  158.2240 H   0  0  0  0  0  0  0  0  0  0  0  0
  152.5247  145.5651  159.8832 H   0  0  0  0  0  0  0  0  0  0  0  0
  151.2895  145.1512  158.6941 H   0  0  0  0  0  0  0  0  0  0  0  0
  153.0083  143.8356  157.3995 H   0  0  0  0  0  0  0  0  0  0  0  0
  154.2024  144.1788  158.6165 H   0  0  0  0  0  0  0  0  0  0  0  0
  153.3200  141.9167  158.9205 H   0  0  0  0  0  0  0  0  0  0  0  0
  152.5644  142.0387  161.3016 H   0  0  0  0  0  0  0  0  0  0  0  0
  152.3155  143.7753  161.1335 H   0  0  0  0  0  0  0  0  0  0  0  0
  153.9329  143.0965  160.9916 H   0  0  0  0  0  0  0  0  0  0  0  0
  151.8037  140.5530  158.3055 H   0  0  0  0  0  0  0  0  0  0  0  0
  149.6501  139.5269  158.3954 H   0  0  0  0  0  0  0  0  0  0  0  0
  148.9719  141.0785  158.7671 H   0  0  0  0  0  0  0  0  0  0  0  0
  147.6656  142.0648  157.0027 H   0  0  0  0  0  0  0  0  0  0  0  0
  147.1080  142.3041  154.5872 H   0  0  0  0  0  0  0  0  0  0  0  0
  148.5073  141.0797  152.9046 H   0  0  0  0  0  0  0  0  0  0  0  0
  151.4360  138.1485  154.1452 H   0  0  0  0  0  0  0  0  0  0  0  0
  152.3034  139.6762  154.2264 H   0  0  0  0  0  0  0  0  0  0  0  0
  153.8366  137.6893  154.5131 H   0  0  0  0  0  0  0  0  0  0  0  0
  153.8737  138.7352  155.9203 H   0  0  0  0  0  0  0  0  0  0  0  0
  151.7834  136.5125  157.8666 H   0  0  0  0  0  0  0  0  0  0  0  0
  152.6587  138.0311  157.9178 H   0  0  0  0  0  0  0  0  0  0  0  0
  150.2216  138.4819  157.6565 H   0  0  0  0  0  0  0  0  0  0  0  0
  150.1420  137.4319  156.2542 H   0  0  0  0  0  0  0  0  0  0  0  0
  1  2  1  0  0  0  0
  1 21  1  0  0  0  0
  1 22  1  0  0  0  0
  1 23  1  0  0  0  0
  2  3  1  0  0  0  0
  2 24  1  0  0  0  0
  2 25  1  0  0  0  0
  3  4  1  0  0  0  0
  3  5  1  0  0  0  0
  3 26  1  0  0  0  0
  4 27  1  0  0  0  0
  4 28  1  0  0  0  0
  4 29  1  0  0  0  0
  5  6  2  0  0  0  0
  5  7  1  0  0  0  0
  7  8  1  0  0  0  0
  7 30  1  0  0  0  0
  8  9  1  0  0  0  0
  8 31  1  0  0  0  0
  8 32  1  0  0  0  0
  9 14  1  0  0  0  0
  9 10  2  0  0  0  0
 10 11  1  0  0  0  0
 10 33  1  0  0  0  0
 11 12  2  0  0  0  0
 11 34  1  0  0  0  0
 12 13  1  0  0  0  0
 12 35  1  0  0  0  0
 13 14  2  0  0  0  0
 14 15  1  0  0  0  0
 15 20  1  0  0  0  0
 15 16  1  0  0  0  0
 16 17  1  0  0  0  0
 16 36  1  0  0  0  0
 16 37  1  0  0  0  0
 17 18  1  0  0  0  0
 17 38  1  0  0  0  0
 17 39  1  0  0  0  0
 18 19  1  0  0  0  0
 19 20  1  0  0  0  0
 19 40  1  0  0  0  0
 19 41  1  0  0  0  0
 20 42  1  0  0  0  0
 20 43  1  0  0  0  0
M  END
> <s_m_source_file>
AV-unprocessed.smi

> <i_m_source_file_index>
349

> <i_lp_mmshare_version>
43012

> <i_f3d_flags>
0

> <s_epik_input>
W0NIM11bQ0gyXVtDQEhdKFtDSDNdKUMoPU8pW05IXVtDSDJdYzFbY0hdW2NIXVtjSF1uYzFOMltDSDJdW0NIMl1PW0NIMl1bQ0gyXTI=

> <s_epik_cmdline>
J2VwaWtfcHl0aG9uJywgJy1waCcsICc3LjAnLCAnLXRuJywgJzgnLCAnLW1hJywgJzIwMCcsICctbWV0YWxfYmluZGluZycsICctaW1hZScsICc8aW5maWxlLm1hZT4nLCAnLW9tYWUnLCAnPG91dGZpbGUubWFlPic=

> <r_lp_tautomer_probability>
1

> <r_epik_Ionization_Penalty>
0.00513869

> <r_epik_Ionization_Penalty_Charging>
0

> <r_epik_Ionization_Penalty_Neutral>
0.00513869

> <r_epik_State_Penalty>
0.00374265

> <r_epik_Charging_Adjusted_Penalty>
0.00374265

> <i_epik_Tot_Q>
0

> <i_epik_Tot_abs_Q>
0

> <r_epik_Metal_State_Penalty>
-0

> <b_epik_Metal_Only>
0

> <s_lp_Force_Field>
OPLS_2005

> <r_lp_Energy>
19.4622

> <b_lp_Chiralities_Consistent>
1

> <s_lp_Variant>
AV-unprocessed.smi:349-2

> <Gold.Version>
5.8.1

> <Gold.Id.Protein>
6NUR|6NUR_protein|mol2

> <Gold.PLP.Fitness>
43.1924

> <Gold.PLP.PLP>
-36.5181

> <Gold.PLP.part.hbond>
-2.6345

> <Gold.PLP.part.metal>
0.0000

> <Gold.PLP.part.buried>
-1.5881

> <Gold.PLP.part.nonpolar>
-32.1333

> <Gold.PLP.part.repulsive>
0.4117

> <Gold.PLP.ligand.clash>
0.0000

> <Gold.PLP.ligand.torsion>
0.3640

> <Gold.PLP.Chemscore.Hbond>
1.4720

> <Gold.PLP.Chemscore.CHOScore>
0.9263

> <Gold.PLP.Chemscore.Metal>
0.0000

> <Gold.Chemscore.Hbonds>
donor molecule, donor type, donor heavy atom, donor atom, acceptor molecule, acceptor atom, score
      P1  H  7989  7998       L1    13  0.66
      P1  H 10752 10765       L1    18  0.80
      L1  C    12    35       P1  7957  0.97

> <Gold.PLP.Chemscore.Internal.Correction>
0.2075

> <Gold.Rescore>
     Score         DG    S(hbond)    S(metal)    S(lipo)     H(rot)  DE(clash)    DE(int)     intcor
     14.75     -16.30       0.95        0.00     101.38       1.64       0.28       1.27       ----

> <Gold.Chemscore.Fitness>
14.7518

> <Gold.Chemscore.DG>
-16.3001

> <Gold.Chemscore.ZeroCoef>
-5.4800

> <Gold.Chemscore.Hbond>
0.9456

> <Gold.Chemscore.Metal>
0.0000

> <Gold.Chemscore.Lipo>
101.3836

> <Gold.Chemscore.Internal_Hbond>
0.0000

> <Gold.Chemscore.DEClash>
0.2800

> <Gold.Chemscore.DEInternal>
1.2683

> <Gold.Chemscore.Rot>
1.6407

> <Gold.Chemscore.Internal.Correction>
   9.000000E+99

> <Gold.Chemscore.Hbonds>
donor molecule, donor type, donor heavy atom, donor atom, acceptor molecule, acceptor atom, score
      P1  H  7989  7998       L1    13  0.19
      P1  H 10752 10765       L1    18  0.36

> <Gold.Chemscore.Hbond.Weighted>
-3.1583

> <Gold.Chemscore.Metal.Weighted>
-0.0000

> <Gold.Chemscore.Lipo.Weighted>
-11.8619

> <Gold.Chemscore.Internal_Hbond.Weighted>
0.0000

> <Gold.Chemscore.DEClash.Weighted>
0.2800

> <Gold.Chemscore.DEInternal.Weighted>
1.2683

> <Gold.Chemscore.Rot.Weighted>
4.2001

> <Gold.Chemscore.Internal.Correction.Weighted>
   9.000000E+99

> <Gold.Protein.RotatedTorsions>
[ 6907 6896 6895 6894 ] final  -48.47 input  -60.11 | X-H torsion
[ 7974 7965 7964 7962 ] final   69.66 input  175.53 | X-H torsion
[ 8008 7997 7996 7995 ] final   82.31 input   59.86 | X-H torsion
[ 10167 10162 10161 10158 ] final -131.65 input  -65.29 | X-H torsion
[ 10718 10713 10712 10709 ] final  -21.43 input   66.30 | X-H torsion
[ 10763 10752 10751 10750 ] final -138.57 input  -60.55 | X-H torsion
[ 11005 11000 10999 10996 ] final  -18.82 input  -57.11 | X-H torsion

> <Gold.Protein.ActiveResidues>
 VAL166  LYS551  ARG553  GLY616  TRP617  ASP618  TYR619  PRO620  LYS621  CYS622 
 ASP623  PHE694  ASN695  SER759  ASP760  ASP761  ALA762  ILE779  LEU786  VAL792 
 PHE793  MET794  SER795  GLU796  ALA797  LYS798  CYS799  TRP800  GLU811  SER814 

> <Gold.Protein.RotatedAtoms>
  150.8903  134.8305  159.7287 H   0  0  0  0  0  0  0  0  0  0  0  0  # atno 6907 bound_to 6896
  152.4832  134.4659  159.9630 H   0  0  0  0  0  0  0  0  0  0  0  0  # atno 6908 bound_to 6896
  151.4723  133.3527  159.2860 H   0  0  0  0  0  0  0  0  0  0  0  0  # atno 6909 bound_to 6896
  145.7877  139.2918  143.1228 H   0  0  0  0  0  0  0  0  0  0  0  0  # atno 7974 bound_to 7965
  155.9089  140.3428  155.6083 H   0  0  0  0  0  0  0  0  0  0  0  0  # atno 8008 bound_to 7997
  155.7412  140.0808  157.2264 H   0  0  0  0  0  0  0  0  0  0  0  0  # atno 8009 bound_to 7997
  154.4053  140.1570  156.2605 H   0  0  0  0  0  0  0  0  0  0  0  0  # atno 8010 bound_to 7997
  139.9167  143.6431  152.2563 H   0  0  0  0  0  0  0  0  0  0  0  0  # atno 10167 bound_to 10162
  156.5183  130.4626  149.6610 H   0  0  0  0  0  0  0  0  0  0  0  0  # atno 10718 bound_to 10713
  154.8633  135.3608  154.5406 H   0  0  0  0  0  0  0  0  0  0  0  0  # atno 10763 bound_to 10752
  153.6028  135.7012  153.5382 H   0  0  0  0  0  0  0  0  0  0  0  0  # atno 10764 bound_to 10752
  153.3276  135.4133  155.1430 H   0  0  0  0  0  0  0  0  0  0  0  0  # atno 10765 bound_to 10752
  140.8306  133.8000  155.9754 H   0  0  0  0  0  0  0  0  0  0  0  0  # atno 11005 bound_to 11000
  146.0009  140.8521  143.0019 LP  0  0  0  0  0  0  0  0  0  0  0  0  # atno 17320 bound_to 7965
  144.6786  140.2350  143.7350 LP  0  0  0  0  0  0  0  0  0  0  0  0  # atno 17321 bound_to 7965
  139.6896  144.7648  151.1461 LP  0  0  0  0  0  0  0  0  0  0  0  0  # atno 17342 bound_to 10162
  140.7672  143.5607  150.9102 LP  0  0  0  0  0  0  0  0  0  0  0  0  # atno 17343 bound_to 10162
  156.3174  130.7262  151.2167 LP  0  0  0  0  0  0  0  0  0  0  0  0  # atno 17370 bound_to 10713
  157.7440  131.0465  150.4896 LP  0  0  0  0  0  0  0  0  0  0  0  0  # atno 17371 bound_to 10713
  140.9002  134.2387  157.5046 LP  0  0  0  0  0  0  0  0  0  0  0  0  # atno 17394 bound_to 11000
  139.8705  134.9703  156.4696 LP  0  0  0  0  0  0  0  0  0  0  0  0  # atno 17395 bound_to 11000

$$$$
