AV-unprocessed.smi:53|AV-procd|sdf|521|dock2
  -GOLD-   2262016393D 1   1.00000     0.00000
 Structure written by MMmdl.
 30 31  0  0  0  0  0  0  0  0  1 V2000
  155.6450  139.7419  158.6251 N   0  0  0  0  0  0  0  0  0  0  0  0
  154.7825  139.5180  157.6238 C   0  0  0  0  0  0  0  0  0  0  0  0
  153.5122  140.2068  157.5864 C   0  0  0  0  0  0  0  0  0  0  0  0
  152.6993  139.9314  156.5429 C   0  0  0  0  0  0  0  0  0  0  0  0
  153.0597  139.0419  155.5399 N   0  0  0  0  0  0  0  0  0  0  0  0
  152.1304  138.7410  154.3859 C   0  0  2  0  0  0  0  0  0  0  0  0
  150.9785  139.5218  154.5172 O   0  0  0  0  0  0  0  0  0  0  0  0
  149.8172  138.7149  154.3498 C   0  0  2  0  0  0  0  0  0  0  0  0
  148.6417  139.3347  155.1203 C   0  0  0  0  0  0  0  0  0  0  0  0
  148.1091  140.4221  154.3952 O   0  0  0  0  0  0  0  0  0  0  0  0
  150.2691  137.3635  154.9041 C   0  0  1  0  0  0  0  0  0  0  0  0
  149.4553  136.2862  154.4801 O   0  0  0  0  0  0  0  0  0  0  0  0
  151.7089  137.2626  154.4138 C   0  0  1  0  0  0  0  0  0  0  0  0
  151.8116  136.6806  153.1268 O   0  0  0  0  0  0  0  0  0  0  0  0
  154.2993  138.3634  155.6175 C   0  0  0  0  0  0  0  0  0  0  0  0
  154.6385  137.5330  154.7751 O   0  0  0  0  0  0  0  0  0  0  0  0
  155.1114  138.6572  156.6799 N   0  0  0  0  0  0  0  0  0  0  0  0
  152.6513  139.0430  153.4749 H   0  0  0  0  0  0  0  0  0  0  0  0
  149.5924  138.6194  153.2855 H   0  0  0  0  0  0  0  0  0  0  0  0
  150.2681  137.3981  155.9945 H   0  0  0  0  0  0  0  0  0  0  0  0
  152.3288  136.6861  155.1022 H   0  0  0  0  0  0  0  0  0  0  0  0
  156.5300  139.2567  158.6509 H   0  0  0  0  0  0  0  0  0  0  0  0
  155.4041  140.3948  159.3571 H   0  0  0  0  0  0  0  0  0  0  0  0
  153.1967  140.9136  158.3406 H   0  0  0  0  0  0  0  0  0  0  0  0
  151.7417  140.4299  156.5083 H   0  0  0  0  0  0  0  0  0  0  0  0
  147.8441  138.6017  155.2434 H   0  0  0  0  0  0  0  0  0  0  0  0
  148.9441  139.6550  156.1178 H   0  0  0  0  0  0  0  0  0  0  0  0
  147.1665  140.3527  154.4016 H   0  0  0  0  0  0  0  0  0  0  0  0
  149.4089  136.2988  153.5364 H   0  0  0  0  0  0  0  0  0  0  0  0
  151.3473  137.2289  152.5125 H   0  0  0  0  0  0  0  0  0  0  0  0
  1  2  1  0  0  0  0
  1 22  1  0  0  0  0
  1 23  1  0  0  0  0
  2 17  2  0  0  0  0
  2  3  1  0  0  0  0
  3  4  2  0  0  0  0
  3 24  1  0  0  0  0
  4  5  1  0  0  0  0
  4 25  1  0  0  0  0
  5  6  1  0  0  0  0
  5 15  1  0  0  0  0
  6 18  1  0  0  0  0
  6 13  1  0  0  0  0
  6  7  1  0  0  0  0
  7  8  1  0  0  0  0
  8 19  1  0  0  0  0
  8  9  1  0  0  0  0
  8 11  1  0  0  0  0
  9 10  1  0  0  0  0
  9 26  1  0  0  0  0
  9 27  1  0  0  0  0
 10 28  1  0  0  0  0
 11 20  1  0  0  0  0
 11 12  1  0  0  0  0
 11 13  1  0  0  0  0
 12 29  1  0  0  0  0
 13 21  1  0  0  0  0
 13 14  1  0  0  0  0
 14 30  1  0  0  0  0
 15 16  2  0  0  0  0
 15 17  1  0  0  0  0
M  END
> <s_m_source_file>
AV-unprocessed.smi

> <i_m_source_file_index>
53

> <i_lp_mmshare_version>
43012

> <i_f3d_flags>
0

> <s_epik_input>
W05IMl1jMVtjSF1bY0hdbihjKD1PKW4xKVtDQEBIXTJPW0NASF0oW0NIMl1bT0hdKVtDQEBIXShbT0hdKVtDQEBIXTJbT0hd

> <s_epik_cmdline>
J2VwaWtfcHl0aG9uJywgJy1waCcsICc3LjAnLCAnLXRuJywgJzgnLCAnLW1hJywgJzIwMCcsICctbWV0YWxfYmluZGluZycsICctaW1hZScsICc8aW5maWxlLm1hZT4nLCAnLW9tYWUnLCAnPG91dGZpbGUubWFlPic=

> <r_lp_tautomer_probability>
0.99996

> <r_epik_Ionization_Penalty>
0.00069087

> <r_epik_Ionization_Penalty_Charging>
2.61959e-08

> <r_epik_Ionization_Penalty_Neutral>
0.000690844

> <r_epik_State_Penalty>
1.15523e-05

> <r_epik_Charging_Adjusted_Penalty>
1.15785e-05

> <i_epik_Tot_Q>
0

> <i_epik_Tot_abs_Q>
0

> <r_epik_Metal_State_Penalty>
-0

> <b_epik_Metal_Only>
0

> <s_epik_Chemistry_Notes>
This compound contains an acetal/aminal-like group ( X-CH(R)-Y where X, Y are N, S, or O) that may be acid/base labile, releasing an aldehyde.

> <s_lp_Force_Field>
OPLS_2005

> <r_lp_Energy>
32.5025

> <b_lp_Chiralities_Consistent>
1

> <s_lp_Variant>
AV-unprocessed.smi:53-9

> <Gold.Version>
5.8.1

> <Gold.Id.Protein>
6NUR|6NUR_protein|mol2

> <Gold.PLP.Fitness>
41.3629

> <Gold.PLP.PLP>
-26.2059

> <Gold.PLP.part.hbond>
-7.9198

> <Gold.PLP.part.metal>
0.0000

> <Gold.PLP.part.buried>
-1.3835

> <Gold.PLP.part.nonpolar>
-17.0034

> <Gold.PLP.part.repulsive>
0.1505

> <Gold.PLP.ligand.clash>
0.0000

> <Gold.PLP.ligand.torsion>
0.1255

> <Gold.PLP.Chemscore.Hbond>
5.1303

> <Gold.PLP.Chemscore.CHOScore>
0.0000

> <Gold.PLP.Chemscore.Metal>
0.0000

> <Gold.Chemscore.Hbonds>
donor molecule, donor type, donor heavy atom, donor atom, acceptor molecule, acceptor atom, score
      L1  H    12    29       P1  7948  1.00
      P1  H  7989  7998       L1     7  0.65
      P1  H 10752 10763       L1    14  0.10

> <Gold.PLP.Chemscore.Internal.Correction>
0.0173

> <Gold.Rescore>
     Score         DG    S(hbond)    S(metal)    S(lipo)     H(rot)  DE(clash)    DE(int)     intcor
     11.17     -12.69       3.73        0.00      36.30       3.71       0.16       1.37       ----

> <Gold.Chemscore.Fitness>
11.1669

> <Gold.Chemscore.DG>
-12.6923

> <Gold.Chemscore.ZeroCoef>
-5.4800

> <Gold.Chemscore.Hbond>
3.7311

> <Gold.Chemscore.Metal>
0.0000

> <Gold.Chemscore.Lipo>
36.2963

> <Gold.Chemscore.Internal_Hbond>
0.0000

> <Gold.Chemscore.DEClash>
0.1559

> <Gold.Chemscore.DEInternal>
1.3694

> <Gold.Chemscore.Rot>
3.7095

> <Gold.Chemscore.Internal.Correction>
   9.000000E+99

> <Gold.Chemscore.Hbonds>
donor molecule, donor type, donor heavy atom, donor atom, acceptor molecule, acceptor atom, score
      L1  H    12    29       P1  7948  0.74
      L1  H    14    30       P1  7949  0.01
      P1  H  7989  7998       L1     7  0.06
      P1  H 10752 10765       L1    16  0.02

> <Gold.Chemscore.Hbond.Weighted>
-12.4620

> <Gold.Chemscore.Metal.Weighted>
-0.0000

> <Gold.Chemscore.Lipo.Weighted>
-4.2467

> <Gold.Chemscore.Internal_Hbond.Weighted>
0.0000

> <Gold.Chemscore.DEClash.Weighted>
0.1559

> <Gold.Chemscore.DEInternal.Weighted>
1.3694

> <Gold.Chemscore.Rot.Weighted>
9.4964

> <Gold.Chemscore.Internal.Correction.Weighted>
   9.000000E+99

> <Gold.Protein.RotatedTorsions>
[ 6907 6896 6895 6894 ] final   54.10 input  -60.11 | X-H torsion
[ 7974 7965 7964 7962 ] final  -24.70 input  175.53 | X-H torsion
[ 8008 7997 7996 7995 ] final  138.94 input   59.86 | X-H torsion
[ 10167 10162 10161 10158 ] final -177.63 input  -65.29 | X-H torsion
[ 10718 10713 10712 10709 ] final  143.47 input   66.30 | X-H torsion
[ 10763 10752 10751 10750 ] final   22.00 input  -60.55 | X-H torsion
[ 11005 11000 10999 10996 ] final   20.46 input  -57.11 | X-H torsion

> <Gold.Protein.ActiveResidues>
 VAL166  LYS551  ARG553  GLY616  TRP617  ASP618  TYR619  PRO620  LYS621  CYS622 
 ASP623  PHE694  ASN695  SER759  ASP760  ASP761  ALA762  ILE779  LEU786  VAL792 
 PHE793  MET794  SER795  GLU796  ALA797  LYS798  CYS799  TRP800  GLU811  SER814 

> <Gold.Protein.RotatedAtoms>
  152.3404  134.7142  160.0264 H   0  0  0  0  0  0  0  0  0  0  0  0  # atno 6907 bound_to 6896
  151.7528  133.3323  159.3404 H   0  0  0  0  0  0  0  0  0  0  0  0  # atno 6908 bound_to 6896
  150.7476  134.6109  159.6130 H   0  0  0  0  0  0  0  0  0  0  0  0  # atno 6909 bound_to 6896
  146.1538  140.4787  142.8600 H   0  0  0  0  0  0  0  0  0  0  0  0  # atno 7974 bound_to 7965
  156.2994  140.2380  156.4155 H   0  0  0  0  0  0  0  0  0  0  0  0  # atno 8008 bound_to 7997
  154.8402  140.0429  157.1556 H   0  0  0  0  0  0  0  0  0  0  0  0  # atno 8009 bound_to 7997
  154.9111  140.2990  155.5269 H   0  0  0  0  0  0  0  0  0  0  0  0  # atno 8010 bound_to 7997
  139.5471  144.2208  152.1008 H   0  0  0  0  0  0  0  0  0  0  0  0  # atno 10167 bound_to 10162
  157.3686  131.0975  151.0850 H   0  0  0  0  0  0  0  0  0  0  0  0  # atno 10718 bound_to 10713
  153.0950  135.6657  153.9780 H   0  0  0  0  0  0  0  0  0  0  0  0  # atno 10763 bound_to 10752
  153.9367  135.2998  155.3445 H   0  0  0  0  0  0  0  0  0  0  0  0  # atno 10764 bound_to 10752
  154.7368  135.5098  153.9129 H   0  0  0  0  0  0  0  0  0  0  0  0  # atno 10765 bound_to 10752
  140.4024  134.1704  155.7664 H   0  0  0  0  0  0  0  0  0  0  0  0  # atno 11005 bound_to 11000
  144.7937  140.6082  143.6524 LP  0  0  0  0  0  0  0  0  0  0  0  0  # atno 17320 bound_to 7965
  145.4759  139.1499  143.3789 LP  0  0  0  0  0  0  0  0  0  0  0  0  # atno 17321 bound_to 7965
  140.1696  144.4948  150.6587 LP  0  0  0  0  0  0  0  0  0  0  0  0  # atno 17342 bound_to 10162
  140.6722  143.2290  151.5597 LP  0  0  0  0  0  0  0  0  0  0  0  0  # atno 17343 bound_to 10162
  157.1962  130.6374  149.5722 LP  0  0  0  0  0  0  0  0  0  0  0  0  # atno 17370 bound_to 10713
  155.9751  130.4706  150.6434 LP  0  0  0  0  0  0  0  0  0  0  0  0  # atno 17371 bound_to 10713
  141.1852  133.8329  157.1114 LP  0  0  0  0  0  0  0  0  0  0  0  0  # atno 17394 bound_to 11000
  140.0327  134.9893  157.0811 LP  0  0  0  0  0  0  0  0  0  0  0  0  # atno 17395 bound_to 11000

$$$$
