AV-unprocessed.smi:596|AV-procd|sdf|3019|dock6
  -GOLD-   2262023533D 1   1.00000     0.00000
 Structure written by MMmdl.
 41 42  0  0  0  0  0  0  0  0  3 V2000
  151.8125  136.4872  155.9985 O   0  0  0  0  0  0  0  0  0  0  0  0
  151.1766  136.7131  154.9696 C   0  0  0  0  0  0  0  0  0  0  0  0
  151.4835  137.9921  154.1709 C   0  0  0  0  0  0  0  0  0  0  0  0
  150.8395  139.2157  154.6825 N   0  0  0  0  0  0  0  0  0  0  0  0
  149.6036  139.5727  154.1076 C   0  0  0  0  0  0  0  0  0  0  0  0
  148.9198  140.6649  154.5009 C   0  0  0  0  0  0  0  0  0  0  0  0
  147.6460  141.0088  153.9082 N   0  3  0  0  0  0  0  0  0  0  0  0
  147.1200  140.2100  153.1400 O   0  0  0  0  0  0  0  0  0  0  0  0
  147.1307  142.0869  154.1884 O   0  5  0  0  0  0  0  0  0  0  0  0
  149.5007  141.4832  155.5476 C   0  0  0  0  0  0  0  0  0  0  0  0
  150.6803  141.1449  156.1044 C   0  0  0  0  0  0  0  0  0  0  0  0
  151.4182  139.9504  155.6813 C   0  0  0  0  0  0  0  0  0  0  0  0
  152.4878  139.6271  156.1974 O   0  0  0  0  0  0  0  0  0  0  0  0
  150.2253  135.8832  154.5078 N   0  0  0  0  0  0  0  0  0  0  0  0
  149.8254  134.6286  155.1325 C   0  0  0  0  0  0  0  0  0  0  0  0
  149.3543  133.6052  154.0848 C   0  0  0  0  0  0  0  0  0  0  0  0
  149.8986  132.2100  154.3414 C   0  0  0  0  0  0  0  0  0  0  0  0
  149.4853  131.1421  153.6313 C   0  0  0  0  0  0  0  0  0  0  0  0
  150.0068  129.7298  153.8319 C   0  0  0  0  0  0  0  0  0  0  0  0
  151.2877  129.6928  154.6823 C   0  0  0  0  0  0  0  0  0  0  0  0
  151.1786  130.6327  155.8892 C   0  0  0  0  0  0  0  0  0  0  0  0
  150.9416  132.0881  155.4468 C   0  0  0  0  0  0  0  0  0  0  0  0
  152.5665  138.1186  154.1267 H   0  0  0  0  0  0  0  0  0  0  0  0
  151.1826  137.8211  153.1363 H   0  0  0  0  0  0  0  0  0  0  0  0
  149.2543  138.8943  153.3424 H   0  0  0  0  0  0  0  0  0  0  0  0
  148.9948  142.3732  155.8922 H   0  0  0  0  0  0  0  0  0  0  0  0
  151.0948  141.7684  156.8829 H   0  0  0  0  0  0  0  0  0  0  0  0
  149.7462  136.1387  153.6565 H   0  0  0  0  0  0  0  0  0  0  0  0
  150.6491  134.2223  155.7222 H   0  0  0  0  0  0  0  0  0  0  0  0
  149.0212  134.8517  155.8337 H   0  0  0  0  0  0  0  0  0  0  0  0
  148.2649  133.5573  154.0675 H   0  0  0  0  0  0  0  0  0  0  0  0
  149.6616  133.9312  153.0901 H   0  0  0  0  0  0  0  0  0  0  0  0
  148.7308  131.2636  152.8677 H   0  0  0  0  0  0  0  0  0  0  0  0
  149.2203  129.1453  154.3099 H   0  0  0  0  0  0  0  0  0  0  0  0
  150.1947  129.2740  152.8595 H   0  0  0  0  0  0  0  0  0  0  0  0
  151.4879  128.6724  155.0104 H   0  0  0  0  0  0  0  0  0  0  0  0
  152.1401  129.9937  154.0714 H   0  0  0  0  0  0  0  0  0  0  0  0
  150.3527  130.3061  156.5229 H   0  0  0  0  0  0  0  0  0  0  0  0
  152.0791  130.5716  156.5006 H   0  0  0  0  0  0  0  0  0  0  0  0
  151.8758  132.5176  155.0837 H   0  0  0  0  0  0  0  0  0  0  0  0
  150.6336  132.6832  156.3071 H   0  0  0  0  0  0  0  0  0  0  0  0
  1  2  2  0  0  0  0
  2  3  1  0  0  0  0
  2 14  1  0  0  0  0
  3  4  1  0  0  0  0
  3 23  1  0  0  0  0
  3 24  1  0  0  0  0
  4 12  1  0  0  0  0
  4  5  1  0  0  0  0
  5  6  2  0  0  0  0
  5 25  1  0  0  0  0
  6  7  1  0  0  0  0
  6 10  1  0  0  0  0
  7  8  2  0  0  0  0
  7  9  1  0  0  0  0
 10 11  2  0  0  0  0
 10 26  1  0  0  0  0
 11 12  1  0  0  0  0
 11 27  1  0  0  0  0
 12 13  2  0  0  0  0
 14 15  1  0  0  0  0
 14 28  1  0  0  0  0
 15 16  1  0  0  0  0
 15 29  1  0  0  0  0
 15 30  1  0  0  0  0
 16 17  1  0  0  0  0
 16 31  1  0  0  0  0
 16 32  1  0  0  0  0
 17 22  1  0  0  0  0
 17 18  2  0  0  0  0
 18 19  1  0  0  0  0
 18 33  1  0  0  0  0
 19 20  1  0  0  0  0
 19 34  1  0  0  0  0
 19 35  1  0  0  0  0
 20 21  1  0  0  0  0
 20 36  1  0  0  0  0
 20 37  1  0  0  0  0
 21 22  1  0  0  0  0
 21 38  1  0  0  0  0
 21 39  1  0  0  0  0
 22 40  1  0  0  0  0
 22 41  1  0  0  0  0
M  CHG  1   7   1
M  CHG  1   9  -1
M  END
> <s_m_source_file>
AV-unprocessed.smi

> <i_m_source_file_index>
596

> <i_lp_mmshare_version>
43012

> <i_f3d_flags>
0

> <s_epik_input>
Tz1jMVtjSF1bY0hdYyhbTitdKD1PKVtPLV0pW2NIXW4xW0NIMl1DKD1PKVtOSF1bQ0gyXVtDSDJdQzI9W0NIXVtDSDJdW0NIMl1bQ0gyXVtDSDJdMg==

> <s_epik_cmdline>
J2VwaWtfcHl0aG9uJywgJy1waCcsICc3LjAnLCAnLXRuJywgJzgnLCAnLW1hJywgJzIwMCcsICctbWV0YWxfYmluZGluZycsICctaW1hZScsICc8aW5maWxlLm1hZT4nLCAnLW9tYWUnLCAnPG91dGZpbGUubWFlPic=

> <r_lp_tautomer_probability>
1

> <r_epik_Ionization_Penalty>
1.81809e-08

> <r_epik_Ionization_Penalty_Charging>
7.7346e-11

> <r_epik_Ionization_Penalty_Neutral>
1.81035e-08

> <r_epik_State_Penalty>
-0

> <r_epik_Charging_Adjusted_Penalty>
7.7346e-11

> <i_epik_Tot_Q>
0

> <i_epik_Tot_abs_Q>
2

> <r_epik_Metal_State_Penalty>
-0

> <b_epik_Metal_Only>
0

> <s_lp_Force_Field>
OPLS_2005

> <r_lp_Energy>
18.9868

> <b_lp_Chiralities_Consistent>
1

> <s_lp_Variant>
AV-unprocessed.smi:596-1

> <Gold.Version>
5.8.1

> <Gold.Id.Protein>
6NUR|6NUR_protein|mol2

> <Gold.PLP.Fitness>
53.3110

> <Gold.PLP.PLP>
-45.0101

> <Gold.PLP.part.hbond>
-3.4889

> <Gold.PLP.part.metal>
0.0000

> <Gold.PLP.part.buried>
-0.9369

> <Gold.PLP.part.nonpolar>
-40.3223

> <Gold.PLP.part.repulsive>
0.6301

> <Gold.PLP.ligand.clash>
0.0000

> <Gold.PLP.ligand.torsion>
1.2449

> <Gold.PLP.Chemscore.Hbond>
3.0000

> <Gold.PLP.Chemscore.CHOScore>
0.5682

> <Gold.PLP.Chemscore.Metal>
0.0000

> <Gold.Chemscore.Hbonds>
donor molecule, donor type, donor heavy atom, donor atom, acceptor molecule, acceptor atom, score
      L1  H    14    28       P1  7948  1.00
      P1  H  7997  8008       L1    13  1.00
      P1  H 10752 10763       L1     1  0.85
      L1  C     5    25       P1  7957  0.54

> <Gold.PLP.Chemscore.Internal.Correction>
0.0861

> <Gold.Rescore>
     Score         DG    S(hbond)    S(metal)    S(lipo)     H(rot)  DE(clash)    DE(int)     intcor
     16.00     -17.97       2.48        0.00      79.35       1.98       0.79       1.18       ----

> <Gold.Chemscore.Fitness>
15.9984

> <Gold.Chemscore.DG>
-17.9733

> <Gold.Chemscore.ZeroCoef>
-5.4800

> <Gold.Chemscore.Hbond>
2.4811

> <Gold.Chemscore.Metal>
0.0000

> <Gold.Chemscore.Lipo>
79.3519

> <Gold.Chemscore.Internal_Hbond>
0.0000

> <Gold.Chemscore.DEClash>
0.7914

> <Gold.Chemscore.DEInternal>
1.1836

> <Gold.Chemscore.Rot>
1.9835

> <Gold.Chemscore.Internal.Correction>
   9.000000E+99

> <Gold.Chemscore.Hbonds>
donor molecule, donor type, donor heavy atom, donor atom, acceptor molecule, acceptor atom, score
      L1  H    14    28       P1  7948  0.25
      P1  H  7997  8008       L1    13  0.99
      P1  H 10752 10763       L1     1  0.14

> <Gold.Chemscore.Hbond.Weighted>
-8.2870

> <Gold.Chemscore.Metal.Weighted>
-0.0000

> <Gold.Chemscore.Lipo.Weighted>
-9.2842

> <Gold.Chemscore.Internal_Hbond.Weighted>
0.0000

> <Gold.Chemscore.DEClash.Weighted>
0.7914

> <Gold.Chemscore.DEInternal.Weighted>
1.1836

> <Gold.Chemscore.Rot.Weighted>
5.0778

> <Gold.Chemscore.Internal.Correction.Weighted>
   9.000000E+99

> <Gold.Protein.RotatedTorsions>
[ 6907 6896 6895 6894 ] final  -59.85 input  -60.11 | X-H torsion
[ 7974 7965 7964 7962 ] final  156.49 input  175.53 | X-H torsion
[ 8008 7997 7996 7995 ] final  -32.21 input   59.86 | X-H torsion
[ 10167 10162 10161 10158 ] final  -55.09 input  -65.29 | X-H torsion
[ 10718 10713 10712 10709 ] final -178.23 input   66.30 | X-H torsion
[ 10763 10752 10751 10750 ] final  100.17 input  -60.55 | X-H torsion
[ 11005 11000 10999 10996 ] final  155.61 input  -57.11 | X-H torsion

> <Gold.Protein.ActiveResidues>
 VAL166  LYS551  ARG553  GLY616  TRP617  ASP618  TYR619  PRO620  LYS621  CYS622 
 ASP623  PHE694  ASN695  SER759  ASP760  ASP761  ALA762  ILE779  LEU786  VAL792 
 PHE793  MET794  SER795  GLU796  ALA797  LYS798  CYS799  TRP800  GLU811  SER814 

> <Gold.Protein.RotatedAtoms>
  150.7899  134.6914  159.6498 H   0  0  0  0  0  0  0  0  0  0  0  0  # atno 6907 bound_to 6896
  152.4003  134.6294  160.0081 H   0  0  0  0  0  0  0  0  0  0  0  0  # atno 6908 bound_to 6896
  151.6567  133.3282  159.3201 H   0  0  0  0  0  0  0  0  0  0  0  0  # atno 6909 bound_to 6896
  144.7960  139.7211  143.6202 H   0  0  0  0  0  0  0  0  0  0  0  0  # atno 7974 bound_to 7965
  154.4187  140.1743  156.1690 H   0  0  0  0  0  0  0  0  0  0  0  0  # atno 8008 bound_to 7997
  155.9776  140.3380  155.6609 H   0  0  0  0  0  0  0  0  0  0  0  0  # atno 8009 bound_to 7997
  155.6543  140.0694  157.2567 H   0  0  0  0  0  0  0  0  0  0  0  0  # atno 8010 bound_to 7997
  140.6394  143.2499  151.5030 H   0  0  0  0  0  0  0  0  0  0  0  0  # atno 10167 bound_to 10162
  156.8411  130.9687  151.3100 H   0  0  0  0  0  0  0  0  0  0  0  0  # atno 10718 bound_to 10713
  153.3106  135.4088  155.1333 H   0  0  0  0  0  0  0  0  0  0  0  0  # atno 10763 bound_to 10752
  154.8575  135.3563  154.5728 H   0  0  0  0  0  0  0  0  0  0  0  0  # atno 10764 bound_to 10752
  153.6157  135.7066  153.5388 H   0  0  0  0  0  0  0  0  0  0  0  0  # atno 10765 bound_to 10752
  140.1598  134.8617  157.2559 H   0  0  0  0  0  0  0  0  0  0  0  0  # atno 11005 bound_to 11000
  146.2228  139.5667  142.9607 LP  0  0  0  0  0  0  0  0  0  0  0  0  # atno 17320 bound_to 7965
  145.5673  141.0398  143.2193 LP  0  0  0  0  0  0  0  0  0  0  0  0  # atno 17321 bound_to 7965
  139.5603  144.2172  152.1681 LP  0  0  0  0  0  0  0  0  0  0  0  0  # atno 17342 bound_to 10162
  140.1438  144.5178  150.6728 LP  0  0  0  0  0  0  0  0  0  0  0  0  # atno 17343 bound_to 10162
  157.6355  130.8763  149.9351 LP  0  0  0  0  0  0  0  0  0  0  0  0  # atno 17370 bound_to 10713
  156.0880  130.3666  150.0450 LP  0  0  0  0  0  0  0  0  0  0  0  0  # atno 17371 bound_to 10713
  140.2504  134.3690  155.7444 LP  0  0  0  0  0  0  0  0  0  0  0  0  # atno 17394 bound_to 11000
  141.2208  133.7313  156.8926 LP  0  0  0  0  0  0  0  0  0  0  0  0  # atno 17395 bound_to 11000

$$$$
