AV-unprocessed.smi:828|AV-procd|sdf|3862|dock5
  -GOLD-   22720 1313D 1   1.00000     0.00000
 Structure written by MMmdl.
 34 35  0  0  0  0  0  0  0  0  3 V2000
  152.5720  143.0179  161.2020 C   0  0  0  0  0  0  0  0  0  0  0  0
  152.3726  142.1126  160.0353 C   0  0  0  0  0  0  0  0  0  0  0  0
  151.2284  142.0630  159.3494 N   0  0  0  0  0  0  0  0  0  0  0  0
  151.2819  141.1472  158.3087 N   0  0  0  0  0  0  0  0  0  0  0  0
  152.4651  140.5242  158.2169 C   0  0  0  0  0  0  0  0  0  0  0  0
  152.7187  139.5974  157.2780 N   0  5  0  0  0  0  0  0  0  0  0  0
  151.8498  139.4131  156.2593 C   0  0  0  0  0  0  0  0  0  0  0  0
  151.5657  140.2330  155.3833 O   0  0  0  0  0  0  0  0  0  0  0  0
  151.2819  138.1989  156.2518 N   0  0  0  0  0  0  0  0  0  0  0  0
  150.3239  137.6995  155.2705 C   0  0  0  0  0  0  0  0  0  0  0  0
  149.7250  136.3439  155.6937 C   0  0  2  0  0  0  0  0  0  0  0  0
  150.7286  135.1856  155.7177 C   0  0  0  0  0  0  0  0  0  0  0  0
  149.8373  133.9601  155.5832 C   0  0  0  0  0  0  0  0  0  0  0  0
  148.7294  134.4297  154.6378 C   0  0  0  0  0  0  0  0  0  0  0  0
  148.6564  135.9053  154.7644 N   0  3  1  0  0  0  0  0  0  0  0  0
  147.3084  136.4099  155.1062 C   0  0  0  0  0  0  0  0  0  0  0  0
  153.6214  141.0259  159.4506 S   0  0  0  0  0  0  0  0  0  0  0  0
  152.5947  144.0556  160.8688 H   0  0  0  0  0  0  0  0  0  0  0  0
  153.5130  142.7901  161.7030 H   0  0  0  0  0  0  0  0  0  0  0  0
  151.7577  142.8949  161.9163 H   0  0  0  0  0  0  0  0  0  0  0  0
  151.5435  137.5673  156.9950 H   0  0  0  0  0  0  0  0  0  0  0  0
  149.5317  138.4433  155.1853 H   0  0  0  0  0  0  0  0  0  0  0  0
  150.7771  137.6274  154.2803 H   0  0  0  0  0  0  0  0  0  0  0  0
  149.2975  136.4336  156.6944 H   0  0  0  0  0  0  0  0  0  0  0  0
  151.3999  135.2439  154.8596 H   0  0  0  0  0  0  0  0  0  0  0  0
  151.3379  135.1690  156.6221 H   0  0  0  0  0  0  0  0  0  0  0  0
  150.3705  133.0845  155.2114 H   0  0  0  0  0  0  0  0  0  0  0  0
  149.4126  133.7076  156.5558 H   0  0  0  0  0  0  0  0  0  0  0  0
  148.9889  134.1924  153.6056 H   0  0  0  0  0  0  0  0  0  0  0  0
  147.7818  133.9364  154.8592 H   0  0  0  0  0  0  0  0  0  0  0  0
  146.9809  136.0316  156.0754 H   0  0  0  0  0  0  0  0  0  0  0  0
  146.5837  136.0970  154.3538 H   0  0  0  0  0  0  0  0  0  0  0  0
  147.3016  137.4994  155.1433 H   0  0  0  0  0  0  0  0  0  0  0  0
  148.8965  136.2764  153.8560 H   0  0  0  0  0  0  0  0  0  0  0  0
  1  2  1  0  0  0  0
  1 18  1  0  0  0  0
  1 19  1  0  0  0  0
  1 20  1  0  0  0  0
  2 17  1  0  0  0  0
  2  3  2  0  0  0  0
  3  4  1  0  0  0  0
  4  5  2  0  0  0  0
  5  6  1  0  0  0  0
  5 17  1  0  0  0  0
  6  7  1  0  0  0  0
  7  8  2  0  0  0  0
  7  9  1  0  0  0  0
  9 10  1  0  0  0  0
  9 21  1  0  0  0  0
 10 11  1  0  0  0  0
 10 22  1  0  0  0  0
 10 23  1  0  0  0  0
 11 15  1  0  0  0  0
 11 12  1  0  0  0  0
 11 24  1  0  0  0  0
 12 13  1  0  0  0  0
 12 25  1  0  0  0  0
 12 26  1  0  0  0  0
 13 14  1  0  0  0  0
 13 27  1  0  0  0  0
 13 28  1  0  0  0  0
 14 15  1  0  0  0  0
 14 29  1  0  0  0  0
 14 30  1  0  0  0  0
 15 16  1  0  0  0  0
 15 34  1  0  0  0  0
 16 31  1  0  0  0  0
 16 32  1  0  0  0  0
 16 33  1  0  0  0  0
M  CHG  1   6  -1
M  CHG  1  15   1
M  END
> <s_m_source_file>
AV-unprocessed.smi

> <i_m_source_file_index>
828

> <i_lp_mmshare_version>
43012

> <i_f3d_flags>
0

> <s_epik_input>
W0NIM11jMW5uYyhzMSlbTkhdQyg9TylbTkhdW0NIMl1bQ0BASF0yW0NIMl1bQ0gyXVtDSDJdTjJbQ0gzXQ==

> <s_epik_cmdline>
J2VwaWtfcHl0aG9uJywgJy1waCcsICc3LjAnLCAnLXRuJywgJzgnLCAnLW1hJywgJzIwMCcsICctbWV0YWxfYmluZGluZycsICctaW1hZScsICc8aW5maWxlLm1hZT4nLCAnLW9tYWUnLCAnPG91dGZpbGUubWFlPic=

> <r_lp_tautomer_probability>
1

> <r_epik_Ionization_Penalty>
3.94379

> <r_epik_Ionization_Penalty_Charging>
3.83377

> <r_epik_Ionization_Penalty_Neutral>
0.110023

> <r_epik_State_Penalty>
3.83036

> <r_epik_Charging_Adjusted_Penalty>
7.66413

> <i_epik_Tot_Q>
0

> <i_epik_Tot_abs_Q>
2

> <r_epik_Metal_State_Penalty>
0.575095

> <b_epik_Metal_Only>
1

> <s_lp_Force_Field>
OPLS_2005

> <r_lp_Energy>
18.3526

> <b_lp_Chiralities_Consistent>
1

> <s_lp_Variant>
AV-unprocessed.smi:828-5

> <Gold.Version>
5.8.1

> <Gold.Id.Protein>
6NUR|6NUR_protein|mol2

> <Gold.PLP.Fitness>
40.3851

> <Gold.PLP.PLP>
-27.0008

> <Gold.PLP.part.hbond>
-3.5710

> <Gold.PLP.part.metal>
0.0000

> <Gold.PLP.part.buried>
-3.4877

> <Gold.PLP.part.nonpolar>
-19.6352

> <Gold.PLP.part.repulsive>
0.0814

> <Gold.PLP.ligand.clash>
0.0000

> <Gold.PLP.ligand.torsion>
0.6870

> <Gold.PLP.Chemscore.Hbond>
4.9120

> <Gold.PLP.Chemscore.CHOScore>
0.0000

> <Gold.PLP.Chemscore.Metal>
0.0000

> <Gold.Chemscore.Hbonds>
donor molecule, donor type, donor heavy atom, donor atom, acceptor molecule, acceptor atom, score
      L1  H    15    34       P1  7948  2.00
      P1  H  7989  7998       L1     8  0.93
      P1  H  7997  8008       L1     6  2.00

> <Gold.PLP.Chemscore.Internal.Correction>
0.0224

> <Gold.Rescore>
     Score         DG    S(hbond)    S(metal)    S(lipo)     H(rot)  DE(clash)    DE(int)     intcor
     15.83     -17.13       2.54        0.00      55.74       1.31       0.01       1.29       ----

> <Gold.Chemscore.Fitness>
15.8326

> <Gold.Chemscore.DG>
-17.1309

> <Gold.Chemscore.ZeroCoef>
-5.4800

> <Gold.Chemscore.Hbond>
2.5436

> <Gold.Chemscore.Metal>
0.0000

> <Gold.Chemscore.Lipo>
55.7390

> <Gold.Chemscore.Internal_Hbond>
0.0000

> <Gold.Chemscore.DEClash>
0.0081

> <Gold.Chemscore.DEInternal>
1.2902

> <Gold.Chemscore.Rot>
1.3149

> <Gold.Chemscore.Internal.Correction>
   9.000000E+99

> <Gold.Chemscore.Hbonds>
donor molecule, donor type, donor heavy atom, donor atom, acceptor molecule, acceptor atom, score
      L1  H    15    34       P1  7948  0.95
      P1  H  7989  7998       L1     8  0.87
      P1  H  7997  8008       L1     6  0.30

> <Gold.Chemscore.Hbond.Weighted>
-8.4956

> <Gold.Chemscore.Metal.Weighted>
-0.0000

> <Gold.Chemscore.Lipo.Weighted>
-6.5215

> <Gold.Chemscore.Internal_Hbond.Weighted>
0.0000

> <Gold.Chemscore.DEClash.Weighted>
0.0081

> <Gold.Chemscore.DEInternal.Weighted>
1.2902

> <Gold.Chemscore.Rot.Weighted>
3.3662

> <Gold.Chemscore.Internal.Correction.Weighted>
   9.000000E+99

> <Gold.Protein.RotatedTorsions>
[ 6907 6896 6895 6894 ] final  115.22 input  -60.11 | X-H torsion
[ 7974 7965 7964 7962 ] final   60.33 input  175.53 | X-H torsion
[ 8008 7997 7996 7995 ] final  -51.48 input   59.86 | X-H torsion
[ 10167 10162 10161 10158 ] final -124.13 input  -65.29 | X-H torsion
[ 10718 10713 10712 10709 ] final  127.76 input   66.30 | X-H torsion
[ 10763 10752 10751 10750 ] final  -72.36 input  -60.55 | X-H torsion
[ 11005 11000 10999 10996 ] final -146.41 input  -57.11 | X-H torsion

> <Gold.Protein.ActiveResidues>
 VAL166  LYS551  ARG553  GLY616  TRP617  ASP618  TYR619  PRO620  LYS621  CYS622 
 ASP623  PHE694  ASN695  SER759  ASP760  ASP761  ALA762  ILE779  LEU786  VAL792 
 PHE793  MET794  SER795  GLU796  ALA797  LYS798  CYS799  TRP800  GLU811  SER814 

> <Gold.Protein.RotatedAtoms>
  152.4755  133.8128  159.7012 H   0  0  0  0  0  0  0  0  0  0  0  0  # atno 6907 bound_to 6896
  150.8769  133.7417  159.2950 H   0  0  0  0  0  0  0  0  0  0  0  0  # atno 6908 bound_to 6896
  151.4933  135.1062  159.9861 H   0  0  0  0  0  0  0  0  0  0  0  0  # atno 6909 bound_to 6896
  145.8972  139.3554  143.0614 H   0  0  0  0  0  0  0  0  0  0  0  0  # atno 7974 bound_to 7965
  154.4084  140.1247  156.4836 H   0  0  0  0  0  0  0  0  0  0  0  0  # atno 8008 bound_to 7997
  155.7060  140.3494  155.4934 H   0  0  0  0  0  0  0  0  0  0  0  0  # atno 8009 bound_to 7997
  155.9342  140.1075  157.1097 H   0  0  0  0  0  0  0  0  0  0  0  0  # atno 8010 bound_to 7997
  139.9961  143.5590  152.2323 H   0  0  0  0  0  0  0  0  0  0  0  0  # atno 10167 bound_to 10162
  157.5304  131.1098  150.9018 H   0  0  0  0  0  0  0  0  0  0  0  0  # atno 10718 bound_to 10713
  154.4446  135.5932  153.6151 H   0  0  0  0  0  0  0  0  0  0  0  0  # atno 10763 bound_to 10752
  152.9808  135.6006  154.3680 H   0  0  0  0  0  0  0  0  0  0  0  0  # atno 10764 bound_to 10752
  154.3534  135.2841  155.2338 H   0  0  0  0  0  0  0  0  0  0  0  0  # atno 10765 bound_to 10752
  140.7822  134.3065  157.5041 H   0  0  0  0  0  0  0  0  0  0  0  0  # atno 11005 bound_to 11000
  145.8835  140.9348  143.0589 LP  0  0  0  0  0  0  0  0  0  0  0  0  # atno 17320 bound_to 7965
  144.6733  140.0812  143.7469 LP  0  0  0  0  0  0  0  0  0  0  0  0  # atno 17321 bound_to 7965
  139.6305  144.7643  151.2546 LP  0  0  0  0  0  0  0  0  0  0  0  0  # atno 17342 bound_to 10162
  140.7437  143.6487  150.8268 LP  0  0  0  0  0  0  0  0  0  0  0  0  # atno 17343 bound_to 10162
  156.9601  130.5452  149.5285 LP  0  0  0  0  0  0  0  0  0  0  0  0  # atno 17370 bound_to 10713
  156.0418  130.5500  150.8789 LP  0  0  0  0  0  0  0  0  0  0  0  0  # atno 17371 bound_to 10713
  139.8741  134.9325  156.3557 LP  0  0  0  0  0  0  0  0  0  0  0  0  # atno 17394 bound_to 11000
  140.9471  133.7476  156.0222 LP  0  0  0  0  0  0  0  0  0  0  0  0  # atno 17395 bound_to 11000

$$$$
