AV-unprocessed.smi:1485|AV-procd|sdf|6001|dock8
  -GOLD-   22720 6 93D 1   1.00000     0.00000
 Structure written by MMmdl.
 44 45  0  0  0  0  0  0  0  0  1 V2000
  147.4668  136.1634  161.7300 C   0  0  0  0  0  0  0  0  0  0  0  0
  147.7455  137.0705  160.6787 O   0  0  0  0  0  0  0  0  0  0  0  0
  147.0105  136.7837  159.4995 C   0  0  0  0  0  0  0  0  0  0  0  0
  147.5027  137.6893  158.3593 C   0  0  0  0  0  0  0  0  0  0  0  0
  148.9558  137.8858  158.4114 N   0  0  0  0  0  0  0  0  0  0  0  0
  149.3478  139.2019  158.2400 N   0  0  0  0  0  0  0  0  0  0  0  0
  150.6026  139.5156  158.2532 C   0  0  0  0  0  0  0  0  0  0  0  0
  151.0605  140.9158  158.0395 C   0  0  0  0  0  0  0  0  0  0  0  0
  150.5069  141.6685  157.2365 O   0  0  0  0  0  0  0  0  0  0  0  0
  152.1123  141.2887  158.7899 N   0  0  0  0  0  0  0  0  0  0  0  0
  152.7530  142.6016  158.7870 C   0  0  2  0  0  0  0  0  0  0  0  0
  153.7136  142.7506  159.9843 C   0  0  0  0  0  0  0  0  0  0  0  0
  152.9601  142.8289  161.3236 C   0  0  0  0  0  0  0  0  0  0  0  0
  151.9048  143.9467  161.3096 C   0  0  0  0  0  0  0  0  0  0  0  0
  150.9189  143.7821  160.1373 C   0  0  1  0  0  0  0  0  0  0  0  0
  149.8690  144.9016  160.1236 C   0  0  0  0  0  0  0  0  0  0  0  0
  151.6824  143.7106  158.7981 C   0  0  0  0  0  0  0  0  0  0  0  0
  151.6204  138.5015  158.4691 C   0  0  0  0  0  0  0  0  0  0  0  0
  151.2245  137.2179  158.6164 C   0  0  0  0  0  0  0  0  0  0  0  0
  149.8124  136.8325  158.5744 C   0  0  0  0  0  0  0  0  0  0  0  0
  149.4300  135.6669  158.6724 O   0  0  0  0  0  0  0  0  0  0  0  0
  148.0647  136.4223  162.6037 H   0  0  0  0  0  0  0  0  0  0  0  0
  147.7141  135.1403  161.4442 H   0  0  0  0  0  0  0  0  0  0  0  0
  146.4154  136.2035  162.0166 H   0  0  0  0  0  0  0  0  0  0  0  0
  147.1622  135.7390  159.2249 H   0  0  0  0  0  0  0  0  0  0  0  0
  145.9414  136.9236  159.6675 H   0  0  0  0  0  0  0  0  0  0  0  0
  147.2163  137.2598  157.3975 H   0  0  0  0  0  0  0  0  0  0  0  0
  146.9862  138.6494  158.4071 H   0  0  0  0  0  0  0  0  0  0  0  0
  152.4976  140.6025  159.4230 H   0  0  0  0  0  0  0  0  0  0  0  0
  153.3277  142.7055  157.8652 H   0  0  0  0  0  0  0  0  0  0  0  0
  154.4281  141.9267  160.0042 H   0  0  0  0  0  0  0  0  0  0  0  0
  154.3039  143.6587  159.8558 H   0  0  0  0  0  0  0  0  0  0  0  0
  152.4783  141.8729  161.5329 H   0  0  0  0  0  0  0  0  0  0  0  0
  153.6674  142.9992  162.1355 H   0  0  0  0  0  0  0  0  0  0  0  0
  151.3624  143.9473  162.2556 H   0  0  0  0  0  0  0  0  0  0  0  0
  152.4027  144.9148  161.2392 H   0  0  0  0  0  0  0  0  0  0  0  0
  150.3846  142.8414  160.2769 H   0  0  0  0  0  0  0  0  0  0  0  0
  150.3321  145.8789  159.9849 H   0  0  0  0  0  0  0  0  0  0  0  0
  149.3102  144.9274  161.0593 H   0  0  0  0  0  0  0  0  0  0  0  0
  149.1510  144.7552  159.3160 H   0  0  0  0  0  0  0  0  0  0  0  0
  152.1659  144.6704  158.6097 H   0  0  0  0  0  0  0  0  0  0  0  0
  150.9830  143.5588  157.9748 H   0  0  0  0  0  0  0  0  0  0  0  0
  152.6690  138.7587  158.5044 H   0  0  0  0  0  0  0  0  0  0  0  0
  151.9707  136.4527  158.7720 H   0  0  0  0  0  0  0  0  0  0  0  0
  1  2  1  0  0  0  0
  1 22  1  0  0  0  0
  1 23  1  0  0  0  0
  1 24  1  0  0  0  0
  2  3  1  0  0  0  0
  3  4  1  0  0  0  0
  3 25  1  0  0  0  0
  3 26  1  0  0  0  0
  4  5  1  0  0  0  0
  4 27  1  0  0  0  0
  4 28  1  0  0  0  0
  5 20  1  0  0  0  0
  5  6  1  0  0  0  0
  6  7  2  0  0  0  0
  7  8  1  0  0  0  0
  7 18  1  0  0  0  0
  8  9  2  0  0  0  0
  8 10  1  0  0  0  0
 10 11  1  0  0  0  0
 10 29  1  0  0  0  0
 11 17  1  0  0  0  0
 11 12  1  0  0  0  0
 11 30  1  0  0  0  0
 12 13  1  0  0  0  0
 12 31  1  0  0  0  0
 12 32  1  0  0  0  0
 13 14  1  0  0  0  0
 13 33  1  0  0  0  0
 13 34  1  0  0  0  0
 14 15  1  0  0  0  0
 14 35  1  0  0  0  0
 14 36  1  0  0  0  0
 15 16  1  0  0  0  0
 15 17  1  0  0  0  0
 15 37  1  0  0  0  0
 16 38  1  0  0  0  0
 16 39  1  0  0  0  0
 16 40  1  0  0  0  0
 17 41  1  0  0  0  0
 17 42  1  0  0  0  0
 18 19  2  0  0  0  0
 18 43  1  0  0  0  0
 19 20  1  0  0  0  0
 19 44  1  0  0  0  0
 20 21  2  0  0  0  0
M  END
> <s_m_source_file>
AV-unprocessed.smi

> <i_m_source_file_index>
1485

> <i_lp_mmshare_version>
43012

> <i_f3d_flags>
0

> <s_epik_input>
W0NIM11PW0NIMl1bQ0gyXW4xbmMoW2NIXVtjSF1jMT1PKUMoPU8pW05IXVtDQEBIXTJbQ0gyXVtDSDJdW0NIMl1bQ0BASF0oW0NIM10pW0NIMl0y

> <s_epik_cmdline>
J2VwaWtfcHl0aG9uJywgJy1waCcsICc3LjAnLCAnLXRuJywgJzgnLCAnLW1hJywgJzIwMCcsICctbWV0YWxfYmluZGluZycsICctaW1hZScsICc8aW5maWxlLm1hZT4nLCAnLW9tYWUnLCAnPG91dGZpbGUubWFlPic=

> <r_lp_tautomer_probability>
1

> <r_epik_Ionization_Penalty>
6.4688e-07

> <r_epik_Ionization_Penalty_Charging>
6.63567e-09

> <r_epik_Ionization_Penalty_Neutral>
6.40245e-07

> <r_epik_State_Penalty>
-0

> <r_epik_Charging_Adjusted_Penalty>
6.63567e-09

> <i_epik_Tot_Q>
0

> <i_epik_Tot_abs_Q>
0

> <r_epik_Metal_State_Penalty>
-0

> <b_epik_Metal_Only>
0

> <s_lp_Force_Field>
OPLS_2005

> <r_lp_Energy>
29.3151

> <b_lp_Chiralities_Consistent>
1

> <s_lp_Variant>
AV-unprocessed.smi:1485-1

> <Gold.Version>
5.8.1

> <Gold.Id.Protein>
6NUR|6NUR_protein|mol2

> <Gold.PLP.Fitness>
41.6128

> <Gold.PLP.PLP>
-36.4699

> <Gold.PLP.part.hbond>
-3.0000

> <Gold.PLP.part.metal>
0.0000

> <Gold.PLP.part.buried>
-6.7976

> <Gold.PLP.part.nonpolar>
-27.0903

> <Gold.PLP.part.repulsive>
0.1740

> <Gold.PLP.ligand.clash>
0.0000

> <Gold.PLP.ligand.torsion>
1.0144

> <Gold.PLP.Chemscore.Hbond>
2.3814

> <Gold.PLP.Chemscore.CHOScore>
0.0000

> <Gold.PLP.Chemscore.Metal>
0.0000

> <Gold.Chemscore.Hbonds>
donor molecule, donor type, donor heavy atom, donor atom, acceptor molecule, acceptor atom, score
      P1  H  6896  6909       L1    21  1.00
      P1  H  6931  6943       L1     2  0.41
      P1  H  6934  6947       L1     2  0.84

> <Gold.PLP.Chemscore.Internal.Correction>
0.0274

> <Gold.Rescore>
     Score         DG    S(hbond)    S(metal)    S(lipo)     H(rot)  DE(clash)    DE(int)     intcor
     16.11     -19.61       1.86        0.00     101.55       1.55       0.02       3.48       ----

> <Gold.Chemscore.Fitness>
16.1140

> <Gold.Chemscore.DG>
-19.6122

> <Gold.Chemscore.ZeroCoef>
-5.4800

> <Gold.Chemscore.Hbond>
1.8601

> <Gold.Chemscore.Metal>
0.0000

> <Gold.Chemscore.Lipo>
101.5540

> <Gold.Chemscore.Internal_Hbond>
0.0000

> <Gold.Chemscore.DEClash>
0.0152

> <Gold.Chemscore.DEInternal>
3.4831

> <Gold.Chemscore.Rot>
1.5478

> <Gold.Chemscore.Internal.Correction>
   9.000000E+99

> <Gold.Chemscore.Hbonds>
donor molecule, donor type, donor heavy atom, donor atom, acceptor molecule, acceptor atom, score
      P1  H  6896  6909       L1    21  0.93
      P1  H  6931  6943       L1     2  0.04
      P1  H  6934  6947       L1     2  0.17

> <Gold.Chemscore.Hbond.Weighted>
-6.2127

> <Gold.Chemscore.Metal.Weighted>
-0.0000

> <Gold.Chemscore.Lipo.Weighted>
-11.8818

> <Gold.Chemscore.Internal_Hbond.Weighted>
0.0000

> <Gold.Chemscore.DEClash.Weighted>
0.0152

> <Gold.Chemscore.DEInternal.Weighted>
3.4831

> <Gold.Chemscore.Rot.Weighted>
3.9623

> <Gold.Chemscore.Internal.Correction.Weighted>
   9.000000E+99

> <Gold.Protein.RotatedTorsions>
[ 6907 6896 6895 6894 ] final   39.11 input  -60.11 | X-H torsion
[ 7974 7965 7964 7962 ] final   24.96 input  175.53 | X-H torsion
[ 8008 7997 7996 7995 ] final -134.48 input   59.86 | X-H torsion
[ 10167 10162 10161 10158 ] final -131.79 input  -65.29 | X-H torsion
[ 10718 10713 10712 10709 ] final -163.62 input   66.30 | X-H torsion
[ 10763 10752 10751 10750 ] final  -92.17 input  -60.55 | X-H torsion
[ 11005 11000 10999 10996 ] final   42.65 input  -57.11 | X-H torsion

> <Gold.Protein.ActiveResidues>
 VAL166  LYS551  ARG553  GLY616  TRP617  ASP618  TYR619  PRO620  LYS621  CYS622 
 ASP623  PHE694  ASN695  SER759  ASP760  ASP761  ALA762  ILE779  LEU786  VAL792 
 PHE793  MET794  SER795  GLU796  ALA797  LYS798  CYS799  TRP800  GLU811  SER814 

> <Gold.Protein.RotatedAtoms>
  152.1653  134.8879  160.0538 H   0  0  0  0  0  0  0  0  0  0  0  0  # atno 6907 bound_to 6896
  151.9859  133.3769  159.4134 H   0  0  0  0  0  0  0  0  0  0  0  0  # atno 6908 bound_to 6896
  150.6893  134.3911  159.5121 H   0  0  0  0  0  0  0  0  0  0  0  0  # atno 6909 bound_to 6896
  146.1912  139.7532  142.8830 H   0  0  0  0  0  0  0  0  0  0  0  0  # atno 7974 bound_to 7965
  155.3627  140.0483  157.3046 H   0  0  0  0  0  0  0  0  0  0  0  0  # atno 8008 bound_to 7997
  154.5170  140.2211  155.9011 H   0  0  0  0  0  0  0  0  0  0  0  0  # atno 8009 bound_to 7997
  156.1647  140.3109  155.8873 H   0  0  0  0  0  0  0  0  0  0  0  0  # atno 8010 bound_to 7997
  139.9152  143.6447  152.2566 H   0  0  0  0  0  0  0  0  0  0  0  0  # atno 10167 bound_to 10162
  156.6274  130.8915  151.2970 H   0  0  0  0  0  0  0  0  0  0  0  0  # atno 10718 bound_to 10713
  154.6834  135.5241  153.8294 H   0  0  0  0  0  0  0  0  0  0  0  0  # atno 10763 bound_to 10752
  153.0581  135.6558  154.0539 H   0  0  0  0  0  0  0  0  0  0  0  0  # atno 10764 bound_to 10752
  154.0423  135.2976  155.3333 H   0  0  0  0  0  0  0  0  0  0  0  0  # atno 10765 bound_to 10752
  140.1719  134.4211  155.8252 H   0  0  0  0  0  0  0  0  0  0  0  0  # atno 11005 bound_to 11000
  145.3787  141.0354  143.3190 LP  0  0  0  0  0  0  0  0  0  0  0  0  # atno 17320 bound_to 7965
  144.8490  139.5351  143.6865 LP  0  0  0  0  0  0  0  0  0  0  0  0  # atno 17321 bound_to 7965
  139.6908  144.7647  151.1442 LP  0  0  0  0  0  0  0  0  0  0  0  0  # atno 17342 bound_to 10162
  140.7676  143.5592  150.9118 LP  0  0  0  0  0  0  0  0  0  0  0  0  # atno 17343 bound_to 10162
  157.7210  130.9558  150.1439 LP  0  0  0  0  0  0  0  0  0  0  0  0  # atno 17370 bound_to 10713
  156.2262  130.3678  149.8497 LP  0  0  0  0  0  0  0  0  0  0  0  0  # atno 17371 bound_to 10713
  141.2218  133.6960  156.7778 LP  0  0  0  0  0  0  0  0  0  0  0  0  # atno 17394 bound_to 11000
  140.2367  134.8644  157.3532 LP  0  0  0  0  0  0  0  0  0  0  0  0  # atno 17395 bound_to 11000

$$$$
