AV-unprocessed.smi:104|AV-procd|sdf|995|dock1
  -GOLD-   2262017573D 1   1.00000     0.00000
 Structure written by MMmdl.
 47 49  0  0  0  0  0  0  0  0  1 V2000
  152.7022  139.6203  159.5606 C   0  0  0  0  0  0  0  0  0  0  0  0
  151.8119  138.7285  158.7054 C   0  0  0  0  0  0  0  0  0  0  0  0
  152.2143  138.2470  157.6460 O   0  0  0  0  0  0  0  0  0  0  0  0
  150.5943  138.5543  159.2440 O   0  0  0  0  0  0  0  0  0  0  0  0
  149.5583  137.9559  158.4805 C   0  0  0  0  0  0  0  0  0  0  0  0
  149.2355  136.5718  159.0588 C   0  0  2  0  0  0  0  0  0  0  0  0
  149.6585  135.5770  158.1210 O   0  0  0  0  0  0  0  0  0  0  0  0
  148.5677  134.8212  157.6996 C   0  0  2  0  0  0  0  0  0  0  0  0
  148.7141  134.4926  156.2502 N   0  0  0  0  0  0  0  0  0  0  0  0
  149.7433  134.8138  155.3953 C   0  0  0  0  0  0  0  0  0  0  0  0
  151.2715  135.7940  155.9706 Br  0  0  0  0  0  0  0  0  0  0  0  0
  149.6442  134.4031  154.1621 N   0  0  0  0  0  0  0  0  0  0  0  0
  148.4341  133.7201  154.1640 C   0  0  0  0  0  0  0  0  0  0  0  0
  147.6987  133.0157  153.1774 C   0  0  0  0  0  0  0  0  0  0  0  0
  148.1131  132.8863  151.9094 N   0  0  0  0  0  0  0  0  0  0  0  0
  146.5233  132.4446  153.5306 N   0  0  0  0  0  0  0  0  0  0  0  0
  146.0878  132.5565  154.7896 C   0  0  0  0  0  0  0  0  0  0  0  0
  146.6633  133.1829  155.8189 N   0  0  0  0  0  0  0  0  0  0  0  0
  147.8466  133.7623  155.4627 C   0  0  0  0  0  0  0  0  0  0  0  0
  147.3353  135.6771  157.9338 C   0  0  1  0  0  0  0  0  0  0  0  0
  146.1657  134.8748  158.0292 O   0  0  0  0  0  0  0  0  0  0  0  0
  144.9589  135.4208  157.8154 C   0  0  0  0  0  0  0  0  0  0  0  0
  143.8344  134.3987  157.9134 C   0  0  0  0  0  0  0  0  0  0  0  0
  144.7330  136.6060  157.5717 O   0  0  0  0  0  0  0  0  0  0  0  0
  147.7202  136.3682  159.2318 C   0  0  1  0  0  0  0  0  0  0  0  0
  147.4675  135.5183  160.3479 O   0  0  0  0  0  0  0  0  0  0  0  0
  147.4875  136.0136  161.5971 C   0  0  0  0  0  0  0  0  0  0  0  0
  147.3075  134.9312  162.6527 C   0  0  0  0  0  0  0  0  0  0  0  0
  147.6360  137.1959  161.9061 O   0  0  0  0  0  0  0  0  0  0  0  0
  152.5878  139.3743  160.6166 H   0  0  0  0  0  0  0  0  0  0  0  0
  152.4367  140.6678  159.4168 H   0  0  0  0  0  0  0  0  0  0  0  0
  153.7496  139.4881  159.2882 H   0  0  0  0  0  0  0  0  0  0  0  0
  148.6783  138.5979  158.5298 H   0  0  0  0  0  0  0  0  0  0  0  0
  149.8308  137.8654  157.4284 H   0  0  0  0  0  0  0  0  0  0  0  0
  149.7615  136.4410  160.0054 H   0  0  0  0  0  0  0  0  0  0  0  0
  148.5507  133.8696  158.2316 H   0  0  0  0  0  0  0  0  0  0  0  0
  148.9872  133.3018  151.6206 H   0  0  0  0  0  0  0  0  0  0  0  0
  147.5500  132.3756  151.2449 H   0  0  0  0  0  0  0  0  0  0  0  0
  145.1443  132.0763  155.0038 H   0  0  0  0  0  0  0  0  0  0  0  0
  147.2641  136.4053  157.1237 H   0  0  0  0  0  0  0  0  0  0  0  0
  144.1035  133.4839  157.3845 H   0  0  0  0  0  0  0  0  0  0  0  0
  142.9187  134.7947  157.4734 H   0  0  0  0  0  0  0  0  0  0  0  0
  143.6387  134.1521  158.9570 H   0  0  0  0  0  0  0  0  0  0  0  0
  147.1811  137.3108  159.3400 H   0  0  0  0  0  0  0  0  0  0  0  0
  146.4539  134.2991  162.4067 H   0  0  0  0  0  0  0  0  0  0  0  0
  147.1355  135.3770  163.6326 H   0  0  0  0  0  0  0  0  0  0  0  0
  148.1986  134.3059  162.7081 H   0  0  0  0  0  0  0  0  0  0  0  0
  1  2  1  0  0  0  0
  1 30  1  0  0  0  0
  1 31  1  0  0  0  0
  1 32  1  0  0  0  0
  2  3  2  0  0  0  0
  2  4  1  0  0  0  0
  4  5  1  0  0  0  0
  5  6  1  0  0  0  0
  5 33  1  0  0  0  0
  5 34  1  0  0  0  0
  6 25  1  0  0  0  0
  6  7  1  0  0  0  0
  6 35  1  0  0  0  0
  7  8  1  0  0  0  0
  8  9  1  0  0  0  0
  8 20  1  0  0  0  0
  8 36  1  0  0  0  0
  9 19  1  0  0  0  0
  9 10  1  0  0  0  0
 10 11  1  0  0  0  0
 10 12  2  0  0  0  0
 12 13  1  0  0  0  0
 13 19  2  0  0  0  0
 13 14  1  0  0  0  0
 14 15  1  0  0  0  0
 14 16  2  0  0  0  0
 15 37  1  0  0  0  0
 15 38  1  0  0  0  0
 16 17  1  0  0  0  0
 17 18  2  0  0  0  0
 17 39  1  0  0  0  0
 18 19  1  0  0  0  0
 20 21  1  0  0  0  0
 20 25  1  0  0  0  0
 20 40  1  0  0  0  0
 21 22  1  0  0  0  0
 22 23  1  0  0  0  0
 22 24  2  0  0  0  0
 23 41  1  0  0  0  0
 23 42  1  0  0  0  0
 23 43  1  0  0  0  0
 25 26  1  0  0  0  0
 25 44  1  0  0  0  0
 26 27  1  0  0  0  0
 27 28  1  0  0  0  0
 27 29  2  0  0  0  0
 28 45  1  0  0  0  0
 28 46  1  0  0  0  0
 28 47  1  0  0  0  0
M  END
> <s_m_source_file>
AV-unprocessed.smi

> <i_m_source_file_index>
104

> <i_lp_mmshare_version>
43012

> <i_f3d_flags>
0

> <s_epik_input>
W0NIM11DKD1PKU9bQ0gyXVtDQEBIXTFPW0NASF0oW0NAQEhdKE9DKD1PKVtDSDNdKVtDQEhdMU9DKD1PKVtDSDNdKW4oYyhCciluMiljKGMyMyluW2NIXW5jM1tOSDJd

> <s_epik_cmdline>
J2VwaWtfcHl0aG9uJywgJy1waCcsICc3LjAnLCAnLXRuJywgJzgnLCAnLW1hJywgJzIwMCcsICctbWV0YWxfYmluZGluZycsICctaW1hZScsICc8aW5maWxlLm1hZT4nLCAnLW9tYWUnLCAnPG91dGZpbGUubWFlPic=

> <r_lp_tautomer_probability>
1

> <r_epik_Ionization_Penalty>
7.36622e-05

> <r_epik_Ionization_Penalty_Charging>
0

> <r_epik_Ionization_Penalty_Neutral>
7.36622e-05

> <r_epik_State_Penalty>
-0

> <r_epik_Charging_Adjusted_Penalty>
0

> <i_epik_Tot_Q>
0

> <i_epik_Tot_abs_Q>
0

> <r_epik_Metal_State_Penalty>
-0

> <b_epik_Metal_Only>
0

> <s_epik_Chemistry_Notes>
This compound has an ester and may undergo hydrolysis at high or low pH. This compound contains an acetal/aminal-like group ( X-CH(R)-Y where X, Y are N, S, or O) that may be acid/base labile, releasing an aldehyde.

> <s_lp_Force_Field>
OPLS_2005

> <r_lp_Energy>
18.6996

> <b_lp_Chiralities_Consistent>
1

> <s_lp_Variant>
AV-unprocessed.smi:104-3

> <Gold.Version>
5.8.1

> <Gold.Id.Protein>
6NUR|6NUR_protein|mol2

> <Gold.PLP.Fitness>
38.9439

> <Gold.PLP.PLP>
-30.3797

> <Gold.PLP.part.hbond>
-4.9222

> <Gold.PLP.part.metal>
0.0000

> <Gold.PLP.part.buried>
-4.6371

> <Gold.PLP.part.nonpolar>
-21.2238

> <Gold.PLP.part.repulsive>
0.3538

> <Gold.PLP.ligand.clash>
0.0000

> <Gold.PLP.ligand.torsion>
1.6036

> <Gold.PLP.Chemscore.Hbond>
2.8256

> <Gold.PLP.Chemscore.CHOScore>
0.9377

> <Gold.PLP.Chemscore.Metal>
0.0000

> <Gold.Chemscore.Hbonds>
donor molecule, donor type, donor heavy atom, donor atom, acceptor molecule, acceptor atom, score
      L1  H    15    38       P1 10747  0.03
      P1  H  6896  6909       L1     7  0.80
      P1  H  6931  6943       L1    29  0.99
      P1  H  6934  6947       L1    29  0.54
      L1  C    17    39       P1 10957  1.00

> <Gold.PLP.Chemscore.Internal.Correction>
0.4814

> <Gold.Rescore>
     Score         DG    S(hbond)    S(metal)    S(lipo)     H(rot)  DE(clash)    DE(int)     intcor
      2.32      -7.00       2.44        0.00      37.62       4.31       0.29       4.39       ----

> <Gold.Chemscore.Fitness>
2.3205

> <Gold.Chemscore.DG>
-6.9995

> <Gold.Chemscore.ZeroCoef>
-5.4800

> <Gold.Chemscore.Hbond>
2.4381

> <Gold.Chemscore.Metal>
0.0000

> <Gold.Chemscore.Lipo>
37.6240

> <Gold.Chemscore.Internal_Hbond>
0.0000

> <Gold.Chemscore.DEClash>
0.2852

> <Gold.Chemscore.DEInternal>
4.3938

> <Gold.Chemscore.Rot>
4.3070

> <Gold.Chemscore.Internal.Correction>
   9.000000E+99

> <Gold.Chemscore.Hbonds>
donor molecule, donor type, donor heavy atom, donor atom, acceptor molecule, acceptor atom, score
      L1  H    15    38       P1 10747  0.04
      P1  H  6896  6909       L1     7  0.07
      P1  H  6931  6943       L1    29  0.93
      P1  H  6934  6947       L1    29  0.52

> <Gold.Chemscore.Hbond.Weighted>
-8.1434

> <Gold.Chemscore.Metal.Weighted>
-0.0000

> <Gold.Chemscore.Lipo.Weighted>
-4.4020

> <Gold.Chemscore.Internal_Hbond.Weighted>
0.0000

> <Gold.Chemscore.DEClash.Weighted>
0.2852

> <Gold.Chemscore.DEInternal.Weighted>
4.3938

> <Gold.Chemscore.Rot.Weighted>
11.0259

> <Gold.Chemscore.Internal.Correction.Weighted>
   9.000000E+99

> <Gold.Protein.RotatedTorsions>
[ 6907 6896 6895 6894 ] final   33.12 input  -60.11 | X-H torsion
[ 7974 7965 7964 7962 ] final -177.18 input  175.53 | X-H torsion
[ 8008 7997 7996 7995 ] final  -67.68 input   59.86 | X-H torsion
[ 10167 10162 10161 10158 ] final  172.53 input  -65.29 | X-H torsion
[ 10718 10713 10712 10709 ] final  -45.17 input   66.30 | X-H torsion
[ 10763 10752 10751 10750 ] final   19.26 input  -60.55 | X-H torsion
[ 11005 11000 10999 10996 ] final   74.03 input  -57.11 | X-H torsion

> <Gold.Protein.ActiveResidues>
 VAL166  LYS551  ARG553  GLY616  TRP617  ASP618  TYR619  PRO620  LYS621  CYS622 
 ASP623  PHE694  ASN695  SER759  ASP760  ASP761  ALA762  ILE779  LEU786  VAL792 
 PHE793  MET794  SER795  GLU796  ALA797  LYS798  CYS799  TRP800  GLU811  SER814 

> <Gold.Protein.RotatedAtoms>
  152.0841  134.9451  160.0572 H   0  0  0  0  0  0  0  0  0  0  0  0  # atno 6907 bound_to 6896
  152.0728  133.4110  159.4475 H   0  0  0  0  0  0  0  0  0  0  0  0  # atno 6908 bound_to 6896
  150.6836  134.2992  159.4742 H   0  0  0  0  0  0  0  0  0  0  0  0  # atno 6909 bound_to 6896
  144.7127  140.1057  143.6414 H   0  0  0  0  0  0  0  0  0  0  0  0  # atno 7974 bound_to 7965
  154.4816  140.0888  156.7390 H   0  0  0  0  0  0  0  0  0  0  0  0  # atno 8008 bound_to 7997
  155.4456  140.3455  155.4276 H   0  0  0  0  0  0  0  0  0  0  0  0  # atno 8009 bound_to 7997
  156.1199  140.1471  156.9207 H   0  0  0  0  0  0  0  0  0  0  0  0  # atno 8010 bound_to 7997
  139.5079  144.3363  152.0062 H   0  0  0  0  0  0  0  0  0  0  0  0  # atno 10167 bound_to 10162
  156.2310  130.4172  149.8875 H   0  0  0  0  0  0  0  0  0  0  0  0  # atno 10718 bound_to 10713
  153.1177  135.6712  153.9389 H   0  0  0  0  0  0  0  0  0  0  0  0  # atno 10763 bound_to 10752
  153.8914  135.3046  155.3449 H   0  0  0  0  0  0  0  0  0  0  0  0  # atno 10764 bound_to 10752
  154.7592  135.4996  153.9510 H   0  0  0  0  0  0  0  0  0  0  0  0  # atno 10765 bound_to 10752
  139.9410  134.7398  156.1099 H   0  0  0  0  0  0  0  0  0  0  0  0  # atno 11005 bound_to 11000
  145.9498  139.2726  143.1219 LP  0  0  0  0  0  0  0  0  0  0  0  0  # atno 17320 bound_to 7965
  145.9335  140.9031  143.0344 LP  0  0  0  0  0  0  0  0  0  0  0  0  # atno 17321 bound_to 7965
  140.2802  144.3868  150.6121 LP  0  0  0  0  0  0  0  0  0  0  0  0  # atno 17342 bound_to 10162
  140.6024  143.2167  151.7047 LP  0  0  0  0  0  0  0  0  0  0  0  0  # atno 17343 bound_to 10162
  156.6489  130.8735  151.3527 LP  0  0  0  0  0  0  0  0  0  0  0  0  # atno 17370 bound_to 10713
  157.7133  130.9466  150.1165 LP  0  0  0  0  0  0  0  0  0  0  0  0  # atno 17371 bound_to 10713
  141.1045  133.6665  156.2831 LP  0  0  0  0  0  0  0  0  0  0  0  0  # atno 17394 bound_to 11000
  140.5951  134.5611  157.5507 LP  0  0  0  0  0  0  0  0  0  0  0  0  # atno 17395 bound_to 11000

$$$$
