AV-unprocessed.smi:3330|AV-procd|sdf|12807|dock4
  -GOLD-   2272019173D 1   1.00000     0.00000
 Structure written by MMmdl.
 38 39  0  0  0  0  0  0  0  0  1 V2000
  150.6372  141.3967  158.2305 C   0  0  0  0  0  0  0  0  0  0  0  0
  152.0909  141.0312  158.6045 C   0  0  2  0  0  0  0  0  0  0  0  0
  152.1655  139.6092  158.9273 N   0  0  0  0  0  0  0  0  0  0  0  0
  151.5558  138.7610  157.9142 C   0  0  0  0  0  0  0  0  0  0  0  0
  152.2369  139.0215  156.5618 C   0  0  0  0  0  0  0  0  0  0  0  0
  151.2976  138.8475  155.4511 N   0  0  0  0  0  0  0  0  0  0  0  0
  150.5030  139.8154  154.9756 C   0  0  0  0  0  0  0  0  0  0  0  0
  150.4164  140.9773  155.3718 O   0  0  0  0  0  0  0  0  0  0  0  0
  149.6961  139.2513  153.8266 C   0  0  0  0  0  0  0  0  0  0  0  0
  150.2191  137.9022  153.8128 N   0  0  0  0  0  0  0  0  0  0  0  0
  151.1433  137.7026  154.7615 C   0  0  0  0  0  0  0  0  0  0  0  0
  151.7440  136.6466  154.9542 O   0  0  0  0  0  0  0  0  0  0  0  0
  152.6283  141.8325  159.8214 C   0  0  1  0  0  0  0  0  0  0  0  0
  154.1447  141.6549  160.0249 C   0  0  0  0  0  0  0  0  0  0  0  0
  152.3138  143.2526  159.7205 N   0  0  0  0  0  0  0  0  0  0  0  0
  151.6912  144.0659  160.6466 C   0  0  0  0  0  0  0  0  0  0  0  0
  151.6237  145.3196  160.1102 C   0  0  0  0  0  0  0  0  0  0  0  0
  152.2376  145.1745  158.8352 C   0  0  0  0  0  0  0  0  0  0  0  0
  152.6473  143.9381  158.6042 N   0  0  0  0  0  0  0  0  0  0  0  0
  150.5443  142.4467  157.9534 H   0  0  0  0  0  0  0  0  0  0  0  0
  149.9578  141.2155  159.0640 H   0  0  0  0  0  0  0  0  0  0  0  0
  150.2760  140.8241  157.3771 H   0  0  0  0  0  0  0  0  0  0  0  0
  152.7375  141.2375  157.7503 H   0  0  0  0  0  0  0  0  0  0  0  0
  151.7545  139.4334  159.8332 H   0  0  0  0  0  0  0  0  0  0  0  0
  151.6607  137.7104  158.1831 H   0  0  0  0  0  0  0  0  0  0  0  0
  150.4890  138.9788  157.8452 H   0  0  0  0  0  0  0  0  0  0  0  0
  152.6501  140.0319  156.5386 H   0  0  0  0  0  0  0  0  0  0  0  0
  153.0892  138.3507  156.4373 H   0  0  0  0  0  0  0  0  0  0  0  0
  148.6267  139.2666  154.0395 H   0  0  0  0  0  0  0  0  0  0  0  0
  149.9035  139.7740  152.8924 H   0  0  0  0  0  0  0  0  0  0  0  0
  149.9152  137.2004  153.1535 H   0  0  0  0  0  0  0  0  0  0  0  0
  152.1318  141.4562  160.7184 H   0  0  0  0  0  0  0  0  0  0  0  0
  154.4028  140.6149  160.2239 H   0  0  0  0  0  0  0  0  0  0  0  0
  154.4962  142.2424  160.8737 H   0  0  0  0  0  0  0  0  0  0  0  0
  154.7060  141.9718  159.1455 H   0  0  0  0  0  0  0  0  0  0  0  0
  151.3537  143.6886  161.6007 H   0  0  0  0  0  0  0  0  0  0  0  0
  151.2010  146.2052  160.5607 H   0  0  0  0  0  0  0  0  0  0  0  0
  152.3972  145.9254  158.0756 H   0  0  0  0  0  0  0  0  0  0  0  0
  1  2  1  0  0  0  0
  1 20  1  0  0  0  0
  1 21  1  0  0  0  0
  1 22  1  0  0  0  0
  2  3  1  0  0  0  0
  2 13  1  0  0  0  0
  2 23  1  0  0  0  0
  3  4  1  0  0  0  0
  3 24  1  0  0  0  0
  4  5  1  0  0  0  0
  4 25  1  0  0  0  0
  4 26  1  0  0  0  0
  5  6  1  0  0  0  0
  5 27  1  0  0  0  0
  5 28  1  0  0  0  0
  6 11  1  0  0  0  0
  6  7  1  0  0  0  0
  7  8  2  0  0  0  0
  7  9  1  0  0  0  0
  9 10  1  0  0  0  0
  9 29  1  0  0  0  0
  9 30  1  0  0  0  0
 10 11  1  0  0  0  0
 10 31  1  0  0  0  0
 11 12  2  0  0  0  0
 13 14  1  0  0  0  0
 13 15  1  0  0  0  0
 13 32  1  0  0  0  0
 14 33  1  0  0  0  0
 14 34  1  0  0  0  0
 14 35  1  0  0  0  0
 15 19  1  0  0  0  0
 15 16  1  0  0  0  0
 16 17  2  0  0  0  0
 16 36  1  0  0  0  0
 17 18  1  0  0  0  0
 17 37  1  0  0  0  0
 18 19  2  0  0  0  0
 18 38  1  0  0  0  0
M  END
> <s_m_source_file>
AV-unprocessed.smi

> <i_m_source_file_index>
3330

> <i_lp_mmshare_version>
43012

> <i_f3d_flags>
0

> <s_epik_input>
bjFbY0hdW2NIXVtjSF1uMVtDQEBIXShbQ0gzXSlbQ0BIXShbQ0gzXSlbTkhdW0NIMl1bQ0gyXU4yQyg9TylbQ0gyXVtOSF1DMj1P

> <s_epik_cmdline>
J2VwaWtfcHl0aG9uJywgJy1waCcsICc3LjAnLCAnLXRuJywgJzgnLCAnLW1hJywgJzIwMCcsICctbWV0YWxfYmluZGluZycsICctaW1hZScsICc8aW5maWxlLm1hZT4nLCAnLW9tYWUnLCAnPG91dGZpbGUubWFlPic=

> <r_lp_tautomer_probability>
1

> <r_epik_Ionization_Penalty>
2.2997

> <r_epik_Ionization_Penalty_Charging>
0

> <r_epik_Ionization_Penalty_Neutral>
2.2997

> <r_epik_State_Penalty>
2.44917

> <r_epik_Charging_Adjusted_Penalty>
2.44917

> <i_epik_Tot_Q>
0

> <i_epik_Tot_abs_Q>
0

> <r_epik_Metal_State_Penalty>
2.52438

> <b_epik_Metal_Only>
0

> <s_lp_Force_Field>
OPLS_2005

> <r_lp_Energy>
27.6633

> <b_lp_Chiralities_Consistent>
1

> <s_lp_Variant>
AV-unprocessed.smi:3330-7

> <Gold.Version>
5.8.1

> <Gold.Id.Protein>
6NUR|6NUR_protein|mol2

> <Gold.PLP.Fitness>
47.6874

> <Gold.PLP.PLP>
-43.4338

> <Gold.PLP.part.hbond>
-3.5124

> <Gold.PLP.part.metal>
0.0000

> <Gold.PLP.part.buried>
-4.2877

> <Gold.PLP.part.nonpolar>
-37.0448

> <Gold.PLP.part.repulsive>
0.2702

> <Gold.PLP.ligand.clash>
0.0000

> <Gold.PLP.ligand.torsion>
0.9420

> <Gold.PLP.Chemscore.Hbond>
2.0000

> <Gold.PLP.Chemscore.CHOScore>
0.0000

> <Gold.PLP.Chemscore.Metal>
0.0000

> <Gold.Chemscore.Hbonds>
donor molecule, donor type, donor heavy atom, donor atom, acceptor molecule, acceptor atom, score
      L1  H    10    31       P1  7948  1.00
      P1  H 10752 10764       L1    12  1.00

> <Gold.PLP.Chemscore.Internal.Correction>
0.1375

> <Gold.Rescore>
     Score         DG    S(hbond)    S(metal)    S(lipo)     H(rot)  DE(clash)    DE(int)     intcor
     13.60     -15.68       1.95        0.00      88.40       2.60       0.02       2.06       ----

> <Gold.Chemscore.Fitness>
13.5997

> <Gold.Chemscore.DG>
-15.6816

> <Gold.Chemscore.ZeroCoef>
-5.4800

> <Gold.Chemscore.Hbond>
1.9468

> <Gold.Chemscore.Metal>
0.0000

> <Gold.Chemscore.Lipo>
88.4031

> <Gold.Chemscore.Internal_Hbond>
0.0000

> <Gold.Chemscore.DEClash>
0.0217

> <Gold.Chemscore.DEInternal>
2.0602

> <Gold.Chemscore.Rot>
2.5952

> <Gold.Chemscore.Internal.Correction>
   9.000000E+99

> <Gold.Chemscore.Hbonds>
donor molecule, donor type, donor heavy atom, donor atom, acceptor molecule, acceptor atom, score
      L1  H    10    31       P1  7948  0.26
      P1  H 10752 10764       L1    12  0.95

> <Gold.Chemscore.Hbond.Weighted>
-6.5022

> <Gold.Chemscore.Metal.Weighted>
-0.0000

> <Gold.Chemscore.Lipo.Weighted>
-10.3432

> <Gold.Chemscore.Internal_Hbond.Weighted>
0.0000

> <Gold.Chemscore.DEClash.Weighted>
0.0217

> <Gold.Chemscore.DEInternal.Weighted>
2.0602

> <Gold.Chemscore.Rot.Weighted>
6.6437

> <Gold.Chemscore.Internal.Correction.Weighted>
   9.000000E+99

> <Gold.Protein.RotatedTorsions>
[ 6907 6896 6895 6894 ] final   73.23 input  -60.11 | X-H torsion
[ 7974 7965 7964 7962 ] final  -73.25 input  175.53 | X-H torsion
[ 8008 7997 7996 7995 ] final  150.58 input   59.86 | X-H torsion
[ 10167 10162 10161 10158 ] final  -66.79 input  -65.29 | X-H torsion
[ 10718 10713 10712 10709 ] final  -58.24 input   66.30 | X-H torsion
[ 10763 10752 10751 10750 ] final  -77.31 input  -60.55 | X-H torsion
[ 11005 11000 10999 10996 ] final    0.91 input  -57.11 | X-H torsion

> <Gold.Protein.ActiveResidues>
 VAL166  LYS551  ARG553  GLY616  TRP617  ASP618  TYR619  PRO620  LYS621  CYS622 
 ASP623  PHE694  ASN695  SER759  ASP760  ASP761  ALA762  ILE779  LEU786  VAL792 
 PHE793  MET794  SER795  GLU796  ALA797  LYS798  CYS799  TRP800  GLU811  SER814 

> <Gold.Protein.RotatedAtoms>
  152.4912  134.4453  159.9556 H   0  0  0  0  0  0  0  0  0  0  0  0  # atno 6907 bound_to 6896
  151.4440  133.3629  159.2793 H   0  0  0  0  0  0  0  0  0  0  0  0  # atno 6908 bound_to 6896
  150.9068  134.8507  159.7458 H   0  0  0  0  0  0  0  0  0  0  0  0  # atno 6909 bound_to 6896
  145.6545  140.9272  143.0967 H   0  0  0  0  0  0  0  0  0  0  0  0  # atno 7974 bound_to 7965
  156.2709  140.2071  156.6041 H   0  0  0  0  0  0  0  0  0  0  0  0  # atno 8008 bound_to 7997
  154.6884  140.0533  157.0361 H   0  0  0  0  0  0  0  0  0  0  0  0  # atno 8009 bound_to 7997
  155.0902  140.3195  155.4579 H   0  0  0  0  0  0  0  0  0  0  0  0  # atno 8010 bound_to 7997
  140.5631  143.2313  151.6689 H   0  0  0  0  0  0  0  0  0  0  0  0  # atno 10167 bound_to 10162
  156.1150  130.4171  150.0550 H   0  0  0  0  0  0  0  0  0  0  0  0  # atno 10718 bound_to 10713
  154.5113  135.5768  153.6607 H   0  0  0  0  0  0  0  0  0  0  0  0  # atno 10763 bound_to 10752
  152.9897  135.6159  154.2875 H   0  0  0  0  0  0  0  0  0  0  0  0  # atno 10764 bound_to 10752
  154.2790  135.2851  155.2685 H   0  0  0  0  0  0  0  0  0  0  0  0  # atno 10765 bound_to 10752
  140.6214  133.9658  155.8226 H   0  0  0  0  0  0  0  0  0  0  0  0  # atno 11005 bound_to 11000
  144.7110  139.8370  143.7414 LP  0  0  0  0  0  0  0  0  0  0  0  0  # atno 17320 bound_to 7965
  146.1176  139.4189  143.0248 LP  0  0  0  0  0  0  0  0  0  0  0  0  # atno 17321 bound_to 7965
  139.5079  144.3628  152.0546 LP  0  0  0  0  0  0  0  0  0  0  0  0  # atno 17342 bound_to 10162
  140.2757  144.3915  150.6136 LP  0  0  0  0  0  0  0  0  0  0  0  0  # atno 17343 bound_to 10162
  156.8503  130.9456  151.3626 LP  0  0  0  0  0  0  0  0  0  0  0  0  # atno 17370 bound_to 10713
  157.6333  130.8746  149.9313 LP  0  0  0  0  0  0  0  0  0  0  0  0  # atno 17371 bound_to 10713
  141.0740  134.0163  157.3485 LP  0  0  0  0  0  0  0  0  0  0  0  0  # atno 17394 bound_to 11000
  139.9152  135.0196  156.7852 LP  0  0  0  0  0  0  0  0  0  0  0  0  # atno 17395 bound_to 11000

$$$$
