AV-unprocessed.smi:1762|AV-procd|sdf|7106|dock9
  -GOLD-   22720 8333D 1   1.00000     0.00000
 Structure written by MMmdl.
 53 54  0  0  0  0  0  0  0  0  2 V2000
  149.1392  141.1334  153.9158 C   0  0  0  0  0  0  0  0  0  0  0  0
  149.7007  140.0502  154.8438 C   0  0  1  0  0  0  0  0  0  0  0  0
  148.8954  138.7383  154.7679 C   0  0  0  0  0  0  0  0  0  0  0  0
  149.4774  137.6622  155.5888 N   0  0  0  0  0  0  0  0  0  0  0  0
  148.7202  136.3796  155.5455 C   0  0  2  0  0  0  0  0  0  0  0  0
  147.2161  136.5653  155.2321 C   0  0  0  0  0  0  0  0  0  0  0  0
  146.4134  136.7978  156.1368 O   0  0  0  0  0  0  0  0  0  0  0  0
  146.8537  136.4713  153.9427 N   0  0  0  0  0  0  0  0  0  0  0  0
  145.4901  136.6069  153.4456 C   0  0  0  0  0  0  0  0  0  0  0  0
  145.3650  136.1083  151.9960 C   0  0  0  0  0  0  0  0  0  0  0  0
  145.3891  134.5948  151.9056 C   0  0  0  0  0  0  0  0  0  0  0  0
  144.3085  133.8575  151.3744 C   0  0  0  0  0  0  0  0  0  0  0  0
  144.3984  132.4511  151.3119 C   0  0  0  0  0  0  0  0  0  0  0  0
  145.5658  131.8127  151.7796 C   0  0  0  0  0  0  0  0  0  0  0  0
  146.6152  132.5979  152.2991 C   0  0  0  0  0  0  0  0  0  0  0  0
  146.4910  133.9428  152.3428 N   0  3  0  0  0  0  0  0  0  0  0  0
  148.9121  135.4553  156.7951 C   0  0  0  0  0  0  0  0  0  0  0  0
  148.4052  136.0824  158.1100 C   0  0  0  0  0  0  0  0  0  0  0  0
  150.3531  134.9369  156.9706 C   0  0  0  0  0  0  0  0  0  0  0  0
  150.8888  137.5058  155.2161 C   0  0  0  0  0  0  0  0  0  0  0  0
  151.6770  138.8274  155.2929 C   0  0  1  0  0  0  0  0  0  0  0  0
  153.1284  138.6675  154.8265 C   0  0  0  0  0  0  0  0  0  0  0  0
  151.0472  139.7958  154.4641 O   0  0  0  0  0  0  0  0  0  0  0  0
  148.1089  141.3778  154.1755 H   0  0  0  0  0  0  0  0  0  0  0  0
  149.1549  140.8089  152.8751 H   0  0  0  0  0  0  0  0  0  0  0  0
  149.7254  142.0497  153.9877 H   0  0  0  0  0  0  0  0  0  0  0  0
  149.6863  140.4277  155.8679 H   0  0  0  0  0  0  0  0  0  0  0  0
  147.8808  138.9754  155.0858 H   0  0  0  0  0  0  0  0  0  0  0  0
  148.8282  138.4112  153.7287 H   0  0  0  0  0  0  0  0  0  0  0  0
  149.1229  135.8142  154.7022 H   0  0  0  0  0  0  0  0  0  0  0  0
  147.5754  136.2884  153.2603 H   0  0  0  0  0  0  0  0  0  0  0  0
  144.8004  136.0669  154.0971 H   0  0  0  0  0  0  0  0  0  0  0  0
  145.2130  137.6597  153.5051 H   0  0  0  0  0  0  0  0  0  0  0  0
  144.4381  136.4753  151.5527 H   0  0  0  0  0  0  0  0  0  0  0  0
  146.1754  136.5103  151.3861 H   0  0  0  0  0  0  0  0  0  0  0  0
  143.4217  134.3613  151.0174 H   0  0  0  0  0  0  0  0  0  0  0  0
  143.5819  131.8693  150.9092 H   0  0  0  0  0  0  0  0  0  0  0  0
  145.6544  130.7367  151.7398 H   0  0  0  0  0  0  0  0  0  0  0  0
  147.5427  132.1942  152.6782 H   0  0  0  0  0  0  0  0  0  0  0  0
  148.2757  134.5821  156.6614 H   0  0  0  0  0  0  0  0  0  0  0  0
  149.0307  136.9134  158.4378 H   0  0  0  0  0  0  0  0  0  0  0  0
  148.4017  135.3460  158.9141 H   0  0  0  0  0  0  0  0  0  0  0  0
  147.3849  136.4515  158.0027 H   0  0  0  0  0  0  0  0  0  0  0  0
  151.0505  135.7414  157.2025 H   0  0  0  0  0  0  0  0  0  0  0  0
  150.7110  134.4342  156.0719 H   0  0  0  0  0  0  0  0  0  0  0  0
  150.4080  134.2154  157.7862 H   0  0  0  0  0  0  0  0  0  0  0  0
  151.3883  136.8043  155.8811 H   0  0  0  0  0  0  0  0  0  0  0  0
  150.9629  137.0932  154.2083 H   0  0  0  0  0  0  0  0  0  0  0  0
  151.6805  139.1902  156.3224 H   0  0  0  0  0  0  0  0  0  0  0  0
  153.6613  137.9428  155.4426 H   0  0  0  0  0  0  0  0  0  0  0  0
  153.6643  139.6147  154.8901 H   0  0  0  0  0  0  0  0  0  0  0  0
  153.1756  138.3268  153.7918 H   0  0  0  0  0  0  0  0  0  0  0  0
  147.2629  134.4911  152.7233 H   0  0  0  0  0  0  0  0  0  0  0  0
  1  2  1  0  0  0  0
  1 24  1  0  0  0  0
  1 25  1  0  0  0  0
  1 26  1  0  0  0  0
  2 23  1  0  0  0  0
  2  3  1  0  0  0  0
  2 27  1  0  0  0  0
  3  4  1  0  0  0  0
  3 28  1  0  0  0  0
  3 29  1  0  0  0  0
  4  5  1  0  0  0  0
  4 20  1  0  0  0  0
  5  6  1  0  0  0  0
  5 17  1  0  0  0  0
  5 30  1  0  0  0  0
  6  7  2  0  0  0  0
  6  8  1  0  0  0  0
  8  9  1  0  0  0  0
  8 31  1  0  0  0  0
  9 10  1  0  0  0  0
  9 32  1  0  0  0  0
  9 33  1  0  0  0  0
 10 11  1  0  0  0  0
 10 34  1  0  0  0  0
 10 35  1  0  0  0  0
 11 16  1  0  0  0  0
 11 12  2  0  0  0  0
 12 13  1  0  0  0  0
 12 36  1  0  0  0  0
 13 14  2  0  0  0  0
 13 37  1  0  0  0  0
 14 15  1  0  0  0  0
 14 38  1  0  0  0  0
 15 16  2  0  0  0  0
 15 39  1  0  0  0  0
 16 53  1  0  0  0  0
 17 18  1  0  0  0  0
 17 19  1  0  0  0  0
 17 40  1  0  0  0  0
 18 41  1  0  0  0  0
 18 42  1  0  0  0  0
 18 43  1  0  0  0  0
 19 44  1  0  0  0  0
 19 45  1  0  0  0  0
 19 46  1  0  0  0  0
 20 21  1  0  0  0  0
 20 47  1  0  0  0  0
 20 48  1  0  0  0  0
 21 22  1  0  0  0  0
 21 23  1  0  0  0  0
 21 49  1  0  0  0  0
 22 50  1  0  0  0  0
 22 51  1  0  0  0  0
 22 52  1  0  0  0  0
M  CHG  1  16   1
M  END
> <s_m_source_file>
AV-unprocessed.smi

> <i_m_source_file_index>
1762

> <i_lp_mmshare_version>
43012

> <i_f3d_flags>
0

> <s_epik_input>
W0NIM11bQ0BASF0xW0NIMl1OKFtDSDJdW0NASF0oTzEpW0NIM10pW0NAQEhdKFtDSF0oW0NIM10pW0NIM10pQyg9TylbTkhdW0NIMl1bQ0gyXWMyW2NIXVtjSF1bY0hdW2NIXW4y

> <s_epik_cmdline>
J2VwaWtfcHl0aG9uJywgJy1waCcsICc3LjAnLCAnLXRuJywgJzgnLCAnLW1hJywgJzIwMCcsICctbWV0YWxfYmluZGluZycsICctaW1hZScsICc8aW5maWxlLm1hZT4nLCAnLW9tYWUnLCAnPG91dGZpbGUubWFlPic=

> <r_epik_Ionization_Penalty>
1.86475

> <r_epik_Ionization_Penalty_Charging>
1.85347

> <r_epik_Ionization_Penalty_Neutral>
0.0112771

> <r_epik_State_Penalty>
1.99714

> <r_epik_Charging_Adjusted_Penalty>
3.85061

> <i_epik_Tot_Q>
1

> <i_epik_Tot_abs_Q>
1

> <r_epik_Metal_State_Penalty>
2.02271

> <b_epik_Metal_Only>
0

> <s_lp_Force_Field>
OPLS_2005

> <r_lp_Energy>
32.9979

> <b_lp_Chiralities_Consistent>
1

> <s_lp_Variant>
AV-unprocessed.smi:1762-8

> <Gold.Version>
5.8.1

> <Gold.Id.Protein>
6NUR|6NUR_protein|mol2

> <Gold.PLP.Fitness>
47.2774

> <Gold.PLP.PLP>
-37.7643

> <Gold.PLP.part.hbond>
-3.0000

> <Gold.PLP.part.metal>
0.0000

> <Gold.PLP.part.buried>
-2.6010

> <Gold.PLP.part.nonpolar>
-32.3661

> <Gold.PLP.part.repulsive>
0.2843

> <Gold.PLP.ligand.clash>
0.0000

> <Gold.PLP.ligand.torsion>
1.4007

> <Gold.PLP.Chemscore.Hbond>
4.0000

> <Gold.PLP.Chemscore.CHOScore>
0.0000

> <Gold.PLP.Chemscore.Metal>
0.0000

> <Gold.Chemscore.Hbonds>
donor molecule, donor type, donor heavy atom, donor atom, acceptor molecule, acceptor atom, score
      L1  H     8    31       P1  7948  1.00
      P1  H  7989  7998       L1    23  1.00

> <Gold.PLP.Chemscore.Internal.Correction>
0.3144

> <Gold.Rescore>
     Score         DG    S(hbond)    S(metal)    S(lipo)     H(rot)  DE(clash)    DE(int)     intcor
     18.93     -22.12       2.89        0.00      97.24       1.72       0.14       3.05       ----

> <Gold.Chemscore.Fitness>
18.9314

> <Gold.Chemscore.DG>
-22.1217

> <Gold.Chemscore.ZeroCoef>
-5.4800

> <Gold.Chemscore.Hbond>
2.8926

> <Gold.Chemscore.Metal>
0.0000

> <Gold.Chemscore.Lipo>
97.2392

> <Gold.Chemscore.Internal_Hbond>
0.0000

> <Gold.Chemscore.DEClash>
0.1403

> <Gold.Chemscore.DEInternal>
3.0499

> <Gold.Chemscore.Rot>
1.7174

> <Gold.Chemscore.Internal.Correction>
   9.000000E+99

> <Gold.Chemscore.Hbonds>
donor molecule, donor type, donor heavy atom, donor atom, acceptor molecule, acceptor atom, score
      L1  H     8    31       P1  7948  0.99
      P1  H  7989  7998       L1    23  0.85

> <Gold.Chemscore.Hbond.Weighted>
-9.6612

> <Gold.Chemscore.Metal.Weighted>
-0.0000

> <Gold.Chemscore.Lipo.Weighted>
-11.3770

> <Gold.Chemscore.Internal_Hbond.Weighted>
0.0000

> <Gold.Chemscore.DEClash.Weighted>
0.1403

> <Gold.Chemscore.DEInternal.Weighted>
3.0499

> <Gold.Chemscore.Rot.Weighted>
4.3966

> <Gold.Chemscore.Internal.Correction.Weighted>
   9.000000E+99

> <Gold.Protein.RotatedTorsions>
[ 6907 6896 6895 6894 ] final  143.98 input  -60.11 | X-H torsion
[ 7974 7965 7964 7962 ] final  -89.65 input  175.53 | X-H torsion
[ 8008 7997 7996 7995 ] final  133.44 input   59.86 | X-H torsion
[ 10167 10162 10161 10158 ] final   96.64 input  -65.29 | X-H torsion
[ 10718 10713 10712 10709 ] final  121.80 input   66.30 | X-H torsion
[ 10763 10752 10751 10750 ] final   77.03 input  -60.55 | X-H torsion
[ 11005 11000 10999 10996 ] final  -87.50 input  -57.11 | X-H torsion

> <Gold.Protein.ActiveResidues>
 VAL166  LYS551  ARG553  GLY616  TRP617  ASP618  TYR619  PRO620  LYS621  CYS622 
 ASP623  PHE694  ASN695  SER759  ASP760  ASP761  ALA762  ILE779  LEU786  VAL792 
 PHE793  MET794  SER795  GLU796  ALA797  LYS798  CYS799  TRP800  GLU811  SER814 

> <Gold.Protein.RotatedAtoms>
  152.1995  133.4830  159.5050 H   0  0  0  0  0  0  0  0  0  0  0  0  # atno 6907 bound_to 6896
  150.6967  134.1609  159.4185 H   0  0  0  0  0  0  0  0  0  0  0  0  # atno 6908 bound_to 6896
  151.9526  135.0161  160.0593 H   0  0  0  0  0  0  0  0  0  0  0  0  # atno 6909 bound_to 6896
  145.4369  140.9558  143.2097 H   0  0  0  0  0  0  0  0  0  0  0  0  # atno 7974 bound_to 7965
  156.2992  140.2521  156.3254 H   0  0  0  0  0  0  0  0  0  0  0  0  # atno 8008 bound_to 7997
  154.9196  140.0401  157.2009 H   0  0  0  0  0  0  0  0  0  0  0  0  # atno 8009 bound_to 7997
  154.8324  140.2878  155.5717 H   0  0  0  0  0  0  0  0  0  0  0  0  # atno 8010 bound_to 7997
  139.7875  144.6865  150.9937 H   0  0  0  0  0  0  0  0  0  0  0  0  # atno 10167 bound_to 10162
  157.5790  131.1076  150.8223 H   0  0  0  0  0  0  0  0  0  0  0  0  # atno 10718 bound_to 10713
  153.0768  135.4929  154.8421 H   0  0  0  0  0  0  0  0  0  0  0  0  # atno 10763 bound_to 10752
  154.7098  135.3018  154.9216 H   0  0  0  0  0  0  0  0  0  0  0  0  # atno 10764 bound_to 10752
  153.9913  135.6778  153.4807 H   0  0  0  0  0  0  0  0  0  0  0  0  # atno 10765 bound_to 10752
  141.1616  133.7515  156.9316 H   0  0  0  0  0  0  0  0  0  0  0  0  # atno 11005 bound_to 11000
  144.8146  139.5899  143.7014 LP  0  0  0  0  0  0  0  0  0  0  0  0  # atno 17320 bound_to 7965
  146.2577  139.6339  142.9383 LP  0  0  0  0  0  0  0  0  0  0  0  0  # atno 17321 bound_to 7965
  140.7820  143.4416  151.0543 LP  0  0  0  0  0  0  0  0  0  0  0  0  # atno 17342 bound_to 10162
  139.8094  143.7972  152.3170 LP  0  0  0  0  0  0  0  0  0  0  0  0  # atno 17343 bound_to 10162
  156.8675  130.5134  149.5299 LP  0  0  0  0  0  0  0  0  0  0  0  0  # atno 17370 bound_to 10713
  156.0835  130.5840  150.9607 LP  0  0  0  0  0  0  0  0  0  0  0  0  # atno 17371 bound_to 10713
  140.1382  134.9311  157.2431 LP  0  0  0  0  0  0  0  0  0  0  0  0  # atno 17394 bound_to 11000
  140.2868  134.3286  155.7326 LP  0  0  0  0  0  0  0  0  0  0  0  0  # atno 17395 bound_to 11000

$$$$
