AV-unprocessed.smi:2451|AV-procd|sdf|9672|dock3
  -GOLD-   2272013313D 1   1.00000     0.00000
 Structure written by MMmdl.
 38 39  0  0  0  0  0  0  0  0  1 V2000
  149.8302  143.0222  158.5978 C   0  0  0  0  0  0  0  0  0  0  0  0
  151.1184  143.0092  157.7488 C   0  0  1  0  0  0  0  0  0  0  0  0
  152.1098  144.0961  158.2106 C   0  0  0  0  0  0  0  0  0  0  0  0
  152.7683  143.7463  159.5541 C   0  0  0  0  0  0  0  0  0  0  0  0
  153.4705  142.3837  159.4839 C   0  0  0  0  0  0  0  0  0  0  0  0
  152.5177  141.2674  159.0151 C   0  0  2  0  0  0  0  0  0  0  0  0
  153.2871  140.0283  158.8667 N   0  0  0  0  0  0  0  0  0  0  0  0
  154.5309  139.6819  160.0096 S   0  0  0  0  0  0  0  0  0  0  0  0
  155.8215  139.9041  159.3401 O   0  0  0  0  0  0  0  0  0  0  0  0
  154.2117  140.4079  161.2489 O   0  0  0  0  0  0  0  0  0  0  0  0
  154.3046  137.8787  160.3103 C   0  0  0  0  0  0  0  0  0  0  0  0
  154.4816  137.5859  161.7726 C   0  0  0  0  0  0  0  0  0  0  0  0
  153.5482  137.0078  162.6771 C   0  0  0  0  0  0  0  0  0  0  0  0
  154.2296  136.9735  163.8595 C   0  0  0  0  0  0  0  0  0  0  0  0
  155.4783  137.4812  163.7027 O   0  0  0  0  0  0  0  0  0  0  0  0
  155.6303  137.8683  162.3663 N   0  0  0  0  0  0  0  0  0  0  0  0
  151.8208  141.6259  157.6780 C   0  0  1  0  0  0  0  0  0  0  0  0
  150.8672  140.5164  157.1914 C   0  0  0  0  0  0  0  0  0  0  0  0
  150.0093  142.7001  159.6232 H   0  0  0  0  0  0  0  0  0  0  0  0
  149.0648  142.3711  158.1761 H   0  0  0  0  0  0  0  0  0  0  0  0
  149.4029  144.0243  158.6397 H   0  0  0  0  0  0  0  0  0  0  0  0
  150.8153  143.2715  156.7343 H   0  0  0  0  0  0  0  0  0  0  0  0
  152.8870  144.2176  157.4549 H   0  0  0  0  0  0  0  0  0  0  0  0
  151.6065  145.0610  158.2817 H   0  0  0  0  0  0  0  0  0  0  0  0
  153.4889  144.5189  159.8236 H   0  0  0  0  0  0  0  0  0  0  0  0
  152.0211  143.7371  160.3480 H   0  0  0  0  0  0  0  0  0  0  0  0
  154.3166  142.4565  158.7988 H   0  0  0  0  0  0  0  0  0  0  0  0
  153.8872  142.1348  160.4608 H   0  0  0  0  0  0  0  0  0  0  0  0
  151.7555  141.1181  159.7807 H   0  0  0  0  0  0  0  0  0  0  0  0
  153.6180  139.9103  157.9094 H   0  0  0  0  0  0  0  0  0  0  0  0
  153.3055  137.5989  159.9771 H   0  0  0  0  0  0  0  0  0  0  0  0
  155.0250  137.3327  159.7005 H   0  0  0  0  0  0  0  0  0  0  0  0
  152.5380  136.6759  162.4886 H   0  0  0  0  0  0  0  0  0  0  0  0
  153.9761  136.6336  164.8528 H   0  0  0  0  0  0  0  0  0  0  0  0
  152.6029  141.7153  156.9219 H   0  0  0  0  0  0  0  0  0  0  0  0
  150.1167  140.2721  157.9434 H   0  0  0  0  0  0  0  0  0  0  0  0
  151.4082  139.5974  156.9651 H   0  0  0  0  0  0  0  0  0  0  0  0
  150.3468  140.8158  156.2814 H   0  0  0  0  0  0  0  0  0  0  0  0
  1  2  1  0  0  0  0
  1 19  1  0  0  0  0
  1 20  1  0  0  0  0
  1 21  1  0  0  0  0
  2 17  1  0  0  0  0
  2  3  1  0  0  0  0
  2 22  1  0  0  0  0
  3  4  1  0  0  0  0
  3 23  1  0  0  0  0
  3 24  1  0  0  0  0
  4  5  1  0  0  0  0
  4 25  1  0  0  0  0
  4 26  1  0  0  0  0
  5  6  1  0  0  0  0
  5 27  1  0  0  0  0
  5 28  1  0  0  0  0
  6  7  1  0  0  0  0
  6 17  1  0  0  0  0
  6 29  1  0  0  0  0
  7  8  1  0  0  0  0
  7 30  1  0  0  0  0
  8  9  2  0  0  0  0
  8 10  2  0  0  0  0
  8 11  1  0  0  0  0
 11 12  1  0  0  0  0
 11 31  1  0  0  0  0
 11 32  1  0  0  0  0
 12 16  2  0  0  0  0
 12 13  1  0  0  0  0
 13 14  2  0  0  0  0
 13 33  1  0  0  0  0
 14 15  1  0  0  0  0
 14 34  1  0  0  0  0
 15 16  1  0  0  0  0
 17 18  1  0  0  0  0
 17 35  1  0  0  0  0
 18 36  1  0  0  0  0
 18 37  1  0  0  0  0
 18 38  1  0  0  0  0
M  END
> <s_m_source_file>
AV-unprocessed.smi

> <i_m_source_file_index>
2451

> <i_lp_mmshare_version>
43012

> <i_f3d_flags>
0

> <s_epik_input>
W0NIM11bQ0BASF0xW0NIMl1bQ0gyXVtDSDJdW0NASF0oW0NASF0xW0NIM10pW05IXVMoPU8pKD1PKVtDSDJdYzJbY0hdW2NIXW9uMg==

> <s_epik_cmdline>
J2VwaWtfcHl0aG9uJywgJy1waCcsICc3LjAnLCAnLXRuJywgJzgnLCAnLW1hJywgJzIwMCcsICctbWV0YWxfYmluZGluZycsICctaW1hZScsICc8aW5maWxlLm1hZT4nLCAnLW9tYWUnLCAnPG91dGZpbGUubWFlPic=

> <r_lp_tautomer_probability>
1

> <r_epik_Ionization_Penalty>
8.73668e-05

> <r_epik_Ionization_Penalty_Charging>
0

> <r_epik_Ionization_Penalty_Neutral>
8.73668e-05

> <r_epik_State_Penalty>
-0

> <r_epik_Charging_Adjusted_Penalty>
0

> <i_epik_Tot_Q>
0

> <i_epik_Tot_abs_Q>
0

> <r_epik_Metal_State_Penalty>
0.0716439

> <b_epik_Metal_Only>
0

> <s_lp_Force_Field>
OPLS_2005

> <r_lp_Energy>
8.38809

> <b_lp_Chiralities_Consistent>
1

> <s_lp_Variant>
AV-unprocessed.smi:2451-4

> <Gold.Version>
5.8.1

> <Gold.Id.Protein>
6NUR|6NUR_protein|mol2

> <Gold.PLP.Fitness>
35.5498

> <Gold.PLP.PLP>
-34.3524

> <Gold.PLP.part.hbond>
-1.5654

> <Gold.PLP.part.metal>
0.0000

> <Gold.PLP.part.buried>
-5.0258

> <Gold.PLP.part.nonpolar>
-28.3213

> <Gold.PLP.part.repulsive>
0.0298

> <Gold.PLP.ligand.clash>
0.0000

> <Gold.PLP.ligand.torsion>
0.9697

> <Gold.PLP.Chemscore.Hbond>
1.0000

> <Gold.PLP.Chemscore.CHOScore>
0.0000

> <Gold.PLP.Chemscore.Metal>
0.0000

> <Gold.Chemscore.Hbonds>
donor molecule, donor type, donor heavy atom, donor atom, acceptor molecule, acceptor atom, score
      P1  H  7997  8009       L1     9  1.00

> <Gold.PLP.Chemscore.Internal.Correction>
0.1368

> <Gold.Rescore>
     Score         DG    S(hbond)    S(metal)    S(lipo)     H(rot)  DE(clash)    DE(int)     intcor
     14.73     -17.22       0.97        0.00     108.91       1.66       0.10       2.39       ----

> <Gold.Chemscore.Fitness>
14.7281

> <Gold.Chemscore.DG>
-17.2201

> <Gold.Chemscore.ZeroCoef>
-5.4800

> <Gold.Chemscore.Hbond>
0.9713

> <Gold.Chemscore.Metal>
0.0000

> <Gold.Chemscore.Lipo>
108.9116

> <Gold.Chemscore.Internal_Hbond>
0.0000

> <Gold.Chemscore.DEClash>
0.1031

> <Gold.Chemscore.DEInternal>
2.3890

> <Gold.Chemscore.Rot>
1.6588

> <Gold.Chemscore.Internal.Correction>
   9.000000E+99

> <Gold.Chemscore.Hbonds>
donor molecule, donor type, donor heavy atom, donor atom, acceptor molecule, acceptor atom, score
      P1  H  7997  8009       L1     9  0.66

> <Gold.Chemscore.Hbond.Weighted>
-3.2440

> <Gold.Chemscore.Metal.Weighted>
-0.0000

> <Gold.Chemscore.Lipo.Weighted>
-12.7427

> <Gold.Chemscore.Internal_Hbond.Weighted>
0.0000

> <Gold.Chemscore.DEClash.Weighted>
0.1031

> <Gold.Chemscore.DEInternal.Weighted>
2.3890

> <Gold.Chemscore.Rot.Weighted>
4.2466

> <Gold.Chemscore.Internal.Correction.Weighted>
   9.000000E+99

> <Gold.Protein.RotatedTorsions>
[ 6907 6896 6895 6894 ] final  164.47 input  -60.11 | X-H torsion
[ 7974 7965 7964 7962 ] final  -41.06 input  175.53 | X-H torsion
[ 8008 7997 7996 7995 ] final   96.19 input   59.86 | X-H torsion
[ 10167 10162 10161 10158 ] final   50.66 input  -65.29 | X-H torsion
[ 10718 10713 10712 10709 ] final  -17.15 input   66.30 | X-H torsion
[ 10763 10752 10751 10750 ] final -108.84 input  -60.55 | X-H torsion
[ 11005 11000 10999 10996 ] final  127.19 input  -57.11 | X-H torsion

> <Gold.Protein.ActiveResidues>
 VAL166  LYS551  ARG553  GLY616  TRP617  ASP618  TYR619  PRO620  LYS621  CYS622 
 ASP623  PHE694  ASN695  SER759  ASP760  ASP761  ALA762  ILE779  LEU786  VAL792 
 PHE793  MET794  SER795  GLU796  ALA797  LYS798  CYS799  TRP800  GLU811  SER814 

> <Gold.Protein.RotatedAtoms>
  151.9093  133.3557  159.3857 H   0  0  0  0  0  0  0  0  0  0  0  0  # atno 6907 bound_to 6896
  150.7061  134.4748  159.5452 H   0  0  0  0  0  0  0  0  0  0  0  0  # atno 6908 bound_to 6896
  152.2351  134.8284  160.0519 H   0  0  0  0  0  0  0  0  0  0  0  0  # atno 6909 bound_to 6896
  146.0246  140.6808  142.9162 H   0  0  0  0  0  0  0  0  0  0  0  0  # atno 7974 bound_to 7965
  156.0770  140.3276  155.7646 H   0  0  0  0  0  0  0  0  0  0  0  0  # atno 8008 bound_to 7997
  155.5214  140.0585  157.2923 H   0  0  0  0  0  0  0  0  0  0  0  0  # atno 8009 bound_to 7997
  154.4561  140.1943  156.0393 H   0  0  0  0  0  0  0  0  0  0  0  0  # atno 8010 bound_to 7997
  140.2701  144.3275  150.6292 H   0  0  0  0  0  0  0  0  0  0  0  0  # atno 10167 bound_to 10162
  156.5776  130.4765  149.6335 H   0  0  0  0  0  0  0  0  0  0  0  0  # atno 10718 bound_to 10713
  154.8159  135.4623  154.0642 H   0  0  0  0  0  0  0  0  0  0  0  0  # atno 10763 bound_to 10752
  153.2035  135.6872  153.8208 H   0  0  0  0  0  0  0  0  0  0  0  0  # atno 10764 bound_to 10752
  153.7684  135.3274  155.3325 H   0  0  0  0  0  0  0  0  0  0  0  0  # atno 10765 bound_to 10752
  139.9495  134.9624  156.8818 H   0  0  0  0  0  0  0  0  0  0  0  0  # atno 11005 bound_to 11000
  144.7004  140.3627  143.7161 LP  0  0  0  0  0  0  0  0  0  0  0  0  # atno 17320 bound_to 7965
  145.7139  139.1692  143.2523 LP  0  0  0  0  0  0  0  0  0  0  0  0  # atno 17321 bound_to 7965
  140.5897  143.2168  151.7276 LP  0  0  0  0  0  0  0  0  0  0  0  0  # atno 17342 bound_to 10162
  139.4991  144.3958  152.0233 LP  0  0  0  0  0  0  0  0  0  0  0  0  # atno 17343 bound_to 10162
  156.2660  130.6989  151.1773 LP  0  0  0  0  0  0  0  0  0  0  0  0  # atno 17370 bound_to 10713
  157.7334  131.0591  150.5579 LP  0  0  0  0  0  0  0  0  0  0  0  0  # atno 17371 bound_to 10713
  140.5754  134.0403  155.7445 LP  0  0  0  0  0  0  0  0  0  0  0  0  # atno 17394 bound_to 11000
  141.1154  133.9549  157.2832 LP  0  0  0  0  0  0  0  0  0  0  0  0  # atno 17395 bound_to 11000

$$$$
