AV-unprocessed.smi:2439|AV-procd|sdf|9607|dock3
  -GOLD-   2272013243D 1   1.00000     0.00000
 Structure written by MMmdl.
 41 43  0  0  0  0  0  0  0  0  2 V2000
  141.8784  137.1587  154.3350 N   0  0  0  0  0  0  0  0  0  0  0  0
  142.6616  136.7744  153.5750 C   0  0  0  0  0  0  0  0  0  0  0  0
  143.6474  136.2882  152.6173 C   0  0  0  0  0  0  0  0  0  0  0  0
  143.4510  135.0295  152.0111 C   0  0  0  0  0  0  0  0  0  0  0  0
  144.4031  134.5561  151.0896 C   0  0  0  0  0  0  0  0  0  0  0  0
  145.5184  135.3659  150.8086 C   0  0  0  0  0  0  0  0  0  0  0  0
  145.7180  136.5720  151.3802 N   0  0  0  0  0  0  0  0  0  0  0  0
  144.8064  137.0334  152.2712 C   0  0  0  0  0  0  0  0  0  0  0  0
  145.0434  138.2934  152.8489 N   0  0  0  0  0  0  0  0  0  0  0  0
  145.9553  138.4330  153.9755 C   0  0  0  0  0  0  0  0  0  0  0  0
  147.1516  139.3288  153.6281 C   0  0  2  0  0  0  0  0  0  0  0  0
  148.4664  138.7557  154.1886 C   0  0  0  0  0  0  0  0  0  0  0  0
  149.5956  139.6838  153.9314 N   0  3  2  0  0  0  0  0  0  0  0  0
  150.9110  139.1748  154.4003 C   0  0  0  0  0  0  0  0  0  0  0  0
  151.0573  139.2623  155.9317 C   0  0  0  0  0  0  0  0  0  0  0  0
  150.7897  140.6885  156.4318 C   0  0  0  0  0  0  0  0  0  0  0  0
  149.4222  141.1816  155.9380 C   0  0  0  0  0  0  0  0  0  0  0  0
  149.3130  141.0681  154.4014 C   0  0  2  0  0  0  0  0  0  0  0  0
  147.9479  141.5421  153.8660 C   0  0  0  0  0  0  0  0  0  0  0  0
  146.9329  140.6085  154.2130 O   0  0  0  0  0  0  0  0  0  0  0  0
  142.5834  134.4296  152.2461 H   0  0  0  0  0  0  0  0  0  0  0  0
  144.2813  133.5961  150.6101 H   0  0  0  0  0  0  0  0  0  0  0  0
  146.2705  135.0381  150.1064 H   0  0  0  0  0  0  0  0  0  0  0  0
  144.4066  139.0512  152.6483 H   0  0  0  0  0  0  0  0  0  0  0  0
  145.4201  138.8380  154.8355 H   0  0  0  0  0  0  0  0  0  0  0  0
  146.3122  137.4411  154.2550 H   0  0  0  0  0  0  0  0  0  0  0  0
  147.2276  139.4238  152.5428 H   0  0  0  0  0  0  0  0  0  0  0  0
  148.3619  138.5704  155.2578 H   0  0  0  0  0  0  0  0  0  0  0  0
  148.6783  137.7931  153.7219 H   0  0  0  0  0  0  0  0  0  0  0  0
  151.0568  138.1488  154.0602 H   0  0  0  0  0  0  0  0  0  0  0  0
  151.6948  139.7685  153.9279 H   0  0  0  0  0  0  0  0  0  0  0  0
  150.3713  138.5669  156.4162 H   0  0  0  0  0  0  0  0  0  0  0  0
  152.0601  138.9507  156.2251 H   0  0  0  0  0  0  0  0  0  0  0  0
  150.8300  140.7191  157.5208 H   0  0  0  0  0  0  0  0  0  0  0  0
  151.5728  141.3570  156.0718 H   0  0  0  0  0  0  0  0  0  0  0  0
  148.6293  140.6085  156.4201 H   0  0  0  0  0  0  0  0  0  0  0  0
  149.2760  142.2176  156.2453 H   0  0  0  0  0  0  0  0  0  0  0  0
  150.0772  141.7163  153.9702 H   0  0  0  0  0  0  0  0  0  0  0  0
  147.6927  142.5176  154.2807 H   0  0  0  0  0  0  0  0  0  0  0  0
  147.9806  141.6636  152.7820 H   0  0  0  0  0  0  0  0  0  0  0  0
  149.6651  139.7420  152.9254 H   0  0  0  0  0  0  0  0  0  0  0  0
  1  2  3  0  0  0  0
  2  3  1  0  0  0  0
  3  8  1  0  0  0  0
  3  4  2  0  0  0  0
  4  5  1  0  0  0  0
  4 21  1  0  0  0  0
  5  6  2  0  0  0  0
  5 22  1  0  0  0  0
  6  7  1  0  0  0  0
  6 23  1  0  0  0  0
  7  8  2  0  0  0  0
  8  9  1  0  0  0  0
  9 10  1  0  0  0  0
  9 24  1  0  0  0  0
 10 11  1  0  0  0  0
 10 25  1  0  0  0  0
 10 26  1  0  0  0  0
 11 20  1  0  0  0  0
 11 12  1  0  0  0  0
 11 27  1  0  0  0  0
 12 13  1  0  0  0  0
 12 28  1  0  0  0  0
 12 29  1  0  0  0  0
 13 18  1  0  0  0  0
 13 14  1  0  0  0  0
 13 41  1  0  0  0  0
 14 15  1  0  0  0  0
 14 30  1  0  0  0  0
 14 31  1  0  0  0  0
 15 16  1  0  0  0  0
 15 32  1  0  0  0  0
 15 33  1  0  0  0  0
 16 17  1  0  0  0  0
 16 34  1  0  0  0  0
 16 35  1  0  0  0  0
 17 18  1  0  0  0  0
 17 36  1  0  0  0  0
 17 37  1  0  0  0  0
 18 19  1  0  0  0  0
 18 38  1  0  0  0  0
 19 20  1  0  0  0  0
 19 39  1  0  0  0  0
 19 40  1  0  0  0  0
M  CHG  1  13   1
M  END
> <s_m_source_file>
AV-unprocessed.smi

> <i_m_source_file_index>
2439

> <i_lp_mmshare_version>
43012

> <i_f3d_flags>
0

> <s_epik_input>
TiNDYzFbY0hdW2NIXVtjSF1uYzFbTkhdW0NIMl1bQ0BIXShbQ0gyXTIpT1tDSDJdW0NAQEhdKE4yMylbQ0gyXVtDSDJdW0NIMl1bQ0gyXTM=

> <s_epik_cmdline>
J2VwaWtfcHl0aG9uJywgJy1waCcsICc3LjAnLCAnLXRuJywgJzgnLCAnLW1hJywgJzIwMCcsICctbWV0YWxfYmluZGluZycsICctaW1hZScsICc8aW5maWxlLm1hZT4nLCAnLW9tYWUnLCAnPG91dGZpbGUubWFlPic=

> <r_epik_Ionization_Penalty>
0.0803594

> <r_epik_Ionization_Penalty_Charging>
0.0803403

> <r_epik_Ionization_Penalty_Neutral>
1.90988e-05

> <r_epik_State_Penalty>
0.0711481

> <r_epik_Charging_Adjusted_Penalty>
0.151488

> <i_epik_Tot_Q>
1

> <i_epik_Tot_abs_Q>
1

> <r_epik_Metal_State_Penalty>
0.0711482

> <b_epik_Metal_Only>
0

> <s_lp_Force_Field>
OPLS_2005

> <r_lp_Energy>
31.0257

> <b_lp_Chiralities_Consistent>
1

> <s_lp_Variant>
AV-unprocessed.smi:2439-5

> <Gold.Version>
5.8.1

> <Gold.Id.Protein>
6NUR|6NUR_protein|mol2

> <Gold.PLP.Fitness>
39.5279

> <Gold.PLP.PLP>
-33.1921

> <Gold.PLP.part.hbond>
-2.2295

> <Gold.PLP.part.metal>
0.0000

> <Gold.PLP.part.buried>
-3.2367

> <Gold.PLP.part.nonpolar>
-28.2113

> <Gold.PLP.part.repulsive>
0.5710

> <Gold.PLP.ligand.clash>
0.0000

> <Gold.PLP.ligand.torsion>
1.3324

> <Gold.PLP.Chemscore.Hbond>
2.0000

> <Gold.PLP.Chemscore.CHOScore>
1.0000

> <Gold.PLP.Chemscore.Metal>
0.0000

> <Gold.Chemscore.Hbonds>
donor molecule, donor type, donor heavy atom, donor atom, acceptor molecule, acceptor atom, score
      L1  H     9    24       P1 10175  1.00
      L1  H    13    41       P1  7957  1.00
      L1  C     6    23       P1  7921  1.00

> <Gold.PLP.Chemscore.Internal.Correction>
0.0006

> <Gold.Rescore>
     Score         DG    S(hbond)    S(metal)    S(lipo)     H(rot)  DE(clash)    DE(int)     intcor
     15.60     -17.07       1.91        0.00      72.32       1.27       0.09       1.37       ----

> <Gold.Chemscore.Fitness>
15.6025

> <Gold.Chemscore.DG>
-17.0674

> <Gold.Chemscore.ZeroCoef>
-5.4800

> <Gold.Chemscore.Hbond>
1.9061

> <Gold.Chemscore.Metal>
0.0000

> <Gold.Chemscore.Lipo>
72.3232

> <Gold.Chemscore.Internal_Hbond>
0.0000

> <Gold.Chemscore.DEClash>
0.0937

> <Gold.Chemscore.DEInternal>
1.3711

> <Gold.Chemscore.Rot>
1.2659

> <Gold.Chemscore.Internal.Correction>
   9.000000E+99

> <Gold.Chemscore.Hbonds>
donor molecule, donor type, donor heavy atom, donor atom, acceptor molecule, acceptor atom, score
      L1  H     9    24       P1 10175  0.98
      L1  H    13    41       P1  7957  1.00

> <Gold.Chemscore.Hbond.Weighted>
-6.3663

> <Gold.Chemscore.Metal.Weighted>
-0.0000

> <Gold.Chemscore.Lipo.Weighted>
-8.4618

> <Gold.Chemscore.Internal_Hbond.Weighted>
0.0000

> <Gold.Chemscore.DEClash.Weighted>
0.0937

> <Gold.Chemscore.DEInternal.Weighted>
1.3711

> <Gold.Chemscore.Rot.Weighted>
3.2408

> <Gold.Chemscore.Internal.Correction.Weighted>
   9.000000E+99

> <Gold.Protein.RotatedTorsions>
[ 6907 6896 6895 6894 ] final -133.66 input  -60.11 | X-H torsion
[ 7974 7965 7964 7962 ] final -141.69 input  175.53 | X-H torsion
[ 8008 7997 7996 7995 ] final -126.88 input   59.86 | X-H torsion
[ 10167 10162 10161 10158 ] final    9.02 input  -65.29 | X-H torsion
[ 10718 10713 10712 10709 ] final   65.46 input   66.30 | X-H torsion
[ 10763 10752 10751 10750 ] final  -94.18 input  -60.55 | X-H torsion
[ 11005 11000 10999 10996 ] final -124.40 input  -57.11 | X-H torsion

> <Gold.Protein.ActiveResidues>
 VAL166  LYS551  ARG553  GLY616  TRP617  ASP618  TYR619  PRO620  LYS621  CYS622 
 ASP623  PHE694  ASN695  SER759  ASP760  ASP761  ALA762  ILE779  LEU786  VAL792 
 PHE793  MET794  SER795  GLU796  ALA797  LYS798  CYS799  TRP800  GLU811  SER814 

> <Gold.Protein.RotatedAtoms>
  150.9766  133.6288  159.2729 H   0  0  0  0  0  0  0  0  0  0  0  0  # atno 6907 bound_to 6896
  151.3558  135.0893  159.9428 H   0  0  0  0  0  0  0  0  0  0  0  0  # atno 6908 bound_to 6896
  152.5201  133.9349  159.7653 H   0  0  0  0  0  0  0  0  0  0  0  0  # atno 6909 bound_to 6896
  144.8500  140.6049  143.5396 H   0  0  0  0  0  0  0  0  0  0  0  0  # atno 7974 bound_to 7965
  155.2370  140.0427  157.2970 H   0  0  0  0  0  0  0  0  0  0  0  0  # atno 8008 bound_to 7997
  154.5852  140.2411  155.7967 H   0  0  0  0  0  0  0  0  0  0  0  0  # atno 8009 bound_to 7997
  156.2221  140.2966  155.9986 H   0  0  0  0  0  0  0  0  0  0  0  0  # atno 8010 bound_to 7997
  140.6280  143.8058  150.7258 H   0  0  0  0  0  0  0  0  0  0  0  0  # atno 10167 bound_to 10162
  157.6106  130.9215  149.9979 H   0  0  0  0  0  0  0  0  0  0  0  0  # atno 10718 bound_to 10713
  154.7030  135.5167  153.8555 H   0  0  0  0  0  0  0  0  0  0  0  0  # atno 10763 bound_to 10752
  153.0719  135.6604  154.0238 H   0  0  0  0  0  0  0  0  0  0  0  0  # atno 10764 bound_to 10752
  154.0093  135.3003  155.3373 H   0  0  0  0  0  0  0  0  0  0  0  0  # atno 10765 bound_to 10752
  140.9844  134.0628  157.3728 H   0  0  0  0  0  0  0  0  0  0  0  0  # atno 11005 bound_to 11000
  145.4519  139.1522  143.3913 LP  0  0  0  0  0  0  0  0  0  0  0  0  # atno 17320 bound_to 7965
  146.2776  140.4646  142.8789 LP  0  0  0  0  0  0  0  0  0  0  0  0  # atno 17321 bound_to 7965
  140.1663  143.4233  152.2032 LP  0  0  0  0  0  0  0  0  0  0  0  0  # atno 17342 bound_to 10162
  139.5498  144.7328  151.4471 LP  0  0  0  0  0  0  0  0  0  0  0  0  # atno 17343 bound_to 10162
  156.1208  130.3646  149.9890 LP  0  0  0  0  0  0  0  0  0  0  0  0  # atno 17370 bound_to 10713
  156.7971  130.9277  151.3646 LP  0  0  0  0  0  0  0  0  0  0  0  0  # atno 17371 bound_to 10713
  139.8964  135.0145  156.7049 LP  0  0  0  0  0  0  0  0  0  0  0  0  # atno 17394 bound_to 11000
  140.7138  133.9200  155.8101 LP  0  0  0  0  0  0  0  0  0  0  0  0  # atno 17395 bound_to 11000

$$$$
