AV-unprocessed.smi:1938|AV-procd|sdf|7835|dock1
  -GOLD-   22720 9583D 1   1.00000     0.00000
 Structure written by MMmdl.
 35 36  0  0  0  0  0  0  0  0  1 V2000
  151.6036  138.2754  154.5395 C   0  0  0  0  0  0  0  0  0  0  0  0
  150.2498  138.2190  154.1025 O   0  0  0  0  0  0  0  0  0  0  0  0
  149.4989  139.3792  154.1270 C   0  0  0  0  0  0  0  0  0  0  0  0
  150.0559  140.4945  154.6624 N   0  0  0  0  0  0  0  0  0  0  0  0
  149.3245  141.6268  154.6932 C   0  0  0  0  0  0  0  0  0  0  0  0
  148.0095  141.7069  154.2012 C   0  0  0  0  0  0  0  0  0  0  0  0
  147.4289  140.5515  153.6460 C   0  0  0  0  0  0  0  0  0  0  0  0
  148.1873  139.3556  153.5962 C   0  0  0  0  0  0  0  0  0  0  0  0
  147.7082  138.1220  153.0705 N   0  0  0  0  0  0  0  0  0  0  0  0
  146.4628  137.6167  153.0675 C   0  0  0  0  0  0  0  0  0  0  0  0
  145.4636  138.1679  153.5274 O   0  0  0  0  0  0  0  0  0  0  0  0
  146.4375  136.4110  152.4822 N   0  0  0  0  0  0  0  0  0  0  0  0
  145.2555  135.5702  152.3217 C   0  0  0  0  0  0  0  0  0  0  0  0
  145.3431  134.7027  151.0545 C   0  0  1  0  0  0  0  0  0  0  0  0
  146.4027  133.6013  151.0930 C   0  0  0  0  0  0  0  0  0  0  0  0
  145.8626  132.6275  150.0714 C   0  0  0  0  0  0  0  0  0  0  0  0
  144.3586  132.7113  150.3196 C   0  0  0  0  0  0  0  0  0  0  0  0
  144.1134  134.0152  150.8427 O   0  0  0  0  0  0  0  0  0  0  0  0
  152.0468  137.2825  154.4659 H   0  0  0  0  0  0  0  0  0  0  0  0
  151.6735  138.5921  155.5811 H   0  0  0  0  0  0  0  0  0  0  0  0
  152.1963  138.9490  153.9188 H   0  0  0  0  0  0  0  0  0  0  0  0
  149.8006  142.4935  155.1273 H   0  0  0  0  0  0  0  0  0  0  0  0
  147.4568  142.6332  154.2515 H   0  0  0  0  0  0  0  0  0  0  0  0
  146.4155  140.6125  153.2836 H   0  0  0  0  0  0  0  0  0  0  0  0
  148.4078  137.5607  152.6071 H   0  0  0  0  0  0  0  0  0  0  0  0
  147.3065  136.0390  152.1275 H   0  0  0  0  0  0  0  0  0  0  0  0
  145.0906  134.9465  153.2020 H   0  0  0  0  0  0  0  0  0  0  0  0
  144.3896  136.2284  152.2500 H   0  0  0  0  0  0  0  0  0  0  0  0
  145.5158  135.3351  150.1819 H   0  0  0  0  0  0  0  0  0  0  0  0
  147.4029  133.9626  150.8528 H   0  0  0  0  0  0  0  0  0  0  0  0
  146.4343  133.1304  152.0766 H   0  0  0  0  0  0  0  0  0  0  0  0
  146.0975  132.9750  149.0642 H   0  0  0  0  0  0  0  0  0  0  0  0
  146.2586  131.6183  150.1870 H   0  0  0  0  0  0  0  0  0  0  0  0
  143.7808  132.5322  149.4127 H   0  0  0  0  0  0  0  0  0  0  0  0
  144.0527  131.9775  151.0660 H   0  0  0  0  0  0  0  0  0  0  0  0
  1  2  1  0  0  0  0
  1 19  1  0  0  0  0
  1 20  1  0  0  0  0
  1 21  1  0  0  0  0
  2  3  1  0  0  0  0
  3  8  1  0  0  0  0
  3  4  2  0  0  0  0
  4  5  1  0  0  0  0
  5  6  2  0  0  0  0
  5 22  1  0  0  0  0
  6  7  1  0  0  0  0
  6 23  1  0  0  0  0
  7  8  2  0  0  0  0
  7 24  1  0  0  0  0
  8  9  1  0  0  0  0
  9 10  1  0  0  0  0
  9 25  1  0  0  0  0
 10 11  2  0  0  0  0
 10 12  1  0  0  0  0
 12 13  1  0  0  0  0
 12 26  1  0  0  0  0
 13 14  1  0  0  0  0
 13 27  1  0  0  0  0
 13 28  1  0  0  0  0
 14 18  1  0  0  0  0
 14 15  1  0  0  0  0
 14 29  1  0  0  0  0
 15 16  1  0  0  0  0
 15 30  1  0  0  0  0
 15 31  1  0  0  0  0
 16 17  1  0  0  0  0
 16 32  1  0  0  0  0
 16 33  1  0  0  0  0
 17 18  1  0  0  0  0
 17 34  1  0  0  0  0
 17 35  1  0  0  0  0
M  END
> <s_m_source_file>
AV-unprocessed.smi

> <i_m_source_file_index>
1938

> <i_lp_mmshare_version>
43012

> <i_f3d_flags>
0

> <s_epik_input>
W0NIM11PYzFuW2NIXVtjSF1bY0hdYzFbTkhdQyg9TylbTkhdW0NIMl1bQ0BASF0yW0NIMl1bQ0gyXVtDSDJdTzI=

> <s_epik_cmdline>
J2VwaWtfcHl0aG9uJywgJy1waCcsICc3LjAnLCAnLXRuJywgJzgnLCAnLW1hJywgJzIwMCcsICctbWV0YWxfYmluZGluZycsICctaW1hZScsICc8aW5maWxlLm1hZT4nLCAnLW9tYWUnLCAnPG91dGZpbGUubWFlPic=

> <r_lp_tautomer_probability>
1

> <r_epik_Ionization_Penalty>
9.01657e-05

> <r_epik_Ionization_Penalty_Charging>
0

> <r_epik_Ionization_Penalty_Neutral>
9.01657e-05

> <r_epik_State_Penalty>
-0

> <r_epik_Charging_Adjusted_Penalty>
0

> <i_epik_Tot_Q>
0

> <i_epik_Tot_abs_Q>
0

> <r_epik_Metal_State_Penalty>
-0

> <b_epik_Metal_Only>
0

> <s_lp_Force_Field>
OPLS_2005

> <r_lp_Energy>
20.0509

> <b_lp_Chiralities_Consistent>
1

> <s_lp_Variant>
AV-unprocessed.smi:1938-2

> <Gold.Version>
5.8.1

> <Gold.Id.Protein>
6NUR|6NUR_protein|mol2

> <Gold.PLP.Fitness>
42.2316

> <Gold.PLP.PLP>
-31.3985

> <Gold.PLP.part.hbond>
-3.1075

> <Gold.PLP.part.metal>
0.0000

> <Gold.PLP.part.buried>
-1.1747

> <Gold.PLP.part.nonpolar>
-27.7305

> <Gold.PLP.part.repulsive>
0.8624

> <Gold.PLP.ligand.clash>
0.0000

> <Gold.PLP.ligand.torsion>
0.4608

> <Gold.PLP.Chemscore.Hbond>
2.9120

> <Gold.PLP.Chemscore.CHOScore>
1.0000

> <Gold.PLP.Chemscore.Metal>
0.0000

> <Gold.Chemscore.Hbonds>
donor molecule, donor type, donor heavy atom, donor atom, acceptor molecule, acceptor atom, score
      L1  H     9    25       P1  7948  1.00
      L1  H    12    26       P1  7948  1.00
      P1  H  7989  7998       L1     4  0.91
      L1  C     5    22       P1  8028  1.00

> <Gold.PLP.Chemscore.Internal.Correction>
0.0188

> <Gold.Rescore>
     Score         DG    S(hbond)    S(metal)    S(lipo)     H(rot)  DE(clash)    DE(int)     intcor
     16.54     -17.25       2.25        0.00      69.21       1.50       0.26       0.45       ----

> <Gold.Chemscore.Fitness>
16.5360

> <Gold.Chemscore.DG>
-17.2455

> <Gold.Chemscore.ZeroCoef>
-5.4800

> <Gold.Chemscore.Hbond>
2.2456

> <Gold.Chemscore.Metal>
0.0000

> <Gold.Chemscore.Lipo>
69.2114

> <Gold.Chemscore.Internal_Hbond>
0.0000

> <Gold.Chemscore.DEClash>
0.2604

> <Gold.Chemscore.DEInternal>
0.4491

> <Gold.Chemscore.Rot>
1.4971

> <Gold.Chemscore.Internal.Correction>
   9.000000E+99

> <Gold.Chemscore.Hbonds>
donor molecule, donor type, donor heavy atom, donor atom, acceptor molecule, acceptor atom, score
      L1  H     9    25       P1  7948  0.97
      L1  H    12    26       P1  7948  0.94
      P1  H  7989  7998       L1     4  0.24

> <Gold.Chemscore.Hbond.Weighted>
-7.5004

> <Gold.Chemscore.Metal.Weighted>
-0.0000

> <Gold.Chemscore.Lipo.Weighted>
-8.0977

> <Gold.Chemscore.Internal_Hbond.Weighted>
0.0000

> <Gold.Chemscore.DEClash.Weighted>
0.2604

> <Gold.Chemscore.DEInternal.Weighted>
0.4491

> <Gold.Chemscore.Rot.Weighted>
3.8326

> <Gold.Chemscore.Internal.Correction.Weighted>
   9.000000E+99

> <Gold.Protein.RotatedTorsions>
[ 6907 6896 6895 6894 ] final  -94.90 input  -60.11 | X-H torsion
[ 7974 7965 7964 7962 ] final -121.80 input  175.53 | X-H torsion
[ 8008 7997 7996 7995 ] final -112.77 input   59.86 | X-H torsion
[ 10167 10162 10161 10158 ] final  118.17 input  -65.29 | X-H torsion
[ 10718 10713 10712 10709 ] final  -81.09 input   66.30 | X-H torsion
[ 10763 10752 10751 10750 ] final -120.68 input  -60.55 | X-H torsion
[ 11005 11000 10999 10996 ] final  101.09 input  -57.11 | X-H torsion

> <Gold.Protein.ActiveResidues>
 VAL166  LYS551  ARG553  GLY616  TRP617  ASP618  TYR619  PRO620  LYS621  CYS622 
 ASP623  PHE694  ASN695  SER759  ASP760  ASP761  ALA762  ILE779  LEU786  VAL792 
 PHE793  MET794  SER795  GLU796  ALA797  LYS798  CYS799  TRP800  GLU811  SER814 

> <Gold.Protein.RotatedAtoms>
  150.6952  134.1741  159.4223 H   0  0  0  0  0  0  0  0  0  0  0  0  # atno 6907 bound_to 6896
  151.9717  135.0071  160.0562 H   0  0  0  0  0  0  0  0  0  0  0  0  # atno 6908 bound_to 6896
  152.1835  133.4688  159.5007 H   0  0  0  0  0  0  0  0  0  0  0  0  # atno 6909 bound_to 6896
  145.0364  140.8109  143.4293 H   0  0  0  0  0  0  0  0  0  0  0  0  # atno 7974 bound_to 7965
  155.0104  140.0393  157.2397 H   0  0  0  0  0  0  0  0  0  0  0  0  # atno 8008 bound_to 7997
  154.7466  140.2759  155.6305 H   0  0  0  0  0  0  0  0  0  0  0  0  # atno 8009 bound_to 7997
  156.2876  140.2655  156.2208 H   0  0  0  0  0  0  0  0  0  0  0  0  # atno 8010 bound_to 7997
  139.6129  144.7086  151.2803 H   0  0  0  0  0  0  0  0  0  0  0  0  # atno 10167 bound_to 10162
  156.0057  130.4593  150.3899 H   0  0  0  0  0  0  0  0  0  0  0  0  # atno 10718 bound_to 10713
  154.8650  135.4194  154.2498 H   0  0  0  0  0  0  0  0  0  0  0  0  # atno 10763 bound_to 10752
  153.3447  135.6995  153.6844 H   0  0  0  0  0  0  0  0  0  0  0  0  # atno 10764 bound_to 10752
  153.5808  135.3573  155.2847 H   0  0  0  0  0  0  0  0  0  0  0  0  # atno 10765 bound_to 10752
  139.8772  134.9168  156.4854 H   0  0  0  0  0  0  0  0  0  0  0  0  # atno 11005 bound_to 11000
  145.1704  139.2407  143.5345 LP  0  0  0  0  0  0  0  0  0  0  0  0  # atno 17320 bound_to 7965
  146.3504  140.1454  142.8593 LP  0  0  0  0  0  0  0  0  0  0  0  0  # atno 17321 bound_to 7965
  140.7331  143.6803  150.8007 LP  0  0  0  0  0  0  0  0  0  0  0  0  # atno 17342 bound_to 10162
  140.0401  143.5355  152.2722 LP  0  0  0  0  0  0  0  0  0  0  0  0  # atno 17343 bound_to 10162
  157.1974  131.0430  151.2668 LP  0  0  0  0  0  0  0  0  0  0  0  0  # atno 17370 bound_to 10713
  157.4006  130.7331  149.6764 LP  0  0  0  0  0  0  0  0  0  0  0  0  # atno 17371 bound_to 10713
  140.8697  133.7997  155.9351 LP  0  0  0  0  0  0  0  0  0  0  0  0  # atno 17394 bound_to 11000
  140.8965  134.2431  157.5065 LP  0  0  0  0  0  0  0  0  0  0  0  0  # atno 17395 bound_to 11000

$$$$
