AV-unprocessed.smi:1026|AV-procd|sdf|4468|dock7
  -GOLD-   22720 2443D 1   1.00000     0.00000
 Structure written by MMmdl.
 40 41  0  0  0  0  0  0  0  0  1 V2000
  143.4400  137.1175  155.1082 C   0  0  0  0  0  0  0  0  0  0  0  0
  144.7993  136.5815  154.6462 C   0  0  0  0  0  0  0  0  0  0  0  0
  145.5854  137.5949  153.8835 C   0  0  0  0  0  0  0  0  0  0  0  0
  145.9665  138.7678  154.3958 N   0  0  0  0  0  0  0  0  0  0  0  0
  146.6614  139.5588  153.4755 C   0  0  0  0  0  0  0  0  0  0  0  0
  147.1713  140.9069  153.8857 C   0  0  0  0  0  0  0  0  0  0  0  0
  148.7031  140.9352  154.0178 C   0  0  0  0  0  0  0  0  0  0  0  0
  149.1341  141.8760  155.0453 N   0  0  0  0  0  0  0  0  0  0  0  0
  150.2476  141.7499  155.7872 C   0  0  0  0  0  0  0  0  0  0  0  0
  151.0398  140.8176  155.6648 O   0  0  0  0  0  0  0  0  0  0  0  0
  150.4431  142.7306  156.6872 N   0  0  0  0  0  0  0  0  0  0  0  0
  151.5438  142.8918  157.6398 C   0  0  0  0  0  0  0  0  0  0  0  0
  151.6855  141.6308  158.5188 C   0  0  0  0  0  0  0  0  0  0  0  0
  152.8632  141.7270  159.4996 C   0  0  0  0  0  0  0  0  0  0  0  0
  152.6398  143.0970  160.6668 S   0  0  0  0  0  0  0  0  0  0  0  0
  152.4412  144.4421  159.4673 C   0  0  0  0  0  0  0  0  0  0  0  0
  151.2925  144.1518  158.4903 C   0  0  0  0  0  0  0  0  0  0  0  0
  146.7938  138.9660  152.2445 C   0  0  0  0  0  0  0  0  0  0  0  0
  146.0443  137.3936  152.1963 S   0  0  0  0  0  0  0  0  0  0  0  0
  142.8914  136.3572  155.6643 H   0  0  0  0  0  0  0  0  0  0  0  0
  142.8261  137.4176  154.2585 H   0  0  0  0  0  0  0  0  0  0  0  0
  143.5599  137.9844  155.7587 H   0  0  0  0  0  0  0  0  0  0  0  0
  145.3840  136.2573  155.5079 H   0  0  0  0  0  0  0  0  0  0  0  0
  144.6581  135.7029  154.0163 H   0  0  0  0  0  0  0  0  0  0  0  0
  146.8566  141.6589  153.1613 H   0  0  0  0  0  0  0  0  0  0  0  0
  146.7150  141.1973  154.8328 H   0  0  0  0  0  0  0  0  0  0  0  0
  149.0884  139.9383  154.2390 H   0  0  0  0  0  0  0  0  0  0  0  0
  149.1517  141.2379  153.0713 H   0  0  0  0  0  0  0  0  0  0  0  0
  148.5421  142.6770  155.2094 H   0  0  0  0  0  0  0  0  0  0  0  0
  149.7478  143.4630  156.7012 H   0  0  0  0  0  0  0  0  0  0  0  0
  152.4736  143.0489  157.0900 H   0  0  0  0  0  0  0  0  0  0  0  0
  150.7618  141.4562  159.0724 H   0  0  0  0  0  0  0  0  0  0  0  0
  151.8300  140.7538  157.8868 H   0  0  0  0  0  0  0  0  0  0  0  0
  152.9586  140.8006  160.0659 H   0  0  0  0  0  0  0  0  0  0  0  0
  153.7989  141.8691  158.9583 H   0  0  0  0  0  0  0  0  0  0  0  0
  152.2488  145.3676  160.0104 H   0  0  0  0  0  0  0  0  0  0  0  0
  153.3780  144.5779  158.9259 H   0  0  0  0  0  0  0  0  0  0  0  0
  151.1657  145.0133  157.8332 H   0  0  0  0  0  0  0  0  0  0  0  0
  150.3580  144.0508  159.0441 H   0  0  0  0  0  0  0  0  0  0  0  0
  147.2819  139.3588  151.3649 H   0  0  0  0  0  0  0  0  0  0  0  0
  1  2  1  0  0  0  0
  1 20  1  0  0  0  0
  1 21  1  0  0  0  0
  1 22  1  0  0  0  0
  2  3  1  0  0  0  0
  2 23  1  0  0  0  0
  2 24  1  0  0  0  0
  3 19  1  0  0  0  0
  3  4  2  0  0  0  0
  4  5  1  0  0  0  0
  5  6  1  0  0  0  0
  5 18  2  0  0  0  0
  6  7  1  0  0  0  0
  6 25  1  0  0  0  0
  6 26  1  0  0  0  0
  7  8  1  0  0  0  0
  7 27  1  0  0  0  0
  7 28  1  0  0  0  0
  8  9  1  0  0  0  0
  8 29  1  0  0  0  0
  9 10  2  0  0  0  0
  9 11  1  0  0  0  0
 11 12  1  0  0  0  0
 11 30  1  0  0  0  0
 12 17  1  0  0  0  0
 12 13  1  0  0  0  0
 12 31  1  0  0  0  0
 13 14  1  0  0  0  0
 13 32  1  0  0  0  0
 13 33  1  0  0  0  0
 14 15  1  0  0  0  0
 14 34  1  0  0  0  0
 14 35  1  0  0  0  0
 15 16  1  0  0  0  0
 16 17  1  0  0  0  0
 16 36  1  0  0  0  0
 16 37  1  0  0  0  0
 17 38  1  0  0  0  0
 17 39  1  0  0  0  0
 18 19  1  0  0  0  0
 18 40  1  0  0  0  0
M  END
> <s_m_source_file>
AV-unprocessed.smi

> <i_m_source_file_index>
1026

> <i_lp_mmshare_version>
43012

> <i_f3d_flags>
0

> <s_epik_input>
W0NIM11bQ0gyXWMxbmMoW2NIXXMxKVtDSDJdW0NIMl1bTkhdQyg9TylbTkhdW0NIXTJbQ0gyXVtDSDJdU1tDSDJdW0NIMl0y

> <s_epik_cmdline>
J2VwaWtfcHl0aG9uJywgJy1waCcsICc3LjAnLCAnLXRuJywgJzgnLCAnLW1hJywgJzIwMCcsICctbWV0YWxfYmluZGluZycsICctaW1hZScsICc8aW5maWxlLm1hZT4nLCAnLW9tYWUnLCAnPG91dGZpbGUubWFlPic=

> <r_epik_Ionization_Penalty>
0.00199316

> <r_epik_Ionization_Penalty_Charging>
0

> <r_epik_Ionization_Penalty_Neutral>
0.00199316

> <r_epik_State_Penalty>
0.00132065

> <r_epik_Charging_Adjusted_Penalty>
0.00132065

> <i_epik_Tot_Q>
0

> <i_epik_Tot_abs_Q>
0

> <r_epik_Metal_State_Penalty>
-0

> <b_epik_Metal_Only>
0

> <s_lp_Force_Field>
OPLS_2005

> <r_lp_Energy>
4.0728

> <b_lp_Chiralities_Consistent>
1

> <s_lp_Variant>
AV-unprocessed.smi:1026-1

> <Gold.Version>
5.8.1

> <Gold.Id.Protein>
6NUR|6NUR_protein|mol2

> <Gold.PLP.Fitness>
45.9243

> <Gold.PLP.PLP>
-37.5783

> <Gold.PLP.part.hbond>
-2.7400

> <Gold.PLP.part.metal>
0.0000

> <Gold.PLP.part.buried>
-2.3089

> <Gold.PLP.part.nonpolar>
-33.1880

> <Gold.PLP.part.repulsive>
0.4068

> <Gold.PLP.ligand.clash>
0.0000

> <Gold.PLP.ligand.torsion>
0.5196

> <Gold.PLP.Chemscore.Hbond>
2.1190

> <Gold.PLP.Chemscore.CHOScore>
0.9998

> <Gold.PLP.Chemscore.Metal>
0.0000

> <Gold.Chemscore.Hbonds>
donor molecule, donor type, donor heavy atom, donor atom, acceptor molecule, acceptor atom, score
      L1  H     8    29       P1  8028  0.58
      L1  H    11    30       P1  8028  0.88
      P1  H  7989  7998       L1    10  0.37
      L1  C    18    40       P1  7957  0.97

> <Gold.PLP.Chemscore.Internal.Correction>
0.0287

> <Gold.Rescore>
     Score         DG    S(hbond)    S(metal)    S(lipo)     H(rot)  DE(clash)    DE(int)     intcor
     19.13     -20.67       1.86        0.00     111.34       1.58       0.27       1.27       ----

> <Gold.Chemscore.Fitness>
19.1269

> <Gold.Chemscore.DG>
-20.6706

> <Gold.Chemscore.ZeroCoef>
-5.4800

> <Gold.Chemscore.Hbond>
1.8564

> <Gold.Chemscore.Metal>
0.0000

> <Gold.Chemscore.Lipo>
111.3413

> <Gold.Chemscore.Internal_Hbond>
0.0000

> <Gold.Chemscore.DEClash>
0.2749

> <Gold.Chemscore.DEInternal>
1.2687

> <Gold.Chemscore.Rot>
1.5768

> <Gold.Chemscore.Internal.Correction>
   9.000000E+99

> <Gold.Chemscore.Hbonds>
donor molecule, donor type, donor heavy atom, donor atom, acceptor molecule, acceptor atom, score
      L1  H     8    29       P1  8028  0.58
      L1  H    11    30       P1  8028  0.86
      P1  H  7989  7998       L1    10  0.16

> <Gold.Chemscore.Hbond.Weighted>
-6.2003

> <Gold.Chemscore.Metal.Weighted>
-0.0000

> <Gold.Chemscore.Lipo.Weighted>
-13.0269

> <Gold.Chemscore.Internal_Hbond.Weighted>
0.0000

> <Gold.Chemscore.DEClash.Weighted>
0.2749

> <Gold.Chemscore.DEInternal.Weighted>
1.2687

> <Gold.Chemscore.Rot.Weighted>
4.0367

> <Gold.Chemscore.Internal.Correction.Weighted>
   9.000000E+99

> <Gold.Protein.RotatedTorsions>
[ 6907 6896 6895 6894 ] final -136.71 input  -60.11 | X-H torsion
[ 7974 7965 7964 7962 ] final  171.05 input  175.53 | X-H torsion
[ 8008 7997 7996 7995 ] final  138.40 input   59.86 | X-H torsion
[ 10167 10162 10161 10158 ] final  -54.49 input  -65.29 | X-H torsion
[ 10718 10713 10712 10709 ] final  176.48 input   66.30 | X-H torsion
[ 10763 10752 10751 10750 ] final -101.73 input  -60.55 | X-H torsion
[ 11005 11000 10999 10996 ] final -111.46 input  -57.11 | X-H torsion

> <Gold.Protein.ActiveResidues>
 VAL166  LYS551  ARG553  GLY616  TRP617  ASP618  TYR619  PRO620  LYS621  CYS622 
 ASP623  PHE694  ASN695  SER759  ASP760  ASP761  ALA762  ILE779  LEU786  VAL792 
 PHE793  MET794  SER795  GLU796  ALA797  LYS798  CYS799  TRP800  GLU811  SER814 

> <Gold.Protein.RotatedAtoms>
  151.0134  133.5944  159.2679 H   0  0  0  0  0  0  0  0  0  0  0  0  # atno 6907 bound_to 6896
  151.3087  135.0787  159.9274 H   0  0  0  0  0  0  0  0  0  0  0  0  # atno 6908 bound_to 6896
  152.5305  133.9803  159.7857 H   0  0  0  0  0  0  0  0  0  0  0  0  # atno 6909 bound_to 6896
  144.7306  139.9292  143.6424 H   0  0  0  0  0  0  0  0  0  0  0  0  # atno 7974 bound_to 7965
  156.2997  140.2394  156.4067 H   0  0  0  0  0  0  0  0  0  0  0  0  # atno 8008 bound_to 7997
  154.8478  140.0425  157.1604 H   0  0  0  0  0  0  0  0  0  0  0  0  # atno 8009 bound_to 7997
  154.9032  140.2980  155.5310 H   0  0  0  0  0  0  0  0  0  0  0  0  # atno 8010 bound_to 7997
  140.6428  143.2517  151.4943 H   0  0  0  0  0  0  0  0  0  0  0  0  # atno 10167 bound_to 10162
  156.9195  130.9936  151.3007 H   0  0  0  0  0  0  0  0  0  0  0  0  # atno 10718 bound_to 10713
  154.7680  135.4887  153.9593 H   0  0  0  0  0  0  0  0  0  0  0  0  # atno 10763 bound_to 10752
  153.1332  135.6757  153.9152 H   0  0  0  0  0  0  0  0  0  0  0  0  # atno 10764 bound_to 10752
  153.8849  135.3128  155.3425 H   0  0  0  0  0  0  0  0  0  0  0  0  # atno 10765 bound_to 10752
  141.0732  133.9344  157.2442 H   0  0  0  0  0  0  0  0  0  0  0  0  # atno 11005 bound_to 11000
  146.0870  139.3859  143.0429 LP  0  0  0  0  0  0  0  0  0  0  0  0  # atno 17320 bound_to 7965
  145.7763  140.9875  143.1123 LP  0  0  0  0  0  0  0  0  0  0  0  0  # atno 17321 bound_to 7965
  139.5637  144.2094  152.1732 LP  0  0  0  0  0  0  0  0  0  0  0  0  # atno 17342 bound_to 10162
  140.1369  144.5237  150.6768 LP  0  0  0  0  0  0  0  0  0  0  0  0  # atno 17343 bound_to 10162
  157.5916  130.8448  149.8668 LP  0  0  0  0  0  0  0  0  0  0  0  0  # atno 17370 bound_to 10713
  156.0497  130.3720  150.1230 LP  0  0  0  0  0  0  0  0  0  0  0  0  # atno 17371 bound_to 10713
  139.9545  135.0168  156.9089 LP  0  0  0  0  0  0  0  0  0  0  0  0  # atno 17394 bound_to 11000
  140.5628  134.0518  155.7404 LP  0  0  0  0  0  0  0  0  0  0  0  0  # atno 17395 bound_to 11000

$$$$
