AV-unprocessed.smi:1976|AV-procd|sdf|7987|dock4
  -GOLD-   2272010163D 1   1.00000     0.00000
 Structure written by MMmdl.
 45 47  0  0  0  0  0  0  0  0  2 V2000
  152.1680  140.0472  156.8225 O   0  0  0  0  0  0  0  0  0  0  0  0
  151.5166  139.2784  157.5308 C   0  0  0  0  0  0  0  0  0  0  0  0
  151.8366  139.1146  159.0234 C   0  0  0  0  0  0  0  0  0  0  0  0
  152.0903  140.3922  159.7104 N   0  0  0  0  0  0  0  0  0  0  0  0
  151.6470  141.5654  159.0687 C   0  0  0  0  0  0  0  0  0  0  0  0
  151.8284  142.7961  159.5846 C   0  0  0  0  0  0  0  0  0  0  0  0
  151.2937  144.0401  158.8923 C   0  0  0  0  0  0  0  0  0  0  0  0
  151.5588  145.1366  159.6027 F   0  0  0  0  0  0  0  0  0  0  0  0
  151.8636  144.1726  157.6955 F   0  0  0  0  0  0  0  0  0  0  0  0
  149.9739  143.9637  158.7171 F   0  0  0  0  0  0  0  0  0  0  0  0
  152.4841  142.8642  160.8757 C   0  0  0  0  0  0  0  0  0  0  0  0
  152.9105  141.7515  161.5050 C   0  0  0  0  0  0  0  0  0  0  0  0
  152.7296  140.4219  160.9180 C   0  0  0  0  0  0  0  0  0  0  0  0
  153.1263  139.3986  161.4762 O   0  0  0  0  0  0  0  0  0  0  0  0
  150.4867  138.5539  157.0698 N   0  0  0  0  0  0  0  0  0  0  0  0
  150.0094  138.5615  155.6895 C   0  0  2  0  0  0  0  0  0  0  0  0
  149.3764  139.8800  155.2537 C   0  0  0  0  0  0  0  0  0  0  0  0
  148.5451  139.4786  154.0322 C   0  0  0  0  0  0  0  0  0  0  0  0
  148.1901  138.0489  154.2055 N   0  3  2  0  0  0  0  0  0  0  0  0
  146.7277  137.7811  154.1610 C   0  0  0  0  0  0  0  0  0  0  0  0
  146.4089  136.3853  154.7164 C   0  0  0  0  0  0  0  0  0  0  0  0
  146.8227  136.2588  156.1949 C   0  0  0  0  0  0  0  0  0  0  0  0
  147.9287  137.2580  156.5863 C   0  0  0  0  0  0  0  0  0  0  0  0
  148.8995  137.5324  155.4114 C   0  0  2  0  0  0  0  0  0  0  0  0
  151.0062  138.5848  159.4920 H   0  0  0  0  0  0  0  0  0  0  0  0
  152.6967  138.4518  159.1375 H   0  0  0  0  0  0  0  0  0  0  0  0
  151.1510  141.4012  158.1231 H   0  0  0  0  0  0  0  0  0  0  0  0
  152.6414  143.8238  161.3455 H   0  0  0  0  0  0  0  0  0  0  0  0
  153.3980  141.8407  162.4646 H   0  0  0  0  0  0  0  0  0  0  0  0
  150.0026  137.9514  157.7199 H   0  0  0  0  0  0  0  0  0  0  0  0
  150.8486  138.3441  155.0251 H   0  0  0  0  0  0  0  0  0  0  0  0
  148.7216  140.2626  156.0380 H   0  0  0  0  0  0  0  0  0  0  0  0
  150.1125  140.6514  155.0247 H   0  0  0  0  0  0  0  0  0  0  0  0
  147.6764  140.1265  153.9077 H   0  0  0  0  0  0  0  0  0  0  0  0
  149.1467  139.5659  153.1269 H   0  0  0  0  0  0  0  0  0  0  0  0
  146.1894  138.5305  154.7439 H   0  0  0  0  0  0  0  0  0  0  0  0
  146.3809  137.8736  153.1312 H   0  0  0  0  0  0  0  0  0  0  0  0
  145.3474  136.1621  154.6058 H   0  0  0  0  0  0  0  0  0  0  0  0
  146.9400  135.6392  154.1235 H   0  0  0  0  0  0  0  0  0  0  0  0
  145.9583  136.4178  156.8408 H   0  0  0  0  0  0  0  0  0  0  0  0
  147.1571  135.2379  156.3832 H   0  0  0  0  0  0  0  0  0  0  0  0
  147.4715  138.1972  156.9014 H   0  0  0  0  0  0  0  0  0  0  0  0
  148.4612  136.8733  157.4566 H   0  0  0  0  0  0  0  0  0  0  0  0
  149.3639  136.5819  155.1443 H   0  0  0  0  0  0  0  0  0  0  0  0
  148.5951  137.5612  153.4191 H   0  0  0  0  0  0  0  0  0  0  0  0
  1  2  2  0  0  0  0
  2  3  1  0  0  0  0
  2 15  1  0  0  0  0
  3  4  1  0  0  0  0
  3 25  1  0  0  0  0
  3 26  1  0  0  0  0
  4 13  1  0  0  0  0
  4  5  1  0  0  0  0
  5  6  2  0  0  0  0
  5 27  1  0  0  0  0
  6  7  1  0  0  0  0
  6 11  1  0  0  0  0
  7  8  1  0  0  0  0
  7  9  1  0  0  0  0
  7 10  1  0  0  0  0
 11 12  2  0  0  0  0
 11 28  1  0  0  0  0
 12 13  1  0  0  0  0
 12 29  1  0  0  0  0
 13 14  2  0  0  0  0
 15 16  1  0  0  0  0
 15 30  1  0  0  0  0
 16 24  1  0  0  0  0
 16 17  1  0  0  0  0
 16 31  1  0  0  0  0
 17 18  1  0  0  0  0
 17 32  1  0  0  0  0
 17 33  1  0  0  0  0
 18 19  1  0  0  0  0
 18 34  1  0  0  0  0
 18 35  1  0  0  0  0
 19 24  1  0  0  0  0
 19 20  1  0  0  0  0
 19 45  1  0  0  0  0
 20 21  1  0  0  0  0
 20 36  1  0  0  0  0
 20 37  1  0  0  0  0
 21 22  1  0  0  0  0
 21 38  1  0  0  0  0
 21 39  1  0  0  0  0
 22 23  1  0  0  0  0
 22 40  1  0  0  0  0
 22 41  1  0  0  0  0
 23 24  1  0  0  0  0
 23 42  1  0  0  0  0
 23 43  1  0  0  0  0
 24 44  1  0  0  0  0
M  CHG  1  19   1
M  END
> <s_m_source_file>
AV-unprocessed.smi

> <i_m_source_file_index>
1976

> <i_lp_mmshare_version>
43012

> <i_f3d_flags>
0

> <s_epik_input>
W0NIMl0xW0NIMl1bQ0gyXVtDSDJdW0NASF0oTjEyKVtDQEBIXShbQ0gyXVtDSDJdMilbTkhdQyg9TylbQ0gyXW4zW2NIXWMoQyhGKShGKUYpW2NIXVtjSF1jMz1P

> <s_epik_cmdline>
J2VwaWtfcHl0aG9uJywgJy1waCcsICc3LjAnLCAnLXRuJywgJzgnLCAnLW1hJywgJzIwMCcsICctbWV0YWxfYmluZGluZycsICctaW1hZScsICc8aW5maWxlLm1hZT4nLCAnLW9tYWUnLCAnPG91dGZpbGUubWFlPic=

> <r_lp_tautomer_probability>
1

> <r_epik_Ionization_Penalty>
0.00171506

> <r_epik_Ionization_Penalty_Charging>
0.00171498

> <r_epik_Ionization_Penalty_Neutral>
7.81737e-08

> <r_epik_State_Penalty>
0.00115937

> <r_epik_Charging_Adjusted_Penalty>
0.00287436

> <i_epik_Tot_Q>
1

> <i_epik_Tot_abs_Q>
1

> <r_epik_Metal_State_Penalty>
-0

> <b_epik_Metal_Only>
0

> <s_lp_Force_Field>
OPLS_2005

> <r_lp_Energy>
52.9045

> <b_lp_Chiralities_Consistent>
1

> <s_lp_Variant>
AV-unprocessed.smi:1976-5

> <Gold.Version>
5.8.1

> <Gold.Id.Protein>
6NUR|6NUR_protein|mol2

> <Gold.PLP.Fitness>
49.6194

> <Gold.PLP.PLP>
-41.5733

> <Gold.PLP.part.hbond>
-2.0000

> <Gold.PLP.part.metal>
0.0000

> <Gold.PLP.part.buried>
-3.2820

> <Gold.PLP.part.nonpolar>
-35.8883

> <Gold.PLP.part.repulsive>
0.0132

> <Gold.PLP.ligand.clash>
0.0000

> <Gold.PLP.ligand.torsion>
0.5002

> <Gold.PLP.Chemscore.Hbond>
3.0000

> <Gold.PLP.Chemscore.CHOScore>
0.0000

> <Gold.PLP.Chemscore.Metal>
0.0000

> <Gold.Chemscore.Hbonds>
donor molecule, donor type, donor heavy atom, donor atom, acceptor molecule, acceptor atom, score
      L1  H    19    45       P1  7948  1.82
      P1  H  7997  8010       L1     1  0.54

> <Gold.PLP.Chemscore.Internal.Correction>
0.0465

> <Gold.Rescore>
     Score         DG    S(hbond)    S(metal)    S(lipo)     H(rot)  DE(clash)    DE(int)     intcor
     15.60     -17.28       1.96        0.00      79.55       1.58       0.20       1.49       ----

> <Gold.Chemscore.Fitness>
15.5973

> <Gold.Chemscore.DG>
-17.2808

> <Gold.Chemscore.ZeroCoef>
-5.4800

> <Gold.Chemscore.Hbond>
1.9599

> <Gold.Chemscore.Metal>
0.0000

> <Gold.Chemscore.Lipo>
79.5482

> <Gold.Chemscore.Internal_Hbond>
0.0000

> <Gold.Chemscore.DEClash>
0.1959

> <Gold.Chemscore.DEInternal>
1.4876

> <Gold.Chemscore.Rot>
1.5830

> <Gold.Chemscore.Internal.Correction>
   9.000000E+99

> <Gold.Chemscore.Hbonds>
donor molecule, donor type, donor heavy atom, donor atom, acceptor molecule, acceptor atom, score
      L1  H    19    45       P1  7948  0.87
      P1  H  7997  8010       L1     1  0.51

> <Gold.Chemscore.Hbond.Weighted>
-6.5461

> <Gold.Chemscore.Metal.Weighted>
-0.0000

> <Gold.Chemscore.Lipo.Weighted>
-9.3071

> <Gold.Chemscore.Internal_Hbond.Weighted>
0.0000

> <Gold.Chemscore.DEClash.Weighted>
0.1959

> <Gold.Chemscore.DEInternal.Weighted>
1.4876

> <Gold.Chemscore.Rot.Weighted>
4.0524

> <Gold.Chemscore.Internal.Correction.Weighted>
   9.000000E+99

> <Gold.Protein.RotatedTorsions>
[ 6907 6896 6895 6894 ] final -176.14 input  -60.11 | X-H torsion
[ 7974 7965 7964 7962 ] final  -87.52 input  175.53 | X-H torsion
[ 8008 7997 7996 7995 ] final   77.87 input   59.86 | X-H torsion
[ 10167 10162 10161 10158 ] final    1.67 input  -65.29 | X-H torsion
[ 10718 10713 10712 10709 ] final  -11.60 input   66.30 | X-H torsion
[ 10763 10752 10751 10750 ] final   97.15 input  -60.55 | X-H torsion
[ 11005 11000 10999 10996 ] final -116.20 input  -57.11 | X-H torsion

> <Gold.Protein.ActiveResidues>
 VAL166  LYS551  ARG553  GLY616  TRP617  ASP618  TYR619  PRO620  LYS621  CYS622 
 ASP623  PHE694  ASN695  SER759  ASP760  ASP761  ALA762  ILE779  LEU786  VAL792 
 PHE793  MET794  SER795  GLU796  ALA797  LYS798  CYS799  TRP800  GLU811  SER814 

> <Gold.Protein.RotatedAtoms>
  151.6000  133.3357  159.3045 H   0  0  0  0  0  0  0  0  0  0  0  0  # atno 6907 bound_to 6896
  150.8213  134.7425  159.6786 H   0  0  0  0  0  0  0  0  0  0  0  0  # atno 6908 bound_to 6896
  152.4306  134.5790  159.9994 H   0  0  0  0  0  0  0  0  0  0  0  0  # atno 6909 bound_to 6896
  145.4655  140.9560  143.1946 H   0  0  0  0  0  0  0  0  0  0  0  0  # atno 7974 bound_to 7965
  155.8477  140.3459  155.5673 H   0  0  0  0  0  0  0  0  0  0  0  0  # atno 8008 bound_to 7997
  155.8072  140.0893  157.1944 H   0  0  0  0  0  0  0  0  0  0  0  0  # atno 8009 bound_to 7997
  154.4006  140.1454  156.3331 H   0  0  0  0  0  0  0  0  0  0  0  0  # atno 8010 bound_to 7997
  140.6672  143.7148  150.7850 H   0  0  0  0  0  0  0  0  0  0  0  0  # atno 10167 bound_to 10162
  156.6566  130.4970  149.6044 H   0  0  0  0  0  0  0  0  0  0  0  0  # atno 10718 bound_to 10713
  153.2735  135.4193  155.1010 H   0  0  0  0  0  0  0  0  0  0  0  0  # atno 10763 bound_to 10752
  154.8464  135.3478  154.6211 H   0  0  0  0  0  0  0  0  0  0  0  0  # atno 10764 bound_to 10752
  153.6631  135.7047  153.5228 H   0  0  0  0  0  0  0  0  0  0  0  0  # atno 10765 bound_to 10752
  141.0437  133.9795  157.2952 H   0  0  0  0  0  0  0  0  0  0  0  0  # atno 11005 bound_to 11000
  144.7977  139.6202  143.7085 LP  0  0  0  0  0  0  0  0  0  0  0  0  # atno 17320 bound_to 7965
  146.2427  139.6034  142.9481 LP  0  0  0  0  0  0  0  0  0  0  0  0  # atno 17321 bound_to 7965
  140.0827  143.4953  152.2521 LP  0  0  0  0  0  0  0  0  0  0  0  0  # atno 17342 bound_to 10162
  139.5925  144.7555  151.3365 LP  0  0  0  0  0  0  0  0  0  0  0  0  # atno 17343 bound_to 10162
  156.2043  130.6639  151.1201 LP  0  0  0  0  0  0  0  0  0  0  0  0  # atno 17370 bound_to 10713
  157.7123  131.0728  150.6455 LP  0  0  0  0  0  0  0  0  0  0  0  0  # atno 17371 bound_to 10713
  139.9295  135.0200  156.8352 LP  0  0  0  0  0  0  0  0  0  0  0  0  # atno 17394 bound_to 11000
  140.6186  134.0015  155.7608 LP  0  0  0  0  0  0  0  0  0  0  0  0  # atno 17395 bound_to 11000

$$$$
