AV-unprocessed.smi:1707|AV-procd|sdf|6888|dock5
  -GOLD-   22720 8 93D 1   1.00000     0.00000
 Structure written by MMmdl.
 40 41  0  0  0  0  0  0  0  0  2 V2000
  148.8813  138.9473  158.7567 O   0  0  0  0  0  0  0  0  0  0  0  0
  149.5954  138.3917  157.9221 C   0  0  0  0  0  0  0  0  0  0  0  0
  150.3183  139.0628  157.0139 N   0  0  0  0  0  0  0  0  0  0  0  0
  150.3633  140.5148  156.8876 C   0  0  0  0  0  0  0  0  0  0  0  0
  151.7834  141.0577  157.1247 C   0  0  0  0  0  0  0  0  0  0  0  0
  151.8121  142.2307  158.0900 C   0  0  0  0  0  0  0  0  0  0  0  0
  151.1595  143.3815  157.8348 C   0  0  0  0  0  0  0  0  0  0  0  0
  151.1628  144.5874  158.7578 C   0  0  0  0  0  0  0  0  0  0  0  0
  152.2528  144.4951  159.8386 C   0  0  0  0  0  0  0  0  0  0  0  0
  152.3155  143.0868  160.4429 C   0  0  0  0  0  0  0  0  0  0  0  0
  152.6201  142.0289  159.3674 C   0  0  0  0  0  0  0  0  0  0  0  0
  149.7559  137.0641  157.7728 N   0  0  0  0  0  0  0  0  0  0  0  0
  149.2051  136.0031  158.5125 C   0  0  0  0  0  0  0  0  0  0  0  0
  148.7461  136.0962  159.7916 C   0  0  0  0  0  0  0  0  0  0  0  0
  148.1972  134.9526  160.5094 C   0  0  0  0  0  0  0  0  0  0  0  0
  147.5888  135.0424  161.8977 C   0  0  0  0  0  0  0  0  0  0  0  0
  147.2022  133.8423  162.3313 F   0  0  0  0  0  0  0  0  0  0  0  0
  148.4865  135.5247  162.7558 F   0  0  0  0  0  0  0  0  0  0  0  0
  146.5305  135.8528  161.9042 F   0  0  0  0  0  0  0  0  0  0  0  0
  148.1944  133.8043  159.7419 C   0  0  0  0  0  0  0  0  0  0  0  0
  148.6513  133.6207  158.4839 N   0  5  0  0  0  0  0  0  0  0  0  0
  149.1642  134.6966  157.8228 C   0  0  0  0  0  0  0  0  0  0  0  0
  149.5921  134.6003  156.6719 O   0  0  0  0  0  0  0  0  0  0  0  0
  150.8775  138.5302  156.3637 H   0  0  0  0  0  0  0  0  0  0  0  0
  149.9896  140.8096  155.9057 H   0  0  0  0  0  0  0  0  0  0  0  0
  149.6775  140.9390  157.6214 H   0  0  0  0  0  0  0  0  0  0  0  0
  152.4182  140.2571  157.5077 H   0  0  0  0  0  0  0  0  0  0  0  0
  152.2304  141.3776  156.1826 H   0  0  0  0  0  0  0  0  0  0  0  0
  150.5797  143.4811  156.9288 H   0  0  0  0  0  0  0  0  0  0  0  0
  151.3023  145.4931  158.1672 H   0  0  0  0  0  0  0  0  0  0  0  0
  150.1781  144.6590  159.2204 H   0  0  0  0  0  0  0  0  0  0  0  0
  153.2216  144.7389  159.4007 H   0  0  0  0  0  0  0  0  0  0  0  0
  152.0703  145.2362  160.6173 H   0  0  0  0  0  0  0  0  0  0  0  0
  153.0691  143.0444  161.2298 H   0  0  0  0  0  0  0  0  0  0  0  0
  151.3606  142.8581  160.9180 H   0  0  0  0  0  0  0  0  0  0  0  0
  152.4250  141.0345  159.7702 H   0  0  0  0  0  0  0  0  0  0  0  0
  153.6792  142.0630  159.1104 H   0  0  0  0  0  0  0  0  0  0  0  0
  150.3358  136.7689  157.0010 H   0  0  0  0  0  0  0  0  0  0  0  0
  148.7894  137.0268  160.3317 H   0  0  0  0  0  0  0  0  0  0  0  0
  147.7542  132.8967  160.2073 H   0  0  0  0  0  0  0  0  0  0  0  0
  1  2  2  0  0  0  0
  2  3  1  0  0  0  0
  2 12  1  0  0  0  0
  3  4  1  0  0  0  0
  3 24  1  0  0  0  0
  4  5  1  0  0  0  0
  4 25  1  0  0  0  0
  4 26  1  0  0  0  0
  5  6  1  0  0  0  0
  5 27  1  0  0  0  0
  5 28  1  0  0  0  0
  6 11  1  0  0  0  0
  6  7  2  0  0  0  0
  7  8  1  0  0  0  0
  7 29  1  0  0  0  0
  8  9  1  0  0  0  0
  8 30  1  0  0  0  0
  8 31  1  0  0  0  0
  9 10  1  0  0  0  0
  9 32  1  0  0  0  0
  9 33  1  0  0  0  0
 10 11  1  0  0  0  0
 10 34  1  0  0  0  0
 10 35  1  0  0  0  0
 11 36  1  0  0  0  0
 11 37  1  0  0  0  0
 12 13  1  0  0  0  0
 12 38  1  0  0  0  0
 13 22  1  0  0  0  0
 13 14  2  0  0  0  0
 14 15  1  0  0  0  0
 14 39  1  0  0  0  0
 15 16  1  0  0  0  0
 15 20  2  0  0  0  0
 16 17  1  0  0  0  0
 16 18  1  0  0  0  0
 16 19  1  0  0  0  0
 20 21  1  0  0  0  0
 20 40  1  0  0  0  0
 21 22  1  0  0  0  0
 22 23  2  0  0  0  0
M  CHG  1  21  -1
M  END
> <s_m_source_file>
AV-unprocessed.smi

> <i_m_source_file_index>
1707

> <i_lp_mmshare_version>
43012

> <i_f3d_flags>
0

> <s_epik_input>
Tz1jMVtuSF1bY0hdYyhDKEYpKEYpRilbY0hdYzFbTkhdQyg9TylbTkhdW0NIMl1bQ0gyXUMyPVtDSF1bQ0gyXVtDSDJdW0NIMl1bQ0gyXTI=

> <s_epik_cmdline>
J2VwaWtfcHl0aG9uJywgJy1waCcsICc3LjAnLCAnLXRuJywgJzgnLCAnLW1hJywgJzIwMCcsICctbWV0YWxfYmluZGluZycsICctaW1hZScsICc8aW5maWxlLm1hZT4nLCAnLW9tYWUnLCAnPG91dGZpbGUubWFlPic=

> <r_lp_tautomer_probability>
1

> <r_epik_Ionization_Penalty>
3.1649

> <r_epik_Ionization_Penalty_Charging>
0.171543

> <r_epik_Ionization_Penalty_Neutral>
2.99336

> <r_epik_State_Penalty>
2.98952

> <r_epik_Charging_Adjusted_Penalty>
3.16106

> <i_epik_Tot_Q>
-1

> <i_epik_Tot_abs_Q>
1

> <r_epik_Metal_State_Penalty>
0.452963

> <b_epik_Metal_Only>
1

> <s_lp_Force_Field>
OPLS_2005

> <r_lp_Energy>
21.1574

> <b_lp_Chiralities_Consistent>
1

> <s_lp_Variant>
AV-unprocessed.smi:1707-2

> <Gold.Version>
5.8.1

> <Gold.Id.Protein>
6NUR|6NUR_protein|mol2

> <Gold.PLP.Fitness>
42.2589

> <Gold.PLP.PLP>
-43.2466

> <Gold.PLP.part.hbond>
-1.2805

> <Gold.PLP.part.metal>
0.0000

> <Gold.PLP.part.buried>
-4.0405

> <Gold.PLP.part.nonpolar>
-38.9353

> <Gold.PLP.part.repulsive>
0.1180

> <Gold.PLP.ligand.clash>
0.0000

> <Gold.PLP.ligand.torsion>
0.5266

> <Gold.PLP.Chemscore.Hbond>
0.0000

> <Gold.PLP.Chemscore.CHOScore>
0.0000

> <Gold.PLP.Chemscore.Metal>
0.0000

> <Gold.PLP.Chemscore.Internal.Correction>
0.0656

> <Gold.Rescore>
     Score         DG    S(hbond)    S(metal)    S(lipo)     H(rot)  DE(clash)    DE(int)     intcor
     11.43     -14.32       0.00        0.00     109.54       1.55       1.43       1.46       ----

> <Gold.Chemscore.Fitness>
11.4275

> <Gold.Chemscore.DG>
-14.3217

> <Gold.Chemscore.ZeroCoef>
-5.4800

> <Gold.Chemscore.Hbond>
0.0000

> <Gold.Chemscore.Metal>
0.0000

> <Gold.Chemscore.Lipo>
109.5359

> <Gold.Chemscore.Internal_Hbond>
0.0000

> <Gold.Chemscore.DEClash>
1.4349

> <Gold.Chemscore.DEInternal>
1.4593

> <Gold.Chemscore.Rot>
1.5523

> <Gold.Chemscore.Internal.Correction>
   9.000000E+99

> <Gold.Chemscore.Hbond.Weighted>
-0.0000

> <Gold.Chemscore.Metal.Weighted>
-0.0000

> <Gold.Chemscore.Lipo.Weighted>
-12.8157

> <Gold.Chemscore.Internal_Hbond.Weighted>
0.0000

> <Gold.Chemscore.DEClash.Weighted>
1.4349

> <Gold.Chemscore.DEInternal.Weighted>
1.4593

> <Gold.Chemscore.Rot.Weighted>
3.9740

> <Gold.Chemscore.Internal.Correction.Weighted>
   9.000000E+99

> <Gold.Protein.RotatedTorsions>
[ 6907 6896 6895 6894 ] final  -57.19 input  -60.11 | X-H torsion
[ 7974 7965 7964 7962 ] final  -75.29 input  175.53 | X-H torsion
[ 8008 7997 7996 7995 ] final -114.84 input   59.86 | X-H torsion
[ 10167 10162 10161 10158 ] final   54.31 input  -65.29 | X-H torsion
[ 10718 10713 10712 10709 ] final   78.77 input   66.30 | X-H torsion
[ 10763 10752 10751 10750 ] final  144.22 input  -60.55 | X-H torsion
[ 11005 11000 10999 10996 ] final   55.91 input  -57.11 | X-H torsion

> <Gold.Protein.ActiveResidues>
 VAL166  LYS551  ARG553  GLY616  TRP617  ASP618  TYR619  PRO620  LYS621  CYS622 
 ASP623  PHE694  ASN695  SER759  ASP760  ASP761  ALA762  ILE779  LEU786  VAL792 
 PHE793  MET794  SER795  GLU796  ALA797  LYS798  CYS799  TRP800  GLU811  SER814 

> <Gold.Protein.RotatedAtoms>
  150.8106  134.7258  159.6683 H   0  0  0  0  0  0  0  0  0  0  0  0  # atno 6907 bound_to 6896
  152.4226  134.5924  159.9987 H   0  0  0  0  0  0  0  0  0  0  0  0  # atno 6908 bound_to 6896
  151.6135  133.3308  159.3108 H   0  0  0  0  0  0  0  0  0  0  0  0  # atno 6909 bound_to 6896
  145.6280  140.9345  143.1102 H   0  0  0  0  0  0  0  0  0  0  0  0  # atno 7974 bound_to 7965
  155.0426  140.0392  157.2515 H   0  0  0  0  0  0  0  0  0  0  0  0  # atno 8008 bound_to 7997
  154.7204  140.2710  155.6523 H   0  0  0  0  0  0  0  0  0  0  0  0  # atno 8009 bound_to 7997
  156.2815  140.2704  156.1873 H   0  0  0  0  0  0  0  0  0  0  0  0  # atno 8010 bound_to 7997
  140.2315  144.3682  150.6413 H   0  0  0  0  0  0  0  0  0  0  0  0  # atno 10167 bound_to 10162
  157.6755  130.9883  150.1835 H   0  0  0  0  0  0  0  0  0  0  0  0  # atno 10718 bound_to 10713
  153.9853  135.2937  155.3416 H   0  0  0  0  0  0  0  0  0  0  0  0  # atno 10763 bound_to 10752
  154.7245  135.5094  153.8868 H   0  0  0  0  0  0  0  0  0  0  0  0  # atno 10764 bound_to 10752
  153.0835  135.6686  154.0112 H   0  0  0  0  0  0  0  0  0  0  0  0  # atno 10765 bound_to 10752
  140.0570  134.5656  155.9196 H   0  0  0  0  0  0  0  0  0  0  0  0  # atno 11005 bound_to 11000
  144.7205  139.8048  143.7383 LP  0  0  0  0  0  0  0  0  0  0  0  0  # atno 17320 bound_to 7965
  146.1379  139.4429  143.0127 LP  0  0  0  0  0  0  0  0  0  0  0  0  # atno 17321 bound_to 7965
  140.6181  143.2174  151.6749 LP  0  0  0  0  0  0  0  0  0  0  0  0  # atno 17342 bound_to 10162
  139.5108  144.3529  152.0635 LP  0  0  0  0  0  0  0  0  0  0  0  0  # atno 17343 bound_to 10162
  156.2562  130.3706  149.8179 LP  0  0  0  0  0  0  0  0  0  0  0  0  # atno 17370 bound_to 10713
  156.5937  130.8517  151.3414 LP  0  0  0  0  0  0  0  0  0  0  0  0  # atno 17371 bound_to 10713
  141.1956  133.6588  156.5653 LP  0  0  0  0  0  0  0  0  0  0  0  0  # atno 17394 bound_to 11000
  140.3829  134.7508  157.4672 LP  0  0  0  0  0  0  0  0  0  0  0  0  # atno 17395 bound_to 11000

$$$$
