AV-unprocessed.smi:2653|AV-procd|sdf|10295|dock3
  -GOLD-   2272014313D 1   1.00000     0.00000
 Structure written by MMmdl.
 31 32  0  0  0  0  0  0  0  0  1 V2000
  146.8327  139.6746  151.4027 C   0  0  0  0  0  0  0  0  0  0  0  0
  147.0929  139.0177  152.7625 C   0  0  0  0  0  0  0  0  0  0  0  0
  148.1502  139.7132  153.5565 C   0  0  0  0  0  0  0  0  0  0  0  0
  149.4377  139.2310  153.6337 N   0  0  0  0  0  0  0  0  0  0  0  0
  150.2472  139.9952  154.3867 N   0  0  0  0  0  0  0  0  0  0  0  0
  149.4536  140.9798  154.7900 C   0  0  0  0  0  0  0  0  0  0  0  0
  149.8221  142.0775  155.6217 N   0  0  0  0  0  0  0  0  0  0  0  0
  150.7181  142.1709  156.6272 C   0  0  0  0  0  0  0  0  0  0  0  0
  151.3887  141.1980  156.9689 O   0  0  0  0  0  0  0  0  0  0  0  0
  150.8239  143.3727  157.2160 N   0  0  0  0  0  0  0  0  0  0  0  0
  151.6988  143.7012  158.2939 C   0  0  0  0  0  0  0  0  0  0  0  0
  151.6330  145.1087  158.8462 C   0  0  0  0  0  0  0  0  0  0  0  0
  152.8136  144.6865  158.0163 C   0  0  0  0  0  0  0  0  0  0  0  0
  148.1163  140.8614  154.3017 C   0  0  0  0  0  0  0  0  0  0  0  0
  146.9453  141.7782  154.5385 C   0  0  0  0  0  0  0  0  0  0  0  0
  149.7716  138.3918  153.1812 H   0  0  0  0  0  0  0  0  0  0  0  0
  146.0593  139.1376  150.8535 H   0  0  0  0  0  0  0  0  0  0  0  0
  147.7337  139.6816  150.7886 H   0  0  0  0  0  0  0  0  0  0  0  0
  146.5008  140.7064  151.5230 H   0  0  0  0  0  0  0  0  0  0  0  0
  146.1647  138.9914  153.3339 H   0  0  0  0  0  0  0  0  0  0  0  0
  147.3808  137.9770  152.6101 H   0  0  0  0  0  0  0  0  0  0  0  0
  149.3302  142.9356  155.4199 H   0  0  0  0  0  0  0  0  0  0  0  0
  150.2328  144.1146  156.8679 H   0  0  0  0  0  0  0  0  0  0  0  0
  151.9234  142.9155  159.0137 H   0  0  0  0  0  0  0  0  0  0  0  0
  150.9243  145.8009  158.3951 H   0  0  0  0  0  0  0  0  0  0  0  0
  151.7892  145.2343  159.9157 H   0  0  0  0  0  0  0  0  0  0  0  0
  153.7599  144.5312  158.5307 H   0  0  0  0  0  0  0  0  0  0  0  0
  152.8925  145.0964  157.0111 H   0  0  0  0  0  0  0  0  0  0  0  0
  147.1776  142.5789  155.2403 H   0  0  0  0  0  0  0  0  0  0  0  0
  146.0898  141.2391  154.9453 H   0  0  0  0  0  0  0  0  0  0  0  0
  146.6159  142.2514  153.6134 H   0  0  0  0  0  0  0  0  0  0  0  0
  1  2  1  0  0  0  0
  1 17  1  0  0  0  0
  1 18  1  0  0  0  0
  1 19  1  0  0  0  0
  2  3  1  0  0  0  0
  2 20  1  0  0  0  0
  2 21  1  0  0  0  0
  3 14  2  0  0  0  0
  3  4  1  0  0  0  0
  4 16  1  0  0  0  0
  4  5  1  0  0  0  0
  5  6  2  0  0  0  0
  6  7  1  0  0  0  0
  6 14  1  0  0  0  0
  7  8  1  0  0  0  0
  7 22  1  0  0  0  0
  8  9  2  0  0  0  0
  8 10  1  0  0  0  0
 10 11  1  0  0  0  0
 10 23  1  0  0  0  0
 11 13  1  0  0  0  0
 11 12  1  0  0  0  0
 11 24  1  0  0  0  0
 12 13  1  0  0  0  0
 12 25  1  0  0  0  0
 12 26  1  0  0  0  0
 13 27  1  0  0  0  0
 13 28  1  0  0  0  0
 14 15  1  0  0  0  0
 15 29  1  0  0  0  0
 15 30  1  0  0  0  0
 15 31  1  0  0  0  0
M  END
> <s_m_source_file>
AV-unprocessed.smi

> <i_m_source_file_index>
2653

> <i_lp_mmshare_version>
43012

> <i_f3d_flags>
0

> <s_epik_input>
W0NIM11bQ0gyXWMxW25IXW5jKGMxW0NIM10pW05IXUMoPU8pW05IXVtDSF0yW0NIMl1bQ0gyXTI=

> <s_epik_cmdline>
J2VwaWtfcHl0aG9uJywgJy1waCcsICc3LjAnLCAnLXRuJywgJzgnLCAnLW1hJywgJzIwMCcsICctbWV0YWxfYmluZGluZycsICctaW1hZScsICc8aW5maWxlLm1hZT4nLCAnLW9tYWUnLCAnPG91dGZpbGUubWFlPic=

> <r_lp_tautomer_probability>
0.5

> <r_epik_Ionization_Penalty>
4.18734e-05

> <r_epik_Ionization_Penalty_Charging>
0

> <r_epik_Ionization_Penalty_Neutral>
4.18734e-05

> <r_epik_State_Penalty>
0.41068

> <r_epik_Charging_Adjusted_Penalty>
0.41068

> <i_epik_Tot_Q>
0

> <i_epik_Tot_abs_Q>
0

> <r_epik_Metal_State_Penalty>
0.410694

> <b_epik_Metal_Only>
0

> <s_lp_Force_Field>
OPLS_2005

> <r_lp_Energy>
17.3388

> <b_lp_Chiralities_Consistent>
1

> <s_lp_Variant>
AV-unprocessed.smi:2653-1

> <Gold.Version>
5.8.1

> <Gold.Id.Protein>
6NUR|6NUR_protein|mol2

> <Gold.PLP.Fitness>
43.6582

> <Gold.PLP.PLP>
-35.6069

> <Gold.PLP.part.hbond>
-4.0000

> <Gold.PLP.part.metal>
0.0000

> <Gold.PLP.part.buried>
-0.0672

> <Gold.PLP.part.nonpolar>
-31.4974

> <Gold.PLP.part.repulsive>
0.4114

> <Gold.PLP.ligand.clash>
0.0000

> <Gold.PLP.ligand.torsion>
0.4930

> <Gold.PLP.Chemscore.Hbond>
3.0000

> <Gold.PLP.Chemscore.CHOScore>
0.0000

> <Gold.PLP.Chemscore.Metal>
0.0000

> <Gold.Chemscore.Hbonds>
donor molecule, donor type, donor heavy atom, donor atom, acceptor molecule, acceptor atom, score
      L1  H     7    22       P1  8028  1.00
      L1  H    10    23       P1  8028  1.00
      P1  H  7989  7998       L1     5  1.00

> <Gold.PLP.Chemscore.Internal.Correction>
0.0374

> <Gold.Rescore>
     Score         DG    S(hbond)    S(metal)    S(lipo)     H(rot)  DE(clash)    DE(int)     intcor
     19.10     -19.96       2.64        0.00      74.90       1.21       0.28       0.58       ----

> <Gold.Chemscore.Fitness>
19.1036

> <Gold.Chemscore.DG>
-19.9632

> <Gold.Chemscore.ZeroCoef>
-5.4800

> <Gold.Chemscore.Hbond>
2.6420

> <Gold.Chemscore.Metal>
0.0000

> <Gold.Chemscore.Lipo>
74.9045

> <Gold.Chemscore.Internal_Hbond>
0.0000

> <Gold.Chemscore.DEClash>
0.2804

> <Gold.Chemscore.DEInternal>
0.5792

> <Gold.Chemscore.Rot>
1.2129

> <Gold.Chemscore.Internal.Correction>
   9.000000E+99

> <Gold.Chemscore.Hbonds>
donor molecule, donor type, donor heavy atom, donor atom, acceptor molecule, acceptor atom, score
      L1  H     7    22       P1  8028  0.98
      L1  H    10    23       P1  8028  0.93
      P1  H  7989  7998       L1     5  0.41

> <Gold.Chemscore.Hbond.Weighted>
-8.8243

> <Gold.Chemscore.Metal.Weighted>
-0.0000

> <Gold.Chemscore.Lipo.Weighted>
-8.7638

> <Gold.Chemscore.Internal_Hbond.Weighted>
0.0000

> <Gold.Chemscore.DEClash.Weighted>
0.2804

> <Gold.Chemscore.DEInternal.Weighted>
0.5792

> <Gold.Chemscore.Rot.Weighted>
3.1049

> <Gold.Chemscore.Internal.Correction.Weighted>
   9.000000E+99

> <Gold.Protein.RotatedTorsions>
[ 6907 6896 6895 6894 ] final    6.37 input  -60.11 | X-H torsion
[ 7974 7965 7964 7962 ] final   36.97 input  175.53 | X-H torsion
[ 8008 7997 7996 7995 ] final -158.91 input   59.86 | X-H torsion
[ 10167 10162 10161 10158 ] final  -65.40 input  -65.29 | X-H torsion
[ 10718 10713 10712 10709 ] final  -66.37 input   66.30 | X-H torsion
[ 10763 10752 10751 10750 ] final   67.42 input  -60.55 | X-H torsion
[ 11005 11000 10999 10996 ] final  172.62 input  -57.11 | X-H torsion

> <Gold.Protein.ActiveResidues>
 VAL166  LYS551  ARG553  GLY616  TRP617  ASP618  TYR619  PRO620  LYS621  CYS622 
 ASP623  PHE694  ASN695  SER759  ASP760  ASP761  ALA762  ILE779  LEU786  VAL792 
 PHE793  MET794  SER795  GLU796  ALA797  LYS798  CYS799  TRP800  GLU811  SER814 

> <Gold.Protein.RotatedAtoms>
  151.6726  135.0974  160.0200 H   0  0  0  0  0  0  0  0  0  0  0  0  # atno 6907 bound_to 6896
  152.3882  133.6637  159.6224 H   0  0  0  0  0  0  0  0  0  0  0  0  # atno 6908 bound_to 6896
  150.7803  133.8915  159.3356 H   0  0  0  0  0  0  0  0  0  0  0  0  # atno 6909 bound_to 6896
  146.1172  139.5951  142.9314 H   0  0  0  0  0  0  0  0  0  0  0  0  # atno 7974 bound_to 7965
  155.7547  140.0831  157.2184 H   0  0  0  0  0  0  0  0  0  0  0  0  # atno 8008 bound_to 7997
  154.4009  140.1554  156.2820 H   0  0  0  0  0  0  0  0  0  0  0  0  # atno 8009 bound_to 7997
  155.8897  140.3416  155.5949 H   0  0  0  0  0  0  0  0  0  0  0  0  # atno 8010 bound_to 7997
  140.5732  143.2319  151.6495 H   0  0  0  0  0  0  0  0  0  0  0  0  # atno 10167 bound_to 10162
  156.0616  130.4261  150.1698 H   0  0  0  0  0  0  0  0  0  0  0  0  # atno 10718 bound_to 10713
  153.0185  135.5285  154.6976 H   0  0  0  0  0  0  0  0  0  0  0  0  # atno 10763 bound_to 10752
  154.6094  135.2876  155.0451 H   0  0  0  0  0  0  0  0  0  0  0  0  # atno 10764 bound_to 10752
  154.1479  135.6567  153.5009 H   0  0  0  0  0  0  0  0  0  0  0  0  # atno 10765 bound_to 10752
  140.3317  134.7352  157.4139 H   0  0  0  0  0  0  0  0  0  0  0  0  # atno 11005 bound_to 11000
  145.5542  141.0410  143.2261 LP  0  0  0  0  0  0  0  0  0  0  0  0  # atno 17320 bound_to 7965
  144.7563  139.7065  143.7252 LP  0  0  0  0  0  0  0  0  0  0  0  0  # atno 17321 bound_to 7965
  139.5129  144.3462  152.0695 LP  0  0  0  0  0  0  0  0  0  0  0  0  # atno 17342 bound_to 10162
  140.2602  144.4075  150.6188 LP  0  0  0  0  0  0  0  0  0  0  0  0  # atno 17343 bound_to 10162
  156.9766  130.9851  151.3447 LP  0  0  0  0  0  0  0  0  0  0  0  0  # atno 17370 bound_to 10713
  157.5629  130.8258  149.8289 LP  0  0  0  0  0  0  0  0  0  0  0  0  # atno 17371 bound_to 10713
  140.0855  134.5672  155.8496 LP  0  0  0  0  0  0  0  0  0  0  0  0  # atno 17394 bound_to 11000
  141.2062  133.6653  156.6225 LP  0  0  0  0  0  0  0  0  0  0  0  0  # atno 17395 bound_to 11000

$$$$
