AV-unprocessed.smi:72|AV-procd|sdf|724|dock8
  -GOLD-   2262017 53D 1   1.00000     0.00000
 Structure written by MMmdl.
 28 29  0  0  0  0  0  0  0  0  2 V2000
  152.6403  140.1044  159.3073 N   0  0  0  0  0  0  0  0  0  0  0  0
  151.9670  140.2236  158.2485 C   0  0  0  0  0  0  0  0  0  0  0  0
  150.6394  140.7953  158.2917 N   0  0  0  0  0  0  0  0  0  0  0  0
  150.0005  140.9271  157.1701 C   0  0  0  0  0  0  0  0  0  0  0  0
  150.5910  140.5352  155.8942 N   0  0  0  0  0  0  0  0  0  0  0  0
  149.8573  140.6839  154.5688 C   0  0  1  0  0  0  0  0  0  0  0  0
  149.4519  139.4284  154.1017 O   0  0  0  0  0  0  0  0  0  0  0  0
  148.0860  139.2044  154.4395 C   0  0  2  0  0  0  0  0  0  0  0  0
  147.4846  138.0644  153.5997 C   0  0  0  0  0  0  0  0  0  0  0  0
  147.6169  138.3593  152.2256 O   0  0  0  0  0  0  0  0  0  0  0  0
  147.4748  140.5909  154.2180 C   0  0  2  0  0  0  0  0  0  0  0  0
  147.1969  140.7979  152.8424 O   0  0  0  0  0  0  0  0  0  0  0  0
  148.5695  141.5196  154.7440 C   0  0  2  0  0  0  0  0  0  0  0  0
  148.6043  142.7578  154.0590 O   0  0  0  0  0  0  0  0  0  0  0  0
  151.8776  139.9309  155.8926 C   0  0  0  0  0  0  0  0  0  0  0  0
  152.3409  139.5555  154.8152 O   0  0  0  0  0  0  0  0  0  0  0  0
  152.5410  139.7918  157.0741 N   0  5  0  0  0  0  0  0  0  0  0  0
  150.5888  141.1109  153.8804 H   0  0  0  0  0  0  0  0  0  0  0  0
  148.0068  138.9660  155.5020 H   0  0  0  0  0  0  0  0  0  0  0  0
  146.5446  140.7159  154.7732 H   0  0  0  0  0  0  0  0  0  0  0  0
  148.3998  141.7041  155.8061 H   0  0  0  0  0  0  0  0  0  0  0  0
  153.5460  139.6911  159.1401 H   0  0  0  0  0  0  0  0  0  0  0  0
  148.9915  141.3359  157.1228 H   0  0  0  0  0  0  0  0  0  0  0  0
  148.0222  137.1347  153.7880 H   0  0  0  0  0  0  0  0  0  0  0  0
  146.4371  137.8929  153.8492 H   0  0  0  0  0  0  0  0  0  0  0  0
  148.1795  137.7080  151.8349 H   0  0  0  0  0  0  0  0  0  0  0  0
  147.9511  140.5190  152.3453 H   0  0  0  0  0  0  0  0  0  0  0  0
  148.6697  143.4481  154.7024 H   0  0  0  0  0  0  0  0  0  0  0  0
  1  2  2  0  0  0  0
  1 22  1  0  0  0  0
  2 17  1  0  0  0  0
  2  3  1  0  0  0  0
  3  4  2  0  0  0  0
  4  5  1  0  0  0  0
  4 23  1  0  0  0  0
  5  6  1  0  0  0  0
  5 15  1  0  0  0  0
  6 18  1  0  0  0  0
  6 13  1  0  0  0  0
  6  7  1  0  0  0  0
  7  8  1  0  0  0  0
  8 19  1  0  0  0  0
  8  9  1  0  0  0  0
  8 11  1  0  0  0  0
  9 10  1  0  0  0  0
  9 24  1  0  0  0  0
  9 25  1  0  0  0  0
 10 26  1  0  0  0  0
 11 20  1  0  0  0  0
 11 12  1  0  0  0  0
 11 13  1  0  0  0  0
 12 27  1  0  0  0  0
 13 21  1  0  0  0  0
 13 14  1  0  0  0  0
 14 28  1  0  0  0  0
 15 16  2  0  0  0  0
 15 17  1  0  0  0  0
M  CHG  1  17  -1
M  END
> <s_m_source_file>
AV-unprocessed.smi

> <i_m_source_file_index>
72

> <i_lp_mmshare_version>
43012

> <i_f3d_flags>
0

> <s_epik_input>
W05IMl1jMW5bY0hdbihjKD1PKW4xKVtDQEBIXTJPW0NASF0oW0NIMl1bT0hdKVtDQEBIXShbT0hdKVtDQEhdMltPSF0=

> <s_epik_cmdline>
J2VwaWtfcHl0aG9uJywgJy1waCcsICc3LjAnLCAnLXRuJywgJzgnLCAnLW1hJywgJzIwMCcsICctbWV0YWxfYmluZGluZycsICctaW1hZScsICc8aW5maWxlLm1hZT4nLCAnLW9tYWUnLCAnPG91dGZpbGUubWFlPic=

> <r_lp_tautomer_probability>
7.17554e-07

> <r_epik_Ionization_Penalty>
12.8705

> <r_epik_Ionization_Penalty_Charging>
5.64144

> <r_epik_Ionization_Penalty_Neutral>
7.22905

> <r_epik_State_Penalty>
3.30104

> <r_epik_Charging_Adjusted_Penalty>
8.94249

> <i_epik_Tot_Q>
-1

> <i_epik_Tot_abs_Q>
1

> <r_epik_Metal_State_Penalty>
0.529074

> <b_epik_Metal_Only>
1

> <s_epik_Chemistry_Notes>
This compound contains an acetal/aminal-like group ( X-CH(R)-Y where X, Y are N, S, or O) that may be acid/base labile, releasing an aldehyde.

> <s_lp_Force_Field>
OPLS_2005

> <r_lp_Energy>
35.695

> <b_lp_Chiralities_Consistent>
1

> <s_lp_Variant>
AV-unprocessed.smi:72-62

> <Gold.Version>
5.8.1

> <Gold.Id.Protein>
6NUR|6NUR_protein|mol2

> <Gold.PLP.Fitness>
40.7198

> <Gold.PLP.PLP>
-24.1275

> <Gold.PLP.part.hbond>
-7.6811

> <Gold.PLP.part.metal>
0.0000

> <Gold.PLP.part.buried>
0.6915

> <Gold.PLP.part.nonpolar>
-16.4140

> <Gold.PLP.part.repulsive>
0.9084

> <Gold.PLP.ligand.clash>
0.0000

> <Gold.PLP.ligand.torsion>
0.2016

> <Gold.PLP.Chemscore.Hbond>
5.6580

> <Gold.PLP.Chemscore.CHOScore>
0.0000

> <Gold.PLP.Chemscore.Metal>
0.0000

> <Gold.Chemscore.Hbonds>
donor molecule, donor type, donor heavy atom, donor atom, acceptor molecule, acceptor atom, score
      L1  H    10    26       P1  7948  1.00
      L1  H    12    27       P1  7957  0.89
      L1  H    14    28       P1  8028  1.00
      P1  H  7989  7998       L1    16  0.74
      P1  H  7997  8008       L1    17  2.00

> <Gold.PLP.Chemscore.Internal.Correction>
0.0217

> <Gold.Rescore>
     Score         DG    S(hbond)    S(metal)    S(lipo)     H(rot)  DE(clash)    DE(int)     intcor
      6.32      -9.68       3.58        0.00      22.06       4.04       2.02       1.34       ----

> <Gold.Chemscore.Fitness>
6.3190

> <Gold.Chemscore.DG>
-9.6767

> <Gold.Chemscore.ZeroCoef>
-5.4800

> <Gold.Chemscore.Hbond>
3.5804

> <Gold.Chemscore.Metal>
0.0000

> <Gold.Chemscore.Lipo>
22.0620

> <Gold.Chemscore.Internal_Hbond>
0.0000

> <Gold.Chemscore.DEClash>
2.0181

> <Gold.Chemscore.DEInternal>
1.3397

> <Gold.Chemscore.Rot>
4.0403

> <Gold.Chemscore.Internal.Correction>
   9.000000E+99

> <Gold.Chemscore.Hbonds>
donor molecule, donor type, donor heavy atom, donor atom, acceptor molecule, acceptor atom, score
      L1  H    10    26       P1  7948  0.97
      L1  H    12    27       P1  7957  0.86
      L1  H    14    28       P1  8028  0.97
      P1  H  7989  7998       L1    16  0.35
      P1  H  7997  8008       L1    17  0.73
      P1  H  8011  8017       L1    14  0.03

> <Gold.Chemscore.Hbond.Weighted>
-11.9585

> <Gold.Chemscore.Metal.Weighted>
-0.0000

> <Gold.Chemscore.Lipo.Weighted>
-2.5812

> <Gold.Chemscore.Internal_Hbond.Weighted>
0.0000

> <Gold.Chemscore.DEClash.Weighted>
2.0181

> <Gold.Chemscore.DEInternal.Weighted>
1.3397

> <Gold.Chemscore.Rot.Weighted>
10.3431

> <Gold.Chemscore.Internal.Correction.Weighted>
   9.000000E+99

> <Gold.Protein.RotatedTorsions>
[ 6907 6896 6895 6894 ] final -127.23 input  -60.11 | X-H torsion
[ 7974 7965 7964 7962 ] final  -68.30 input  175.53 | X-H torsion
[ 8008 7997 7996 7995 ] final  -75.46 input   59.86 | X-H torsion
[ 10167 10162 10161 10158 ] final -136.88 input  -65.29 | X-H torsion
[ 10718 10713 10712 10709 ] final -137.01 input   66.30 | X-H torsion
[ 10763 10752 10751 10750 ] final   69.74 input  -60.55 | X-H torsion
[ 11005 11000 10999 10996 ] final  -45.53 input  -57.11 | X-H torsion

> <Gold.Protein.ActiveResidues>
 VAL166  LYS551  ARG553  GLY616  TRP617  ASP618  TYR619  PRO620  LYS621  CYS622 
 ASP623  PHE694  ASN695  SER759  ASP760  ASP761  ALA762  ILE779  LEU786  VAL792 
 PHE793  MET794  SER795  GLU796  ALA797  LYS798  CYS799  TRP800  GLU811  SER814 

> <Gold.Protein.RotatedAtoms>
  150.9051  133.7068  159.2868 H   0  0  0  0  0  0  0  0  0  0  0  0  # atno 6907 bound_to 6896
  151.4573  135.1034  159.9724 H   0  0  0  0  0  0  0  0  0  0  0  0  # atno 6908 bound_to 6896
  152.4899  133.8423  159.7214 H   0  0  0  0  0  0  0  0  0  0  0  0  # atno 6909 bound_to 6896
  145.7183  140.9049  143.0644 H   0  0  0  0  0  0  0  0  0  0  0  0  # atno 7974 bound_to 7965
  154.5418  140.0744  156.8523 H   0  0  0  0  0  0  0  0  0  0  0  0  # atno 8008 bound_to 7997
  155.3165  140.3393  155.4224 H   0  0  0  0  0  0  0  0  0  0  0  0  # atno 8009 bound_to 7997
  156.1882  140.1676  156.8131 H   0  0  0  0  0  0  0  0  0  0  0  0  # atno 8010 bound_to 7997
  139.8633  143.7049  152.2648 H   0  0  0  0  0  0  0  0  0  0  0  0  # atno 10167 bound_to 10162
  156.2833  130.7333  151.1337 H   0  0  0  0  0  0  0  0  0  0  0  0  # atno 10718 bound_to 10713
  153.0303  135.5199  154.7334 H   0  0  0  0  0  0  0  0  0  0  0  0  # atno 10763 bound_to 10752
  154.6355  135.2905  155.0168 H   0  0  0  0  0  0  0  0  0  0  0  0  # atno 10764 bound_to 10752
  154.1105  135.6623  153.4936 H   0  0  0  0  0  0  0  0  0  0  0  0  # atno 10765 bound_to 10752
  141.0521  133.6739  156.3026 H   0  0  0  0  0  0  0  0  0  0  0  0  # atno 11005 bound_to 11000
  144.6923  139.9168  143.7466 LP  0  0  0  0  0  0  0  0  0  0  0  0  # atno 17320 bound_to 7965
  146.0649  139.3640  143.0558 LP  0  0  0  0  0  0  0  0  0  0  0  0  # atno 17321 bound_to 7965
  139.7353  144.7573  151.0738 LP  0  0  0  0  0  0  0  0  0  0  0  0  # atno 17342 bound_to 10162
  140.7772  143.5038  150.9737 LP  0  0  0  0  0  0  0  0  0  0  0  0  # atno 17343 bound_to 10162
  157.7321  131.0602  150.5645 LP  0  0  0  0  0  0  0  0  0  0  0  0  # atno 17370 bound_to 10713
  156.5753  130.4290  149.6001 LP  0  0  0  0  0  0  0  0  0  0  0  0  # atno 17371 bound_to 10713
  140.6034  134.5531  157.5521 LP  0  0  0  0  0  0  0  0  0  0  0  0  # atno 17394 bound_to 11000
  139.9359  134.7876  156.0804 LP  0  0  0  0  0  0  0  0  0  0  0  0  # atno 17395 bound_to 11000

$$$$
