AV-unprocessed.smi:907|AV-procd|sdf|4112|dock9
  -GOLD-   22720 2 13D 1   1.00000     0.00000
 Structure written by MMmdl.
 54 57  0  0  0  0  0  0  0  0  3 V2000
  148.0542  140.3093  156.2060 O   0  0  0  0  0  0  0  0  0  0  0  0
  149.0652  139.6762  155.9003 C   0  0  0  0  0  0  0  0  0  0  0  0
  150.2428  139.8759  156.5146 N   0  0  0  0  0  0  0  0  0  0  0  0
  150.4599  140.8338  157.5903 C   0  0  0  0  0  0  0  0  0  0  0  0
  151.3163  142.0113  157.1048 C   0  0  0  0  0  0  0  0  0  0  0  0
  151.4959  143.0696  158.1766 C   0  0  0  0  0  0  0  0  0  0  0  0
  152.2398  142.8292  159.3524 C   0  0  0  0  0  0  0  0  0  0  0  0
  152.3733  143.8602  160.3060 C   0  0  0  0  0  0  0  0  0  0  0  0
  151.7628  145.1084  160.0636 C   0  0  0  0  0  0  0  0  0  0  0  0
  151.0324  145.2941  158.8722 C   0  0  0  0  0  0  0  0  0  0  0  0
  150.9262  144.2815  157.9835 N   0  3  0  0  0  0  0  0  0  0  0  0
  149.0953  138.7660  154.8947 N   0  0  0  0  0  0  0  0  0  0  0  0
  150.2100  137.8714  154.5616 C   0  0  0  0  0  0  0  0  0  0  0  0
  149.8501  136.4460  155.0151 C   0  0  0  0  0  0  0  0  0  0  0  0
  148.5696  135.9668  154.4129 N   0  3  0  0  0  0  0  0  0  0  0  0
  148.2330  134.5819  154.8676 C   0  0  2  0  0  0  0  0  0  0  0  0
  149.4248  133.6064  154.6755 C   0  0  0  0  0  0  0  0  0  0  0  0
  148.8208  132.4485  153.8644 C   0  0  1  0  0  0  0  0  0  0  0  0
  147.8407  131.6586  154.7474 C   0  0  0  0  0  0  0  0  0  0  0  0
  146.6491  132.6242  154.8661 C   0  0  0  0  0  0  0  0  0  0  0  0
  147.1173  133.8548  154.0634 C   0  0  2  0  0  0  0  0  0  0  0  0
  147.8844  133.1947  152.9235 C   0  0  0  0  0  0  0  0  0  0  0  0
  147.4662  136.9582  154.5827 C   0  0  0  0  0  0  0  0  0  0  0  0
  147.8912  138.3771  154.1597 C   0  0  0  0  0  0  0  0  0  0  0  0
  151.0412  139.3414  156.2040 H   0  0  0  0  0  0  0  0  0  0  0  0
  149.4939  141.1944  157.9473 H   0  0  0  0  0  0  0  0  0  0  0  0
  150.9489  140.3358  158.4293 H   0  0  0  0  0  0  0  0  0  0  0  0
  152.2991  141.6561  156.7911 H   0  0  0  0  0  0  0  0  0  0  0  0
  150.8593  142.4680  156.2257 H   0  0  0  0  0  0  0  0  0  0  0  0
  152.7047  141.8690  159.5231 H   0  0  0  0  0  0  0  0  0  0  0  0
  152.9387  143.6961  161.2118 H   0  0  0  0  0  0  0  0  0  0  0  0
  151.8545  145.9113  160.7807 H   0  0  0  0  0  0  0  0  0  0  0  0
  150.5349  146.2149  158.6044 H   0  0  0  0  0  0  0  0  0  0  0  0
  150.3757  137.8895  153.4833 H   0  0  0  0  0  0  0  0  0  0  0  0
  151.1609  138.1662  155.0053 H   0  0  0  0  0  0  0  0  0  0  0  0
  150.6718  135.7794  154.7563 H   0  0  0  0  0  0  0  0  0  0  0  0
  149.7647  136.4241  156.1029 H   0  0  0  0  0  0  0  0  0  0  0  0
  147.9449  134.6358  155.9190 H   0  0  0  0  0  0  0  0  0  0  0  0
  150.2315  134.0573  154.0958 H   0  0  0  0  0  0  0  0  0  0  0  0
  149.8465  133.2739  155.6248 H   0  0  0  0  0  0  0  0  0  0  0  0
  149.5673  131.8239  153.3725 H   0  0  0  0  0  0  0  0  0  0  0  0
  147.5370  130.7309  154.2607 H   0  0  0  0  0  0  0  0  0  0  0  0
  148.2707  131.4043  155.7172 H   0  0  0  0  0  0  0  0  0  0  0  0
  145.7587  132.1846  154.4145 H   0  0  0  0  0  0  0  0  0  0  0  0
  146.4087  132.8663  155.9022 H   0  0  0  0  0  0  0  0  0  0  0  0
  146.2692  134.4615  153.7549 H   0  0  0  0  0  0  0  0  0  0  0  0
  148.3958  133.9081  152.2749 H   0  0  0  0  0  0  0  0  0  0  0  0
  147.2681  132.5324  152.3123 H   0  0  0  0  0  0  0  0  0  0  0  0
  146.6078  136.6877  153.9716 H   0  0  0  0  0  0  0  0  0  0  0  0
  147.1377  136.9613  155.6231 H   0  0  0  0  0  0  0  0  0  0  0  0
  147.0642  139.0732  154.3080 H   0  0  0  0  0  0  0  0  0  0  0  0
  148.1025  138.3996  153.0894 H   0  0  0  0  0  0  0  0  0  0  0  0
  148.7293  135.9072  153.4172 H   0  0  0  0  0  0  0  0  0  0  0  0
  150.3942  144.4399  157.1274 H   0  0  0  0  0  0  0  0  0  0  0  0
  1  2  2  0  0  0  0
  2  3  1  0  0  0  0
  2 12  1  0  0  0  0
  3  4  1  0  0  0  0
  3 25  1  0  0  0  0
  4  5  1  0  0  0  0
  4 26  1  0  0  0  0
  4 27  1  0  0  0  0
  5  6  1  0  0  0  0
  5 28  1  0  0  0  0
  5 29  1  0  0  0  0
  6 11  1  0  0  0  0
  6  7  2  0  0  0  0
  7  8  1  0  0  0  0
  7 30  1  0  0  0  0
  8  9  2  0  0  0  0
  8 31  1  0  0  0  0
  9 10  1  0  0  0  0
  9 32  1  0  0  0  0
 10 11  2  0  0  0  0
 10 33  1  0  0  0  0
 11 54  1  0  0  0  0
 12 24  1  0  0  0  0
 12 13  1  0  0  0  0
 13 14  1  0  0  0  0
 13 34  1  0  0  0  0
 13 35  1  0  0  0  0
 14 15  1  0  0  0  0
 14 36  1  0  0  0  0
 14 37  1  0  0  0  0
 15 16  1  0  0  0  0
 15 23  1  0  0  0  0
 15 53  1  0  0  0  0
 16 21  1  0  0  0  0
 16 17  1  0  0  0  0
 16 38  1  0  0  0  0
 17 18  1  0  0  0  0
 17 39  1  0  0  0  0
 17 40  1  0  0  0  0
 18 22  1  0  0  0  0
 18 19  1  0  0  0  0
 18 41  1  0  0  0  0
 19 20  1  0  0  0  0
 19 42  1  0  0  0  0
 19 43  1  0  0  0  0
 20 21  1  0  0  0  0
 20 44  1  0  0  0  0
 20 45  1  0  0  0  0
 21 22  1  0  0  0  0
 21 46  1  0  0  0  0
 22 47  1  0  0  0  0
 22 48  1  0  0  0  0
 23 24  1  0  0  0  0
 23 49  1  0  0  0  0
 23 50  1  0  0  0  0
 24 51  1  0  0  0  0
 24 52  1  0  0  0  0
M  CHG  1  11   1
M  CHG  1  15   1
M  END
> <s_m_source_file>
AV-unprocessed.smi

> <i_m_source_file_index>
907

> <i_lp_mmshare_version>
43012

> <i_f3d_flags>
0

> <s_epik_input>
W0NIMl0xW0NIMl1bQ0BASF0oW0NIMl0yKVtDQEBIXShbQ0gyXVtDQEhdMTIpTihbQ0gyXVtDSDJdMylbQ0gyXVtDSDJdTjNDKD1PKVtOSF1bQ0gyXVtDSDJdYzRbY0hdW2NIXVtjSF1bY0hdbjQ=

> <s_epik_cmdline>
J2VwaWtfcHl0aG9uJywgJy1waCcsICc3LjAnLCAnLXRuJywgJzgnLCAnLW1hJywgJzIwMCcsICctbWV0YWxfYmluZGluZycsICctaW1hZScsICc8aW5maWxlLm1hZT4nLCAnLW9tYWUnLCAnPG91dGZpbGUubWFlPic=

> <r_epik_Ionization_Penalty>
1.63018

> <r_epik_Ionization_Penalty_Charging>
1.63015

> <r_epik_Ionization_Penalty_Neutral>
2.64641e-05

> <r_epik_State_Penalty>
1.72761

> <r_epik_Charging_Adjusted_Penalty>
3.35777

> <i_epik_Tot_Q>
2

> <i_epik_Tot_abs_Q>
2

> <r_epik_Metal_State_Penalty>
1.76501

> <b_epik_Metal_Only>
0

> <s_lp_Force_Field>
OPLS_2005

> <r_lp_Energy>
104.955

> <b_lp_Chiralities_Consistent>
1

> <s_lp_Variant>
AV-unprocessed.smi:907-7

> <Gold.Version>
5.8.1

> <Gold.Id.Protein>
6NUR|6NUR_protein|mol2

> <Gold.PLP.Fitness>
52.8401

> <Gold.PLP.PLP>
-41.1379

> <Gold.PLP.part.hbond>
-1.9426

> <Gold.PLP.part.metal>
0.0000

> <Gold.PLP.part.buried>
-5.2275

> <Gold.PLP.part.nonpolar>
-34.5934

> <Gold.PLP.part.repulsive>
0.1030

> <Gold.PLP.ligand.clash>
0.0000

> <Gold.PLP.ligand.torsion>
0.1970

> <Gold.PLP.Chemscore.Hbond>
4.0000

> <Gold.PLP.Chemscore.CHOScore>
0.0000

> <Gold.PLP.Chemscore.Metal>
0.0000

> <Gold.Chemscore.Hbonds>
donor molecule, donor type, donor heavy atom, donor atom, acceptor molecule, acceptor atom, score
      L1  H    11    54       P1  8028  1.69
      L1  H    15    53       P1  7948  2.00

> <Gold.PLP.Chemscore.Internal.Correction>
0.0962

> <Gold.Rescore>
     Score         DG    S(hbond)    S(metal)    S(lipo)     H(rot)  DE(clash)    DE(int)     intcor
     21.31     -21.76       1.88        0.00     117.41       1.46       0.30       0.14       ----

> <Gold.Chemscore.Fitness>
21.3091

> <Gold.Chemscore.DG>
-21.7564

> <Gold.Chemscore.ZeroCoef>
-5.4800

> <Gold.Chemscore.Hbond>
1.8772

> <Gold.Chemscore.Metal>
0.0000

> <Gold.Chemscore.Lipo>
117.4102

> <Gold.Chemscore.Internal_Hbond>
0.0000

> <Gold.Chemscore.DEClash>
0.3022

> <Gold.Chemscore.DEInternal>
0.1450

> <Gold.Chemscore.Rot>
1.4572

> <Gold.Chemscore.Internal.Correction>
   9.000000E+99

> <Gold.Chemscore.Hbonds>
donor molecule, donor type, donor heavy atom, donor atom, acceptor molecule, acceptor atom, score
      L1  H    11    54       P1  8028  0.66
      L1  H    15    53       P1  7948  0.98

> <Gold.Chemscore.Hbond.Weighted>
-6.2699

> <Gold.Chemscore.Metal.Weighted>
-0.0000

> <Gold.Chemscore.Lipo.Weighted>
-13.7370

> <Gold.Chemscore.Internal_Hbond.Weighted>
0.0000

> <Gold.Chemscore.DEClash.Weighted>
0.3022

> <Gold.Chemscore.DEInternal.Weighted>
0.1450

> <Gold.Chemscore.Rot.Weighted>
3.7305

> <Gold.Chemscore.Internal.Correction.Weighted>
   9.000000E+99

> <Gold.Protein.RotatedTorsions>
[ 6907 6896 6895 6894 ] final  -29.47 input  -60.11 | X-H torsion
[ 7974 7965 7964 7962 ] final -176.37 input  175.53 | X-H torsion
[ 8008 7997 7996 7995 ] final  -23.44 input   59.86 | X-H torsion
[ 10167 10162 10161 10158 ] final  -40.05 input  -65.29 | X-H torsion
[ 10718 10713 10712 10709 ] final   53.51 input   66.30 | X-H torsion
[ 10763 10752 10751 10750 ] final  -40.54 input  -60.55 | X-H torsion
[ 11005 11000 10999 10996 ] final  -54.86 input  -57.11 | X-H torsion

> <Gold.Protein.ActiveResidues>
 VAL166  LYS551  ARG553  GLY616  TRP617  ASP618  TYR619  PRO620  LYS621  CYS622 
 ASP623  PHE694  ASN695  SER759  ASP760  ASP761  ALA762  ILE779  LEU786  VAL792 
 PHE793  MET794  SER795  GLU796  ALA797  LYS798  CYS799  TRP800  GLU811  SER814 

> <Gold.Protein.RotatedAtoms>
  151.1187  135.0067  159.8528 H   0  0  0  0  0  0  0  0  0  0  0  0  # atno 6907 bound_to 6896
  152.5447  134.1748  159.8621 H   0  0  0  0  0  0  0  0  0  0  0  0  # atno 6908 bound_to 6896
  151.1805  133.4683  159.2627 H   0  0  0  0  0  0  0  0  0  0  0  0  # atno 6909 bound_to 6896
  144.7127  140.1180  143.6407 H   0  0  0  0  0  0  0  0  0  0  0  0  # atno 7974 bound_to 7965
  154.4585  140.1980  156.0311 H   0  0  0  0  0  0  0  0  0  0  0  0  # atno 8008 bound_to 7997
  156.0793  140.3273  155.7646 H   0  0  0  0  0  0  0  0  0  0  0  0  # atno 8009 bound_to 7997
  155.5137  140.0564  157.2910 H   0  0  0  0  0  0  0  0  0  0  0  0  # atno 8010 bound_to 7997
  140.7046  143.3177  151.2870 H   0  0  0  0  0  0  0  0  0  0  0  0  # atno 10167 bound_to 10162
  157.5173  130.8541  149.8512 H   0  0  0  0  0  0  0  0  0  0  0  0  # atno 10718 bound_to 10713
  153.9477  135.6754  153.4744 H   0  0  0  0  0  0  0  0  0  0  0  0  # atno 10763 bound_to 10752
  153.0900  135.4879  154.8668 H   0  0  0  0  0  0  0  0  0  0  0  0  # atno 10764 bound_to 10752
  154.7342  135.3145  154.8798 H   0  0  0  0  0  0  0  0  0  0  0  0  # atno 10765 bound_to 10752
  141.1046  133.6614  156.4384 H   0  0  0  0  0  0  0  0  0  0  0  0  # atno 11005 bound_to 11000
  145.9396  139.2660  143.1277 LP  0  0  0  0  0  0  0  0  0  0  0  0  # atno 17320 bound_to 7965
  145.9438  140.8960  143.0294 LP  0  0  0  0  0  0  0  0  0  0  0  0  # atno 17321 bound_to 7965
  139.6620  144.0172  152.2699 LP  0  0  0  0  0  0  0  0  0  0  0  0  # atno 17342 bound_to 10162
  139.9742  144.6473  150.7960 LP  0  0  0  0  0  0  0  0  0  0  0  0  # atno 17343 bound_to 10162
  156.0329  130.3759  150.1639 LP  0  0  0  0  0  0  0  0  0  0  0  0  # atno 17370 bound_to 10713
  156.9827  130.9869  151.3433 LP  0  0  0  0  0  0  0  0  0  0  0  0  # atno 17371 bound_to 10713
  140.4935  134.6553  157.5220 LP  0  0  0  0  0  0  0  0  0  0  0  0  # atno 17394 bound_to 11000
  139.9911  134.6984  155.9688 LP  0  0  0  0  0  0  0  0  0  0  0  0  # atno 17395 bound_to 11000

$$$$
