AV-unprocessed.smi:527|AV-procd|sdf|2819|dock9
  -GOLD-   2262023303D 1   1.00000     0.00000
 Structure written by MMmdl.
 42 43  0  0  0  0  0  0  0  0  1 V2000
  143.4905  133.0089  151.2071 C   0  0  0  0  0  0  0  0  0  0  0  0
  144.8841  133.1193  150.5548 C   0  0  2  0  0  0  0  0  0  0  0  0
  145.6342  131.7724  150.5883 C   0  0  0  0  0  0  0  0  0  0  0  0
  146.1289  131.4185  151.9993 C   0  0  0  0  0  0  0  0  0  0  0  0
  147.0054  132.5382  152.5772 C   0  0  0  0  0  0  0  0  0  0  0  0
  146.2820  133.9015  152.5647 C   0  0  1  0  0  0  0  0  0  0  0  0
  147.1857  134.9432  153.0499 N   0  0  0  0  0  0  0  0  0  0  0  0
  147.0044  135.6762  154.1586 C   0  0  0  0  0  0  0  0  0  0  0  0
  146.2558  135.3392  155.0785 O   0  0  0  0  0  0  0  0  0  0  0  0
  147.7402  136.8038  154.1161 N   0  0  0  0  0  0  0  0  0  0  0  0
  147.8055  137.7794  155.0451 C   0  0  0  0  0  0  0  0  0  0  0  0
  147.1850  137.7796  156.1115 O   0  0  0  0  0  0  0  0  0  0  0  0
  148.7360  138.9456  154.6853 C   0  0  0  0  0  0  0  0  0  0  0  0
  150.1446  138.6001  154.7759 N   0  0  0  0  0  0  0  0  0  0  0  0
  151.1813  139.4116  155.2200 C   0  0  0  0  0  0  0  0  0  0  0  0
  152.3328  138.6625  155.1310 C   0  0  0  0  0  0  0  0  0  0  0  0
  152.0308  137.3950  154.6384 N   0  0  0  0  0  0  0  0  0  0  0  0
  150.7173  137.4316  154.4539 C   0  0  0  0  0  0  0  0  0  0  0  0
  145.7732  134.2485  151.1413 C   0  0  2  0  0  0  0  0  0  0  0  0
  145.0932  135.6300  151.0647 C   0  0  0  0  0  0  0  0  0  0  0  0
  143.5502  132.8273  152.2796 H   0  0  0  0  0  0  0  0  0  0  0  0
  142.9205  132.1894  150.7687 H   0  0  0  0  0  0  0  0  0  0  0  0
  142.9054  133.9160  151.0578 H   0  0  0  0  0  0  0  0  0  0  0  0
  144.7099  133.3548  149.5039 H   0  0  0  0  0  0  0  0  0  0  0  0
  144.9971  130.9745  150.2051 H   0  0  0  0  0  0  0  0  0  0  0  0
  146.4906  131.8219  149.9145 H   0  0  0  0  0  0  0  0  0  0  0  0
  145.2802  131.2380  152.6593 H   0  0  0  0  0  0  0  0  0  0  0  0
  146.6943  130.4867  151.9696 H   0  0  0  0  0  0  0  0  0  0  0  0
  147.3016  132.2771  153.5940 H   0  0  0  0  0  0  0  0  0  0  0  0
  147.9270  132.6058  151.9973 H   0  0  0  0  0  0  0  0  0  0  0  0
  145.4217  133.8494  153.2343 H   0  0  0  0  0  0  0  0  0  0  0  0
  148.0044  135.1262  152.4886 H   0  0  0  0  0  0  0  0  0  0  0  0
  148.3072  136.9361  153.2919 H   0  0  0  0  0  0  0  0  0  0  0  0
  148.5236  139.2824  153.6696 H   0  0  0  0  0  0  0  0  0  0  0  0
  148.5393  139.7860  155.3521 H   0  0  0  0  0  0  0  0  0  0  0  0
  151.0181  140.4253  155.5550 H   0  0  0  0  0  0  0  0  0  0  0  0
  153.3472  138.9359  155.3814 H   0  0  0  0  0  0  0  0  0  0  0  0
  150.1584  136.5886  154.0754 H   0  0  0  0  0  0  0  0  0  0  0  0
  146.6522  134.3097  150.4971 H   0  0  0  0  0  0  0  0  0  0  0  0
  144.2689  135.7119  151.7735 H   0  0  0  0  0  0  0  0  0  0  0  0
  144.6970  135.8173  150.0664 H   0  0  0  0  0  0  0  0  0  0  0  0
  145.7949  136.4339  151.2869 H   0  0  0  0  0  0  0  0  0  0  0  0
  1  2  1  0  0  0  0
  1 21  1  0  0  0  0
  1 22  1  0  0  0  0
  1 23  1  0  0  0  0
  2 19  1  0  0  0  0
  2  3  1  0  0  0  0
  2 24  1  0  0  0  0
  3  4  1  0  0  0  0
  3 25  1  0  0  0  0
  3 26  1  0  0  0  0
  4  5  1  0  0  0  0
  4 27  1  0  0  0  0
  4 28  1  0  0  0  0
  5  6  1  0  0  0  0
  5 29  1  0  0  0  0
  5 30  1  0  0  0  0
  6  7  1  0  0  0  0
  6 19  1  0  0  0  0
  6 31  1  0  0  0  0
  7  8  1  0  0  0  0
  7 32  1  0  0  0  0
  8  9  2  0  0  0  0
  8 10  1  0  0  0  0
 10 11  1  0  0  0  0
 10 33  1  0  0  0  0
 11 12  2  0  0  0  0
 11 13  1  0  0  0  0
 13 14  1  0  0  0  0
 13 34  1  0  0  0  0
 13 35  1  0  0  0  0
 14 18  1  0  0  0  0
 14 15  1  0  0  0  0
 15 16  2  0  0  0  0
 15 36  1  0  0  0  0
 16 17  1  0  0  0  0
 16 37  1  0  0  0  0
 17 18  2  0  0  0  0
 18 38  1  0  0  0  0
 19 20  1  0  0  0  0
 19 39  1  0  0  0  0
 20 40  1  0  0  0  0
 20 41  1  0  0  0  0
 20 42  1  0  0  0  0
M  END
> <s_m_source_file>
AV-unprocessed.smi

> <i_m_source_file_index>
527

> <i_lp_mmshare_version>
43012

> <i_f3d_flags>
0

> <s_epik_input>
W0NIM11bQ0BASF0xW0NIMl1bQ0gyXVtDSDJdW0NASF0oW0NASF0xW0NIM10pW05IXUMoPU8pW05IXUMoPU8pW0NIMl1uMltjSF1bY0hdbltjSF0y

> <s_epik_cmdline>
J2VwaWtfcHl0aG9uJywgJy1waCcsICc3LjAnLCAnLXRuJywgJzgnLCAnLW1hJywgJzIwMCcsICctbWV0YWxfYmluZGluZycsICctaW1hZScsICc8aW5maWxlLm1hZT4nLCAnLW9tYWUnLCAnPG91dGZpbGUubWFlPic=

> <r_lp_tautomer_probability>
1

> <r_epik_Ionization_Penalty>
0.172132

> <r_epik_Ionization_Penalty_Charging>
0.172105

> <r_epik_Ionization_Penalty_Neutral>
2.71747e-05

> <r_epik_State_Penalty>
0.161503

> <r_epik_Charging_Adjusted_Penalty>
0.333607

> <i_epik_Tot_Q>
0

> <i_epik_Tot_abs_Q>
0

> <r_epik_Metal_State_Penalty>
0.124763

> <b_epik_Metal_Only>
0

> <s_lp_Force_Field>
OPLS_2005

> <r_lp_Energy>
17.7357

> <b_lp_Chiralities_Consistent>
1

> <s_lp_Variant>
AV-unprocessed.smi:527-5

> <Gold.Version>
5.8.1

> <Gold.Id.Protein>
6NUR|6NUR_protein|mol2

> <Gold.PLP.Fitness>
45.2819

> <Gold.PLP.PLP>
-34.9962

> <Gold.PLP.part.hbond>
-2.7526

> <Gold.PLP.part.metal>
0.0000

> <Gold.PLP.part.buried>
-3.8981

> <Gold.PLP.part.nonpolar>
-29.4459

> <Gold.PLP.part.repulsive>
0.1626

> <Gold.PLP.ligand.clash>
0.0000

> <Gold.PLP.ligand.torsion>
0.5647

> <Gold.PLP.Chemscore.Hbond>
2.8000

> <Gold.PLP.Chemscore.CHOScore>
1.0009

> <Gold.PLP.Chemscore.Metal>
0.0000

> <Gold.Chemscore.Hbonds>
donor molecule, donor type, donor heavy atom, donor atom, acceptor molecule, acceptor atom, score
      L1  H     7    32       P1  7948  0.96
      L1  H    10    33       P1  7948  0.94
      P1  H 10752 10765       L1    17  0.86
      L1  C    18    38       P1  7948  0.96
      L1  C    18    38       P1  7949  0.03

> <Gold.PLP.Chemscore.Internal.Correction>
0.0124

> <Gold.Rescore>
     Score         DG    S(hbond)    S(metal)    S(lipo)     H(rot)  DE(clash)    DE(int)     intcor
     17.01     -18.86       2.71        0.00      73.47       1.66       0.01       1.84       ----

> <Gold.Chemscore.Fitness>
17.0131

> <Gold.Chemscore.DG>
-18.8577

> <Gold.Chemscore.ZeroCoef>
-5.4800

> <Gold.Chemscore.Hbond>
2.7061

> <Gold.Chemscore.Metal>
0.0000

> <Gold.Chemscore.Lipo>
73.4706

> <Gold.Chemscore.Internal_Hbond>
0.0000

> <Gold.Chemscore.DEClash>
0.0060

> <Gold.Chemscore.DEInternal>
1.8386

> <Gold.Chemscore.Rot>
1.6629

> <Gold.Chemscore.Internal.Correction>
   9.000000E+99

> <Gold.Chemscore.Hbonds>
donor molecule, donor type, donor heavy atom, donor atom, acceptor molecule, acceptor atom, score
      L1  H     7    32       P1  7948  0.81
      L1  H    10    33       P1  7948  0.91
      P1  H 10752 10765       L1    17  0.81

> <Gold.Chemscore.Hbond.Weighted>
-9.0385

> <Gold.Chemscore.Metal.Weighted>
-0.0000

> <Gold.Chemscore.Lipo.Weighted>
-8.5961

> <Gold.Chemscore.Internal_Hbond.Weighted>
0.0000

> <Gold.Chemscore.DEClash.Weighted>
0.0060

> <Gold.Chemscore.DEInternal.Weighted>
1.8386

> <Gold.Chemscore.Rot.Weighted>
4.2569

> <Gold.Chemscore.Internal.Correction.Weighted>
   9.000000E+99

> <Gold.Protein.RotatedTorsions>
[ 6907 6896 6895 6894 ] final -157.14 input  -60.11 | X-H torsion
[ 7974 7965 7964 7962 ] final   71.09 input  175.53 | X-H torsion
[ 8008 7997 7996 7995 ] final -167.76 input   59.86 | X-H torsion
[ 10167 10162 10161 10158 ] final  -74.01 input  -65.29 | X-H torsion
[ 10718 10713 10712 10709 ] final   -8.77 input   66.30 | X-H torsion
[ 10763 10752 10751 10750 ] final  163.99 input  -60.55 | X-H torsion
[ 11005 11000 10999 10996 ] final -160.32 input  -57.11 | X-H torsion

> <Gold.Protein.ActiveResidues>
 VAL166  LYS551  ARG553  GLY616  TRP617  ASP618  TYR619  PRO620  LYS621  CYS622 
 ASP623  PHE694  ASN695  SER759  ASP760  ASP761  ALA762  ILE779  LEU786  VAL792 
 PHE793  MET794  SER795  GLU796  ALA797  LYS798  CYS799  TRP800  GLU811  SER814 

> <Gold.Protein.RotatedAtoms>
  151.2984  133.4133  159.2637 H   0  0  0  0  0  0  0  0  0  0  0  0  # atno 6907 bound_to 6896
  151.0217  134.9474  159.8073 H   0  0  0  0  0  0  0  0  0  0  0  0  # atno 6908 bound_to 6896
  152.5325  134.2947  159.9108 H   0  0  0  0  0  0  0  0  0  0  0  0  # atno 6909 bound_to 6896
  145.7701  139.2839  143.1326 H   0  0  0  0  0  0  0  0  0  0  0  0  # atno 7974 bound_to 7965
  155.8822  140.1011  157.1477 H   0  0  0  0  0  0  0  0  0  0  0  0  # atno 8008 bound_to 7997
  154.4006  140.1327  156.4274 H   0  0  0  0  0  0  0  0  0  0  0  0  # atno 8009 bound_to 7997
  155.7630  140.3462  155.5210 H   0  0  0  0  0  0  0  0  0  0  0  0  # atno 8010 bound_to 7997
  140.5063  143.2352  151.7669 H   0  0  0  0  0  0  0  0  0  0  0  0  # atno 10167 bound_to 10162
  156.6978  130.5084  149.5925 H   0  0  0  0  0  0  0  0  0  0  0  0  # atno 10718 bound_to 10713
  154.3022  135.2759  155.2606 H   0  0  0  0  0  0  0  0  0  0  0  0  # atno 10763 bound_to 10752
  154.5038  135.5801  153.6555 H   0  0  0  0  0  0  0  0  0  0  0  0  # atno 10764 bound_to 10752
  152.9899  135.6164  154.3193 H   0  0  0  0  0  0  0  0  0  0  0  0  # atno 10765 bound_to 10752
  140.6328  134.4633  157.5230 H   0  0  0  0  0  0  0  0  0  0  0  0  # atno 11005 bound_to 11000
  146.0179  140.8375  142.9938 LP  0  0  0  0  0  0  0  0  0  0  0  0  # atno 17320 bound_to 7965
  144.6814  140.2585  143.7322 LP  0  0  0  0  0  0  0  0  0  0  0  0  # atno 17321 bound_to 7965
  139.4884  144.4453  151.9717 LP  0  0  0  0  0  0  0  0  0  0  0  0  # atno 17342 bound_to 10162
  140.3544  144.3050  150.5944 LP  0  0  0  0  0  0  0  0  0  0  0  0  # atno 17343 bound_to 10162
  156.1751  130.6462  151.0884 LP  0  0  0  0  0  0  0  0  0  0  0  0  # atno 17370 bound_to 10713
  157.6985  131.0785  150.6896 LP  0  0  0  0  0  0  0  0  0  0  0  0  # atno 17371 bound_to 10713
  139.9109  134.8346  156.1531 LP  0  0  0  0  0  0  0  0  0  0  0  0  # atno 17394 bound_to 11000
  141.0663  133.6817  156.2051 LP  0  0  0  0  0  0  0  0  0  0  0  0  # atno 17395 bound_to 11000

$$$$
