AV-unprocessed.smi:757|AV-procd|sdf|3616|dock10
  -GOLD-   22720 1 13D 1   1.00000     0.00000
 Structure written by MMmdl.
 44 45  0  0  0  0  0  0  0  0  1 V2000
  152.4348  144.5391  158.2571 C   0  0  0  0  0  0  0  0  0  0  0  0
  151.8010  143.6240  157.7552 C   0  0  0  0  0  0  0  0  0  0  0  0
  151.0205  142.5247  157.1600 C   0  0  0  0  0  0  0  0  0  0  0  0
  151.4744  141.1148  157.5954 C   0  0  0  0  0  0  0  0  0  0  0  0
  150.9109  140.0392  156.7755 N   0  0  0  0  0  0  0  0  0  0  0  0
  151.0972  138.7651  157.4740 C   0  0  0  0  0  0  0  0  0  0  0  0
  150.4285  137.6190  156.6953 C   0  0  0  0  0  0  0  0  0  0  0  0
  151.0028  137.5113  155.2733 C   0  0  0  0  0  0  0  0  0  0  0  0
  150.2710  136.5229  154.4867 N   0  0  0  0  0  0  0  0  0  0  0  0
  150.1096  135.2348  154.8206 C   0  0  0  0  0  0  0  0  0  0  0  0
  150.5526  134.7419  155.8577 O   0  0  0  0  0  0  0  0  0  0  0  0
  149.3944  134.5799  153.8901 N   0  0  0  0  0  0  0  0  0  0  0  0
  149.0437  133.2033  153.8442 C   0  0  0  0  0  0  0  0  0  0  0  0
  149.7576  132.1734  154.5026 C   0  0  0  0  0  0  0  0  0  0  0  0
  149.3188  130.8431  154.3606 C   0  0  0  0  0  0  0  0  0  0  0  0
  148.1883  130.5791  153.5621 C   0  0  0  0  0  0  0  0  0  0  0  0
  147.7658  129.2725  153.4277 O   0  0  0  0  0  0  0  0  0  0  0  0
  146.7562  128.9842  152.4668 C   0  0  0  0  0  0  0  0  0  0  0  0
  147.5065  131.5590  152.9192 N   0  0  0  0  0  0  0  0  0  0  0  0
  147.9325  132.8319  153.0594 C   0  0  0  0  0  0  0  0  0  0  0  0
  150.9170  138.8854  154.5938 C   0  0  0  0  0  0  0  0  0  0  0  0
  151.5645  139.9766  155.4639 C   0  0  0  0  0  0  0  0  0  0  0  0
  152.9860  145.3391  158.6982 H   0  0  0  0  0  0  0  0  0  0  0  0
  149.9670  142.6997  157.3736 H   0  0  0  0  0  0  0  0  0  0  0  0
  151.1278  142.6154  156.0790 H   0  0  0  0  0  0  0  0  0  0  0  0
  152.5635  141.0513  157.5863 H   0  0  0  0  0  0  0  0  0  0  0  0
  151.1699  140.9704  158.6334 H   0  0  0  0  0  0  0  0  0  0  0  0
  152.1607  138.5618  157.6104 H   0  0  0  0  0  0  0  0  0  0  0  0
  150.6529  138.8233  158.4685 H   0  0  0  0  0  0  0  0  0  0  0  0
  150.5714  136.6801  157.2314 H   0  0  0  0  0  0  0  0  0  0  0  0
  149.3517  137.7903  156.6529 H   0  0  0  0  0  0  0  0  0  0  0  0
  152.0543  137.2228  155.3332 H   0  0  0  0  0  0  0  0  0  0  0  0
  149.8650  136.8444  153.6203 H   0  0  0  0  0  0  0  0  0  0  0  0
  149.0266  135.1434  153.1375 H   0  0  0  0  0  0  0  0  0  0  0  0
  150.6356  132.3701  155.0975 H   0  0  0  0  0  0  0  0  0  0  0  0
  149.8447  130.0380  154.8522 H   0  0  0  0  0  0  0  0  0  0  0  0
  146.5344  127.9173  152.4863 H   0  0  0  0  0  0  0  0  0  0  0  0
  147.0827  129.2354  151.4567 H   0  0  0  0  0  0  0  0  0  0  0  0
  145.8308  129.5182  152.6877 H   0  0  0  0  0  0  0  0  0  0  0  0
  147.3633  133.5798  152.5266 H   0  0  0  0  0  0  0  0  0  0  0  0
  151.4082  138.8516  153.6208 H   0  0  0  0  0  0  0  0  0  0  0  0
  149.8742  139.1464  154.4054 H   0  0  0  0  0  0  0  0  0  0  0  0
  151.4704  140.9297  154.9457 H   0  0  0  0  0  0  0  0  0  0  0  0
  152.6315  139.7824  155.5836 H   0  0  0  0  0  0  0  0  0  0  0  0
  1  2  3  0  0  0  0
  1 23  1  0  0  0  0
  2  3  1  0  0  0  0
  3  4  1  0  0  0  0
  3 24  1  0  0  0  0
  3 25  1  0  0  0  0
  4  5  1  0  0  0  0
  4 26  1  0  0  0  0
  4 27  1  0  0  0  0
  5 22  1  0  0  0  0
  5  6  1  0  0  0  0
  6  7  1  0  0  0  0
  6 28  1  0  0  0  0
  6 29  1  0  0  0  0
  7  8  1  0  0  0  0
  7 30  1  0  0  0  0
  7 31  1  0  0  0  0
  8  9  1  0  0  0  0
  8 21  1  0  0  0  0
  8 32  1  0  0  0  0
  9 10  1  0  0  0  0
  9 33  1  0  0  0  0
 10 11  2  0  0  0  0
 10 12  1  0  0  0  0
 12 13  1  0  0  0  0
 12 34  1  0  0  0  0
 13 20  1  0  0  0  0
 13 14  2  0  0  0  0
 14 15  1  0  0  0  0
 14 35  1  0  0  0  0
 15 16  2  0  0  0  0
 15 36  1  0  0  0  0
 16 17  1  0  0  0  0
 16 19  1  0  0  0  0
 17 18  1  0  0  0  0
 18 37  1  0  0  0  0
 18 38  1  0  0  0  0
 18 39  1  0  0  0  0
 19 20  2  0  0  0  0
 20 40  1  0  0  0  0
 21 22  1  0  0  0  0
 21 41  1  0  0  0  0
 21 42  1  0  0  0  0
 22 43  1  0  0  0  0
 22 44  1  0  0  0  0
M  END
> <s_m_source_file>
AV-unprocessed.smi

> <i_m_source_file_index>
757

> <i_lp_mmshare_version>
43012

> <i_f3d_flags>
0

> <s_epik_input>
W0NIXSNDW0NIMl1bQ0gyXU4xW0NIMl1bQ0gyXVtDSF0oW0NIMl1bQ0gyXTEpW05IXUMoPU8pW05IXWMyW2NIXVtjSF1jKE9bQ0gzXSluW2NIXTI=

> <s_epik_cmdline>
J2VwaWtfcHl0aG9uJywgJy1waCcsICc3LjAnLCAnLXRuJywgJzgnLCAnLW1hJywgJzIwMCcsICctbWV0YWxfYmluZGluZycsICctaW1hZScsICc8aW5maWxlLm1hZT4nLCAnLW9tYWUnLCAnPG91dGZpbGUubWFlPic=

> <r_lp_tautomer_probability>
1

> <r_epik_Ionization_Penalty>
1.61445

> <r_epik_Ionization_Penalty_Charging>
0

> <r_epik_Ionization_Penalty_Neutral>
1.61445

> <r_epik_State_Penalty>
1.71357

> <r_epik_Charging_Adjusted_Penalty>
1.71357

> <i_epik_Tot_Q>
0

> <i_epik_Tot_abs_Q>
0

> <r_epik_Metal_State_Penalty>
1.71356

> <b_epik_Metal_Only>
0

> <s_lp_Force_Field>
OPLS_2005

> <r_lp_Energy>
17.5598

> <b_lp_Chiralities_Consistent>
1

> <s_lp_Variant>
AV-unprocessed.smi:757-3

> <Gold.Version>
5.8.1

> <Gold.Id.Protein>
6NUR|6NUR_protein|mol2

> <Gold.PLP.Fitness>
45.7083

> <Gold.PLP.PLP>
-40.7717

> <Gold.PLP.part.hbond>
-2.8328

> <Gold.PLP.part.metal>
0.0000

> <Gold.PLP.part.buried>
-2.7233

> <Gold.PLP.part.nonpolar>
-36.2673

> <Gold.PLP.part.repulsive>
0.5894

> <Gold.PLP.ligand.clash>
0.0000

> <Gold.PLP.ligand.torsion>
0.3540

> <Gold.PLP.Chemscore.Hbond>
1.8800

> <Gold.PLP.Chemscore.CHOScore>
0.0000

> <Gold.PLP.Chemscore.Metal>
0.0000

> <Gold.Chemscore.Hbonds>
donor molecule, donor type, donor heavy atom, donor atom, acceptor molecule, acceptor atom, score
      L1  H     9    33       P1  7948  0.87
      L1  H    12    34       P1  7948  0.95

> <Gold.PLP.Chemscore.Internal.Correction>
0.0045

> <Gold.Rescore>
     Score         DG    S(hbond)    S(metal)    S(lipo)     H(rot)  DE(clash)    DE(int)     intcor
     14.71     -17.46       1.37        0.00      97.35       1.55       0.06       2.69       ----

> <Gold.Chemscore.Fitness>
14.7106

> <Gold.Chemscore.DG>
-17.4626

> <Gold.Chemscore.ZeroCoef>
-5.4800

> <Gold.Chemscore.Hbond>
1.3670

> <Gold.Chemscore.Metal>
0.0000

> <Gold.Chemscore.Lipo>
97.3455

> <Gold.Chemscore.Internal_Hbond>
0.0000

> <Gold.Chemscore.DEClash>
0.0597

> <Gold.Chemscore.DEInternal>
2.6923

> <Gold.Chemscore.Rot>
1.5517

> <Gold.Chemscore.Internal.Correction>
   9.000000E+99

> <Gold.Chemscore.Hbonds>
donor molecule, donor type, donor heavy atom, donor atom, acceptor molecule, acceptor atom, score
      L1  H     9    33       P1  7948  0.36
      L1  H    12    34       P1  7948  0.21

> <Gold.Chemscore.Hbond.Weighted>
-4.5656

> <Gold.Chemscore.Metal.Weighted>
-0.0000

> <Gold.Chemscore.Lipo.Weighted>
-11.3894

> <Gold.Chemscore.Internal_Hbond.Weighted>
0.0000

> <Gold.Chemscore.DEClash.Weighted>
0.0597

> <Gold.Chemscore.DEInternal.Weighted>
2.6923

> <Gold.Chemscore.Rot.Weighted>
3.9725

> <Gold.Chemscore.Internal.Correction.Weighted>
   9.000000E+99

> <Gold.Protein.RotatedTorsions>
[ 6907 6896 6895 6894 ] final   57.58 input  -60.11 | X-H torsion
[ 7974 7965 7964 7962 ] final  162.80 input  175.53 | X-H torsion
[ 8008 7997 7996 7995 ] final  113.89 input   59.86 | X-H torsion
[ 10167 10162 10161 10158 ] final -173.28 input  -65.29 | X-H torsion
[ 10718 10713 10712 10709 ] final   26.90 input   66.30 | X-H torsion
[ 10763 10752 10751 10750 ] final  133.40 input  -60.55 | X-H torsion
[ 11005 11000 10999 10996 ] final -128.66 input  -57.11 | X-H torsion

> <Gold.Protein.ActiveResidues>
 VAL166  LYS551  ARG553  GLY616  TRP617  ASP618  TYR619  PRO620  LYS621  CYS622 
 ASP623  PHE694  ASN695  SER759  ASP760  ASP761  ALA762  ILE779  LEU786  VAL792 
 PHE793  MET794  SER795  GLU796  ALA797  LYS798  CYS799  TRP800  GLU811  SER814 

> <Gold.Protein.RotatedAtoms>
  152.3744  134.6685  160.0164 H   0  0  0  0  0  0  0  0  0  0  0  0  # atno 6907 bound_to 6896
  151.6968  133.3305  159.3264 H   0  0  0  0  0  0  0  0  0  0  0  0  # atno 6908 bound_to 6896
  150.7698  134.6586  159.6372 H   0  0  0  0  0  0  0  0  0  0  0  0  # atno 6909 bound_to 6896
  144.7620  139.8091  143.6329 H   0  0  0  0  0  0  0  0  0  0  0  0  # atno 7974 bound_to 7965
  156.2287  140.2970  156.0132 H   0  0  0  0  0  0  0  0  0  0  0  0  # atno 8008 bound_to 7997
  155.2286  140.0418  157.2976 H   0  0  0  0  0  0  0  0  0  0  0  0  # atno 8009 bound_to 7997
  154.5958  140.2414  155.7866 H   0  0  0  0  0  0  0  0  0  0  0  0  # atno 8010 bound_to 7997
  139.5697  144.1670  152.1366 H   0  0  0  0  0  0  0  0  0  0  0  0  # atno 10167 bound_to 10162
  157.2130  130.6943  149.6236 H   0  0  0  0  0  0  0  0  0  0  0  0  # atno 10718 bound_to 10713
  153.8065  135.3135  155.3396 H   0  0  0  0  0  0  0  0  0  0  0  0  # atno 10763 bound_to 10752
  154.8068  135.4692  154.0416 H   0  0  0  0  0  0  0  0  0  0  0  0  # atno 10764 bound_to 10752
  153.1781  135.6889  153.8604 H   0  0  0  0  0  0  0  0  0  0  0  0  # atno 10765 bound_to 10752
  140.9497  134.1081  157.4073 H   0  0  0  0  0  0  0  0  0  0  0  0  # atno 11005 bound_to 11000
  146.1691  139.4835  142.9939 LP  0  0  0  0  0  0  0  0  0  0  0  0  # atno 17320 bound_to 7965
  145.6590  141.0245  143.1719 LP  0  0  0  0  0  0  0  0  0  0  0  0  # atno 17321 bound_to 7965
  140.1201  144.5381  150.6868 LP  0  0  0  0  0  0  0  0  0  0  0  0  # atno 17342 bound_to 10162
  140.6981  143.2417  151.4942 LP  0  0  0  0  0  0  0  0  0  0  0  0  # atno 17343 bound_to 10162
  155.9689  130.4545  150.5852 LP  0  0  0  0  0  0  0  0  0  0  0  0  # atno 17370 bound_to 10713
  157.3653  131.0756  151.1603 LP  0  0  0  0  0  0  0  0  0  0  0  0  # atno 17371 bound_to 10713
  139.8844  135.0062  156.6365 LP  0  0  0  0  0  0  0  0  0  0  0  0  # atno 17394 bound_to 11000
  140.7619  133.8810  155.8425 LP  0  0  0  0  0  0  0  0  0  0  0  0  # atno 17395 bound_to 11000

$$$$
