AV-unprocessed.smi:421|AV-procd|sdf|2535|dock4
  -GOLD-   2262022493D 1   1.00000     0.00000
 Structure written by MMmdl.
 43 45  0  0  0  0  0  0  0  0  1 V2000
  154.1368  139.5506  160.8706 C   0  0  0  0  0  0  0  0  0  0  0  0
  153.3916  140.5800  160.1560 N   0  0  0  0  0  0  0  0  0  0  0  0
  152.9703  140.5336  158.8708 C   0  0  0  0  0  0  0  0  0  0  0  0
  153.1436  139.6026  158.0843 O   0  0  0  0  0  0  0  0  0  0  0  0
  152.3189  141.6895  158.6005 N   0  0  0  0  0  0  0  0  0  0  0  0
  151.6824  142.0532  157.3357 C   0  0  0  0  0  0  0  0  0  0  0  0
  150.2940  141.3982  157.1888 C   0  0  1  0  0  0  0  0  0  0  0  0
  149.2852  142.3868  157.1479 O   0  0  0  0  0  0  0  0  0  0  0  0
  150.1599  140.5401  155.9201 C   0  0  0  0  0  0  0  0  0  0  0  0
  149.8410  141.3599  154.8063 O   0  0  0  0  0  0  0  0  0  0  0  0
  148.7498  140.8606  154.0525 C   0  0  0  0  0  0  0  0  0  0  0  0
  147.4643  141.5821  154.4019 C   0  0  0  0  0  0  0  0  0  0  0  0
  146.8685  142.4640  153.4757 C   0  0  0  0  0  0  0  0  0  0  0  0
  145.6726  143.1318  153.8041 C   0  0  0  0  0  0  0  0  0  0  0  0
  145.0684  142.9196  155.0585 C   0  0  0  0  0  0  0  0  0  0  0  0
  145.6596  142.0381  155.9842 C   0  0  0  0  0  0  0  0  0  0  0  0
  146.8556  141.3699  155.6564 C   0  0  0  0  0  0  0  0  0  0  0  0
  152.3213  142.4969  159.7477 C   0  0  0  0  0  0  0  0  0  0  0  0
  151.7769  143.7710  159.9869 C   0  0  0  0  0  0  0  0  0  0  0  0
  151.9548  144.3179  161.2795 C   0  0  0  0  0  0  0  0  0  0  0  0
  152.6554  143.5998  162.2832 C   0  0  0  0  0  0  0  0  0  0  0  0
  153.1918  142.3184  162.0163 C   0  0  0  0  0  0  0  0  0  0  0  0
  152.9992  141.7984  160.7248 C   0  0  0  0  0  0  0  0  0  0  0  0
  154.0963  138.5894  160.3564 H   0  0  0  0  0  0  0  0  0  0  0  0
  153.7289  139.4084  161.8718 H   0  0  0  0  0  0  0  0  0  0  0  0
  155.1827  139.8427  160.9650 H   0  0  0  0  0  0  0  0  0  0  0  0
  151.6217  143.1365  157.2267 H   0  0  0  0  0  0  0  0  0  0  0  0
  152.3305  141.7134  156.5260 H   0  0  0  0  0  0  0  0  0  0  0  0
  150.0896  140.7573  158.0475 H   0  0  0  0  0  0  0  0  0  0  0  0
  149.5190  143.0229  156.4891 H   0  0  0  0  0  0  0  0  0  0  0  0
  151.1095  140.0385  155.7271 H   0  0  0  0  0  0  0  0  0  0  0  0
  149.4089  139.7604  156.0591 H   0  0  0  0  0  0  0  0  0  0  0  0
  148.9448  140.9829  152.9857 H   0  0  0  0  0  0  0  0  0  0  0  0
  148.6273  139.7917  154.2351 H   0  0  0  0  0  0  0  0  0  0  0  0
  147.3256  142.6300  152.5111 H   0  0  0  0  0  0  0  0  0  0  0  0
  145.2186  143.8068  153.0935 H   0  0  0  0  0  0  0  0  0  0  0  0
  144.1515  143.4321  155.3101 H   0  0  0  0  0  0  0  0  0  0  0  0
  145.1962  141.8746  156.9459 H   0  0  0  0  0  0  0  0  0  0  0  0
  147.3047  140.6936  156.3690 H   0  0  0  0  0  0  0  0  0  0  0  0
  151.2426  144.3134  159.2211 H   0  0  0  0  0  0  0  0  0  0  0  0
  151.5520  145.2943  161.5051 H   0  0  0  0  0  0  0  0  0  0  0  0
  152.7795  144.0362  163.2633 H   0  0  0  0  0  0  0  0  0  0  0  0
  153.7247  141.7652  162.7754 H   0  0  0  0  0  0  0  0  0  0  0  0
  1  2  1  0  0  0  0
  1 24  1  0  0  0  0
  1 25  1  0  0  0  0
  1 26  1  0  0  0  0
  2 23  1  0  0  0  0
  2  3  1  0  0  0  0
  3  4  2  0  0  0  0
  3  5  1  0  0  0  0
  5  6  1  0  0  0  0
  5 18  1  0  0  0  0
  6  7  1  0  0  0  0
  6 27  1  0  0  0  0
  6 28  1  0  0  0  0
  7  8  1  0  0  0  0
  7  9  1  0  0  0  0
  7 29  1  0  0  0  0
  8 30  1  0  0  0  0
  9 10  1  0  0  0  0
  9 31  1  0  0  0  0
  9 32  1  0  0  0  0
 10 11  1  0  0  0  0
 11 12  1  0  0  0  0
 11 33  1  0  0  0  0
 11 34  1  0  0  0  0
 12 17  1  0  0  0  0
 12 13  2  0  0  0  0
 13 14  1  0  0  0  0
 13 35  1  0  0  0  0
 14 15  2  0  0  0  0
 14 36  1  0  0  0  0
 15 16  1  0  0  0  0
 15 37  1  0  0  0  0
 16 17  2  0  0  0  0
 16 38  1  0  0  0  0
 17 39  1  0  0  0  0
 18 23  2  0  0  0  0
 18 19  1  0  0  0  0
 19 20  2  0  0  0  0
 19 40  1  0  0  0  0
 20 21  1  0  0  0  0
 20 41  1  0  0  0  0
 21 22  2  0  0  0  0
 21 42  1  0  0  0  0
 22 23  1  0  0  0  0
 22 43  1  0  0  0  0
M  END
> <s_m_source_file>
AV-unprocessed.smi

> <i_m_source_file_index>
421

> <i_lp_mmshare_version>
43012

> <i_f3d_flags>
0

> <s_epik_input>
W2NIXTFbY0hdW2NIXVtjSF1jKGMxMiluKFtDSDNdKWMoPU8pbjJbQ0gyXVtDQEhdKFtPSF0pW0NIMl1PW0NIMl1jM1tjSF1bY0hdW2NIXVtjSF1bY0hdMw==

> <s_epik_cmdline>
J2VwaWtfcHl0aG9uJywgJy1waCcsICc3LjAnLCAnLXRuJywgJzgnLCAnLW1hJywgJzIwMCcsICctbWV0YWxfYmluZGluZycsICctaW1hZScsICc8aW5maWxlLm1hZT4nLCAnLW9tYWUnLCAnPG91dGZpbGUubWFlPic=

> <r_lp_tautomer_probability>
1

> <r_epik_Ionization_Penalty>
1.0795e-06

> <r_epik_Ionization_Penalty_Charging>
2.82452e-09

> <r_epik_Ionization_Penalty_Neutral>
1.07667e-06

> <r_epik_State_Penalty>
-0

> <r_epik_Charging_Adjusted_Penalty>
2.82452e-09

> <i_epik_Tot_Q>
0

> <i_epik_Tot_abs_Q>
0

> <r_epik_Metal_State_Penalty>
-0

> <b_epik_Metal_Only>
0

> <s_lp_Force_Field>
OPLS_2005

> <r_lp_Energy>
47.6123

> <b_lp_Chiralities_Consistent>
1

> <s_lp_Variant>
AV-unprocessed.smi:421-2

> <Gold.Version>
5.8.1

> <Gold.Id.Protein>
6NUR|6NUR_protein|mol2

> <Gold.PLP.Fitness>
56.5421

> <Gold.PLP.PLP>
-54.3459

> <Gold.PLP.part.hbond>
-2.5285

> <Gold.PLP.part.metal>
0.0000

> <Gold.PLP.part.buried>
-8.4851

> <Gold.PLP.part.nonpolar>
-43.4804

> <Gold.PLP.part.repulsive>
0.1615

> <Gold.PLP.ligand.clash>
0.0000

> <Gold.PLP.ligand.torsion>
1.9836

> <Gold.PLP.Chemscore.Hbond>
2.0000

> <Gold.PLP.Chemscore.CHOScore>
0.0000

> <Gold.PLP.Chemscore.Metal>
0.0000

> <Gold.Chemscore.Hbonds>
donor molecule, donor type, donor heavy atom, donor atom, acceptor molecule, acceptor atom, score
      L1  H     8    30       P1  8028  0.83
      P1  H  7989  7998       L1    10  0.22
      P1  H  7997  8008       L1     4  1.00

> <Gold.PLP.Chemscore.Internal.Correction>
0.1634

> <Gold.Rescore>
     Score         DG    S(hbond)    S(metal)    S(lipo)     H(rot)  DE(clash)    DE(int)     intcor
     18.93     -21.43       1.87        0.00     131.34       2.21       0.40       2.10       ----

> <Gold.Chemscore.Fitness>
18.9276

> <Gold.Chemscore.DG>
-21.4271

> <Gold.Chemscore.ZeroCoef>
-5.4800

> <Gold.Chemscore.Hbond>
1.8690

> <Gold.Chemscore.Metal>
0.0000

> <Gold.Chemscore.Lipo>
131.3414

> <Gold.Chemscore.Internal_Hbond>
0.0000

> <Gold.Chemscore.DEClash>
0.4008

> <Gold.Chemscore.DEInternal>
2.0987

> <Gold.Chemscore.Rot>
2.2119

> <Gold.Chemscore.Internal.Correction>
   9.000000E+99

> <Gold.Chemscore.Hbonds>
donor molecule, donor type, donor heavy atom, donor atom, acceptor molecule, acceptor atom, score
      L1  H     8    30       P1  8028  0.79
      P1  H  7989  7998       L1    10  0.02
      P1  H  7997  8008       L1     4  0.55

> <Gold.Chemscore.Hbond.Weighted>
-6.2425

> <Gold.Chemscore.Metal.Weighted>
-0.0000

> <Gold.Chemscore.Lipo.Weighted>
-15.3669

> <Gold.Chemscore.Internal_Hbond.Weighted>
0.0000

> <Gold.Chemscore.DEClash.Weighted>
0.4008

> <Gold.Chemscore.DEInternal.Weighted>
2.0987

> <Gold.Chemscore.Rot.Weighted>
5.6623

> <Gold.Chemscore.Internal.Correction.Weighted>
   9.000000E+99

> <Gold.Protein.RotatedTorsions>
[ 6907 6896 6895 6894 ] final -104.05 input  -60.11 | X-H torsion
[ 7974 7965 7964 7962 ] final -120.61 input  175.53 | X-H torsion
[ 8008 7997 7996 7995 ] final  -91.46 input   59.86 | X-H torsion
[ 10167 10162 10161 10158 ] final   81.33 input  -65.29 | X-H torsion
[ 10718 10713 10712 10709 ] final  100.26 input   66.30 | X-H torsion
[ 10763 10752 10751 10750 ] final  -88.87 input  -60.55 | X-H torsion
[ 11005 11000 10999 10996 ] final -111.34 input  -57.11 | X-H torsion

> <Gold.Protein.ActiveResidues>
 VAL166  LYS551  ARG553  GLY616  TRP617  ASP618  TYR619  PRO620  LYS621  CYS622 
 ASP623  PHE694  ASN695  SER759  ASP760  ASP761  ALA762  ILE779  LEU786  VAL792 
 PHE793  MET794  SER795  GLU796  ALA797  LYS798  CYS799  TRP800  GLU811  SER814 

> <Gold.Protein.RotatedAtoms>
  150.7269  134.0336  159.3741 H   0  0  0  0  0  0  0  0  0  0  0  0  # atno 6907 bound_to 6896
  151.8306  135.0620  160.0445 H   0  0  0  0  0  0  0  0  0  0  0  0  # atno 6908 bound_to 6896
  152.2936  133.5550  159.5610 H   0  0  0  0  0  0  0  0  0  0  0  0  # atno 6909 bound_to 6896
  145.0495  140.8207  143.4218 H   0  0  0  0  0  0  0  0  0  0  0  0  # atno 7974 bound_to 7965
  154.7110  140.0519  157.0549 H   0  0  0  0  0  0  0  0  0  0  0  0  # atno 8008 bound_to 7997
  155.0555  140.3184  155.4658 H   0  0  0  0  0  0  0  0  0  0  0  0  # atno 8009 bound_to 7997
  156.2789  140.2108  156.5682 H   0  0  0  0  0  0  0  0  0  0  0  0  # atno 8010 bound_to 7997
  139.9404  144.6094  150.8258 H   0  0  0  0  0  0  0  0  0  0  0  0  # atno 10167 bound_to 10162
  157.6858  131.0693  150.5073 H   0  0  0  0  0  0  0  0  0  0  0  0  # atno 10718 bound_to 10713
  154.6492  135.5361  153.7881 H   0  0  0  0  0  0  0  0  0  0  0  0  # atno 10763 bound_to 10752
  153.0376  135.6478  154.1042 H   0  0  0  0  0  0  0  0  0  0  0  0  # atno 10764 bound_to 10752
  154.0961  135.2936  155.3241 H   0  0  0  0  0  0  0  0  0  0  0  0  # atno 10765 bound_to 10752
  141.0740  133.9333  157.2428 H   0  0  0  0  0  0  0  0  0  0  0  0  # atno 11005 bound_to 11000
  145.1545  139.2494  143.5423 LP  0  0  0  0  0  0  0  0  0  0  0  0  # atno 17320 bound_to 7965
  146.3517  140.1256  142.8599 LP  0  0  0  0  0  0  0  0  0  0  0  0  # atno 17321 bound_to 7965
  140.7612  143.3170  151.2710 LP  0  0  0  0  0  0  0  0  0  0  0  0  # atno 17342 bound_to 10162
  139.6709  144.0021  152.2752 LP  0  0  0  0  0  0  0  0  0  0  0  0  # atno 17343 bound_to 10162
  156.5392  130.4204  149.6162 LP  0  0  0  0  0  0  0  0  0  0  0  0  # atno 17370 bound_to 10713
  156.3001  130.7172  151.2041 LP  0  0  0  0  0  0  0  0  0  0  0  0  # atno 17371 bound_to 10713
  139.9552  135.0167  156.9108 LP  0  0  0  0  0  0  0  0  0  0  0  0  # atno 17394 bound_to 11000
  140.5614  134.0531  155.7400 LP  0  0  0  0  0  0  0  0  0  0  0  0  # atno 17395 bound_to 11000

$$$$
