AV-unprocessed.smi:109|AV-procd|sdf|1058|dock6
  -GOLD-   2262018133D 1   1.00000     0.00000
 Structure written by MMmdl.
 58 61  0  0  0  0  0  0  0  0  1 V2000
  149.3926  141.2556  153.2692 O   0  0  0  0  0  0  0  0  0  0  0  0
  149.7381  140.5998  154.4702 C   0  0  0  0  0  0  0  0  0  0  0  0
  150.2387  141.6253  155.4999 C   0  0  0  0  0  0  0  0  0  0  0  0
  150.3414  141.0451  156.9281 C   0  0  1  0  0  0  0  0  0  0  0  0
  151.1894  139.8532  156.9176 N   0  0  0  0  0  0  0  0  0  0  0  0
  150.7617  138.6719  157.4162 C   0  0  0  0  0  0  0  0  0  0  0  0
  150.2608  138.5733  158.6757 N   0  0  0  0  0  0  0  0  0  0  0  0
  149.8398  137.3922  159.1387 C   0  0  0  0  0  0  0  0  0  0  0  0
  149.8284  136.2090  158.5201 N   0  0  0  0  0  0  0  0  0  0  0  0
  150.3303  136.3050  157.2549 C   0  0  0  0  0  0  0  0  0  0  0  0
  150.8142  137.4893  156.6346 C   0  0  0  0  0  0  0  0  0  0  0  0
  151.2411  137.2023  155.3445 N   0  0  0  0  0  0  0  0  0  0  0  0
  151.0160  135.9220  155.2140 C   0  0  0  0  0  0  0  0  0  0  0  0
  150.4773  135.3018  156.3227 N   0  0  0  0  0  0  0  0  0  0  0  0
  150.0887  133.8698  156.5224 C   0  0  1  0  0  0  0  0  0  0  0  0
  149.2209  133.5092  155.4867 O   0  0  0  0  0  0  0  0  0  0  0  0
  149.9538  132.7912  154.5045 C   0  0  2  0  0  0  0  0  0  0  0  0
  149.0563  132.1140  153.4469 C   0  0  0  0  0  0  0  0  0  0  0  0
  148.3567  133.0259  152.6264 O   0  0  0  0  0  0  0  0  0  0  0  0
  150.9596  131.9677  155.3197 C   0  0  2  0  0  0  0  0  0  0  0  0
  150.3755  130.7914  155.8521 O   0  0  0  0  0  0  0  0  0  0  0  0
  151.3403  132.9697  156.4128 C   0  0  2  0  0  0  0  0  0  0  0  0
  151.6911  132.3489  157.6354 O   0  0  0  0  0  0  0  0  0  0  0  0
  150.8318  142.0655  157.9928 C   0  0  0  0  0  0  0  0  0  0  0  0
  151.4926  143.3123  157.3648 C   0  0  0  0  0  0  0  0  0  0  0  0
  151.8759  144.3458  158.4368 C   0  0  0  0  0  0  0  0  0  0  0  0
  152.7921  143.7271  159.5040 C   0  0  0  0  0  0  0  0  0  0  0  0
  152.1456  142.4846  160.1359 C   0  0  0  0  0  0  0  0  0  0  0  0
  151.7606  141.4507  159.0649 C   0  0  0  0  0  0  0  0  0  0  0  0
  149.5842  133.8445  157.4892 H   0  0  0  0  0  0  0  0  0  0  0  0
  150.5331  133.5404  153.9612 H   0  0  0  0  0  0  0  0  0  0  0  0
  151.8217  131.6776  154.7181 H   0  0  0  0  0  0  0  0  0  0  0  0
  152.1861  133.5674  156.0685 H   0  0  0  0  0  0  0  0  0  0  0  0
  149.0694  140.6115  152.6579 H   0  0  0  0  0  0  0  0  0  0  0  0
  148.8642  140.0696  154.8492 H   0  0  0  0  0  0  0  0  0  0  0  0
  150.5040  139.8544  154.2541 H   0  0  0  0  0  0  0  0  0  0  0  0
  151.2067  142.0149  155.1824 H   0  0  0  0  0  0  0  0  0  0  0  0
  149.5528  142.4713  155.4911 H   0  0  0  0  0  0  0  0  0  0  0  0
  149.3320  140.7412  157.2082 H   0  0  0  0  0  0  0  0  0  0  0  0
  152.1016  139.9710  156.5007 H   0  0  0  0  0  0  0  0  0  0  0  0
  149.4568  137.3964  160.1485 H   0  0  0  0  0  0  0  0  0  0  0  0
  151.2402  135.3984  154.2964 H   0  0  0  0  0  0  0  0  0  0  0  0
  149.6573  131.4619  152.8128 H   0  0  0  0  0  0  0  0  0  0  0  0
  148.3213  131.4798  153.9432 H   0  0  0  0  0  0  0  0  0  0  0  0
  148.9762  133.4542  152.0554 H   0  0  0  0  0  0  0  0  0  0  0  0
  151.0658  130.1756  156.0465 H   0  0  0  0  0  0  0  0  0  0  0  0
  151.8068  131.4242  157.4780 H   0  0  0  0  0  0  0  0  0  0  0  0
  149.9462  142.4306  158.5150 H   0  0  0  0  0  0  0  0  0  0  0  0
  152.3881  143.0335  156.8102 H   0  0  0  0  0  0  0  0  0  0  0  0
  150.8137  143.7711  156.6453 H   0  0  0  0  0  0  0  0  0  0  0  0
  152.3712  145.1982  157.9708 H   0  0  0  0  0  0  0  0  0  0  0  0
  150.9733  144.7339  158.9104 H   0  0  0  0  0  0  0  0  0  0  0  0
  153.7467  143.4534  159.0526 H   0  0  0  0  0  0  0  0  0  0  0  0
  153.0153  144.4642  160.2759 H   0  0  0  0  0  0  0  0  0  0  0  0
  152.8301  142.0353  160.8559 H   0  0  0  0  0  0  0  0  0  0  0  0
  151.2576  142.7793  160.6964 H   0  0  0  0  0  0  0  0  0  0  0  0
  151.2754  140.5994  159.5431 H   0  0  0  0  0  0  0  0  0  0  0  0
  152.6705  141.0690  158.6014 H   0  0  0  0  0  0  0  0  0  0  0  0
  1  2  1  0  0  0  0
  1 34  1  0  0  0  0
  2  3  1  0  0  0  0
  2 35  1  0  0  0  0
  2 36  1  0  0  0  0
  3  4  1  0  0  0  0
  3 37  1  0  0  0  0
  3 38  1  0  0  0  0
  4  5  1  0  0  0  0
  4 24  1  0  0  0  0
  4 39  1  0  0  0  0
  5  6  1  0  0  0  0
  5 40  1  0  0  0  0
  6 11  1  0  0  0  0
  6  7  2  0  0  0  0
  7  8  1  0  0  0  0
  8  9  2  0  0  0  0
  8 41  1  0  0  0  0
  9 10  1  0  0  0  0
 10 14  1  0  0  0  0
 10 11  2  0  0  0  0
 11 12  1  0  0  0  0
 12 13  2  0  0  0  0
 13 14  1  0  0  0  0
 13 42  1  0  0  0  0
 14 15  1  0  0  0  0
 15 30  1  0  0  0  0
 15 22  1  0  0  0  0
 15 16  1  0  0  0  0
 16 17  1  0  0  0  0
 17 31  1  0  0  0  0
 17 18  1  0  0  0  0
 17 20  1  0  0  0  0
 18 19  1  0  0  0  0
 18 43  1  0  0  0  0
 18 44  1  0  0  0  0
 19 45  1  0  0  0  0
 20 32  1  0  0  0  0
 20 21  1  0  0  0  0
 20 22  1  0  0  0  0
 21 46  1  0  0  0  0
 22 33  1  0  0  0  0
 22 23  1  0  0  0  0
 23 47  1  0  0  0  0
 24 29  1  0  0  0  0
 24 25  1  0  0  0  0
 24 48  1  0  0  0  0
 25 26  1  0  0  0  0
 25 49  1  0  0  0  0
 25 50  1  0  0  0  0
 26 27  1  0  0  0  0
 26 51  1  0  0  0  0
 26 52  1  0  0  0  0
 27 28  1  0  0  0  0
 27 53  1  0  0  0  0
 27 54  1  0  0  0  0
 28 29  1  0  0  0  0
 28 55  1  0  0  0  0
 28 56  1  0  0  0  0
 29 57  1  0  0  0  0
 29 58  1  0  0  0  0
M  END
> <s_m_source_file>
AV-unprocessed.smi

> <i_m_source_file_index>
109

> <i_lp_mmshare_version>
43012

> <i_f3d_flags>
0

> <s_epik_input>
W0NIMl0xW0NIMl1bQ0gyXVtDSDJdW0NIMl1bQ0hdMVtDQEhdKFtDSDJdW0NIMl1bT0hdKVtOSF1jKG5bY0hdbjIpYyhjMjMpbltjSF1uM1tDQEBIXTRPW0NASF0oW0NIMl1bT0hdKVtDQEBIXShbT0hdKVtDQEhdNFtPSF0=

> <s_epik_cmdline>
J2VwaWtfcHl0aG9uJywgJy1waCcsICc3LjAnLCAnLXRuJywgJzgnLCAnLW1hJywgJzIwMCcsICctbWV0YWxfYmluZGluZycsICctaW1hZScsICc8aW5maWxlLm1hZT4nLCAnLW9tYWUnLCAnPG91dGZpbGUubWFlPic=

> <r_lp_tautomer_probability>
1

> <r_epik_Ionization_Penalty>
0.000793976

> <r_epik_Ionization_Penalty_Charging>
0

> <r_epik_Ionization_Penalty_Neutral>
0.000793976

> <r_epik_State_Penalty>
-0

> <r_epik_Charging_Adjusted_Penalty>
0

> <i_epik_Tot_Q>
0

> <i_epik_Tot_abs_Q>
0

> <r_epik_Metal_State_Penalty>
-0

> <b_epik_Metal_Only>
0

> <s_epik_Chemistry_Notes>
This compound contains an acetal/aminal-like group ( X-CH(R)-Y where X, Y are N, S, or O) that may be acid/base labile, releasing an aldehyde.

> <s_lp_Force_Field>
OPLS_2005

> <r_lp_Energy>
57.9674

> <b_lp_Chiralities_Consistent>
1

> <s_lp_Variant>
AV-unprocessed.smi:109-28

> <Gold.Version>
5.8.1

> <Gold.Id.Protein>
6NUR|6NUR_protein|mol2

> <Gold.PLP.Fitness>
56.3478

> <Gold.PLP.PLP>
-49.0099

> <Gold.PLP.part.hbond>
-5.0656

> <Gold.PLP.part.metal>
0.0000

> <Gold.PLP.part.buried>
-6.6376

> <Gold.PLP.part.nonpolar>
-36.3781

> <Gold.PLP.part.repulsive>
0.1902

> <Gold.PLP.ligand.clash>
0.4863

> <Gold.PLP.ligand.torsion>
1.8906

> <Gold.PLP.Chemscore.Hbond>
3.4880

> <Gold.PLP.Chemscore.CHOScore>
0.3092

> <Gold.PLP.Chemscore.Metal>
0.0000

> <Gold.Chemscore.Hbonds>
donor molecule, donor type, donor heavy atom, donor atom, acceptor molecule, acceptor atom, score
      L1  H     1    34       P1  7957  0.67
      P1  H  6896  6907       L1    23  1.00
      P1  H  6896  6908       L1     9  0.96
      P1  H  8011  8017       L1     1  1.00
      L1  C    13    42       P1  7949  0.20

> <Gold.PLP.Chemscore.Internal.Correction>
0.2136

> <Gold.Rescore>
     Score         DG    S(hbond)    S(metal)    S(lipo)     H(rot)  DE(clash)    DE(int)     intcor
     12.03     -14.06       2.90        0.00     110.25       5.47       0.11       1.92       ----

> <Gold.Chemscore.Fitness>
12.0272

> <Gold.Chemscore.DG>
-14.0571

> <Gold.Chemscore.ZeroCoef>
-5.4800

> <Gold.Chemscore.Hbond>
2.8957

> <Gold.Chemscore.Metal>
0.0000

> <Gold.Chemscore.Lipo>
110.2463

> <Gold.Chemscore.Internal_Hbond>
0.0000

> <Gold.Chemscore.DEClash>
0.1050

> <Gold.Chemscore.DEInternal>
1.9249

> <Gold.Chemscore.Rot>
5.4662

> <Gold.Chemscore.Internal.Correction>
   9.000000E+99

> <Gold.Chemscore.Hbonds>
donor molecule, donor type, donor heavy atom, donor atom, acceptor molecule, acceptor atom, score
      L1  H     1    34       P1  7957  0.68
      P1  H  6896  6907       L1    23  0.98
      P1  H  6896  6908       L1     9  0.54
      P1  H  8011  8017       L1     1  0.32

> <Gold.Chemscore.Hbond.Weighted>
-9.6718

> <Gold.Chemscore.Metal.Weighted>
-0.0000

> <Gold.Chemscore.Lipo.Weighted>
-12.8988

> <Gold.Chemscore.Internal_Hbond.Weighted>
0.0000

> <Gold.Chemscore.DEClash.Weighted>
0.1050

> <Gold.Chemscore.DEInternal.Weighted>
1.9249

> <Gold.Chemscore.Rot.Weighted>
13.9935

> <Gold.Chemscore.Internal.Correction.Weighted>
   9.000000E+99

> <Gold.Protein.RotatedTorsions>
[ 6907 6896 6895 6894 ] final -172.19 input  -60.11 | X-H torsion
[ 7974 7965 7964 7962 ] final -126.53 input  175.53 | X-H torsion
[ 8008 7997 7996 7995 ] final  131.16 input   59.86 | X-H torsion
[ 10167 10162 10161 10158 ] final  144.94 input  -65.29 | X-H torsion
[ 10718 10713 10712 10709 ] final   80.00 input   66.30 | X-H torsion
[ 10763 10752 10751 10750 ] final  130.47 input  -60.55 | X-H torsion
[ 11005 11000 10999 10996 ] final   14.58 input  -57.11 | X-H torsion

> <Gold.Protein.ActiveResidues>
 VAL166  LYS551  ARG553  GLY616  TRP617  ASP618  TYR619  PRO620  LYS621  CYS622 
 ASP623  PHE694  ASN695  SER759  ASP760  ASP761  ALA762  ILE779  LEU786  VAL792 
 PHE793  MET794  SER795  GLU796  ALA797  LYS798  CYS799  TRP800  GLU811  SER814 

> <Gold.Protein.RotatedAtoms>
  151.5360  133.3441  159.2926 H   0  0  0  0  0  0  0  0  0  0  0  0  # atno 6907 bound_to 6896
  150.8565  134.7907  159.7060 H   0  0  0  0  0  0  0  0  0  0  0  0  # atno 6908 bound_to 6896
  152.4597  134.5221  159.9837 H   0  0  0  0  0  0  0  0  0  0  0  0  # atno 6909 bound_to 6896
  144.9863  140.7689  143.4581 H   0  0  0  0  0  0  0  0  0  0  0  0  # atno 7974 bound_to 7965
  156.2966  140.2578  156.2881 H   0  0  0  0  0  0  0  0  0  0  0  0  # atno 8008 bound_to 7997
  154.9537  140.0394  157.2175 H   0  0  0  0  0  0  0  0  0  0  0  0  # atno 8009 bound_to 7997
  154.8012  140.2828  155.5924 H   0  0  0  0  0  0  0  0  0  0  0  0  # atno 8010 bound_to 7997
  139.4936  144.5937  151.6628 H   0  0  0  0  0  0  0  0  0  0  0  0  # atno 10167 bound_to 10162
  157.6793  130.9939  150.2014 H   0  0  0  0  0  0  0  0  0  0  0  0  # atno 10718 bound_to 10713
  153.7585  135.3199  155.3333 H   0  0  0  0  0  0  0  0  0  0  0  0  # atno 10763 bound_to 10752
  154.8238  135.4584  154.0861 H   0  0  0  0  0  0  0  0  0  0  0  0  # atno 10764 bound_to 10752
  153.2085  135.6932  153.8226 H   0  0  0  0  0  0  0  0  0  0  0  0  # atno 10765 bound_to 10752
  140.4680  134.1060  155.7727 H   0  0  0  0  0  0  0  0  0  0  0  0  # atno 11005 bound_to 11000
  145.2348  139.2098  143.5024 LP  0  0  0  0  0  0  0  0  0  0  0  0  # atno 17320 bound_to 7965
  146.3421  140.2232  142.8592 LP  0  0  0  0  0  0  0  0  0  0  0  0  # atno 17321 bound_to 7965
  140.5569  144.0332  150.6152 LP  0  0  0  0  0  0  0  0  0  0  0  0  # atno 17342 bound_to 10162
  140.3405  143.3022  152.0593 LP  0  0  0  0  0  0  0  0  0  0  0  0  # atno 17343 bound_to 10162
  156.2704  130.3721  149.8037 LP  0  0  0  0  0  0  0  0  0  0  0  0  # atno 17370 bound_to 10713
  156.5755  130.8443  151.3368 LP  0  0  0  0  0  0  0  0  0  0  0  0  # atno 17371 bound_to 10713
  141.1590  133.8828  157.1899 LP  0  0  0  0  0  0  0  0  0  0  0  0  # atno 17394 bound_to 11000
  139.9903  135.0067  156.9960 LP  0  0  0  0  0  0  0  0  0  0  0  0  # atno 17395 bound_to 11000

$$$$
