AV-unprocessed.smi:1498|AV-procd|sdf|6059|dock10
  -GOLD-   22720 6173D 1   1.00000     0.00000
 Structure written by MMmdl.
 38 39  0  0  0  0  0  0  0  0  2 V2000
  143.5266  132.7166  148.2397 C   0  0  0  0  0  0  0  0  0  0  0  0
  144.6591  132.9721  149.1552 N   0  3  0  0  0  0  0  0  0  0  0  0
  145.7244  131.9416  149.0437 C   0  0  0  0  0  0  0  0  0  0  0  0
  146.8882  132.2295  150.0114 C   0  0  0  0  0  0  0  0  0  0  0  0
  146.3572  132.3447  151.3787 N   0  0  0  0  0  0  0  0  0  0  0  0
  146.4742  131.4160  152.3615 C   0  0  0  0  0  0  0  0  0  0  0  0
  145.9003  131.5228  153.4456 O   0  0  0  0  0  0  0  0  0  0  0  0
  147.3233  130.4112  152.0727 N   0  0  0  0  0  0  0  0  0  0  0  0
  147.6562  129.2950  152.8814 C   0  0  0  0  0  0  0  0  0  0  0  0
  146.8446  128.7859  153.9281 C   0  0  0  0  0  0  0  0  0  0  0  0
  147.4093  127.7370  154.5062 N   0  0  0  0  0  0  0  0  0  0  0  0
  148.5806  127.5586  153.8451 N   0  0  0  0  0  0  0  0  0  0  0  0
  149.4643  126.4712  154.2272 C   0  0  0  0  0  0  0  0  0  0  0  0
  149.6127  125.4523  153.0958 C   0  0  0  0  0  0  0  0  0  0  0  0
  150.3527  125.8120  152.0436 N   0  0  0  0  0  0  0  0  0  0  0  0
  149.0631  124.3556  153.1691 O   0  0  0  0  0  0  0  0  0  0  0  0
  148.7641  128.4960  152.8471 C   0  0  0  0  0  0  0  0  0  0  0  0
  145.4190  133.4675  151.4805 C   0  0  0  0  0  0  0  0  0  0  0  0
  144.2171  133.2077  150.5543 C   0  0  0  0  0  0  0  0  0  0  0  0
  143.0152  131.7887  148.4992 H   0  0  0  0  0  0  0  0  0  0  0  0
  143.8750  132.6391  147.2094 H   0  0  0  0  0  0  0  0  0  0  0  0
  142.8030  133.5309  148.2861 H   0  0  0  0  0  0  0  0  0  0  0  0
  145.3012  130.9589  149.2586 H   0  0  0  0  0  0  0  0  0  0  0  0
  146.0949  131.9109  148.0184 H   0  0  0  0  0  0  0  0  0  0  0  0
  147.6547  131.4636  149.8952 H   0  0  0  0  0  0  0  0  0  0  0  0
  147.3739  133.1681  149.7401 H   0  0  0  0  0  0  0  0  0  0  0  0
  147.7715  130.4451  151.1687 H   0  0  0  0  0  0  0  0  0  0  0  0
  145.8848  129.1340  154.2802 H   0  0  0  0  0  0  0  0  0  0  0  0
  150.4392  126.8882  154.4830 H   0  0  0  0  0  0  0  0  0  0  0  0
  149.0802  125.9810  155.1235 H   0  0  0  0  0  0  0  0  0  0  0  0
  150.4711  125.1740  151.2698 H   0  0  0  0  0  0  0  0  0  0  0  0
  150.7844  126.7245  152.0227 H   0  0  0  0  0  0  0  0  0  0  0  0
  149.6449  128.4996  152.2222 H   0  0  0  0  0  0  0  0  0  0  0  0
  145.0752  133.6393  152.5018 H   0  0  0  0  0  0  0  0  0  0  0  0
  145.9275  134.3864  151.1848 H   0  0  0  0  0  0  0  0  0  0  0  0
  143.5366  134.0595  150.5831 H   0  0  0  0  0  0  0  0  0  0  0  0
  143.6576  132.3405  150.9093 H   0  0  0  0  0  0  0  0  0  0  0  0
  145.0799  133.8384  148.8502 H   0  0  0  0  0  0  0  0  0  0  0  0
  1  2  1  0  0  0  0
  1 20  1  0  0  0  0
  1 21  1  0  0  0  0
  1 22  1  0  0  0  0
  2 19  1  0  0  0  0
  2  3  1  0  0  0  0
  2 38  1  0  0  0  0
  3  4  1  0  0  0  0
  3 23  1  0  0  0  0
  3 24  1  0  0  0  0
  4  5  1  0  0  0  0
  4 25  1  0  0  0  0
  4 26  1  0  0  0  0
  5  6  1  0  0  0  0
  5 18  1  0  0  0  0
  6  7  2  0  0  0  0
  6  8  1  0  0  0  0
  8  9  1  0  0  0  0
  8 27  1  0  0  0  0
  9 17  2  0  0  0  0
  9 10  1  0  0  0  0
 10 11  2  0  0  0  0
 10 28  1  0  0  0  0
 11 12  1  0  0  0  0
 12 13  1  0  0  0  0
 12 17  1  0  0  0  0
 13 14  1  0  0  0  0
 13 29  1  0  0  0  0
 13 30  1  0  0  0  0
 14 15  1  0  0  0  0
 14 16  2  0  0  0  0
 15 31  1  0  0  0  0
 15 32  1  0  0  0  0
 17 33  1  0  0  0  0
 18 19  1  0  0  0  0
 18 34  1  0  0  0  0
 18 35  1  0  0  0  0
 19 36  1  0  0  0  0
 19 37  1  0  0  0  0
M  CHG  1   2   1
M  END
> <s_m_source_file>
AV-unprocessed.smi

> <i_m_source_file_index>
1498

> <i_lp_mmshare_version>
43012

> <i_f3d_flags>
0

> <s_epik_input>
W0NIM11OMVtDSDJdW0NIMl1OKFtDSDJdW0NIMl0xKUMoPU8pW05IXWMyW2NIXW5uKFtjSF0yKVtDSDJdQyg9TylbTkgyXQ==

> <s_epik_cmdline>
J2VwaWtfcHl0aG9uJywgJy1waCcsICc3LjAnLCAnLXRuJywgJzgnLCAnLW1hJywgJzIwMCcsICctbWV0YWxfYmluZGluZycsICctaW1hZScsICc8aW5maWxlLm1hZT4nLCAnLW9tYWUnLCAnPG91dGZpbGUubWFlPic=

> <r_lp_tautomer_probability>
1

> <r_epik_Ionization_Penalty>
0.25453

> <r_epik_Ionization_Penalty_Charging>
0.254506

> <r_epik_Ionization_Penalty_Neutral>
2.46477e-05

> <r_epik_State_Penalty>
0.245983

> <r_epik_Charging_Adjusted_Penalty>
0.500488

> <i_epik_Tot_Q>
1

> <i_epik_Tot_abs_Q>
1

> <r_epik_Metal_State_Penalty>
0.245984

> <b_epik_Metal_Only>
0

> <s_lp_Force_Field>
OPLS_2005

> <r_lp_Energy>
51.0402

> <b_lp_Chiralities_Consistent>
1

> <s_lp_Variant>
AV-unprocessed.smi:1498-1

> <Gold.Version>
5.8.1

> <Gold.Id.Protein>
6NUR|6NUR_protein|mol2

> <Gold.PLP.Fitness>
38.5371

> <Gold.PLP.PLP>
-25.4164

> <Gold.PLP.part.hbond>
-2.8003

> <Gold.PLP.part.metal>
0.0000

> <Gold.PLP.part.buried>
1.4273

> <Gold.PLP.part.nonpolar>
-24.3808

> <Gold.PLP.part.repulsive>
0.4414

> <Gold.PLP.ligand.clash>
0.0000

> <Gold.PLP.ligand.torsion>
0.3093

> <Gold.PLP.Chemscore.Hbond>
3.0000

> <Gold.PLP.Chemscore.CHOScore>
1.5628

> <Gold.PLP.Chemscore.Metal>
0.0000

> <Gold.Chemscore.Hbonds>
donor molecule, donor type, donor heavy atom, donor atom, acceptor molecule, acceptor atom, score
      L1  H     2    38       P1  7921  0.99
      L1  H     8    27       P1 10747  1.00
      L1  H    15    32       P1 10737  1.00
      L1  C    10    28       P1 10956  0.61
      L1  C    17    33       P1 10737  0.93

> <Gold.PLP.Chemscore.Internal.Correction>
0.0509

> <Gold.Rescore>
     Score         DG    S(hbond)    S(metal)    S(lipo)     H(rot)  DE(clash)    DE(int)     intcor
     16.15     -19.28       2.86        0.00      70.22       1.55       1.52       1.61       ----

> <Gold.Chemscore.Fitness>
16.1529

> <Gold.Chemscore.DG>
-19.2776

> <Gold.Chemscore.ZeroCoef>
-5.4800

> <Gold.Chemscore.Hbond>
2.8587

> <Gold.Chemscore.Metal>
0.0000

> <Gold.Chemscore.Lipo>
70.2227

> <Gold.Chemscore.Internal_Hbond>
0.0000

> <Gold.Chemscore.DEClash>
1.5175

> <Gold.Chemscore.DEInternal>
1.6072

> <Gold.Chemscore.Rot>
1.5494

> <Gold.Chemscore.Internal.Correction>
   9.000000E+99

> <Gold.Chemscore.Hbonds>
donor molecule, donor type, donor heavy atom, donor atom, acceptor molecule, acceptor atom, score
      L1  H     2    38       P1  7921  0.87
      L1  H     8    27       P1 10747  0.90
      L1  H    15    32       P1 10737  0.94

> <Gold.Chemscore.Hbond.Weighted>
-9.5481

> <Gold.Chemscore.Metal.Weighted>
-0.0000

> <Gold.Chemscore.Lipo.Weighted>
-8.2161

> <Gold.Chemscore.Internal_Hbond.Weighted>
0.0000

> <Gold.Chemscore.DEClash.Weighted>
1.5175

> <Gold.Chemscore.DEInternal.Weighted>
1.6072

> <Gold.Chemscore.Rot.Weighted>
3.9665

> <Gold.Chemscore.Internal.Correction.Weighted>
   9.000000E+99

> <Gold.Protein.RotatedTorsions>
[ 6907 6896 6895 6894 ] final   41.17 input  -60.11 | X-H torsion
[ 7974 7965 7964 7962 ] final  154.23 input  175.53 | X-H torsion
[ 8008 7997 7996 7995 ] final   22.03 input   59.86 | X-H torsion
[ 10167 10162 10161 10158 ] final   76.15 input  -65.29 | X-H torsion
[ 10718 10713 10712 10709 ] final -138.24 input   66.30 | X-H torsion
[ 10763 10752 10751 10750 ] final  107.40 input  -60.55 | X-H torsion
[ 11005 11000 10999 10996 ] final -137.02 input  -57.11 | X-H torsion

> <Gold.Protein.ActiveResidues>
 VAL166  LYS551  ARG553  GLY616  TRP617  ASP618  TYR619  PRO620  LYS621  CYS622 
 ASP623  PHE694  ASN695  SER759  ASP760  ASP761  ALA762  ILE779  LEU786  VAL792 
 PHE793  MET794  SER795  GLU796  ALA797  LYS798  CYS799  TRP800  GLU811  SER814 

> <Gold.Protein.RotatedAtoms>
  152.1918  134.8665  160.0516 H   0  0  0  0  0  0  0  0  0  0  0  0  # atno 6907 bound_to 6896
  151.9551  133.3673  159.4022 H   0  0  0  0  0  0  0  0  0  0  0  0  # atno 6908 bound_to 6896
  150.6937  134.4223  159.5254 H   0  0  0  0  0  0  0  0  0  0  0  0  # atno 6909 bound_to 6896
  144.8102  139.6906  143.6145 H   0  0  0  0  0  0  0  0  0  0  0  0  # atno 7974 bound_to 7965
  154.9596  140.3076  155.5037 H   0  0  0  0  0  0  0  0  0  0  0  0  # atno 8008 bound_to 7997
  156.2978  140.2304  156.4619 H   0  0  0  0  0  0  0  0  0  0  0  0  # atno 8009 bound_to 7997
  154.7977  140.0436  157.1238 H   0  0  0  0  0  0  0  0  0  0  0  0  # atno 8010 bound_to 7997
  139.9953  144.5726  150.7783 H   0  0  0  0  0  0  0  0  0  0  0  0  # atno 10167 bound_to 10162
  156.2971  130.7408  151.1450 H   0  0  0  0  0  0  0  0  0  0  0  0  # atno 10718 bound_to 10713
  153.4062  135.3845  155.2020 H   0  0  0  0  0  0  0  0  0  0  0  0  # atno 10763 bound_to 10752
  154.8734  135.3783  154.4557 H   0  0  0  0  0  0  0  0  0  0  0  0  # atno 10764 bound_to 10752
  153.5060  135.7088  153.5868 H   0  0  0  0  0  0  0  0  0  0  0  0  # atno 10765 bound_to 10752
  140.8750  134.2003  157.4627 H   0  0  0  0  0  0  0  0  0  0  0  0  # atno 11005 bound_to 11000
  146.2400  139.5981  142.9498 LP  0  0  0  0  0  0  0  0  0  0  0  0  # atno 17320 bound_to 7965
  145.5342  141.0425  143.2366 LP  0  0  0  0  0  0  0  0  0  0  0  0  # atno 17321 bound_to 7965
  140.7439  143.2853  151.3481 LP  0  0  0  0  0  0  0  0  0  0  0  0  # atno 17342 bound_to 10162
  139.6310  144.0720  152.2476 LP  0  0  0  0  0  0  0  0  0  0  0  0  # atno 17343 bound_to 10162
  157.7358  131.0568  150.5448 LP  0  0  0  0  0  0  0  0  0  0  0  0  # atno 17370 bound_to 10713
  156.5571  130.4246  149.6080 LP  0  0  0  0  0  0  0  0  0  0  0  0  # atno 17371 bound_to 10713
  139.8715  134.9791  156.5025 LP  0  0  0  0  0  0  0  0  0  0  0  0  # atno 17394 bound_to 11000
  140.8528  133.8119  155.9186 LP  0  0  0  0  0  0  0  0  0  0  0  0  # atno 17395 bound_to 11000

$$$$
