AV-unprocessed.smi:890|AV-procd|sdf|4057|dock6
  -GOLD-   22720 1543D 1   1.00000     0.00000
 Structure written by MMmdl.
 52 55  0  0  0  0  0  0  0  0  2 V2000
  150.4613  134.8285  155.8992 O   0  0  0  0  0  0  0  0  0  0  0  0
  149.9637  135.2820  154.8691 C   0  0  0  0  0  0  0  0  0  0  0  0
  149.2768  134.5737  153.9575 N   0  0  0  0  0  0  0  0  0  0  0  0
  149.0078  133.1747  153.9355 C   0  0  0  0  0  0  0  0  0  0  0  0
  149.8188  132.2297  154.6110 C   0  0  0  0  0  0  0  0  0  0  0  0
  149.4692  130.8685  154.5678 C   0  0  0  0  0  0  0  0  0  0  0  0
  148.3138  130.4985  153.8584 C   0  0  0  0  0  0  0  0  0  0  0  0
  147.5232  131.3864  153.2225 N   0  0  0  0  0  0  0  0  0  0  0  0
  147.8496  132.7017  153.2606 C   0  0  0  0  0  0  0  0  0  0  0  0
  147.0192  133.6028  152.5605 N   0  0  0  0  0  0  0  0  0  0  0  0
  146.8943  133.2954  151.1380 C   0  0  0  0  0  0  0  0  0  0  0  0
  145.4438  133.5942  150.7529 C   0  0  0  0  0  0  0  0  0  0  0  0
  144.6919  133.4062  152.0646 C   0  0  0  0  0  0  0  0  0  0  0  0
  145.6956  133.9217  153.0938 C   0  0  0  0  0  0  0  0  0  0  0  0
  150.0622  136.5694  154.5069 N   0  0  0  0  0  0  0  0  0  0  0  0
  150.7455  137.6075  155.2731 C   0  0  2  0  0  0  0  0  0  0  0  0
  150.2843  137.5650  156.7393 C   0  0  0  0  0  0  0  0  0  0  0  0
  150.9294  138.6970  157.5569 C   0  0  0  0  0  0  0  0  0  0  0  0
  150.6373  140.0223  156.9562 N   0  3  1  0  0  0  0  0  0  0  0  0
  151.1557  141.1357  157.7806 C   0  0  0  0  0  0  0  0  0  0  0  0
  150.0860  142.0880  158.2626 C   0  0  0  0  0  0  0  0  0  0  0  0
  151.0052  142.4916  157.1311 C   0  0  0  0  0  0  0  0  0  0  0  0
  151.1066  140.1049  155.5510 C   0  0  0  0  0  0  0  0  0  0  0  0
  150.4668  139.0054  154.6876 C   0  0  0  0  0  0  0  0  0  0  0  0
  148.9947  135.0745  153.1275 H   0  0  0  0  0  0  0  0  0  0  0  0
  150.6910  132.5226  155.1744 H   0  0  0  0  0  0  0  0  0  0  0  0
  150.0706  130.1266  155.0720 H   0  0  0  0  0  0  0  0  0  0  0  0
  148.0128  129.4629  153.8038 H   0  0  0  0  0  0  0  0  0  0  0  0
  147.5914  133.8886  150.5456 H   0  0  0  0  0  0  0  0  0  0  0  0
  147.1173  132.2421  150.9589 H   0  0  0  0  0  0  0  0  0  0  0  0
  145.3535  134.6299  150.4226 H   0  0  0  0  0  0  0  0  0  0  0  0
  145.0767  132.9508  149.9529 H   0  0  0  0  0  0  0  0  0  0  0  0
  143.7405  133.9380  152.0942 H   0  0  0  0  0  0  0  0  0  0  0  0
  144.4967  132.3462  152.2330 H   0  0  0  0  0  0  0  0  0  0  0  0
  145.4997  133.5218  154.0888 H   0  0  0  0  0  0  0  0  0  0  0  0
  145.6234  135.0070  153.1710 H   0  0  0  0  0  0  0  0  0  0  0  0
  149.6258  136.8523  153.6414 H   0  0  0  0  0  0  0  0  0  0  0  0
  151.8203  137.4159  155.2453 H   0  0  0  0  0  0  0  0  0  0  0  0
  149.1979  137.6562  156.7904 H   0  0  0  0  0  0  0  0  0  0  0  0
  150.5351  136.6010  157.1835 H   0  0  0  0  0  0  0  0  0  0  0  0
  150.5517  138.6675  158.5794 H   0  0  0  0  0  0  0  0  0  0  0  0
  152.0095  138.5518  157.6139 H   0  0  0  0  0  0  0  0  0  0  0  0
  152.0204  140.9146  158.4040 H   0  0  0  0  0  0  0  0  0  0  0  0
  149.0492  141.8697  158.0132 H   0  0  0  0  0  0  0  0  0  0  0  0
  150.2403  142.5708  159.2255 H   0  0  0  0  0  0  0  0  0  0  0  0
  151.7651  143.2395  157.3489 H   0  0  0  0  0  0  0  0  0  0  0  0
  150.5780  142.5407  156.1309 H   0  0  0  0  0  0  0  0  0  0  0  0
  150.8564  141.0830  155.1385 H   0  0  0  0  0  0  0  0  0  0  0  0
  152.1942  140.0185  155.5232 H   0  0  0  0  0  0  0  0  0  0  0  0
  150.8519  139.0741  153.6696 H   0  0  0  0  0  0  0  0  0  0  0  0
  149.3908  139.1740  154.6226 H   0  0  0  0  0  0  0  0  0  0  0  0
  149.6321  140.1196  156.9361 H   0  0  0  0  0  0  0  0  0  0  0  0
  1  2  2  0  0  0  0
  2  3  1  0  0  0  0
  2 15  1  0  0  0  0
  3  4  1  0  0  0  0
  3 25  1  0  0  0  0
  4  9  1  0  0  0  0
  4  5  2  0  0  0  0
  5  6  1  0  0  0  0
  5 26  1  0  0  0  0
  6  7  2  0  0  0  0
  6 27  1  0  0  0  0
  7  8  1  0  0  0  0
  7 28  1  0  0  0  0
  8  9  2  0  0  0  0
  9 10  1  0  0  0  0
 10 14  1  0  0  0  0
 10 11  1  0  0  0  0
 11 12  1  0  0  0  0
 11 29  1  0  0  0  0
 11 30  1  0  0  0  0
 12 13  1  0  0  0  0
 12 31  1  0  0  0  0
 12 32  1  0  0  0  0
 13 14  1  0  0  0  0
 13 33  1  0  0  0  0
 13 34  1  0  0  0  0
 14 35  1  0  0  0  0
 14 36  1  0  0  0  0
 15 16  1  0  0  0  0
 15 37  1  0  0  0  0
 16 24  1  0  0  0  0
 16 17  1  0  0  0  0
 16 38  1  0  0  0  0
 17 18  1  0  0  0  0
 17 39  1  0  0  0  0
 17 40  1  0  0  0  0
 18 19  1  0  0  0  0
 18 41  1  0  0  0  0
 18 42  1  0  0  0  0
 19 20  1  0  0  0  0
 19 23  1  0  0  0  0
 19 52  1  0  0  0  0
 20 22  1  0  0  0  0
 20 21  1  0  0  0  0
 20 43  1  0  0  0  0
 21 22  1  0  0  0  0
 21 44  1  0  0  0  0
 21 45  1  0  0  0  0
 22 46  1  0  0  0  0
 22 47  1  0  0  0  0
 23 24  1  0  0  0  0
 23 48  1  0  0  0  0
 23 49  1  0  0  0  0
 24 50  1  0  0  0  0
 24 51  1  0  0  0  0
M  CHG  1  19   1
M  END
> <s_m_source_file>
AV-unprocessed.smi

> <i_m_source_file_index>
890

> <i_lp_mmshare_version>
43012

> <i_f3d_flags>
0

> <s_epik_input>
W0NIMl0xW0NIMl1bQ0hdMU4oW0NIMl1bQ0gyXTIpW0NIMl1bQ0gyXVtDSF0yW05IXUMoPU8pW05IXWMzW2NIXVtjSF1bY0hdbmMzTjRbQ0gyXVtDSDJdW0NIMl1bQ0gyXTQ=

> <s_epik_cmdline>
J2VwaWtfcHl0aG9uJywgJy1waCcsICc3LjAnLCAnLXRuJywgJzgnLCAnLW1hJywgJzIwMCcsICctbWV0YWxfYmluZGluZycsICctaW1hZScsICc8aW5maWxlLm1hZT4nLCAnLW9tYWUnLCAnPG91dGZpbGUubWFlPic=

> <r_lp_tautomer_probability>
1

> <r_epik_Ionization_Penalty>
0.193768

> <r_epik_Ionization_Penalty_Charging>
0.115549

> <r_epik_Ionization_Penalty_Neutral>
0.078219

> <r_epik_State_Penalty>
0.174811

> <r_epik_Charging_Adjusted_Penalty>
0.29036

> <i_epik_Tot_Q>
1

> <i_epik_Tot_abs_Q>
1

> <r_epik_Metal_State_Penalty>
0.169761

> <b_epik_Metal_Only>
0

> <s_lp_Force_Field>
OPLS_2005

> <r_lp_Energy>
54.8622

> <b_lp_Chiralities_Consistent>
1

> <s_lp_Variant>
AV-unprocessed.smi:890-1

> <Gold.Version>
5.8.1

> <Gold.Id.Protein>
6NUR|6NUR_protein|mol2

> <Gold.PLP.Fitness>
42.0792

> <Gold.PLP.PLP>
-37.3133

> <Gold.PLP.part.hbond>
-2.1986

> <Gold.PLP.part.metal>
0.0000

> <Gold.PLP.part.buried>
-5.0660

> <Gold.PLP.part.nonpolar>
-30.9648

> <Gold.PLP.part.repulsive>
0.3767

> <Gold.PLP.ligand.clash>
0.0000

> <Gold.PLP.ligand.torsion>
1.1525

> <Gold.PLP.Chemscore.Hbond>
1.8960

> <Gold.PLP.Chemscore.CHOScore>
0.0000

> <Gold.PLP.Chemscore.Metal>
0.0000

> <Gold.Chemscore.Hbonds>
donor molecule, donor type, donor heavy atom, donor atom, acceptor molecule, acceptor atom, score
      L1  H     3    25       P1  7948  0.95
      L1  H    15    37       P1  7948  0.90

> <Gold.PLP.Chemscore.Internal.Correction>
1.3830

> <Gold.Rescore>
     Score         DG    S(hbond)    S(metal)    S(lipo)     H(rot)  DE(clash)    DE(int)     intcor
     12.87     -16.63       1.31        0.00      87.08       1.33       0.11       3.65       ----

> <Gold.Chemscore.Fitness>
12.8674

> <Gold.Chemscore.DG>
-16.6321

> <Gold.Chemscore.ZeroCoef>
-5.4800

> <Gold.Chemscore.Hbond>
1.3075

> <Gold.Chemscore.Metal>
0.0000

> <Gold.Chemscore.Lipo>
87.0785

> <Gold.Chemscore.Internal_Hbond>
0.0000

> <Gold.Chemscore.DEClash>
0.1116

> <Gold.Chemscore.DEInternal>
3.6532

> <Gold.Chemscore.Rot>
1.3294

> <Gold.Chemscore.Internal.Correction>
   9.000000E+99

> <Gold.Chemscore.Hbonds>
donor molecule, donor type, donor heavy atom, donor atom, acceptor molecule, acceptor atom, score
      L1  H     3    25       P1  7948  0.21
      L1  H    15    37       P1  7948  0.64

> <Gold.Chemscore.Hbond.Weighted>
-4.3671

> <Gold.Chemscore.Metal.Weighted>
-0.0000

> <Gold.Chemscore.Lipo.Weighted>
-10.1882

> <Gold.Chemscore.Internal_Hbond.Weighted>
0.0000

> <Gold.Chemscore.DEClash.Weighted>
0.1116

> <Gold.Chemscore.DEInternal.Weighted>
3.6532

> <Gold.Chemscore.Rot.Weighted>
3.4032

> <Gold.Chemscore.Internal.Correction.Weighted>
   9.000000E+99

> <Gold.Protein.RotatedTorsions>
[ 6907 6896 6895 6894 ] final   -2.15 input  -60.11 | X-H torsion
[ 7974 7965 7964 7962 ] final  150.89 input  175.53 | X-H torsion
[ 8008 7997 7996 7995 ] final -165.54 input   59.86 | X-H torsion
[ 10167 10162 10161 10158 ] final -141.60 input  -65.29 | X-H torsion
[ 10718 10713 10712 10709 ] final   25.03 input   66.30 | X-H torsion
[ 10763 10752 10751 10750 ] final -109.56 input  -60.55 | X-H torsion
[ 11005 11000 10999 10996 ] final  -97.78 input  -57.11 | X-H torsion

> <Gold.Protein.ActiveResidues>
 VAL166  LYS551  ARG553  GLY616  TRP617  ASP618  TYR619  PRO620  LYS621  CYS622 
 ASP623  PHE694  ASN695  SER759  ASP760  ASP761  ALA762  ILE779  LEU786  VAL792 
 PHE793  MET794  SER795  GLU796  ALA797  LYS798  CYS799  TRP800  GLU811  SER814 

> <Gold.Protein.RotatedAtoms>
  151.5346  135.1068  159.9910 H   0  0  0  0  0  0  0  0  0  0  0  0  # atno 6907 bound_to 6896
  152.4563  133.7726  159.6817 H   0  0  0  0  0  0  0  0  0  0  0  0  # atno 6908 bound_to 6896
  150.8508  133.7725  159.3051 H   0  0  0  0  0  0  0  0  0  0  0  0  # atno 6909 bound_to 6896
  144.8332  139.6466  143.6049 H   0  0  0  0  0  0  0  0  0  0  0  0  # atno 7974 bound_to 7965
  155.8512  140.0963  157.1674 H   0  0  0  0  0  0  0  0  0  0  0  0  # atno 8008 bound_to 7997
  154.3985  140.1383  156.3908 H   0  0  0  0  0  0  0  0  0  0  0  0  # atno 8009 bound_to 7997
  155.7959  140.3454  155.5378 H   0  0  0  0  0  0  0  0  0  0  0  0  # atno 8010 bound_to 7997
  139.8169  143.7627  152.2665 H   0  0  0  0  0  0  0  0  0  0  0  0  # atno 10167 bound_to 10162
  157.1879  130.6832  149.6138 H   0  0  0  0  0  0  0  0  0  0  0  0  # atno 10718 bound_to 10713
  154.8200  135.4596  154.0752 H   0  0  0  0  0  0  0  0  0  0  0  0  # atno 10763 bound_to 10752
  153.2113  135.6882  153.8117 H   0  0  0  0  0  0  0  0  0  0  0  0  # atno 10764 bound_to 10752
  153.7567  135.3290  155.3307 H   0  0  0  0  0  0  0  0  0  0  0  0  # atno 10765 bound_to 10752
  141.1367  133.8196  157.0751 H   0  0  0  0  0  0  0  0  0  0  0  0  # atno 11005 bound_to 11000
  146.2633  139.6461  142.9347 LP  0  0  0  0  0  0  0  0  0  0  0  0  # atno 17320 bound_to 7965
  145.4851  141.0438  143.2624 LP  0  0  0  0  0  0  0  0  0  0  0  0  # atno 17321 bound_to 7965
  139.7793  144.7450  151.0112 LP  0  0  0  0  0  0  0  0  0  0  0  0  # atno 17342 bound_to 10162
  140.7815  143.4560  151.0345 LP  0  0  0  0  0  0  0  0  0  0  0  0  # atno 17343 bound_to 10162
  155.9715  130.4624  150.6146 LP  0  0  0  0  0  0  0  0  0  0  0  0  # atno 17370 bound_to 10713
  157.3889  131.0792  151.1411 LP  0  0  0  0  0  0  0  0  0  0  0  0  # atno 17371 bound_to 10713
  140.0486  134.9817  157.1095 LP  0  0  0  0  0  0  0  0  0  0  0  0  # atno 17394 bound_to 11000
  140.4024  134.2068  155.7163 LP  0  0  0  0  0  0  0  0  0  0  0  0  # atno 17395 bound_to 11000

$$$$
