AV-unprocessed.smi:884|AV-procd|sdf|4043|dock1
  -GOLD-   22720 1533D 1   1.00000     0.00000
 Structure written by MMmdl.
 48 50  0  0  0  0  0  0  0  0  2 V2000
  150.0458  138.6562  158.7472 O   0  0  0  0  0  0  0  0  0  0  0  0
  149.0322  138.6542  158.0474 C   0  0  0  0  0  0  0  0  0  0  0  0
  148.5200  139.7841  157.5276 N   0  0  0  0  0  0  0  0  0  0  0  0
  149.0436  141.1326  157.7357 C   0  0  0  0  0  0  0  0  0  0  0  0
  150.5430  141.2453  157.3979 C   0  0  0  0  0  0  0  0  0  0  0  0
  151.1995  142.5178  157.9064 C   0  0  0  0  0  0  0  0  0  0  0  0
  152.3194  142.4906  158.7650 C   0  0  0  0  0  0  0  0  0  0  0  0
  152.8697  143.7074  159.2191 C   0  0  0  0  0  0  0  0  0  0  0  0
  152.2922  144.9245  158.8018 C   0  0  0  0  0  0  0  0  0  0  0  0
  151.1732  144.8939  157.9450 C   0  0  0  0  0  0  0  0  0  0  0  0
  150.6696  143.7077  157.5391 N   0  3  0  0  0  0  0  0  0  0  0  0
  148.3463  137.5232  157.7404 N   0  0  0  0  0  0  0  0  0  0  0  0
  147.1370  137.4453  156.9068 C   0  0  0  0  0  0  0  0  0  0  0  0
  145.9114  137.3479  157.8239 C   0  0  0  0  0  0  0  0  0  0  0  0
  145.9633  135.8229  158.8138 S   0  0  0  0  0  0  0  0  0  0  0  0
  147.6601  135.8798  159.5078 C   0  0  0  0  0  0  0  0  0  0  0  0
  147.7416  136.9120  160.6636 C   0  0  0  0  0  0  0  0  0  0  0  0
  146.9276  136.5101  161.9061 C   0  0  0  0  0  0  0  0  0  0  0  0
  147.3397  135.1236  162.4164 C   0  0  0  0  0  0  0  0  0  0  0  0
  147.2192  134.0737  161.3044 C   0  0  0  0  0  0  0  0  0  0  0  0
  148.0313  134.4808  160.0608 C   0  0  0  0  0  0  0  0  0  0  0  0
  148.6555  136.2288  158.3665 C   0  0  0  0  0  0  0  0  0  0  0  0
  147.6983  139.7012  156.9466 H   0  0  0  0  0  0  0  0  0  0  0  0
  148.4809  141.8597  157.1485 H   0  0  0  0  0  0  0  0  0  0  0  0
  148.8831  141.4045  158.7791 H   0  0  0  0  0  0  0  0  0  0  0  0
  151.0763  140.3872  157.8085 H   0  0  0  0  0  0  0  0  0  0  0  0
  150.6747  141.1906  156.3162 H   0  0  0  0  0  0  0  0  0  0  0  0
  152.7472  141.5494  159.0785 H   0  0  0  0  0  0  0  0  0  0  0  0
  153.7243  143.7069  159.8798 H   0  0  0  0  0  0  0  0  0  0  0  0
  152.6984  145.8671  159.1389 H   0  0  0  0  0  0  0  0  0  0  0  0
  150.6640  145.7751  157.5828 H   0  0  0  0  0  0  0  0  0  0  0  0
  147.0237  138.2886  156.2257 H   0  0  0  0  0  0  0  0  0  0  0  0
  147.1872  136.5690  156.2587 H   0  0  0  0  0  0  0  0  0  0  0  0
  145.8587  138.2105  158.4887 H   0  0  0  0  0  0  0  0  0  0  0  0
  144.9953  137.3461  157.2330 H   0  0  0  0  0  0  0  0  0  0  0  0
  148.7840  137.0382  160.9589 H   0  0  0  0  0  0  0  0  0  0  0  0
  147.4084  137.8904  160.3249 H   0  0  0  0  0  0  0  0  0  0  0  0
  147.0708  137.2490  162.6950 H   0  0  0  0  0  0  0  0  0  0  0  0
  145.8621  136.5155  161.6739 H   0  0  0  0  0  0  0  0  0  0  0  0
  148.3679  135.1571  162.7783 H   0  0  0  0  0  0  0  0  0  0  0  0
  146.7200  134.8388  163.2671 H   0  0  0  0  0  0  0  0  0  0  0  0
  147.5682  133.1081  161.6711 H   0  0  0  0  0  0  0  0  0  0  0  0
  146.1703  133.9365  161.0404 H   0  0  0  0  0  0  0  0  0  0  0  0
  147.9061  133.7260  159.2832 H   0  0  0  0  0  0  0  0  0  0  0  0
  149.0900  134.4653  160.3235 H   0  0  0  0  0  0  0  0  0  0  0  0
  148.6306  135.4500  157.6026 H   0  0  0  0  0  0  0  0  0  0  0  0
  149.6790  136.2082  158.7446 H   0  0  0  0  0  0  0  0  0  0  0  0
  149.8562  143.7092  156.9234 H   0  0  0  0  0  0  0  0  0  0  0  0
  1  2  2  0  0  0  0
  2  3  1  0  0  0  0
  2 12  1  0  0  0  0
  3  4  1  0  0  0  0
  3 23  1  0  0  0  0
  4  5  1  0  0  0  0
  4 24  1  0  0  0  0
  4 25  1  0  0  0  0
  5  6  1  0  0  0  0
  5 26  1  0  0  0  0
  5 27  1  0  0  0  0
  6 11  1  0  0  0  0
  6  7  2  0  0  0  0
  7  8  1  0  0  0  0
  7 28  1  0  0  0  0
  8  9  2  0  0  0  0
  8 29  1  0  0  0  0
  9 10  1  0  0  0  0
  9 30  1  0  0  0  0
 10 11  2  0  0  0  0
 10 31  1  0  0  0  0
 11 48  1  0  0  0  0
 12 22  1  0  0  0  0
 12 13  1  0  0  0  0
 13 14  1  0  0  0  0
 13 32  1  0  0  0  0
 13 33  1  0  0  0  0
 14 15  1  0  0  0  0
 14 34  1  0  0  0  0
 14 35  1  0  0  0  0
 15 16  1  0  0  0  0
 16 21  1  0  0  0  0
 16 17  1  0  0  0  0
 16 22  1  0  0  0  0
 17 18  1  0  0  0  0
 17 36  1  0  0  0  0
 17 37  1  0  0  0  0
 18 19  1  0  0  0  0
 18 38  1  0  0  0  0
 18 39  1  0  0  0  0
 19 20  1  0  0  0  0
 19 40  1  0  0  0  0
 19 41  1  0  0  0  0
 20 21  1  0  0  0  0
 20 42  1  0  0  0  0
 20 43  1  0  0  0  0
 21 44  1  0  0  0  0
 21 45  1  0  0  0  0
 22 46  1  0  0  0  0
 22 47  1  0  0  0  0
M  CHG  1  11   1
M  END
> <s_m_source_file>
AV-unprocessed.smi

> <i_m_source_file_index>
884

> <i_lp_mmshare_version>
43012

> <i_f3d_flags>
0

> <s_epik_input>
bjFbY0hdW2NIXVtjSF1bY0hdYzFbQ0gyXVtDSDJdW05IXUMoPU8pTihbQ0gyXTIpW0NIMl1bQ0gyXVNDMjNbQ0gyXVtDSDJdW0NIMl1bQ0gyXVtDSDJdMw==

> <s_epik_cmdline>
J2VwaWtfcHl0aG9uJywgJy1waCcsICc3LjAnLCAnLXRuJywgJzgnLCAnLW1hJywgJzIwMCcsICctbWV0YWxfYmluZGluZycsICctaW1hZScsICc8aW5maWxlLm1hZT4nLCAnLW9tYWUnLCAnPG91dGZpbGUubWFlPic=

> <r_epik_Ionization_Penalty>
1.55139

> <r_epik_Ionization_Penalty_Charging>
1.55135

> <r_epik_Ionization_Penalty_Neutral>
4.66963e-05

> <r_epik_State_Penalty>
1.64559

> <r_epik_Charging_Adjusted_Penalty>
3.19693

> <i_epik_Tot_Q>
1

> <i_epik_Tot_abs_Q>
1

> <r_epik_Metal_State_Penalty>
1.68773

> <b_epik_Metal_Only>
0

> <s_lp_Force_Field>
OPLS_2005

> <r_lp_Energy>
36.5944

> <b_lp_Chiralities_Consistent>
1

> <s_lp_Variant>
AV-unprocessed.smi:884-2

> <Gold.Version>
5.8.1

> <Gold.Id.Protein>
6NUR|6NUR_protein|mol2

> <Gold.PLP.Fitness>
42.1215

> <Gold.PLP.PLP>
-36.8236

> <Gold.PLP.part.hbond>
-1.5726

> <Gold.PLP.part.metal>
0.0000

> <Gold.PLP.part.buried>
-3.4545

> <Gold.PLP.part.nonpolar>
-31.3551

> <Gold.PLP.part.repulsive>
0.1340

> <Gold.PLP.ligand.clash>
0.0000

> <Gold.PLP.ligand.torsion>
0.0993

> <Gold.PLP.Chemscore.Hbond>
1.8240

> <Gold.PLP.Chemscore.CHOScore>
0.0000

> <Gold.PLP.Chemscore.Metal>
0.0000

> <Gold.Chemscore.Hbonds>
donor molecule, donor type, donor heavy atom, donor atom, acceptor molecule, acceptor atom, score
      L1  H    11    48       P1  8028  1.76

> <Gold.PLP.Chemscore.Internal.Correction>
0.0244

> <Gold.Rescore>
     Score         DG    S(hbond)    S(metal)    S(lipo)     H(rot)  DE(clash)    DE(int)     intcor
     18.03     -18.24       0.86        0.00     113.01       1.30       0.11       0.10       ----

> <Gold.Chemscore.Fitness>
18.0331

> <Gold.Chemscore.DG>
-18.2449

> <Gold.Chemscore.ZeroCoef>
-5.4800

> <Gold.Chemscore.Hbond>
0.8559

> <Gold.Chemscore.Metal>
0.0000

> <Gold.Chemscore.Lipo>
113.0083

> <Gold.Chemscore.Internal_Hbond>
0.0000

> <Gold.Chemscore.DEClash>
0.1139

> <Gold.Chemscore.DEInternal>
0.0979

> <Gold.Chemscore.Rot>
1.2953

> <Gold.Chemscore.Internal.Correction>
   9.000000E+99

> <Gold.Chemscore.Hbonds>
donor molecule, donor type, donor heavy atom, donor atom, acceptor molecule, acceptor atom, score
      L1  H    11    48       P1  8028  0.85

> <Gold.Chemscore.Hbond.Weighted>
-2.8588

> <Gold.Chemscore.Metal.Weighted>
-0.0000

> <Gold.Chemscore.Lipo.Weighted>
-13.2220

> <Gold.Chemscore.Internal_Hbond.Weighted>
0.0000

> <Gold.Chemscore.DEClash.Weighted>
0.1139

> <Gold.Chemscore.DEInternal.Weighted>
0.0979

> <Gold.Chemscore.Rot.Weighted>
3.3159

> <Gold.Chemscore.Internal.Correction.Weighted>
   9.000000E+99

> <Gold.Protein.RotatedTorsions>
[ 6907 6896 6895 6894 ] final  -83.02 input  -60.11 | X-H torsion
[ 7974 7965 7964 7962 ] final  170.66 input  175.53 | X-H torsion
[ 8008 7997 7996 7995 ] final -173.10 input   59.86 | X-H torsion
[ 10167 10162 10161 10158 ] final  -10.27 input  -65.29 | X-H torsion
[ 10718 10713 10712 10709 ] final -118.68 input   66.30 | X-H torsion
[ 10763 10752 10751 10750 ] final -176.70 input  -60.55 | X-H torsion
[ 11005 11000 10999 10996 ] final   40.71 input  -57.11 | X-H torsion

> <Gold.Protein.ActiveResidues>
 VAL166  LYS551  ARG553  GLY616  TRP617  ASP618  TYR619  PRO620  LYS621  CYS622 
 ASP623  PHE694  ASN695  SER759  ASP760  ASP761  ALA762  ILE779  LEU786  VAL792 
 PHE793  MET794  SER795  GLU796  ALA797  LYS798  CYS799  TRP800  GLU811  SER814 

> <Gold.Protein.RotatedAtoms>
  150.6890  134.3576  159.4936 H   0  0  0  0  0  0  0  0  0  0  0  0  # atno 6907 bound_to 6896
  152.1409  134.9060  160.0563 H   0  0  0  0  0  0  0  0  0  0  0  0  # atno 6908 bound_to 6896
  152.0194  133.3858  159.4289 H   0  0  0  0  0  0  0  0  0  0  0  0  # atno 6909 bound_to 6896
  144.7317  139.9235  143.6421 H   0  0  0  0  0  0  0  0  0  0  0  0  # atno 7974 bound_to 7965
  155.9530  140.1130  157.0960 H   0  0  0  0  0  0  0  0  0  0  0  0  # atno 8008 bound_to 7997
  154.4114  140.1197  156.5145 H   0  0  0  0  0  0  0  0  0  0  0  0  # atno 8009 bound_to 7997
  155.6817  140.3473  155.4860 H   0  0  0  0  0  0  0  0  0  0  0  0  # atno 8010 bound_to 7997
  140.7109  143.5767  150.9035 H   0  0  0  0  0  0  0  0  0  0  0  0  # atno 10167 bound_to 10162
  156.1124  130.6259  150.9321 H   0  0  0  0  0  0  0  0  0  0  0  0  # atno 10718 bound_to 10713
  154.5691  135.2826  155.0844 H   0  0  0  0  0  0  0  0  0  0  0  0  # atno 10763 bound_to 10752
  154.2224  135.6389  153.5152 H   0  0  0  0  0  0  0  0  0  0  0  0  # atno 10764 bound_to 10752
  153.0052  135.5517  154.6309 H   0  0  0  0  0  0  0  0  0  0  0  0  # atno 10765 bound_to 10752
  140.1905  134.3993  155.8149 H   0  0  0  0  0  0  0  0  0  0  0  0  # atno 11005 bound_to 11000
  146.0912  139.3902  143.0405 LP  0  0  0  0  0  0  0  0  0  0  0  0  # atno 17320 bound_to 7965
  145.7709  140.9897  143.1150 LP  0  0  0  0  0  0  0  0  0  0  0  0  # atno 17321 bound_to 7965
  139.9493  143.6291  152.3033 LP  0  0  0  0  0  0  0  0  0  0  0  0  # atno 17342 bound_to 10162
  139.6804  144.7656  151.1619 LP  0  0  0  0  0  0  0  0  0  0  0  0  # atno 17343 bound_to 10162
  157.6306  131.0921  150.8449 LP  0  0  0  0  0  0  0  0  0  0  0  0  # atno 17370 bound_to 10713
  156.8558  130.5096  149.5308 LP  0  0  0  0  0  0  0  0  0  0  0  0  # atno 17371 bound_to 10713
  141.2226  133.7044  156.8086 LP  0  0  0  0  0  0  0  0  0  0  0  0  # atno 17394 bound_to 11000
  140.2165  134.8788  157.3331 LP  0  0  0  0  0  0  0  0  0  0  0  0  # atno 17395 bound_to 11000

$$$$
