AV-unprocessed.smi:1813|AV-procd|sdf|7346|dock7
  -GOLD-   22720 9 03D 1   1.00000     0.00000
 Structure written by MMmdl.
 39 40  0  0  0  0  0  0  0  0  3 V2000
  146.1434  135.3683  153.5785 C   0  0  0  0  0  0  0  0  0  0  0  0
  146.6419  136.5284  152.8554 N   0  0  0  0  0  0  0  0  0  0  0  0
  146.1788  137.7751  153.0201 C   0  0  0  0  0  0  0  0  0  0  0  0
  145.2816  138.0620  153.8136 O   0  0  0  0  0  0  0  0  0  0  0  0
  146.8450  138.8625  152.1710 C   0  0  0  0  0  0  0  0  0  0  0  0
  147.6760  139.7984  152.9710 N   0  3  2  0  0  0  0  0  0  0  0  0
  148.3665  139.1381  154.1110 C   0  0  0  0  0  0  0  0  0  0  0  0
  149.3213  140.1128  154.8186 C   0  0  0  0  0  0  0  0  0  0  0  0
  148.5766  141.3697  155.2949 C   0  0  1  0  0  0  0  0  0  0  0  0
  149.5238  142.3112  155.8838 N   0  0  0  0  0  0  0  0  0  0  0  0
  150.4359  142.0247  156.8238 C   0  0  0  0  0  0  0  0  0  0  0  0
  150.5247  140.8766  157.2650 O   0  0  0  0  0  0  0  0  0  0  0  0
  151.1836  143.0877  157.1957 N   0  5  0  0  0  0  0  0  0  0  0  0
  151.7733  143.1041  158.4022 C   0  0  0  0  0  0  0  0  0  0  0  0
  152.4422  142.0586  158.9014 N   0  0  0  0  0  0  0  0  0  0  0  0
  152.9780  142.2961  160.1684 C   0  0  0  0  0  0  0  0  0  0  0  0
  152.7189  143.5551  160.6412 C   0  0  0  0  0  0  0  0  0  0  0  0
  151.7890  144.4859  159.5019 S   0  0  0  0  0  0  0  0  0  0  0  0
  147.8333  142.0102  154.1082 C   0  0  0  0  0  0  0  0  0  0  0  0
  146.9137  140.9928  153.4148 C   0  0  0  0  0  0  0  0  0  0  0  0
  146.6860  134.4753  153.2680 H   0  0  0  0  0  0  0  0  0  0  0  0
  145.0832  135.2099  153.3764 H   0  0  0  0  0  0  0  0  0  0  0  0
  146.2790  135.4921  154.6537 H   0  0  0  0  0  0  0  0  0  0  0  0
  147.3866  136.3720  152.1914 H   0  0  0  0  0  0  0  0  0  0  0  0
  147.4719  138.3464  151.4428 H   0  0  0  0  0  0  0  0  0  0  0  0
  146.0976  139.4188  151.6024 H   0  0  0  0  0  0  0  0  0  0  0  0
  147.6257  138.7607  154.8176 H   0  0  0  0  0  0  0  0  0  0  0  0
  148.9341  138.2761  153.7600 H   0  0  0  0  0  0  0  0  0  0  0  0
  149.7944  139.6155  155.6664 H   0  0  0  0  0  0  0  0  0  0  0  0
  150.1252  140.3921  154.1357 H   0  0  0  0  0  0  0  0  0  0  0  0
  147.8512  141.0705  156.0540 H   0  0  0  0  0  0  0  0  0  0  0  0
  149.4894  143.2643  155.5526 H   0  0  0  0  0  0  0  0  0  0  0  0
  153.5325  141.5112  160.6605 H   0  0  0  0  0  0  0  0  0  0  0  0
  153.0167  143.9904  161.5828 H   0  0  0  0  0  0  0  0  0  0  0  0
  147.2442  142.8633  154.4464 H   0  0  0  0  0  0  0  0  0  0  0  0
  148.5531  142.3998  153.3866 H   0  0  0  0  0  0  0  0  0  0  0  0
  146.4398  141.4692  152.5559 H   0  0  0  0  0  0  0  0  0  0  0  0
  146.1136  140.6857  154.0903 H   0  0  0  0  0  0  0  0  0  0  0  0
  148.3958  140.1378  152.3482 H   0  0  0  0  0  0  0  0  0  0  0  0
  1  2  1  0  0  0  0
  1 21  1  0  0  0  0
  1 22  1  0  0  0  0
  1 23  1  0  0  0  0
  2  3  1  0  0  0  0
  2 24  1  0  0  0  0
  3  4  2  0  0  0  0
  3  5  1  0  0  0  0
  5  6  1  0  0  0  0
  5 25  1  0  0  0  0
  5 26  1  0  0  0  0
  6 20  1  0  0  0  0
  6  7  1  0  0  0  0
  6 39  1  0  0  0  0
  7  8  1  0  0  0  0
  7 27  1  0  0  0  0
  7 28  1  0  0  0  0
  8  9  1  0  0  0  0
  8 29  1  0  0  0  0
  8 30  1  0  0  0  0
  9 10  1  0  0  0  0
  9 19  1  0  0  0  0
  9 31  1  0  0  0  0
 10 11  1  0  0  0  0
 10 32  1  0  0  0  0
 11 12  2  0  0  0  0
 11 13  1  0  0  0  0
 13 14  1  0  0  0  0
 14 18  1  0  0  0  0
 14 15  2  0  0  0  0
 15 16  1  0  0  0  0
 16 17  2  0  0  0  0
 16 33  1  0  0  0  0
 17 18  1  0  0  0  0
 17 34  1  0  0  0  0
 19 20  1  0  0  0  0
 19 35  1  0  0  0  0
 19 36  1  0  0  0  0
 20 37  1  0  0  0  0
 20 38  1  0  0  0  0
M  CHG  1   6   1
M  CHG  1  13  -1
M  END
> <s_m_source_file>
AV-unprocessed.smi

> <i_m_source_file_index>
1813

> <i_lp_mmshare_version>
43012

> <i_f3d_flags>
0

> <s_epik_input>
W0NIM11bTkhdQyg9TylbQ0gyXU4xW0NIMl1bQ0gyXVtDSF0oW0NIMl1bQ0gyXTEpW05IXUMoPU8pW05IXWMybltjSF1bY0hdczI=

> <s_epik_cmdline>
J2VwaWtfcHl0aG9uJywgJy1waCcsICc3LjAnLCAnLXRuJywgJzgnLCAnLW1hJywgJzIwMCcsICctbWV0YWxfYmluZGluZycsICctaW1hZScsICc8aW5maWxlLm1hZT4nLCAnLW9tYWUnLCAnPG91dGZpbGUubWFlPic=

> <r_lp_tautomer_probability>
0.999

> <r_epik_Ionization_Penalty>
7.12128

> <r_epik_Ionization_Penalty_Charging>
6.25357

> <r_epik_Ionization_Penalty_Neutral>
0.867707

> <r_epik_State_Penalty>
6.33838

> <r_epik_Charging_Adjusted_Penalty>
12.592

> <i_epik_Tot_Q>
0

> <i_epik_Tot_abs_Q>
2

> <r_epik_Metal_State_Penalty>
2.34161

> <b_epik_Metal_Only>
1

> <s_lp_Force_Field>
OPLS_2005

> <r_lp_Energy>
3.88073

> <b_lp_Chiralities_Consistent>
1

> <s_lp_Variant>
AV-unprocessed.smi:1813-7

> <Gold.Version>
5.8.1

> <Gold.Id.Protein>
6NUR|6NUR_protein|mol2

> <Gold.PLP.Fitness>
45.9484

> <Gold.PLP.PLP>
-38.9861

> <Gold.PLP.part.hbond>
-2.9531

> <Gold.PLP.part.metal>
0.0000

> <Gold.PLP.part.buried>
-5.6213

> <Gold.PLP.part.nonpolar>
-31.7012

> <Gold.PLP.part.repulsive>
0.5409

> <Gold.PLP.ligand.clash>
0.0000

> <Gold.PLP.ligand.torsion>
1.0023

> <Gold.PLP.Chemscore.Hbond>
2.9760

> <Gold.PLP.Chemscore.CHOScore>
0.0000

> <Gold.PLP.Chemscore.Metal>
0.0000

> <Gold.Chemscore.Hbonds>
donor molecule, donor type, donor heavy atom, donor atom, acceptor molecule, acceptor atom, score
      L1  H     2    24       P1  7948  1.00
      L1  H     6    39       P1  7957  1.00
      L1  H    10    32       P1  8028  1.00

> <Gold.PLP.Chemscore.Internal.Correction>
0.0390

> <Gold.Rescore>
     Score         DG    S(hbond)    S(metal)    S(lipo)     H(rot)  DE(clash)    DE(int)     intcor
     15.99     -19.69       2.94        0.00      76.03       1.76       0.00       3.70       ----

> <Gold.Chemscore.Fitness>
15.9892

> <Gold.Chemscore.DG>
-19.6932

> <Gold.Chemscore.ZeroCoef>
-5.4800

> <Gold.Chemscore.Hbond>
2.9415

> <Gold.Chemscore.Metal>
0.0000

> <Gold.Chemscore.Lipo>
76.0265

> <Gold.Chemscore.Internal_Hbond>
0.0000

> <Gold.Chemscore.DEClash>
0.0038

> <Gold.Chemscore.DEInternal>
3.7003

> <Gold.Chemscore.Rot>
1.7603

> <Gold.Chemscore.Internal.Correction>
   9.000000E+99

> <Gold.Chemscore.Hbonds>
donor molecule, donor type, donor heavy atom, donor atom, acceptor molecule, acceptor atom, score
      L1  H     2    24       P1  7948  0.95
      L1  H     6    39       P1  7957  0.99
      L1  H    10    32       P1  8028  0.92

> <Gold.Chemscore.Hbond.Weighted>
-9.8245

> <Gold.Chemscore.Metal.Weighted>
-0.0000

> <Gold.Chemscore.Lipo.Weighted>
-8.8951

> <Gold.Chemscore.Internal_Hbond.Weighted>
0.0000

> <Gold.Chemscore.DEClash.Weighted>
0.0038

> <Gold.Chemscore.DEInternal.Weighted>
3.7003

> <Gold.Chemscore.Rot.Weighted>
4.5064

> <Gold.Chemscore.Internal.Correction.Weighted>
   9.000000E+99

> <Gold.Protein.RotatedTorsions>
[ 6907 6896 6895 6894 ] final  166.07 input  -60.11 | X-H torsion
[ 7974 7965 7964 7962 ] final  108.17 input  175.53 | X-H torsion
[ 8008 7997 7996 7995 ] final -126.79 input   59.86 | X-H torsion
[ 10167 10162 10161 10158 ] final  105.82 input  -65.29 | X-H torsion
[ 10718 10713 10712 10709 ] final  -51.17 input   66.30 | X-H torsion
[ 10763 10752 10751 10750 ] final  -21.00 input  -60.55 | X-H torsion
[ 11005 11000 10999 10996 ] final   10.31 input  -57.11 | X-H torsion

> <Gold.Protein.ActiveResidues>
 VAL166  LYS551  ARG553  GLY616  TRP617  ASP618  TYR619  PRO620  LYS621  CYS622 
 ASP623  PHE694  ASN695  SER759  ASP760  ASP761  ALA762  ILE779  LEU786  VAL792 
 PHE793  MET794  SER795  GLU796  ALA797  LYS798  CYS799  TRP800  GLU811  SER814 

> <Gold.Protein.RotatedAtoms>
  151.8846  133.3502  159.3777 H   0  0  0  0  0  0  0  0  0  0  0  0  # atno 6907 bound_to 6896
  150.7119  134.4985  159.5559 H   0  0  0  0  0  0  0  0  0  0  0  0  # atno 6908 bound_to 6896
  152.2543  134.8100  160.0492 H   0  0  0  0  0  0  0  0  0  0  0  0  # atno 6909 bound_to 6896
  145.2841  139.2622  143.3900 H   0  0  0  0  0  0  0  0  0  0  0  0  # atno 7974 bound_to 7965
  155.2355  140.0427  157.2968 H   0  0  0  0  0  0  0  0  0  0  0  0  # atno 8008 bound_to 7997
  154.5861  140.2414  155.7955 H   0  0  0  0  0  0  0  0  0  0  0  0  # atno 8009 bound_to 7997
  156.2227  140.2964  156.0000 H   0  0  0  0  0  0  0  0  0  0  0  0  # atno 8010 bound_to 7997
  139.7061  144.7086  151.1105 H   0  0  0  0  0  0  0  0  0  0  0  0  # atno 10167 bound_to 10162
  156.1734  130.4149  149.9613 H   0  0  0  0  0  0  0  0  0  0  0  0  # atno 10718 bound_to 10713
  153.6293  135.6989  153.5281 H   0  0  0  0  0  0  0  0  0  0  0  0  # atno 10763 bound_to 10752
  153.2873  135.4167  155.1134 H   0  0  0  0  0  0  0  0  0  0  0  0  # atno 10764 bound_to 10752
  154.8526  135.3616  154.5835 H   0  0  0  0  0  0  0  0  0  0  0  0  # atno 10765 bound_to 10752
  140.5159  134.0606  155.7831 H   0  0  0  0  0  0  0  0  0  0  0  0  # atno 11005 bound_to 11000
  146.3207  140.3316  142.8641 LP  0  0  0  0  0  0  0  0  0  0  0  0  # atno 17320 bound_to 7965
  144.9228  140.7887  143.5737 LP  0  0  0  0  0  0  0  0  0  0  0  0  # atno 17321 bound_to 7965
  140.7722  143.5357  150.9371 LP  0  0  0  0  0  0  0  0  0  0  0  0  # atno 17342 bound_to 10162
  139.9040  143.6800  152.3126 LP  0  0  0  0  0  0  0  0  0  0  0  0  # atno 17343 bound_to 10162
  156.7405  130.9078  151.3632 LP  0  0  0  0  0  0  0  0  0  0  0  0  # atno 17370 bound_to 10713
  157.6819  130.9148  150.0288 LP  0  0  0  0  0  0  0  0  0  0  0  0  # atno 17371 bound_to 10713
  141.1360  133.9220  157.2432 LP  0  0  0  0  0  0  0  0  0  0  0  0  # atno 17394 bound_to 11000
  139.9632  135.0149  156.9318 LP  0  0  0  0  0  0  0  0  0  0  0  0  # atno 17395 bound_to 11000

$$$$
