AV-unprocessed.smi:2227|AV-procd|sdf|9021|dock1
  -GOLD-   2272012223D 1   1.00000     0.00000
 Structure written by MMmdl.
 43 45  0  0  0  0  0  0  0  0  2 V2000
  146.7277  140.3220  154.7995 C   0  0  0  0  0  0  0  0  0  0  0  0
  147.5501  140.0539  153.5311 C   0  0  0  0  0  0  0  0  0  0  0  0
  146.8610  139.0291  152.6177 C   0  0  0  0  0  0  0  0  0  0  0  0
  148.9547  139.6385  153.8745 C   0  0  0  0  0  0  0  0  0  0  0  0
  149.5200  138.4799  153.5112 N   0  3  0  0  0  0  0  0  0  0  0  0
  150.7899  138.3861  154.0091 C   0  0  0  0  0  0  0  0  0  0  0  0
  151.0109  139.5352  154.7203 C   0  0  0  0  0  0  0  0  0  0  0  0
  149.8658  140.2860  154.6274 N   0  0  0  0  0  0  0  0  0  0  0  0
  149.6508  141.5989  155.2541 C   0  0  0  0  0  0  0  0  0  0  0  0
  150.1637  141.6307  156.6958 C   0  0  0  0  0  0  0  0  0  0  0  0
  150.4251  140.5790  157.2793 O   0  0  0  0  0  0  0  0  0  0  0  0
  150.2898  142.8433  157.2565 N   0  0  0  0  0  0  0  0  0  0  0  0
  150.7460  143.1105  158.6163 C   0  0  0  0  0  0  0  0  0  0  0  0
  150.7078  144.5952  158.9313 C   0  0  0  0  0  0  0  0  0  0  0  0
  151.9727  145.4116  159.0535 C   0  0  0  0  0  0  0  0  0  0  0  0
  151.1405  145.1174  160.2807 C   0  0  0  0  0  0  0  0  0  0  0  0
  152.1331  142.5486  158.8828 C   0  0  0  0  0  0  0  0  0  0  0  0
  152.3246  141.1951  159.5261 C   0  0  0  0  0  0  0  0  0  0  0  0
  152.6881  142.4506  160.2846 C   0  0  0  0  0  0  0  0  0  0  0  0
  147.2000  141.0835  155.4211 H   0  0  0  0  0  0  0  0  0  0  0  0
  146.6222  139.4200  155.4028 H   0  0  0  0  0  0  0  0  0  0  0  0
  145.7263  140.6747  154.5514 H   0  0  0  0  0  0  0  0  0  0  0  0
  147.6206  140.9866  152.9745 H   0  0  0  0  0  0  0  0  0  0  0  0
  147.4308  138.8769  151.7006 H   0  0  0  0  0  0  0  0  0  0  0  0
  145.8645  139.3673  152.3328 H   0  0  0  0  0  0  0  0  0  0  0  0
  146.7535  138.0613  153.1084 H   0  0  0  0  0  0  0  0  0  0  0  0
  151.4222  137.5289  153.8292 H   0  0  0  0  0  0  0  0  0  0  0  0
  151.8758  139.8637  155.2784 H   0  0  0  0  0  0  0  0  0  0  0  0
  150.1883  142.3470  154.6702 H   0  0  0  0  0  0  0  0  0  0  0  0
  148.5913  141.8510  155.1914 H   0  0  0  0  0  0  0  0  0  0  0  0
  150.0525  143.6494  156.6962 H   0  0  0  0  0  0  0  0  0  0  0  0
  150.0563  142.6242  159.3094 H   0  0  0  0  0  0  0  0  0  0  0  0
  149.8644  145.1110  158.4752 H   0  0  0  0  0  0  0  0  0  0  0  0
  152.9264  144.8958  158.9644 H   0  0  0  0  0  0  0  0  0  0  0  0
  151.9538  146.4274  158.6640 H   0  0  0  0  0  0  0  0  0  0  0  0
  150.5665  145.9359  160.7099 H   0  0  0  0  0  0  0  0  0  0  0  0
  151.5469  144.4067  160.9972 H   0  0  0  0  0  0  0  0  0  0  0  0
  152.8578  142.8093  158.1134 H   0  0  0  0  0  0  0  0  0  0  0  0
  151.4388  140.6547  159.8534 H   0  0  0  0  0  0  0  0  0  0  0  0
  153.1386  140.5751  159.1562 H   0  0  0  0  0  0  0  0  0  0  0  0
  153.7454  142.6683  160.4218 H   0  0  0  0  0  0  0  0  0  0  0  0
  152.0425  142.7340  161.1131 H   0  0  0  0  0  0  0  0  0  0  0  0
  149.0653  137.7721  152.9484 H   0  0  0  0  0  0  0  0  0  0  0  0
  1  2  1  0  0  0  0
  1 20  1  0  0  0  0
  1 21  1  0  0  0  0
  1 22  1  0  0  0  0
  2  3  1  0  0  0  0
  2  4  1  0  0  0  0
  2 23  1  0  0  0  0
  3 24  1  0  0  0  0
  3 25  1  0  0  0  0
  3 26  1  0  0  0  0
  4  8  1  0  0  0  0
  4  5  2  0  0  0  0
  5  6  1  0  0  0  0
  5 43  1  0  0  0  0
  6  7  2  0  0  0  0
  6 27  1  0  0  0  0
  7  8  1  0  0  0  0
  7 28  1  0  0  0  0
  8  9  1  0  0  0  0
  9 10  1  0  0  0  0
  9 29  1  0  0  0  0
  9 30  1  0  0  0  0
 10 11  2  0  0  0  0
 10 12  1  0  0  0  0
 12 13  1  0  0  0  0
 12 31  1  0  0  0  0
 13 14  1  0  0  0  0
 13 17  1  0  0  0  0
 13 32  1  0  0  0  0
 14 16  1  0  0  0  0
 14 15  1  0  0  0  0
 14 33  1  0  0  0  0
 15 16  1  0  0  0  0
 15 34  1  0  0  0  0
 15 35  1  0  0  0  0
 16 36  1  0  0  0  0
 16 37  1  0  0  0  0
 17 19  1  0  0  0  0
 17 18  1  0  0  0  0
 17 38  1  0  0  0  0
 18 19  1  0  0  0  0
 18 39  1  0  0  0  0
 18 40  1  0  0  0  0
 19 41  1  0  0  0  0
 19 42  1  0  0  0  0
M  CHG  1   5   1
M  END
> <s_m_source_file>
AV-unprocessed.smi

> <i_m_source_file_index>
2227

> <i_lp_mmshare_version>
43012

> <i_f3d_flags>
0

> <s_epik_input>
W0NIM11bQ0hdKFtDSDNdKWMxbltjSF1bY0hdbjFbQ0gyXUMoPU8pW05IXVtDSF0oW0NIXTJbQ0gyXVtDSDJdMilbQ0hdM1tDSDJdW0NIMl0z

> <s_epik_cmdline>
J2VwaWtfcHl0aG9uJywgJy1waCcsICc3LjAnLCAnLXRuJywgJzgnLCAnLW1hJywgJzIwMCcsICctbWV0YWxfYmluZGluZycsICctaW1hZScsICc8aW5maWxlLm1hZT4nLCAnLW9tYWUnLCAnPG91dGZpbGUubWFlPic=

> <r_lp_tautomer_probability>
1

> <r_epik_Ionization_Penalty>
0.258813

> <r_epik_Ionization_Penalty_Charging>
0

> <r_epik_Ionization_Penalty_Neutral>
0.258813

> <r_epik_State_Penalty>
0.250457

> <r_epik_Charging_Adjusted_Penalty>
0.250457

> <i_epik_Tot_Q>
1

> <i_epik_Tot_abs_Q>
1

> <r_epik_Metal_State_Penalty>
0.539096

> <b_epik_Metal_Only>
0

> <s_lp_Force_Field>
OPLS_2005

> <r_lp_Energy>
28.4044

> <b_lp_Chiralities_Consistent>
1

> <s_lp_Variant>
AV-unprocessed.smi:2227-1

> <Gold.Version>
5.8.1

> <Gold.Id.Protein>
6NUR|6NUR_protein|mol2

> <Gold.PLP.Fitness>
53.6303

> <Gold.PLP.PLP>
-45.8295

> <Gold.PLP.part.hbond>
-3.0000

> <Gold.PLP.part.metal>
0.0000

> <Gold.PLP.part.buried>
-1.1374

> <Gold.PLP.part.nonpolar>
-41.9174

> <Gold.PLP.part.repulsive>
0.0853

> <Gold.PLP.ligand.clash>
0.0000

> <Gold.PLP.ligand.torsion>
1.6478

> <Gold.PLP.Chemscore.Hbond>
2.9600

> <Gold.PLP.Chemscore.CHOScore>
0.0000

> <Gold.PLP.Chemscore.Metal>
0.0000

> <Gold.Chemscore.Hbonds>
donor molecule, donor type, donor heavy atom, donor atom, acceptor molecule, acceptor atom, score
      L1  H     5    43       P1  7948  2.00
      L1  H    12    31       P1  8028  1.00

> <Gold.PLP.Chemscore.Internal.Correction>
2.2164

> <Gold.Rescore>
     Score         DG    S(hbond)    S(metal)    S(lipo)     H(rot)  DE(clash)    DE(int)     intcor
     16.42     -20.82       1.79        0.00     118.06       1.74       0.57       3.83       ----

> <Gold.Chemscore.Fitness>
16.4177

> <Gold.Chemscore.DG>
-20.8198

> <Gold.Chemscore.ZeroCoef>
-5.4800

> <Gold.Chemscore.Hbond>
1.7901

> <Gold.Chemscore.Metal>
0.0000

> <Gold.Chemscore.Lipo>
118.0602

> <Gold.Chemscore.Internal_Hbond>
0.0000

> <Gold.Chemscore.DEClash>
0.5743

> <Gold.Chemscore.DEInternal>
3.8278

> <Gold.Chemscore.Rot>
1.7392

> <Gold.Chemscore.Internal.Correction>
   9.000000E+99

> <Gold.Chemscore.Hbonds>
donor molecule, donor type, donor heavy atom, donor atom, acceptor molecule, acceptor atom, score
      L1  H     5    43       P1  7948  0.98
      L1  H    12    31       P1  8028  0.98

> <Gold.Chemscore.Hbond.Weighted>
-5.9791

> <Gold.Chemscore.Metal.Weighted>
-0.0000

> <Gold.Chemscore.Lipo.Weighted>
-13.8130

> <Gold.Chemscore.Internal_Hbond.Weighted>
0.0000

> <Gold.Chemscore.DEClash.Weighted>
0.5743

> <Gold.Chemscore.DEInternal.Weighted>
3.8278

> <Gold.Chemscore.Rot.Weighted>
4.4524

> <Gold.Chemscore.Internal.Correction.Weighted>
   9.000000E+99

> <Gold.Protein.RotatedTorsions>
[ 6907 6896 6895 6894 ] final  152.58 input  -60.11 | X-H torsion
[ 7974 7965 7964 7962 ] final  168.88 input  175.53 | X-H torsion
[ 8008 7997 7996 7995 ] final   92.69 input   59.86 | X-H torsion
[ 10167 10162 10161 10158 ] final  133.07 input  -65.29 | X-H torsion
[ 10718 10713 10712 10709 ] final -159.31 input   66.30 | X-H torsion
[ 10763 10752 10751 10750 ] final    3.59 input  -60.55 | X-H torsion
[ 11005 11000 10999 10996 ] final  -53.11 input  -57.11 | X-H torsion

> <Gold.Protein.ActiveResidues>
 VAL166  LYS551  ARG553  GLY616  TRP617  ASP618  TYR619  PRO620  LYS621  CYS622 
 ASP623  PHE694  ASN695  SER759  ASP760  ASP761  ALA762  ILE779  LEU786  VAL792 
 PHE793  MET794  SER795  GLU796  ALA797  LYS798  CYS799  TRP800  GLU811  SER814 

> <Gold.Protein.RotatedAtoms>
  152.0847  133.4170  159.4516 H   0  0  0  0  0  0  0  0  0  0  0  0  # atno 6907 bound_to 6896
  150.6862  134.2941  159.4688 H   0  0  0  0  0  0  0  0  0  0  0  0  # atno 6908 bound_to 6896
  152.0786  134.9485  160.0624 H   0  0  0  0  0  0  0  0  0  0  0  0  # atno 6909 bound_to 6896
  144.7373  139.8972  143.6407 H   0  0  0  0  0  0  0  0  0  0  0  0  # atno 7974 bound_to 7965
  156.0383  140.3322  155.7215 H   0  0  0  0  0  0  0  0  0  0  0  0  # atno 8008 bound_to 7997
  155.5783  140.0634  157.2807 H   0  0  0  0  0  0  0  0  0  0  0  0  # atno 8009 bound_to 7997
  154.4382  140.1848  156.0938 H   0  0  0  0  0  0  0  0  0  0  0  0  # atno 8010 bound_to 7997
  139.5313  144.6633  151.4942 H   0  0  0  0  0  0  0  0  0  0  0  0  # atno 10167 bound_to 10162
  156.5663  130.8669  151.2824 H   0  0  0  0  0  0  0  0  0  0  0  0  # atno 10718 bound_to 10713
  153.2815  135.6941  153.7381 H   0  0  0  0  0  0  0  0  0  0  0  0  # atno 10763 bound_to 10752
  153.6366  135.3400  155.3059 H   0  0  0  0  0  0  0  0  0  0  0  0  # atno 10764 bound_to 10752
  154.8496  135.4421  154.1870 H   0  0  0  0  0  0  0  0  0  0  0  0  # atno 10765 bound_to 10752
  141.0959  133.6625  156.4123 H   0  0  0  0  0  0  0  0  0  0  0  0  # atno 11005 bound_to 11000
  146.1098  139.4102  143.0294 LP  0  0  0  0  0  0  0  0  0  0  0  0  # atno 17320 bound_to 7965
  145.7459  140.9991  143.1276 LP  0  0  0  0  0  0  0  0  0  0  0  0  # atno 17321 bound_to 7965
  140.6492  143.8731  150.6768 LP  0  0  0  0  0  0  0  0  0  0  0  0  # atno 17342 bound_to 10162
  140.2091  143.3898  152.1732 LP  0  0  0  0  0  0  0  0  0  0  0  0  # atno 17343 bound_to 10162
  157.7358  130.9768  150.2100 LP  0  0  0  0  0  0  0  0  0  0  0  0  # atno 17370 bound_to 10713
  156.2754  130.3727  149.7989 LP  0  0  0  0  0  0  0  0  0  0  0  0  # atno 17371 bound_to 10713
  140.5141  134.6367  157.5295 LP  0  0  0  0  0  0  0  0  0  0  0  0  # atno 17394 bound_to 11000
  139.9796  134.7160  155.9885 LP  0  0  0  0  0  0  0  0  0  0  0  0  # atno 17395 bound_to 11000

$$$$
