AV-unprocessed.smi:3031|AV-procd|sdf|11541|dock2
  -GOLD-   2272016493D 1   1.00000     0.00000
 Structure written by MMmdl.
 47 48  0  0  0  0  0  0  0  0  2 V2000
  145.3433  129.2744  151.9086 C   0  0  0  0  0  0  0  0  0  0  0  0
  145.2184  130.7096  151.4853 C   0  0  0  0  0  0  0  0  0  0  0  0
  144.0858  131.3600  150.9175 C   0  0  0  0  0  0  0  0  0  0  0  0
  144.3055  132.6380  150.6546 N   0  0  0  0  0  0  0  0  0  0  0  0
  145.5807  132.8478  151.0442 N   0  0  0  0  0  0  0  0  0  0  0  0
  146.1752  134.1627  150.8894 C   0  0  0  0  0  0  0  0  0  0  0  0
  145.3446  135.2787  151.5573 C   0  0  2  0  0  0  0  0  0  0  0  0
  143.9528  135.3752  150.9181 C   0  0  0  0  0  0  0  0  0  0  0  0
  146.0249  136.5898  151.4519 N   0  3  0  0  0  0  0  0  0  0  0  0
  145.7313  137.5393  152.5473 C   0  0  0  0  0  0  0  0  0  0  0  0
  146.5733  138.8222  152.4196 C   0  0  2  0  0  0  0  0  0  0  0  0
  147.7329  138.4928  151.6795 O   0  0  0  0  0  0  0  0  0  0  0  0
  147.0697  139.4308  153.7516 C   0  0  0  0  0  0  0  0  0  0  0  0
  146.2930  140.5571  154.2780 N   0  0  0  0  0  0  0  0  0  0  0  0
  146.4253  140.7059  155.7281 C   0  0  0  0  0  0  0  0  0  0  0  0
  145.6179  141.9029  156.2605 C   0  0  0  0  0  0  0  0  0  0  0  0
  146.0405  143.0924  155.6035 O   0  0  0  0  0  0  0  0  0  0  0  0
  145.9037  143.0145  154.1890 C   0  0  0  0  0  0  0  0  0  0  0  0
  146.7081  141.8144  153.6593 C   0  0  0  0  0  0  0  0  0  0  0  0
  146.1551  131.7018  151.5510 C   0  0  0  0  0  0  0  0  0  0  0  0
  144.3871  128.7526  151.8622 H   0  0  0  0  0  0  0  0  0  0  0  0
  145.7062  129.1874  152.9330 H   0  0  0  0  0  0  0  0  0  0  0  0
  146.0388  128.7271  151.2722 H   0  0  0  0  0  0  0  0  0  0  0  0
  143.1161  130.9427  150.6885 H   0  0  0  0  0  0  0  0  0  0  0  0
  147.1902  134.1455  151.2906 H   0  0  0  0  0  0  0  0  0  0  0  0
  146.2704  134.3581  149.8204 H   0  0  0  0  0  0  0  0  0  0  0  0
  145.1998  135.0321  152.6106 H   0  0  0  0  0  0  0  0  0  0  0  0
  143.4131  134.4318  151.0083 H   0  0  0  0  0  0  0  0  0  0  0  0
  144.0171  135.6207  149.8573 H   0  0  0  0  0  0  0  0  0  0  0  0
  143.3499  136.1439  151.4027 H   0  0  0  0  0  0  0  0  0  0  0  0
  147.0227  136.4325  151.4185 H   0  0  0  0  0  0  0  0  0  0  0  0
  144.6715  137.7718  152.4749 H   0  0  0  0  0  0  0  0  0  0  0  0
  145.9000  137.0710  153.5170 H   0  0  0  0  0  0  0  0  0  0  0  0
  146.0202  139.5766  151.8585 H   0  0  0  0  0  0  0  0  0  0  0  0
  148.3493  139.2060  151.7516 H   0  0  0  0  0  0  0  0  0  0  0  0
  147.1819  138.6563  154.5120 H   0  0  0  0  0  0  0  0  0  0  0  0
  148.0845  139.7838  153.5587 H   0  0  0  0  0  0  0  0  0  0  0  0
  146.0965  139.8116  156.2482 H   0  0  0  0  0  0  0  0  0  0  0  0
  147.4757  140.8423  155.9905 H   0  0  0  0  0  0  0  0  0  0  0  0
  144.5492  141.7498  156.1024 H   0  0  0  0  0  0  0  0  0  0  0  0
  145.7705  142.0163  157.3341 H   0  0  0  0  0  0  0  0  0  0  0  0
  144.8498  142.9212  153.9228 H   0  0  0  0  0  0  0  0  0  0  0  0
  146.2662  143.9411  153.7438 H   0  0  0  0  0  0  0  0  0  0  0  0
  147.7711  141.9835  153.8396 H   0  0  0  0  0  0  0  0  0  0  0  0
  146.5808  141.7555  152.5777 H   0  0  0  0  0  0  0  0  0  0  0  0
  147.1738  131.6863  151.9096 H   0  0  0  0  0  0  0  0  0  0  0  0
  145.7410  137.0268  150.5870 H   0  0  0  0  0  0  0  0  0  0  0  0
  1  2  1  0  0  0  0
  1 21  1  0  0  0  0
  1 22  1  0  0  0  0
  1 23  1  0  0  0  0
  2 20  2  0  0  0  0
  2  3  1  0  0  0  0
  3  4  2  0  0  0  0
  3 24  1  0  0  0  0
  4  5  1  0  0  0  0
  5  6  1  0  0  0  0
  5 20  1  0  0  0  0
  6  7  1  0  0  0  0
  6 25  1  0  0  0  0
  6 26  1  0  0  0  0
  7  8  1  0  0  0  0
  7  9  1  0  0  0  0
  7 27  1  0  0  0  0
  8 28  1  0  0  0  0
  8 29  1  0  0  0  0
  8 30  1  0  0  0  0
  9 10  1  0  0  0  0
  9 31  1  0  0  0  0
  9 47  1  0  0  0  0
 10 11  1  0  0  0  0
 10 32  1  0  0  0  0
 10 33  1  0  0  0  0
 11 12  1  0  0  0  0
 11 13  1  0  0  0  0
 11 34  1  0  0  0  0
 12 35  1  0  0  0  0
 13 14  1  0  0  0  0
 13 36  1  0  0  0  0
 13 37  1  0  0  0  0
 14 19  1  0  0  0  0
 14 15  1  0  0  0  0
 15 16  1  0  0  0  0
 15 38  1  0  0  0  0
 15 39  1  0  0  0  0
 16 17  1  0  0  0  0
 16 40  1  0  0  0  0
 16 41  1  0  0  0  0
 17 18  1  0  0  0  0
 18 19  1  0  0  0  0
 18 42  1  0  0  0  0
 18 43  1  0  0  0  0
 19 44  1  0  0  0  0
 19 45  1  0  0  0  0
 20 46  1  0  0  0  0
M  CHG  1   9   1
M  END
> <s_m_source_file>
AV-unprocessed.smi

> <i_m_source_file_index>
3031

> <i_lp_mmshare_version>
43012

> <i_f3d_flags>
0

> <s_epik_input>
W0NIM11jMVtjSF1ubihbY0hdMSlbQ0gyXVtDQEhdKFtDSDNdKVtOSF1bQ0gyXVtDQEhdKFtPSF0pW0NIMl1OMltDSDJdW0NIMl1PW0NIMl1bQ0gyXTI=

> <s_epik_cmdline>
J2VwaWtfcHl0aG9uJywgJy1waCcsICc3LjAnLCAnLXRuJywgJzgnLCAnLW1hJywgJzIwMCcsICctbWV0YWxfYmluZGluZycsICctaW1hZScsICc8aW5maWxlLm1hZT4nLCAnLW9tYWUnLCAnPG91dGZpbGUubWFlPic=

> <r_lp_tautomer_probability>
1

> <r_epik_Ionization_Penalty>
0.108564

> <r_epik_Ionization_Penalty_Charging>
0.01811

> <r_epik_Ionization_Penalty_Neutral>
0.0904541

> <r_epik_State_Penalty>
0.141043

> <r_epik_Charging_Adjusted_Penalty>
0.159153

> <i_epik_Tot_Q>
1

> <i_epik_Tot_abs_Q>
1

> <r_epik_Metal_State_Penalty>
0.141052

> <b_epik_Metal_Only>
0

> <s_lp_Force_Field>
OPLS_2005

> <r_lp_Energy>
31.5788

> <b_lp_Chiralities_Consistent>
1

> <s_lp_Variant>
AV-unprocessed.smi:3031-1

> <Gold.Version>
5.8.1

> <Gold.Id.Protein>
6NUR|6NUR_protein|mol2

> <Gold.PLP.Fitness>
49.7366

> <Gold.PLP.PLP>
-35.7732

> <Gold.PLP.part.hbond>
-3.7391

> <Gold.PLP.part.metal>
0.0000

> <Gold.PLP.part.buried>
-5.7521

> <Gold.PLP.part.nonpolar>
-28.5306

> <Gold.PLP.part.repulsive>
0.5312

> <Gold.PLP.ligand.clash>
0.0000

> <Gold.PLP.ligand.torsion>
1.6704

> <Gold.PLP.Chemscore.Hbond>
3.8712

> <Gold.PLP.Chemscore.CHOScore>
1.8217

> <Gold.PLP.Chemscore.Metal>
0.0000

> <Gold.Chemscore.Hbonds>
donor molecule, donor type, donor heavy atom, donor atom, acceptor molecule, acceptor atom, score
      L1  H     9    31       P1  7948  2.00
      L1  H    12    35       P1  7957  0.96
      P1  H  7954  7966       L1    12  0.91
      L1  C     3    24       P1 10952  0.78
      L1  C    20    46       P1 10747  0.67

> <Gold.PLP.Chemscore.Internal.Correction>
0.2257

> <Gold.Rescore>
     Score         DG    S(hbond)    S(metal)    S(lipo)     H(rot)  DE(clash)    DE(int)     intcor
     13.61     -16.57       2.13        0.00      91.62       2.63       0.05       2.91       ----

> <Gold.Chemscore.Fitness>
13.6065

> <Gold.Chemscore.DG>
-16.5724

> <Gold.Chemscore.ZeroCoef>
-5.4800

> <Gold.Chemscore.Hbond>
2.1250

> <Gold.Chemscore.Metal>
0.0000

> <Gold.Chemscore.Lipo>
91.6241

> <Gold.Chemscore.Internal_Hbond>
0.0000

> <Gold.Chemscore.DEClash>
0.0550

> <Gold.Chemscore.DEInternal>
2.9109

> <Gold.Chemscore.Rot>
2.6270

> <Gold.Chemscore.Internal.Correction>
   9.000000E+99

> <Gold.Chemscore.Hbonds>
donor molecule, donor type, donor heavy atom, donor atom, acceptor molecule, acceptor atom, score
      L1  H     9    31       P1  7948  0.99
      L1  H    12    35       P1  7957  0.89
      P1  H  7954  7966       L1    12  0.20

> <Gold.Chemscore.Hbond.Weighted>
-7.0975

> <Gold.Chemscore.Metal.Weighted>
-0.0000

> <Gold.Chemscore.Lipo.Weighted>
-10.7200

> <Gold.Chemscore.Internal_Hbond.Weighted>
0.0000

> <Gold.Chemscore.DEClash.Weighted>
0.0550

> <Gold.Chemscore.DEInternal.Weighted>
2.9109

> <Gold.Chemscore.Rot.Weighted>
6.7251

> <Gold.Chemscore.Internal.Correction.Weighted>
   9.000000E+99

> <Gold.Protein.RotatedTorsions>
[ 6907 6896 6895 6894 ] final -103.78 input  -60.11 | X-H torsion
[ 7974 7965 7964 7962 ] final   30.98 input  175.53 | X-H torsion
[ 8008 7997 7996 7995 ] final  -68.48 input   59.86 | X-H torsion
[ 10167 10162 10161 10158 ] final  -26.22 input  -65.29 | X-H torsion
[ 10718 10713 10712 10709 ] final  -43.27 input   66.30 | X-H torsion
[ 10763 10752 10751 10750 ] final  114.90 input  -60.55 | X-H torsion
[ 11005 11000 10999 10996 ] final -141.86 input  -57.11 | X-H torsion

> <Gold.Protein.ActiveResidues>
 VAL166  LYS551  ARG553  GLY616  TRP617  ASP618  TYR619  PRO620  LYS621  CYS622 
 ASP623  PHE694  ASN695  SER759  ASP760  ASP761  ALA762  ILE779  LEU786  VAL792 
 PHE793  MET794  SER795  GLU796  ALA797  LYS798  CYS799  TRP800  GLU811  SER814 

> <Gold.Protein.RotatedAtoms>
  150.7256  134.0377  159.3754 H   0  0  0  0  0  0  0  0  0  0  0  0  # atno 6907 bound_to 6896
  151.8349  135.0607  160.0450 H   0  0  0  0  0  0  0  0  0  0  0  0  # atno 6908 bound_to 6896
  152.2906  133.5521  159.5591 H   0  0  0  0  0  0  0  0  0  0  0  0  # atno 6909 bound_to 6896
  146.1578  139.6716  142.9054 H   0  0  0  0  0  0  0  0  0  0  0  0  # atno 7974 bound_to 7965
  154.4871  140.0872  156.7510 H   0  0  0  0  0  0  0  0  0  0  0  0  # atno 8008 bound_to 7997
  155.4324  140.3450  155.4263 H   0  0  0  0  0  0  0  0  0  0  0  0  # atno 8009 bound_to 7997
  156.1276  140.1492  156.9101 H   0  0  0  0  0  0  0  0  0  0  0  0  # atno 8010 bound_to 7997
  140.7283  143.4197  151.0971 H   0  0  0  0  0  0  0  0  0  0  0  0  # atno 10167 bound_to 10162
  156.2507  130.4188  149.8652 H   0  0  0  0  0  0  0  0  0  0  0  0  # atno 10718 bound_to 10713
  153.5142  135.3611  155.2601 H   0  0  0  0  0  0  0  0  0  0  0  0  # atno 10763 bound_to 10752
  154.8740  135.4030  154.3334 H   0  0  0  0  0  0  0  0  0  0  0  0  # atno 10764 bound_to 10752
  153.3993  135.7074  153.6505 H   0  0  0  0  0  0  0  0  0  0  0  0  # atno 10765 bound_to 10752
  140.8283  134.2548  157.4869 H   0  0  0  0  0  0  0  0  0  0  0  0  # atno 11005 bound_to 11000
  145.4664  141.0434  143.2723 LP  0  0  0  0  0  0  0  0  0  0  0  0  # atno 17320 bound_to 7965
  144.7986  139.6184  143.7081 LP  0  0  0  0  0  0  0  0  0  0  0  0  # atno 17321 bound_to 7965
  139.7841  143.8313  152.3142 LP  0  0  0  0  0  0  0  0  0  0  0  0  # atno 17342 bound_to 10162
  139.8274  144.7269  150.9494 LP  0  0  0  0  0  0  0  0  0  0  0  0  # atno 17343 bound_to 10162
  156.6202  130.8623  151.3473 LP  0  0  0  0  0  0  0  0  0  0  0  0  # atno 17370 bound_to 10713
  157.7213  130.9563  150.1451 LP  0  0  0  0  0  0  0  0  0  0  0  0  # atno 17371 bound_to 10713
  139.8706  134.9572  156.4262 LP  0  0  0  0  0  0  0  0  0  0  0  0  # atno 17394 bound_to 11000
  140.9026  133.7769  155.9698 LP  0  0  0  0  0  0  0  0  0  0  0  0  # atno 17395 bound_to 11000

$$$$
