AV-unprocessed.smi:502|AV-procd|sdf|2744|dock3
  -GOLD-   2262023203D 1   1.00000     0.00000
 Structure written by MMmdl.
 48 50  0  0  0  0  0  0  0  0  1 V2000
  157.5822  137.2160  155.2803 C   0  0  0  0  0  0  0  0  0  0  0  0
  156.5202  136.9993  156.3521 C   0  0  0  0  0  0  0  0  0  0  0  0
  155.6020  136.2028  156.1607 O   0  0  0  0  0  0  0  0  0  0  0  0
  156.6517  137.7242  157.4725 N   0  0  0  0  0  0  0  0  0  0  0  0
  155.7406  137.6759  158.6117 C   0  0  0  0  0  0  0  0  0  0  0  0
  156.4084  138.1171  159.9282 C   0  0  0  0  0  0  0  0  0  0  0  0
  155.9067  137.3811  161.1382 C   0  0  0  0  0  0  0  0  0  0  0  0
  155.9010  136.0480  161.1843 N   0  0  0  0  0  0  0  0  0  0  0  0
  155.3645  135.7863  162.4291 C   0  0  0  0  0  0  0  0  0  0  0  0
  155.0924  134.5576  163.0723 C   0  0  0  0  0  0  0  0  0  0  0  0
  154.5256  134.5377  164.3635 C   0  0  0  0  0  0  0  0  0  0  0  0
  154.2247  135.7435  165.0293 C   0  0  0  0  0  0  0  0  0  0  0  0
  154.4902  136.9784  164.4070 C   0  0  0  0  0  0  0  0  0  0  0  0
  155.0563  136.9928  163.1178 C   0  0  0  0  0  0  0  0  0  0  0  0
  155.4261  138.0097  162.2422 N   0  0  0  0  0  0  0  0  0  0  0  0
  155.2868  139.4381  162.4897 C   0  0  0  0  0  0  0  0  0  0  0  0
  154.4451  140.1287  161.4075 C   0  0  0  0  0  0  0  0  0  0  0  0
  153.9901  141.3796  161.9051 O   0  0  0  0  0  0  0  0  0  0  0  0
  153.2016  142.1668  161.0937 C   0  0  0  0  0  0  0  0  0  0  0  0
  153.0381  141.9464  159.7025 C   0  0  0  0  0  0  0  0  0  0  0  0
  152.2181  142.7961  158.9359 C   0  0  0  0  0  0  0  0  0  0  0  0
  151.5533  143.8745  159.5465 C   0  0  0  0  0  0  0  0  0  0  0  0
  151.7082  144.1023  160.9260 C   0  0  0  0  0  0  0  0  0  0  0  0
  152.5282  143.2534  161.6989 C   0  0  0  0  0  0  0  0  0  0  0  0
  152.6799  143.5067  163.1875 C   0  0  0  0  0  0  0  0  0  0  0  0
  158.5628  136.9152  155.6499 H   0  0  0  0  0  0  0  0  0  0  0  0
  157.6261  138.2678  154.9959 H   0  0  0  0  0  0  0  0  0  0  0  0
  157.3581  136.6302  154.3881 H   0  0  0  0  0  0  0  0  0  0  0  0
  157.4351  138.3579  157.5408 H   0  0  0  0  0  0  0  0  0  0  0  0
  154.8554  138.2833  158.4163 H   0  0  0  0  0  0  0  0  0  0  0  0
  155.3885  136.6487  158.7086 H   0  0  0  0  0  0  0  0  0  0  0  0
  157.4899  138.0211  159.8452 H   0  0  0  0  0  0  0  0  0  0  0  0
  156.2251  139.1812  160.0814 H   0  0  0  0  0  0  0  0  0  0  0  0
  155.3175  133.6285  162.5698 H   0  0  0  0  0  0  0  0  0  0  0  0
  154.3194  133.5931  164.8451 H   0  0  0  0  0  0  0  0  0  0  0  0
  153.7886  135.7202  166.0172 H   0  0  0  0  0  0  0  0  0  0  0  0
  154.2546  137.9033  164.9121 H   0  0  0  0  0  0  0  0  0  0  0  0
  154.8191  139.5756  163.4650 H   0  0  0  0  0  0  0  0  0  0  0  0
  156.2709  139.8974  162.5623 H   0  0  0  0  0  0  0  0  0  0  0  0
  155.0494  140.2731  160.5111 H   0  0  0  0  0  0  0  0  0  0  0  0
  153.5949  139.4976  161.1444 H   0  0  0  0  0  0  0  0  0  0  0  0
  153.5349  141.1321  159.1977 H   0  0  0  0  0  0  0  0  0  0  0  0
  152.1004  142.6201  157.8768 H   0  0  0  0  0  0  0  0  0  0  0  0
  150.9251  144.5262  158.9573 H   0  0  0  0  0  0  0  0  0  0  0  0
  151.1934  144.9317  161.3888 H   0  0  0  0  0  0  0  0  0  0  0  0
  152.0843  144.3609  163.5109 H   0  0  0  0  0  0  0  0  0  0  0  0
  153.7231  143.7071  163.4332 H   0  0  0  0  0  0  0  0  0  0  0  0
  152.3556  142.6340  163.7554 H   0  0  0  0  0  0  0  0  0  0  0  0
  1  2  1  0  0  0  0
  1 26  1  0  0  0  0
  1 27  1  0  0  0  0
  1 28  1  0  0  0  0
  2  3  2  0  0  0  0
  2  4  1  0  0  0  0
  4  5  1  0  0  0  0
  4 29  1  0  0  0  0
  5  6  1  0  0  0  0
  5 30  1  0  0  0  0
  5 31  1  0  0  0  0
  6  7  1  0  0  0  0
  6 32  1  0  0  0  0
  6 33  1  0  0  0  0
  7 15  1  0  0  0  0
  7  8  2  0  0  0  0
  8  9  1  0  0  0  0
  9 14  2  0  0  0  0
  9 10  1  0  0  0  0
 10 11  2  0  0  0  0
 10 34  1  0  0  0  0
 11 12  1  0  0  0  0
 11 35  1  0  0  0  0
 12 13  2  0  0  0  0
 12 36  1  0  0  0  0
 13 14  1  0  0  0  0
 13 37  1  0  0  0  0
 14 15  1  0  0  0  0
 15 16  1  0  0  0  0
 16 17  1  0  0  0  0
 16 38  1  0  0  0  0
 16 39  1  0  0  0  0
 17 18  1  0  0  0  0
 17 40  1  0  0  0  0
 17 41  1  0  0  0  0
 18 19  1  0  0  0  0
 19 24  1  0  0  0  0
 19 20  2  0  0  0  0
 20 21  1  0  0  0  0
 20 42  1  0  0  0  0
 21 22  2  0  0  0  0
 21 43  1  0  0  0  0
 22 23  1  0  0  0  0
 22 44  1  0  0  0  0
 23 24  2  0  0  0  0
 23 45  1  0  0  0  0
 24 25  1  0  0  0  0
 25 46  1  0  0  0  0
 25 47  1  0  0  0  0
 25 48  1  0  0  0  0
M  END
> <s_m_source_file>
AV-unprocessed.smi

> <i_m_source_file_index>
502

> <i_lp_mmshare_version>
43012

> <i_f3d_flags>
0

> <s_epik_input>
W0NIM11DKD1PKVtOSF1bQ0gyXVtDSDJdYyhuMSluKGMoYzEyKVtjSF1bY0hdW2NIXVtjSF0yKVtDSDJdW0NIMl1PYzNbY0hdW2NIXVtjSF1bY0hdYzNbQ0gzXQ==

> <s_epik_cmdline>
J2VwaWtfcHl0aG9uJywgJy1waCcsICc3LjAnLCAnLXRuJywgJzgnLCAnLW1hJywgJzIwMCcsICctbWV0YWxfYmluZGluZycsICctaW1hZScsICc8aW5maWxlLm1hZT4nLCAnLW9tYWUnLCAnPG91dGZpbGUubWFlPic=

> <r_lp_tautomer_probability>
1

> <r_epik_Ionization_Penalty>
0.0991824

> <r_epik_Ionization_Penalty_Charging>
0

> <r_epik_Ionization_Penalty_Neutral>
0.0991824

> <r_epik_State_Penalty>
0.0892428

> <r_epik_Charging_Adjusted_Penalty>
0.0892428

> <i_epik_Tot_Q>
0

> <i_epik_Tot_abs_Q>
0

> <r_epik_Metal_State_Penalty>
0.076345

> <b_epik_Metal_Only>
0

> <s_lp_Force_Field>
OPLS_2005

> <r_lp_Energy>
12.9543

> <b_lp_Chiralities_Consistent>
1

> <s_lp_Variant>
AV-unprocessed.smi:502-1

> <Gold.Version>
5.8.1

> <Gold.Id.Protein>
6NUR|6NUR_protein|mol2

> <Gold.PLP.Fitness>
51.9763

> <Gold.PLP.PLP>
-50.2148

> <Gold.PLP.part.hbond>
-1.5964

> <Gold.PLP.part.metal>
0.0000

> <Gold.PLP.part.buried>
-2.8785

> <Gold.PLP.part.nonpolar>
-46.2549

> <Gold.PLP.part.repulsive>
0.1795

> <Gold.PLP.ligand.clash>
0.0000

> <Gold.PLP.ligand.torsion>
0.6940

> <Gold.PLP.Chemscore.Hbond>
0.9920

> <Gold.PLP.Chemscore.CHOScore>
0.0000

> <Gold.PLP.Chemscore.Metal>
0.0000

> <Gold.Chemscore.Hbonds>
donor molecule, donor type, donor heavy atom, donor atom, acceptor molecule, acceptor atom, score
      P1  H 10752 10764       L1     3  1.00

> <Gold.PLP.Chemscore.Internal.Correction>
0.1736

> <Gold.Rescore>
     Score         DG    S(hbond)    S(metal)    S(lipo)     H(rot)  DE(clash)    DE(int)     intcor
     20.59     -21.69       1.00        0.00     156.18       2.11       0.44       0.66       ----

> <Gold.Chemscore.Fitness>
20.5948

> <Gold.Chemscore.DG>
-21.6935

> <Gold.Chemscore.ZeroCoef>
-5.4800

> <Gold.Chemscore.Hbond>
0.9990

> <Gold.Chemscore.Metal>
0.0000

> <Gold.Chemscore.Lipo>
156.1799

> <Gold.Chemscore.Internal_Hbond>
0.0000

> <Gold.Chemscore.DEClash>
0.4418

> <Gold.Chemscore.DEInternal>
0.6570

> <Gold.Chemscore.Rot>
2.1078

> <Gold.Chemscore.Internal.Correction>
   9.000000E+99

> <Gold.Chemscore.Hbonds>
donor molecule, donor type, donor heavy atom, donor atom, acceptor molecule, acceptor atom, score
      P1  H 10752 10764       L1     3  0.98

> <Gold.Chemscore.Hbond.Weighted>
-3.3366

> <Gold.Chemscore.Metal.Weighted>
-0.0000

> <Gold.Chemscore.Lipo.Weighted>
-18.2730

> <Gold.Chemscore.Internal_Hbond.Weighted>
0.0000

> <Gold.Chemscore.DEClash.Weighted>
0.4418

> <Gold.Chemscore.DEInternal.Weighted>
0.6570

> <Gold.Chemscore.Rot.Weighted>
5.3961

> <Gold.Chemscore.Internal.Correction.Weighted>
   9.000000E+99

> <Gold.Protein.RotatedTorsions>
[ 6907 6896 6895 6894 ] final   42.43 input  -60.11 | X-H torsion
[ 7974 7965 7964 7962 ] final  177.71 input  175.53 | X-H torsion
[ 8008 7997 7996 7995 ] final -159.80 input   59.86 | X-H torsion
[ 10167 10162 10161 10158 ] final -141.83 input  -65.29 | X-H torsion
[ 10718 10713 10712 10709 ] final   86.49 input   66.30 | X-H torsion
[ 10763 10752 10751 10750 ] final   72.15 input  -60.55 | X-H torsion
[ 11005 11000 10999 10996 ] final   -6.89 input  -57.11 | X-H torsion

> <Gold.Protein.ActiveResidues>
 VAL166  LYS551  ARG553  GLY616  TRP617  ASP618  TYR619  PRO620  LYS621  CYS622 
 ASP623  PHE694  ASN695  SER759  ASP760  ASP761  ALA762  ILE779  LEU786  VAL792 
 PHE793  MET794  SER795  GLU796  ALA797  LYS798  CYS799  TRP800  GLU811  SER814 

> <Gold.Protein.RotatedAtoms>
  152.2077  134.8530  160.0500 H   0  0  0  0  0  0  0  0  0  0  0  0  # atno 6907 bound_to 6896
  151.9360  133.3619  159.3956 H   0  0  0  0  0  0  0  0  0  0  0  0  # atno 6908 bound_to 6896
  150.6969  134.4413  159.5337 H   0  0  0  0  0  0  0  0  0  0  0  0  # atno 6909 bound_to 6896
  144.7165  140.0287  143.6439 H   0  0  0  0  0  0  0  0  0  0  0  0  # atno 7974 bound_to 7965
  155.7680  140.0848  157.2122 H   0  0  0  0  0  0  0  0  0  0  0  0  # atno 8008 bound_to 7997
  154.3998  140.1530  156.2966 H   0  0  0  0  0  0  0  0  0  0  0  0  # atno 8009 bound_to 7997
  155.8775  140.3422  155.5867 H   0  0  0  0  0  0  0  0  0  0  0  0  # atno 8010 bound_to 7997
  139.8147  143.7655  152.2664 H   0  0  0  0  0  0  0  0  0  0  0  0  # atno 10167 bound_to 10162
  157.6929  131.0217  150.2980 H   0  0  0  0  0  0  0  0  0  0  0  0  # atno 10718 bound_to 10713
  153.0441  135.5110  154.7700 H   0  0  0  0  0  0  0  0  0  0  0  0  # atno 10763 bound_to 10752
  154.6614  135.2939  154.9864 H   0  0  0  0  0  0  0  0  0  0  0  0  # atno 10764 bound_to 10752
  154.0713  135.6677  153.4877 H   0  0  0  0  0  0  0  0  0  0  0  0  # atno 10765 bound_to 10752
  140.7069  133.8942  155.8722 H   0  0  0  0  0  0  0  0  0  0  0  0  # atno 11005 bound_to 11000
  146.0120  139.3178  143.0864 LP  0  0  0  0  0  0  0  0  0  0  0  0  # atno 17320 bound_to 7965
  145.8670  140.9442  143.0670 LP  0  0  0  0  0  0  0  0  0  0  0  0  # atno 17321 bound_to 7965
  139.7814  144.7443  151.0082 LP  0  0  0  0  0  0  0  0  0  0  0  0  # atno 17342 bound_to 10162
  140.7816  143.4538  151.0375 LP  0  0  0  0  0  0  0  0  0  0  0  0  # atno 17343 bound_to 10162
  156.3501  130.3829  149.7336 LP  0  0  0  0  0  0  0  0  0  0  0  0  # atno 17370 bound_to 10713
  156.4817  130.8044  151.3058 LP  0  0  0  0  0  0  0  0  0  0  0  0  # atno 17371 bound_to 10713
  141.0117  134.1011  157.4214 LP  0  0  0  0  0  0  0  0  0  0  0  0  # atno 17394 bound_to 11000
  139.8882  135.0096  156.6605 LP  0  0  0  0  0  0  0  0  0  0  0  0  # atno 17395 bound_to 11000

$$$$
