AV-unprocessed.smi:740|AV-procd|sdf|3547|dock8
  -GOLD-   22720 0543D 1   1.00000     0.00000
 Structure written by MMmdl.
 44 46  0  0  0  0  0  0  0  0  1 V2000
  153.6665  143.5138  163.5234 C   0  0  0  0  0  0  0  0  0  0  0  0
  153.1875  143.1466  162.1298 C   0  0  0  0  0  0  0  0  0  0  0  0
  152.3748  144.0589  161.4200 C   0  0  0  0  0  0  0  0  0  0  0  0
  151.9111  143.7572  160.1209 C   0  0  0  0  0  0  0  0  0  0  0  0
  151.1192  144.4933  159.2562 N   0  0  0  0  0  0  0  0  0  0  0  0
  151.0421  143.6804  158.2067 C   0  0  0  0  0  0  0  0  0  0  0  0
  151.6892  142.5022  158.2898 N   0  0  0  0  0  0  0  0  0  0  0  0
  151.7465  141.4666  157.2735 C   0  0  0  0  0  0  0  0  0  0  0  0
  150.5337  141.5075  156.3241 C   0  0  1  0  0  0  0  0  0  0  0  0
  150.7730  140.6239  155.2454 O   0  0  0  0  0  0  0  0  0  0  0  0
  149.2347  141.0799  157.0381 C   0  0  0  0  0  0  0  0  0  0  0  0
  148.0604  141.7768  156.5011 N   0  0  0  0  0  0  0  0  0  0  0  0
  147.7857  141.8871  155.1941 C   0  0  0  0  0  0  0  0  0  0  0  0
  148.4654  141.4469  154.2673 O   0  0  0  0  0  0  0  0  0  0  0  0
  146.4819  142.6405  154.9714 C   0  0  0  0  0  0  0  0  0  0  0  0
  146.0103  142.9591  156.3983 C   0  0  1  0  0  0  0  0  0  0  0  0
  144.6274  142.3786  156.7377 C   0  0  0  0  0  0  0  0  0  0  0  0
  147.1113  142.3431  157.2596 C   0  0  0  0  0  0  0  0  0  0  0  0
  147.0920  142.3801  158.4900 O   0  0  0  0  0  0  0  0  0  0  0  0
  152.2837  142.5065  159.5471 C   0  0  0  0  0  0  0  0  0  0  0  0
  153.0912  141.5900  160.2438 C   0  0  0  0  0  0  0  0  0  0  0  0
  153.5477  141.9083  161.5400 C   0  0  0  0  0  0  0  0  0  0  0  0
  154.4228  140.9138  162.2822 C   0  0  0  0  0  0  0  0  0  0  0  0
  153.2708  144.4796  163.8390 H   0  0  0  0  0  0  0  0  0  0  0  0
  154.7548  143.5731  163.5484 H   0  0  0  0  0  0  0  0  0  0  0  0
  153.3430  142.7674  164.2491 H   0  0  0  0  0  0  0  0  0  0  0  0
  152.1012  145.0027  161.8683 H   0  0  0  0  0  0  0  0  0  0  0  0
  150.4838  143.9571  157.3240 H   0  0  0  0  0  0  0  0  0  0  0  0
  152.6779  141.5709  156.7155 H   0  0  0  0  0  0  0  0  0  0  0  0
  151.7942  140.5012  157.7793 H   0  0  0  0  0  0  0  0  0  0  0  0
  150.4317  142.5196  155.9300 H   0  0  0  0  0  0  0  0  0  0  0  0
  149.9587  140.2050  155.0120 H   0  0  0  0  0  0  0  0  0  0  0  0
  149.1092  139.9962  156.9975 H   0  0  0  0  0  0  0  0  0  0  0  0
  149.3090  141.3169  158.1010 H   0  0  0  0  0  0  0  0  0  0  0  0
  146.6598  143.5465  154.3913 H   0  0  0  0  0  0  0  0  0  0  0  0
  145.7753  142.0129  154.4272 H   0  0  0  0  0  0  0  0  0  0  0  0
  146.0065  144.0381  156.5577 H   0  0  0  0  0  0  0  0  0  0  0  0
  144.3381  142.6186  157.7614 H   0  0  0  0  0  0  0  0  0  0  0  0
  144.6108  141.2931  156.6319 H   0  0  0  0  0  0  0  0  0  0  0  0
  143.8628  142.7876  156.0770 H   0  0  0  0  0  0  0  0  0  0  0  0
  153.3597  140.6514  159.7822 H   0  0  0  0  0  0  0  0  0  0  0  0
  154.6183  140.0278  161.6774 H   0  0  0  0  0  0  0  0  0  0  0  0
  153.9368  140.5904  163.2028 H   0  0  0  0  0  0  0  0  0  0  0  0
  155.3829  141.3637  162.5357 H   0  0  0  0  0  0  0  0  0  0  0  0
  1  2  1  0  0  0  0
  1 24  1  0  0  0  0
  1 25  1  0  0  0  0
  1 26  1  0  0  0  0
  2 22  1  0  0  0  0
  2  3  2  0  0  0  0
  3  4  1  0  0  0  0
  3 27  1  0  0  0  0
  4 20  2  0  0  0  0
  4  5  1  0  0  0  0
  5  6  2  0  0  0  0
  6  7  1  0  0  0  0
  6 28  1  0  0  0  0
  7  8  1  0  0  0  0
  7 20  1  0  0  0  0
  8  9  1  0  0  0  0
  8 29  1  0  0  0  0
  8 30  1  0  0  0  0
  9 10  1  0  0  0  0
  9 11  1  0  0  0  0
  9 31  1  0  0  0  0
 10 32  1  0  0  0  0
 11 12  1  0  0  0  0
 11 33  1  0  0  0  0
 11 34  1  0  0  0  0
 12 18  1  0  0  0  0
 12 13  1  0  0  0  0
 13 14  2  0  0  0  0
 13 15  1  0  0  0  0
 15 16  1  0  0  0  0
 15 35  1  0  0  0  0
 15 36  1  0  0  0  0
 16 17  1  0  0  0  0
 16 18  1  0  0  0  0
 16 37  1  0  0  0  0
 17 38  1  0  0  0  0
 17 39  1  0  0  0  0
 17 40  1  0  0  0  0
 18 19  2  0  0  0  0
 20 21  1  0  0  0  0
 21 22  2  0  0  0  0
 21 41  1  0  0  0  0
 22 23  1  0  0  0  0
 23 42  1  0  0  0  0
 23 43  1  0  0  0  0
 23 44  1  0  0  0  0
M  END
> <s_m_source_file>
AV-unprocessed.smi

> <i_m_source_file_index>
740

> <i_lp_mmshare_version>
43012

> <i_f3d_flags>
0

> <s_epik_input>
W0NIM11jKFtjSF0xKWMoW0NIM10pW2NIXWMoYzEyKW4oW2NIXW4yKVtDSDJdW0NASF0oW09IXSlbQ0gyXU4zQyg9TylbQ0gyXVtDQEBIXShbQ0gzXSlDMz1P

> <s_epik_cmdline>
J2VwaWtfcHl0aG9uJywgJy1waCcsICc3LjAnLCAnLXRuJywgJzgnLCAnLW1hJywgJzIwMCcsICctbWV0YWxfYmluZGluZycsICctaW1hZScsICc8aW5maWxlLm1hZT4nLCAnLW9tYWUnLCAnPG91dGZpbGUubWFlPic=

> <r_lp_tautomer_probability>
1

> <r_epik_Ionization_Penalty>
0.104021

> <r_epik_Ionization_Penalty_Charging>
0

> <r_epik_Ionization_Penalty_Neutral>
0.104021

> <r_epik_State_Penalty>
0.0939354

> <r_epik_Charging_Adjusted_Penalty>
0.0939354

> <i_epik_Tot_Q>
0

> <i_epik_Tot_abs_Q>
0

> <r_epik_Metal_State_Penalty>
0.000101783

> <b_epik_Metal_Only>
0

> <s_lp_Force_Field>
OPLS_2005

> <r_lp_Energy>
16.7866

> <b_lp_Chiralities_Consistent>
1

> <s_lp_Variant>
AV-unprocessed.smi:740-2

> <Gold.Version>
5.8.1

> <Gold.Id.Protein>
6NUR|6NUR_protein|mol2

> <Gold.PLP.Fitness>
51.6823

> <Gold.PLP.PLP>
-47.3431

> <Gold.PLP.part.hbond>
-2.0000

> <Gold.PLP.part.metal>
0.0000

> <Gold.PLP.part.buried>
-6.6427

> <Gold.PLP.part.nonpolar>
-37.7161

> <Gold.PLP.part.repulsive>
0.3112

> <Gold.PLP.ligand.clash>
0.0000

> <Gold.PLP.ligand.torsion>
0.9595

> <Gold.PLP.Chemscore.Hbond>
1.0780

> <Gold.PLP.Chemscore.CHOScore>
1.0000

> <Gold.PLP.Chemscore.Metal>
0.0000

> <Gold.Chemscore.Hbonds>
donor molecule, donor type, donor heavy atom, donor atom, acceptor molecule, acceptor atom, score
      P1  H  7989  7998       L1    10  0.93
      L1  C     6    28       P1  8028  1.00

> <Gold.PLP.Chemscore.Internal.Correction>
0.0242

> <Gold.Rescore>
     Score         DG    S(hbond)    S(metal)    S(lipo)     H(rot)  DE(clash)    DE(int)     intcor
     14.24     -16.22       1.23        0.00     107.26       2.31       0.14       1.84       ----

> <Gold.Chemscore.Fitness>
14.2377

> <Gold.Chemscore.DG>
-16.2183

> <Gold.Chemscore.ZeroCoef>
-5.4800

> <Gold.Chemscore.Hbond>
1.2320

> <Gold.Chemscore.Metal>
0.0000

> <Gold.Chemscore.Lipo>
107.2563

> <Gold.Chemscore.Internal_Hbond>
0.0000

> <Gold.Chemscore.DEClash>
0.1364

> <Gold.Chemscore.DEInternal>
1.8442

> <Gold.Chemscore.Rot>
2.3147

> <Gold.Chemscore.Internal.Correction>
   9.000000E+99

> <Gold.Chemscore.Hbonds>
donor molecule, donor type, donor heavy atom, donor atom, acceptor molecule, acceptor atom, score
      P1  H  7989  7998       L1    10  0.35

> <Gold.Chemscore.Hbond.Weighted>
-4.1148

> <Gold.Chemscore.Metal.Weighted>
-0.0000

> <Gold.Chemscore.Lipo.Weighted>
-12.5490

> <Gold.Chemscore.Internal_Hbond.Weighted>
0.0000

> <Gold.Chemscore.DEClash.Weighted>
0.1364

> <Gold.Chemscore.DEInternal.Weighted>
1.8442

> <Gold.Chemscore.Rot.Weighted>
5.9256

> <Gold.Chemscore.Internal.Correction.Weighted>
   9.000000E+99

> <Gold.Protein.RotatedTorsions>
[ 6907 6896 6895 6894 ] final  178.32 input  -60.11 | X-H torsion
[ 7974 7965 7964 7962 ] final   69.66 input  175.53 | X-H torsion
[ 8008 7997 7996 7995 ] final  -16.29 input   59.86 | X-H torsion
[ 10167 10162 10161 10158 ] final  -40.71 input  -65.29 | X-H torsion
[ 10718 10713 10712 10709 ] final -128.28 input   66.30 | X-H torsion
[ 10763 10752 10751 10750 ] final -106.70 input  -60.55 | X-H torsion
[ 11005 11000 10999 10996 ] final  -30.97 input  -57.11 | X-H torsion

> <Gold.Protein.ActiveResidues>
 VAL166  LYS551  ARG553  GLY616  TRP617  ASP618  TYR619  PRO620  LYS621  CYS622 
 ASP623  PHE694  ASN695  SER759  ASP760  ASP761  ALA762  ILE779  LEU786  VAL792 
 PHE793  MET794  SER795  GLU796  ALA797  LYS798  CYS799  TRP800  GLU811  SER814 

> <Gold.Protein.RotatedAtoms>
  151.6897  133.3311  159.3239 H   0  0  0  0  0  0  0  0  0  0  0  0  # atno 6907 bound_to 6896
  150.7784  134.6709  159.6400 H   0  0  0  0  0  0  0  0  0  0  0  0  # atno 6908 bound_to 6896
  152.3834  134.6558  160.0186 H   0  0  0  0  0  0  0  0  0  0  0  0  # atno 6909 bound_to 6896
  145.7877  139.2918  143.1228 H   0  0  0  0  0  0  0  0  0  0  0  0  # atno 7974 bound_to 7965
  154.5064  140.2173  155.9243 H   0  0  0  0  0  0  0  0  0  0  0  0  # atno 8008 bound_to 7997
  156.1499  140.3163  155.8597 H   0  0  0  0  0  0  0  0  0  0  0  0  # atno 8009 bound_to 7997
  155.3960  140.0481  157.3029 H   0  0  0  0  0  0  0  0  0  0  0  0  # atno 8010 bound_to 7997
  140.7026  143.3137  151.2963 H   0  0  0  0  0  0  0  0  0  0  0  0  # atno 10167 bound_to 10162
  156.1936  130.6811  151.0454 H   0  0  0  0  0  0  0  0  0  0  0  0  # atno 10718 bound_to 10713
  154.8029  135.4702  154.0320 H   0  0  0  0  0  0  0  0  0  0  0  0  # atno 10763 bound_to 10752
  153.1811  135.6841  153.8483 H   0  0  0  0  0  0  0  0  0  0  0  0  # atno 10764 bound_to 10752
  153.8033  135.3227  155.3370 H   0  0  0  0  0  0  0  0  0  0  0  0  # atno 10765 bound_to 10752
  140.9428  133.7268  156.1102 H   0  0  0  0  0  0  0  0  0  0  0  0  # atno 11005 bound_to 11000
  146.0009  140.8521  143.0019 LP  0  0  0  0  0  0  0  0  0  0  0  0  # atno 17320 bound_to 7965
  144.6786  140.2350  143.7350 LP  0  0  0  0  0  0  0  0  0  0  0  0  # atno 17321 bound_to 7965
  139.6569  144.0260  152.2665 LP  0  0  0  0  0  0  0  0  0  0  0  0  # atno 17342 bound_to 10162
  139.9815  144.6425  150.7896 LP  0  0  0  0  0  0  0  0  0  0  0  0  # atno 17343 bound_to 10162
  157.6944  131.0799  150.7013 LP  0  0  0  0  0  0  0  0  0  0  0  0  # atno 17370 bound_to 10713
  156.7069  130.4640  149.5557 LP  0  0  0  0  0  0  0  0  0  0  0  0  # atno 17371 bound_to 10713
  140.7710  134.3832  157.5507 LP  0  0  0  0  0  0  0  0  0  0  0  0  # atno 17394 bound_to 11000
  139.8825  134.9022  156.2827 LP  0  0  0  0  0  0  0  0  0  0  0  0  # atno 17395 bound_to 11000

$$$$
