AV-unprocessed.smi:1434|AV-procd|sdf|5854|dock7
  -GOLD-   22720 5523D 1   1.00000     0.00000
 Structure written by MMmdl.
 43 44  0  0  0  0  0  0  0  0  2 V2000
  154.3697  139.4619  160.7151 C   0  0  0  0  0  0  0  0  0  0  0  0
  155.6151  140.3988  161.7004 S   0  0  0  0  0  0  0  0  0  0  0  0
  155.9781  139.5339  162.8363 O   0  0  0  0  0  0  0  0  0  0  0  0
  156.6866  140.7248  160.7473 O   0  0  0  0  0  0  0  0  0  0  0  0
  154.7817  141.7307  162.1233 N   0  5  0  0  0  0  0  0  0  0  0  0
  153.5432  142.0891  161.4456 C   0  0  1  0  0  0  0  0  0  0  0  0
  152.9557  143.3999  162.0317 C   0  0  0  0  0  0  0  0  0  0  0  0
  151.7734  143.9751  161.2030 C   0  0  0  0  0  0  0  0  0  0  0  0
  152.0956  144.0688  159.6927 C   0  0  0  0  0  0  0  0  0  0  0  0
  152.5375  142.7252  159.2593 N   0  0  0  0  0  0  0  0  0  0  0  0
  151.8515  141.8975  158.4277 C   0  0  0  0  0  0  0  0  0  0  0  0
  152.2246  140.7560  158.1534 O   0  0  0  0  0  0  0  0  0  0  0  0
  150.6675  142.3825  158.0127 N   0  0  0  0  0  0  0  0  0  0  0  0
  149.6219  141.6139  157.3411 C   0  0  0  0  0  0  0  0  0  0  0  0
  150.0468  141.1832  155.9219 C   0  0  0  0  0  0  0  0  0  0  0  0
  150.4090  139.7105  155.8100 C   0  0  0  0  0  0  0  0  0  0  0  0
  150.5133  138.9040  156.9643 C   0  0  0  0  0  0  0  0  0  0  0  0
  150.8985  137.5582  156.8112 C   0  0  0  0  0  0  0  0  0  0  0  0
  151.1599  137.0721  155.5163 C   0  0  0  0  0  0  0  0  0  0  0  0
  151.0217  137.9562  154.4278 C   0  0  0  0  0  0  0  0  0  0  0  0
  150.6507  139.2479  154.5629 N   0  0  0  0  0  0  0  0  0  0  0  0
  153.7888  142.2978  159.9258 C   0  0  0  0  0  0  0  0  0  0  0  0
  154.8367  138.5676  160.3043 H   0  0  0  0  0  0  0  0  0  0  0  0
  154.0073  140.0873  159.8996 H   0  0  0  0  0  0  0  0  0  0  0  0
  153.5334  139.1704  161.3492 H   0  0  0  0  0  0  0  0  0  0  0  0
  152.7919  141.3054  161.5466 H   0  0  0  0  0  0  0  0  0  0  0  0
  152.6374  143.2385  163.0622 H   0  0  0  0  0  0  0  0  0  0  0  0
  153.7409  144.1566  162.0719 H   0  0  0  0  0  0  0  0  0  0  0  0
  150.8870  143.3537  161.3436 H   0  0  0  0  0  0  0  0  0  0  0  0
  151.5082  144.9618  161.5833 H   0  0  0  0  0  0  0  0  0  0  0  0
  151.2422  144.4627  159.1407 H   0  0  0  0  0  0  0  0  0  0  0  0
  152.9064  144.7800  159.5274 H   0  0  0  0  0  0  0  0  0  0  0  0
  150.4299  143.3244  158.2874 H   0  0  0  0  0  0  0  0  0  0  0  0
  149.4036  140.7312  157.9423 H   0  0  0  0  0  0  0  0  0  0  0  0
  148.6930  142.1843  157.2932 H   0  0  0  0  0  0  0  0  0  0  0  0
  149.2397  141.4002  155.2209 H   0  0  0  0  0  0  0  0  0  0  0  0
  150.8970  141.7832  155.5949 H   0  0  0  0  0  0  0  0  0  0  0  0
  150.3218  139.3098  157.9466 H   0  0  0  0  0  0  0  0  0  0  0  0
  151.0018  136.9138  157.6717 H   0  0  0  0  0  0  0  0  0  0  0  0
  151.4645  136.0474  155.3626 H   0  0  0  0  0  0  0  0  0  0  0  0
  151.2153  137.6165  153.4213 H   0  0  0  0  0  0  0  0  0  0  0  0
  154.5507  143.0630  159.7676 H   0  0  0  0  0  0  0  0  0  0  0  0
  154.1977  141.3838  159.4922 H   0  0  0  0  0  0  0  0  0  0  0  0
  1  2  1  0  0  0  0
  1 23  1  0  0  0  0
  1 24  1  0  0  0  0
  1 25  1  0  0  0  0
  2  3  2  0  0  0  0
  2  4  2  0  0  0  0
  2  5  1  0  0  0  0
  5  6  1  0  0  0  0
  6 22  1  0  0  0  0
  6  7  1  0  0  0  0
  6 26  1  0  0  0  0
  7  8  1  0  0  0  0
  7 27  1  0  0  0  0
  7 28  1  0  0  0  0
  8  9  1  0  0  0  0
  8 29  1  0  0  0  0
  8 30  1  0  0  0  0
  9 10  1  0  0  0  0
  9 31  1  0  0  0  0
  9 32  1  0  0  0  0
 10 11  1  0  0  0  0
 10 22  1  0  0  0  0
 11 12  2  0  0  0  0
 11 13  1  0  0  0  0
 13 14  1  0  0  0  0
 13 33  1  0  0  0  0
 14 15  1  0  0  0  0
 14 34  1  0  0  0  0
 14 35  1  0  0  0  0
 15 16  1  0  0  0  0
 15 36  1  0  0  0  0
 15 37  1  0  0  0  0
 16 21  1  0  0  0  0
 16 17  2  0  0  0  0
 17 18  1  0  0  0  0
 17 38  1  0  0  0  0
 18 19  2  0  0  0  0
 18 39  1  0  0  0  0
 19 20  1  0  0  0  0
 19 40  1  0  0  0  0
 20 21  2  0  0  0  0
 20 41  1  0  0  0  0
 22 42  1  0  0  0  0
 22 43  1  0  0  0  0
M  CHG  1   5  -1
M  END
> <s_m_source_file>
AV-unprocessed.smi

> <i_m_source_file_index>
1434

> <i_lp_mmshare_version>
43012

> <i_f3d_flags>
0

> <s_epik_input>
W0NIM11TKD1PKSg9TylbTkhdW0NAQEhdMVtDSDJdW0NIMl1bQ0gyXU4oW0NIMl0xKUMoPU8pW05IXVtDSDJdW0NIMl1jMltjSF1bY0hdW2NIXVtjSF1uMg==

> <s_epik_cmdline>
J2VwaWtfcHl0aG9uJywgJy1waCcsICc3LjAnLCAnLXRuJywgJzgnLCAnLW1hJywgJzIwMCcsICctbWV0YWxfYmluZGluZycsICctaW1hZScsICc8aW5maWxlLm1hZT4nLCAnLW9tYWUnLCAnPG91dGZpbGUubWFlPic=

> <r_epik_Ionization_Penalty>
6.57847

> <r_epik_Ionization_Penalty_Charging>
6.53351

> <r_epik_Ionization_Penalty_Neutral>
0.0449527

> <r_epik_State_Penalty>
6.57157

> <r_epik_Charging_Adjusted_Penalty>
13.1051

> <i_epik_Tot_Q>
-1

> <i_epik_Tot_abs_Q>
1

> <r_epik_Metal_State_Penalty>
2.53928

> <b_epik_Metal_Only>
1

> <s_lp_Force_Field>
OPLS_2005

> <r_lp_Energy>
21.2682

> <b_lp_Chiralities_Consistent>
1

> <s_lp_Variant>
AV-unprocessed.smi:1434-6

> <Gold.Version>
5.8.1

> <Gold.Id.Protein>
6NUR|6NUR_protein|mol2

> <Gold.PLP.Fitness>
50.4103

> <Gold.PLP.PLP>
-45.5253

> <Gold.PLP.part.hbond>
-3.0000

> <Gold.PLP.part.metal>
0.0000

> <Gold.PLP.part.buried>
-5.5164

> <Gold.PLP.part.nonpolar>
-35.9724

> <Gold.PLP.part.repulsive>
0.1696

> <Gold.PLP.ligand.clash>
0.0000

> <Gold.PLP.ligand.torsion>
1.0416

> <Gold.PLP.Chemscore.Hbond>
1.0000

> <Gold.PLP.Chemscore.CHOScore>
0.9908

> <Gold.PLP.Chemscore.Metal>
0.0000

> <Gold.Chemscore.Hbonds>
donor molecule, donor type, donor heavy atom, donor atom, acceptor molecule, acceptor atom, score
      P1  H  7989  7998       L1    21  0.65
      L1  C    20    41       P1  7949  1.00

> <Gold.PLP.Chemscore.Internal.Correction>
0.9960

> <Gold.Rescore>
     Score         DG    S(hbond)    S(metal)    S(lipo)     H(rot)  DE(clash)    DE(int)     intcor
     14.25     -16.49       0.94        0.00     104.05       1.68       0.03       2.21       ----

> <Gold.Chemscore.Fitness>
14.2479

> <Gold.Chemscore.DG>
-16.4906

> <Gold.Chemscore.ZeroCoef>
-5.4800

> <Gold.Chemscore.Hbond>
0.9406

> <Gold.Chemscore.Metal>
0.0000

> <Gold.Chemscore.Lipo>
104.0451

> <Gold.Chemscore.Internal_Hbond>
0.0000

> <Gold.Chemscore.DEClash>
0.0309

> <Gold.Chemscore.DEInternal>
2.2119

> <Gold.Chemscore.Rot>
1.6813

> <Gold.Chemscore.Internal.Correction>
   9.000000E+99

> <Gold.Chemscore.Hbonds>
donor molecule, donor type, donor heavy atom, donor atom, acceptor molecule, acceptor atom, score
      P1  H  7989  7998       L1    21  0.39

> <Gold.Chemscore.Hbond.Weighted>
-3.1416

> <Gold.Chemscore.Metal.Weighted>
-0.0000

> <Gold.Chemscore.Lipo.Weighted>
-12.1733

> <Gold.Chemscore.Internal_Hbond.Weighted>
0.0000

> <Gold.Chemscore.DEClash.Weighted>
0.0309

> <Gold.Chemscore.DEInternal.Weighted>
2.2119

> <Gold.Chemscore.Rot.Weighted>
4.3042

> <Gold.Chemscore.Internal.Correction.Weighted>
   9.000000E+99

> <Gold.Protein.RotatedTorsions>
[ 6907 6896 6895 6894 ] final   -5.69 input  -60.11 | X-H torsion
[ 7974 7965 7964 7962 ] final  141.13 input  175.53 | X-H torsion
[ 8008 7997 7996 7995 ] final -144.67 input   59.86 | X-H torsion
[ 10167 10162 10161 10158 ] final   61.67 input  -65.29 | X-H torsion
[ 10718 10713 10712 10709 ] final  -32.72 input   66.30 | X-H torsion
[ 10763 10752 10751 10750 ] final  162.72 input  -60.55 | X-H torsion
[ 11005 11000 10999 10996 ] final   71.71 input  -57.11 | X-H torsion

> <Gold.Protein.ActiveResidues>
 VAL166  LYS551  ARG553  GLY616  TRP617  ASP618  TYR619  PRO620  LYS621  CYS622 
 ASP623  PHE694  ASN695  SER759  ASP760  ASP761  ALA762  ILE779  LEU786  VAL792 
 PHE793  MET794  SER795  GLU796  ALA797  LYS798  CYS799  TRP800  GLU811  SER814 

> <Gold.Protein.RotatedAtoms>
  151.4776  135.1050  159.9768 H   0  0  0  0  0  0  0  0  0  0  0  0  # atno 6907 bound_to 6896
  152.4792  133.8208  159.7063 H   0  0  0  0  0  0  0  0  0  0  0  0  # atno 6908 bound_to 6896
  150.8851  133.7257  159.2947 H   0  0  0  0  0  0  0  0  0  0  0  0  # atno 6909 bound_to 6896
  144.9124  139.5275  143.5702 H   0  0  0  0  0  0  0  0  0  0  0  0  # atno 7974 bound_to 7965
  155.5307  140.0599  157.2889 H   0  0  0  0  0  0  0  0  0  0  0  0  # atno 8008 bound_to 7997
  154.4485  140.1936  156.0536 H   0  0  0  0  0  0  0  0  0  0  0  0  # atno 8009 bound_to 7997
  156.0654  140.3267  155.7515 H   0  0  0  0  0  0  0  0  0  0  0  0  # atno 8010 bound_to 7997
  140.1523  144.4451  150.6753 H   0  0  0  0  0  0  0  0  0  0  0  0  # atno 10167 bound_to 10162
  156.3714  130.4340  149.7542 H   0  0  0  0  0  0  0  0  0  0  0  0  # atno 10718 bound_to 10713
  154.2828  135.2763  155.2689 H   0  0  0  0  0  0  0  0  0  0  0  0  # atno 10763 bound_to 10752
  154.5203  135.5758  153.6679 H   0  0  0  0  0  0  0  0  0  0  0  0  # atno 10764 bound_to 10752
  152.9926  135.6203  154.2988 H   0  0  0  0  0  0  0  0  0  0  0  0  # atno 10765 bound_to 10752
  139.9529  134.7195  156.0820 H   0  0  0  0  0  0  0  0  0  0  0  0  # atno 11005 bound_to 11000
  146.3165  139.7941  142.8979 LP  0  0  0  0  0  0  0  0  0  0  0  0  # atno 17320 bound_to 7965
  145.3432  141.0292  143.3381 LP  0  0  0  0  0  0  0  0  0  0  0  0  # atno 17321 bound_to 7965
  140.6695  143.2280  151.5661 LP  0  0  0  0  0  0  0  0  0  0  0  0  # atno 17342 bound_to 10162
  139.5420  144.2622  152.1369 LP  0  0  0  0  0  0  0  0  0  0  0  0  # atno 17343 bound_to 10162
  156.4668  130.7977  151.2996 LP  0  0  0  0  0  0  0  0  0  0  0  0  # atno 17370 bound_to 10713
  157.7484  131.0048  150.3091 LP  0  0  0  0  0  0  0  0  0  0  0  0  # atno 17371 bound_to 10713
  141.1195  133.6617  156.3179 LP  0  0  0  0  0  0  0  0  0  0  0  0  # atno 17394 bound_to 11000
  140.5677  134.5871  157.5450 LP  0  0  0  0  0  0  0  0  0  0  0  0  # atno 17395 bound_to 11000

$$$$
