AV-unprocessed.smi:1637|AV-procd|sdf|6545|dock1
  -GOLD-   22720 7223D 1   1.00000     0.00000
 Structure written by MMmdl.
 38 39  0  0  0  0  0  0  0  0  1 V2000
  151.5131  129.6911  156.7362 C   0  0  0  0  0  0  0  0  0  0  0  0
  151.2059  130.9018  157.4188 O   0  0  0  0  0  0  0  0  0  0  0  0
  150.7444  131.9716  156.6795 C   0  0  0  0  0  0  0  0  0  0  0  0
  150.2869  131.7374  155.3679 C   0  0  0  0  0  0  0  0  0  0  0  0
  149.8104  132.8223  154.6070 C   0  0  0  0  0  0  0  0  0  0  0  0
  149.8114  134.1157  155.1833 C   0  0  0  0  0  0  0  0  0  0  0  0
  149.3492  135.2966  154.5388 N   0  0  0  0  0  0  0  0  0  0  0  0
  149.0001  136.4809  155.0705 C   0  0  0  0  0  0  0  0  0  0  0  0
  148.9889  136.7542  156.2701 O   0  0  0  0  0  0  0  0  0  0  0  0
  148.6484  137.3509  154.1128 N   0  0  0  0  0  0  0  0  0  0  0  0
  148.1939  138.7257  154.3288 C   0  0  1  0  0  0  0  0  0  0  0  0
  149.3507  139.7153  154.0635 C   0  0  0  0  0  0  0  0  0  0  0  0
  149.1803  141.0777  154.7545 C   0  0  0  0  0  0  0  0  0  0  0  0
  147.9594  141.8878  154.2936 C   0  0  0  0  0  0  0  0  0  0  0  0
  146.6139  141.2304  154.6454 C   0  0  0  0  0  0  0  0  0  0  0  0
  146.2555  140.1606  153.7223 N   0  0  0  0  0  0  0  0  0  0  0  0
  146.9176  139.0122  153.5154 C   0  0  0  0  0  0  0  0  0  0  0  0
  146.5152  138.2012  152.6813 O   0  0  0  0  0  0  0  0  0  0  0  0
  150.2875  134.2413  156.5051 C   0  0  0  0  0  0  0  0  0  0  0  0
  150.7444  133.2058  157.2402 N   0  0  0  0  0  0  0  0  0  0  0  0
  151.8592  128.9496  157.4559 H   0  0  0  0  0  0  0  0  0  0  0  0
  152.3081  129.8376  156.0037 H   0  0  0  0  0  0  0  0  0  0  0  0
  150.6353  129.2807  156.2353 H   0  0  0  0  0  0  0  0  0  0  0  0
  150.2972  130.7403  154.9529 H   0  0  0  0  0  0  0  0  0  0  0  0
  149.4511  132.6294  153.6091 H   0  0  0  0  0  0  0  0  0  0  0  0
  149.2606  135.2261  153.5356 H   0  0  0  0  0  0  0  0  0  0  0  0
  148.6780  137.0375  153.1533 H   0  0  0  0  0  0  0  0  0  0  0  0
  147.9082  138.8035  155.3797 H   0  0  0  0  0  0  0  0  0  0  0  0
  150.2868  139.2866  154.4238 H   0  0  0  0  0  0  0  0  0  0  0  0
  149.4863  139.8546  152.9899 H   0  0  0  0  0  0  0  0  0  0  0  0
  149.1350  140.9338  155.8348 H   0  0  0  0  0  0  0  0  0  0  0  0
  150.0771  141.6708  154.5725 H   0  0  0  0  0  0  0  0  0  0  0  0
  148.0013  142.8629  154.7803 H   0  0  0  0  0  0  0  0  0  0  0  0
  148.0168  142.0868  153.2225 H   0  0  0  0  0  0  0  0  0  0  0  0
  146.6091  140.8650  155.6732 H   0  0  0  0  0  0  0  0  0  0  0  0
  145.8247  141.9798  154.5845 H   0  0  0  0  0  0  0  0  0  0  0  0
  145.4227  140.3120  153.1716 H   0  0  0  0  0  0  0  0  0  0  0  0
  150.3029  135.2054  156.9924 H   0  0  0  0  0  0  0  0  0  0  0  0
  1  2  1  0  0  0  0
  1 21  1  0  0  0  0
  1 22  1  0  0  0  0
  1 23  1  0  0  0  0
  2  3  1  0  0  0  0
  3 20  1  0  0  0  0
  3  4  2  0  0  0  0
  4  5  1  0  0  0  0
  4 24  1  0  0  0  0
  5  6  2  0  0  0  0
  5 25  1  0  0  0  0
  6  7  1  0  0  0  0
  6 19  1  0  0  0  0
  7  8  1  0  0  0  0
  7 26  1  0  0  0  0
  8  9  2  0  0  0  0
  8 10  1  0  0  0  0
 10 11  1  0  0  0  0
 10 27  1  0  0  0  0
 11 17  1  0  0  0  0
 11 12  1  0  0  0  0
 11 28  1  0  0  0  0
 12 13  1  0  0  0  0
 12 29  1  0  0  0  0
 12 30  1  0  0  0  0
 13 14  1  0  0  0  0
 13 31  1  0  0  0  0
 13 32  1  0  0  0  0
 14 15  1  0  0  0  0
 14 33  1  0  0  0  0
 14 34  1  0  0  0  0
 15 16  1  0  0  0  0
 15 35  1  0  0  0  0
 15 36  1  0  0  0  0
 16 17  1  0  0  0  0
 16 37  1  0  0  0  0
 17 18  2  0  0  0  0
 19 20  2  0  0  0  0
 19 38  1  0  0  0  0
M  END
> <s_m_source_file>
AV-unprocessed.smi

> <i_m_source_file_index>
1637

> <i_lp_mmshare_version>
43012

> <i_f3d_flags>
0

> <s_epik_input>
W0NIM11PYzFbY0hdW2NIXWMoW2NIXW4xKVtOSF1DKD1PKVtOSF1bQ0BASF0yW0NIMl1bQ0gyXVtDSDJdW0NIMl1bTkhdQzI9Tw==

> <s_epik_cmdline>
J2VwaWtfcHl0aG9uJywgJy1waCcsICc3LjAnLCAnLXRuJywgJzgnLCAnLW1hJywgJzIwMCcsICctbWV0YWxfYmluZGluZycsICctaW1hZScsICc8aW5maWxlLm1hZT4nLCAnLW9tYWUnLCAnPG91dGZpbGUubWFlPic=

> <r_lp_tautomer_probability>
1

> <r_epik_Ionization_Penalty>
8.30847e-05

> <r_epik_Ionization_Penalty_Charging>
0

> <r_epik_Ionization_Penalty_Neutral>
8.30847e-05

> <r_epik_State_Penalty>
-0

> <r_epik_Charging_Adjusted_Penalty>
0

> <i_epik_Tot_Q>
0

> <i_epik_Tot_abs_Q>
0

> <r_epik_Metal_State_Penalty>
-0

> <b_epik_Metal_Only>
0

> <s_lp_Force_Field>
OPLS_2005

> <r_lp_Energy>
13.0177

> <b_lp_Chiralities_Consistent>
1

> <s_lp_Variant>
AV-unprocessed.smi:1637-2

> <Gold.Version>
5.8.1

> <Gold.Id.Protein>
6NUR|6NUR_protein|mol2

> <Gold.PLP.Fitness>
37.4080

> <Gold.PLP.PLP>
-26.6428

> <Gold.PLP.part.hbond>
-3.9730

> <Gold.PLP.part.metal>
0.0000

> <Gold.PLP.part.buried>
-2.2259

> <Gold.PLP.part.nonpolar>
-22.3547

> <Gold.PLP.part.repulsive>
0.3351

> <Gold.PLP.ligand.clash>
0.0000

> <Gold.PLP.ligand.torsion>
0.4658

> <Gold.PLP.Chemscore.Hbond>
3.8880

> <Gold.PLP.Chemscore.CHOScore>
0.0000

> <Gold.PLP.Chemscore.Metal>
0.0000

> <Gold.Chemscore.Hbonds>
donor molecule, donor type, donor heavy atom, donor atom, acceptor molecule, acceptor atom, score
      L1  H     7    26       P1  7948  0.88
      L1  H    10    27       P1  7948  1.00
      L1  H    16    37       P1 10175  1.00
      P1  H  6896  6907       L1    20  0.94

> <Gold.PLP.Chemscore.Internal.Correction>
0.0329

> <Gold.Rescore>
     Score         DG    S(hbond)    S(metal)    S(lipo)     H(rot)  DE(clash)    DE(int)     intcor
     17.19     -19.24       3.24        0.00      53.85       1.31       0.29       1.76       ----

> <Gold.Chemscore.Fitness>
17.1947

> <Gold.Chemscore.DG>
-19.2439

> <Gold.Chemscore.ZeroCoef>
-5.4800

> <Gold.Chemscore.Hbond>
3.2378

> <Gold.Chemscore.Metal>
0.0000

> <Gold.Chemscore.Lipo>
53.8515

> <Gold.Chemscore.Internal_Hbond>
0.0000

> <Gold.Chemscore.DEClash>
0.2876

> <Gold.Chemscore.DEInternal>
1.7616

> <Gold.Chemscore.Rot>
1.3090

> <Gold.Chemscore.Internal.Correction>
   9.000000E+99

> <Gold.Chemscore.Hbonds>
donor molecule, donor type, donor heavy atom, donor atom, acceptor molecule, acceptor atom, score
      L1  H     7    26       P1  7948  0.19
      L1  H    10    27       P1  7948  0.93
      L1  H    16    37       P1 10175  0.98
      P1  H  6896  6907       L1    20  0.81

> <Gold.Chemscore.Hbond.Weighted>
-10.8142

> <Gold.Chemscore.Metal.Weighted>
-0.0000

> <Gold.Chemscore.Lipo.Weighted>
-6.3006

> <Gold.Chemscore.Internal_Hbond.Weighted>
0.0000

> <Gold.Chemscore.DEClash.Weighted>
0.2876

> <Gold.Chemscore.DEInternal.Weighted>
1.7616

> <Gold.Chemscore.Rot.Weighted>
3.3509

> <Gold.Chemscore.Internal.Correction.Weighted>
   9.000000E+99

> <Gold.Protein.RotatedTorsions>
[ 6907 6896 6895 6894 ] final -141.61 input  -60.11 | X-H torsion
[ 7974 7965 7964 7962 ] final  -96.55 input  175.53 | X-H torsion
[ 8008 7997 7996 7995 ] final  159.99 input   59.86 | X-H torsion
[ 10167 10162 10161 10158 ] final  105.93 input  -65.29 | X-H torsion
[ 10718 10713 10712 10709 ] final   74.98 input   66.30 | X-H torsion
[ 10763 10752 10751 10750 ] final -119.51 input  -60.55 | X-H torsion
[ 11005 11000 10999 10996 ] final   58.20 input  -57.11 | X-H torsion

> <Gold.Protein.ActiveResidues>
 VAL166  LYS551  ARG553  GLY616  TRP617  ASP618  TYR619  PRO620  LYS621  CYS622 
 ASP623  PHE694  ASN695  SER759  ASP760  ASP761  ALA762  ILE779  LEU786  VAL792 
 PHE793  MET794  SER795  GLU796  ALA797  LYS798  CYS799  TRP800  GLU811  SER814 

> <Gold.Protein.RotatedAtoms>
  151.0761  133.5427  159.2623 H   0  0  0  0  0  0  0  0  0  0  0  0  # atno 6907 bound_to 6896
  151.2348  135.0567  159.9012 H   0  0  0  0  0  0  0  0  0  0  0  0  # atno 6908 bound_to 6896
  152.5418  134.0545  159.8178 H   0  0  0  0  0  0  0  0  0  0  0  0  # atno 6909 bound_to 6896
  145.3453  140.9467  143.2585 H   0  0  0  0  0  0  0  0  0  0  0  0  # atno 7974 bound_to 7965
  156.2202  140.1816  156.7494 H   0  0  0  0  0  0  0  0  0  0  0  0  # atno 8008 bound_to 7997
  154.5854  140.0659  156.9192 H   0  0  0  0  0  0  0  0  0  0  0  0  # atno 8009 bound_to 7997
  155.2429  140.3323  155.4293 H   0  0  0  0  0  0  0  0  0  0  0  0  # atno 8010 bound_to 7997
  139.7051  144.7087  151.1120 H   0  0  0  0  0  0  0  0  0  0  0  0  # atno 10167 bound_to 10162
  157.6615  130.9704  150.1288 H   0  0  0  0  0  0  0  0  0  0  0  0  # atno 10718 bound_to 10713
  154.8619  135.4235  154.2311 H   0  0  0  0  0  0  0  0  0  0  0  0  # atno 10763 bound_to 10752
  153.3296  135.6987  153.6965 H   0  0  0  0  0  0  0  0  0  0  0  0  # atno 10764 bound_to 10752
  153.5987  135.3541  155.2911 H   0  0  0  0  0  0  0  0  0  0  0  0  # atno 10765 bound_to 10752
  140.0395  134.5894  155.9400 H   0  0  0  0  0  0  0  0  0  0  0  0  # atno 11005 bound_to 11000
  144.8759  139.4972  143.6746 LP  0  0  0  0  0  0  0  0  0  0  0  0  # atno 17320 bound_to 7965
  146.2990  139.7368  142.9105 LP  0  0  0  0  0  0  0  0  0  0  0  0  # atno 17321 bound_to 7965
  140.7719  143.5369  150.9357 LP  0  0  0  0  0  0  0  0  0  0  0  0  # atno 17342 bound_to 10162
  139.9053  143.6786  152.3124 LP  0  0  0  0  0  0  0  0  0  0  0  0  # atno 17343 bound_to 10162
  156.2140  130.3669  149.8636 LP  0  0  0  0  0  0  0  0  0  0  0  0  # atno 17370 bound_to 10713
  156.6507  130.8742  151.3530 LP  0  0  0  0  0  0  0  0  0  0  0  0  # atno 17371 bound_to 10713
  141.1875  133.6560  156.5286 LP  0  0  0  0  0  0  0  0  0  0  0  0  # atno 17394 bound_to 11000
  140.4092  134.7287  157.4826 LP  0  0  0  0  0  0  0  0  0  0  0  0  # atno 17395 bound_to 11000

$$$$
