AV-unprocessed.smi:229|AV-procd|sdf|1757|dock6
  -GOLD-   2262020283D 1   1.00000     0.00000
 Structure written by MMmdl.
 58 62  0  0  0  0  0  0  0  0  1 V2000
  154.4663  139.9209  161.5293 C   0  0  0  0  0  0  0  0  0  0  0  0
  154.3841  141.4117  161.1783 C   0  0  0  0  0  0  0  0  0  0  0  0
  153.1148  141.7718  160.3921 C   0  0  2  0  0  0  0  0  0  0  0  0
  152.8553  140.7870  159.2394 C   0  0  0  0  0  0  0  0  0  0  0  0
  151.7009  141.2270  158.4645 N   0  0  0  0  0  0  0  0  0  0  0  0
  151.1283  140.3492  157.6033 C   0  0  0  0  0  0  0  0  0  0  0  0
  150.9284  140.7010  156.3048 N   0  0  0  0  0  0  0  0  0  0  0  0
  150.3579  139.8434  155.4532 C   0  0  0  0  0  0  0  0  0  0  0  0
  149.9215  138.6035  155.6835 N   0  0  0  0  0  0  0  0  0  0  0  0
  150.1276  138.2418  156.9820 C   0  0  0  0  0  0  0  0  0  0  0  0
  150.7177  139.0447  157.9986 C   0  0  0  0  0  0  0  0  0  0  0  0
  150.7708  138.3323  159.1916 N   0  0  0  0  0  0  0  0  0  0  0  0
  150.2358  137.1785  158.8985 C   0  0  0  0  0  0  0  0  0  0  0  0
  149.8243  137.0384  157.5926 N   0  0  0  0  0  0  0  0  0  0  0  0
  149.2085  135.8679  156.9925 C   0  0  0  0  0  0  0  0  0  0  0  0
  149.8461  135.4980  155.6388 C   0  0  1  0  0  0  0  0  0  0  0  0
  151.2345  135.2900  155.8186 O   0  0  0  0  0  0  0  0  0  0  0  0
  149.2291  134.2251  155.0302 C   0  0  2  0  0  0  0  0  0  0  0  0
  149.8670  133.7773  153.7135 C   0  0  0  0  0  0  0  0  0  0  0  0
  148.7574  133.0048  153.0163 C   0  0  0  0  0  0  0  0  0  0  0  0
  147.4960  133.3742  153.8010 C   0  0  0  0  0  0  0  0  0  0  0  0
  147.8850  134.4546  154.6368 O   0  0  0  0  0  0  0  0  0  0  0  0
  151.8382  142.5885  157.9603 C   0  0  0  0  0  0  0  0  0  0  0  0
  152.1535  143.5717  159.1096 C   0  0  2  0  0  0  0  0  0  0  0  0
  150.9511  143.8546  160.0175 C   0  0  0  0  0  0  0  0  0  0  0  0
  150.4749  145.2297  159.5714 C   0  0  0  0  0  0  0  0  0  0  0  0
  151.6932  145.8886  159.2815 O   0  0  0  0  0  0  0  0  0  0  0  0
  152.5046  144.9692  158.5641 C   0  0  0  0  0  0  0  0  0  0  0  0
  153.2741  143.0865  159.8556 O   0  0  0  0  0  0  0  0  0  0  0  0
  155.3856  139.7001  162.0720 H   0  0  0  0  0  0  0  0  0  0  0  0
  154.4534  139.3032  160.6310 H   0  0  0  0  0  0  0  0  0  0  0  0
  153.6291  139.6157  162.1577 H   0  0  0  0  0  0  0  0  0  0  0  0
  154.4325  142.0045  162.0925 H   0  0  0  0  0  0  0  0  0  0  0  0
  155.2619  141.6820  160.5901 H   0  0  0  0  0  0  0  0  0  0  0  0
  152.2655  141.7505  161.0763 H   0  0  0  0  0  0  0  0  0  0  0  0
  153.7283  140.7286  158.5875 H   0  0  0  0  0  0  0  0  0  0  0  0
  152.6801  139.7884  159.6422 H   0  0  0  0  0  0  0  0  0  0  0  0
  150.2328  140.2022  154.4423 H   0  0  0  0  0  0  0  0  0  0  0  0
  150.1323  136.3905  159.6303 H   0  0  0  0  0  0  0  0  0  0  0  0
  149.2849  135.0345  157.6924 H   0  0  0  0  0  0  0  0  0  0  0  0
  148.1444  136.0725  156.8672 H   0  0  0  0  0  0  0  0  0  0  0  0
  149.7188  136.3287  154.9430 H   0  0  0  0  0  0  0  0  0  0  0  0
  151.4566  135.5056  156.7115 H   0  0  0  0  0  0  0  0  0  0  0  0
  149.2494  133.4062  155.7524 H   0  0  0  0  0  0  0  0  0  0  0  0
  150.1390  134.6451  153.1108 H   0  0  0  0  0  0  0  0  0  0  0  0
  150.7672  133.1809  153.8657 H   0  0  0  0  0  0  0  0  0  0  0  0
  148.6803  133.2984  151.9688 H   0  0  0  0  0  0  0  0  0  0  0  0
  148.9326  131.9291  153.0519 H   0  0  0  0  0  0  0  0  0  0  0  0
  146.6658  133.6563  153.1532 H   0  0  0  0  0  0  0  0  0  0  0  0
  147.1735  132.5378  154.4229 H   0  0  0  0  0  0  0  0  0  0  0  0
  152.6510  142.5992  157.2327 H   0  0  0  0  0  0  0  0  0  0  0  0
  150.9439  142.9156  157.4310 H   0  0  0  0  0  0  0  0  0  0  0  0
  150.1670  143.0988  159.9570 H   0  0  0  0  0  0  0  0  0  0  0  0
  151.2712  143.9178  161.0584 H   0  0  0  0  0  0  0  0  0  0  0  0
  149.8636  145.1625  158.6701 H   0  0  0  0  0  0  0  0  0  0  0  0
  149.9057  145.7510  160.3413 H   0  0  0  0  0  0  0  0  0  0  0  0
  153.5608  145.2153  158.6783 H   0  0  0  0  0  0  0  0  0  0  0  0
  152.2613  145.0526  157.5037 H   0  0  0  0  0  0  0  0  0  0  0  0
  1  2  1  0  0  0  0
  1 30  1  0  0  0  0
  1 31  1  0  0  0  0
  1 32  1  0  0  0  0
  2  3  1  0  0  0  0
  2 33  1  0  0  0  0
  2 34  1  0  0  0  0
  3 29  1  0  0  0  0
  3  4  1  0  0  0  0
  3 35  1  0  0  0  0
  4  5  1  0  0  0  0
  4 36  1  0  0  0  0
  4 37  1  0  0  0  0
  5  6  1  0  0  0  0
  5 23  1  0  0  0  0
  6 11  1  0  0  0  0
  6  7  2  0  0  0  0
  7  8  1  0  0  0  0
  8  9  2  0  0  0  0
  8 38  1  0  0  0  0
  9 10  1  0  0  0  0
 10 14  1  0  0  0  0
 10 11  2  0  0  0  0
 11 12  1  0  0  0  0
 12 13  2  0  0  0  0
 13 14  1  0  0  0  0
 13 39  1  0  0  0  0
 14 15  1  0  0  0  0
 15 16  1  0  0  0  0
 15 40  1  0  0  0  0
 15 41  1  0  0  0  0
 16 17  1  0  0  0  0
 16 18  1  0  0  0  0
 16 42  1  0  0  0  0
 17 43  1  0  0  0  0
 18 22  1  0  0  0  0
 18 19  1  0  0  0  0
 18 44  1  0  0  0  0
 19 20  1  0  0  0  0
 19 45  1  0  0  0  0
 19 46  1  0  0  0  0
 20 21  1  0  0  0  0
 20 47  1  0  0  0  0
 20 48  1  0  0  0  0
 21 22  1  0  0  0  0
 21 49  1  0  0  0  0
 21 50  1  0  0  0  0
 23 24  1  0  0  0  0
 23 51  1  0  0  0  0
 23 52  1  0  0  0  0
 24 28  1  0  0  0  0
 24 25  1  0  0  0  0
 24 29  1  0  0  0  0
 25 26  1  0  0  0  0
 25 53  1  0  0  0  0
 25 54  1  0  0  0  0
 26 27  1  0  0  0  0
 26 55  1  0  0  0  0
 26 56  1  0  0  0  0
 27 28  1  0  0  0  0
 28 57  1  0  0  0  0
 28 58  1  0  0  0  0
M  END
> <s_m_source_file>
AV-unprocessed.smi

> <i_m_source_file_index>
229

> <i_lp_mmshare_version>
43012

> <i_f3d_flags>
0

> <s_epik_input>
W0NIMl0xT1tDSDJdW0NIMl1bQ0BdMTJbQ0gyXU4oW0NIMl1bQ0BIXShPMilbQ0gyXVtDSDNdKWMobltjSF1uMyljKGMzNCluW2NIXW40W0NIMl1bQ0BIXShbT0hdKVtDQEBIXTVbQ0gyXVtDSDJdW0NIMl1PNQ==

> <s_epik_cmdline>
J2VwaWtfcHl0aG9uJywgJy1waCcsICc3LjAnLCAnLXRuJywgJzgnLCAnLW1hJywgJzIwMCcsICctbWV0YWxfYmluZGluZycsICctaW1hZScsICc8aW5maWxlLm1hZT4nLCAnLW9tYWUnLCAnPG91dGZpbGUubWFlPic=

> <r_lp_tautomer_probability>
1

> <r_epik_Ionization_Penalty>
0.00318402

> <r_epik_Ionization_Penalty_Charging>
0

> <r_epik_Ionization_Penalty_Neutral>
0.00318402

> <r_epik_State_Penalty>
0.00215642

> <r_epik_Charging_Adjusted_Penalty>
0.00215642

> <i_epik_Tot_Q>
0

> <i_epik_Tot_abs_Q>
0

> <r_epik_Metal_State_Penalty>
-0

> <b_epik_Metal_Only>
0

> <s_lp_Force_Field>
OPLS_2005

> <r_lp_Energy>
53.2063

> <b_lp_Chiralities_Consistent>
1

> <s_lp_Variant>
AV-unprocessed.smi:229-11

> <Gold.Version>
5.8.1

> <Gold.Id.Protein>
6NUR|6NUR_protein|mol2

> <Gold.PLP.Fitness>
47.6101

> <Gold.PLP.PLP>
-45.7065

> <Gold.PLP.part.hbond>
-2.6071

> <Gold.PLP.part.metal>
0.0000

> <Gold.PLP.part.buried>
-6.7063

> <Gold.PLP.part.nonpolar>
-34.6370

> <Gold.PLP.part.repulsive>
0.2779

> <Gold.PLP.ligand.clash>
0.0000

> <Gold.PLP.ligand.torsion>
0.4468

> <Gold.PLP.Chemscore.Hbond>
0.8125

> <Gold.PLP.Chemscore.CHOScore>
0.0000

> <Gold.PLP.Chemscore.Metal>
0.0000

> <Gold.Chemscore.Hbonds>
donor molecule, donor type, donor heavy atom, donor atom, acceptor molecule, acceptor atom, score
      P1  H 10752 10763       L1    17  1.00

> <Gold.PLP.Chemscore.Internal.Correction>
0.3596

> <Gold.Rescore>
     Score         DG    S(hbond)    S(metal)    S(lipo)     H(rot)  DE(clash)    DE(int)     intcor
     13.23     -14.85       0.49        0.00     120.04       2.46       1.08       0.54       ----

> <Gold.Chemscore.Fitness>
13.2276

> <Gold.Chemscore.DG>
-14.8521

> <Gold.Chemscore.ZeroCoef>
-5.4800

> <Gold.Chemscore.Hbond>
0.4860

> <Gold.Chemscore.Metal>
0.0000

> <Gold.Chemscore.Lipo>
120.0369

> <Gold.Chemscore.Internal_Hbond>
0.0000

> <Gold.Chemscore.DEClash>
1.0820

> <Gold.Chemscore.DEInternal>
0.5425

> <Gold.Chemscore.Rot>
2.4591

> <Gold.Chemscore.Internal.Correction>
   9.000000E+99

> <Gold.Chemscore.Hbonds>
donor molecule, donor type, donor heavy atom, donor atom, acceptor molecule, acceptor atom, score
      P1  H 10752 10763       L1    17  0.36

> <Gold.Chemscore.Hbond.Weighted>
-1.6231

> <Gold.Chemscore.Metal.Weighted>
-0.0000

> <Gold.Chemscore.Lipo.Weighted>
-14.0443

> <Gold.Chemscore.Internal_Hbond.Weighted>
0.0000

> <Gold.Chemscore.DEClash.Weighted>
1.0820

> <Gold.Chemscore.DEInternal.Weighted>
0.5425

> <Gold.Chemscore.Rot.Weighted>
6.2953

> <Gold.Chemscore.Internal.Correction.Weighted>
   9.000000E+99

> <Gold.Protein.RotatedTorsions>
[ 6907 6896 6895 6894 ] final   98.00 input  -60.11 | X-H torsion
[ 7974 7965 7964 7962 ] final -157.76 input  175.53 | X-H torsion
[ 8008 7997 7996 7995 ] final   25.09 input   59.86 | X-H torsion
[ 10167 10162 10161 10158 ] final   36.55 input  -65.29 | X-H torsion
[ 10718 10713 10712 10709 ] final  173.22 input   66.30 | X-H torsion
[ 10763 10752 10751 10750 ] final   74.14 input  -60.55 | X-H torsion
[ 11005 11000 10999 10996 ] final -130.11 input  -57.11 | X-H torsion

> <Gold.Protein.ActiveResidues>
 VAL166  LYS551  ARG553  GLY616  TRP617  ASP618  TYR619  PRO620  LYS621  CYS622 
 ASP623  PHE694  ASN695  SER759  ASP760  ASP761  ALA762  ILE779  LEU786  VAL792 
 PHE793  MET794  SER795  GLU796  ALA797  LYS798  CYS799  TRP800  GLU811  SER814 

> <Gold.Protein.RotatedAtoms>
  152.5416  134.0648  159.8167 H   0  0  0  0  0  0  0  0  0  0  0  0  # atno 6907 bound_to 6896
  151.0770  133.5412  159.2630 H   0  0  0  0  0  0  0  0  0  0  0  0  # atno 6908 bound_to 6896
  151.2254  135.0543  159.9020 H   0  0  0  0  0  0  0  0  0  0  0  0  # atno 6909 bound_to 6896
  144.7534  140.3924  143.6030 H   0  0  0  0  0  0  0  0  0  0  0  0  # atno 7974 bound_to 7965
  155.0064  140.3131  155.4847 H   0  0  0  0  0  0  0  0  0  0  0  0  # atno 8008 bound_to 7997
  156.2916  140.2222  156.5117 H   0  0  0  0  0  0  0  0  0  0  0  0  # atno 8009 bound_to 7997
  154.7573  140.0461  157.0932 H   0  0  0  0  0  0  0  0  0  0  0  0  # atno 8010 bound_to 7997
  140.4117  144.1583  150.6140 H   0  0  0  0  0  0  0  0  0  0  0  0  # atno 10167 bound_to 10162
  156.9674  131.0079  151.2913 H   0  0  0  0  0  0  0  0  0  0  0  0  # atno 10718 bound_to 10713
  153.0567  135.5037  154.7998 H   0  0  0  0  0  0  0  0  0  0  0  0  # atno 10763 bound_to 10752
  154.6818  135.2969  154.9604 H   0  0  0  0  0  0  0  0  0  0  0  0  # atno 10764 bound_to 10752
  154.0388  135.6719  153.4840 H   0  0  0  0  0  0  0  0  0  0  0  0  # atno 10765 bound_to 10752
  140.9374  134.1239  157.4182 H   0  0  0  0  0  0  0  0  0  0  0  0  # atno 11005 bound_to 11000
  145.6863  139.1629  143.2672 LP  0  0  0  0  0  0  0  0  0  0  0  0  # atno 17320 bound_to 7965
  146.1515  140.6919  142.9320 LP  0  0  0  0  0  0  0  0  0  0  0  0  # atno 17321 bound_to 7965
  140.4630  143.2441  151.9193 LP  0  0  0  0  0  0  0  0  0  0  0  0  # atno 17342 bound_to 10162
  139.4782  144.5448  151.8475 LP  0  0  0  0  0  0  0  0  0  0  0  0  # atno 17343 bound_to 10162
  157.5616  130.8249  149.8273 LP  0  0  0  0  0  0  0  0  0  0  0  0  # atno 17370 bound_to 10713
  156.0297  130.3768  150.1723 LP  0  0  0  0  0  0  0  0  0  0  0  0  # atno 17371 bound_to 10713
  139.8811  135.0025  156.6132 LP  0  0  0  0  0  0  0  0  0  0  0  0  # atno 17394 bound_to 11000
  140.7781  133.8683  155.8545 LP  0  0  0  0  0  0  0  0  0  0  0  0  # atno 17395 bound_to 11000

$$$$
