AV-unprocessed.smi:1159|AV-procd|sdf|4914|dock10
  -GOLD-   22720 3493D 1   1.00000     0.00000
 Structure written by MMmdl.
 41 42  0  0  0  0  0  0  0  0  1 V2000
  146.3148  137.6164  155.2856 O   0  0  0  0  0  0  0  0  0  0  0  0
  147.1080  137.3115  154.3958 C   0  0  0  0  0  0  0  0  0  0  0  0
  148.3424  137.8206  154.2389 N   0  0  0  0  0  0  0  0  0  0  0  0
  149.0070  138.8222  154.9997 C   0  0  0  0  0  0  0  0  0  0  0  0
  148.6221  139.2406  156.2966 C   0  0  0  0  0  0  0  0  0  0  0  0
  149.3621  140.2564  156.9320 C   0  0  0  0  0  0  0  0  0  0  0  0
  150.4571  140.8288  156.2555 C   0  0  0  0  0  0  0  0  0  0  0  0
  151.1739  141.8250  156.8854 O   0  0  0  0  0  0  0  0  0  0  0  0
  150.7767  142.2261  158.1942 C   0  0  0  0  0  0  0  0  0  0  0  0
  151.7224  143.3245  158.6947 C   0  0  0  0  0  0  0  0  0  0  0  0
  151.9242  144.2099  157.7195 F   0  0  0  0  0  0  0  0  0  0  0  0
  151.1851  143.9545  159.7390 F   0  0  0  0  0  0  0  0  0  0  0  0
  152.8958  142.7986  159.0447 F   0  0  0  0  0  0  0  0  0  0  0  0
  150.8268  140.4401  155.0104 N   0  0  0  0  0  0  0  0  0  0  0  0
  150.1137  139.4655  154.4074 C   0  0  0  0  0  0  0  0  0  0  0  0
  146.8398  136.3993  153.4492 N   0  0  0  0  0  0  0  0  0  0  0  0
  145.5764  135.6717  153.3037 C   0  0  2  0  0  0  0  0  0  0  0  0
  145.7455  134.6735  152.1352 C   0  0  0  0  0  0  0  0  0  0  0  0
  144.7591  133.4936  152.1779 C   0  0  0  0  0  0  0  0  0  0  0  0
  143.2824  133.8764  151.9977 C   0  0  0  0  0  0  0  0  0  0  0  0
  142.7416  134.7923  153.1085 C   0  0  0  0  0  0  0  0  0  0  0  0
  143.1650  136.1754  152.9335 N   0  0  0  0  0  0  0  0  0  0  0  0
  144.4206  136.6466  152.9772 C   0  0  0  0  0  0  0  0  0  0  0  0
  144.6451  137.8365  152.7552 O   0  0  0  0  0  0  0  0  0  0  0  0
  148.8881  137.4225  153.4887 H   0  0  0  0  0  0  0  0  0  0  0  0
  147.7756  138.8196  156.8148 H   0  0  0  0  0  0  0  0  0  0  0  0
  149.0900  140.5941  157.9211 H   0  0  0  0  0  0  0  0  0  0  0  0
  149.7524  142.6024  158.1795 H   0  0  0  0  0  0  0  0  0  0  0  0
  150.8108  141.3750  158.8765 H   0  0  0  0  0  0  0  0  0  0  0  0
  150.4410  139.1898  153.4154 H   0  0  0  0  0  0  0  0  0  0  0  0
  147.5500  136.2120  152.7571 H   0  0  0  0  0  0  0  0  0  0  0  0
  145.3640  135.1340  154.2295 H   0  0  0  0  0  0  0  0  0  0  0  0
  145.6826  135.1835  151.1723 H   0  0  0  0  0  0  0  0  0  0  0  0
  146.7500  134.2489  152.1742 H   0  0  0  0  0  0  0  0  0  0  0  0
  145.0303  132.7868  151.3931 H   0  0  0  0  0  0  0  0  0  0  0  0
  144.8816  132.9529  153.1171 H   0  0  0  0  0  0  0  0  0  0  0  0
  143.1286  134.3372  151.0210 H   0  0  0  0  0  0  0  0  0  0  0  0
  142.6933  132.9587  151.9904 H   0  0  0  0  0  0  0  0  0  0  0  0
  141.6519  134.7854  153.0792 H   0  0  0  0  0  0  0  0  0  0  0  0
  143.0243  134.4269  154.0968 H   0  0  0  0  0  0  0  0  0  0  0  0
  142.4337  136.8411  152.7283 H   0  0  0  0  0  0  0  0  0  0  0  0
  1  2  2  0  0  0  0
  2  3  1  0  0  0  0
  2 16  1  0  0  0  0
  3  4  1  0  0  0  0
  3 25  1  0  0  0  0
  4 15  1  0  0  0  0
  4  5  2  0  0  0  0
  5  6  1  0  0  0  0
  5 26  1  0  0  0  0
  6  7  2  0  0  0  0
  6 27  1  0  0  0  0
  7  8  1  0  0  0  0
  7 14  1  0  0  0  0
  8  9  1  0  0  0  0
  9 10  1  0  0  0  0
  9 28  1  0  0  0  0
  9 29  1  0  0  0  0
 10 11  1  0  0  0  0
 10 12  1  0  0  0  0
 10 13  1  0  0  0  0
 14 15  2  0  0  0  0
 15 30  1  0  0  0  0
 16 17  1  0  0  0  0
 16 31  1  0  0  0  0
 17 23  1  0  0  0  0
 17 18  1  0  0  0  0
 17 32  1  0  0  0  0
 18 19  1  0  0  0  0
 18 33  1  0  0  0  0
 18 34  1  0  0  0  0
 19 20  1  0  0  0  0
 19 35  1  0  0  0  0
 19 36  1  0  0  0  0
 20 21  1  0  0  0  0
 20 37  1  0  0  0  0
 20 38  1  0  0  0  0
 21 22  1  0  0  0  0
 21 39  1  0  0  0  0
 21 40  1  0  0  0  0
 22 23  1  0  0  0  0
 22 41  1  0  0  0  0
 23 24  2  0  0  0  0
M  END
> <s_m_source_file>
AV-unprocessed.smi

> <i_m_source_file_index>
1159

> <i_lp_mmshare_version>
43012

> <i_f3d_flags>
0

> <s_epik_input>
Tz1DMVtOSF1bQ0gyXVtDSDJdW0NIMl1bQ0gyXVtDQEhdMVtOSF1DKD1PKVtOSF1jMltjSF1bY0hdYyhuW2NIXTIpT1tDSDJdQyhGKShGKUY=

> <s_epik_cmdline>
J2VwaWtfcHl0aG9uJywgJy1waCcsICc3LjAnLCAnLXRuJywgJzgnLCAnLW1hJywgJzIwMCcsICctbWV0YWxfYmluZGluZycsICctaW1hZScsICc8aW5maWxlLm1hZT4nLCAnLW9tYWUnLCAnPG91dGZpbGUubWFlPic=

> <r_lp_tautomer_probability>
1

> <r_epik_Ionization_Penalty>
3.53205e-05

> <r_epik_Ionization_Penalty_Charging>
0

> <r_epik_Ionization_Penalty_Neutral>
3.53205e-05

> <r_epik_State_Penalty>
-0

> <r_epik_Charging_Adjusted_Penalty>
0

> <i_epik_Tot_Q>
0

> <i_epik_Tot_abs_Q>
0

> <r_epik_Metal_State_Penalty>
-0

> <b_epik_Metal_Only>
0

> <s_lp_Force_Field>
OPLS_2005

> <r_lp_Energy>
13.2476

> <b_lp_Chiralities_Consistent>
1

> <s_lp_Variant>
AV-unprocessed.smi:1159-1

> <Gold.Version>
5.8.1

> <Gold.Id.Protein>
6NUR|6NUR_protein|mol2

> <Gold.PLP.Fitness>
44.0631

> <Gold.PLP.PLP>
-34.2480

> <Gold.PLP.part.hbond>
-3.0000

> <Gold.PLP.part.metal>
0.0000

> <Gold.PLP.part.buried>
-6.2369

> <Gold.PLP.part.nonpolar>
-28.0353

> <Gold.PLP.part.repulsive>
2.5307

> <Gold.PLP.ligand.clash>
0.5851

> <Gold.PLP.ligand.torsion>
0.2645

> <Gold.PLP.Chemscore.Hbond>
2.6420

> <Gold.PLP.Chemscore.CHOScore>
0.9964

> <Gold.PLP.Chemscore.Metal>
0.0000

> <Gold.Chemscore.Hbonds>
donor molecule, donor type, donor heavy atom, donor atom, acceptor molecule, acceptor atom, score
      L1  H     3    25       P1  7948  0.99
      L1  H    16    31       P1  7948  1.00
      P1  H  7989  7998       L1    14  0.60
      L1  C    15    30       P1  7957  0.98

> <Gold.PLP.Chemscore.Internal.Correction>
0.0138

> <Gold.Rescore>
     Score         DG    S(hbond)    S(metal)    S(lipo)     H(rot)  DE(clash)    DE(int)     intcor
     13.43     -15.84       2.54        0.00      55.51       1.81       0.29       2.13       ----

> <Gold.Chemscore.Fitness>
13.4301

> <Gold.Chemscore.DG>
-15.8450

> <Gold.Chemscore.ZeroCoef>
-5.4800

> <Gold.Chemscore.Hbond>
2.5432

> <Gold.Chemscore.Metal>
0.0000

> <Gold.Chemscore.Lipo>
55.5084

> <Gold.Chemscore.Internal_Hbond>
0.0000

> <Gold.Chemscore.DEClash>
0.2854

> <Gold.Chemscore.DEInternal>
2.1294

> <Gold.Chemscore.Rot>
1.8062

> <Gold.Chemscore.Internal.Correction>
   9.000000E+99

> <Gold.Chemscore.Hbonds>
donor molecule, donor type, donor heavy atom, donor atom, acceptor molecule, acceptor atom, score
      L1  H     3    25       P1  7948  0.90
      L1  H    16    31       P1  7948  1.00
      P1  H  7989  7998       L1    14  0.04

> <Gold.Chemscore.Hbond.Weighted>
-8.4943

> <Gold.Chemscore.Metal.Weighted>
-0.0000

> <Gold.Chemscore.Lipo.Weighted>
-6.4945

> <Gold.Chemscore.Internal_Hbond.Weighted>
0.0000

> <Gold.Chemscore.DEClash.Weighted>
0.2854

> <Gold.Chemscore.DEInternal.Weighted>
2.1294

> <Gold.Chemscore.Rot.Weighted>
4.6238

> <Gold.Chemscore.Internal.Correction.Weighted>
   9.000000E+99

> <Gold.Protein.RotatedTorsions>
[ 6907 6896 6895 6894 ] final  -29.10 input  -60.11 | X-H torsion
[ 7974 7965 7964 7962 ] final  -35.92 input  175.53 | X-H torsion
[ 8008 7997 7996 7995 ] final -105.51 input   59.86 | X-H torsion
[ 10167 10162 10161 10158 ] final  -50.64 input  -65.29 | X-H torsion
[ 10718 10713 10712 10709 ] final -124.13 input   66.30 | X-H torsion
[ 10763 10752 10751 10750 ] final   72.86 input  -60.55 | X-H torsion
[ 11005 11000 10999 10996 ] final    6.07 input  -57.11 | X-H torsion

> <Gold.Protein.ActiveResidues>
 VAL166  LYS551  ARG553  GLY616  TRP617  ASP618  TYR619  PRO620  LYS621  CYS622 
 ASP623  PHE694  ASN695  SER759  ASP760  ASP761  ALA762  ILE779  LEU786  VAL792 
 PHE793  MET794  SER795  GLU796  ALA797  LYS798  CYS799  TRP800  GLU811  SER814 

> <Gold.Protein.RotatedAtoms>
  151.1238  135.0093  159.8550 H   0  0  0  0  0  0  0  0  0  0  0  0  # atno 6907 bound_to 6896
  152.5449  134.1691  159.8599 H   0  0  0  0  0  0  0  0  0  0  0  0  # atno 6908 bound_to 6896
  151.1752  133.4714  159.2627 H   0  0  0  0  0  0  0  0  0  0  0  0  # atno 6909 bound_to 6896
  146.0706  140.6216  142.8954 H   0  0  0  0  0  0  0  0  0  0  0  0  # atno 7974 bound_to 7965
  154.9009  140.0413  157.1892 H   0  0  0  0  0  0  0  0  0  0  0  0  # atno 8008 bound_to 7997
  154.8444  140.2919  155.5617 H   0  0  0  0  0  0  0  0  0  0  0  0  # atno 8009 bound_to 7997
  156.2993  140.2476  156.3393 H   0  0  0  0  0  0  0  0  0  0  0  0  # atno 8010 bound_to 7997
  140.6628  143.2650  151.4388 H   0  0  0  0  0  0  0  0  0  0  0  0  # atno 10167 bound_to 10162
  156.1561  130.6569  150.9984 H   0  0  0  0  0  0  0  0  0  0  0  0  # atno 10718 bound_to 10713
  153.0485  135.5084  154.7807 H   0  0  0  0  0  0  0  0  0  0  0  0  # atno 10763 bound_to 10752
  154.6688  135.2950  154.9772 H   0  0  0  0  0  0  0  0  0  0  0  0  # atno 10764 bound_to 10752
  154.0598  135.6692  153.4863 H   0  0  0  0  0  0  0  0  0  0  0  0  # atno 10765 bound_to 10752
  140.5636  134.0169  155.7981 H   0  0  0  0  0  0  0  0  0  0  0  0  # atno 11005 bound_to 11000
  144.7229  140.4432  143.6994 LP  0  0  0  0  0  0  0  0  0  0  0  0  # atno 17320 bound_to 7965
  145.6398  139.1548  143.2922 LP  0  0  0  0  0  0  0  0  0  0  0  0  # atno 17321 bound_to 7965
  139.5867  144.1589  152.2037 LP  0  0  0  0  0  0  0  0  0  0  0  0  # atno 17342 bound_to 10162
  140.0931  144.5603  150.7041 LP  0  0  0  0  0  0  0  0  0  0  0  0  # atno 17343 bound_to 10162
  157.6696  131.0864  150.7645 LP  0  0  0  0  0  0  0  0  0  0  0  0  # atno 17370 bound_to 10713
  156.7710  130.4829  149.5418 LP  0  0  0  0  0  0  0  0  0  0  0  0  # atno 17371 bound_to 10713
  141.1099  133.9633  157.2928 LP  0  0  0  0  0  0  0  0  0  0  0  0  # atno 17394 bound_to 11000
  139.9396  135.0192  156.8665 LP  0  0  0  0  0  0  0  0  0  0  0  0  # atno 17395 bound_to 11000

$$$$
