AV-unprocessed.smi:3345|AV-procd|sdf|12900|dock5
  -GOLD-   2272019313D 1   1.00000     0.00000
 Structure written by MMmdl.
 40 41  0  0  0  0  0  0  0  0  1 V2000
  149.8280  133.9467  154.5060 C   0  0  0  0  0  0  0  0  0  0  0  0
  148.4204  134.5080  154.7597 C   0  0  1  0  0  0  0  0  0  0  0  0
  148.4743  135.8515  155.5196 C   0  0  0  0  0  0  0  0  0  0  0  0
  149.1938  136.9261  154.8348 N   0  0  0  0  0  0  0  0  0  0  0  0
  150.6446  136.8034  154.9595 C   0  0  0  0  0  0  0  0  0  0  0  0
  151.3828  137.9573  154.2587 C   0  0  0  0  0  0  0  0  0  0  0  0
  150.9291  139.2030  154.7777 O   0  0  0  0  0  0  0  0  0  0  0  0
  149.5246  139.3805  154.6262 C   0  0  0  0  0  0  0  0  0  0  0  0
  148.7833  138.2338  155.3350 C   0  0  0  0  0  0  0  0  0  0  0  0
  147.7523  134.6907  153.4730 N   0  0  0  0  0  0  0  0  0  0  0  0
  146.4936  134.3214  153.1868 C   0  0  0  0  0  0  0  0  0  0  0  0
  145.7433  133.7875  154.0043 O   0  0  0  0  0  0  0  0  0  0  0  0
  146.0160  134.5878  151.7525 C   0  0  2  0  0  0  0  0  0  0  0  0
  145.1526  135.8622  151.6613 C   0  0  0  0  0  0  0  0  0  0  0  0
  145.3369  133.4080  151.2290 N   0  0  0  0  0  0  0  0  0  0  0  0
  145.8149  132.1864  150.9812 C   0  0  0  0  0  0  0  0  0  0  0  0
  144.9014  131.3249  150.5560 N   0  0  0  0  0  0  0  0  0  0  0  0
  143.7996  132.1316  150.5801 C   0  0  0  0  0  0  0  0  0  0  0  0
  144.0021  133.3847  150.9861 N   0  0  0  0  0  0  0  0  0  0  0  0
  150.3554  133.7714  155.4441 H   0  0  0  0  0  0  0  0  0  0  0  0
  150.4290  134.6341  153.9094 H   0  0  0  0  0  0  0  0  0  0  0  0
  149.7832  132.9954  153.9746 H   0  0  0  0  0  0  0  0  0  0  0  0
  147.8831  133.7810  155.3720 H   0  0  0  0  0  0  0  0  0  0  0  0
  147.4467  136.1870  155.6655 H   0  0  0  0  0  0  0  0  0  0  0  0
  148.8734  135.7072  156.5251 H   0  0  0  0  0  0  0  0  0  0  0  0
  150.9251  136.7817  156.0136 H   0  0  0  0  0  0  0  0  0  0  0  0
  150.9822  135.8628  154.5255 H   0  0  0  0  0  0  0  0  0  0  0  0
  152.4575  137.8734  154.4199 H   0  0  0  0  0  0  0  0  0  0  0  0
  151.2169  137.9228  153.1808 H   0  0  0  0  0  0  0  0  0  0  0  0
  149.2374  140.3408  155.0546 H   0  0  0  0  0  0  0  0  0  0  0  0
  149.2663  139.4117  153.5664 H   0  0  0  0  0  0  0  0  0  0  0  0
  147.7091  138.3627  155.1973 H   0  0  0  0  0  0  0  0  0  0  0  0
  148.9694  138.2944  156.4085 H   0  0  0  0  0  0  0  0  0  0  0  0
  148.2939  135.1258  152.7404 H   0  0  0  0  0  0  0  0  0  0  0  0
  146.8953  134.7495  151.1263 H   0  0  0  0  0  0  0  0  0  0  0  0
  145.7089  136.7358  152.0031 H   0  0  0  0  0  0  0  0  0  0  0  0
  144.2477  135.7924  152.2665 H   0  0  0  0  0  0  0  0  0  0  0  0
  144.8481  136.0520  150.6317 H   0  0  0  0  0  0  0  0  0  0  0  0
  146.8525  131.9201  151.1201 H   0  0  0  0  0  0  0  0  0  0  0  0
  142.8174  131.7833  150.2959 H   0  0  0  0  0  0  0  0  0  0  0  0
  1  2  1  0  0  0  0
  1 20  1  0  0  0  0
  1 21  1  0  0  0  0
  1 22  1  0  0  0  0
  2  3  1  0  0  0  0
  2 10  1  0  0  0  0
  2 23  1  0  0  0  0
  3  4  1  0  0  0  0
  3 24  1  0  0  0  0
  3 25  1  0  0  0  0
  4  9  1  0  0  0  0
  4  5  1  0  0  0  0
  5  6  1  0  0  0  0
  5 26  1  0  0  0  0
  5 27  1  0  0  0  0
  6  7  1  0  0  0  0
  6 28  1  0  0  0  0
  6 29  1  0  0  0  0
  7  8  1  0  0  0  0
  8  9  1  0  0  0  0
  8 30  1  0  0  0  0
  8 31  1  0  0  0  0
  9 32  1  0  0  0  0
  9 33  1  0  0  0  0
 10 11  1  0  0  0  0
 10 34  1  0  0  0  0
 11 12  2  0  0  0  0
 11 13  1  0  0  0  0
 13 14  1  0  0  0  0
 13 15  1  0  0  0  0
 13 35  1  0  0  0  0
 14 36  1  0  0  0  0
 14 37  1  0  0  0  0
 14 38  1  0  0  0  0
 15 19  1  0  0  0  0
 15 16  1  0  0  0  0
 16 17  2  0  0  0  0
 16 39  1  0  0  0  0
 17 18  1  0  0  0  0
 18 19  2  0  0  0  0
 18 40  1  0  0  0  0
M  END
> <s_m_source_file>
AV-unprocessed.smi

> <i_m_source_file_index>
3345

> <i_lp_mmshare_version>
43012

> <i_f3d_flags>
0

> <s_epik_input>
W0NIMl0xW0NIMl1PW0NIMl1bQ0gyXU4xW0NIMl1bQ0BASF0oW0NIM10pW05IXUMoPU8pW0NASF0oW0NIM10pbjJbY0hdbltjSF1uMg==

> <s_epik_cmdline>
J2VwaWtfcHl0aG9uJywgJy1waCcsICc3LjAnLCAnLXRuJywgJzgnLCAnLW1hJywgJzIwMCcsICctbWV0YWxfYmluZGluZycsICctaW1hZScsICc8aW5maWxlLm1hZT4nLCAnLW9tYWUnLCAnPG91dGZpbGUubWFlPic=

> <r_lp_tautomer_probability>
1

> <r_epik_Ionization_Penalty>
0.211373

> <r_epik_Ionization_Penalty_Charging>
0

> <r_epik_Ionization_Penalty_Neutral>
0.211373

> <r_epik_State_Penalty>
0.201459

> <r_epik_Charging_Adjusted_Penalty>
0.201459

> <i_epik_Tot_Q>
0

> <i_epik_Tot_abs_Q>
0

> <r_epik_Metal_State_Penalty>
0.201458

> <b_epik_Metal_Only>
0

> <s_lp_Force_Field>
OPLS_2005

> <r_lp_Energy>
31.9378

> <b_lp_Chiralities_Consistent>
1

> <s_lp_Variant>
AV-unprocessed.smi:3345-2

> <Gold.Version>
5.8.1

> <Gold.Id.Protein>
6NUR|6NUR_protein|mol2

> <Gold.PLP.Fitness>
37.4173

> <Gold.PLP.PLP>
-27.4157

> <Gold.PLP.part.hbond>
-1.8562

> <Gold.PLP.part.metal>
0.0000

> <Gold.PLP.part.buried>
-6.0774

> <Gold.PLP.part.nonpolar>
-21.6564

> <Gold.PLP.part.repulsive>
1.6441

> <Gold.PLP.ligand.clash>
0.0000

> <Gold.PLP.ligand.torsion>
1.0184

> <Gold.PLP.Chemscore.Hbond>
1.9588

> <Gold.PLP.Chemscore.CHOScore>
2.0000

> <Gold.PLP.Chemscore.Metal>
0.0000

> <Gold.Chemscore.Hbonds>
donor molecule, donor type, donor heavy atom, donor atom, acceptor molecule, acceptor atom, score
      L1  H    10    34       P1  7948  0.99
      P1  H  7989  7998       L1     7  0.52
      L1  C    16    39       P1 10747  1.00
      L1  C    18    40       P1 10952  0.92

> <Gold.PLP.Chemscore.Internal.Correction>
0.1622

> <Gold.Rescore>
     Score         DG    S(hbond)    S(metal)    S(lipo)     H(rot)  DE(clash)    DE(int)     intcor
      6.71      -9.16       1.50        0.00      44.21       2.54       0.42       2.03       ----

> <Gold.Chemscore.Fitness>
6.7068

> <Gold.Chemscore.DG>
-9.1569

> <Gold.Chemscore.ZeroCoef>
-5.4800

> <Gold.Chemscore.Hbond>
1.4956

> <Gold.Chemscore.Metal>
0.0000

> <Gold.Chemscore.Lipo>
44.2064

> <Gold.Chemscore.Internal_Hbond>
0.0000

> <Gold.Chemscore.DEClash>
0.4185

> <Gold.Chemscore.DEInternal>
2.0317

> <Gold.Chemscore.Rot>
2.5353

> <Gold.Chemscore.Internal.Correction>
   9.000000E+99

> <Gold.Chemscore.Hbonds>
donor molecule, donor type, donor heavy atom, donor atom, acceptor molecule, acceptor atom, score
      L1  H    10    34       P1  7948  0.79
      P1  H  7989  7998       L1     7  0.09

> <Gold.Chemscore.Hbond.Weighted>
-4.9953

> <Gold.Chemscore.Metal.Weighted>
-0.0000

> <Gold.Chemscore.Lipo.Weighted>
-5.1721

> <Gold.Chemscore.Internal_Hbond.Weighted>
0.0000

> <Gold.Chemscore.DEClash.Weighted>
0.4185

> <Gold.Chemscore.DEInternal.Weighted>
2.0317

> <Gold.Chemscore.Rot.Weighted>
6.4905

> <Gold.Chemscore.Internal.Correction.Weighted>
   9.000000E+99

> <Gold.Protein.RotatedTorsions>
[ 6907 6896 6895 6894 ] final  -75.80 input  -60.11 | X-H torsion
[ 7974 7965 7964 7962 ] final  135.65 input  175.53 | X-H torsion
[ 8008 7997 7996 7995 ] final   71.35 input   59.86 | X-H torsion
[ 10167 10162 10161 10158 ] final -138.50 input  -65.29 | X-H torsion
[ 10718 10713 10712 10709 ] final -149.06 input   66.30 | X-H torsion
[ 10763 10752 10751 10750 ] final   15.29 input  -60.55 | X-H torsion
[ 11005 11000 10999 10996 ] final  130.46 input  -57.11 | X-H torsion

> <Gold.Protein.ActiveResidues>
 VAL166  LYS551  ARG553  GLY616  TRP617  ASP618  TYR619  PRO620  LYS621  CYS622 
 ASP623  PHE694  ASN695  SER759  ASP760  ASP761  ALA762  ILE779  LEU786  VAL792 
 PHE793  MET794  SER795  GLU796  ALA797  LYS798  CYS799  TRP800  GLU811  SER814 

> <Gold.Protein.RotatedAtoms>
  150.7047  134.4667  159.5405 H   0  0  0  0  0  0  0  0  0  0  0  0  # atno 6907 bound_to 6896
  152.2331  134.8300  160.0480 H   0  0  0  0  0  0  0  0  0  0  0  0  # atno 6908 bound_to 6896
  151.9109  133.3526  159.3900 H   0  0  0  0  0  0  0  0  0  0  0  0  # atno 6909 bound_to 6896
  144.9643  139.4676  143.5464 H   0  0  0  0  0  0  0  0  0  0  0  0  # atno 7974 bound_to 7965
  155.7525  140.3488  155.5158 H   0  0  0  0  0  0  0  0  0  0  0  0  # atno 8008 bound_to 7997
  155.8991  140.1031  157.1384 H   0  0  0  0  0  0  0  0  0  0  0  0  # atno 8009 bound_to 7997
  154.4042  140.1289  156.4399 H   0  0  0  0  0  0  0  0  0  0  0  0  # atno 8010 bound_to 7997
  139.8472  143.7246  152.2660 H   0  0  0  0  0  0  0  0  0  0  0  0  # atno 10167 bound_to 10162
  156.4282  130.8062  151.2288 H   0  0  0  0  0  0  0  0  0  0  0  0  # atno 10718 bound_to 10713
  153.1539  135.6783  153.8841 H   0  0  0  0  0  0  0  0  0  0  0  0  # atno 10763 bound_to 10752
  153.8258  135.3124  155.3415 H   0  0  0  0  0  0  0  0  0  0  0  0  # atno 10764 bound_to 10752
  154.7883  135.4849  154.0082 H   0  0  0  0  0  0  0  0  0  0  0  0  # atno 10765 bound_to 10752
  139.9673  134.9587  156.9297 H   0  0  0  0  0  0  0  0  0  0  0  0  # atno 11005 bound_to 11000
  146.3363  139.8813  142.8824 LP  0  0  0  0  0  0  0  0  0  0  0  0  # atno 17320 bound_to 7965
  145.2653  141.0091  143.3803 LP  0  0  0  0  0  0  0  0  0  0  0  0  # atno 17321 bound_to 7965
  139.7501  144.7536  151.0519 LP  0  0  0  0  0  0  0  0  0  0  0  0  # atno 17342 bound_to 10162
  140.7792  143.4870  150.9943 LP  0  0  0  0  0  0  0  0  0  0  0  0  # atno 17343 bound_to 10162
  157.7508  131.0206  150.3717 LP  0  0  0  0  0  0  0  0  0  0  0  0  # atno 17370 bound_to 10713
  156.4049  130.3923  149.6933 LP  0  0  0  0  0  0  0  0  0  0  0  0  # atno 17371 bound_to 10713
  140.5368  134.0759  155.7330 LP  0  0  0  0  0  0  0  0  0  0  0  0  # atno 17394 bound_to 11000
  141.1353  133.9232  157.2447 LP  0  0  0  0  0  0  0  0  0  0  0  0  # atno 17395 bound_to 11000

$$$$
