AV-unprocessed.smi:3091|AV-procd|sdf|11778|dock5
  -GOLD-   2272017163D 1   1.00000     0.00000
 Structure written by MMmdl.
 29 30  0  0  0  0  0  0  0  0  2 V2000
  147.0723  138.5193  151.4130 N   0  3  0  0  0  0  0  0  0  0  0  0
  146.4854  138.7822  152.7366 C   0  0  0  0  0  0  0  0  0  0  0  0
  147.3122  139.7989  153.4963 C   0  0  0  0  0  0  0  0  0  0  0  0
  146.7749  141.0592  153.8269 C   0  0  0  0  0  0  0  0  0  0  0  0
  147.5878  141.9701  154.5294 C   0  0  0  0  0  0  0  0  0  0  0  0
  148.8566  141.6963  154.8992 N   0  0  0  0  0  0  0  0  0  0  0  0
  149.3743  140.4840  154.5802 C   0  0  0  0  0  0  0  0  0  0  0  0
  150.6702  140.1866  154.9534 O   0  0  0  0  0  0  0  0  0  0  0  0
  150.9328  139.0023  155.7094 C   0  0  2  0  0  0  0  0  0  0  0  0
  152.3477  139.0169  156.2739 C   0  0  0  0  0  0  0  0  0  0  0  0
  153.1591  138.4007  155.1438 C   0  0  0  0  0  0  0  0  0  0  0  0
  152.3130  137.3645  154.6761 O   0  0  0  0  0  0  0  0  0  0  0  0
  150.9626  137.8134  154.7369 C   0  0  0  0  0  0  0  0  0  0  0  0
  148.6372  139.5071  153.8795 C   0  0  0  0  0  0  0  0  0  0  0  0
  146.3375  138.4542  150.7233 H   0  0  0  0  0  0  0  0  0  0  0  0
  147.5873  137.6508  151.4416 H   0  0  0  0  0  0  0  0  0  0  0  0
  145.4653  139.1476  152.6134 H   0  0  0  0  0  0  0  0  0  0  0  0
  146.4295  137.8498  153.2992 H   0  0  0  0  0  0  0  0  0  0  0  0
  145.7646  141.3259  153.5527 H   0  0  0  0  0  0  0  0  0  0  0  0
  147.2091  142.9444  154.8005 H   0  0  0  0  0  0  0  0  0  0  0  0
  150.1780  138.8402  156.4805 H   0  0  0  0  0  0  0  0  0  0  0  0
  152.7020  140.0076  156.5591 H   0  0  0  0  0  0  0  0  0  0  0  0
  152.4005  138.3748  157.1539 H   0  0  0  0  0  0  0  0  0  0  0  0
  153.3291  139.1249  154.3455 H   0  0  0  0  0  0  0  0  0  0  0  0
  154.1238  138.0154  155.4746 H   0  0  0  0  0  0  0  0  0  0  0  0
  150.3290  136.9963  155.0829 H   0  0  0  0  0  0  0  0  0  0  0  0
  150.6201  138.1001  153.7417 H   0  0  0  0  0  0  0  0  0  0  0  0
  149.0852  138.5524  153.6442 H   0  0  0  0  0  0  0  0  0  0  0  0
  147.6991  139.2728  151.1695 H   0  0  0  0  0  0  0  0  0  0  0  0
  1  2  1  0  0  0  0
  1 15  1  0  0  0  0
  1 16  1  0  0  0  0
  1 29  1  0  0  0  0
  2  3  1  0  0  0  0
  2 17  1  0  0  0  0
  2 18  1  0  0  0  0
  3 14  1  0  0  0  0
  3  4  2  0  0  0  0
  4  5  1  0  0  0  0
  4 19  1  0  0  0  0
  5  6  2  0  0  0  0
  5 20  1  0  0  0  0
  6  7  1  0  0  0  0
  7  8  1  0  0  0  0
  7 14  2  0  0  0  0
  8  9  1  0  0  0  0
  9 13  1  0  0  0  0
  9 10  1  0  0  0  0
  9 21  1  0  0  0  0
 10 11  1  0  0  0  0
 10 22  1  0  0  0  0
 10 23  1  0  0  0  0
 11 12  1  0  0  0  0
 11 24  1  0  0  0  0
 11 25  1  0  0  0  0
 12 13  1  0  0  0  0
 13 26  1  0  0  0  0
 13 27  1  0  0  0  0
 14 28  1  0  0  0  0
M  CHG  1   1   1
M  END
> <s_m_source_file>
AV-unprocessed.smi

> <i_m_source_file_index>
3091

> <i_lp_mmshare_version>
43012

> <i_f3d_flags>
0

> <s_epik_input>
W05IMl1bQ0gyXWMxW2NIXVtjSF1uYyhbY0hdMSlPW0NAQEhdMltDSDJdW0NIMl1PW0NIMl0y

> <s_epik_cmdline>
J2VwaWtfcHl0aG9uJywgJy1waCcsICc3LjAnLCAnLXRuJywgJzgnLCAnLW1hJywgJzIwMCcsICctbWV0YWxfYmluZGluZycsICctaW1hZScsICc8aW5maWxlLm1hZT4nLCAnLW9tYWUnLCAnPG91dGZpbGUubWFlPic=

> <r_lp_tautomer_probability>
1

> <r_epik_Ionization_Penalty>
0.0773124

> <r_epik_Ionization_Penalty_Charging>
0.0773118

> <r_epik_Ionization_Penalty_Neutral>
5.92883e-07

> <r_epik_State_Penalty>
0.0682686

> <r_epik_Charging_Adjusted_Penalty>
0.14558

> <i_epik_Tot_Q>
1

> <i_epik_Tot_abs_Q>
1

> <r_epik_Metal_State_Penalty>
0.0682821

> <b_epik_Metal_Only>
0

> <s_lp_Force_Field>
OPLS_2005

> <r_lp_Energy>
12.9222

> <b_lp_Chiralities_Consistent>
1

> <s_lp_Variant>
AV-unprocessed.smi:3091-1

> <Gold.Version>
5.8.1

> <Gold.Id.Protein>
6NUR|6NUR_protein|mol2

> <Gold.PLP.Fitness>
42.9620

> <Gold.PLP.PLP>
-26.6699

> <Gold.PLP.part.hbond>
-4.0000

> <Gold.PLP.part.metal>
0.0000

> <Gold.PLP.part.buried>
-2.4651

> <Gold.PLP.part.nonpolar>
-23.0967

> <Gold.PLP.part.repulsive>
1.9112

> <Gold.PLP.ligand.clash>
0.0000

> <Gold.PLP.ligand.torsion>
0.1901

> <Gold.PLP.Chemscore.Hbond>
4.7520

> <Gold.PLP.Chemscore.CHOScore>
0.7995

> <Gold.PLP.Chemscore.Metal>
0.0000

> <Gold.Chemscore.Hbonds>
donor molecule, donor type, donor heavy atom, donor atom, acceptor molecule, acceptor atom, score
      L1  H     1    16       P1  7948  2.00
      L1  H     1    29       P1  7957  0.99
      P1  H  7989  7998       L1     8  1.00
      P1  H 10752 10765       L1    12  0.72
      L1  C     5    20       P1  8028  0.77

> <Gold.PLP.Chemscore.Internal.Correction>
0.0179

> <Gold.Rescore>
     Score         DG    S(hbond)    S(metal)    S(lipo)     H(rot)  DE(clash)    DE(int)     intcor
     16.70     -18.24       2.97        0.00      59.05       1.59       0.42       1.12       ----

> <Gold.Chemscore.Fitness>
16.7023

> <Gold.Chemscore.DG>
-18.2422

> <Gold.Chemscore.ZeroCoef>
-5.4800

> <Gold.Chemscore.Hbond>
2.9729

> <Gold.Chemscore.Metal>
0.0000

> <Gold.Chemscore.Lipo>
59.0524

> <Gold.Chemscore.Internal_Hbond>
0.0000

> <Gold.Chemscore.DEClash>
0.4181

> <Gold.Chemscore.DEInternal>
1.1219

> <Gold.Chemscore.Rot>
1.5924

> <Gold.Chemscore.Internal.Correction>
   9.000000E+99

> <Gold.Chemscore.Hbonds>
donor molecule, donor type, donor heavy atom, donor atom, acceptor molecule, acceptor atom, score
      L1  H     1    16       P1  7948  0.98
      L1  H     1    29       P1  7957  0.67
      P1  H  7989  7998       L1     8  0.30
      P1  H 10752 10765       L1    12  0.70

> <Gold.Chemscore.Hbond.Weighted>
-9.9296

> <Gold.Chemscore.Metal.Weighted>
-0.0000

> <Gold.Chemscore.Lipo.Weighted>
-6.9091

> <Gold.Chemscore.Internal_Hbond.Weighted>
0.0000

> <Gold.Chemscore.DEClash.Weighted>
0.4181

> <Gold.Chemscore.DEInternal.Weighted>
1.1219

> <Gold.Chemscore.Rot.Weighted>
4.0765

> <Gold.Chemscore.Internal.Correction.Weighted>
   9.000000E+99

> <Gold.Protein.RotatedTorsions>
[ 6907 6896 6895 6894 ] final  -90.34 input  -60.11 | X-H torsion
[ 7974 7965 7964 7962 ] final -153.18 input  175.53 | X-H torsion
[ 8008 7997 7996 7995 ] final   57.23 input   59.86 | X-H torsion
[ 10167 10162 10161 10158 ] final   31.41 input  -65.29 | X-H torsion
[ 10718 10713 10712 10709 ] final   24.75 input   66.30 | X-H torsion
[ 10763 10752 10751 10750 ] final  173.67 input  -60.55 | X-H torsion
[ 11005 11000 10999 10996 ] final -126.33 input  -57.11 | X-H torsion

> <Gold.Protein.ActiveResidues>
 VAL166  LYS551  ARG553  GLY616  TRP617  ASP618  TYR619  PRO620  LYS621  CYS622 
 ASP623  PHE694  ASN695  SER759  ASP760  ASP761  ALA762  ILE779  LEU786  VAL792 
 PHE793  MET794  SER795  GLU796  ALA797  LYS798  CYS799  TRP800  GLU811  SER814 

> <Gold.Protein.RotatedAtoms>
  150.6881  134.2447  159.4486 H   0  0  0  0  0  0  0  0  0  0  0  0  # atno 6907 bound_to 6896
  152.0388  134.9721  160.0583 H   0  0  0  0  0  0  0  0  0  0  0  0  # atno 6908 bound_to 6896
  152.1231  133.4330  159.4722 H   0  0  0  0  0  0  0  0  0  0  0  0  # atno 6909 bound_to 6896
  144.7754  140.4561  143.5877 H   0  0  0  0  0  0  0  0  0  0  0  0  # atno 7974 bound_to 7965
  155.5304  140.3482  155.4425 H   0  0  0  0  0  0  0  0  0  0  0  0  # atno 8008 bound_to 7997
  156.0722  140.1366  156.9841 H   0  0  0  0  0  0  0  0  0  0  0  0  # atno 8009 bound_to 7997
  154.4534  140.0963  156.6662 H   0  0  0  0  0  0  0  0  0  0  0  0  # atno 8010 bound_to 7997
  140.4591  144.0933  150.6208 H   0  0  0  0  0  0  0  0  0  0  0  0  # atno 10167 bound_to 10162
  157.1841  130.6816  149.6124 H   0  0  0  0  0  0  0  0  0  0  0  0  # atno 10718 bound_to 10713
  154.4433  135.2762  155.1832 H   0  0  0  0  0  0  0  0  0  0  0  0  # atno 10763 bound_to 10752
  154.3690  135.6113  153.5733 H   0  0  0  0  0  0  0  0  0  0  0  0  # atno 10764 bound_to 10752
  152.9842  135.5852  154.4764 H   0  0  0  0  0  0  0  0  0  0  0  0  # atno 10765 bound_to 10752
  140.9690  134.0832  157.3890 H   0  0  0  0  0  0  0  0  0  0  0  0  # atno 11005 bound_to 11000
  145.6200  139.1523  143.3028 LP  0  0  0  0  0  0  0  0  0  0  0  0  # atno 17320 bound_to 7965
  146.1930  140.6311  142.9137 LP  0  0  0  0  0  0  0  0  0  0  0  0  # atno 17321 bound_to 7965
  140.4115  143.2655  151.9827 LP  0  0  0  0  0  0  0  0  0  0  0  0  # atno 17342 bound_to 10162
  139.4804  144.5911  151.7769 LP  0  0  0  0  0  0  0  0  0  0  0  0  # atno 17343 bound_to 10162
  155.9720  130.4637  150.6190 LP  0  0  0  0  0  0  0  0  0  0  0  0  # atno 17370 bound_to 10713
  157.3924  131.0797  151.1382 LP  0  0  0  0  0  0  0  0  0  0  0  0  # atno 17371 bound_to 10713
  139.8905  135.0112  156.6739 LP  0  0  0  0  0  0  0  0  0  0  0  0  # atno 17394 bound_to 11000
  140.7357  133.9021  155.8242 LP  0  0  0  0  0  0  0  0  0  0  0  0  # atno 17395 bound_to 11000

$$$$
