AV-unprocessed.smi:1873|AV-procd|sdf|7609|dock2
  -GOLD-   22720 9333D 1   1.00000     0.00000
 Structure written by MMmdl.
 37 39  0  0  0  0  0  0  0  0  2 V2000
  153.0843  138.9904  155.7299 O   0  0  0  0  0  0  0  0  0  0  0  0
  151.6785  138.9708  155.8883 C   0  0  2  0  0  0  0  0  0  0  0  0
  151.3002  139.6307  157.2290 C   0  0  0  0  0  0  0  0  0  0  0  0
  151.2143  141.0933  157.1348 N   0  0  0  0  0  0  0  0  0  0  0  0
  150.6158  141.8767  156.1972 C   0  0  0  0  0  0  0  0  0  0  0  0
  150.8052  143.1745  156.5650 N   0  3  0  0  0  0  0  0  0  0  0  0
  151.5365  143.2204  157.7543 C   0  0  0  0  0  0  0  0  0  0  0  0
  151.9737  144.2997  158.5160 C   0  0  0  0  0  0  0  0  0  0  0  0
  152.7021  143.9954  159.6852 C   0  0  0  0  0  0  0  0  0  0  0  0
  152.9698  142.6619  160.0583 C   0  0  0  0  0  0  0  0  0  0  0  0
  152.5206  141.5753  159.2792 C   0  0  0  0  0  0  0  0  0  0  0  0
  151.8028  141.8855  158.1250 C   0  0  0  0  0  0  0  0  0  0  0  0
  151.1051  137.5673  155.7798 C   0  0  0  0  0  0  0  0  0  0  0  0
  151.6004  136.5218  156.5877 C   0  0  0  0  0  0  0  0  0  0  0  0
  151.0565  135.2270  156.4844 C   0  0  0  0  0  0  0  0  0  0  0  0
  150.0066  134.9593  155.5831 C   0  0  0  0  0  0  0  0  0  0  0  0
  149.5253  133.6713  155.5188 O   0  0  0  0  0  0  0  0  0  0  0  0
  149.8035  132.9111  154.4264 C   0  0  0  0  0  0  0  0  0  0  0  0
  149.4040  131.6309  154.6257 F   0  0  0  0  0  0  0  0  0  0  0  0
  149.1283  133.3876  153.3528 F   0  0  0  0  0  0  0  0  0  0  0  0
  149.5171  136.0076  154.7677 C   0  0  0  0  0  0  0  0  0  0  0  0
  150.0602  137.3026  154.8703 C   0  0  0  0  0  0  0  0  0  0  0  0
  153.3438  138.2101  155.2639 H   0  0  0  0  0  0  0  0  0  0  0  0
  151.2681  139.5677  155.0729 H   0  0  0  0  0  0  0  0  0  0  0  0
  150.3445  139.2531  157.5952 H   0  0  0  0  0  0  0  0  0  0  0  0
  152.0403  139.3939  157.9948 H   0  0  0  0  0  0  0  0  0  0  0  0
  150.0816  141.5306  155.3238 H   0  0  0  0  0  0  0  0  0  0  0  0
  151.7696  145.3220  158.2333 H   0  0  0  0  0  0  0  0  0  0  0  0
  153.0623  144.8012  160.3083 H   0  0  0  0  0  0  0  0  0  0  0  0
  153.5316  142.4682  160.9608 H   0  0  0  0  0  0  0  0  0  0  0  0
  152.7294  140.5573  159.5728 H   0  0  0  0  0  0  0  0  0  0  0  0
  152.3989  136.7092  157.2908 H   0  0  0  0  0  0  0  0  0  0  0  0
  151.4453  134.4335  157.1058 H   0  0  0  0  0  0  0  0  0  0  0  0
  150.8666  132.9261  154.1842 H   0  0  0  0  0  0  0  0  0  0  0  0
  148.7266  135.8311  154.0536 H   0  0  0  0  0  0  0  0  0  0  0  0
  149.6710  138.0919  154.2440 H   0  0  0  0  0  0  0  0  0  0  0  0
  150.4578  143.9678  156.0415 H   0  0  0  0  0  0  0  0  0  0  0  0
  1  2  1  0  0  0  0
  1 23  1  0  0  0  0
  2  3  1  0  0  0  0
  2 13  1  0  0  0  0
  2 24  1  0  0  0  0
  3  4  1  0  0  0  0
  3 25  1  0  0  0  0
  3 26  1  0  0  0  0
  4 12  1  0  0  0  0
  4  5  1  0  0  0  0
  5  6  2  0  0  0  0
  5 27  1  0  0  0  0
  6  7  1  0  0  0  0
  6 37  1  0  0  0  0
  7 12  2  0  0  0  0
  7  8  1  0  0  0  0
  8  9  2  0  0  0  0
  8 28  1  0  0  0  0
  9 10  1  0  0  0  0
  9 29  1  0  0  0  0
 10 11  2  0  0  0  0
 10 30  1  0  0  0  0
 11 12  1  0  0  0  0
 11 31  1  0  0  0  0
 13 22  1  0  0  0  0
 13 14  2  0  0  0  0
 14 15  1  0  0  0  0
 14 32  1  0  0  0  0
 15 16  2  0  0  0  0
 15 33  1  0  0  0  0
 16 17  1  0  0  0  0
 16 21  1  0  0  0  0
 17 18  1  0  0  0  0
 18 19  1  0  0  0  0
 18 20  1  0  0  0  0
 18 34  1  0  0  0  0
 21 22  2  0  0  0  0
 21 35  1  0  0  0  0
 22 36  1  0  0  0  0
M  CHG  1   6   1
M  END
> <s_m_source_file>
AV-unprocessed.smi

> <i_m_source_file_index>
1873

> <i_lp_mmshare_version>
43012

> <i_f3d_flags>
0

> <s_epik_input>
RltDSF0oRilPYyhbY0hdW2NIXTEpW2NIXVtjSF1jMVtDQEhdKFtPSF0pW0NIMl1uKFtjSF1uMiljKGMyMylbY0hdW2NIXVtjSF1bY0hdMw==

> <s_epik_cmdline>
J2VwaWtfcHl0aG9uJywgJy1waCcsICc3LjAnLCAnLXRuJywgJzgnLCAnLW1hJywgJzIwMCcsICctbWV0YWxfYmluZGluZycsICctaW1hZScsICc8aW5maWxlLm1hZT4nLCAnLW9tYWUnLCAnPG91dGZpbGUubWFlPic=

> <r_lp_tautomer_probability>
1

> <r_epik_Ionization_Penalty>
1.3029

> <r_epik_Ionization_Penalty_Charging>
1.3029

> <r_epik_Ionization_Penalty_Neutral>
2.50501e-07

> <r_epik_State_Penalty>
1.377

> <r_epik_Charging_Adjusted_Penalty>
2.6799

> <i_epik_Tot_Q>
1

> <i_epik_Tot_abs_Q>
1

> <r_epik_Metal_State_Penalty>
5.40879

> <b_epik_Metal_Only>
0

> <s_lp_Force_Field>
OPLS_2005

> <r_lp_Energy>
14.9016

> <b_lp_Chiralities_Consistent>
1

> <s_lp_Variant>
AV-unprocessed.smi:1873-3

> <Gold.Version>
5.8.1

> <Gold.Id.Protein>
6NUR|6NUR_protein|mol2

> <Gold.PLP.Fitness>
52.5834

> <Gold.PLP.PLP>
-44.9837

> <Gold.PLP.part.hbond>
-2.0000

> <Gold.PLP.part.metal>
0.0000

> <Gold.PLP.part.buried>
-6.1595

> <Gold.PLP.part.nonpolar>
-38.0464

> <Gold.PLP.part.repulsive>
0.0791

> <Gold.PLP.ligand.clash>
0.0000

> <Gold.PLP.ligand.torsion>
0.7655

> <Gold.PLP.Chemscore.Hbond>
3.0000

> <Gold.PLP.Chemscore.CHOScore>
0.0000

> <Gold.PLP.Chemscore.Metal>
0.0000

> <Gold.Chemscore.Hbonds>
donor molecule, donor type, donor heavy atom, donor atom, acceptor molecule, acceptor atom, score
      L1  H     6    37       P1  8028  1.57
      P1  H  7997  8010       L1     1  1.00

> <Gold.PLP.Chemscore.Internal.Correction>
0.1306

> <Gold.Rescore>
     Score         DG    S(hbond)    S(metal)    S(lipo)     H(rot)  DE(clash)    DE(int)     intcor
     17.85     -18.90       1.96        0.00     112.58       2.47       0.07       0.98       ----

> <Gold.Chemscore.Fitness>
17.8532

> <Gold.Chemscore.DG>
-18.8986

> <Gold.Chemscore.ZeroCoef>
-5.4800

> <Gold.Chemscore.Hbond>
1.9647

> <Gold.Chemscore.Metal>
0.0000

> <Gold.Chemscore.Lipo>
112.5763

> <Gold.Chemscore.Internal_Hbond>
0.0000

> <Gold.Chemscore.DEClash>
0.0654

> <Gold.Chemscore.DEInternal>
0.9800

> <Gold.Chemscore.Rot>
2.4668

> <Gold.Chemscore.Internal.Correction>
   9.000000E+99

> <Gold.Chemscore.Hbonds>
donor molecule, donor type, donor heavy atom, donor atom, acceptor molecule, acceptor atom, score
      L1  H     6    37       P1  8028  0.78
      P1  H  7997  8010       L1     1  0.82

> <Gold.Chemscore.Hbond.Weighted>
-6.5622

> <Gold.Chemscore.Metal.Weighted>
-0.0000

> <Gold.Chemscore.Lipo.Weighted>
-13.1714

> <Gold.Chemscore.Internal_Hbond.Weighted>
0.0000

> <Gold.Chemscore.DEClash.Weighted>
0.0654

> <Gold.Chemscore.DEInternal.Weighted>
0.9800

> <Gold.Chemscore.Rot.Weighted>
6.3151

> <Gold.Chemscore.Internal.Correction.Weighted>
   9.000000E+99

> <Gold.Protein.RotatedTorsions>
[ 6907 6896 6895 6894 ] final  140.81 input  -60.11 | X-H torsion
[ 7974 7965 7964 7962 ] final   92.21 input  175.53 | X-H torsion
[ 8008 7997 7996 7995 ] final  101.58 input   59.86 | X-H torsion
[ 10167 10162 10161 10158 ] final   10.16 input  -65.29 | X-H torsion
[ 10718 10713 10712 10709 ] final   85.81 input   66.30 | X-H torsion
[ 10763 10752 10751 10750 ] final  -68.82 input  -60.55 | X-H torsion
[ 11005 11000 10999 10996 ] final  146.46 input  -57.11 | X-H torsion

> <Gold.Protein.ActiveResidues>
 VAL166  LYS551  ARG553  GLY616  TRP617  ASP618  TYR619  PRO620  LYS621  CYS622 
 ASP623  PHE694  ASN695  SER759  ASP760  ASP761  ALA762  ILE779  LEU786  VAL792 
 PHE793  MET794  SER795  GLU796  ALA797  LYS798  CYS799  TRP800  GLU811  SER814 

> <Gold.Protein.RotatedAtoms>
  152.2385  133.5116  159.5256 H   0  0  0  0  0  0  0  0  0  0  0  0  # atno 6907 bound_to 6896
  150.7057  134.1120  159.4012 H   0  0  0  0  0  0  0  0  0  0  0  0  # atno 6908 bound_to 6896
  151.9041  135.0366  160.0559 H   0  0  0  0  0  0  0  0  0  0  0  0  # atno 6909 bound_to 6896
  145.4953  139.2276  143.2807 H   0  0  0  0  0  0  0  0  0  0  0  0  # atno 7974 bound_to 7965
  156.1313  140.3195  155.8353 H   0  0  0  0  0  0  0  0  0  0  0  0  # atno 8008 bound_to 7997
  155.4327  140.0520  157.3034 H   0  0  0  0  0  0  0  0  0  0  0  0  # atno 8009 bound_to 7997
  154.4901  140.2089  155.9580 H   0  0  0  0  0  0  0  0  0  0  0  0  # atno 8010 bound_to 7997
  140.6211  143.8202  150.7176 H   0  0  0  0  0  0  0  0  0  0  0  0  # atno 10167 bound_to 10162
  157.6920  131.0190  150.2879 H   0  0  0  0  0  0  0  0  0  0  0  0  # atno 10718 bound_to 10713
  154.3945  135.6045  153.5862 H   0  0  0  0  0  0  0  0  0  0  0  0  # atno 10763 bound_to 10752
  152.9787  135.5892  154.4258 H   0  0  0  0  0  0  0  0  0  0  0  0  # atno 10764 bound_to 10752
  154.4047  135.2843  155.2053 H   0  0  0  0  0  0  0  0  0  0  0  0  # atno 10765 bound_to 10752
  140.0795  134.9105  157.1477 H   0  0  0  0  0  0  0  0  0  0  0  0  # atno 11005 bound_to 11000
  146.2259  140.5750  142.8996 LP  0  0  0  0  0  0  0  0  0  0  0  0  # atno 17320 bound_to 7965
  144.7811  140.5841  143.6605 LP  0  0  0  0  0  0  0  0  0  0  0  0  # atno 17321 bound_to 7965
  140.1792  143.4129  152.1945 LP  0  0  0  0  0  0  0  0  0  0  0  0  # atno 17342 bound_to 10162
  139.5440  144.7282  151.4644 LP  0  0  0  0  0  0  0  0  0  0  0  0  # atno 17343 bound_to 10162
  156.3415  130.3816  149.7405 LP  0  0  0  0  0  0  0  0  0  0  0  0  # atno 17370 bound_to 10713
  156.4913  130.8086  151.3095 LP  0  0  0  0  0  0  0  0  0  0  0  0  # atno 17371 bound_to 10713
  140.3509  134.2600  155.7199 LP  0  0  0  0  0  0  0  0  0  0  0  0  # atno 17394 bound_to 11000
  141.2041  133.7894  157.0302 LP  0  0  0  0  0  0  0  0  0  0  0  0  # atno 17395 bound_to 11000

$$$$
