AV-unprocessed.smi:1282|AV-procd|sdf|5360|dock2
  -GOLD-   22720 4503D 1   1.00000     0.00000
 Structure written by MMmdl.
 36 37  0  0  0  0  0  0  0  0  1 V2000
  145.5484  136.0222  151.1959 C   0  0  0  0  0  0  0  0  0  0  0  0
  145.8436  136.8267  152.3242 O   0  0  0  0  0  0  0  0  0  0  0  0
  146.4404  138.0622  151.9676 C   0  0  0  0  0  0  0  0  0  0  0  0
  146.7408  138.8609  153.2390 C   0  0  0  0  0  0  0  0  0  0  0  0
  148.1135  138.6812  153.5731 O   0  0  0  0  0  0  0  0  0  0  0  0
  148.7521  139.6685  154.2949 C   0  0  0  0  0  0  0  0  0  0  0  0
  150.0173  139.3864  154.8465 C   0  0  0  0  0  0  0  0  0  0  0  0
  150.6764  140.3864  155.5871 C   0  0  0  0  0  0  0  0  0  0  0  0
  150.0415  141.6394  155.7610 C   0  0  0  0  0  0  0  0  0  0  0  0
  150.6076  142.7337  156.4695 N   0  0  0  0  0  0  0  0  0  0  0  0
  151.4815  142.7132  157.4924 C   0  0  0  0  0  0  0  0  0  0  0  0
  151.9228  141.6890  158.0137 O   0  0  0  0  0  0  0  0  0  0  0  0
  151.9011  144.0913  158.0224 C   0  0  0  0  0  0  0  0  0  0  0  0
  152.5756  144.0667  159.4056 C   0  0  0  0  0  0  0  0  0  0  0  0
  151.7270  145.2813  159.7935 C   0  0  0  0  0  0  0  0  0  0  0  0
  150.7648  144.9102  158.6611 C   0  0  0  0  0  0  0  0  0  0  0  0
  148.7812  141.8252  155.1555 C   0  0  0  0  0  0  0  0  0  0  0  0
  148.1443  140.8713  154.4440 N   0  0  0  0  0  0  0  0  0  0  0  0
  145.0863  135.0900  151.5208 H   0  0  0  0  0  0  0  0  0  0  0  0
  146.4544  135.7731  150.6420 H   0  0  0  0  0  0  0  0  0  0  0  0
  144.8536  136.5255  150.5224 H   0  0  0  0  0  0  0  0  0  0  0  0
  147.3635  137.8865  151.4130 H   0  0  0  0  0  0  0  0  0  0  0  0
  145.7685  138.6287  151.3211 H   0  0  0  0  0  0  0  0  0  0  0  0
  146.5281  139.9180  153.0698 H   0  0  0  0  0  0  0  0  0  0  0  0
  146.1005  138.5118  154.0509 H   0  0  0  0  0  0  0  0  0  0  0  0
  150.4773  138.4202  154.7005 H   0  0  0  0  0  0  0  0  0  0  0  0
  151.6542  140.1759  155.9907 H   0  0  0  0  0  0  0  0  0  0  0  0
  150.2658  143.6451  156.2013 H   0  0  0  0  0  0  0  0  0  0  0  0
  152.4718  144.6807  157.3020 H   0  0  0  0  0  0  0  0  0  0  0  0
  152.3441  143.1831  160.0035 H   0  0  0  0  0  0  0  0  0  0  0  0
  153.6478  144.2634  159.3868 H   0  0  0  0  0  0  0  0  0  0  0  0
  151.2943  145.2349  160.7933 H   0  0  0  0  0  0  0  0  0  0  0  0
  152.2408  146.2276  159.6172 H   0  0  0  0  0  0  0  0  0  0  0  0
  150.4335  145.7607  158.0647 H   0  0  0  0  0  0  0  0  0  0  0  0
  149.9181  144.3145  159.0072 H   0  0  0  0  0  0  0  0  0  0  0  0
  148.2629  142.7685  155.2478 H   0  0  0  0  0  0  0  0  0  0  0  0
  1  2  1  0  0  0  0
  1 19  1  0  0  0  0
  1 20  1  0  0  0  0
  1 21  1  0  0  0  0
  2  3  1  0  0  0  0
  3  4  1  0  0  0  0
  3 22  1  0  0  0  0
  3 23  1  0  0  0  0
  4  5  1  0  0  0  0
  4 24  1  0  0  0  0
  4 25  1  0  0  0  0
  5  6  1  0  0  0  0
  6 18  1  0  0  0  0
  6  7  2  0  0  0  0
  7  8  1  0  0  0  0
  7 26  1  0  0  0  0
  8  9  2  0  0  0  0
  8 27  1  0  0  0  0
  9 10  1  0  0  0  0
  9 17  1  0  0  0  0
 10 11  1  0  0  0  0
 10 28  1  0  0  0  0
 11 12  2  0  0  0  0
 11 13  1  0  0  0  0
 13 16  1  0  0  0  0
 13 14  1  0  0  0  0
 13 29  1  0  0  0  0
 14 15  1  0  0  0  0
 14 30  1  0  0  0  0
 14 31  1  0  0  0  0
 15 16  1  0  0  0  0
 15 32  1  0  0  0  0
 15 33  1  0  0  0  0
 16 34  1  0  0  0  0
 16 35  1  0  0  0  0
 17 18  2  0  0  0  0
 17 36  1  0  0  0  0
M  END
> <s_m_source_file>
AV-unprocessed.smi

> <i_m_source_file_index>
1282

> <i_lp_mmshare_version>
43012

> <i_f3d_flags>
0

> <s_epik_input>
W0NIM11PW0NIMl1bQ0gyXU9jMVtjSF1bY0hdYyhbY0hdbjEpW05IXUMoPU8pW0NIXTJbQ0gyXVtDSDJdW0NIMl0y

> <s_epik_cmdline>
J2VwaWtfcHl0aG9uJywgJy1waCcsICc3LjAnLCAnLXRuJywgJzgnLCAnLW1hJywgJzIwMCcsICctbWV0YWxfYmluZGluZycsICctaW1hZScsICc8aW5maWxlLm1hZT4nLCAnLW9tYWUnLCAnPG91dGZpbGUubWFlPic=

> <r_lp_tautomer_probability>
1

> <r_epik_Ionization_Penalty>
2.67646e-05

> <r_epik_Ionization_Penalty_Charging>
0

> <r_epik_Ionization_Penalty_Neutral>
2.67646e-05

> <r_epik_State_Penalty>
-0

> <r_epik_Charging_Adjusted_Penalty>
0

> <i_epik_Tot_Q>
0

> <i_epik_Tot_abs_Q>
0

> <r_epik_Metal_State_Penalty>
-0

> <b_epik_Metal_Only>
0

> <s_lp_Force_Field>
OPLS_2005

> <r_lp_Energy>
17.3297

> <b_lp_Chiralities_Consistent>
1

> <s_lp_Variant>
AV-unprocessed.smi:1282-1

> <Gold.Version>
5.8.1

> <Gold.Id.Protein>
6NUR|6NUR_protein|mol2

> <Gold.PLP.Fitness>
42.9551

> <Gold.PLP.PLP>
-38.4870

> <Gold.PLP.part.hbond>
-1.0000

> <Gold.PLP.part.metal>
0.0000

> <Gold.PLP.part.buried>
-1.8749

> <Gold.PLP.part.nonpolar>
-38.0823

> <Gold.PLP.part.repulsive>
1.5165

> <Gold.PLP.ligand.clash>
0.0000

> <Gold.PLP.ligand.torsion>
0.9395

> <Gold.PLP.Chemscore.Hbond>
0.9760

> <Gold.PLP.Chemscore.CHOScore>
1.0000

> <Gold.PLP.Chemscore.Metal>
0.0000

> <Gold.Chemscore.Hbonds>
donor molecule, donor type, donor heavy atom, donor atom, acceptor molecule, acceptor atom, score
      L1  H    10    28       P1  8028  1.00
      L1  C    17    36       P1  8028  1.00

> <Gold.PLP.Chemscore.Internal.Correction>
0.4191

> <Gold.Rescore>
     Score         DG    S(hbond)    S(metal)    S(lipo)     H(rot)  DE(clash)    DE(int)     intcor
     13.02     -15.04       0.98        0.00      92.44       1.76       0.09       1.94       ----

> <Gold.Chemscore.Fitness>
13.0168

> <Gold.Chemscore.DG>
-15.0417

> <Gold.Chemscore.ZeroCoef>
-5.4800

> <Gold.Chemscore.Hbond>
0.9761

> <Gold.Chemscore.Metal>
0.0000

> <Gold.Chemscore.Lipo>
92.4420

> <Gold.Chemscore.Internal_Hbond>
0.0000

> <Gold.Chemscore.DEClash>
0.0869

> <Gold.Chemscore.DEInternal>
1.9380

> <Gold.Chemscore.Rot>
1.7634

> <Gold.Chemscore.Internal.Correction>
   9.000000E+99

> <Gold.Chemscore.Hbonds>
donor molecule, donor type, donor heavy atom, donor atom, acceptor molecule, acceptor atom, score
      L1  H    10    28       P1  8028  0.95

> <Gold.Chemscore.Hbond.Weighted>
-3.2602

> <Gold.Chemscore.Metal.Weighted>
-0.0000

> <Gold.Chemscore.Lipo.Weighted>
-10.8157

> <Gold.Chemscore.Internal_Hbond.Weighted>
0.0000

> <Gold.Chemscore.DEClash.Weighted>
0.0869

> <Gold.Chemscore.DEInternal.Weighted>
1.9380

> <Gold.Chemscore.Rot.Weighted>
4.5142

> <Gold.Chemscore.Internal.Correction.Weighted>
   9.000000E+99

> <Gold.Protein.RotatedTorsions>
[ 6907 6896 6895 6894 ] final  -82.53 input  -60.11 | X-H torsion
[ 7974 7965 7964 7962 ] final   47.14 input  175.53 | X-H torsion
[ 8008 7997 7996 7995 ] final  100.61 input   59.86 | X-H torsion
[ 10167 10162 10161 10158 ] final   82.51 input  -65.29 | X-H torsion
[ 10718 10713 10712 10709 ] final  128.30 input   66.30 | X-H torsion
[ 10763 10752 10751 10750 ] final  -93.09 input  -60.55 | X-H torsion
[ 11005 11000 10999 10996 ] final   -3.95 input  -57.11 | X-H torsion

> <Gold.Protein.ActiveResidues>
 VAL166  LYS551  ARG553  GLY616  TRP617  ASP618  TYR619  PRO620  LYS621  CYS622 
 ASP623  PHE694  ASN695  SER759  ASP760  ASP761  ALA762  ILE779  LEU786  VAL792 
 PHE793  MET794  SER795  GLU796  ALA797  LYS798  CYS799  TRP800  GLU811  SER814 

> <Gold.Protein.RotatedAtoms>
  150.6896  134.3650  159.4966 H   0  0  0  0  0  0  0  0  0  0  0  0  # atno 6907 bound_to 6896
  152.1474  134.9012  160.0559 H   0  0  0  0  0  0  0  0  0  0  0  0  # atno 6908 bound_to 6896
  152.0123  133.3831  159.4261 H   0  0  0  0  0  0  0  0  0  0  0  0  # atno 6909 bound_to 6896
  146.0325  139.4781  142.9829 H   0  0  0  0  0  0  0  0  0  0  0  0  # atno 7974 bound_to 7965
  156.1220  140.3210  155.8222 H   0  0  0  0  0  0  0  0  0  0  0  0  # atno 8008 bound_to 7997
  155.4488  140.0531  157.3020 H   0  0  0  0  0  0  0  0  0  0  0  0  # atno 8009 bound_to 7997
  154.4834  140.2062  155.9724 H   0  0  0  0  0  0  0  0  0  0  0  0  # atno 8010 bound_to 7997
  139.9280  144.6170  150.8373 H   0  0  0  0  0  0  0  0  0  0  0  0  # atno 10167 bound_to 10162
  157.5257  131.1098  150.9086 H   0  0  0  0  0  0  0  0  0  0  0  0  # atno 10718 bound_to 10713
  154.6925  135.5207  153.8413 H   0  0  0  0  0  0  0  0  0  0  0  0  # atno 10763 bound_to 10752
  153.0643  135.6579  154.0400 H   0  0  0  0  0  0  0  0  0  0  0  0  # atno 10764 bound_to 10752
  154.0272  135.2988  155.3353 H   0  0  0  0  0  0  0  0  0  0  0  0  # atno 10765 bound_to 10752
  140.6750  133.9204  155.8518 H   0  0  0  0  0  0  0  0  0  0  0  0  # atno 11005 bound_to 11000
  145.7017  141.0134  143.1500 LP  0  0  0  0  0  0  0  0  0  0  0  0  # atno 17320 bound_to 7965
  144.7037  139.8653  143.7436 LP  0  0  0  0  0  0  0  0  0  0  0  0  # atno 17321 bound_to 7965
  140.7645  143.3250  151.2536 LP  0  0  0  0  0  0  0  0  0  0  0  0  # atno 17342 bound_to 10162
  139.6806  143.9861  152.2806 LP  0  0  0  0  0  0  0  0  0  0  0  0  # atno 17343 bound_to 10162
  156.9683  130.5481  149.5289 LP  0  0  0  0  0  0  0  0  0  0  0  0  # atno 17370 bound_to 10713
  156.0385  130.5470  150.8713 LP  0  0  0  0  0  0  0  0  0  0  0  0  # atno 17371 bound_to 10713
  141.0363  134.0685  157.3956 LP  0  0  0  0  0  0  0  0  0  0  0  0  # atno 17394 bound_to 11000
  139.8969  135.0148  156.7077 LP  0  0  0  0  0  0  0  0  0  0  0  0  # atno 17395 bound_to 11000

$$$$
