AV-unprocessed.smi:1807|AV-procd|sdf|7301|dock2
  -GOLD-   22720 8553D 1   1.00000     0.00000
 Structure written by MMmdl.
 44 45  0  0  0  0  0  0  0  0  1 V2000
  149.5931  136.4142  155.2222 C   0  0  0  0  0  0  0  0  0  0  0  0
  150.0772  137.8296  154.8605 C   0  0  2  0  0  0  0  0  0  0  0  0
  150.9914  138.3905  155.9687 C   0  0  0  0  0  0  0  0  0  0  0  0
  151.5059  139.7975  155.6288 C   0  0  0  0  0  0  0  0  0  0  0  0
  150.3417  140.7607  155.3605 C   0  0  0  0  0  0  0  0  0  0  0  0
  149.4282  140.2203  154.2520 C   0  0  0  0  0  0  0  0  0  0  0  0
  148.9071  138.8041  154.5769 C   0  0  1  0  0  0  0  0  0  0  0  0
  148.0992  138.3219  153.4599 N   0  0  0  0  0  0  0  0  0  0  0  0
  146.7619  138.3873  153.3821 C   0  0  0  0  0  0  0  0  0  0  0  0
  146.0469  138.8012  154.2957 O   0  0  0  0  0  0  0  0  0  0  0  0
  146.1420  137.9155  152.0616 C   0  0  0  0  0  0  0  0  0  0  0  0
  146.4951  136.5349  151.7469 N   0  0  0  0  0  0  0  0  0  0  0  0
  145.4809  135.5930  151.5252 C   0  0  0  0  0  0  0  0  0  0  0  0
  144.1030  135.9374  151.5780 C   0  0  0  0  0  0  0  0  0  0  0  0
  143.4756  134.7631  151.2708 C   0  0  0  0  0  0  0  0  0  0  0  0
  144.4539  133.8113  151.0584 N   0  0  0  0  0  0  0  0  0  0  0  0
  144.2935  132.4168  150.6851 C   0  0  0  0  0  0  0  0  0  0  0  0
  145.5803  131.6183  150.9138 C   0  0  0  0  0  0  0  0  0  0  0  0
  146.6641  131.9894  150.2262 N   0  0  0  0  0  0  0  0  0  0  0  0
  145.5933  130.6693  151.6945 O   0  0  0  0  0  0  0  0  0  0  0  0
  145.6934  134.3182  151.2339 N   0  0  0  0  0  0  0  0  0  0  0  0
  148.9573  136.4285  156.1077 H   0  0  0  0  0  0  0  0  0  0  0  0
  150.4354  135.7535  155.4291 H   0  0  0  0  0  0  0  0  0  0  0  0
  149.0223  135.9632  154.4102 H   0  0  0  0  0  0  0  0  0  0  0  0
  150.6758  137.7474  153.9518 H   0  0  0  0  0  0  0  0  0  0  0  0
  150.4469  138.4228  156.9135 H   0  0  0  0  0  0  0  0  0  0  0  0
  151.8397  137.7233  156.1262 H   0  0  0  0  0  0  0  0  0  0  0  0
  152.1210  140.1765  156.4453 H   0  0  0  0  0  0  0  0  0  0  0  0
  152.1511  139.7495  154.7507 H   0  0  0  0  0  0  0  0  0  0  0  0
  149.7640  140.9039  156.2747 H   0  0  0  0  0  0  0  0  0  0  0  0
  150.7266  141.7413  155.0790 H   0  0  0  0  0  0  0  0  0  0  0  0
  148.5940  140.9064  154.1008 H   0  0  0  0  0  0  0  0  0  0  0  0
  149.9809  140.1988  153.3120 H   0  0  0  0  0  0  0  0  0  0  0  0
  148.2857  138.8573  155.4733 H   0  0  0  0  0  0  0  0  0  0  0  0
  148.5998  137.9591  152.6616 H   0  0  0  0  0  0  0  0  0  0  0  0
  145.0564  138.0268  152.0795 H   0  0  0  0  0  0  0  0  0  0  0  0
  146.5078  138.5565  151.2595 H   0  0  0  0  0  0  0  0  0  0  0  0
  147.4251  136.2130  151.9722 H   0  0  0  0  0  0  0  0  0  0  0  0
  143.6472  136.8927  151.7930 H   0  0  0  0  0  0  0  0  0  0  0  0
  142.4254  134.5293  151.1784 H   0  0  0  0  0  0  0  0  0  0  0  0
  143.4761  131.9859  151.2654 H   0  0  0  0  0  0  0  0  0  0  0  0
  144.0063  132.3599  149.6345 H   0  0  0  0  0  0  0  0  0  0  0  0
  147.5324  131.4877  150.3412 H   0  0  0  0  0  0  0  0  0  0  0  0
  146.6080  132.7696  149.5876 H   0  0  0  0  0  0  0  0  0  0  0  0
  1  2  1  0  0  0  0
  1 22  1  0  0  0  0
  1 23  1  0  0  0  0
  1 24  1  0  0  0  0
  2  7  1  0  0  0  0
  2  3  1  0  0  0  0
  2 25  1  0  0  0  0
  3  4  1  0  0  0  0
  3 26  1  0  0  0  0
  3 27  1  0  0  0  0
  4  5  1  0  0  0  0
  4 28  1  0  0  0  0
  4 29  1  0  0  0  0
  5  6  1  0  0  0  0
  5 30  1  0  0  0  0
  5 31  1  0  0  0  0
  6  7  1  0  0  0  0
  6 32  1  0  0  0  0
  6 33  1  0  0  0  0
  7  8  1  0  0  0  0
  7 34  1  0  0  0  0
  8  9  1  0  0  0  0
  8 35  1  0  0  0  0
  9 10  2  0  0  0  0
  9 11  1  0  0  0  0
 11 12  1  0  0  0  0
 11 36  1  0  0  0  0
 11 37  1  0  0  0  0
 12 13  1  0  0  0  0
 12 38  1  0  0  0  0
 13 21  2  0  0  0  0
 13 14  1  0  0  0  0
 14 15  2  0  0  0  0
 14 39  1  0  0  0  0
 15 16  1  0  0  0  0
 15 40  1  0  0  0  0
 16 17  1  0  0  0  0
 16 21  1  0  0  0  0
 17 18  1  0  0  0  0
 17 41  1  0  0  0  0
 17 42  1  0  0  0  0
 18 19  1  0  0  0  0
 18 20  2  0  0  0  0
 19 43  1  0  0  0  0
 19 44  1  0  0  0  0
M  END
> <s_m_source_file>
AV-unprocessed.smi

> <i_m_source_file_index>
1807

> <i_lp_mmshare_version>
43012

> <i_f3d_flags>
0

> <s_epik_input>
W0NIM11bQ0BASF0xW0NIMl1bQ0gyXVtDSDJdW0NIMl1bQ0BIXTFbTkhdQyg9TylbQ0gyXVtOSF1jMltjSF1bY0hdbihuMilbQ0gyXUMoPU8pW05IMl0=

> <s_epik_cmdline>
J2VwaWtfcHl0aG9uJywgJy1waCcsICc3LjAnLCAnLXRuJywgJzgnLCAnLW1hJywgJzIwMCcsICctbWV0YWxfYmluZGluZycsICctaW1hZScsICc8aW5maWxlLm1hZT4nLCAnLW9tYWUnLCAnPG91dGZpbGUubWFlPic=

> <r_lp_tautomer_probability>
1

> <r_epik_Ionization_Penalty>
0.000167642

> <r_epik_Ionization_Penalty_Charging>
0

> <r_epik_Ionization_Penalty_Neutral>
0.000167642

> <r_epik_State_Penalty>
-0

> <r_epik_Charging_Adjusted_Penalty>
0

> <i_epik_Tot_Q>
0

> <i_epik_Tot_abs_Q>
0

> <r_epik_Metal_State_Penalty>
-0

> <b_epik_Metal_Only>
0

> <s_lp_Force_Field>
OPLS_2005

> <r_lp_Energy>
5.76299

> <b_lp_Chiralities_Consistent>
1

> <s_lp_Variant>
AV-unprocessed.smi:1807-1

> <Gold.Version>
5.8.1

> <Gold.Id.Protein>
6NUR|6NUR_protein|mol2

> <Gold.PLP.Fitness>
43.6377

> <Gold.PLP.PLP>
-35.1692

> <Gold.PLP.part.hbond>
-2.7693

> <Gold.PLP.part.metal>
0.0000

> <Gold.PLP.part.buried>
-5.3847

> <Gold.PLP.part.nonpolar>
-28.7208

> <Gold.PLP.part.repulsive>
0.6271

> <Gold.PLP.ligand.clash>
0.0000

> <Gold.PLP.ligand.torsion>
0.5216

> <Gold.PLP.Chemscore.Hbond>
2.5658

> <Gold.PLP.Chemscore.CHOScore>
0.5899

> <Gold.PLP.Chemscore.Metal>
0.0000

> <Gold.Chemscore.Hbonds>
donor molecule, donor type, donor heavy atom, donor atom, acceptor molecule, acceptor atom, score
      L1  H     8    35       P1  7948  0.78
      L1  H    12    38       P1  7948  0.94
      L1  H    19    43       P1 10747  1.00
      L1  C    15    40       P1 10186  0.52

> <Gold.PLP.Chemscore.Internal.Correction>
0.0448

> <Gold.Rescore>
     Score         DG    S(hbond)    S(metal)    S(lipo)     H(rot)  DE(clash)    DE(int)     intcor
     13.56     -15.69       2.72        0.00      67.34       2.64       0.03       2.10       ----

> <Gold.Chemscore.Fitness>
13.5592

> <Gold.Chemscore.DG>
-15.6908

> <Gold.Chemscore.ZeroCoef>
-5.4800

> <Gold.Chemscore.Hbond>
2.7194

> <Gold.Chemscore.Metal>
0.0000

> <Gold.Chemscore.Lipo>
67.3374

> <Gold.Chemscore.Internal_Hbond>
0.0000

> <Gold.Chemscore.DEClash>
0.0294

> <Gold.Chemscore.DEInternal>
2.1022

> <Gold.Chemscore.Rot>
2.6369

> <Gold.Chemscore.Internal.Correction>
   9.000000E+99

> <Gold.Chemscore.Hbonds>
donor molecule, donor type, donor heavy atom, donor atom, acceptor molecule, acceptor atom, score
      L1  H     8    35       P1  7948  0.77
      L1  H    12    38       P1  7948  0.87
      L1  H    19    43       P1 10747  0.97

> <Gold.Chemscore.Hbond.Weighted>
-9.0827

> <Gold.Chemscore.Metal.Weighted>
-0.0000

> <Gold.Chemscore.Lipo.Weighted>
-7.8785

> <Gold.Chemscore.Internal_Hbond.Weighted>
0.0000

> <Gold.Chemscore.DEClash.Weighted>
0.0294

> <Gold.Chemscore.DEInternal.Weighted>
2.1022

> <Gold.Chemscore.Rot.Weighted>
6.7504

> <Gold.Chemscore.Internal.Correction.Weighted>
   9.000000E+99

> <Gold.Protein.RotatedTorsions>
[ 6907 6896 6895 6894 ] final   34.87 input  -60.11 | X-H torsion
[ 7974 7965 7964 7962 ] final  -77.08 input  175.53 | X-H torsion
[ 8008 7997 7996 7995 ] final  -77.62 input   59.86 | X-H torsion
[ 10167 10162 10161 10158 ] final   64.59 input  -65.29 | X-H torsion
[ 10718 10713 10712 10709 ] final   66.12 input   66.30 | X-H torsion
[ 10763 10752 10751 10750 ] final -174.72 input  -60.55 | X-H torsion
[ 11005 11000 10999 10996 ] final  117.24 input  -57.11 | X-H torsion

> <Gold.Protein.ActiveResidues>
 VAL166  LYS551  ARG553  GLY616  TRP617  ASP618  TYR619  PRO620  LYS621  CYS622 
 ASP623  PHE694  ASN695  SER759  ASP760  ASP761  ALA762  ILE779  LEU786  VAL792 
 PHE793  MET794  SER795  GLU796  ALA797  LYS798  CYS799  TRP800  GLU811  SER814 

> <Gold.Protein.RotatedAtoms>
  152.1084  134.9292  160.0567 H   0  0  0  0  0  0  0  0  0  0  0  0  # atno 6907 bound_to 6896
  152.0479  133.4001  159.4373 H   0  0  0  0  0  0  0  0  0  0  0  0  # atno 6908 bound_to 6896
  150.6842  134.3262  159.4851 H   0  0  0  0  0  0  0  0  0  0  0  0  # atno 6909 bound_to 6896
  145.6044  140.9401  143.1223 H   0  0  0  0  0  0  0  0  0  0  0  0  # atno 7974 bound_to 7965
  154.5613  140.0707  156.8824 H   0  0  0  0  0  0  0  0  0  0  0  0  # atno 8008 bound_to 7997
  155.2805  140.3371  155.4240 H   0  0  0  0  0  0  0  0  0  0  0  0  # atno 8009 bound_to 7997
  156.2045  140.1734  156.7815 H   0  0  0  0  0  0  0  0  0  0  0  0  # atno 8010 bound_to 7997
  140.1206  144.4735  150.6923 H   0  0  0  0  0  0  0  0  0  0  0  0  # atno 10167 bound_to 10162
  157.6149  130.9251  150.0067 H   0  0  0  0  0  0  0  0  0  0  0  0  # atno 10718 bound_to 10713
  154.5929  135.2847  155.0616 H   0  0  0  0  0  0  0  0  0  0  0  0  # atno 10763 bound_to 10752
  154.1910  135.6440  153.5064 H   0  0  0  0  0  0  0  0  0  0  0  0  # atno 10764 bound_to 10752
  153.0128  135.5446  154.6621 H   0  0  0  0  0  0  0  0  0  0  0  0  # atno 10765 bound_to 10752
  139.9068  134.9608  156.7321 H   0  0  0  0  0  0  0  0  0  0  0  0  # atno 11005 bound_to 11000
  144.7296  139.7767  143.7352 LP  0  0  0  0  0  0  0  0  0  0  0  0  # atno 17320 bound_to 7965
  146.1552  139.4647  143.0023 LP  0  0  0  0  0  0  0  0  0  0  0  0  # atno 17321 bound_to 7965
  140.6874  143.2357  151.5223 LP  0  0  0  0  0  0  0  0  0  0  0  0  # atno 17342 bound_to 10162
  139.5571  144.2249  152.1630 LP  0  0  0  0  0  0  0  0  0  0  0  0  # atno 17343 bound_to 10162
  156.1267  130.3644  149.9798 LP  0  0  0  0  0  0  0  0  0  0  0  0  # atno 17370 bound_to 10713
  156.7867  130.9241  151.3646 LP  0  0  0  0  0  0  0  0  0  0  0  0  # atno 17371 bound_to 10713
  140.6917  133.9384  155.7970 LP  0  0  0  0  0  0  0  0  0  0  0  0  # atno 17394 bound_to 11000
  141.0437  134.0585  157.3871 LP  0  0  0  0  0  0  0  0  0  0  0  0  # atno 17395 bound_to 11000

$$$$
