AV-unprocessed.smi:2124|AV-procd|sdf|8664|dock9
  -GOLD-   2272011413D 1   1.00000     0.00000
 Structure written by MMmdl.
 47 49  0  0  0  0  0  0  0  0  1 V2000
  148.8067  134.4653  154.5365 C   0  0  0  0  0  0  0  0  0  0  0  0
  149.4092  135.8491  154.6442 C   0  0  0  0  0  0  0  0  0  0  0  0
  148.4996  136.8260  155.0132 N   0  0  0  0  0  0  0  0  0  0  0  0
  148.9631  138.1215  155.1566 C   0  0  0  0  0  0  0  0  0  0  0  0
  147.9086  139.1212  155.5980 C   0  0  0  0  0  0  0  0  0  0  0  0
  150.2644  138.4320  154.9265 C   0  0  0  0  0  0  0  0  0  0  0  0
  150.8234  139.8431  155.1143 C   0  0  0  0  0  0  0  0  0  0  0  0
  151.7715  139.9947  156.3043 C   0  0  0  0  0  0  0  0  0  0  0  0
  152.8205  139.3531  156.3484 O   0  0  0  0  0  0  0  0  0  0  0  0
  151.4033  140.8865  157.2358 N   0  0  0  0  0  0  0  0  0  0  0  0
  152.2523  141.4091  158.3001 C   0  0  2  0  0  0  0  0  0  0  0  0
  152.8084  140.2480  159.1391 C   0  0  0  0  0  0  0  0  0  0  0  0
  151.4373  142.4132  159.1495 C   0  0  1  0  0  0  0  0  0  0  0  0
  152.2431  143.1284  160.2568 C   0  0  0  0  0  0  0  0  0  0  0  0
  151.9008  144.6134  160.0290 C   0  0  1  0  0  0  0  0  0  0  0  0
  152.6316  145.1134  158.7688 C   0  0  0  0  0  0  0  0  0  0  0  0
  151.8484  144.4335  157.6312 C   0  0  0  0  0  0  0  0  0  0  0  0
  150.7938  143.6047  158.3925 C   0  0  2  0  0  0  0  0  0  0  0  0
  150.4566  144.5420  159.5467 C   0  0  0  0  0  0  0  0  0  0  0  0
  151.1869  137.3458  154.5177 C   0  0  0  0  0  0  0  0  0  0  0  0
  152.3778  137.5612  154.2974 O   0  0  0  0  0  0  0  0  0  0  0  0
  150.6691  136.0460  154.4008 N   0  0  0  0  0  0  0  0  0  0  0  0
  147.5245  136.6384  155.1978 H   0  0  0  0  0  0  0  0  0  0  0  0
  149.5864  133.7031  154.5093 H   0  0  0  0  0  0  0  0  0  0  0  0
  148.2136  134.3818  153.6256 H   0  0  0  0  0  0  0  0  0  0  0  0
  148.1614  134.2589  155.3913 H   0  0  0  0  0  0  0  0  0  0  0  0
  148.1811  139.5666  156.5547 H   0  0  0  0  0  0  0  0  0  0  0  0
  146.9323  138.6498  155.7161 H   0  0  0  0  0  0  0  0  0  0  0  0
  147.8069  139.9187  154.8618 H   0  0  0  0  0  0  0  0  0  0  0  0
  149.9892  140.5329  155.2454 H   0  0  0  0  0  0  0  0  0  0  0  0
  151.3338  140.1890  154.2149 H   0  0  0  0  0  0  0  0  0  0  0  0
  150.5079  141.3381  157.1171 H   0  0  0  0  0  0  0  0  0  0  0  0
  153.0991  141.9374  157.8586 H   0  0  0  0  0  0  0  0  0  0  0  0
  153.4631  140.6114  159.9313 H   0  0  0  0  0  0  0  0  0  0  0  0
  153.3910  139.5625  158.5224 H   0  0  0  0  0  0  0  0  0  0  0  0
  152.0070  139.6752  159.6069 H   0  0  0  0  0  0  0  0  0  0  0  0
  150.6237  141.8614  159.6245 H   0  0  0  0  0  0  0  0  0  0  0  0
  151.9135  142.7969  161.2423 H   0  0  0  0  0  0  0  0  0  0  0  0
  153.3167  142.9474  160.1901 H   0  0  0  0  0  0  0  0  0  0  0  0
  152.0653  145.2394  160.9063 H   0  0  0  0  0  0  0  0  0  0  0  0
  152.5657  146.1987  158.6835 H   0  0  0  0  0  0  0  0  0  0  0  0
  153.6877  144.8414  158.7668 H   0  0  0  0  0  0  0  0  0  0  0  0
  151.3616  145.1822  157.0048 H   0  0  0  0  0  0  0  0  0  0  0  0
  152.4843  143.8339  156.9809 H   0  0  0  0  0  0  0  0  0  0  0  0
  149.9372  143.3239  157.7789 H   0  0  0  0  0  0  0  0  0  0  0  0
  149.7762  144.1037  160.2791 H   0  0  0  0  0  0  0  0  0  0  0  0
  150.0594  145.5053  159.2216 H   0  0  0  0  0  0  0  0  0  0  0  0
  1 24  1  0  0  0  0
  1 25  1  0  0  0  0
  1 26  1  0  0  0  0
  1  2  1  0  0  0  0
  2  3  1  0  0  0  0
  2 22  2  0  0  0  0
  3  4  1  0  0  0  0
  3 23  1  0  0  0  0
  4  6  2  0  0  0  0
  4  5  1  0  0  0  0
  5 27  1  0  0  0  0
  5 28  1  0  0  0  0
  5 29  1  0  0  0  0
  6 20  1  0  0  0  0
  6  7  1  0  0  0  0
  7  8  1  0  0  0  0
  7 30  1  0  0  0  0
  7 31  1  0  0  0  0
  8  9  2  0  0  0  0
  8 10  1  0  0  0  0
 10 11  1  0  0  0  0
 10 32  1  0  0  0  0
 11 12  1  0  0  0  0
 11 13  1  0  0  0  0
 11 33  1  0  0  0  0
 12 34  1  0  0  0  0
 12 35  1  0  0  0  0
 12 36  1  0  0  0  0
 13 18  1  0  0  0  0
 13 14  1  0  0  0  0
 13 37  1  0  0  0  0
 14 15  1  0  0  0  0
 14 38  1  0  0  0  0
 14 39  1  0  0  0  0
 15 19  1  0  0  0  0
 15 16  1  0  0  0  0
 15 40  1  0  0  0  0
 16 17  1  0  0  0  0
 16 41  1  0  0  0  0
 16 42  1  0  0  0  0
 17 18  1  0  0  0  0
 17 43  1  0  0  0  0
 17 44  1  0  0  0  0
 18 19  1  0  0  0  0
 18 45  1  0  0  0  0
 19 46  1  0  0  0  0
 19 47  1  0  0  0  0
 20 21  2  0  0  0  0
 20 22  1  0  0  0  0
M  END
> <s_m_source_file>
AV-unprocessed.smi

> <i_m_source_file_index>
2124

> <i_lp_mmshare_version>
43012

> <i_f3d_flags>
0

> <s_epik_input>
W0NIM11jMW5jKFtDSDNdKWMoYyg9TylbbkhdMSlbQ0gyXUMoPU8pW05IXVtDQEhdKFtDSDNdKVtDQEhdKFtDSDJdW0NASF0yMylbQ0BIXShbQ0gyXTMpW0NIMl1bQ0gyXTI=

> <s_epik_cmdline>
J2VwaWtfcHl0aG9uJywgJy1waCcsICc3LjAnLCAnLXRuJywgJzgnLCAnLW1hJywgJzIwMCcsICctbWV0YWxfYmluZGluZycsICctaW1hZScsICc8aW5maWxlLm1hZT4nLCAnLW9tYWUnLCAnPG91dGZpbGUubWFlPic=

> <r_lp_tautomer_probability>
0.156392

> <r_epik_Ionization_Penalty>
0.0139374

> <r_epik_Ionization_Penalty_Charging>
0.0138122

> <r_epik_Ionization_Penalty_Neutral>
0.000125146

> <r_epik_State_Penalty>
1.15342

> <r_epik_Charging_Adjusted_Penalty>
1.16723

> <i_epik_Tot_Q>
0

> <i_epik_Tot_abs_Q>
0

> <r_epik_Metal_State_Penalty>
1.3173

> <b_epik_Metal_Only>
0

> <s_lp_Force_Field>
OPLS_2005

> <r_lp_Energy>
54.2082

> <b_lp_Chiralities_Consistent>
1

> <s_lp_Variant>
AV-unprocessed.smi:2124-15

> <Gold.Version>
5.8.1

> <Gold.Id.Protein>
6NUR|6NUR_protein|mol2

> <Gold.PLP.Fitness>
46.3145

> <Gold.PLP.PLP>
-41.2685

> <Gold.PLP.part.hbond>
-2.3681

> <Gold.PLP.part.metal>
0.0000

> <Gold.PLP.part.buried>
-6.9286

> <Gold.PLP.part.nonpolar>
-33.1489

> <Gold.PLP.part.repulsive>
0.3714

> <Gold.PLP.ligand.clash>
0.0000

> <Gold.PLP.ligand.torsion>
0.0950

> <Gold.PLP.Chemscore.Hbond>
1.7360

> <Gold.PLP.Chemscore.CHOScore>
0.0000

> <Gold.PLP.Chemscore.Metal>
0.0000

> <Gold.Chemscore.Hbonds>
donor molecule, donor type, donor heavy atom, donor atom, acceptor molecule, acceptor atom, score
      P1  H  7997  8008       L1     9  1.00
      P1  H 10752 10765       L1    21  0.63

> <Gold.PLP.Chemscore.Internal.Correction>
0.0279

> <Gold.Rescore>
     Score         DG    S(hbond)    S(metal)    S(lipo)     H(rot)  DE(clash)    DE(int)     intcor
     19.03     -20.87       1.98        0.00     111.30       1.65       0.25       1.60       ----

> <Gold.Chemscore.Fitness>
19.0280

> <Gold.Chemscore.DG>
-20.8745

> <Gold.Chemscore.ZeroCoef>
-5.4800

> <Gold.Chemscore.Hbond>
1.9775

> <Gold.Chemscore.Metal>
0.0000

> <Gold.Chemscore.Lipo>
111.3011

> <Gold.Chemscore.Internal_Hbond>
0.0000

> <Gold.Chemscore.DEClash>
0.2463

> <Gold.Chemscore.DEInternal>
1.6001

> <Gold.Chemscore.Rot>
1.6534

> <Gold.Chemscore.Internal.Correction>
   9.000000E+99

> <Gold.Chemscore.Hbonds>
donor molecule, donor type, donor heavy atom, donor atom, acceptor molecule, acceptor atom, score
      P1  H  7997  8008       L1     9  0.99
      P1  H 10752 10765       L1    21  0.12

> <Gold.Chemscore.Hbond.Weighted>
-6.6049

> <Gold.Chemscore.Metal.Weighted>
-0.0000

> <Gold.Chemscore.Lipo.Weighted>
-13.0222

> <Gold.Chemscore.Internal_Hbond.Weighted>
0.0000

> <Gold.Chemscore.DEClash.Weighted>
0.2463

> <Gold.Chemscore.DEInternal.Weighted>
1.6001

> <Gold.Chemscore.Rot.Weighted>
4.2326

> <Gold.Chemscore.Internal.Correction.Weighted>
   9.000000E+99

> <Gold.Protein.RotatedTorsions>
[ 6907 6896 6895 6894 ] final   59.33 input  -60.11 | X-H torsion
[ 7974 7965 7964 7962 ] final  131.47 input  175.53 | X-H torsion
[ 8008 7997 7996 7995 ] final  -48.20 input   59.86 | X-H torsion
[ 10167 10162 10161 10158 ] final -155.56 input  -65.29 | X-H torsion
[ 10718 10713 10712 10709 ] final  -49.68 input   66.30 | X-H torsion
[ 10763 10752 10751 10750 ] final  160.20 input  -60.55 | X-H torsion
[ 11005 11000 10999 10996 ] final  -30.82 input  -57.11 | X-H torsion

> <Gold.Protein.ActiveResidues>
 VAL166  LYS551  ARG553  GLY616  TRP617  ASP618  TYR619  PRO620  LYS621  CYS622 
 ASP623  PHE694  ASN695  SER759  ASP760  ASP761  ALA762  ILE779  LEU786  VAL792 
 PHE793  MET794  SER795  GLU796  ALA797  LYS798  CYS799  TRP800  GLU811  SER814 

> <Gold.Protein.RotatedAtoms>
  152.3905  134.6448  160.0108 H   0  0  0  0  0  0  0  0  0  0  0  0  # atno 6907 bound_to 6896
  151.6684  133.3309  159.3198 H   0  0  0  0  0  0  0  0  0  0  0  0  # atno 6908 bound_to 6896
  150.7822  134.6820  159.6494 H   0  0  0  0  0  0  0  0  0  0  0  0  # atno 6909 bound_to 6896
  145.0070  139.4257  143.5264 H   0  0  0  0  0  0  0  0  0  0  0  0  # atno 7974 bound_to 7965
  154.4026  140.1327  156.4300 H   0  0  0  0  0  0  0  0  0  0  0  0  # atno 8008 bound_to 7997
  155.7560  140.3487  155.5154 H   0  0  0  0  0  0  0  0  0  0  0  0  # atno 8009 bound_to 7997
  155.8904  140.1002  157.1413 H   0  0  0  0  0  0  0  0  0  0  0  0  # atno 8010 bound_to 7997
  139.6921  143.9403  152.2390 H   0  0  0  0  0  0  0  0  0  0  0  0  # atno 10167 bound_to 10162
  156.1871  130.4152  149.9424 H   0  0  0  0  0  0  0  0  0  0  0  0  # atno 10718 bound_to 10713
  154.2437  135.2774  155.2844 H   0  0  0  0  0  0  0  0  0  0  0  0  # atno 10763 bound_to 10752
  154.5523  135.5671  153.6936 H   0  0  0  0  0  0  0  0  0  0  0  0  # atno 10764 bound_to 10752
  152.9994  135.6277  154.2582 H   0  0  0  0  0  0  0  0  0  0  0  0  # atno 10765 bound_to 10752
  140.9416  133.7275  156.1084 H   0  0  0  0  0  0  0  0  0  0  0  0  # atno 11005 bound_to 11000
  146.3463  139.9492  142.8731 LP  0  0  0  0  0  0  0  0  0  0  0  0  # atno 17320 bound_to 7965
  145.2075  140.9881  143.4120 LP  0  0  0  0  0  0  0  0  0  0  0  0  # atno 17321 bound_to 7965
  139.9222  144.6792  150.8449 LP  0  0  0  0  0  0  0  0  0  0  0  0  # atno 17342 bound_to 10162
  140.7685  143.3367  151.2294 LP  0  0  0  0  0  0  0  0  0  0  0  0  # atno 17343 bound_to 10162
  156.7176  130.8994  151.3615 LP  0  0  0  0  0  0  0  0  0  0  0  0  # atno 17370 bound_to 10713
  157.6906  130.9229  150.0503 LP  0  0  0  0  0  0  0  0  0  0  0  0  # atno 17371 bound_to 10713
  140.7726  134.3815  157.5504 LP  0  0  0  0  0  0  0  0  0  0  0  0  # atno 17394 bound_to 11000
  139.8822  134.9032  156.2849 LP  0  0  0  0  0  0  0  0  0  0  0  0  # atno 17395 bound_to 11000

$$$$
