AV-unprocessed.smi:1718|AV-procd|sdf|6928|dock8
  -GOLD-   22720 8133D 1   1.00000     0.00000
 Structure written by MMmdl.
 39 40  0  0  0  0  0  0  0  0  2 V2000
  146.6570  142.4177  154.2593 C   0  0  0  0  0  0  0  0  0  0  0  0
  147.4701  141.1452  153.9789 C   0  0  2  0  0  0  0  0  0  0  0  0
  146.7269  140.0418  154.4885 O   0  0  0  0  0  0  0  0  0  0  0  0
  147.1515  138.7596  154.0378 C   0  0  0  0  0  0  0  0  0  0  0  0
  146.1819  138.2427  152.9663 C   0  0  1  0  0  0  0  0  0  0  0  0
  146.5062  138.6656  151.5277 C   0  0  0  0  0  0  0  0  0  0  0  0
  146.1745  137.4333  150.6960 C   0  0  0  0  0  0  0  0  0  0  0  0
  145.5715  136.4527  151.7003 C   0  0  0  0  0  0  0  0  0  0  0  0
  146.1649  136.8236  152.9335 O   0  0  0  0  0  0  0  0  0  0  0  0
  148.8534  141.2066  154.6467 C   0  0  0  0  0  0  0  0  0  0  0  0
  149.8635  141.1787  153.9439 O   0  0  0  0  0  0  0  0  0  0  0  0
  148.8389  141.3217  155.9894 N   0  0  0  0  0  0  0  0  0  0  0  0
  149.9080  141.4018  156.8983 C   0  0  0  0  0  0  0  0  0  0  0  0
  150.4483  142.5598  157.3700 C   0  0  0  0  0  0  0  0  0  0  0  0
  151.5673  142.5759  158.3037 C   0  0  0  0  0  0  0  0  0  0  0  0
  152.1237  143.8430  158.9285 C   0  0  0  0  0  0  0  0  0  0  0  0
  152.6124  144.6628  157.9975 F   0  0  0  0  0  0  0  0  0  0  0  0
  151.1591  144.4867  159.5842 F   0  0  0  0  0  0  0  0  0  0  0  0
  153.0978  143.5608  159.7937 F   0  0  0  0  0  0  0  0  0  0  0  0
  151.9887  141.3038  158.6391 C   0  0  0  0  0  0  0  0  0  0  0  0
  151.5302  140.1121  158.1979 N   0  5  0  0  0  0  0  0  0  0  0  0
  150.4807  140.1090  157.3283 C   0  0  0  0  0  0  0  0  0  0  0  0
  150.0056  139.0579  156.8965 O   0  0  0  0  0  0  0  0  0  0  0  0
  147.1788  143.3073  153.9047 H   0  0  0  0  0  0  0  0  0  0  0  0
  146.4625  142.5443  155.3253 H   0  0  0  0  0  0  0  0  0  0  0  0
  145.6926  142.3780  153.7526 H   0  0  0  0  0  0  0  0  0  0  0  0
  147.5803  141.0414  152.8976 H   0  0  0  0  0  0  0  0  0  0  0  0
  148.1591  138.8245  153.6251 H   0  0  0  0  0  0  0  0  0  0  0  0
  147.1835  138.0472  154.8626 H   0  0  0  0  0  0  0  0  0  0  0  0
  145.1715  138.5746  153.2118 H   0  0  0  0  0  0  0  0  0  0  0  0
  145.9166  139.5336  151.2307 H   0  0  0  0  0  0  0  0  0  0  0  0
  147.5584  138.9248  151.4039 H   0  0  0  0  0  0  0  0  0  0  0  0
  145.4923  137.6496  149.8736 H   0  0  0  0  0  0  0  0  0  0  0  0
  147.0896  137.0182  150.2722 H   0  0  0  0  0  0  0  0  0  0  0  0
  144.4897  136.5804  151.7658 H   0  0  0  0  0  0  0  0  0  0  0  0
  145.7797  135.4121  151.4498 H   0  0  0  0  0  0  0  0  0  0  0  0
  147.9276  141.3934  156.4183 H   0  0  0  0  0  0  0  0  0  0  0  0
  150.0752  143.5185  157.0509 H   0  0  0  0  0  0  0  0  0  0  0  0
  152.8151  141.2329  159.3782 H   0  0  0  0  0  0  0  0  0  0  0  0
  1  2  1  0  0  0  0
  1 24  1  0  0  0  0
  1 25  1  0  0  0  0
  1 26  1  0  0  0  0
  2  3  1  0  0  0  0
  2 10  1  0  0  0  0
  2 27  1  0  0  0  0
  3  4  1  0  0  0  0
  4  5  1  0  0  0  0
  4 28  1  0  0  0  0
  4 29  1  0  0  0  0
  5  9  1  0  0  0  0
  5  6  1  0  0  0  0
  5 30  1  0  0  0  0
  6  7  1  0  0  0  0
  6 31  1  0  0  0  0
  6 32  1  0  0  0  0
  7  8  1  0  0  0  0
  7 33  1  0  0  0  0
  7 34  1  0  0  0  0
  8  9  1  0  0  0  0
  8 35  1  0  0  0  0
  8 36  1  0  0  0  0
 10 11  2  0  0  0  0
 10 12  1  0  0  0  0
 12 13  1  0  0  0  0
 12 37  1  0  0  0  0
 13 22  1  0  0  0  0
 13 14  2  0  0  0  0
 14 15  1  0  0  0  0
 14 38  1  0  0  0  0
 15 16  1  0  0  0  0
 15 20  2  0  0  0  0
 16 17  1  0  0  0  0
 16 18  1  0  0  0  0
 16 19  1  0  0  0  0
 20 21  1  0  0  0  0
 20 39  1  0  0  0  0
 21 22  1  0  0  0  0
 22 23  2  0  0  0  0
M  CHG  1  21  -1
M  END
> <s_m_source_file>
AV-unprocessed.smi

> <i_m_source_file_index>
1718

> <i_lp_mmshare_version>
43012

> <i_f3d_flags>
0

> <s_epik_input>
TzFbQ0gyXVtDSDJdW0NIMl1bQ0BIXTFbQ0gyXU9bQ0BASF0oW0NIM10pQyg9TylbTkhdYzJbY0hdYyhDKEYpKEYpRilbY0hdW25IXWMyPU8=

> <s_epik_cmdline>
J2VwaWtfcHl0aG9uJywgJy1waCcsICc3LjAnLCAnLXRuJywgJzgnLCAnLW1hJywgJzIwMCcsICctbWV0YWxfYmluZGluZycsICctaW1hZScsICc8aW5maWxlLm1hZT4nLCAnLW9tYWUnLCAnPG91dGZpbGUubWFlPic=

> <r_epik_Ionization_Penalty>
2.5466

> <r_epik_Ionization_Penalty_Charging>
0.0575837

> <r_epik_Ionization_Penalty_Neutral>
2.48901

> <r_epik_State_Penalty>
2.6532

> <r_epik_Charging_Adjusted_Penalty>
2.71078

> <i_epik_Tot_Q>
-1

> <i_epik_Tot_abs_Q>
1

> <r_epik_Metal_State_Penalty>
0.516196

> <b_epik_Metal_Only>
0

> <s_lp_Force_Field>
OPLS_2005

> <r_lp_Energy>
37.3461

> <b_lp_Chiralities_Consistent>
1

> <s_lp_Variant>
AV-unprocessed.smi:1718-7

> <Gold.Version>
5.8.1

> <Gold.Id.Protein>
6NUR|6NUR_protein|mol2

> <Gold.PLP.Fitness>
43.2590

> <Gold.PLP.PLP>
-42.7615

> <Gold.PLP.part.hbond>
-1.7256

> <Gold.PLP.part.metal>
0.0000

> <Gold.PLP.part.buried>
2.1047

> <Gold.PLP.part.nonpolar>
-45.0381

> <Gold.PLP.part.repulsive>
1.8718

> <Gold.PLP.ligand.clash>
0.0000

> <Gold.PLP.ligand.torsion>
1.5065

> <Gold.PLP.Chemscore.Hbond>
1.1360

> <Gold.PLP.Chemscore.CHOScore>
0.0000

> <Gold.PLP.Chemscore.Metal>
0.0000

> <Gold.Chemscore.Hbonds>
donor molecule, donor type, donor heavy atom, donor atom, acceptor molecule, acceptor atom, score
      P1  H  7989  7998       L1    11  0.35
      P1  H  8011  8017       L1    11  0.78

> <Gold.PLP.Chemscore.Internal.Correction>
0.1023

> <Gold.Rescore>
     Score         DG    S(hbond)    S(metal)    S(lipo)     H(rot)  DE(clash)    DE(int)     intcor
     10.69     -15.07       1.04        0.00      92.76       1.85       2.82       1.56       ----

> <Gold.Chemscore.Fitness>
10.6903

> <Gold.Chemscore.DG>
-15.0712

> <Gold.Chemscore.ZeroCoef>
-5.4800

> <Gold.Chemscore.Hbond>
1.0367

> <Gold.Chemscore.Metal>
0.0000

> <Gold.Chemscore.Lipo>
92.7616

> <Gold.Chemscore.Internal_Hbond>
0.0000

> <Gold.Chemscore.DEClash>
2.8240

> <Gold.Chemscore.DEInternal>
1.5569

> <Gold.Chemscore.Rot>
1.8455

> <Gold.Chemscore.Internal.Correction>
   9.000000E+99

> <Gold.Chemscore.Hbonds>
donor molecule, donor type, donor heavy atom, donor atom, acceptor molecule, acceptor atom, score
      P1  H  7989  7998       L1    11  0.34
      P1  H  8011  8017       L1    11  0.66

> <Gold.Chemscore.Hbond.Weighted>
-3.4626

> <Gold.Chemscore.Metal.Weighted>
-0.0000

> <Gold.Chemscore.Lipo.Weighted>
-10.8531

> <Gold.Chemscore.Internal_Hbond.Weighted>
0.0000

> <Gold.Chemscore.DEClash.Weighted>
2.8240

> <Gold.Chemscore.DEInternal.Weighted>
1.5569

> <Gold.Chemscore.Rot.Weighted>
4.7245

> <Gold.Chemscore.Internal.Correction.Weighted>
   9.000000E+99

> <Gold.Protein.RotatedTorsions>
[ 6907 6896 6895 6894 ] final   -6.47 input  -60.11 | X-H torsion
[ 7974 7965 7964 7962 ] final -173.93 input  175.53 | X-H torsion
[ 8008 7997 7996 7995 ] final   23.40 input   59.86 | X-H torsion
[ 10167 10162 10161 10158 ] final -155.01 input  -65.29 | X-H torsion
[ 10718 10713 10712 10709 ] final  135.49 input   66.30 | X-H torsion
[ 10763 10752 10751 10750 ] final   10.94 input  -60.55 | X-H torsion
[ 11005 11000 10999 10996 ] final  -28.62 input  -57.11 | X-H torsion

> <Gold.Protein.ActiveResidues>
 VAL166  LYS551  ARG553  GLY616  TRP617  ASP618  TYR619  PRO620  LYS621  CYS622 
 ASP623  PHE694  ASN695  SER759  ASP760  ASP761  ALA762  ILE779  LEU786  VAL792 
 PHE793  MET794  SER795  GLU796  ALA797  LYS798  CYS799  TRP800  GLU811  SER814 

> <Gold.Protein.RotatedAtoms>
  151.4651  135.1041  159.9735 H   0  0  0  0  0  0  0  0  0  0  0  0  # atno 6907 bound_to 6896
  152.4838  133.8317  159.7117 H   0  0  0  0  0  0  0  0  0  0  0  0  # atno 6908 bound_to 6896
  150.8930  133.7157  159.2926 H   0  0  0  0  0  0  0  0  0  0  0  0  # atno 6909 bound_to 6896
  144.7135  140.1548  143.6381 H   0  0  0  0  0  0  0  0  0  0  0  0  # atno 7974 bound_to 7965
  154.9804  140.3101  155.4949 H   0  0  0  0  0  0  0  0  0  0  0  0  # atno 8008 bound_to 7997
  156.2954  140.2267  156.4843 H   0  0  0  0  0  0  0  0  0  0  0  0  # atno 8009 bound_to 7997
  154.7794  140.0447  157.1103 H   0  0  0  0  0  0  0  0  0  0  0  0  # atno 8010 bound_to 7997
  139.6966  143.9332  152.2410 H   0  0  0  0  0  0  0  0  0  0  0  0  # atno 10167 bound_to 10162
  157.4565  131.1070  150.9971 H   0  0  0  0  0  0  0  0  0  0  0  0  # atno 10718 bound_to 10713
  153.1978  135.6851  153.8270 H   0  0  0  0  0  0  0  0  0  0  0  0  # atno 10763 bound_to 10752
  153.7546  135.3219  155.3328 H   0  0  0  0  0  0  0  0  0  0  0  0  # atno 10764 bound_to 10752
  154.8154  135.4689  154.0730 H   0  0  0  0  0  0  0  0  0  0  0  0  # atno 10765 bound_to 10752
  140.9224  133.7390  156.0820 H   0  0  0  0  0  0  0  0  0  0  0  0  # atno 11005 bound_to 11000
  145.9084  139.2472  143.1452 LP  0  0  0  0  0  0  0  0  0  0  0  0  # atno 17320 bound_to 7965
  145.9741  140.8736  143.0148 LP  0  0  0  0  0  0  0  0  0  0  0  0  # atno 17321 bound_to 7965
  139.9162  144.6827  150.8509 LP  0  0  0  0  0  0  0  0  0  0  0  0  # atno 17342 bound_to 10162
  140.7698  143.3407  151.2214 LP  0  0  0  0  0  0  0  0  0  0  0  0  # atno 17343 bound_to 10162
  157.0783  130.5892  149.5415 LP  0  0  0  0  0  0  0  0  0  0  0  0  # atno 17370 bound_to 10713
  156.0009  130.5088  150.7661 LP  0  0  0  0  0  0  0  0  0  0  0  0  # atno 17371 bound_to 10713
  140.7970  134.3552  157.5450 LP  0  0  0  0  0  0  0  0  0  0  0  0  # atno 17394 bound_to 11000
  139.8778  134.9175  156.3179 LP  0  0  0  0  0  0  0  0  0  0  0  0  # atno 17395 bound_to 11000

$$$$
