AV-unprocessed.smi:233|AV-procd|sdf|1784|dock10
  -GOLD-   2262020333D 1   1.00000     0.00000
 Structure written by MMmdl.
 59 62  0  0  0  0  0  0  0  0  1 V2000
  151.4438  141.4252  158.9192 C   0  0  0  0  0  0  0  0  0  0  0  0
  151.0735  141.8125  157.4917 C   0  0  0  0  0  0  0  0  0  0  0  0
  151.0600  142.9968  157.1574 O   0  0  0  0  0  0  0  0  0  0  0  0
  150.7758  140.8015  156.6615 N   0  0  0  0  0  0  0  0  0  0  0  0
  150.3934  140.9390  155.2568 C   0  0  2  0  0  0  0  0  0  0  0  0
  149.0784  141.7266  155.1008 C   0  0  0  0  0  0  0  0  0  0  0  0
  147.8626  140.9412  155.6216 C   0  0  0  0  0  0  0  0  0  0  0  0
  147.7233  139.5595  154.9394 C   0  0  2  0  0  0  0  0  0  0  0  0
  146.5558  138.8251  155.4524 N   0  0  0  0  0  0  0  0  0  0  0  0
  145.2400  139.4227  155.2460 C   0  0  0  0  0  0  0  0  0  0  0  0
  146.5189  137.5060  155.1580 C   0  0  0  0  0  0  0  0  0  0  0  0
  146.9186  136.6413  156.1226 N   0  0  0  0  0  0  0  0  0  0  0  0
  146.9017  135.3258  155.8868 C   0  0  0  0  0  0  0  0  0  0  0  0
  146.5304  134.6801  154.7787 N   0  0  0  0  0  0  0  0  0  0  0  0
  146.1239  135.5498  153.8094 C   0  0  0  0  0  0  0  0  0  0  0  0
  146.0786  136.9677  153.9162 C   0  0  0  0  0  0  0  0  0  0  0  0
  145.5893  137.5178  152.7380 N   0  0  0  0  0  0  0  0  0  0  0  0
  145.3578  136.4827  151.9775 C   0  0  0  0  0  0  0  0  0  0  0  0
  145.6779  135.2633  152.5316 N   0  0  0  0  0  0  0  0  0  0  0  0
  145.5002  133.9708  151.9385 C   0  0  0  0  0  0  0  0  0  0  0  0
  145.9640  133.6962  150.5066 C   0  0  0  0  0  0  0  0  0  0  0  0
  144.7972  132.6986  150.3274 C   0  0  0  0  0  0  0  0  0  0  0  0
  144.0690  132.7651  148.9748 C   0  0  0  0  0  0  0  0  0  0  0  0
  142.8246  132.0980  149.0314 O   0  0  0  0  0  0  0  0  0  0  0  0
  145.1340  131.2289  150.6505 C   0  0  0  0  0  0  0  0  0  0  0  0
  146.3096  131.1271  151.4283 O   0  0  0  0  0  0  0  0  0  0  0  0
  144.1246  133.4862  151.4736 C   0  0  0  0  0  0  0  0  0  0  0  0
  149.0472  138.7693  155.1148 C   0  0  0  0  0  0  0  0  0  0  0  0
  150.2668  139.5536  154.5998 C   0  0  0  0  0  0  0  0  0  0  0  0
  150.7573  140.6707  159.3054 H   0  0  0  0  0  0  0  0  0  0  0  0
  151.4011  142.2928  159.5784 H   0  0  0  0  0  0  0  0  0  0  0  0
  152.4557  141.0202  158.9502 H   0  0  0  0  0  0  0  0  0  0  0  0
  150.8146  139.8621  157.0296 H   0  0  0  0  0  0  0  0  0  0  0  0
  151.1887  141.4817  154.7427 H   0  0  0  0  0  0  0  0  0  0  0  0
  149.1454  142.6886  155.6099 H   0  0  0  0  0  0  0  0  0  0  0  0
  148.9247  141.9567  154.0459 H   0  0  0  0  0  0  0  0  0  0  0  0
  147.9425  140.8140  156.7021 H   0  0  0  0  0  0  0  0  0  0  0  0
  146.9723  141.5458  155.4495 H   0  0  0  0  0  0  0  0  0  0  0  0
  147.5674  139.7321  153.8740 H   0  0  0  0  0  0  0  0  0  0  0  0
  144.4335  138.7023  155.3947 H   0  0  0  0  0  0  0  0  0  0  0  0
  145.1524  139.8257  154.2363 H   0  0  0  0  0  0  0  0  0  0  0  0
  145.0809  140.2353  155.9548 H   0  0  0  0  0  0  0  0  0  0  0  0
  147.2346  134.7008  156.7024 H   0  0  0  0  0  0  0  0  0  0  0  0
  144.9503  136.5848  150.9822 H   0  0  0  0  0  0  0  0  0  0  0  0
  145.9469  133.2568  152.6325 H   0  0  0  0  0  0  0  0  0  0  0  0
  145.8770  134.5765  149.8668 H   0  0  0  0  0  0  0  0  0  0  0  0
  146.9616  133.2619  150.4339 H   0  0  0  0  0  0  0  0  0  0  0  0
  143.8778  133.7998  148.6889 H   0  0  0  0  0  0  0  0  0  0  0  0
  144.6678  132.3335  148.1727 H   0  0  0  0  0  0  0  0  0  0  0  0
  142.1528  132.7329  149.2281 H   0  0  0  0  0  0  0  0  0  0  0  0
  144.3266  130.7531  151.2073 H   0  0  0  0  0  0  0  0  0  0  0  0
  145.2615  130.6397  149.7422 H   0  0  0  0  0  0  0  0  0  0  0  0
  147.0488  131.0472  150.8452 H   0  0  0  0  0  0  0  0  0  0  0  0
  143.5921  132.8722  152.2004 H   0  0  0  0  0  0  0  0  0  0  0  0
  143.4928  134.2999  151.1121 H   0  0  0  0  0  0  0  0  0  0  0  0
  149.1886  138.5185  156.1670 H   0  0  0  0  0  0  0  0  0  0  0  0
  149.0087  137.8209  154.5787 H   0  0  0  0  0  0  0  0  0  0  0  0
  150.1760  139.6775  153.5199 H   0  0  0  0  0  0  0  0  0  0  0  0
  151.1775  138.9754  154.7616 H   0  0  0  0  0  0  0  0  0  0  0  0
  1  2  1  0  0  0  0
  1 30  1  0  0  0  0
  1 31  1  0  0  0  0
  1 32  1  0  0  0  0
  2  3  2  0  0  0  0
  2  4  1  0  0  0  0
  4  5  1  0  0  0  0
  4 33  1  0  0  0  0
  5 29  1  0  0  0  0
  5  6  1  0  0  0  0
  5 34  1  0  0  0  0
  6  7  1  0  0  0  0
  6 35  1  0  0  0  0
  6 36  1  0  0  0  0
  7  8  1  0  0  0  0
  7 37  1  0  0  0  0
  7 38  1  0  0  0  0
  8  9  1  0  0  0  0
  8 28  1  0  0  0  0
  8 39  1  0  0  0  0
  9 10  1  0  0  0  0
  9 11  1  0  0  0  0
 10 40  1  0  0  0  0
 10 41  1  0  0  0  0
 10 42  1  0  0  0  0
 11 16  1  0  0  0  0
 11 12  2  0  0  0  0
 12 13  1  0  0  0  0
 13 14  2  0  0  0  0
 13 43  1  0  0  0  0
 14 15  1  0  0  0  0
 15 19  1  0  0  0  0
 15 16  2  0  0  0  0
 16 17  1  0  0  0  0
 17 18  2  0  0  0  0
 18 19  1  0  0  0  0
 18 44  1  0  0  0  0
 19 20  1  0  0  0  0
 20 27  1  0  0  0  0
 20 21  1  0  0  0  0
 20 45  1  0  0  0  0
 21 22  1  0  0  0  0
 21 46  1  0  0  0  0
 21 47  1  0  0  0  0
 22 23  1  0  0  0  0
 22 25  1  0  0  0  0
 22 27  1  0  0  0  0
 23 24  1  0  0  0  0
 23 48  1  0  0  0  0
 23 49  1  0  0  0  0
 24 50  1  0  0  0  0
 25 26  1  0  0  0  0
 25 51  1  0  0  0  0
 25 52  1  0  0  0  0
 26 53  1  0  0  0  0
 27 54  1  0  0  0  0
 27 55  1  0  0  0  0
 28 29  1  0  0  0  0
 28 56  1  0  0  0  0
 28 57  1  0  0  0  0
 29 58  1  0  0  0  0
 29 59  1  0  0  0  0
M  END
> <s_m_source_file>
AV-unprocessed.smi

> <i_m_source_file_index>
233

> <i_lp_mmshare_version>
43012

> <i_f3d_flags>
0

> <s_epik_input>
W0NIM11DKD1PKVtOSF1bQ0BASF0xW0NIMl1bQ0gyXVtDQEhdKFtDSDJdW0NIMl0xKU4oW0NIM10pYyhuW2NIXW4yKWMoYzIzKW5bY0hdbjNbQ0hdKFtDSDJdNClbQ0gyXUM0KFtDSDJdW09IXSlbQ0gyXVtPSF0=

> <s_epik_cmdline>
J2VwaWtfcHl0aG9uJywgJy1waCcsICc3LjAnLCAnLXRuJywgJzgnLCAnLW1hJywgJzIwMCcsICctbWV0YWxfYmluZGluZycsICctaW1hZScsICc8aW5maWxlLm1hZT4nLCAnLW9tYWUnLCAnPG91dGZpbGUubWFlPic=

> <r_lp_tautomer_probability>
1

> <r_epik_Ionization_Penalty>
0.0029036

> <r_epik_Ionization_Penalty_Charging>
0

> <r_epik_Ionization_Penalty_Neutral>
0.0029036

> <r_epik_State_Penalty>
0.00183591

> <r_epik_Charging_Adjusted_Penalty>
0.00183591

> <i_epik_Tot_Q>
0

> <i_epik_Tot_abs_Q>
0

> <r_epik_Metal_State_Penalty>
-0

> <b_epik_Metal_Only>
0

> <s_lp_Force_Field>
OPLS_2005

> <r_lp_Energy>
38.4195

> <b_lp_Chiralities_Consistent>
1

> <s_lp_Variant>
AV-unprocessed.smi:233-2

> <Gold.Version>
5.8.1

> <Gold.Id.Protein>
6NUR|6NUR_protein|mol2

> <Gold.PLP.Fitness>
46.9658

> <Gold.PLP.PLP>
-36.8821

> <Gold.PLP.part.hbond>
-4.0000

> <Gold.PLP.part.metal>
0.0000

> <Gold.PLP.part.buried>
-3.7709

> <Gold.PLP.part.nonpolar>
-29.0431

> <Gold.PLP.part.repulsive>
0.5092

> <Gold.PLP.ligand.clash>
0.0000

> <Gold.PLP.ligand.torsion>
1.2890

> <Gold.PLP.Chemscore.Hbond>
3.0000

> <Gold.PLP.Chemscore.CHOScore>
0.9192

> <Gold.PLP.Chemscore.Metal>
0.0000

> <Gold.Chemscore.Hbonds>
donor molecule, donor type, donor heavy atom, donor atom, acceptor molecule, acceptor atom, score
      L1  H    24    50       P1 10186  0.94
      L1  H    26    53       P1 10747  1.00
      P1  H 10785 10796       L1    24  1.00
      L1  C    18    44       P1 10171  0.94

> <Gold.PLP.Chemscore.Internal.Correction>
0.9041

> <Gold.Rescore>
     Score         DG    S(hbond)    S(metal)    S(lipo)     H(rot)  DE(clash)    DE(int)     intcor
     11.54     -14.24       2.51        0.00      88.52       3.91       0.23       2.46       ----

> <Gold.Chemscore.Fitness>
11.5435

> <Gold.Chemscore.DG>
-14.2369

> <Gold.Chemscore.ZeroCoef>
-5.4800

> <Gold.Chemscore.Hbond>
2.5141

> <Gold.Chemscore.Metal>
0.0000

> <Gold.Chemscore.Lipo>
88.5192

> <Gold.Chemscore.Internal_Hbond>
0.0000

> <Gold.Chemscore.DEClash>
0.2294

> <Gold.Chemscore.DEInternal>
2.4639

> <Gold.Chemscore.Rot>
3.9050

> <Gold.Chemscore.Internal.Correction>
   9.000000E+99

> <Gold.Chemscore.Hbonds>
donor molecule, donor type, donor heavy atom, donor atom, acceptor molecule, acceptor atom, score
      L1  H    24    50       P1 10186  0.90
      L1  H    26    53       P1 10747  0.94
      P1  H 10785 10796       L1    24  0.57

> <Gold.Chemscore.Hbond.Weighted>
-8.3971

> <Gold.Chemscore.Metal.Weighted>
-0.0000

> <Gold.Chemscore.Lipo.Weighted>
-10.3567

> <Gold.Chemscore.Internal_Hbond.Weighted>
0.0000

> <Gold.Chemscore.DEClash.Weighted>
0.2294

> <Gold.Chemscore.DEInternal.Weighted>
2.4639

> <Gold.Chemscore.Rot.Weighted>
9.9969

> <Gold.Chemscore.Internal.Correction.Weighted>
   9.000000E+99

> <Gold.Protein.RotatedTorsions>
[ 6907 6896 6895 6894 ] final -132.99 input  -60.11 | X-H torsion
[ 7974 7965 7964 7962 ] final  109.90 input  175.53 | X-H torsion
[ 8008 7997 7996 7995 ] final -117.51 input   59.86 | X-H torsion
[ 10167 10162 10161 10158 ] final   -7.29 input  -65.29 | X-H torsion
[ 10718 10713 10712 10709 ] final   48.57 input   66.30 | X-H torsion
[ 10763 10752 10751 10750 ] final -142.91 input  -60.55 | X-H torsion
[ 11005 11000 10999 10996 ] final -102.23 input  -57.11 | X-H torsion

> <Gold.Protein.ActiveResidues>
 VAL166  LYS551  ARG553  GLY616  TRP617  ASP618  TYR619  PRO620  LYS621  CYS622 
 ASP623  PHE694  ASN695  SER759  ASP760  ASP761  ALA762  ILE779  LEU786  VAL792 
 PHE793  MET794  SER795  GLU796  ALA797  LYS798  CYS799  TRP800  GLU811  SER814 

> <Gold.Protein.RotatedAtoms>
  150.9688  133.6366  159.2741 H   0  0  0  0  0  0  0  0  0  0  0  0  # atno 6907 bound_to 6896
  151.3662  135.0912  159.9460 H   0  0  0  0  0  0  0  0  0  0  0  0  # atno 6908 bound_to 6896
  152.5175  133.9252  159.7608 H   0  0  0  0  0  0  0  0  0  0  0  0  # atno 6909 bound_to 6896
  145.2618  139.2699  143.4013 H   0  0  0  0  0  0  0  0  0  0  0  0  # atno 7974 bound_to 7965
  155.0848  140.0394  157.2650 H   0  0  0  0  0  0  0  0  0  0  0  0  # atno 8008 bound_to 7997
  154.6878  140.2647  155.6818 H   0  0  0  0  0  0  0  0  0  0  0  0  # atno 8009 bound_to 7997
  156.2718  140.2765  156.1445 H   0  0  0  0  0  0  0  0  0  0  0  0  # atno 8010 bound_to 7997
  140.7024  143.6098  150.8716 H   0  0  0  0  0  0  0  0  0  0  0  0  # atno 10167 bound_to 10162
  157.4700  130.8249  149.7978 H   0  0  0  0  0  0  0  0  0  0  0  0  # atno 10718 bound_to 10713
  154.8490  135.3482  154.6104 H   0  0  0  0  0  0  0  0  0  0  0  0  # atno 10763 bound_to 10752
  153.6712  135.6985  153.5151 H   0  0  0  0  0  0  0  0  0  0  0  0  # atno 10764 bound_to 10752
  153.2741  135.4284  155.0972 H   0  0  0  0  0  0  0  0  0  0  0  0  # atno 10765 bound_to 10752
  141.1198  133.8542  157.1333 H   0  0  0  0  0  0  0  0  0  0  0  0  # atno 11005 bound_to 11000
  146.3273  140.3037  142.8622 LP  0  0  0  0  0  0  0  0  0  0  0  0  # atno 17320 bound_to 7965
  144.9411  140.8080  143.5629 LP  0  0  0  0  0  0  0  0  0  0  0  0  # atno 17321 bound_to 7965
  139.9821  143.5940  152.2939 LP  0  0  0  0  0  0  0  0  0  0  0  0  # atno 17342 bound_to 10162
  139.6565  144.7662  151.2046 LP  0  0  0  0  0  0  0  0  0  0  0  0  # atno 17343 bound_to 10162
  156.0069  130.3851  150.2400 LP  0  0  0  0  0  0  0  0  0  0  0  0  # atno 17370 bound_to 10713
  157.0582  131.0082  151.3231 LP  0  0  0  0  0  0  0  0  0  0  0  0  # atno 17371 bound_to 10713
  140.0146  134.9973  157.0467 LP  0  0  0  0  0  0  0  0  0  0  0  0  # atno 17394 bound_to 11000
  140.4541  134.1552  155.7184 LP  0  0  0  0  0  0  0  0  0  0  0  0  # atno 17395 bound_to 11000

$$$$
