AV-unprocessed.smi:3251|AV-procd|sdf|12438|dock4
  -GOLD-   2272018333D 1   1.00000     0.00000
 Structure written by MMmdl.
 40 41  0  0  0  0  0  0  0  0  1 V2000
  151.6881  145.6666  159.7245 C   0  0  0  0  0  0  0  0  0  0  0  0
  151.7596  144.2141  159.3505 C   0  0  0  0  0  0  0  0  0  0  0  0
  152.5202  143.1851  159.9759 C   0  0  0  0  0  0  0  0  0  0  0  0
  152.3625  142.0055  159.3984 N   0  0  0  0  0  0  0  0  0  0  0  0
  151.4981  142.2377  158.3880 N   0  0  0  0  0  0  0  0  0  0  0  0
  151.0889  141.1473  157.5242 C   0  0  0  0  0  0  0  0  0  0  0  0
  151.8614  139.8570  157.8350 C   0  0  0  0  0  0  0  0  0  0  0  0
  151.5039  138.8347  156.8576 N   0  0  0  0  0  0  0  0  0  0  0  0
  151.4510  139.3373  155.4719 C   0  0  1  0  0  0  0  0  0  0  0  0
  152.7908  139.0568  154.7739 C   0  0  0  0  0  0  0  0  0  0  0  0
  150.2930  138.7385  154.6406 C   0  0  0  0  0  0  0  0  0  0  0  0
  150.3372  137.5459  154.3332 O   0  0  0  0  0  0  0  0  0  0  0  0
  149.2639  139.5298  154.2664 N   0  0  0  0  0  0  0  0  0  0  0  0
  149.1928  140.9536  154.5918 C   0  0  0  0  0  0  0  0  0  0  0  0
  148.0095  141.5054  153.7970 C   0  0  0  0  0  0  0  0  0  0  0  0
  147.1076  140.2976  153.5908 C   0  0  0  0  0  0  0  0  0  0  0  0
  148.0761  139.1169  153.5189 C   0  0  0  0  0  0  0  0  0  0  0  0
  151.1181  143.5619  158.3357 C   0  0  0  0  0  0  0  0  0  0  0  0
  152.1913  145.8672  160.6707 H   0  0  0  0  0  0  0  0  0  0  0  0
  150.6573  146.0049  159.8315 H   0  0  0  0  0  0  0  0  0  0  0  0
  152.1580  146.2984  158.9708 H   0  0  0  0  0  0  0  0  0  0  0  0
  153.1795  143.2607  160.8281 H   0  0  0  0  0  0  0  0  0  0  0  0
  150.0166  140.9909  157.6513 H   0  0  0  0  0  0  0  0  0  0  0  0
  151.2451  141.4482  156.4869 H   0  0  0  0  0  0  0  0  0  0  0  0
  152.9331  140.0579  157.8166 H   0  0  0  0  0  0  0  0  0  0  0  0
  151.6112  139.5078  158.8379 H   0  0  0  0  0  0  0  0  0  0  0  0
  152.1432  138.0576  156.9410 H   0  0  0  0  0  0  0  0  0  0  0  0
  151.3396  140.4191  155.5379 H   0  0  0  0  0  0  0  0  0  0  0  0
  152.8010  139.4522  153.7574 H   0  0  0  0  0  0  0  0  0  0  0  0
  152.9954  137.9867  154.7157 H   0  0  0  0  0  0  0  0  0  0  0  0
  153.6172  139.5229  155.3112 H   0  0  0  0  0  0  0  0  0  0  0  0
  149.0192  141.0640  155.6633 H   0  0  0  0  0  0  0  0  0  0  0  0
  150.1163  141.4784  154.3417 H   0  0  0  0  0  0  0  0  0  0  0  0
  147.5061  142.3290  154.3042 H   0  0  0  0  0  0  0  0  0  0  0  0
  148.3569  141.8705  152.8296 H   0  0  0  0  0  0  0  0  0  0  0  0
  146.4523  140.1807  154.4550 H   0  0  0  0  0  0  0  0  0  0  0  0
  146.4792  140.3843  152.7040 H   0  0  0  0  0  0  0  0  0  0  0  0
  148.3580  138.9202  152.4834 H   0  0  0  0  0  0  0  0  0  0  0  0
  147.6209  138.2146  153.9291 H   0  0  0  0  0  0  0  0  0  0  0  0
  150.4292  143.9272  157.5881 H   0  0  0  0  0  0  0  0  0  0  0  0
  1  2  1  0  0  0  0
  1 19  1  0  0  0  0
  1 20  1  0  0  0  0
  1 21  1  0  0  0  0
  2 18  2  0  0  0  0
  2  3  1  0  0  0  0
  3  4  2  0  0  0  0
  3 22  1  0  0  0  0
  4  5  1  0  0  0  0
  5  6  1  0  0  0  0
  5 18  1  0  0  0  0
  6  7  1  0  0  0  0
  6 23  1  0  0  0  0
  6 24  1  0  0  0  0
  7  8  1  0  0  0  0
  7 25  1  0  0  0  0
  7 26  1  0  0  0  0
  8  9  1  0  0  0  0
  8 27  1  0  0  0  0
  9 10  1  0  0  0  0
  9 11  1  0  0  0  0
  9 28  1  0  0  0  0
 10 29  1  0  0  0  0
 10 30  1  0  0  0  0
 10 31  1  0  0  0  0
 11 12  2  0  0  0  0
 11 13  1  0  0  0  0
 13 17  1  0  0  0  0
 13 14  1  0  0  0  0
 14 15  1  0  0  0  0
 14 32  1  0  0  0  0
 14 33  1  0  0  0  0
 15 16  1  0  0  0  0
 15 34  1  0  0  0  0
 15 35  1  0  0  0  0
 16 17  1  0  0  0  0
 16 36  1  0  0  0  0
 16 37  1  0  0  0  0
 17 38  1  0  0  0  0
 17 39  1  0  0  0  0
 18 40  1  0  0  0  0
M  END
> <s_m_source_file>
AV-unprocessed.smi

> <i_m_source_file_index>
3251

> <i_lp_mmshare_version>
43012

> <i_f3d_flags>
0

> <s_epik_input>
W0NIM11jMVtjSF1ubihbY0hdMSlbQ0gyXVtDSDJdW05IXVtDQEhdKFtDSDNdKUMoPU8pTjJbQ0gyXVtDSDJdW0NIMl1bQ0gyXTI=

> <s_epik_cmdline>
J2VwaWtfcHl0aG9uJywgJy1waCcsICc3LjAnLCAnLXRuJywgJzgnLCAnLW1hJywgJzIwMCcsICctbWV0YWxfYmluZGluZycsICctaW1hZScsICc8aW5maWxlLm1hZT4nLCAnLW9tYWUnLCAnPG91dGZpbGUubWFlPic=

> <r_lp_tautomer_probability>
1

> <r_epik_Ionization_Penalty>
0.734676

> <r_epik_Ionization_Penalty_Charging>
0

> <r_epik_Ionization_Penalty_Neutral>
0.734676

> <r_epik_State_Penalty>
0.75825

> <r_epik_Charging_Adjusted_Penalty>
0.75825

> <i_epik_Tot_Q>
0

> <i_epik_Tot_abs_Q>
0

> <r_epik_Metal_State_Penalty>
0.756914

> <b_epik_Metal_Only>
0

> <s_lp_Force_Field>
OPLS_2005

> <r_lp_Energy>
31.4715

> <b_lp_Chiralities_Consistent>
1

> <s_lp_Variant>
AV-unprocessed.smi:3251-4

> <Gold.Version>
5.8.1

> <Gold.Id.Protein>
6NUR|6NUR_protein|mol2

> <Gold.PLP.Fitness>
42.9907

> <Gold.PLP.PLP>
-41.4194

> <Gold.PLP.part.hbond>
0.0000

> <Gold.PLP.part.metal>
0.0000

> <Gold.PLP.part.buried>
-1.6720

> <Gold.PLP.part.nonpolar>
-39.5205

> <Gold.PLP.part.repulsive>
0.3926

> <Gold.PLP.ligand.clash>
0.0000

> <Gold.PLP.ligand.torsion>
0.7311

> <Gold.PLP.Chemscore.Hbond>
0.0000

> <Gold.PLP.Chemscore.CHOScore>
0.9962

> <Gold.PLP.Chemscore.Metal>
0.0000

> <Gold.Chemscore.Hbonds>
donor molecule, donor type, donor heavy atom, donor atom, acceptor molecule, acceptor atom, score
      L1  C    18    40       P1  8028  0.90

> <Gold.PLP.Chemscore.Internal.Correction>
0.0449

> <Gold.Rescore>
     Score         DG    S(hbond)    S(metal)    S(lipo)     H(rot)  DE(clash)    DE(int)     intcor
     12.47     -13.25       0.00        0.00     103.52       1.70       0.09       0.69       ----

> <Gold.Chemscore.Fitness>
12.4716

> <Gold.Chemscore.DG>
-13.2528

> <Gold.Chemscore.ZeroCoef>
-5.4800

> <Gold.Chemscore.Hbond>
0.0000

> <Gold.Chemscore.Metal>
0.0000

> <Gold.Chemscore.Lipo>
103.5240

> <Gold.Chemscore.Internal_Hbond>
0.0000

> <Gold.Chemscore.DEClash>
0.0904

> <Gold.Chemscore.DEInternal>
0.6908

> <Gold.Chemscore.Rot>
1.6951

> <Gold.Chemscore.Internal.Correction>
   9.000000E+99

> <Gold.Chemscore.Hbond.Weighted>
-0.0000

> <Gold.Chemscore.Metal.Weighted>
-0.0000

> <Gold.Chemscore.Lipo.Weighted>
-12.1123

> <Gold.Chemscore.Internal_Hbond.Weighted>
0.0000

> <Gold.Chemscore.DEClash.Weighted>
0.0904

> <Gold.Chemscore.DEInternal.Weighted>
0.6908

> <Gold.Chemscore.Rot.Weighted>
4.3395

> <Gold.Chemscore.Internal.Correction.Weighted>
   9.000000E+99

> <Gold.Protein.RotatedTorsions>
[ 6907 6896 6895 6894 ] final  -55.26 input  -60.11 | X-H torsion
[ 7974 7965 7964 7962 ] final -119.73 input  175.53 | X-H torsion
[ 8008 7997 7996 7995 ] final   70.76 input   59.86 | X-H torsion
[ 10167 10162 10161 10158 ] final   83.91 input  -65.29 | X-H torsion
[ 10718 10713 10712 10709 ] final  -24.07 input   66.30 | X-H torsion
[ 10763 10752 10751 10750 ] final   18.92 input  -60.55 | X-H torsion
[ 11005 11000 10999 10996 ] final  131.30 input  -57.11 | X-H torsion

> <Gold.Protein.ActiveResidues>
 VAL166  LYS551  ARG553  GLY616  TRP617  ASP618  TYR619  PRO620  LYS621  CYS622 
 ASP623  PHE694  ASN695  SER759  ASP760  ASP761  ALA762  ILE779  LEU786  VAL792 
 PHE793  MET794  SER795  GLU796  ALA797  LYS798  CYS799  TRP800  GLU811  SER814 

> <Gold.Protein.RotatedAtoms>
  150.8267  134.7501  159.6818 H   0  0  0  0  0  0  0  0  0  0  0  0  # atno 6907 bound_to 6896
  152.4377  134.5650  159.9915 H   0  0  0  0  0  0  0  0  0  0  0  0  # atno 6908 bound_to 6896
  151.5821  133.3339  159.3046 H   0  0  0  0  0  0  0  0  0  0  0  0  # atno 6909 bound_to 6896
  145.0593  140.8278  143.4162 H   0  0  0  0  0  0  0  0  0  0  0  0  # atno 7974 bound_to 7965
  155.7437  140.3490  155.5116 H   0  0  0  0  0  0  0  0  0  0  0  0  # atno 8008 bound_to 7997
  155.9070  140.1044  157.1329 H   0  0  0  0  0  0  0  0  0  0  0  0  # atno 8009 bound_to 7997
  154.4051  140.1275  156.4496 H   0  0  0  0  0  0  0  0  0  0  0  0  # atno 8010 bound_to 7997
  139.9135  144.6257  150.8513 H   0  0  0  0  0  0  0  0  0  0  0  0  # atno 10167 bound_to 10162
  156.4826  130.4548  149.6802 H   0  0  0  0  0  0  0  0  0  0  0  0  # atno 10718 bound_to 10713
  153.1207  135.6718  153.9340 H   0  0  0  0  0  0  0  0  0  0  0  0  # atno 10763 bound_to 10752
  153.8857  135.3053  155.3447 H   0  0  0  0  0  0  0  0  0  0  0  0  # atno 10764 bound_to 10752
  154.7619  135.4984  153.9559 H   0  0  0  0  0  0  0  0  0  0  0  0  # atno 10765 bound_to 10752
  139.9722  134.9574  156.9419 H   0  0  0  0  0  0  0  0  0  0  0  0  # atno 11005 bound_to 11000
  145.1429  139.2561  143.5481 LP  0  0  0  0  0  0  0  0  0  0  0  0  # atno 17320 bound_to 7965
  146.3523  140.1111  142.8604 LP  0  0  0  0  0  0  0  0  0  0  0  0  # atno 17321 bound_to 7965
  140.7680  143.3348  151.2332 LP  0  0  0  0  0  0  0  0  0  0  0  0  # atno 17342 bound_to 10162
  139.6922  143.9673  152.2865 LP  0  0  0  0  0  0  0  0  0  0  0  0  # atno 17343 bound_to 10162
  156.3506  130.7430  151.2389 LP  0  0  0  0  0  0  0  0  0  0  0  0  # atno 17370 bound_to 10713
  157.7482  131.0378  150.4473 LP  0  0  0  0  0  0  0  0  0  0  0  0  # atno 17371 bound_to 10713
  140.5269  134.0852  155.7306 LP  0  0  0  0  0  0  0  0  0  0  0  0  # atno 17394 bound_to 11000
  141.1401  133.9152  157.2344 LP  0  0  0  0  0  0  0  0  0  0  0  0  # atno 17395 bound_to 11000

$$$$
