AV-unprocessed.smi:1496|AV-procd|sdf|6056|dock8
  -GOLD-   22720 6173D 1   1.00000     0.00000
 Structure written by MMmdl.
 43 44  0  0  0  0  0  0  0  0  2 V2000
  143.3871  140.4703  155.7079 C   0  0  0  0  0  0  0  0  0  0  0  0
  144.7055  140.9494  156.3528 C   0  0  0  0  0  0  0  0  0  0  0  0
  144.8597  140.2853  157.7307 C   0  0  0  0  0  0  0  0  0  0  0  0
  145.9356  140.6231  155.4729 C   0  0  0  0  0  0  0  0  0  0  0  0
  145.9690  141.4559  154.2462 N   0  3  2  0  0  0  0  0  0  0  0  0
  147.1020  141.1002  153.3556 C   0  0  0  0  0  0  0  0  0  0  0  0
  148.3397  140.6171  154.1360 C   0  0  0  0  0  0  0  0  0  0  0  0
  148.9140  141.6901  154.9396 N   0  0  0  0  0  0  0  0  0  0  0  0
  149.9257  141.5404  155.8063 C   0  0  0  0  0  0  0  0  0  0  0  0
  150.4851  140.4629  156.0065 O   0  0  0  0  0  0  0  0  0  0  0  0
  150.2329  142.7069  156.3998 N   0  0  0  0  0  0  0  0  0  0  0  0
  151.2141  142.9825  157.3925 C   0  0  0  0  0  0  0  0  0  0  0  0
  151.9280  141.9988  158.1205 C   0  0  0  0  0  0  0  0  0  0  0  0
  152.8658  142.4137  159.0856 C   0  0  0  0  0  0  0  0  0  0  0  0
  153.0536  143.7936  159.2929 C   0  0  0  0  0  0  0  0  0  0  0  0
  152.3753  144.7421  158.6136 N   0  0  0  0  0  0  0  0  0  0  0  0
  151.4782  144.3368  157.6898 C   0  0  0  0  0  0  0  0  0  0  0  0
  145.9207  142.8937  154.6024 C   0  0  0  0  0  0  0  0  0  0  0  0
  144.6798  143.1880  155.4572 C   0  0  0  0  0  0  0  0  0  0  0  0
  144.6712  142.3551  156.6126 O   0  0  0  0  0  0  0  0  0  0  0  0
  143.3675  139.3834  155.6221 H   0  0  0  0  0  0  0  0  0  0  0  0
  143.2430  140.8692  154.7043 H   0  0  0  0  0  0  0  0  0  0  0  0
  142.5264  140.7672  156.3079 H   0  0  0  0  0  0  0  0  0  0  0  0
  144.9184  139.1998  157.6443 H   0  0  0  0  0  0  0  0  0  0  0  0
  144.0151  140.5201  158.3796 H   0  0  0  0  0  0  0  0  0  0  0  0
  145.7639  140.6257  158.2363 H   0  0  0  0  0  0  0  0  0  0  0  0
  146.8553  140.7964  156.0346 H   0  0  0  0  0  0  0  0  0  0  0  0
  145.9271  139.5653  155.2058 H   0  0  0  0  0  0  0  0  0  0  0  0
  146.7829  140.3483  152.6321 H   0  0  0  0  0  0  0  0  0  0  0  0
  147.3817  141.9830  152.7788 H   0  0  0  0  0  0  0  0  0  0  0  0
  148.0844  139.7685  154.7732 H   0  0  0  0  0  0  0  0  0  0  0  0
  149.1179  140.2724  153.4562 H   0  0  0  0  0  0  0  0  0  0  0  0
  148.5114  142.6099  154.8308 H   0  0  0  0  0  0  0  0  0  0  0  0
  149.7102  143.5108  156.0840 H   0  0  0  0  0  0  0  0  0  0  0  0
  151.7765  140.9418  157.9729 H   0  0  0  0  0  0  0  0  0  0  0  0
  153.4270  141.6889  159.6566 H   0  0  0  0  0  0  0  0  0  0  0  0
  153.7644  144.1444  160.0265 H   0  0  0  0  0  0  0  0  0  0  0  0
  150.9531  145.1240  157.1686 H   0  0  0  0  0  0  0  0  0  0  0  0
  146.8247  143.1673  155.1487 H   0  0  0  0  0  0  0  0  0  0  0  0
  145.8889  143.5130  153.7070 H   0  0  0  0  0  0  0  0  0  0  0  0
  144.6914  144.2285  155.7820 H   0  0  0  0  0  0  0  0  0  0  0  0
  143.7658  143.0580  154.8777 H   0  0  0  0  0  0  0  0  0  0  0  0
  145.1228  141.2447  153.7365 H   0  0  0  0  0  0  0  0  0  0  0  0
  1  2  1  0  0  0  0
  1 21  1  0  0  0  0
  1 22  1  0  0  0  0
  1 23  1  0  0  0  0
  2 20  1  0  0  0  0
  2  3  1  0  0  0  0
  2  4  1  0  0  0  0
  3 24  1  0  0  0  0
  3 25  1  0  0  0  0
  3 26  1  0  0  0  0
  4  5  1  0  0  0  0
  4 27  1  0  0  0  0
  4 28  1  0  0  0  0
  5  6  1  0  0  0  0
  5 18  1  0  0  0  0
  5 43  1  0  0  0  0
  6  7  1  0  0  0  0
  6 29  1  0  0  0  0
  6 30  1  0  0  0  0
  7  8  1  0  0  0  0
  7 31  1  0  0  0  0
  7 32  1  0  0  0  0
  8  9  1  0  0  0  0
  8 33  1  0  0  0  0
  9 10  2  0  0  0  0
  9 11  1  0  0  0  0
 11 12  1  0  0  0  0
 11 34  1  0  0  0  0
 12 17  1  0  0  0  0
 12 13  2  0  0  0  0
 13 14  1  0  0  0  0
 13 35  1  0  0  0  0
 14 15  2  0  0  0  0
 14 36  1  0  0  0  0
 15 16  1  0  0  0  0
 15 37  1  0  0  0  0
 16 17  2  0  0  0  0
 17 38  1  0  0  0  0
 18 19  1  0  0  0  0
 18 39  1  0  0  0  0
 18 40  1  0  0  0  0
 19 20  1  0  0  0  0
 19 41  1  0  0  0  0
 19 42  1  0  0  0  0
M  CHG  1   5   1
M  END
> <s_m_source_file>
AV-unprocessed.smi

> <i_m_source_file_index>
1496

> <i_lp_mmshare_version>
43012

> <i_f3d_flags>
0

> <s_epik_input>
W0NIM11DMShbQ0gzXSlbQ0gyXU4oW0NIMl1bQ0gyXU8xKVtDSDJdW0NIMl1bTkhdQyg9TylbTkhdYzJbY0hdW2NIXVtjSF1uW2NIXTI=

> <s_epik_cmdline>
J2VwaWtfcHl0aG9uJywgJy1waCcsICc3LjAnLCAnLXRuJywgJzgnLCAnLW1hJywgJzIwMCcsICctbWV0YWxfYmluZGluZycsICctaW1hZScsICc8aW5maWxlLm1hZT4nLCAnLW9tYWUnLCAnPG91dGZpbGUubWFlPic=

> <r_epik_Ionization_Penalty>
0.606681

> <r_epik_Ionization_Penalty_Charging>
0.602531

> <r_epik_Ionization_Penalty_Neutral>
0.00415082

> <r_epik_State_Penalty>
0.607427

> <r_epik_Charging_Adjusted_Penalty>
1.20996

> <i_epik_Tot_Q>
1

> <i_epik_Tot_abs_Q>
1

> <r_epik_Metal_State_Penalty>
0.604583

> <b_epik_Metal_Only>
0

> <s_lp_Force_Field>
OPLS_2005

> <r_lp_Energy>
20.8776

> <b_lp_Chiralities_Consistent>
1

> <s_lp_Variant>
AV-unprocessed.smi:1496-2

> <Gold.Version>
5.8.1

> <Gold.Id.Protein>
6NUR|6NUR_protein|mol2

> <Gold.PLP.Fitness>
45.5744

> <Gold.PLP.PLP>
-34.0531

> <Gold.PLP.part.hbond>
-2.7140

> <Gold.PLP.part.metal>
0.0000

> <Gold.PLP.part.buried>
-6.6948

> <Gold.PLP.part.nonpolar>
-26.4661

> <Gold.PLP.part.repulsive>
0.3454

> <Gold.PLP.ligand.clash>
0.0000

> <Gold.PLP.ligand.torsion>
0.4421

> <Gold.PLP.Chemscore.Hbond>
3.2483

> <Gold.PLP.Chemscore.CHOScore>
0.8823

> <Gold.PLP.Chemscore.Metal>
0.0000

> <Gold.Chemscore.Hbonds>
donor molecule, donor type, donor heavy atom, donor atom, acceptor molecule, acceptor atom, score
      L1  H     5    43       P1 10175  1.92
      L1  H     8    33       P1  8028  0.29
      L1  H    11    34       P1  8028  0.98
      L1  C    17    38       P1  8028  0.88

> <Gold.PLP.Chemscore.Internal.Correction>
0.0136

> <Gold.Rescore>
     Score         DG    S(hbond)    S(metal)    S(lipo)     H(rot)  DE(clash)    DE(int)     intcor
     16.06     -17.68       1.83        0.00      84.86       1.50       0.00       1.62       ----

> <Gold.Chemscore.Fitness>
16.0552

> <Gold.Chemscore.DG>
-17.6775

> <Gold.Chemscore.ZeroCoef>
-5.4800

> <Gold.Chemscore.Hbond>
1.8298

> <Gold.Chemscore.Metal>
0.0000

> <Gold.Chemscore.Lipo>
84.8609

> <Gold.Chemscore.Internal_Hbond>
0.0000

> <Gold.Chemscore.DEClash>
0.0029

> <Gold.Chemscore.DEInternal>
1.6194

> <Gold.Chemscore.Rot>
1.5010

> <Gold.Chemscore.Internal.Correction>
   9.000000E+99

> <Gold.Chemscore.Hbonds>
donor molecule, donor type, donor heavy atom, donor atom, acceptor molecule, acceptor atom, score
      L1  H     5    43       P1 10175  0.46
      L1  H     8    33       P1  8028  0.28
      L1  H    11    34       P1  8028  0.92

> <Gold.Chemscore.Hbond.Weighted>
-6.1114

> <Gold.Chemscore.Metal.Weighted>
-0.0000

> <Gold.Chemscore.Lipo.Weighted>
-9.9287

> <Gold.Chemscore.Internal_Hbond.Weighted>
0.0000

> <Gold.Chemscore.DEClash.Weighted>
0.0029

> <Gold.Chemscore.DEInternal.Weighted>
1.6194

> <Gold.Chemscore.Rot.Weighted>
3.8426

> <Gold.Chemscore.Internal.Correction.Weighted>
   9.000000E+99

> <Gold.Protein.RotatedTorsions>
[ 6907 6896 6895 6894 ] final  -57.96 input  -60.11 | X-H torsion
[ 7974 7965 7964 7962 ] final  -27.16 input  175.53 | X-H torsion
[ 8008 7997 7996 7995 ] final -153.76 input   59.86 | X-H torsion
[ 10167 10162 10161 10158 ] final  -59.66 input  -65.29 | X-H torsion
[ 10718 10713 10712 10709 ] final    5.72 input   66.30 | X-H torsion
[ 10763 10752 10751 10750 ] final  110.76 input  -60.55 | X-H torsion
[ 11005 11000 10999 10996 ] final   35.94 input  -57.11 | X-H torsion

> <Gold.Protein.ActiveResidues>
 VAL166  LYS551  ARG553  GLY616  TRP617  ASP618  TYR619  PRO620  LYS621  CYS622 
 ASP623  PHE694  ASN695  SER759  ASP760  ASP761  ALA762  ILE779  LEU786  VAL792 
 PHE793  MET794  SER795  GLU796  ALA797  LYS798  CYS799  TRP800  GLU811  SER814 

> <Gold.Protein.RotatedAtoms>
  150.8044  134.7159  159.6630 H   0  0  0  0  0  0  0  0  0  0  0  0  # atno 6907 bound_to 6896
  152.4163  134.6033  160.0015 H   0  0  0  0  0  0  0  0  0  0  0  0  # atno 6908 bound_to 6896
  151.6261  133.3298  159.3134 H   0  0  0  0  0  0  0  0  0  0  0  0  # atno 6909 bound_to 6896
  146.1377  140.5115  142.8665 H   0  0  0  0  0  0  0  0  0  0  0  0  # atno 7974 bound_to 7965
  155.6759  140.0738  157.2503 H   0  0  0  0  0  0  0  0  0  0  0  0  # atno 8008 bound_to 7997
  154.4114  140.1690  156.1981 H   0  0  0  0  0  0  0  0  0  0  0  0  # atno 8009 bound_to 7997
  155.9577  140.3372  155.6466 H   0  0  0  0  0  0  0  0  0  0  0  0  # atno 8010 bound_to 7997
  140.6120  143.2390  151.5686 H   0  0  0  0  0  0  0  0  0  0  0  0  # atno 10167 bound_to 10162
  156.9115  130.5758  149.5647 H   0  0  0  0  0  0  0  0  0  0  0  0  # atno 10718 bound_to 10713
  153.4536  135.3738  155.2298 H   0  0  0  0  0  0  0  0  0  0  0  0  # atno 10763 bound_to 10752
  154.8756  135.3891  154.4009 H   0  0  0  0  0  0  0  0  0  0  0  0  # atno 10764 bound_to 10752
  153.4572  135.7086  153.6136 H   0  0  0  0  0  0  0  0  0  0  0  0  # atno 10765 bound_to 10752
  140.2376  134.3453  155.7938 H   0  0  0  0  0  0  0  0  0  0  0  0  # atno 11005 bound_to 11000
  144.7758  140.5735  143.6639 LP  0  0  0  0  0  0  0  0  0  0  0  0  # atno 17320 bound_to 7965
  145.5118  139.1479  143.3600 LP  0  0  0  0  0  0  0  0  0  0  0  0  # atno 17321 bound_to 7965
  139.5369  144.2756  152.1270 LP  0  0  0  0  0  0  0  0  0  0  0  0  # atno 17342 bound_to 10162
  140.1957  144.4707  150.6456 LP  0  0  0  0  0  0  0  0  0  0  0  0  # atno 17343 bound_to 10162
  156.0533  130.5599  150.9038 LP  0  0  0  0  0  0  0  0  0  0  0  0  # atno 17370 bound_to 10713
  157.5964  131.0943  150.9033 LP  0  0  0  0  0  0  0  0  0  0  0  0  # atno 17371 bound_to 10713
  141.2213  133.7280  156.8832 LP  0  0  0  0  0  0  0  0  0  0  0  0  # atno 17394 bound_to 11000
  140.1687  134.9115  157.2806 LP  0  0  0  0  0  0  0  0  0  0  0  0  # atno 17395 bound_to 11000

$$$$
