AV-unprocessed.smi:72|AV-procd|sdf|712|dock1
  -GOLD-   2262017 33D 1   1.00000     0.00000
 Structure written by MMmdl.
 28 29  0  0  0  0  0  0  0  0  2 V2000
  152.8998  139.3140  159.0923 N   0  0  0  0  0  0  0  0  0  0  0  0
  152.0403  139.4290  158.1776 C   0  0  0  0  0  0  0  0  0  0  0  0
  150.6303  139.3516  158.4918 N   0  0  0  0  0  0  0  0  0  0  0  0
  149.7852  139.4683  157.5140 C   0  0  0  0  0  0  0  0  0  0  0  0
  150.2239  139.6665  156.1384 N   0  0  0  0  0  0  0  0  0  0  0  0
  149.2397  139.8070  154.9899 C   0  0  1  0  0  0  0  0  0  0  0  0
  147.9495  139.4746  155.4242 O   0  0  0  0  0  0  0  0  0  0  0  0
  147.1231  140.6321  155.4017 C   0  0  2  0  0  0  0  0  0  0  0  0
  145.6353  140.2434  155.3306 C   0  0  0  0  0  0  0  0  0  0  0  0
  145.3660  139.3478  154.2713 O   0  0  0  0  0  0  0  0  0  0  0  0
  147.6850  141.4623  154.2475 C   0  0  1  0  0  0  0  0  0  0  0  0
  147.3000  142.8233  154.3054 O   0  0  0  0  0  0  0  0  0  0  0  0
  149.1869  141.2423  154.4055 C   0  0  1  0  0  0  0  0  0  0  0  0
  149.7855  142.2196  155.2444 O   0  0  0  0  0  0  0  0  0  0  0  0
  151.6142  139.7526  155.8623 C   0  0  0  0  0  0  0  0  0  0  0  0
  151.9623  139.9470  154.6973 O   0  0  0  0  0  0  0  0  0  0  0  0
  152.4961  139.6286  156.8932 N   0  5  0  0  0  0  0  0  0  0  0  0
  149.5323  139.0548  154.2555 H   0  0  0  0  0  0  0  0  0  0  0  0
  147.2966  141.1634  156.3393 H   0  0  0  0  0  0  0  0  0  0  0  0
  147.3734  141.0453  153.2894 H   0  0  0  0  0  0  0  0  0  0  0  0
  149.6984  141.2610  153.4427 H   0  0  0  0  0  0  0  0  0  0  0  0
  153.8443  139.3872  158.7428 H   0  0  0  0  0  0  0  0  0  0  0  0
  148.7066  139.4281  157.6639 H   0  0  0  0  0  0  0  0  0  0  0  0
  145.3095  139.8036  156.2736 H   0  0  0  0  0  0  0  0  0  0  0  0
  145.0317  141.1371  155.1709 H   0  0  0  0  0  0  0  0  0  0  0  0
  144.7002  139.7279  153.7191 H   0  0  0  0  0  0  0  0  0  0  0  0
  148.0015  143.3141  154.7051 H   0  0  0  0  0  0  0  0  0  0  0  0
  149.1725  142.9309  155.3565 H   0  0  0  0  0  0  0  0  0  0  0  0
  1  2  2  0  0  0  0
  1 22  1  0  0  0  0
  2 17  1  0  0  0  0
  2  3  1  0  0  0  0
  3  4  2  0  0  0  0
  4  5  1  0  0  0  0
  4 23  1  0  0  0  0
  5  6  1  0  0  0  0
  5 15  1  0  0  0  0
  6 18  1  0  0  0  0
  6 13  1  0  0  0  0
  6  7  1  0  0  0  0
  7  8  1  0  0  0  0
  8 19  1  0  0  0  0
  8  9  1  0  0  0  0
  8 11  1  0  0  0  0
  9 10  1  0  0  0  0
  9 24  1  0  0  0  0
  9 25  1  0  0  0  0
 10 26  1  0  0  0  0
 11 20  1  0  0  0  0
 11 12  1  0  0  0  0
 11 13  1  0  0  0  0
 12 27  1  0  0  0  0
 13 21  1  0  0  0  0
 13 14  1  0  0  0  0
 14 28  1  0  0  0  0
 15 16  2  0  0  0  0
 15 17  1  0  0  0  0
M  CHG  1  17  -1
M  END
> <s_m_source_file>
AV-unprocessed.smi

> <i_m_source_file_index>
72

> <i_lp_mmshare_version>
43012

> <i_f3d_flags>
0

> <s_epik_input>
W05IMl1jMW5bY0hdbihjKD1PKW4xKVtDQEBIXTJPW0NASF0oW0NIMl1bT0hdKVtDQEBIXShbT0hdKVtDQEhdMltPSF0=

> <s_epik_cmdline>
J2VwaWtfcHl0aG9uJywgJy1waCcsICc3LjAnLCAnLXRuJywgJzgnLCAnLW1hJywgJzIwMCcsICctbWV0YWxfYmluZGluZycsICctaW1hZScsICc8aW5maWxlLm1hZT4nLCAnLW9tYWUnLCAnPG91dGZpbGUubWFlPic=

> <r_lp_tautomer_probability>
7.17554e-07

> <r_epik_Ionization_Penalty>
12.8705

> <r_epik_Ionization_Penalty_Charging>
5.64144

> <r_epik_Ionization_Penalty_Neutral>
7.22905

> <r_epik_State_Penalty>
3.30104

> <r_epik_Charging_Adjusted_Penalty>
8.94249

> <i_epik_Tot_Q>
-1

> <i_epik_Tot_abs_Q>
1

> <r_epik_Metal_State_Penalty>
0.529074

> <b_epik_Metal_Only>
1

> <s_epik_Chemistry_Notes>
This compound contains an acetal/aminal-like group ( X-CH(R)-Y where X, Y are N, S, or O) that may be acid/base labile, releasing an aldehyde.

> <s_lp_Force_Field>
OPLS_2005

> <r_lp_Energy>
42.9938

> <b_lp_Chiralities_Consistent>
1

> <s_lp_Variant>
AV-unprocessed.smi:72-50

> <Gold.Version>
5.8.1

> <Gold.Id.Protein>
6NUR|6NUR_protein|mol2

> <Gold.PLP.Fitness>
39.0701

> <Gold.PLP.PLP>
-21.7699

> <Gold.PLP.part.hbond>
-5.3634

> <Gold.PLP.part.metal>
0.0000

> <Gold.PLP.part.buried>
-2.1007

> <Gold.PLP.part.nonpolar>
-13.6528

> <Gold.PLP.part.repulsive>
0.0845

> <Gold.PLP.ligand.clash>
0.0000

> <Gold.PLP.ligand.torsion>
0.2123

> <Gold.PLP.Chemscore.Hbond>
5.8960

> <Gold.PLP.Chemscore.CHOScore>
0.0000

> <Gold.PLP.Chemscore.Metal>
0.0000

> <Gold.Chemscore.Hbonds>
donor molecule, donor type, donor heavy atom, donor atom, acceptor molecule, acceptor atom, score
      L1  H    10    26       P1 10175  1.00
      L1  H    12    27       P1  8028  1.00
      L1  H    14    28       P1  8028  0.98
      P1  H  7989  7998       L1    16  0.88
      P1  H  7997  8010       L1    17  2.00

> <Gold.PLP.Chemscore.Internal.Correction>
0.0369

> <Gold.Rescore>
     Score         DG    S(hbond)    S(metal)    S(lipo)     H(rot)  DE(clash)    DE(int)     intcor
     12.64     -12.96       4.66        0.00      19.30       4.04       0.01       0.31       ----

> <Gold.Chemscore.Fitness>
12.6371

> <Gold.Chemscore.DG>
-12.9570

> <Gold.Chemscore.ZeroCoef>
-5.4800

> <Gold.Chemscore.Hbond>
4.6592

> <Gold.Chemscore.Metal>
0.0000

> <Gold.Chemscore.Lipo>
19.3025

> <Gold.Chemscore.Internal_Hbond>
0.0000

> <Gold.Chemscore.DEClash>
0.0126

> <Gold.Chemscore.DEInternal>
0.3073

> <Gold.Chemscore.Rot>
4.0403

> <Gold.Chemscore.Internal.Correction>
   9.000000E+99

> <Gold.Chemscore.Hbonds>
donor molecule, donor type, donor heavy atom, donor atom, acceptor molecule, acceptor atom, score
      L1  H    10    26       P1 10175  1.00
      L1  H    12    27       P1  8028  0.85
      L1  H    14    28       P1  8028  0.93
      P1  H  7989  7998       L1    16  0.81
      P1  H  7997  8010       L1    17  0.94

> <Gold.Chemscore.Hbond.Weighted>
-15.5617

> <Gold.Chemscore.Metal.Weighted>
-0.0000

> <Gold.Chemscore.Lipo.Weighted>
-2.2584

> <Gold.Chemscore.Internal_Hbond.Weighted>
0.0000

> <Gold.Chemscore.DEClash.Weighted>
0.0126

> <Gold.Chemscore.DEInternal.Weighted>
0.3073

> <Gold.Chemscore.Rot.Weighted>
10.3431

> <Gold.Chemscore.Internal.Correction.Weighted>
   9.000000E+99

> <Gold.Protein.RotatedTorsions>
[ 6907 6896 6895 6894 ] final  123.93 input  -60.11 | X-H torsion
[ 7974 7965 7964 7962 ] final  -12.80 input  175.53 | X-H torsion
[ 8008 7997 7996 7995 ] final   62.62 input   59.86 | X-H torsion
[ 10167 10162 10161 10158 ] final  120.94 input  -65.29 | X-H torsion
[ 10718 10713 10712 10709 ] final -146.22 input   66.30 | X-H torsion
[ 10763 10752 10751 10750 ] final    2.59 input  -60.55 | X-H torsion
[ 11005 11000 10999 10996 ] final  -58.74 input  -57.11 | X-H torsion

> <Gold.Protein.ActiveResidues>
 VAL166  LYS551  ARG553  GLY616  TRP617  ASP618  TYR619  PRO620  LYS621  CYS622 
 ASP623  PHE694  ASN695  SER759  ASP760  ASP761  ALA762  ILE779  LEU786  VAL792 
 PHE793  MET794  SER795  GLU796  ALA797  LYS798  CYS799  TRP800  GLU811  SER814 

> <Gold.Protein.RotatedAtoms>
  152.4120  133.6979  159.6405 H   0  0  0  0  0  0  0  0  0  0  0  0  # atno 6907 bound_to 6896
  150.8000  133.8607  159.3240 H   0  0  0  0  0  0  0  0  0  0  0  0  # atno 6908 bound_to 6896
  151.6346  135.1021  160.0180 H   0  0  0  0  0  0  0  0  0  0  0  0  # atno 6909 bound_to 6896
  146.2138  140.3110  142.8382 H   0  0  0  0  0  0  0  0  0  0  0  0  # atno 7974 bound_to 7965
  155.6172  140.3495  155.4641 H   0  0  0  0  0  0  0  0  0  0  0  0  # atno 8008 bound_to 7997
  156.0107  140.1232  157.0480 H   0  0  0  0  0  0  0  0  0  0  0  0  # atno 8009 bound_to 7997
  154.4280  140.1082  156.5812 H   0  0  0  0  0  0  0  0  0  0  0  0  # atno 8010 bound_to 7997
  139.5950  144.7038  151.3198 H   0  0  0  0  0  0  0  0  0  0  0  0  # atno 10167 bound_to 10162
  156.3922  130.7891  151.2095 H   0  0  0  0  0  0  0  0  0  0  0  0  # atno 10718 bound_to 10713
  153.2937  135.6950  153.7268 H   0  0  0  0  0  0  0  0  0  0  0  0  # atno 10763 bound_to 10752
  153.6209  135.3427  155.3011 H   0  0  0  0  0  0  0  0  0  0  0  0  # atno 10764 bound_to 10752
  154.8531  135.4386  154.2028 H   0  0  0  0  0  0  0  0  0  0  0  0  # atno 10765 bound_to 10752
  141.1220  133.6613  156.4967 H   0  0  0  0  0  0  0  0  0  0  0  0  # atno 11005 bound_to 11000
  144.8988  140.7617  143.5880 LP  0  0  0  0  0  0  0  0  0  0  0  0  # atno 17320 bound_to 7965
  145.3035  139.1842  143.4677 LP  0  0  0  0  0  0  0  0  0  0  0  0  # atno 17321 bound_to 7965
  140.7204  143.7150  150.7740 LP  0  0  0  0  0  0  0  0  0  0  0  0  # atno 17342 bound_to 10162
  140.0714  143.5057  152.2578 LP  0  0  0  0  0  0  0  0  0  0  0  0  # atno 17343 bound_to 10162
  157.7499  131.0312  150.4171 LP  0  0  0  0  0  0  0  0  0  0  0  0  # atno 17370 bound_to 10713
  156.4435  130.3996  149.6682 LP  0  0  0  0  0  0  0  0  0  0  0  0  # atno 17371 bound_to 10713
  140.4479  134.6955  157.5025 LP  0  0  0  0  0  0  0  0  0  0  0  0  # atno 17394 bound_to 11000
  140.0185  134.6583  155.9274 LP  0  0  0  0  0  0  0  0  0  0  0  0  # atno 17395 bound_to 11000

$$$$
