AV-unprocessed.smi:1496|AV-procd|sdf|6056|dock5
  -GOLD-   22720 6173D 1   1.00000     0.00000
 Structure written by MMmdl.
 43 44  0  0  0  0  0  0  0  0  2 V2000
  151.2210  137.6160  154.3967 C   0  0  0  0  0  0  0  0  0  0  0  0
  150.3595  138.6331  155.1759 C   0  0  0  0  0  0  0  0  0  0  0  0
  151.2851  139.5727  155.9657 C   0  0  0  0  0  0  0  0  0  0  0  0
  149.4474  139.4607  154.2395 C   0  0  0  0  0  0  0  0  0  0  0  0
  148.3574  138.6352  153.6652 N   0  3  2  0  0  0  0  0  0  0  0  0
  147.5203  139.3978  152.7055 C   0  0  0  0  0  0  0  0  0  0  0  0
  146.2599  138.6236  152.2736 C   0  0  0  0  0  0  0  0  0  0  0  0
  146.5600  137.2196  152.0172 N   0  0  0  0  0  0  0  0  0  0  0  0
  145.6417  136.2679  151.7977 C   0  0  0  0  0  0  0  0  0  0  0  0
  144.4320  136.4922  151.7828 O   0  0  0  0  0  0  0  0  0  0  0  0
  146.2212  135.0718  151.5956 N   0  0  0  0  0  0  0  0  0  0  0  0
  145.6170  133.8060  151.3577 C   0  0  0  0  0  0  0  0  0  0  0  0
  144.2262  133.5905  151.1942 C   0  0  0  0  0  0  0  0  0  0  0  0
  143.7620  132.2791  150.9754 C   0  0  0  0  0  0  0  0  0  0  0  0
  144.7007  131.2305  150.9327 C   0  0  0  0  0  0  0  0  0  0  0  0
  146.0270  131.4188  151.0950 N   0  0  0  0  0  0  0  0  0  0  0  0
  146.4647  132.6787  151.3040 C   0  0  0  0  0  0  0  0  0  0  0  0
  147.5807  137.9877  154.7487 C   0  0  0  0  0  0  0  0  0  0  0  0
  148.5103  137.1592  155.6468 C   0  0  0  0  0  0  0  0  0  0  0  0
  149.5551  137.9794  156.1608 O   0  0  0  0  0  0  0  0  0  0  0  0
  151.9199  138.1252  153.7323 H   0  0  0  0  0  0  0  0  0  0  0  0
  150.6230  136.9499  153.7757 H   0  0  0  0  0  0  0  0  0  0  0  0
  151.8071  136.9966  155.0762 H   0  0  0  0  0  0  0  0  0  0  0  0
  151.9344  140.1426  155.3002 H   0  0  0  0  0  0  0  0  0  0  0  0
  151.9230  139.0146  156.6520 H   0  0  0  0  0  0  0  0  0  0  0  0
  150.7130  140.2862  156.5596 H   0  0  0  0  0  0  0  0  0  0  0  0
  149.0005  140.2912  154.7890 H   0  0  0  0  0  0  0  0  0  0  0  0
  150.0439  139.9007  153.4389 H   0  0  0  0  0  0  0  0  0  0  0  0
  147.2524  140.3649  153.1342 H   0  0  0  0  0  0  0  0  0  0  0  0
  148.1158  139.6097  151.8162 H   0  0  0  0  0  0  0  0  0  0  0  0
  145.4798  138.7066  153.0324 H   0  0  0  0  0  0  0  0  0  0  0  0
  145.8454  139.0370  151.3549 H   0  0  0  0  0  0  0  0  0  0  0  0
  147.5341  136.9532  152.0094 H   0  0  0  0  0  0  0  0  0  0  0  0
  147.2308  135.0690  151.5889 H   0  0  0  0  0  0  0  0  0  0  0  0
  143.5044  134.3898  151.2397 H   0  0  0  0  0  0  0  0  0  0  0  0
  142.7082  132.0815  150.8460 H   0  0  0  0  0  0  0  0  0  0  0  0
  144.3769  130.2134  150.7678 H   0  0  0  0  0  0  0  0  0  0  0  0
  147.5316  132.7897  151.4321 H   0  0  0  0  0  0  0  0  0  0  0  0
  147.0702  138.7494  155.3402 H   0  0  0  0  0  0  0  0  0  0  0  0
  146.8122  137.3352  154.3367 H   0  0  0  0  0  0  0  0  0  0  0  0
  147.9475  136.7506  156.4862 H   0  0  0  0  0  0  0  0  0  0  0  0
  148.9174  136.3049  155.1059 H   0  0  0  0  0  0  0  0  0  0  0  0
  148.8061  137.9000  153.1374 H   0  0  0  0  0  0  0  0  0  0  0  0
  1  2  1  0  0  0  0
  1 21  1  0  0  0  0
  1 22  1  0  0  0  0
  1 23  1  0  0  0  0
  2 20  1  0  0  0  0
  2  3  1  0  0  0  0
  2  4  1  0  0  0  0
  3 24  1  0  0  0  0
  3 25  1  0  0  0  0
  3 26  1  0  0  0  0
  4  5  1  0  0  0  0
  4 27  1  0  0  0  0
  4 28  1  0  0  0  0
  5  6  1  0  0  0  0
  5 18  1  0  0  0  0
  5 43  1  0  0  0  0
  6  7  1  0  0  0  0
  6 29  1  0  0  0  0
  6 30  1  0  0  0  0
  7  8  1  0  0  0  0
  7 31  1  0  0  0  0
  7 32  1  0  0  0  0
  8  9  1  0  0  0  0
  8 33  1  0  0  0  0
  9 10  2  0  0  0  0
  9 11  1  0  0  0  0
 11 12  1  0  0  0  0
 11 34  1  0  0  0  0
 12 17  1  0  0  0  0
 12 13  2  0  0  0  0
 13 14  1  0  0  0  0
 13 35  1  0  0  0  0
 14 15  2  0  0  0  0
 14 36  1  0  0  0  0
 15 16  1  0  0  0  0
 15 37  1  0  0  0  0
 16 17  2  0  0  0  0
 17 38  1  0  0  0  0
 18 19  1  0  0  0  0
 18 39  1  0  0  0  0
 18 40  1  0  0  0  0
 19 20  1  0  0  0  0
 19 41  1  0  0  0  0
 19 42  1  0  0  0  0
M  CHG  1   5   1
M  END
> <s_m_source_file>
AV-unprocessed.smi

> <i_m_source_file_index>
1496

> <i_lp_mmshare_version>
43012

> <i_f3d_flags>
0

> <s_epik_input>
W0NIM11DMShbQ0gzXSlbQ0gyXU4oW0NIMl1bQ0gyXU8xKVtDSDJdW0NIMl1bTkhdQyg9TylbTkhdYzJbY0hdW2NIXVtjSF1uW2NIXTI=

> <s_epik_cmdline>
J2VwaWtfcHl0aG9uJywgJy1waCcsICc3LjAnLCAnLXRuJywgJzgnLCAnLW1hJywgJzIwMCcsICctbWV0YWxfYmluZGluZycsICctaW1hZScsICc8aW5maWxlLm1hZT4nLCAnLW9tYWUnLCAnPG91dGZpbGUubWFlPic=

> <r_epik_Ionization_Penalty>
0.606681

> <r_epik_Ionization_Penalty_Charging>
0.602531

> <r_epik_Ionization_Penalty_Neutral>
0.00415082

> <r_epik_State_Penalty>
0.607427

> <r_epik_Charging_Adjusted_Penalty>
1.20996

> <i_epik_Tot_Q>
1

> <i_epik_Tot_abs_Q>
1

> <r_epik_Metal_State_Penalty>
0.604583

> <b_epik_Metal_Only>
0

> <s_lp_Force_Field>
OPLS_2005

> <r_lp_Energy>
20.8776

> <b_lp_Chiralities_Consistent>
1

> <s_lp_Variant>
AV-unprocessed.smi:1496-2

> <Gold.Version>
5.8.1

> <Gold.Id.Protein>
6NUR|6NUR_protein|mol2

> <Gold.PLP.Fitness>
44.6824

> <Gold.PLP.PLP>
-31.6473

> <Gold.PLP.part.hbond>
-4.0000

> <Gold.PLP.part.metal>
0.0000

> <Gold.PLP.part.buried>
0.6880

> <Gold.PLP.part.nonpolar>
-30.9827

> <Gold.PLP.part.repulsive>
1.8336

> <Gold.PLP.ligand.clash>
0.0000

> <Gold.PLP.ligand.torsion>
0.1980

> <Gold.PLP.Chemscore.Hbond>
3.9199

> <Gold.PLP.Chemscore.CHOScore>
0.5526

> <Gold.PLP.Chemscore.Metal>
0.0000

> <Gold.Chemscore.Hbonds>
donor molecule, donor type, donor heavy atom, donor atom, acceptor molecule, acceptor atom, score
      L1  H     5    43       P1  7948  1.72
      L1  H     8    33       P1  7948  1.00
      L1  H    11    34       P1  7948  0.89
      L1  C    17    38       P1 10747  0.45

> <Gold.PLP.Chemscore.Internal.Correction>
0.0136

> <Gold.Rescore>
     Score         DG    S(hbond)    S(metal)    S(lipo)     H(rot)  DE(clash)    DE(int)     intcor
     17.32     -20.56       2.65        0.00      86.00       1.50       1.96       1.28       ----

> <Gold.Chemscore.Fitness>
17.3240

> <Gold.Chemscore.DG>
-20.5628

> <Gold.Chemscore.ZeroCoef>
-5.4800

> <Gold.Chemscore.Hbond>
2.6538

> <Gold.Chemscore.Metal>
0.0000

> <Gold.Chemscore.Lipo>
85.9992

> <Gold.Chemscore.Internal_Hbond>
0.0000

> <Gold.Chemscore.DEClash>
1.9562

> <Gold.Chemscore.DEInternal>
1.2827

> <Gold.Chemscore.Rot>
1.5010

> <Gold.Chemscore.Internal.Correction>
   9.000000E+99

> <Gold.Chemscore.Hbonds>
donor molecule, donor type, donor heavy atom, donor atom, acceptor molecule, acceptor atom, score
      L1  H     5    43       P1  7948  0.83
      L1  H     8    33       P1  7948  0.97
      L1  H    11    34       P1  7948  0.70

> <Gold.Chemscore.Hbond.Weighted>
-8.8636

> <Gold.Chemscore.Metal.Weighted>
-0.0000

> <Gold.Chemscore.Lipo.Weighted>
-10.0619

> <Gold.Chemscore.Internal_Hbond.Weighted>
0.0000

> <Gold.Chemscore.DEClash.Weighted>
1.9562

> <Gold.Chemscore.DEInternal.Weighted>
1.2827

> <Gold.Chemscore.Rot.Weighted>
3.8426

> <Gold.Chemscore.Internal.Correction.Weighted>
   9.000000E+99

> <Gold.Protein.RotatedTorsions>
[ 6907 6896 6895 6894 ] final  -59.37 input  -60.11 | X-H torsion
[ 7974 7965 7964 7962 ] final  -70.61 input  175.53 | X-H torsion
[ 8008 7997 7996 7995 ] final   47.05 input   59.86 | X-H torsion
[ 10167 10162 10161 10158 ] final  -47.02 input  -65.29 | X-H torsion
[ 10718 10713 10712 10709 ] final  -71.78 input   66.30 | X-H torsion
[ 10763 10752 10751 10750 ] final   77.36 input  -60.55 | X-H torsion
[ 11005 11000 10999 10996 ] final -113.83 input  -57.11 | X-H torsion

> <Gold.Protein.ActiveResidues>
 VAL166  LYS551  ARG553  GLY616  TRP617  ASP618  TYR619  PRO620  LYS621  CYS622 
 ASP623  PHE694  ASN695  SER759  ASP760  ASP761  ALA762  ILE779  LEU786  VAL792 
 PHE793  MET794  SER795  GLU796  ALA797  LYS798  CYS799  TRP800  GLU811  SER814 

> <Gold.Protein.RotatedAtoms>
  150.7935  134.6977  159.6532 H   0  0  0  0  0  0  0  0  0  0  0  0  # atno 6907 bound_to 6896
  152.4045  134.6228  160.0065 H   0  0  0  0  0  0  0  0  0  0  0  0  # atno 6908 bound_to 6896
  151.6489  133.3285  159.3183 H   0  0  0  0  0  0  0  0  0  0  0  0  # atno 6909 bound_to 6896
  145.6887  140.9161  143.0793 H   0  0  0  0  0  0  0  0  0  0  0  0  # atno 7974 bound_to 7965
  155.3626  140.3419  155.4241 H   0  0  0  0  0  0  0  0  0  0  0  0  # atno 8008 bound_to 7997
  156.1705  140.1630  156.8489 H   0  0  0  0  0  0  0  0  0  0  0  0  # atno 8009 bound_to 7997
  154.5229  140.0763  156.8187 H   0  0  0  0  0  0  0  0  0  0  0  0  # atno 8010 bound_to 7997
  140.6793  143.2804  151.3866 H   0  0  0  0  0  0  0  0  0  0  0  0  # atno 10167 bound_to 10162
  156.0348  130.4358  150.2495 H   0  0  0  0  0  0  0  0  0  0  0  0  # atno 10718 bound_to 10713
  153.0792  135.4917  154.8469 H   0  0  0  0  0  0  0  0  0  0  0  0  # atno 10763 bound_to 10752
  154.7129  135.3023  154.9171 H   0  0  0  0  0  0  0  0  0  0  0  0  # atno 10764 bound_to 10752
  153.9860  135.6784  153.4805 H   0  0  0  0  0  0  0  0  0  0  0  0  # atno 10765 bound_to 10752
  141.0590  133.9566  157.2702 H   0  0  0  0  0  0  0  0  0  0  0  0  # atno 11005 bound_to 11000
  144.7003  139.8793  143.7446 LP  0  0  0  0  0  0  0  0  0  0  0  0  # atno 17320 bound_to 7965
  146.0901  139.3890  143.0411 LP  0  0  0  0  0  0  0  0  0  0  0  0  # atno 17321 bound_to 7965
  139.6105  144.1109  152.2293 LP  0  0  0  0  0  0  0  0  0  0  0  0  # atno 17342 bound_to 10162
  140.0521  144.5924  150.7328 LP  0  0  0  0  0  0  0  0  0  0  0  0  # atno 17343 bound_to 10162
  157.0595  131.0086  151.3227 LP  0  0  0  0  0  0  0  0  0  0  0  0  # atno 17370 bound_to 10713
  157.5081  130.7921  149.7675 LP  0  0  0  0  0  0  0  0  0  0  0  0  # atno 17371 bound_to 10713
  139.9415  135.0190  156.8724 LP  0  0  0  0  0  0  0  0  0  0  0  0  # atno 17394 bound_to 11000
  140.5907  134.0265  155.7498 LP  0  0  0  0  0  0  0  0  0  0  0  0  # atno 17395 bound_to 11000

$$$$
