AV-unprocessed.smi:2091|AV-procd|sdf|8540|dock8
  -GOLD-   2272011263D 1   1.00000     0.00000
 Structure written by MMmdl.
 35 36  0  0  0  0  0  0  0  0  2 V2000
  148.2501  134.9572  154.9508 O   0  0  0  0  0  0  0  0  0  0  0  0
  147.7295  136.0636  154.8008 C   0  0  0  0  0  0  0  0  0  0  0  0
  148.1625  137.2576  155.6621 C   0  0  0  0  0  0  0  0  0  0  0  0
  149.5829  137.6041  155.4932 N   0  0  0  0  0  0  0  0  0  0  0  0
  149.8895  138.8803  154.9888 C   0  0  0  0  0  0  0  0  0  0  0  0
  151.1607  139.2829  154.7993 C   0  0  0  0  0  0  0  0  0  0  0  0
  152.2355  138.3560  155.1325 C   0  0  0  0  0  0  0  0  0  0  0  0
  153.4019  138.7046  154.9602 O   0  0  0  0  0  0  0  0  0  0  0  0
  151.8871  137.1312  155.6250 N   0  5  0  0  0  0  0  0  0  0  0  0
  150.5896  136.7364  155.8149 C   0  0  0  0  0  0  0  0  0  0  0  0
  150.2971  135.6269  156.2630 O   0  0  0  0  0  0  0  0  0  0  0  0
  146.7472  136.3001  153.9166 N   0  0  0  0  0  0  0  0  0  0  0  0
  146.1636  135.3093  153.0096 C   0  0  2  0  0  0  0  0  0  0  0  0
  145.3790  136.0774  151.9211 C   0  0  0  0  0  0  0  0  0  0  0  0
  145.1668  135.2741  150.6258 C   0  0  0  0  0  0  0  0  0  0  0  0
  144.2866  134.0233  150.7728 C   0  0  0  0  0  0  0  0  0  0  0  0
  144.8682  132.9648  151.7256 C   0  0  0  0  0  0  0  0  0  0  0  0
  144.6702  133.3200  153.1246 N   0  0  0  0  0  0  0  0  0  0  0  0
  145.1936  134.3740  153.7691 C   0  0  0  0  0  0  0  0  0  0  0  0
  144.8988  134.5923  154.9444 O   0  0  0  0  0  0  0  0  0  0  0  0
  147.5371  138.1235  155.4363 H   0  0  0  0  0  0  0  0  0  0  0  0
  147.9505  137.0160  156.7042 H   0  0  0  0  0  0  0  0  0  0  0  0
  149.0365  139.5073  154.7740 H   0  0  0  0  0  0  0  0  0  0  0  0
  151.3794  140.2676  154.4135 H   0  0  0  0  0  0  0  0  0  0  0  0
  146.3704  137.2354  153.8706 H   0  0  0  0  0  0  0  0  0  0  0  0
  146.9669  134.7280  152.5534 H   0  0  0  0  0  0  0  0  0  0  0  0
  144.4217  136.4341  152.3061 H   0  0  0  0  0  0  0  0  0  0  0  0
  145.9359  136.9758  151.6501 H   0  0  0  0  0  0  0  0  0  0  0  0
  144.7126  135.9300  149.8823 H   0  0  0  0  0  0  0  0  0  0  0  0
  146.1361  134.9888  150.2149 H   0  0  0  0  0  0  0  0  0  0  0  0
  143.2816  134.3044  151.0909 H   0  0  0  0  0  0  0  0  0  0  0  0
  144.1726  133.5729  149.7862 H   0  0  0  0  0  0  0  0  0  0  0  0
  144.3578  132.0155  151.5609 H   0  0  0  0  0  0  0  0  0  0  0  0
  145.9245  132.7843  151.5206 H   0  0  0  0  0  0  0  0  0  0  0  0
  144.0489  132.7236  153.6517 H   0  0  0  0  0  0  0  0  0  0  0  0
  1  2  2  0  0  0  0
  2  3  1  0  0  0  0
  2 12  1  0  0  0  0
  3  4  1  0  0  0  0
  3 21  1  0  0  0  0
  3 22  1  0  0  0  0
  4 10  1  0  0  0  0
  4  5  1  0  0  0  0
  5  6  2  0  0  0  0
  5 23  1  0  0  0  0
  6  7  1  0  0  0  0
  6 24  1  0  0  0  0
  7  8  2  0  0  0  0
  7  9  1  0  0  0  0
  9 10  1  0  0  0  0
 10 11  2  0  0  0  0
 12 13  1  0  0  0  0
 12 25  1  0  0  0  0
 13 19  1  0  0  0  0
 13 14  1  0  0  0  0
 13 26  1  0  0  0  0
 14 15  1  0  0  0  0
 14 27  1  0  0  0  0
 14 28  1  0  0  0  0
 15 16  1  0  0  0  0
 15 29  1  0  0  0  0
 15 30  1  0  0  0  0
 16 17  1  0  0  0  0
 16 31  1  0  0  0  0
 16 32  1  0  0  0  0
 17 18  1  0  0  0  0
 17 33  1  0  0  0  0
 17 34  1  0  0  0  0
 18 19  1  0  0  0  0
 18 35  1  0  0  0  0
 19 20  2  0  0  0  0
M  CHG  1   9  -1
M  END
> <s_m_source_file>
AV-unprocessed.smi

> <i_m_source_file_index>
2091

> <i_lp_mmshare_version>
43012

> <i_f3d_flags>
0

> <s_epik_input>
Tz1jMVtuSF1jKD1PKVtjSF1bY0hdbjFbQ0gyXUMoPU8pW05IXVtDQEBIXTJbQ0gyXVtDSDJdW0NIMl1bQ0gyXVtOSF1DMj1P

> <s_epik_cmdline>
J2VwaWtfcHl0aG9uJywgJy1waCcsICc3LjAnLCAnLXRuJywgJzgnLCAnLW1hJywgJzIwMCcsICctbWV0YWxfYmluZGluZycsICctaW1hZScsICc8aW5maWxlLm1hZT4nLCAnLW9tYWUnLCAnPG91dGZpbGUubWFlPic=

> <r_lp_tautomer_probability>
0.999537

> <r_epik_Ionization_Penalty>
3.03155

> <r_epik_Ionization_Penalty_Charging>
2.38195e-08

> <r_epik_Ionization_Penalty_Neutral>
3.03155

> <r_epik_State_Penalty>
3.03052

> <r_epik_Charging_Adjusted_Penalty>
3.03052

> <i_epik_Tot_Q>
-1

> <i_epik_Tot_abs_Q>
1

> <r_epik_Metal_State_Penalty>
0.455936

> <b_epik_Metal_Only>
1

> <s_lp_Force_Field>
OPLS_2005

> <r_lp_Energy>
21.0708

> <b_lp_Chiralities_Consistent>
1

> <s_lp_Variant>
AV-unprocessed.smi:2091-3

> <Gold.Version>
5.8.1

> <Gold.Id.Protein>
6NUR|6NUR_protein|mol2

> <Gold.PLP.Fitness>
36.2754

> <Gold.PLP.PLP>
-24.8237

> <Gold.PLP.part.hbond>
-4.0000

> <Gold.PLP.part.metal>
0.0000

> <Gold.PLP.part.buried>
-2.7125

> <Gold.PLP.part.nonpolar>
-18.9161

> <Gold.PLP.part.repulsive>
0.2629

> <Gold.PLP.ligand.clash>
0.0000

> <Gold.PLP.ligand.torsion>
0.2135

> <Gold.PLP.Chemscore.Hbond>
3.9590

> <Gold.PLP.Chemscore.CHOScore>
0.0000

> <Gold.PLP.Chemscore.Metal>
0.0000

> <Gold.Chemscore.Hbonds>
donor molecule, donor type, donor heavy atom, donor atom, acceptor molecule, acceptor atom, score
      L1  H    18    35       P1 10957  1.00
      P1  H  7997  8010       L1     8  0.99
      P1  H 10752 10764       L1     9  1.66

> <Gold.PLP.Chemscore.Internal.Correction>
0.0018

> <Gold.Rescore>
     Score         DG    S(hbond)    S(metal)    S(lipo)     H(rot)  DE(clash)    DE(int)     intcor
     10.16     -13.21       2.36        0.00      39.28       1.85       0.08       2.98       ----

> <Gold.Chemscore.Fitness>
10.1579

> <Gold.Chemscore.DG>
-13.2137

> <Gold.Chemscore.ZeroCoef>
-5.4800

> <Gold.Chemscore.Hbond>
2.3590

> <Gold.Chemscore.Metal>
0.0000

> <Gold.Chemscore.Lipo>
39.2771

> <Gold.Chemscore.Internal_Hbond>
0.0000

> <Gold.Chemscore.DEClash>
0.0766

> <Gold.Chemscore.DEInternal>
2.9792

> <Gold.Chemscore.Rot>
1.8519

> <Gold.Chemscore.Internal.Correction>
   9.000000E+99

> <Gold.Chemscore.Hbonds>
donor molecule, donor type, donor heavy atom, donor atom, acceptor molecule, acceptor atom, score
      L1  H    18    35       P1 10957  0.62
      P1  H  7997  8010       L1     8  0.88
      P1  H 10752 10764       L1     9  0.48

> <Gold.Chemscore.Hbond.Weighted>
-7.8791

> <Gold.Chemscore.Metal.Weighted>
-0.0000

> <Gold.Chemscore.Lipo.Weighted>
-4.5954

> <Gold.Chemscore.Internal_Hbond.Weighted>
0.0000

> <Gold.Chemscore.DEClash.Weighted>
0.0766

> <Gold.Chemscore.DEInternal.Weighted>
2.9792

> <Gold.Chemscore.Rot.Weighted>
4.7408

> <Gold.Chemscore.Internal.Correction.Weighted>
   9.000000E+99

> <Gold.Protein.RotatedTorsions>
[ 6907 6896 6895 6894 ] final   11.56 input  -60.11 | X-H torsion
[ 7974 7965 7964 7962 ] final  -15.95 input  175.53 | X-H torsion
[ 8008 7997 7996 7995 ] final  104.07 input   59.86 | X-H torsion
[ 10167 10162 10161 10158 ] final   87.28 input  -65.29 | X-H torsion
[ 10718 10713 10712 10709 ] final  145.79 input   66.30 | X-H torsion
[ 10763 10752 10751 10750 ] final  -50.00 input  -60.55 | X-H torsion
[ 11005 11000 10999 10996 ] final  -66.67 input  -57.11 | X-H torsion

> <Gold.Protein.ActiveResidues>
 VAL166  LYS551  ARG553  GLY616  TRP617  ASP618  TYR619  PRO620  LYS621  CYS622 
 ASP623  PHE694  ASN695  SER759  ASP760  ASP761  ALA762  ILE779  LEU786  VAL792 
 PHE793  MET794  SER795  GLU796  ALA797  LYS798  CYS799  TRP800  GLU811  SER814 

> <Gold.Protein.RotatedAtoms>
  151.7563  135.0821  160.0338 H   0  0  0  0  0  0  0  0  0  0  0  0  # atno 6907 bound_to 6896
  152.3383  133.6033  159.5867 H   0  0  0  0  0  0  0  0  0  0  0  0  # atno 6908 bound_to 6896
  150.7464  133.9677  159.3577 H   0  0  0  0  0  0  0  0  0  0  0  0  # atno 6909 bound_to 6896
  146.2009  140.3566  142.8423 H   0  0  0  0  0  0  0  0  0  0  0  0  # atno 7974 bound_to 7965
  156.1541  140.3154  155.8696 H   0  0  0  0  0  0  0  0  0  0  0  0  # atno 8008 bound_to 7997
  155.3914  140.0494  157.3057 H   0  0  0  0  0  0  0  0  0  0  0  0  # atno 8009 bound_to 7997
  154.5085  140.2156  155.9215 H   0  0  0  0  0  0  0  0  0  0  0  0  # atno 8010 bound_to 7997
  139.8789  144.6451  150.8865 H   0  0  0  0  0  0  0  0  0  0  0  0  # atno 10167 bound_to 10162
  157.3410  131.0935  151.1083 H   0  0  0  0  0  0  0  0  0  0  0  0  # atno 10718 bound_to 10713
  154.1032  135.6560  153.4872 H   0  0  0  0  0  0  0  0  0  0  0  0  # atno 10763 bound_to 10752
  153.0281  135.5230  154.7265 H   0  0  0  0  0  0  0  0  0  0  0  0  # atno 10764 bound_to 10752
  154.6424  135.2990  155.0057 H   0  0  0  0  0  0  0  0  0  0  0  0  # atno 10765 bound_to 10752
  141.1488  133.6704  156.6175 H   0  0  0  0  0  0  0  0  0  0  0  0  # atno 11005 bound_to 11000
  144.8682  140.7236  143.6063 LP  0  0  0  0  0  0  0  0  0  0  0  0  # atno 17320 bound_to 7965
  145.3485  139.1712  143.4447 LP  0  0  0  0  0  0  0  0  0  0  0  0  # atno 17321 bound_to 7965
  140.7748  143.3602  151.1843 LP  0  0  0  0  0  0  0  0  0  0  0  0  # atno 17342 bound_to 10162
  139.7214  143.9217  152.2987 LP  0  0  0  0  0  0  0  0  0  0  0  0  # atno 17343 bound_to 10162
  157.2295  130.6518  149.5843 LP  0  0  0  0  0  0  0  0  0  0  0  0  # atno 17370 bound_to 10713
  155.9707  130.4603  150.6069 LP  0  0  0  0  0  0  0  0  0  0  0  0  # atno 17371 bound_to 10713
  140.3566  134.7723  157.4504 LP  0  0  0  0  0  0  0  0  0  0  0  0  # atno 17394 bound_to 11000
  140.0818  134.5720  155.8533 LP  0  0  0  0  0  0  0  0  0  0  0  0  # atno 17395 bound_to 11000

$$$$
