AV-unprocessed.smi:1309|AV-procd|sdf|5444|dock1
  -GOLD-   22720 5 13D 1   1.00000     0.00000
 Structure written by MMmdl.
 41 42  0  0  0  0  0  0  0  0  1 V2000
  146.4814  135.6127  153.7290 C   0  0  0  0  0  0  0  0  0  0  0  0
  145.5948  136.5981  152.9537 C   0  0  0  0  0  0  0  0  0  0  0  0
  145.2564  136.1157  151.5354 C   0  0  0  0  0  0  0  0  0  0  0  0
  146.1583  137.9844  152.9561 C   0  0  0  0  0  0  0  0  0  0  0  0
  146.4336  138.6707  154.0692 N   0  0  0  0  0  0  0  0  0  0  0  0
  146.9630  139.9387  153.8080 C   0  0  0  0  0  0  0  0  0  0  0  0
  147.3435  140.8411  154.9455 C   0  0  0  0  0  0  0  0  0  0  0  0
  148.8509  141.0999  154.9300 C   0  0  0  0  0  0  0  0  0  0  0  0
  149.4886  140.9676  153.8856 O   0  0  0  0  0  0  0  0  0  0  0  0
  149.4092  141.4672  156.0948 N   0  0  0  0  0  0  0  0  0  0  0  0
  150.8254  141.7683  156.2930 C   0  0  0  0  0  0  0  0  0  0  0  0
  151.3883  141.2399  157.6254 C   0  0  0  0  0  0  0  0  0  0  0  0
  151.3762  140.0306  157.8630 O   0  0  0  0  0  0  0  0  0  0  0  0
  151.8735  142.1367  158.5085 N   0  0  0  0  0  0  0  0  0  0  0  0
  152.4626  141.8217  159.8096 C   0  0  0  0  0  0  0  0  0  0  0  0
  153.0875  143.1259  160.3062 C   0  0  0  0  0  0  0  0  0  0  0  0
  152.2862  144.2135  159.6045 C   0  0  0  0  0  0  0  0  0  0  0  0
  151.8805  143.5792  158.2737 C   0  0  0  0  0  0  0  0  0  0  0  0
  147.0708  140.2118  152.4666 C   0  0  0  0  0  0  0  0  0  0  0  0
  146.5274  138.8790  151.4857 S   0  0  0  0  0  0  0  0  0  0  0  0
  146.6369  135.9481  154.7549 H   0  0  0  0  0  0  0  0  0  0  0  0
  147.4605  135.5076  153.2604 H   0  0  0  0  0  0  0  0  0  0  0  0
  146.0255  134.6230  153.7705 H   0  0  0  0  0  0  0  0  0  0  0  0
  144.6486  136.6508  153.4937 H   0  0  0  0  0  0  0  0  0  0  0  0
  144.5616  136.7977  151.0442 H   0  0  0  0  0  0  0  0  0  0  0  0
  144.7926  135.1292  151.5560 H   0  0  0  0  0  0  0  0  0  0  0  0
  146.1512  136.0481  150.9155 H   0  0  0  0  0  0  0  0  0  0  0  0
  146.8116  141.7914  154.8809 H   0  0  0  0  0  0  0  0  0  0  0  0
  147.0636  140.3971  155.9018 H   0  0  0  0  0  0  0  0  0  0  0  0
  148.8109  141.5428  156.9044 H   0  0  0  0  0  0  0  0  0  0  0  0
  151.4027  141.3687  155.4576 H   0  0  0  0  0  0  0  0  0  0  0  0
  150.9433  142.8516  156.2690 H   0  0  0  0  0  0  0  0  0  0  0  0
  151.6734  141.4956  160.4886 H   0  0  0  0  0  0  0  0  0  0  0  0
  153.2098  141.0293  159.7475 H   0  0  0  0  0  0  0  0  0  0  0  0
  153.0667  143.2179  161.3925 H   0  0  0  0  0  0  0  0  0  0  0  0
  154.1290  143.1774  159.9862 H   0  0  0  0  0  0  0  0  0  0  0  0
  151.3932  144.4415  160.1881 H   0  0  0  0  0  0  0  0  0  0  0  0
  152.8480  145.1393  159.4780 H   0  0  0  0  0  0  0  0  0  0  0  0
  152.6137  143.8102  157.4996 H   0  0  0  0  0  0  0  0  0  0  0  0
  150.9083  143.9456  157.9404 H   0  0  0  0  0  0  0  0  0  0  0  0
  147.4413  141.1111  151.9974 H   0  0  0  0  0  0  0  0  0  0  0  0
  1  2  1  0  0  0  0
  1 21  1  0  0  0  0
  1 22  1  0  0  0  0
  1 23  1  0  0  0  0
  2  3  1  0  0  0  0
  2  4  1  0  0  0  0
  2 24  1  0  0  0  0
  3 25  1  0  0  0  0
  3 26  1  0  0  0  0
  3 27  1  0  0  0  0
  4 20  1  0  0  0  0
  4  5  2  0  0  0  0
  5  6  1  0  0  0  0
  6  7  1  0  0  0  0
  6 19  2  0  0  0  0
  7  8  1  0  0  0  0
  7 28  1  0  0  0  0
  7 29  1  0  0  0  0
  8  9  2  0  0  0  0
  8 10  1  0  0  0  0
 10 11  1  0  0  0  0
 10 30  1  0  0  0  0
 11 12  1  0  0  0  0
 11 31  1  0  0  0  0
 11 32  1  0  0  0  0
 12 13  2  0  0  0  0
 12 14  1  0  0  0  0
 14 18  1  0  0  0  0
 14 15  1  0  0  0  0
 15 16  1  0  0  0  0
 15 33  1  0  0  0  0
 15 34  1  0  0  0  0
 16 17  1  0  0  0  0
 16 35  1  0  0  0  0
 16 36  1  0  0  0  0
 17 18  1  0  0  0  0
 17 37  1  0  0  0  0
 17 38  1  0  0  0  0
 18 39  1  0  0  0  0
 18 40  1  0  0  0  0
 19 20  1  0  0  0  0
 19 41  1  0  0  0  0
M  END
> <s_m_source_file>
AV-unprocessed.smi

> <i_m_source_file_index>
1309

> <i_lp_mmshare_version>
43012

> <i_f3d_flags>
0

> <s_epik_input>
W0NIM11bQ0hdKFtDSDNdKWMxbmMoW2NIXXMxKVtDSDJdQyg9TylbTkhdW0NIMl1DKD1PKU4yW0NIMl1bQ0gyXVtDSDJdW0NIMl0y

> <s_epik_cmdline>
J2VwaWtfcHl0aG9uJywgJy1waCcsICc3LjAnLCAnLXRuJywgJzgnLCAnLW1hJywgJzIwMCcsICctbWV0YWxfYmluZGluZycsICctaW1hZScsICc8aW5maWxlLm1hZT4nLCAnLW9tYWUnLCAnPG91dGZpbGUubWFlPic=

> <r_lp_tautomer_probability>
1

> <r_epik_Ionization_Penalty>
2.87584e-05

> <r_epik_Ionization_Penalty_Charging>
0

> <r_epik_Ionization_Penalty_Neutral>
2.87584e-05

> <r_epik_State_Penalty>
-0

> <r_epik_Charging_Adjusted_Penalty>
0

> <i_epik_Tot_Q>
0

> <i_epik_Tot_abs_Q>
0

> <r_epik_Metal_State_Penalty>
-0

> <b_epik_Metal_Only>
0

> <s_lp_Force_Field>
OPLS_2005

> <r_lp_Energy>
16.8696

> <b_lp_Chiralities_Consistent>
1

> <s_lp_Variant>
AV-unprocessed.smi:1309-1

> <Gold.Version>
5.8.1

> <Gold.Id.Protein>
6NUR|6NUR_protein|mol2

> <Gold.PLP.Fitness>
43.6412

> <Gold.PLP.PLP>
-39.7489

> <Gold.PLP.part.hbond>
-3.0000

> <Gold.PLP.part.metal>
0.0000

> <Gold.PLP.part.buried>
-1.0030

> <Gold.PLP.part.nonpolar>
-38.5025

> <Gold.PLP.part.repulsive>
2.3248

> <Gold.PLP.ligand.clash>
0.0000

> <Gold.PLP.ligand.torsion>
0.5273

> <Gold.PLP.Chemscore.Hbond>
1.2357

> <Gold.PLP.Chemscore.CHOScore>
0.3779

> <Gold.PLP.Chemscore.Metal>
0.0000

> <Gold.Chemscore.Hbonds>
donor molecule, donor type, donor heavy atom, donor atom, acceptor molecule, acceptor atom, score
      P1  H  7989  7998       L1     9  0.28
      P1  H  8011  8017       L1     9  0.67
      L1  C    19    41       P1  7957  0.31

> <Gold.PLP.Chemscore.Internal.Correction>
0.1060

> <Gold.Rescore>
     Score         DG    S(hbond)    S(metal)    S(lipo)     H(rot)  DE(clash)    DE(int)     intcor
     13.13     -17.25       1.18        0.00     103.98       1.70       2.54       1.58       ----

> <Gold.Chemscore.Fitness>
13.1274

> <Gold.Chemscore.DG>
-17.2476

> <Gold.Chemscore.ZeroCoef>
-5.4800

> <Gold.Chemscore.Hbond>
1.1830

> <Gold.Chemscore.Metal>
0.0000

> <Gold.Chemscore.Lipo>
103.9835

> <Gold.Chemscore.Internal_Hbond>
0.0000

> <Gold.Chemscore.DEClash>
2.5389

> <Gold.Chemscore.DEInternal>
1.5813

> <Gold.Chemscore.Rot>
1.6991

> <Gold.Chemscore.Internal.Correction>
   9.000000E+99

> <Gold.Chemscore.Hbonds>
donor molecule, donor type, donor heavy atom, donor atom, acceptor molecule, acceptor atom, score
      P1  H  7989  7998       L1     9  0.28
      P1  H  8011  8017       L1     9  0.64

> <Gold.Chemscore.Hbond.Weighted>
-3.9512

> <Gold.Chemscore.Metal.Weighted>
-0.0000

> <Gold.Chemscore.Lipo.Weighted>
-12.1661

> <Gold.Chemscore.Internal_Hbond.Weighted>
0.0000

> <Gold.Chemscore.DEClash.Weighted>
2.5389

> <Gold.Chemscore.DEInternal.Weighted>
1.5813

> <Gold.Chemscore.Rot.Weighted>
4.3497

> <Gold.Chemscore.Internal.Correction.Weighted>
   9.000000E+99

> <Gold.Protein.RotatedTorsions>
[ 6907 6896 6895 6894 ] final  111.56 input  -60.11 | X-H torsion
[ 7974 7965 7964 7962 ] final -166.16 input  175.53 | X-H torsion
[ 8008 7997 7996 7995 ] final  -74.31 input   59.86 | X-H torsion
[ 10167 10162 10161 10158 ] final  -25.69 input  -65.29 | X-H torsion
[ 10718 10713 10712 10709 ] final  -64.48 input   66.30 | X-H torsion
[ 10763 10752 10751 10750 ] final -130.08 input  -60.55 | X-H torsion
[ 11005 11000 10999 10996 ] final   76.66 input  -57.11 | X-H torsion

> <Gold.Protein.ActiveResidues>
 VAL166  LYS551  ARG553  GLY616  TRP617  ASP618  TYR619  PRO620  LYS621  CYS622 
 ASP623  PHE694  ASN695  SER759  ASP760  ASP761  ALA762  ILE779  LEU786  VAL792 
 PHE793  MET794  SER795  GLU796  ALA797  LYS798  CYS799  TRP800  GLU811  SER814 

> <Gold.Protein.RotatedAtoms>
  152.4963  133.8640  159.7264 H   0  0  0  0  0  0  0  0  0  0  0  0  # atno 6907 bound_to 6896
  150.9144  133.6949  159.2853 H   0  0  0  0  0  0  0  0  0  0  0  0  # atno 6908 bound_to 6896
  151.4347  135.1018  159.9705 H   0  0  0  0  0  0  0  0  0  0  0  0  # atno 6909 bound_to 6896
  144.7252  140.2707  143.6251 H   0  0  0  0  0  0  0  0  0  0  0  0  # atno 7974 bound_to 7965
  154.5320  140.0763  156.8361 H   0  0  0  0  0  0  0  0  0  0  0  0  # atno 8008 bound_to 7997
  155.3356  140.3404  155.4221 H   0  0  0  0  0  0  0  0  0  0  0  0  # atno 8009 bound_to 7997
  156.1790  140.1646  156.8295 H   0  0  0  0  0  0  0  0  0  0  0  0  # atno 8010 bound_to 7997
  140.7285  143.4243  151.0902 H   0  0  0  0  0  0  0  0  0  0  0  0  # atno 10167 bound_to 10162
  156.0726  130.4234  150.1426 H   0  0  0  0  0  0  0  0  0  0  0  0  # atno 10718 bound_to 10713
  154.8756  135.3874  154.4025 H   0  0  0  0  0  0  0  0  0  0  0  0  # atno 10763 bound_to 10752
  153.4748  135.7030  153.5978 H   0  0  0  0  0  0  0  0  0  0  0  0  # atno 10764 bound_to 10752
  153.4419  135.3854  155.2201 H   0  0  0  0  0  0  0  0  0  0  0  0  # atno 10765 bound_to 10752
  139.9288  134.7619  156.1424 H   0  0  0  0  0  0  0  0  0  0  0  0  # atno 11005 bound_to 11000
  145.8046  139.1978  143.2028 LP  0  0  0  0  0  0  0  0  0  0  0  0  # atno 17320 bound_to 7965
  146.0648  140.7932  142.9717 LP  0  0  0  0  0  0  0  0  0  0  0  0  # atno 17321 bound_to 7965
  139.7892  143.8243  152.3149 LP  0  0  0  0  0  0  0  0  0  0  0  0  # atno 17342 bound_to 10162
  139.8221  144.7291  150.9559 LP  0  0  0  0  0  0  0  0  0  0  0  0  # atno 17343 bound_to 10162
  156.9474  130.9764  151.3505 LP  0  0  0  0  0  0  0  0  0  0  0  0  # atno 17370 bound_to 10713
  157.5806  130.8373  149.8517 LP  0  0  0  0  0  0  0  0  0  0  0  0  # atno 17371 bound_to 10713
  141.0864  133.6732  156.2445 LP  0  0  0  0  0  0  0  0  0  0  0  0  # atno 17394 bound_to 11000
  140.6260  134.5313  157.5553 LP  0  0  0  0  0  0  0  0  0  0  0  0  # atno 17395 bound_to 11000

$$$$
