AV-unprocessed.smi:1740|AV-procd|sdf|7007|dock6
  -GOLD-   22720 8223D 1   1.00000     0.00000
 Structure written by MMmdl.
 52 54  0  0  0  0  0  0  0  0  2 V2000
  142.3408  132.7003  150.5620 N   0  0  0  0  0  0  0  0  0  0  0  0
  143.5766  132.3821  150.1707 C   0  0  0  0  0  0  0  0  0  0  0  0
  143.8324  132.0453  149.0160 O   0  0  0  0  0  0  0  0  0  0  0  0
  144.6830  132.4745  151.2265 C   0  0  0  0  0  0  0  0  0  0  0  0
  144.8715  133.8537  151.7448 N   0  3  2  0  0  0  0  0  0  0  0  0
  143.8109  134.2683  152.7015 C   0  0  0  0  0  0  0  0  0  0  0  0
  144.1312  135.6380  153.3217 C   0  0  0  0  0  0  0  0  0  0  0  0
  144.3246  136.7090  152.2362 C   0  0  1  0  0  0  0  0  0  0  0  0
  144.7180  137.9706  152.8550 N   0  0  0  0  0  0  0  0  0  0  0  0
  145.8001  138.1507  153.6253 C   0  0  0  0  0  0  0  0  0  0  0  0
  146.5953  137.2525  153.9009 O   0  0  0  0  0  0  0  0  0  0  0  0
  145.8959  139.4280  154.0295 N   0  0  0  0  0  0  0  0  0  0  0  0
  146.9198  140.0390  154.8078 C   0  0  0  0  0  0  0  0  0  0  0  0
  148.0399  139.3091  155.2765 C   0  0  0  0  0  0  0  0  0  0  0  0
  148.9837  139.9473  156.0996 C   0  0  0  0  0  0  0  0  0  0  0  0
  148.7669  141.2926  156.4404 C   0  0  0  0  0  0  0  0  0  0  0  0
  147.7004  141.9978  156.0137 N   0  0  0  0  0  0  0  0  0  0  0  0
  146.7891  141.4001  155.2073 C   0  0  0  0  0  0  0  0  0  0  0  0
  145.7006  142.1915  154.7745 N   0  0  0  0  0  0  0  0  0  0  0  0
  145.9055  143.0477  153.6096 C   0  0  0  0  0  0  0  0  0  0  0  0
  145.1189  144.3359  153.8741 C   0  0  0  0  0  0  0  0  0  0  0  0
  144.0928  143.9236  154.9249 C   0  0  0  0  0  0  0  0  0  0  0  0
  144.8616  142.8899  155.7426 C   0  0  0  0  0  0  0  0  0  0  0  0
  145.3897  136.2372  151.2289 C   0  0  0  0  0  0  0  0  0  0  0  0
  145.0446  134.8514  150.6585 C   0  0  0  0  0  0  0  0  0  0  0  0
  141.5800  132.6564  149.8988 H   0  0  0  0  0  0  0  0  0  0  0  0
  142.1652  132.9862  151.5146 H   0  0  0  0  0  0  0  0  0  0  0  0
  144.3895  131.8126  152.0422 H   0  0  0  0  0  0  0  0  0  0  0  0
  145.6256  132.0895  150.8333 H   0  0  0  0  0  0  0  0  0  0  0  0
  142.8488  134.3048  152.1877 H   0  0  0  0  0  0  0  0  0  0  0  0
  143.7133  133.5312  153.4990 H   0  0  0  0  0  0  0  0  0  0  0  0
  143.3286  135.9321  153.9992 H   0  0  0  0  0  0  0  0  0  0  0  0
  145.0340  135.5558  153.9291 H   0  0  0  0  0  0  0  0  0  0  0  0
  143.3745  136.8459  151.7155 H   0  0  0  0  0  0  0  0  0  0  0  0
  144.1255  138.7690  152.6790 H   0  0  0  0  0  0  0  0  0  0  0  0
  145.2103  140.0650  153.6511 H   0  0  0  0  0  0  0  0  0  0  0  0
  148.1804  138.2658  155.0400 H   0  0  0  0  0  0  0  0  0  0  0  0
  149.8459  139.4139  156.4712 H   0  0  0  0  0  0  0  0  0  0  0  0
  149.4648  141.8156  157.0774 H   0  0  0  0  0  0  0  0  0  0  0  0
  146.9617  143.2555  153.4320 H   0  0  0  0  0  0  0  0  0  0  0  0
  145.5070  142.5438  152.7289 H   0  0  0  0  0  0  0  0  0  0  0  0
  145.7848  145.0928  154.2911 H   0  0  0  0  0  0  0  0  0  0  0  0
  144.6651  144.7477  152.9724 H   0  0  0  0  0  0  0  0  0  0  0  0
  143.7344  144.7600  155.5255 H   0  0  0  0  0  0  0  0  0  0  0  0
  143.2328  143.4561  154.4433 H   0  0  0  0  0  0  0  0  0  0  0  0
  144.1919  142.2008  156.2580 H   0  0  0  0  0  0  0  0  0  0  0  0
  145.4708  143.4002  156.4896 H   0  0  0  0  0  0  0  0  0  0  0  0
  145.4829  136.9553  150.4131 H   0  0  0  0  0  0  0  0  0  0  0  0
  146.3658  136.1948  151.7150 H   0  0  0  0  0  0  0  0  0  0  0  0
  145.8443  134.5327  149.9888 H   0  0  0  0  0  0  0  0  0  0  0  0
  144.1325  134.9047  150.0618 H   0  0  0  0  0  0  0  0  0  0  0  0
  145.7417  133.8397  152.2581 H   0  0  0  0  0  0  0  0  0  0  0  0
  1  2  1  0  0  0  0
  1 26  1  0  0  0  0
  1 27  1  0  0  0  0
  2  3  2  0  0  0  0
  2  4  1  0  0  0  0
  4  5  1  0  0  0  0
  4 28  1  0  0  0  0
  4 29  1  0  0  0  0
  5 25  1  0  0  0  0
  5  6  1  0  0  0  0
  5 52  1  0  0  0  0
  6  7  1  0  0  0  0
  6 30  1  0  0  0  0
  6 31  1  0  0  0  0
  7  8  1  0  0  0  0
  7 32  1  0  0  0  0
  7 33  1  0  0  0  0
  8  9  1  0  0  0  0
  8 24  1  0  0  0  0
  8 34  1  0  0  0  0
  9 10  1  0  0  0  0
  9 35  1  0  0  0  0
 10 11  2  0  0  0  0
 10 12  1  0  0  0  0
 12 13  1  0  0  0  0
 12 36  1  0  0  0  0
 13 18  1  0  0  0  0
 13 14  2  0  0  0  0
 14 15  1  0  0  0  0
 14 37  1  0  0  0  0
 15 16  2  0  0  0  0
 15 38  1  0  0  0  0
 16 17  1  0  0  0  0
 16 39  1  0  0  0  0
 17 18  2  0  0  0  0
 18 19  1  0  0  0  0
 19 23  1  0  0  0  0
 19 20  1  0  0  0  0
 20 21  1  0  0  0  0
 20 40  1  0  0  0  0
 20 41  1  0  0  0  0
 21 22  1  0  0  0  0
 21 42  1  0  0  0  0
 21 43  1  0  0  0  0
 22 23  1  0  0  0  0
 22 44  1  0  0  0  0
 22 45  1  0  0  0  0
 23 46  1  0  0  0  0
 23 47  1  0  0  0  0
 24 25  1  0  0  0  0
 24 48  1  0  0  0  0
 24 49  1  0  0  0  0
 25 50  1  0  0  0  0
 25 51  1  0  0  0  0
M  CHG  1   5   1
M  END
> <s_m_source_file>
AV-unprocessed.smi

> <i_m_source_file_index>
1740

> <i_lp_mmshare_version>
43012

> <i_f3d_flags>
0

> <s_epik_input>
W05IMl1DKD1PKVtDSDJdTjFbQ0gyXVtDSDJdW0NIXShbQ0gyXVtDSDJdMSlbTkhdQyg9TylbTkhdYzJbY0hdW2NIXVtjSF1uYzJOM1tDSDJdW0NIMl1bQ0gyXVtDSDJdMw==

> <s_epik_cmdline>
J2VwaWtfcHl0aG9uJywgJy1waCcsICc3LjAnLCAnLXRuJywgJzgnLCAnLW1hJywgJzIwMCcsICctbWV0YWxfYmluZGluZycsICctaW1hZScsICc8aW5maWxlLm1hZT4nLCAnLW9tYWUnLCAnPG91dGZpbGUubWFlPic=

> <r_lp_tautomer_probability>
1

> <r_epik_Ionization_Penalty>
0.91661

> <r_epik_Ionization_Penalty_Charging>
0.838844

> <r_epik_Ionization_Penalty_Neutral>
0.0777664

> <r_epik_State_Penalty>
0.927046

> <r_epik_Charging_Adjusted_Penalty>
1.76589

> <i_epik_Tot_Q>
1

> <i_epik_Tot_abs_Q>
1

> <r_epik_Metal_State_Penalty>
0.950555

> <b_epik_Metal_Only>
0

> <s_lp_Force_Field>
OPLS_2005

> <r_lp_Energy>
39.0638

> <b_lp_Chiralities_Consistent>
1

> <s_lp_Variant>
AV-unprocessed.smi:1740-2

> <Gold.Version>
5.8.1

> <Gold.Id.Protein>
6NUR|6NUR_protein|mol2

> <Gold.PLP.Fitness>
43.2275

> <Gold.PLP.PLP>
-34.9928

> <Gold.PLP.part.hbond>
-4.9341

> <Gold.PLP.part.metal>
0.0000

> <Gold.PLP.part.buried>
-7.5170

> <Gold.PLP.part.nonpolar>
-24.5761

> <Gold.PLP.part.repulsive>
1.7530

> <Gold.PLP.ligand.clash>
0.0000

> <Gold.PLP.ligand.torsion>
0.4633

> <Gold.PLP.Chemscore.Hbond>
2.9440

> <Gold.PLP.Chemscore.CHOScore>
0.0000

> <Gold.PLP.Chemscore.Metal>
0.0000

> <Gold.Chemscore.Hbonds>
donor molecule, donor type, donor heavy atom, donor atom, acceptor molecule, acceptor atom, score
      L1  H     1    26       P1 10186  0.19
      L1  H     9    35       P1 10175  1.00
      L1  H    12    36       P1 10175  1.00
      P1  H 10785 10796       L1     3  0.74

> <Gold.PLP.Chemscore.Internal.Correction>
0.3294

> <Gold.Rescore>
     Score         DG    S(hbond)    S(metal)    S(lipo)     H(rot)  DE(clash)    DE(int)     intcor
     13.15     -18.16       3.07        0.00      68.81       2.19       1.22       3.79       ----

> <Gold.Chemscore.Fitness>
13.1547

> <Gold.Chemscore.DG>
-18.1628

> <Gold.Chemscore.ZeroCoef>
-5.4800

> <Gold.Chemscore.Hbond>
3.0683

> <Gold.Chemscore.Metal>
0.0000

> <Gold.Chemscore.Lipo>
68.8110

> <Gold.Chemscore.Internal_Hbond>
0.0000

> <Gold.Chemscore.DEClash>
1.2160

> <Gold.Chemscore.DEInternal>
3.7921

> <Gold.Chemscore.Rot>
2.1939

> <Gold.Chemscore.Internal.Correction>
   9.000000E+99

> <Gold.Chemscore.Hbonds>
donor molecule, donor type, donor heavy atom, donor atom, acceptor molecule, acceptor atom, score
      L1  H     1    26       P1 10186  0.19
      L1  H     9    35       P1 10175  1.00
      L1  H    12    36       P1 10175  0.95
      P1  H 10785 10796       L1     3  0.49

> <Gold.Chemscore.Hbond.Weighted>
-10.2482

> <Gold.Chemscore.Metal.Weighted>
-0.0000

> <Gold.Chemscore.Lipo.Weighted>
-8.0509

> <Gold.Chemscore.Internal_Hbond.Weighted>
0.0000

> <Gold.Chemscore.DEClash.Weighted>
1.2160

> <Gold.Chemscore.DEInternal.Weighted>
3.7921

> <Gold.Chemscore.Rot.Weighted>
5.6163

> <Gold.Chemscore.Internal.Correction.Weighted>
   9.000000E+99

> <Gold.Protein.RotatedTorsions>
[ 6907 6896 6895 6894 ] final   23.07 input  -60.11 | X-H torsion
[ 7974 7965 7964 7962 ] final   21.76 input  175.53 | X-H torsion
[ 8008 7997 7996 7995 ] final  -82.73 input   59.86 | X-H torsion
[ 10167 10162 10161 10158 ] final  120.81 input  -65.29 | X-H torsion
[ 10718 10713 10712 10709 ] final   75.48 input   66.30 | X-H torsion
[ 10763 10752 10751 10750 ] final -151.60 input  -60.55 | X-H torsion
[ 11005 11000 10999 10996 ] final   74.86 input  -57.11 | X-H torsion

> <Gold.Protein.ActiveResidues>
 VAL166  LYS551  ARG553  GLY616  TRP617  ASP618  TYR619  PRO620  LYS621  CYS622 
 ASP623  PHE694  ASN695  SER759  ASP760  ASP761  ALA762  ILE779  LEU786  VAL792 
 PHE793  MET794  SER795  GLU796  ALA797  LYS798  CYS799  TRP800  GLU811  SER814 

> <Gold.Protein.RotatedAtoms>
  151.9367  135.0232  160.0532 H   0  0  0  0  0  0  0  0  0  0  0  0  # atno 6907 bound_to 6896
  152.2072  133.4879  159.5098 H   0  0  0  0  0  0  0  0  0  0  0  0  # atno 6908 bound_to 6896
  150.6967  134.1431  159.4155 H   0  0  0  0  0  0  0  0  0  0  0  0  # atno 6909 bound_to 6896
  146.2057  139.7981  142.8727 H   0  0  0  0  0  0  0  0  0  0  0  0  # atno 7974 bound_to 7965
  154.6117  140.0629  156.9502 H   0  0  0  0  0  0  0  0  0  0  0  0  # atno 8008 bound_to 7997
  155.1962  140.3311  155.4332 H   0  0  0  0  0  0  0  0  0  0  0  0  # atno 8009 bound_to 7997
  156.2380  140.1872  156.7049 H   0  0  0  0  0  0  0  0  0  0  0  0  # atno 8010 bound_to 7997
  139.5959  144.7041  151.3178 H   0  0  0  0  0  0  0  0  0  0  0  0  # atno 10167 bound_to 10162
  157.6636  130.9728  150.1359 H   0  0  0  0  0  0  0  0  0  0  0  0  # atno 10718 bound_to 10713
  154.8047  135.3256  154.7461 H   0  0  0  0  0  0  0  0  0  0  0  0  # atno 10763 bound_to 10752
  153.8122  135.6894  153.4843 H   0  0  0  0  0  0  0  0  0  0  0  0  # atno 10764 bound_to 10752
  153.1785  135.4595  154.9941 H   0  0  0  0  0  0  0  0  0  0  0  0  # atno 10765 bound_to 10752
  139.9371  134.7469  156.1200 H   0  0  0  0  0  0  0  0  0  0  0  0  # atno 11005 bound_to 11000
  145.3326  141.0270  143.3438 LP  0  0  0  0  0  0  0  0  0  0  0  0  # atno 17320 bound_to 7965
  144.8788  139.4933  143.6733 LP  0  0  0  0  0  0  0  0  0  0  0  0  # atno 17321 bound_to 7965
  140.7211  143.7133  150.7753 LP  0  0  0  0  0  0  0  0  0  0  0  0  # atno 17342 bound_to 10162
  140.0699  143.5072  152.2585 LP  0  0  0  0  0  0  0  0  0  0  0  0  # atno 17343 bound_to 10162
  156.2194  130.3673  149.8574 LP  0  0  0  0  0  0  0  0  0  0  0  0  # atno 17370 bound_to 10713
  156.6431  130.8713  151.3517 LP  0  0  0  0  0  0  0  0  0  0  0  0  # atno 17371 bound_to 10713
  141.0989  133.6685  156.2708 LP  0  0  0  0  0  0  0  0  0  0  0  0  # atno 17394 bound_to 11000
  140.6048  134.5518  157.5524 LP  0  0  0  0  0  0  0  0  0  0  0  0  # atno 17395 bound_to 11000

$$$$
