AV-unprocessed.smi:1093|AV-procd|sdf|4743|dock8
  -GOLD-   22720 3273D 1   1.00000     0.00000
 Structure written by MMmdl.
 47 48  0  0  0  0  0  0  0  0  2 V2000
  145.5170  135.9315  151.2847 C   0  0  0  0  0  0  0  0  0  0  0  0
  146.1691  134.5481  151.4220 C   0  0  0  0  0  0  0  0  0  0  0  0
  147.1581  134.4981  152.5274 N   0  3  2  0  0  0  0  0  0  0  0  0
  147.9565  133.2445  152.5200 C   0  0  0  0  0  0  0  0  0  0  0  0
  149.0735  133.2888  153.5778 C   0  0  0  0  0  0  0  0  0  0  0  0
  148.5127  133.5999  154.9764 C   0  0  0  0  0  0  0  0  0  0  0  0
  147.6479  134.8730  154.9524 C   0  0  1  0  0  0  0  0  0  0  0  0
  148.4958  136.0458  154.7328 N   0  0  0  0  0  0  0  0  0  0  0  0
  148.8472  136.9376  155.6701 C   0  0  0  0  0  0  0  0  0  0  0  0
  148.4917  136.8593  156.8453 O   0  0  0  0  0  0  0  0  0  0  0  0
  149.6333  137.8984  155.1555 N   0  0  0  0  0  0  0  0  0  0  0  0
  150.1486  139.0599  155.7923 C   0  0  0  0  0  0  0  0  0  0  0  0
  150.3443  140.3051  155.1516 C   0  0  0  0  0  0  0  0  0  0  0  0
  150.8877  141.3753  155.8878 C   0  0  0  0  0  0  0  0  0  0  0  0
  151.2315  141.1803  157.2486 C   0  0  0  0  0  0  0  0  0  0  0  0
  151.7818  142.2237  158.0277 N   0  0  0  0  0  0  0  0  0  0  0  0
  151.6382  143.6094  157.5920 C   0  0  0  0  0  0  0  0  0  0  0  0
  152.4841  141.9209  159.2685 C   0  0  0  0  0  0  0  0  0  0  0  0
  151.0500  139.9809  157.8534 N   0  0  0  0  0  0  0  0  0  0  0  0
  150.5294  138.9580  157.1445 C   0  0  0  0  0  0  0  0  0  0  0  0
  146.5571  134.7397  153.8659 C   0  0  0  0  0  0  0  0  0  0  0  0
  144.8666  135.9628  150.4103 H   0  0  0  0  0  0  0  0  0  0  0  0
  146.2692  136.7115  151.1633 H   0  0  0  0  0  0  0  0  0  0  0  0
  144.9056  136.1867  152.1496 H   0  0  0  0  0  0  0  0  0  0  0  0
  145.4121  133.7746  151.5588 H   0  0  0  0  0  0  0  0  0  0  0  0
  146.6713  134.3251  150.4798 H   0  0  0  0  0  0  0  0  0  0  0  0
  147.2988  132.3928  152.7013 H   0  0  0  0  0  0  0  0  0  0  0  0
  148.4037  133.0956  151.5364 H   0  0  0  0  0  0  0  0  0  0  0  0
  149.6055  132.3372  153.5953 H   0  0  0  0  0  0  0  0  0  0  0  0
  149.8094  134.0436  153.2985 H   0  0  0  0  0  0  0  0  0  0  0  0
  147.9066  132.7585  155.3152 H   0  0  0  0  0  0  0  0  0  0  0  0
  149.3252  133.7005  155.6970 H   0  0  0  0  0  0  0  0  0  0  0  0
  147.1683  134.9814  155.9269 H   0  0  0  0  0  0  0  0  0  0  0  0
  148.8502  136.1808  153.7970 H   0  0  0  0  0  0  0  0  0  0  0  0
  149.9184  137.7735  154.1951 H   0  0  0  0  0  0  0  0  0  0  0  0
  150.1061  140.4610  154.1114 H   0  0  0  0  0  0  0  0  0  0  0  0
  151.0341  142.3223  155.3907 H   0  0  0  0  0  0  0  0  0  0  0  0
  150.5845  143.8779  157.5099 H   0  0  0  0  0  0  0  0  0  0  0  0
  152.1103  143.7560  156.6201 H   0  0  0  0  0  0  0  0  0  0  0  0
  152.1034  144.2992  158.2962 H   0  0  0  0  0  0  0  0  0  0  0  0
  151.8189  141.4211  159.9733 H   0  0  0  0  0  0  0  0  0  0  0  0
  152.8543  142.8277  159.7469 H   0  0  0  0  0  0  0  0  0  0  0  0
  153.3407  141.2741  159.0764 H   0  0  0  0  0  0  0  0  0  0  0  0
  150.4131  138.0262  157.6784 H   0  0  0  0  0  0  0  0  0  0  0  0
  145.9401  135.6370  153.8516 H   0  0  0  0  0  0  0  0  0  0  0  0
  145.8849  133.9163  154.1133 H   0  0  0  0  0  0  0  0  0  0  0  0
  147.8106  135.2502  152.3583 H   0  0  0  0  0  0  0  0  0  0  0  0
  1  2  1  0  0  0  0
  1 22  1  0  0  0  0
  1 23  1  0  0  0  0
  1 24  1  0  0  0  0
  2  3  1  0  0  0  0
  2 25  1  0  0  0  0
  2 26  1  0  0  0  0
  3 21  1  0  0  0  0
  3  4  1  0  0  0  0
  3 47  1  0  0  0  0
  4  5  1  0  0  0  0
  4 27  1  0  0  0  0
  4 28  1  0  0  0  0
  5  6  1  0  0  0  0
  5 29  1  0  0  0  0
  5 30  1  0  0  0  0
  6  7  1  0  0  0  0
  6 31  1  0  0  0  0
  6 32  1  0  0  0  0
  7  8  1  0  0  0  0
  7 21  1  0  0  0  0
  7 33  1  0  0  0  0
  8  9  1  0  0  0  0
  8 34  1  0  0  0  0
  9 10  2  0  0  0  0
  9 11  1  0  0  0  0
 11 12  1  0  0  0  0
 11 35  1  0  0  0  0
 12 20  1  0  0  0  0
 12 13  2  0  0  0  0
 13 14  1  0  0  0  0
 13 36  1  0  0  0  0
 14 15  2  0  0  0  0
 14 37  1  0  0  0  0
 15 16  1  0  0  0  0
 15 19  1  0  0  0  0
 16 17  1  0  0  0  0
 16 18  1  0  0  0  0
 17 38  1  0  0  0  0
 17 39  1  0  0  0  0
 17 40  1  0  0  0  0
 18 41  1  0  0  0  0
 18 42  1  0  0  0  0
 18 43  1  0  0  0  0
 19 20  2  0  0  0  0
 20 44  1  0  0  0  0
 21 45  1  0  0  0  0
 21 46  1  0  0  0  0
M  CHG  1   3   1
M  END
> <s_m_source_file>
AV-unprocessed.smi

> <i_m_source_file_index>
1093

> <i_lp_mmshare_version>
43012

> <i_f3d_flags>
0

> <s_epik_input>
W0NIM11bQ0gyXU4xW0NIMl1bQ0gyXVtDSDJdW0NASF0oW0NIMl0xKVtOSF1DKD1PKVtOSF1jMltjSF1bY0hdYyhOKFtDSDNdKVtDSDNdKW5bY0hdMg==

> <s_epik_cmdline>
J2VwaWtfcHl0aG9uJywgJy1waCcsICc3LjAnLCAnLXRuJywgJzgnLCAnLW1hJywgJzIwMCcsICctbWV0YWxfYmluZGluZycsICctaW1hZScsICc8aW5maWxlLm1hZT4nLCAnLW9tYWUnLCAnPG91dGZpbGUubWFlPic=

> <r_lp_tautomer_probability>
1

> <r_epik_Ionization_Penalty>
0.489418

> <r_epik_Ionization_Penalty_Charging>
0.00268196

> <r_epik_Ionization_Penalty_Neutral>
0.486736

> <r_epik_State_Penalty>
0.491157

> <r_epik_Charging_Adjusted_Penalty>
0.493839

> <i_epik_Tot_Q>
1

> <i_epik_Tot_abs_Q>
1

> <r_epik_Metal_State_Penalty>
0.266953

> <b_epik_Metal_Only>
0

> <s_lp_Force_Field>
OPLS_2005

> <r_lp_Energy>
27.714

> <b_lp_Chiralities_Consistent>
1

> <s_lp_Variant>
AV-unprocessed.smi:1093-6

> <Gold.Version>
5.8.1

> <Gold.Id.Protein>
6NUR|6NUR_protein|mol2

> <Gold.PLP.Fitness>
40.2067

> <Gold.PLP.PLP>
-32.3828

> <Gold.PLP.part.hbond>
-2.0000

> <Gold.PLP.part.metal>
0.0000

> <Gold.PLP.part.buried>
-1.9295

> <Gold.PLP.part.nonpolar>
-26.8061

> <Gold.PLP.part.repulsive>
0.0102

> <Gold.PLP.ligand.clash>
0.0000

> <Gold.PLP.ligand.torsion>
0.5981

> <Gold.PLP.Chemscore.Hbond>
3.0000

> <Gold.PLP.Chemscore.CHOScore>
0.0000

> <Gold.PLP.Chemscore.Metal>
0.0000

> <Gold.Chemscore.Hbonds>
donor molecule, donor type, donor heavy atom, donor atom, acceptor molecule, acceptor atom, score
      L1  H     3    47       P1  7948  2.00
      L1  H     8    34       P1  7948  1.00

> <Gold.PLP.Chemscore.Internal.Correction>
0.0200

> <Gold.Rescore>
     Score         DG    S(hbond)    S(metal)    S(lipo)     H(rot)  DE(clash)    DE(int)     intcor
     16.54     -18.20       1.98        0.00      78.15       1.18       0.03       1.64       ----

> <Gold.Chemscore.Fitness>
16.5395

> <Gold.Chemscore.DG>
-18.2033

> <Gold.Chemscore.ZeroCoef>
-5.4800

> <Gold.Chemscore.Hbond>
1.9795

> <Gold.Chemscore.Metal>
0.0000

> <Gold.Chemscore.Lipo>
78.1498

> <Gold.Chemscore.Internal_Hbond>
0.0000

> <Gold.Chemscore.DEClash>
0.0272

> <Gold.Chemscore.DEInternal>
1.6366

> <Gold.Chemscore.Rot>
1.1842

> <Gold.Chemscore.Internal.Correction>
   9.000000E+99

> <Gold.Chemscore.Hbonds>
donor molecule, donor type, donor heavy atom, donor atom, acceptor molecule, acceptor atom, score
      L1  H     3    47       P1  7948  0.94
      L1  H     8    34       P1  7948  0.99

> <Gold.Chemscore.Hbond.Weighted>
-6.6115

> <Gold.Chemscore.Metal.Weighted>
-0.0000

> <Gold.Chemscore.Lipo.Weighted>
-9.1435

> <Gold.Chemscore.Internal_Hbond.Weighted>
0.0000

> <Gold.Chemscore.DEClash.Weighted>
0.0272

> <Gold.Chemscore.DEInternal.Weighted>
1.6366

> <Gold.Chemscore.Rot.Weighted>
3.0317

> <Gold.Chemscore.Internal.Correction.Weighted>
   9.000000E+99

> <Gold.Protein.RotatedTorsions>
[ 6907 6896 6895 6894 ] final   -4.40 input  -60.11 | X-H torsion
[ 7974 7965 7964 7962 ] final  -25.27 input  175.53 | X-H torsion
[ 8008 7997 7996 7995 ] final   -5.21 input   59.86 | X-H torsion
[ 10167 10162 10161 10158 ] final   -3.39 input  -65.29 | X-H torsion
[ 10718 10713 10712 10709 ] final   79.81 input   66.30 | X-H torsion
[ 10763 10752 10751 10750 ] final -114.44 input  -60.55 | X-H torsion
[ 11005 11000 10999 10996 ] final  -75.35 input  -57.11 | X-H torsion

> <Gold.Protein.ActiveResidues>
 VAL166  LYS551  ARG553  GLY616  TRP617  ASP618  TYR619  PRO620  LYS621  CYS622 
 ASP623  PHE694  ASN695  SER759  ASP760  ASP761  ALA762  ILE779  LEU786  VAL792 
 PHE793  MET794  SER795  GLU796  ALA797  LYS798  CYS799  TRP800  GLU811  SER814 

> <Gold.Protein.RotatedAtoms>
  151.4983  135.1060  159.9821 H   0  0  0  0  0  0  0  0  0  0  0  0  # atno 6907 bound_to 6896
  152.4712  133.8031  159.6974 H   0  0  0  0  0  0  0  0  0  0  0  0  # atno 6908 bound_to 6896
  150.8723  133.7425  159.2983 H   0  0  0  0  0  0  0  0  0  0  0  0  # atno 6909 bound_to 6896
  146.1502  140.4864  142.8615 H   0  0  0  0  0  0  0  0  0  0  0  0  # atno 7974 bound_to 7965
  154.6062  140.2464  155.7727 H   0  0  0  0  0  0  0  0  0  0  0  0  # atno 8008 bound_to 7997
  156.2342  140.2956  156.0220 H   0  0  0  0  0  0  0  0  0  0  0  0  # atno 8009 bound_to 7997
  155.2128  140.0398  157.2926 H   0  0  0  0  0  0  0  0  0  0  0  0  # atno 8010 bound_to 7997
  140.6888  143.6545  150.8321 H   0  0  0  0  0  0  0  0  0  0  0  0  # atno 10167 bound_to 10162
  157.6788  130.9931  150.1987 H   0  0  0  0  0  0  0  0  0  0  0  0  # atno 10718 bound_to 10713
  154.8440  135.4417  154.1507 H   0  0  0  0  0  0  0  0  0  0  0  0  # atno 10763 bound_to 10752
  153.2668  135.6941  153.7527 H   0  0  0  0  0  0  0  0  0  0  0  0  # atno 10764 bound_to 10752
  153.6783  135.3407  155.3147 H   0  0  0  0  0  0  0  0  0  0  0  0  # atno 10765 bound_to 10752
  141.1644  133.6943  156.7503 H   0  0  0  0  0  0  0  0  0  0  0  0  # atno 11005 bound_to 11000
  144.7894  140.6002  143.6551 LP  0  0  0  0  0  0  0  0  0  0  0  0  # atno 17320 bound_to 7965
  145.4842  139.1493  143.3745 LP  0  0  0  0  0  0  0  0  0  0  0  0  # atno 17321 bound_to 7965
  140.0255  143.5497  152.2782 LP  0  0  0  0  0  0  0  0  0  0  0  0  # atno 17342 bound_to 10162
  139.6271  144.7639  151.2615 LP  0  0  0  0  0  0  0  0  0  0  0  0  # atno 17343 bound_to 10162
  156.2683  130.3719  149.8058 LP  0  0  0  0  0  0  0  0  0  0  0  0  # atno 17370 bound_to 10713
  156.5783  130.8454  151.3376 LP  0  0  0  0  0  0  0  0  0  0  0  0  # atno 17371 bound_to 10713
  140.2609  134.8467  157.3758 LP  0  0  0  0  0  0  0  0  0  0  0  0  # atno 17394 bound_to 11000
  140.1612  134.4726  155.7893 LP  0  0  0  0  0  0  0  0  0  0  0  0  # atno 17395 bound_to 11000

$$$$
