AV-unprocessed.smi:903|AV-procd|sdf|4096|dock5
  -GOLD-   22720 1583D 1   1.00000     0.00000
 Structure written by MMmdl.
 28 29  0  0  0  0  0  0  0  0  2 V2000
  153.3854  138.3799  155.7761 O   0  0  0  0  0  0  0  0  0  0  0  0
  152.2291  138.3180  155.3052 C   0  0  0  0  0  0  0  0  0  0  0  0
  151.8366  137.2979  154.6932 O   0  5  0  0  0  0  0  0  0  0  0  0
  151.2688  139.4782  155.4627 C   0  0  0  0  0  0  0  0  0  0  0  0
  151.6391  140.4091  156.3778 N   0  0  0  0  0  0  0  0  0  0  0  0
  150.8561  141.4900  156.6010 C   0  0  0  0  0  0  0  0  0  0  0  0
  151.2558  142.4229  157.5356 O   0  0  0  0  0  0  0  0  0  0  0  0
  152.2917  142.0679  158.4468 C   0  0  0  0  0  0  0  0  0  0  0  0
  152.6330  143.2899  159.3077 C   0  0  1  0  0  0  0  0  0  0  0  0
  151.6532  144.4487  159.1395 C   0  0  0  0  0  0  0  0  0  0  0  0
  151.8555  145.2066  160.4315 C   0  0  0  0  0  0  0  0  0  0  0  0
  152.0550  144.0746  161.4364 C   0  0  0  0  0  0  0  0  0  0  0  0
  152.5550  142.9650  160.6931 O   0  0  0  0  0  0  0  0  0  0  0  0
  149.6479  141.6975  155.9140 C   0  0  0  0  0  0  0  0  0  0  0  0
  149.2483  140.7443  154.9622 C   0  0  0  0  0  0  0  0  0  0  0  0
  150.0566  139.6152  154.7210 C   0  0  0  0  0  0  0  0  0  0  0  0
  149.4969  138.4850  153.5335 Cl  0  0  0  0  0  0  0  0  0  0  0  0
  151.9433  141.2584  159.0907 H   0  0  0  0  0  0  0  0  0  0  0  0
  153.1810  141.7190  157.9190 H   0  0  0  0  0  0  0  0  0  0  0  0
  153.6424  143.6417  159.0877 H   0  0  0  0  0  0  0  0  0  0  0  0
  151.8543  145.0511  158.2534 H   0  0  0  0  0  0  0  0  0  0  0  0
  150.6279  144.0805  159.0787 H   0  0  0  0  0  0  0  0  0  0  0  0
  152.7583  145.8158  160.3684 H   0  0  0  0  0  0  0  0  0  0  0  0
  151.0194  145.8593  160.6836 H   0  0  0  0  0  0  0  0  0  0  0  0
  152.7384  144.3537  162.2386 H   0  0  0  0  0  0  0  0  0  0  0  0
  151.1041  143.7882  161.8865 H   0  0  0  0  0  0  0  0  0  0  0  0
  149.0415  142.5689  156.1115 H   0  0  0  0  0  0  0  0  0  0  0  0
  148.3249  140.8797  154.4186 H   0  0  0  0  0  0  0  0  0  0  0  0
  1  2  2  0  0  0  0
  2  3  1  0  0  0  0
  2  4  1  0  0  0  0
  4 16  1  0  0  0  0
  4  5  2  0  0  0  0
  5  6  1  0  0  0  0
  6  7  1  0  0  0  0
  6 14  2  0  0  0  0
  7  8  1  0  0  0  0
  8  9  1  0  0  0  0
  8 18  1  0  0  0  0
  8 19  1  0  0  0  0
  9 13  1  0  0  0  0
  9 10  1  0  0  0  0
  9 20  1  0  0  0  0
 10 11  1  0  0  0  0
 10 21  1  0  0  0  0
 10 22  1  0  0  0  0
 11 12  1  0  0  0  0
 11 23  1  0  0  0  0
 11 24  1  0  0  0  0
 12 13  1  0  0  0  0
 12 25  1  0  0  0  0
 12 26  1  0  0  0  0
 14 15  1  0  0  0  0
 14 27  1  0  0  0  0
 15 16  2  0  0  0  0
 15 28  1  0  0  0  0
 16 17  1  0  0  0  0
M  CHG  1   3  -1
M  END
> <s_m_source_file>
AV-unprocessed.smi

> <i_m_source_file_index>
903

> <i_lp_mmshare_version>
43012

> <i_f3d_flags>
0

> <s_epik_input>
Tz1DKFtPSF0pYzFuYyhbY0hdW2NIXWMxQ2wpT1tDSDJdW0NAQEhdMltDSDJdW0NIMl1bQ0gyXU8y

> <s_epik_cmdline>
J2VwaWtfcHl0aG9uJywgJy1waCcsICc3LjAnLCAnLXRuJywgJzgnLCAnLW1hJywgJzIwMCcsICctbWV0YWxfYmluZGluZycsICctaW1hZScsICc8aW5maWxlLm1hZT4nLCAnLW9tYWUnLCAnPG91dGZpbGUubWFlPic=

> <r_lp_tautomer_probability>
1

> <r_epik_Ionization_Penalty>
1.22588e-05

> <r_epik_Ionization_Penalty_Charging>
1.01343e-05

> <r_epik_Ionization_Penalty_Neutral>
2.12445e-06

> <r_epik_State_Penalty>
-0

> <r_epik_Charging_Adjusted_Penalty>
1.01343e-05

> <i_epik_Tot_Q>
-1

> <i_epik_Tot_abs_Q>
1

> <r_epik_Metal_State_Penalty>
-0

> <b_epik_Metal_Only>
0

> <s_lp_Force_Field>
OPLS_2005

> <r_lp_Energy>
26.0246

> <b_lp_Chiralities_Consistent>
1

> <s_lp_Variant>
AV-unprocessed.smi:903-2

> <Gold.Version>
5.8.1

> <Gold.Id.Protein>
6NUR|6NUR_protein|mol2

> <Gold.PLP.Fitness>
43.7429

> <Gold.PLP.PLP>
-34.9658

> <Gold.PLP.part.hbond>
-2.0000

> <Gold.PLP.part.metal>
0.0000

> <Gold.PLP.part.buried>
-0.2572

> <Gold.PLP.part.nonpolar>
-32.8284

> <Gold.PLP.part.repulsive>
0.2220

> <Gold.PLP.ligand.clash>
0.0000

> <Gold.PLP.ligand.torsion>
0.9919

> <Gold.PLP.Chemscore.Hbond>
3.5840

> <Gold.PLP.Chemscore.CHOScore>
0.0000

> <Gold.PLP.Chemscore.Metal>
0.0000

> <Gold.Chemscore.Hbonds>
donor molecule, donor type, donor heavy atom, donor atom, acceptor molecule, acceptor atom, score
      P1  H  7997  8008       L1     1  1.62
      P1  H 10752 10764       L1     3  1.95

> <Gold.PLP.Chemscore.Internal.Correction>
0.0089

> <Gold.Rescore>
     Score         DG    S(hbond)    S(metal)    S(lipo)     H(rot)  DE(clash)    DE(int)     intcor
     15.12     -17.41       1.50        0.00      92.24       1.51       0.08       2.21       ----

> <Gold.Chemscore.Fitness>
15.1158

> <Gold.Chemscore.DG>
-17.4059

> <Gold.Chemscore.ZeroCoef>
-5.4800

> <Gold.Chemscore.Hbond>
1.4963

> <Gold.Chemscore.Metal>
0.0000

> <Gold.Chemscore.Lipo>
92.2414

> <Gold.Chemscore.Internal_Hbond>
0.0000

> <Gold.Chemscore.DEClash>
0.0811

> <Gold.Chemscore.DEInternal>
2.2090

> <Gold.Chemscore.Rot>
1.5094

> <Gold.Chemscore.Internal.Correction>
   9.000000E+99

> <Gold.Chemscore.Hbonds>
donor molecule, donor type, donor heavy atom, donor atom, acceptor molecule, acceptor atom, score
      P1  H  7997  8008       L1     1  0.75
      P1  H 10752 10764       L1     3  0.89

> <Gold.Chemscore.Hbond.Weighted>
-4.9977

> <Gold.Chemscore.Metal.Weighted>
-0.0000

> <Gold.Chemscore.Lipo.Weighted>
-10.7922

> <Gold.Chemscore.Internal_Hbond.Weighted>
0.0000

> <Gold.Chemscore.DEClash.Weighted>
0.0811

> <Gold.Chemscore.DEInternal.Weighted>
2.2090

> <Gold.Chemscore.Rot.Weighted>
3.8641

> <Gold.Chemscore.Internal.Correction.Weighted>
   9.000000E+99

> <Gold.Protein.RotatedTorsions>
[ 6907 6896 6895 6894 ] final   11.20 input  -60.11 | X-H torsion
[ 7974 7965 7964 7962 ] final  -57.36 input  175.53 | X-H torsion
[ 8008 7997 7996 7995 ] final  -30.59 input   59.86 | X-H torsion
[ 10167 10162 10161 10158 ] final -146.60 input  -65.29 | X-H torsion
[ 10718 10713 10712 10709 ] final   89.32 input   66.30 | X-H torsion
[ 10763 10752 10751 10750 ] final  -73.69 input  -60.55 | X-H torsion
[ 11005 11000 10999 10996 ] final   85.69 input  -57.11 | X-H torsion

> <Gold.Protein.ActiveResidues>
 VAL166  LYS551  ARG553  GLY616  TRP617  ASP618  TYR619  PRO620  LYS621  CYS622 
 ASP623  PHE694  ASN695  SER759  ASP760  ASP761  ALA762  ILE779  LEU786  VAL792 
 PHE793  MET794  SER795  GLU796  ALA797  LYS798  CYS799  TRP800  GLU811  SER814 

> <Gold.Protein.RotatedAtoms>
  151.7506  135.0833  160.0329 H   0  0  0  0  0  0  0  0  0  0  0  0  # atno 6907 bound_to 6896
  152.3419  133.6073  159.5891 H   0  0  0  0  0  0  0  0  0  0  0  0  # atno 6908 bound_to 6896
  150.7485  133.9625  159.3561 H   0  0  0  0  0  0  0  0  0  0  0  0  # atno 6909 bound_to 6896
  145.8520  140.8346  142.9981 H   0  0  0  0  0  0  0  0  0  0  0  0  # atno 7974 bound_to 7965
  154.4244  140.1787  156.1432 H   0  0  0  0  0  0  0  0  0  0  0  0  # atno 8008 bound_to 7997
  155.9975  140.3363  155.6788 H   0  0  0  0  0  0  0  0  0  0  0  0  # atno 8009 bound_to 7997
  155.6289  140.0667  157.2646 H   0  0  0  0  0  0  0  0  0  0  0  0  # atno 8010 bound_to 7997
  139.7698  143.8254  152.2622 H   0  0  0  0  0  0  0  0  0  0  0  0  # atno 10167 bound_to 10162
  157.6954  131.0328  150.3407 H   0  0  0  0  0  0  0  0  0  0  0  0  # atno 10718 bound_to 10713
  154.4630  135.5889  153.6268 H   0  0  0  0  0  0  0  0  0  0  0  0  # atno 10763 bound_to 10752
  152.9825  135.6048  154.3463 H   0  0  0  0  0  0  0  0  0  0  0  0  # atno 10764 bound_to 10752
  154.3336  135.2842  155.2438 H   0  0  0  0  0  0  0  0  0  0  0  0  # atno 10765 bound_to 10752
  139.8965  134.8304  156.2616 H   0  0  0  0  0  0  0  0  0  0  0  0  # atno 11005 bound_to 11000
  144.6729  140.0967  143.7462 LP  0  0  0  0  0  0  0  0  0  0  0  0  # atno 17320 bound_to 7965
  145.9347  139.2629  143.1304 LP  0  0  0  0  0  0  0  0  0  0  0  0  # atno 17321 bound_to 7965
  139.8285  144.7264  150.9481 LP  0  0  0  0  0  0  0  0  0  0  0  0  # atno 17342 bound_to 10162
  140.7813  143.4092  151.1021 LP  0  0  0  0  0  0  0  0  0  0  0  0  # atno 17343 bound_to 10162
  156.3868  130.3890  149.7059 LP  0  0  0  0  0  0  0  0  0  0  0  0  # atno 17370 bound_to 10713
  156.4423  130.7867  151.2888 LP  0  0  0  0  0  0  0  0  0  0  0  0  # atno 17371 bound_to 10713
  141.0158  133.7069  156.1187 LP  0  0  0  0  0  0  0  0  0  0  0  0  # atno 17394 bound_to 11000
  140.7303  134.4262  157.5566 LP  0  0  0  0  0  0  0  0  0  0  0  0  # atno 17395 bound_to 11000

$$$$
