AV-unprocessed.smi:157|AV-procd|sdf|1303|dock1
  -GOLD-   2262018593D 1   1.00000     0.00000
 Structure written by MMmdl.
 35 37  0  0  0  0  0  0  0  0  1 V2000
  150.4908  139.2419  153.8001 O   0  0  0  0  0  0  0  0  0  0  0  0
  149.2913  138.7032  154.3166 C   0  0  0  0  0  0  0  0  0  0  0  0
  148.5098  139.7687  155.1132 C   0  0  1  0  0  0  0  0  0  0  0  0
  148.8408  139.5921  156.4924 O   0  0  0  0  0  0  0  0  0  0  0  0
  149.5778  140.6805  156.9672 C   0  0  1  0  0  0  0  0  0  0  0  0
  150.7627  140.1720  157.7267 N   0  0  0  0  0  0  0  0  0  0  0  0
  151.3066  138.9510  157.6341 C   0  0  0  0  0  0  0  0  0  0  0  0
  152.3565  138.7568  158.4144 N   0  0  0  0  0  0  0  0  0  0  0  0
  152.5173  139.9759  159.0710 C   0  0  0  0  0  0  0  0  0  0  0  0
  151.5433  140.8709  158.6514 C   0  0  0  0  0  0  0  0  0  0  0  0
  151.2065  142.1812  158.9331 N   0  0  0  0  0  0  0  0  0  0  0  0
  152.1025  142.9323  159.4916 C   0  0  0  0  0  0  0  0  0  0  0  0
  153.3688  142.6156  159.9620 N   0  0  0  0  0  0  0  0  0  0  0  0
  153.6367  141.4758  160.8226 C   0  0  0  0  0  0  0  0  0  0  0  0
  153.6150  140.1318  160.0841 C   0  0  2  0  0  0  0  0  0  0  0  0
  154.8388  139.9580  159.3992 O   0  0  0  0  0  0  0  0  0  0  0  0
  150.0334  141.4775  155.7503 C   0  0  0  0  0  0  0  0  0  0  0  0
  148.8718  141.2352  154.8140 C   0  0  1  0  0  0  0  0  0  0  0  0
  149.2227  141.4999  153.4708 O   0  0  0  0  0  0  0  0  0  0  0  0
  147.4387  139.6032  154.9894 H   0  0  0  0  0  0  0  0  0  0  0  0
  148.9817  141.2556  157.6767 H   0  0  0  0  0  0  0  0  0  0  0  0
  153.5516  139.3329  160.8236 H   0  0  0  0  0  0  0  0  0  0  0  0
  148.0384  141.8794  155.0975 H   0  0  0  0  0  0  0  0  0  0  0  0
  150.2895  139.7244  153.0127 H   0  0  0  0  0  0  0  0  0  0  0  0
  148.6956  138.3667  153.4676 H   0  0  0  0  0  0  0  0  0  0  0  0
  149.5042  137.8226  154.9231 H   0  0  0  0  0  0  0  0  0  0  0  0
  150.9231  138.1822  156.9797 H   0  0  0  0  0  0  0  0  0  0  0  0
  151.8713  143.9872  159.6458 H   0  0  0  0  0  0  0  0  0  0  0  0
  154.0175  143.3687  160.1403 H   0  0  0  0  0  0  0  0  0  0  0  0
  154.5840  141.6178  161.3435 H   0  0  0  0  0  0  0  0  0  0  0  0
  152.8645  141.4651  161.5932 H   0  0  0  0  0  0  0  0  0  0  0  0
  155.5134  139.7897  160.0397 H   0  0  0  0  0  0  0  0  0  0  0  0
  150.1957  142.5265  155.9993 H   0  0  0  0  0  0  0  0  0  0  0  0
  150.9574  141.0530  155.3534 H   0  0  0  0  0  0  0  0  0  0  0  0
  149.2688  140.6783  153.0058 H   0  0  0  0  0  0  0  0  0  0  0  0
  1  2  1  0  0  0  0
  1 24  1  0  0  0  0
  2  3  1  0  0  0  0
  2 25  1  0  0  0  0
  2 26  1  0  0  0  0
  3 20  1  0  0  0  0
  3 18  1  0  0  0  0
  3  4  1  0  0  0  0
  4  5  1  0  0  0  0
  5 21  1  0  0  0  0
  5  6  1  0  0  0  0
  5 17  1  0  0  0  0
  6 10  1  0  0  0  0
  6  7  1  0  0  0  0
  7  8  2  0  0  0  0
  7 27  1  0  0  0  0
  8  9  1  0  0  0  0
  9 15  1  0  0  0  0
  9 10  2  0  0  0  0
 10 11  1  0  0  0  0
 11 12  2  0  0  0  0
 12 13  1  0  0  0  0
 12 28  1  0  0  0  0
 13 14  1  0  0  0  0
 13 29  1  0  0  0  0
 14 15  1  0  0  0  0
 14 30  1  0  0  0  0
 14 31  1  0  0  0  0
 15 22  1  0  0  0  0
 15 16  1  0  0  0  0
 16 32  1  0  0  0  0
 17 18  1  0  0  0  0
 17 33  1  0  0  0  0
 17 34  1  0  0  0  0
 18 23  1  0  0  0  0
 18 19  1  0  0  0  0
 19 35  1  0  0  0  0
M  END
> <s_m_source_file>
AV-unprocessed.smi

> <i_m_source_file_index>
157

> <i_lp_mmshare_version>
43012

> <i_f3d_flags>
0

> <s_epik_input>
W09IXVtDSDJdW0NASF0xT1tDQEhdKFtDSDJdW0NAQEhdMVtPSF0pbihbY0hdbjIpYyhjMjMpTj1bQ0hdW05IXVtDSDJdW0NASF0zW09IXQ==

> <s_epik_cmdline>
J2VwaWtfcHl0aG9uJywgJy1waCcsICc3LjAnLCAnLXRuJywgJzgnLCAnLW1hJywgJzIwMCcsICctbWV0YWxfYmluZGluZycsICctaW1hZScsICc8aW5maWxlLm1hZT4nLCAnLW9tYWUnLCAnPG91dGZpbGUubWFlPic=

> <r_lp_tautomer_probability>
1

> <r_epik_Ionization_Penalty>
0.0357149

> <r_epik_Ionization_Penalty_Charging>
0.0355056

> <r_epik_Ionization_Penalty_Neutral>
0.000209255

> <r_epik_State_Penalty>
0.0296046

> <r_epik_Charging_Adjusted_Penalty>
0.0651102

> <i_epik_Tot_Q>
0

> <i_epik_Tot_abs_Q>
0

> <r_epik_Metal_State_Penalty>
3.03559e-05

> <b_epik_Metal_Only>
0

> <s_epik_Chemistry_Notes>
This compound has an imine and may undergo hydrolysis. This compound contains an acetal/aminal-like group ( X-CH(R)-Y where X, Y are N, S, or O) that may be acid/base labile, releasing an aldehyde.

> <s_lp_Force_Field>
OPLS_2005

> <r_lp_Energy>
46.7007

> <b_lp_Chiralities_Consistent>
1

> <s_lp_Variant>
AV-unprocessed.smi:157-13

> <Gold.Version>
5.8.1

> <Gold.Id.Protein>
6NUR|6NUR_protein|mol2

> <Gold.PLP.Fitness>
40.5240

> <Gold.PLP.PLP>
-32.0771

> <Gold.PLP.part.hbond>
-5.7019

> <Gold.PLP.part.metal>
0.0000

> <Gold.PLP.part.buried>
-3.9795

> <Gold.PLP.part.nonpolar>
-22.0158

> <Gold.PLP.part.repulsive>
0.0563

> <Gold.PLP.ligand.clash>
0.0000

> <Gold.PLP.ligand.torsion>
1.1113

> <Gold.PLP.Chemscore.Hbond>
3.5520

> <Gold.PLP.Chemscore.CHOScore>
0.0000

> <Gold.PLP.Chemscore.Metal>
0.0000

> <Gold.Chemscore.Hbonds>
donor molecule, donor type, donor heavy atom, donor atom, acceptor molecule, acceptor atom, score
      L1  H     1    24       P1  7957  1.00
      L1  H    19    35       P1  7957  0.75
      P1  H  7997  8010       L1    16  0.89
      P1  H  8011  8017       L1    19  0.78

> <Gold.PLP.Chemscore.Internal.Correction>
0.0135

> <Gold.Rescore>
     Score         DG    S(hbond)    S(metal)    S(lipo)     H(rot)  DE(clash)    DE(int)     intcor
     10.56     -12.77       3.27        0.00      48.45       3.64       0.01       2.21       ----

> <Gold.Chemscore.Fitness>
10.5553

> <Gold.Chemscore.DG>
-12.7719

> <Gold.Chemscore.ZeroCoef>
-5.4800

> <Gold.Chemscore.Hbond>
3.2732

> <Gold.Chemscore.Metal>
0.0000

> <Gold.Chemscore.Lipo>
48.4465

> <Gold.Chemscore.Internal_Hbond>
0.0000

> <Gold.Chemscore.DEClash>
0.0052

> <Gold.Chemscore.DEInternal>
2.2114

> <Gold.Chemscore.Rot>
3.6362

> <Gold.Chemscore.Internal.Correction>
   9.000000E+99

> <Gold.Chemscore.Hbonds>
donor molecule, donor type, donor heavy atom, donor atom, acceptor molecule, acceptor atom, score
      L1  H     1    24       P1  7957  0.94
      L1  H    19    35       P1  7957  0.74
      P1  H  7997  8010       L1    16  0.82
      P1  H  8011  8017       L1    19  0.15

> <Gold.Chemscore.Hbond.Weighted>
-10.9324

> <Gold.Chemscore.Metal.Weighted>
-0.0000

> <Gold.Chemscore.Lipo.Weighted>
-5.6682

> <Gold.Chemscore.Internal_Hbond.Weighted>
0.0000

> <Gold.Chemscore.DEClash.Weighted>
0.0052

> <Gold.Chemscore.DEInternal.Weighted>
2.2114

> <Gold.Chemscore.Rot.Weighted>
9.3087

> <Gold.Chemscore.Internal.Correction.Weighted>
   9.000000E+99

> <Gold.Protein.RotatedTorsions>
[ 6907 6896 6895 6894 ] final -166.84 input  -60.11 | X-H torsion
[ 7974 7965 7964 7962 ] final -162.14 input  175.53 | X-H torsion
[ 8008 7997 7996 7995 ] final   -8.29 input   59.86 | X-H torsion
[ 10167 10162 10161 10158 ] final -174.56 input  -65.29 | X-H torsion
[ 10718 10713 10712 10709 ] final   70.26 input   66.30 | X-H torsion
[ 10763 10752 10751 10750 ] final -163.28 input  -60.55 | X-H torsion
[ 11005 11000 10999 10996 ] final -133.58 input  -57.11 | X-H torsion

> <Gold.Protein.ActiveResidues>
 VAL166  LYS551  ARG553  GLY616  TRP617  ASP618  TYR619  PRO620  LYS621  CYS622 
 ASP623  PHE694  ASN695  SER759  ASP760  ASP761  ALA762  ILE779  LEU786  VAL792 
 PHE793  MET794  SER795  GLU796  ALA797  LYS798  CYS799  TRP800  GLU811  SER814 

> <Gold.Protein.RotatedAtoms>
  151.4501  133.3620  159.2793 H   0  0  0  0  0  0  0  0  0  0  0  0  # atno 6907 bound_to 6896
  150.9097  134.8515  159.7427 H   0  0  0  0  0  0  0  0  0  0  0  0  # atno 6908 bound_to 6896
  152.4925  134.4429  159.9601 H   0  0  0  0  0  0  0  0  0  0  0  0  # atno 6909 bound_to 6896
  144.7367  140.3296  143.6155 H   0  0  0  0  0  0  0  0  0  0  0  0  # atno 7974 bound_to 7965
  154.5755  140.2385  155.8129 H   0  0  0  0  0  0  0  0  0  0  0  0  # atno 8008 bound_to 7997
  156.2140  140.3018  155.9753 H   0  0  0  0  0  0  0  0  0  0  0  0  # atno 8009 bound_to 7997
  155.2635  140.0415  157.2990 H   0  0  0  0  0  0  0  0  0  0  0  0  # atno 8010 bound_to 7997
  139.5627  144.1830  152.1264 H   0  0  0  0  0  0  0  0  0  0  0  0  # atno 10167 bound_to 10162
  157.6390  130.9468  150.0626 H   0  0  0  0  0  0  0  0  0  0  0  0  # atno 10718 bound_to 10713
  154.7137  135.3011  154.9157 H   0  0  0  0  0  0  0  0  0  0  0  0  # atno 10763 bound_to 10752
  154.0051  135.6702  153.4765 H   0  0  0  0  0  0  0  0  0  0  0  0  # atno 10764 bound_to 10752
  153.0776  135.5026  154.8350 H   0  0  0  0  0  0  0  0  0  0  0  0  # atno 10765 bound_to 10752
  140.9067  134.1620  157.4420 H   0  0  0  0  0  0  0  0  0  0  0  0  # atno 11005 bound_to 11000
  145.7485  139.1786  143.2335 LP  0  0  0  0  0  0  0  0  0  0  0  0  # atno 17320 bound_to 7965
  146.1079  140.7464  142.9517 LP  0  0  0  0  0  0  0  0  0  0  0  0  # atno 17321 bound_to 7965
  140.1347  144.5257  150.6781 LP  0  0  0  0  0  0  0  0  0  0  0  0  # atno 17342 bound_to 10162
  140.6908  143.2375  151.5135 LP  0  0  0  0  0  0  0  0  0  0  0  0  # atno 17343 bound_to 10162
  156.1654  130.3645  149.9240 LP  0  0  0  0  0  0  0  0  0  0  0  0  # atno 17370 bound_to 10713
  156.7228  130.9013  151.3619 LP  0  0  0  0  0  0  0  0  0  0  0  0  # atno 17371 bound_to 10713
  139.8750  134.9920  156.5574 LP  0  0  0  0  0  0  0  0  0  0  0  0  # atno 17394 bound_to 11000
  140.8161  133.8390  155.8854 LP  0  0  0  0  0  0  0  0  0  0  0  0  # atno 17395 bound_to 11000

$$$$
