AV-unprocessed.smi:2554|AV-procd|sdf|10020|dock8
  -GOLD-   2272014 63D 1   1.00000     0.00000
 Structure written by MMmdl.
 21 21  0  0  0  0  0  0  0  0  2 V2000
  147.0609  133.3397  151.5639 C   0  0  0  0  0  0  0  0  0  0  0  0
  145.7981  134.0366  151.1614 C   0  0  0  0  0  0  0  0  0  0  0  0
  145.4740  135.2912  151.6834 N   0  0  0  0  0  0  0  0  0  0  0  0
  144.3162  135.5936  151.1100 C   0  0  0  0  0  0  0  0  0  0  0  0
  143.8809  134.6485  150.2730 N   0  0  0  0  0  0  0  0  0  0  0  0
  144.8146  133.6249  150.2846 C   0  0  0  0  0  0  0  0  0  0  0  0
  144.6789  132.3880  149.4587 C   0  0  0  0  0  0  0  0  0  0  0  0
  143.4021  132.3779  148.6081 C   0  0  0  0  0  0  0  0  0  0  0  0
  143.2047  133.6645  147.9201 N   0  3  0  0  0  0  0  0  0  0  0  0
  143.0256  134.6767  149.7366 H   0  0  0  0  0  0  0  0  0  0  0  0
  147.1664  132.3759  151.0658 H   0  0  0  0  0  0  0  0  0  0  0  0
  147.0838  133.1589  152.6387 H   0  0  0  0  0  0  0  0  0  0  0  0
  147.9364  133.9377  151.3110 H   0  0  0  0  0  0  0  0  0  0  0  0
  143.7810  136.5125  151.2998 H   0  0  0  0  0  0  0  0  0  0  0  0
  144.6882  131.5157  150.1138 H   0  0  0  0  0  0  0  0  0  0  0  0
  145.5523  132.2874  148.8133 H   0  0  0  0  0  0  0  0  0  0  0  0
  143.4493  131.5844  147.8614 H   0  0  0  0  0  0  0  0  0  0  0  0
  142.5315  132.1795  149.2339 H   0  0  0  0  0  0  0  0  0  0  0  0
  142.5686  134.2384  148.4554 H   0  0  0  0  0  0  0  0  0  0  0  0
  142.8179  133.5007  147.0015 H   0  0  0  0  0  0  0  0  0  0  0  0
  144.0918  134.1393  147.8321 H   0  0  0  0  0  0  0  0  0  0  0  0
  1 11  1  0  0  0  0
  1 12  1  0  0  0  0
  1 13  1  0  0  0  0
  1  2  1  0  0  0  0
  2  6  2  0  0  0  0
  2  3  1  0  0  0  0
  3  4  2  0  0  0  0
  4  5  1  0  0  0  0
  4 14  1  0  0  0  0
  5  6  1  0  0  0  0
  5 10  1  0  0  0  0
  6  7  1  0  0  0  0
  7  8  1  0  0  0  0
  7 15  1  0  0  0  0
  7 16  1  0  0  0  0
  8  9  1  0  0  0  0
  8 17  1  0  0  0  0
  8 18  1  0  0  0  0
  9 19  1  0  0  0  0
  9 20  1  0  0  0  0
  9 21  1  0  0  0  0
M  CHG  1   9   1
M  END
> <s_m_source_file>
AV-unprocessed.smi

> <i_m_source_file_index>
2554

> <i_lp_mmshare_version>
43012

> <i_f3d_flags>
0

> <s_epik_input>
W0NIM11jMVtuSF1bY0hdbmMxW0NIMl1bQ0gyXVtOSDJd

> <s_epik_cmdline>
J2VwaWtfcHl0aG9uJywgJy1waCcsICc3LjAnLCAnLXRuJywgJzgnLCAnLW1hJywgJzIwMCcsICctbWV0YWxfYmluZGluZycsICctaW1hZScsICc8aW5maWxlLm1hZT4nLCAnLW9tYWUnLCAnPG91dGZpbGUubWFlPic=

> <r_lp_tautomer_probability>
0.5

> <r_epik_Ionization_Penalty>
0.309087

> <r_epik_Ionization_Penalty_Charging>
0.309086

> <r_epik_Ionization_Penalty_Neutral>
3.24025e-07

> <r_epik_State_Penalty>
0.652852

> <r_epik_Charging_Adjusted_Penalty>
0.961938

> <i_epik_Tot_Q>
1

> <i_epik_Tot_abs_Q>
1

> <r_epik_Metal_State_Penalty>
0.386365

> <b_epik_Metal_Only>
0

> <s_lp_Force_Field>
OPLS_2005

> <r_lp_Energy>
3.85871

> <b_lp_Chiralities_Consistent>
1

> <s_lp_Variant>
AV-unprocessed.smi:2554-2

> <Gold.Version>
5.8.1

> <Gold.Id.Protein>
6NUR|6NUR_protein|mol2

> <Gold.PLP.Fitness>
38.0507

> <Gold.PLP.PLP>
-20.7505

> <Gold.PLP.part.hbond>
-4.0000

> <Gold.PLP.part.metal>
0.0000

> <Gold.PLP.part.buried>
-2.6257

> <Gold.PLP.part.nonpolar>
-15.6213

> <Gold.PLP.part.repulsive>
0.7351

> <Gold.PLP.ligand.clash>
0.0000

> <Gold.PLP.ligand.torsion>
0.0479

> <Gold.PLP.Chemscore.Hbond>
4.8897

> <Gold.PLP.Chemscore.CHOScore>
0.9088

> <Gold.PLP.Chemscore.Metal>
0.0000

> <Gold.Chemscore.Hbonds>
donor molecule, donor type, donor heavy atom, donor atom, acceptor molecule, acceptor atom, score
      L1  H     5    10       P1 10186  0.99
      L1  H     9    19       P1 10186  2.00
      L1  H     9    20       P1 10195  1.00
      L1  H     9    21       P1  7921  0.75
      L1  C     4    14       P1 10171  0.87

> <Gold.PLP.Chemscore.Internal.Correction>
0.0004

> <Gold.Rescore>
     Score         DG    S(hbond)    S(metal)    S(lipo)     H(rot)  DE(clash)    DE(int)     intcor
     17.96     -19.69       3.78        0.00      45.04       1.45       0.15       1.58       ----

> <Gold.Chemscore.Fitness>
17.9560

> <Gold.Chemscore.DG>
-19.6862

> <Gold.Chemscore.ZeroCoef>
-5.4800

> <Gold.Chemscore.Hbond>
3.7837

> <Gold.Chemscore.Metal>
0.0000

> <Gold.Chemscore.Lipo>
45.0424

> <Gold.Chemscore.Internal_Hbond>
0.0000

> <Gold.Chemscore.DEClash>
0.1483

> <Gold.Chemscore.DEInternal>
1.5819

> <Gold.Chemscore.Rot>
1.4458

> <Gold.Chemscore.Internal.Correction>
   9.000000E+99

> <Gold.Chemscore.Hbonds>
donor molecule, donor type, donor heavy atom, donor atom, acceptor molecule, acceptor atom, score
      L1  H     5    10       P1 10186  0.78
      L1  H     9    19       P1 10186  0.95
      L1  H     9    20       P1 10195  1.00
      L1  H     9    21       P1  7921  0.75

> <Gold.Chemscore.Hbond.Weighted>
-12.6374

> <Gold.Chemscore.Metal.Weighted>
-0.0000

> <Gold.Chemscore.Lipo.Weighted>
-5.2700

> <Gold.Chemscore.Internal_Hbond.Weighted>
0.0000

> <Gold.Chemscore.DEClash.Weighted>
0.1483

> <Gold.Chemscore.DEInternal.Weighted>
1.5819

> <Gold.Chemscore.Rot.Weighted>
3.7012

> <Gold.Chemscore.Internal.Correction.Weighted>
   9.000000E+99

> <Gold.Protein.RotatedTorsions>
[ 6907 6896 6895 6894 ] final  121.62 input  -60.11 | X-H torsion
[ 7974 7965 7964 7962 ] final    3.34 input  175.53 | X-H torsion
[ 8008 7997 7996 7995 ] final  158.93 input   59.86 | X-H torsion
[ 10167 10162 10161 10158 ] final  -94.77 input  -65.29 | X-H torsion
[ 10718 10713 10712 10709 ] final  -51.58 input   66.30 | X-H torsion
[ 10763 10752 10751 10750 ] final  168.73 input  -60.55 | X-H torsion
[ 11005 11000 10999 10996 ] final  123.23 input  -57.11 | X-H torsion

> <Gold.Protein.ActiveResidues>
 VAL166  LYS551  ARG553  GLY616  TRP617  ASP618  TYR619  PRO620  LYS621  CYS622 
 ASP623  PHE694  ASN695  SER759  ASP760  ASP761  ALA762  ILE779  LEU786  VAL792 
 PHE793  MET794  SER795  GLU796  ALA797  LYS798  CYS799  TRP800  GLU811  SER814 

> <Gold.Protein.RotatedAtoms>
  152.4308  133.7274  159.6567 H   0  0  0  0  0  0  0  0  0  0  0  0  # atno 6907 bound_to 6896
  150.8187  133.8281  159.3155 H   0  0  0  0  0  0  0  0  0  0  0  0  # atno 6908 bound_to 6896
  151.5970  135.1052  160.0103 H   0  0  0  0  0  0  0  0  0  0  0  0  # atno 6909 bound_to 6896
  146.2445  140.0701  142.8363 H   0  0  0  0  0  0  0  0  0  0  0  0  # atno 7974 bound_to 7965
  156.2271  140.1845  156.7335 H   0  0  0  0  0  0  0  0  0  0  0  0  # atno 8008 bound_to 7997
  154.5960  140.0643  156.9332 H   0  0  0  0  0  0  0  0  0  0  0  0  # atno 8009 bound_to 7997
  155.2255  140.3310  155.4312 H   0  0  0  0  0  0  0  0  0  0  0  0  # atno 8010 bound_to 7997
  140.3110  143.3105  152.0148 H   0  0  0  0  0  0  0  0  0  0  0  0  # atno 10167 bound_to 10162
  156.1697  130.4149  149.9666 H   0  0  0  0  0  0  0  0  0  0  0  0  # atno 10718 bound_to 10713
  154.3728  135.2753  155.2256 H   0  0  0  0  0  0  0  0  0  0  0  0  # atno 10763 bound_to 10752
  154.4396  135.5957  153.6124 H   0  0  0  0  0  0  0  0  0  0  0  0  # atno 10764 bound_to 10752
  152.9837  135.6015  154.3961 H   0  0  0  0  0  0  0  0  0  0  0  0  # atno 10765 bound_to 10752
  139.9303  134.9641  156.8228 H   0  0  0  0  0  0  0  0  0  0  0  0  # atno 11005 bound_to 11000
  145.0824  140.9230  143.4817 LP  0  0  0  0  0  0  0  0  0  0  0  0  # atno 17320 bound_to 7965
  145.0856  139.2927  143.5761 LP  0  0  0  0  0  0  0  0  0  0  0  0  # atno 17321 bound_to 7965
  139.4894  144.6385  151.6927 LP  0  0  0  0  0  0  0  0  0  0  0  0  # atno 17342 bound_to 10162
  140.5568  144.0334  150.6151 LP  0  0  0  0  0  0  0  0  0  0  0  0  # atno 17343 bound_to 10162
  156.7470  130.9101  151.3635 LP  0  0  0  0  0  0  0  0  0  0  0  0  # atno 17370 bound_to 10713
  157.6794  130.9125  150.0229 LP  0  0  0  0  0  0  0  0  0  0  0  0  # atno 17371 bound_to 10713
  140.6220  133.9985  155.7622 LP  0  0  0  0  0  0  0  0  0  0  0  0  # atno 17394 bound_to 11000
  141.0888  133.9949  157.3271 LP  0  0  0  0  0  0  0  0  0  0  0  0  # atno 17395 bound_to 11000

$$$$
