AV-unprocessed.smi:601|AV-procd|sdf|3032|dock8
  -GOLD-   2262023543D 1   1.00000     0.00000
 Structure written by MMmdl.
 50 51  0  0  0  0  0  0  0  0  1 V2000
  148.3570  136.1468  161.8052 C   0  0  0  0  0  0  0  0  0  0  0  0
  147.7171  135.9937  160.4209 C   0  0  0  0  0  0  0  0  0  0  0  0
  148.7571  135.7740  159.3135 C   0  0  0  0  0  0  0  0  0  0  0  0
  148.1135  135.6204  157.9237 C   0  0  0  0  0  0  0  0  0  0  0  0
  149.1210  135.5334  156.8559 N   0  0  0  0  0  0  0  0  0  0  0  0
  149.9613  136.5708  156.6014 C   0  0  0  0  0  0  0  0  0  0  0  0
  149.9836  137.5762  157.3144 O   0  0  0  0  0  0  0  0  0  0  0  0
  150.8845  136.5130  155.3564 C   0  0  1  0  0  0  0  0  0  0  0  0
  150.6589  137.6363  154.3358 C   0  0  0  0  0  0  0  0  0  0  0  0
  151.5270  138.7852  154.8339 C   0  0  0  0  0  0  0  0  0  0  0  0
  152.4643  138.1361  155.8565 C   0  0  0  0  0  0  0  0  0  0  0  0
  152.2389  136.7362  155.7320 O   0  0  0  0  0  0  0  0  0  0  0  0
  149.1360  134.3515  156.0940 C   0  0  0  0  0  0  0  0  0  0  0  0
  148.7304  134.3354  154.7893 C   0  0  0  0  0  0  0  0  0  0  0  0
  148.3128  135.5062  154.1728 N   0  0  0  0  0  0  0  0  0  0  0  0
  148.7191  133.1559  154.0388 N   0  0  0  0  0  0  0  0  0  0  0  0
  148.3063  133.0902  152.6507 C   0  0  0  0  0  0  0  0  0  0  0  0
  146.7934  132.8647  152.4921 C   0  0  0  0  0  0  0  0  0  0  0  0
  146.3744  132.7386  151.0243 C   0  0  0  0  0  0  0  0  0  0  0  0
  149.0836  131.9277  154.6416 C   0  0  0  0  0  0  0  0  0  0  0  0
  149.0599  130.8468  154.0518 O   0  0  0  0  0  0  0  0  0  0  0  0
  149.4795  131.9678  155.9738 N   0  0  0  0  0  0  0  0  0  0  0  0
  149.5368  133.1098  156.7685 C   0  0  0  0  0  0  0  0  0  0  0  0
  149.8968  133.0130  157.9411 O   0  0  0  0  0  0  0  0  0  0  0  0
  149.7422  131.0929  156.4039 H   0  0  0  0  0  0  0  0  0  0  0  0
  147.5961  136.2981  162.5710 H   0  0  0  0  0  0  0  0  0  0  0  0
  149.0324  137.0024  161.8344 H   0  0  0  0  0  0  0  0  0  0  0  0
  148.9286  135.2582  162.0745 H   0  0  0  0  0  0  0  0  0  0  0  0
  147.0180  135.1568  160.4384 H   0  0  0  0  0  0  0  0  0  0  0  0
  147.1278  136.8839  160.1981 H   0  0  0  0  0  0  0  0  0  0  0  0
  149.4573  136.6099  159.3086 H   0  0  0  0  0  0  0  0  0  0  0  0
  149.3434  134.8839  159.5436 H   0  0  0  0  0  0  0  0  0  0  0  0
  147.4906  134.7243  157.9163 H   0  0  0  0  0  0  0  0  0  0  0  0
  147.4309  136.4496  157.7298 H   0  0  0  0  0  0  0  0  0  0  0  0
  150.7797  135.5433  154.8692 H   0  0  0  0  0  0  0  0  0  0  0  0
  151.0131  137.3088  153.3577 H   0  0  0  0  0  0  0  0  0  0  0  0
  149.6121  137.9196  154.2185 H   0  0  0  0  0  0  0  0  0  0  0  0
  152.0783  139.2429  154.0120 H   0  0  0  0  0  0  0  0  0  0  0  0
  150.9247  139.5617  155.3071 H   0  0  0  0  0  0  0  0  0  0  0  0
  153.5115  138.3782  155.6745 H   0  0  0  0  0  0  0  0  0  0  0  0
  152.2147  138.4571  156.8690 H   0  0  0  0  0  0  0  0  0  0  0  0
  148.2969  136.3893  154.6626 H   0  0  0  0  0  0  0  0  0  0  0  0
  147.9572  135.5122  153.2276 H   0  0  0  0  0  0  0  0  0  0  0  0
  148.6231  134.0200  152.1790 H   0  0  0  0  0  0  0  0  0  0  0  0
  148.8918  132.3117  152.1580 H   0  0  0  0  0  0  0  0  0  0  0  0
  146.4938  131.9631  153.0274 H   0  0  0  0  0  0  0  0  0  0  0  0
  146.2483  133.6904  152.9509 H   0  0  0  0  0  0  0  0  0  0  0  0
  145.2990  132.5814  150.9393 H   0  0  0  0  0  0  0  0  0  0  0  0
  146.8732  131.8959  150.5447 H   0  0  0  0  0  0  0  0  0  0  0  0
  146.6247  133.6405  150.4648 H   0  0  0  0  0  0  0  0  0  0  0  0
  1  2  1  0  0  0  0
  1 26  1  0  0  0  0
  1 27  1  0  0  0  0
  1 28  1  0  0  0  0
  2  3  1  0  0  0  0
  2 29  1  0  0  0  0
  2 30  1  0  0  0  0
  3  4  1  0  0  0  0
  3 31  1  0  0  0  0
  3 32  1  0  0  0  0
  4  5  1  0  0  0  0
  4 33  1  0  0  0  0
  4 34  1  0  0  0  0
  5  6  1  0  0  0  0
  5 13  1  0  0  0  0
  6  7  2  0  0  0  0
  6  8  1  0  0  0  0
  8 12  1  0  0  0  0
  8  9  1  0  0  0  0
  8 35  1  0  0  0  0
  9 10  1  0  0  0  0
  9 36  1  0  0  0  0
  9 37  1  0  0  0  0
 10 11  1  0  0  0  0
 10 38  1  0  0  0  0
 10 39  1  0  0  0  0
 11 12  1  0  0  0  0
 11 40  1  0  0  0  0
 11 41  1  0  0  0  0
 13 23  1  0  0  0  0
 13 14  2  0  0  0  0
 14 15  1  0  0  0  0
 14 16  1  0  0  0  0
 15 42  1  0  0  0  0
 15 43  1  0  0  0  0
 16 17  1  0  0  0  0
 16 20  1  0  0  0  0
 17 18  1  0  0  0  0
 17 44  1  0  0  0  0
 17 45  1  0  0  0  0
 18 19  1  0  0  0  0
 18 46  1  0  0  0  0
 18 47  1  0  0  0  0
 19 48  1  0  0  0  0
 19 49  1  0  0  0  0
 19 50  1  0  0  0  0
 20 21  2  0  0  0  0
 20 22  1  0  0  0  0
 22 25  1  0  0  0  0
 22 23  1  0  0  0  0
 23 24  2  0  0  0  0
M  END
> <s_m_source_file>
AV-unprocessed.smi

> <i_m_source_file_index>
601

> <i_lp_mmshare_version>
43012

> <i_f3d_flags>
0

> <s_epik_input>
TzFbQ0gyXVtDSDJdW0NIMl1bQ0BIXTFDKD1PKU4oW0NIMl1bQ0gyXVtDSDJdW0NIM10pYzJjKFtOSDJdKW4oW0NIMl1bQ0gyXVtDSDNdKWMoPU8pW25IXWMyPU8=

> <s_epik_cmdline>
J2VwaWtfcHl0aG9uJywgJy1waCcsICc3LjAnLCAnLXRuJywgJzgnLCAnLW1hJywgJzIwMCcsICctbWV0YWxfYmluZGluZycsICctaW1hZScsICc8aW5maWxlLm1hZT4nLCAnLW9tYWUnLCAnPG91dGZpbGUubWFlPic=

> <r_lp_tautomer_probability>
1

> <r_epik_Ionization_Penalty>
6.19718e-05

> <r_epik_Ionization_Penalty_Charging>
2.78773e-05

> <r_epik_Ionization_Penalty_Neutral>
3.40944e-05

> <r_epik_State_Penalty>
-0

> <r_epik_Charging_Adjusted_Penalty>
2.78773e-05

> <i_epik_Tot_Q>
0

> <i_epik_Tot_abs_Q>
0

> <r_epik_Metal_State_Penalty>
0.0271358

> <b_epik_Metal_Only>
0

> <s_lp_Force_Field>
OPLS_2005

> <r_lp_Energy>
41.2463

> <b_lp_Chiralities_Consistent>
1

> <s_lp_Variant>
AV-unprocessed.smi:601-2

> <Gold.Version>
5.8.1

> <Gold.Id.Protein>
6NUR|6NUR_protein|mol2

> <Gold.PLP.Fitness>
40.2445

> <Gold.PLP.PLP>
-33.5809

> <Gold.PLP.part.hbond>
-2.5376

> <Gold.PLP.part.metal>
0.0000

> <Gold.PLP.part.buried>
-3.1997

> <Gold.PLP.part.nonpolar>
-27.1160

> <Gold.PLP.part.repulsive>
0.0840

> <Gold.PLP.ligand.clash>
0.0000

> <Gold.PLP.ligand.torsion>
1.7211

> <Gold.PLP.Chemscore.Hbond>
2.5600

> <Gold.PLP.Chemscore.CHOScore>
0.0000

> <Gold.PLP.Chemscore.Metal>
0.0000

> <Gold.Chemscore.Hbonds>
donor molecule, donor type, donor heavy atom, donor atom, acceptor molecule, acceptor atom, score
      L1  H    15    43       P1  7948  0.42
      P1  H  6896  6908       L1    24  1.00
      P1  H 10752 10764       L1    12  0.94

> <Gold.PLP.Chemscore.Internal.Correction>
2.4259

> <Gold.Rescore>
     Score         DG    S(hbond)    S(metal)    S(lipo)     H(rot)  DE(clash)    DE(int)     intcor
     12.94     -16.11       2.30        0.00      68.06       1.96       0.11       3.06       ----

> <Gold.Chemscore.Fitness>
12.9435

> <Gold.Chemscore.DG>
-16.1149

> <Gold.Chemscore.ZeroCoef>
-5.4800

> <Gold.Chemscore.Hbond>
2.3025

> <Gold.Chemscore.Metal>
0.0000

> <Gold.Chemscore.Lipo>
68.0599

> <Gold.Chemscore.Internal_Hbond>
0.0000

> <Gold.Chemscore.DEClash>
0.1131

> <Gold.Chemscore.DEInternal>
3.0583

> <Gold.Chemscore.Rot>
1.9603

> <Gold.Chemscore.Internal.Correction>
   9.000000E+99

> <Gold.Chemscore.Hbonds>
donor molecule, donor type, donor heavy atom, donor atom, acceptor molecule, acceptor atom, score
      L1  H    15    43       P1  7948  0.42
      P1  H  6896  6908       L1    24  1.00
      P1  H 10752 10764       L1    12  0.59

> <Gold.Chemscore.Hbond.Weighted>
-7.6904

> <Gold.Chemscore.Metal.Weighted>
-0.0000

> <Gold.Chemscore.Lipo.Weighted>
-7.9630

> <Gold.Chemscore.Internal_Hbond.Weighted>
0.0000

> <Gold.Chemscore.DEClash.Weighted>
0.1131

> <Gold.Chemscore.DEInternal.Weighted>
3.0583

> <Gold.Chemscore.Rot.Weighted>
5.0185

> <Gold.Chemscore.Internal.Correction.Weighted>
   9.000000E+99

> <Gold.Protein.RotatedTorsions>
[ 6907 6896 6895 6894 ] final  108.50 input  -60.11 | X-H torsion
[ 7974 7965 7964 7962 ] final  138.89 input  175.53 | X-H torsion
[ 8008 7997 7996 7995 ] final  -63.88 input   59.86 | X-H torsion
[ 10167 10162 10161 10158 ] final  -50.07 input  -65.29 | X-H torsion
[ 10718 10713 10712 10709 ] final  -18.44 input   66.30 | X-H torsion
[ 10763 10752 10751 10750 ] final  -27.39 input  -60.55 | X-H torsion
[ 11005 11000 10999 10996 ] final   19.10 input  -57.11 | X-H torsion

> <Gold.Protein.ActiveResidues>
 VAL166  LYS551  ARG553  GLY616  TRP617  ASP618  TYR619  PRO620  LYS621  CYS622 
 ASP623  PHE694  ASN695  SER759  ASP760  ASP761  ALA762  ILE779  LEU786  VAL792 
 PHE793  MET794  SER795  GLU796  ALA797  LYS798  CYS799  TRP800  GLU811  SER814 

> <Gold.Protein.RotatedAtoms>
  152.5109  133.9080  159.7473 H   0  0  0  0  0  0  0  0  0  0  0  0  # atno 6907 bound_to 6896
  150.9480  133.6572  159.2784 H   0  0  0  0  0  0  0  0  0  0  0  0  # atno 6908 bound_to 6896
  151.3860  135.0953  159.9564 H   0  0  0  0  0  0  0  0  0  0  0  0  # atno 6909 bound_to 6896
  144.9329  139.5024  143.5609 H   0  0  0  0  0  0  0  0  0  0  0  0  # atno 7974 bound_to 7965
  154.4580  140.0965  156.6812 H   0  0  0  0  0  0  0  0  0  0  0  0  # atno 8008 bound_to 7997
  155.5080  140.3475  155.4365 H   0  0  0  0  0  0  0  0  0  0  0  0  # atno 8009 bound_to 7997
  156.0815  140.1374  156.9695 H   0  0  0  0  0  0  0  0  0  0  0  0  # atno 8010 bound_to 7997
  140.6655  143.2672  151.4306 H   0  0  0  0  0  0  0  0  0  0  0  0  # atno 10167 bound_to 10162
  156.5596  130.4722  149.6413 H   0  0  0  0  0  0  0  0  0  0  0  0  # atno 10718 bound_to 10713
  153.7313  135.6938  153.4988 H   0  0  0  0  0  0  0  0  0  0  0  0  # atno 10763 bound_to 10752
  153.2134  135.4395  155.0405 H   0  0  0  0  0  0  0  0  0  0  0  0  # atno 10764 bound_to 10752
  154.8252  135.3442  154.6843 H   0  0  0  0  0  0  0  0  0  0  0  0  # atno 10765 bound_to 10752
  140.4175  134.1554  155.7670 H   0  0  0  0  0  0  0  0  0  0  0  0  # atno 11005 bound_to 11000
  146.3254  139.8293  142.8911 LP  0  0  0  0  0  0  0  0  0  0  0  0  # atno 17320 bound_to 7965
  145.3113  141.0220  143.3553 LP  0  0  0  0  0  0  0  0  0  0  0  0  # atno 17321 bound_to 7965
  139.5903  144.1514  152.2079 LP  0  0  0  0  0  0  0  0  0  0  0  0  # atno 17342 bound_to 10162
  140.0867  144.5655  150.7084 LP  0  0  0  0  0  0  0  0  0  0  0  0  # atno 17343 bound_to 10162
  156.2811  130.7071  151.1896 LP  0  0  0  0  0  0  0  0  0  0  0  0  # atno 17370 bound_to 10713
  157.7371  131.0555  150.5374 LP  0  0  0  0  0  0  0  0  0  0  0  0  # atno 17371 bound_to 10713
  141.1797  133.8439  157.1300 LP  0  0  0  0  0  0  0  0  0  0  0  0  # atno 17394 bound_to 11000
  140.0224  134.9940  157.0618 LP  0  0  0  0  0  0  0  0  0  0  0  0  # atno 17395 bound_to 11000

$$$$
