AV-unprocessed.smi:1046|AV-procd|sdf|4548|dock1
  -GOLD-   22720 2573D 1   1.00000     0.00000
 Structure written by MMmdl.
 53 55  0  0  0  0  0  0  0  0  2 V2000
  153.5311  142.3754  161.8538 C   0  0  0  0  0  0  0  0  0  0  0  0
  152.8995  142.1335  160.4943 C   0  0  0  0  0  0  0  0  0  0  0  0
  153.2017  140.9409  159.7993 C   0  0  0  0  0  0  0  0  0  0  0  0
  152.6370  140.6787  158.5321 C   0  0  0  0  0  0  0  0  0  0  0  0
  152.7935  139.5946  157.6855 N   0  0  0  0  0  0  0  0  0  0  0  0
  152.0151  139.9377  156.6639 C   0  0  0  0  0  0  0  0  0  0  0  0
  151.3720  141.1182  156.7474 N   0  0  0  0  0  0  0  0  0  0  0  0
  150.4797  141.6962  155.7586 C   0  0  0  0  0  0  0  0  0  0  0  0
  149.6247  140.6313  155.0455 C   0  0  2  0  0  0  0  0  0  0  0  0
  150.3377  140.1216  153.9342 O   0  0  0  0  0  0  0  0  0  0  0  0
  148.2829  141.2094  154.5542 C   0  0  0  0  0  0  0  0  0  0  0  0
  147.6063  142.0428  155.5809 N   0  3  0  0  0  0  0  0  0  0  0  0
  147.6606  141.4302  156.9333 C   0  0  0  0  0  0  0  0  0  0  0  0
  147.0142  142.3664  157.9751 C   0  0  0  0  0  0  0  0  0  0  0  0
  145.6314  142.7203  157.6551 N   0  0  0  0  0  0  0  0  0  0  0  0
  144.7012  141.6023  157.8434 C   0  0  0  0  0  0  0  0  0  0  0  0
  144.7779  140.9210  159.2191 C   0  0  0  0  0  0  0  0  0  0  0  0
  145.0577  141.8895  160.2058 O   0  0  0  0  0  0  0  0  0  0  0  0
  145.6022  143.3179  156.3179 C   0  0  0  0  0  0  0  0  0  0  0  0
  146.2083  142.4098  155.2284 C   0  0  0  0  0  0  0  0  0  0  0  0
  151.7533  141.6491  157.9752 C   0  0  0  0  0  0  0  0  0  0  0  0
  151.4441  142.8389  158.6575 C   0  0  0  0  0  0  0  0  0  0  0  0
  152.0177  143.0855  159.9225 C   0  0  0  0  0  0  0  0  0  0  0  0
  151.6791  144.3736  160.6513 C   0  0  0  0  0  0  0  0  0  0  0  0
  154.2066  141.5649  162.1290 H   0  0  0  0  0  0  0  0  0  0  0  0
  152.7631  142.4473  162.6240 H   0  0  0  0  0  0  0  0  0  0  0  0
  154.1058  143.3018  161.8499 H   0  0  0  0  0  0  0  0  0  0  0  0
  153.8728  140.2152  160.2346 H   0  0  0  0  0  0  0  0  0  0  0  0
  151.9078  139.2950  155.8023 H   0  0  0  0  0  0  0  0  0  0  0  0
  149.8363  142.4170  156.2648 H   0  0  0  0  0  0  0  0  0  0  0  0
  151.0723  142.2621  155.0383 H   0  0  0  0  0  0  0  0  0  0  0  0
  149.4516  139.8108  155.7409 H   0  0  0  0  0  0  0  0  0  0  0  0
  149.7906  140.1857  153.1659 H   0  0  0  0  0  0  0  0  0  0  0  0
  148.4296  141.8049  153.6517 H   0  0  0  0  0  0  0  0  0  0  0  0
  147.6335  140.3805  154.2672 H   0  0  0  0  0  0  0  0  0  0  0  0
  147.1666  140.4577  156.9219 H   0  0  0  0  0  0  0  0  0  0  0  0
  148.7000  141.2508  157.2106 H   0  0  0  0  0  0  0  0  0  0  0  0
  147.0607  141.9087  158.9638 H   0  0  0  0  0  0  0  0  0  0  0  0
  147.6072  143.2792  158.0443 H   0  0  0  0  0  0  0  0  0  0  0  0
  143.6759  141.9200  157.6560 H   0  0  0  0  0  0  0  0  0  0  0  0
  144.9171  140.8438  157.0899 H   0  0  0  0  0  0  0  0  0  0  0  0
  143.8346  140.4300  159.4599 H   0  0  0  0  0  0  0  0  0  0  0  0
  145.5621  140.1653  159.2502 H   0  0  0  0  0  0  0  0  0  0  0  0
  144.9471  141.4930  161.0567 H   0  0  0  0  0  0  0  0  0  0  0  0
  144.5855  143.5985  156.0462 H   0  0  0  0  0  0  0  0  0  0  0  0
  146.1614  144.2543  156.3401 H   0  0  0  0  0  0  0  0  0  0  0  0
  146.1857  142.9427  154.2790 H   0  0  0  0  0  0  0  0  0  0  0  0
  145.6068  141.5099  155.0938 H   0  0  0  0  0  0  0  0  0  0  0  0
  150.7718  143.5563  158.2115 H   0  0  0  0  0  0  0  0  0  0  0  0
  150.9760  144.9810  160.0806 H   0  0  0  0  0  0  0  0  0  0  0  0
  152.5789  144.9671  160.8141 H   0  0  0  0  0  0  0  0  0  0  0  0
  151.2253  144.1581  161.6189 H   0  0  0  0  0  0  0  0  0  0  0  0
  148.1308  142.9042  155.6418 H   0  0  0  0  0  0  0  0  0  0  0  0
  1  2  1  0  0  0  0
  1 25  1  0  0  0  0
  1 26  1  0  0  0  0
  1 27  1  0  0  0  0
  2 23  1  0  0  0  0
  2  3  2  0  0  0  0
  3  4  1  0  0  0  0
  3 28  1  0  0  0  0
  4 21  2  0  0  0  0
  4  5  1  0  0  0  0
  5  6  2  0  0  0  0
  6  7  1  0  0  0  0
  6 29  1  0  0  0  0
  7  8  1  0  0  0  0
  7 21  1  0  0  0  0
  8  9  1  0  0  0  0
  8 30  1  0  0  0  0
  8 31  1  0  0  0  0
  9 10  1  0  0  0  0
  9 11  1  0  0  0  0
  9 32  1  0  0  0  0
 10 33  1  0  0  0  0
 11 12  1  0  0  0  0
 11 34  1  0  0  0  0
 11 35  1  0  0  0  0
 12 20  1  0  0  0  0
 12 13  1  0  0  0  0
 12 53  1  0  0  0  0
 13 14  1  0  0  0  0
 13 36  1  0  0  0  0
 13 37  1  0  0  0  0
 14 15  1  0  0  0  0
 14 38  1  0  0  0  0
 14 39  1  0  0  0  0
 15 16  1  0  0  0  0
 15 19  1  0  0  0  0
 16 17  1  0  0  0  0
 16 40  1  0  0  0  0
 16 41  1  0  0  0  0
 17 18  1  0  0  0  0
 17 42  1  0  0  0  0
 17 43  1  0  0  0  0
 18 44  1  0  0  0  0
 19 20  1  0  0  0  0
 19 45  1  0  0  0  0
 19 46  1  0  0  0  0
 20 47  1  0  0  0  0
 20 48  1  0  0  0  0
 21 22  1  0  0  0  0
 22 23  2  0  0  0  0
 22 49  1  0  0  0  0
 23 24  1  0  0  0  0
 24 50  1  0  0  0  0
 24 51  1  0  0  0  0
 24 52  1  0  0  0  0
M  CHG  1  12   1
M  END
> <s_m_source_file>
AV-unprocessed.smi

> <i_m_source_file_index>
1046

> <i_lp_mmshare_version>
43012

> <i_f3d_flags>
0

> <s_epik_input>
W0NIM11jKFtjSF0xKWMoW0NIM10pW2NIXWMoYzEyKW4oW2NIXW4yKVtDSDJdW0NASF0oW09IXSlbQ0gyXU4zW0NIMl1bQ0gyXU4oW0NIMl1bQ0gyXTMpW0NIMl1bQ0gyXVtPSF0=

> <s_epik_cmdline>
J2VwaWtfcHl0aG9uJywgJy1waCcsICc3LjAnLCAnLXRuJywgJzgnLCAnLW1hJywgJzIwMCcsICctbWV0YWxfYmluZGluZycsICctaW1hZScsICc8aW5maWxlLm1hZT4nLCAnLW9tYWUnLCAnPG91dGZpbGUubWFlPic=

> <r_epik_Ionization_Penalty>
0.131947

> <r_epik_Ionization_Penalty_Charging>
0.00213896

> <r_epik_Ionization_Penalty_Neutral>
0.129808

> <r_epik_State_Penalty>
0.319681

> <r_epik_Charging_Adjusted_Penalty>
0.32182

> <i_epik_Tot_Q>
1

> <i_epik_Tot_abs_Q>
1

> <r_epik_Metal_State_Penalty>
0.225417

> <b_epik_Metal_Only>
0

> <s_lp_Force_Field>
OPLS_2005

> <r_lp_Energy>
31.2013

> <b_lp_Chiralities_Consistent>
1

> <s_lp_Variant>
AV-unprocessed.smi:1046-1

> <Gold.Version>
5.8.1

> <Gold.Id.Protein>
6NUR|6NUR_protein|mol2

> <Gold.PLP.Fitness>
58.7968

> <Gold.PLP.PLP>
-45.4575

> <Gold.PLP.part.hbond>
-4.2828

> <Gold.PLP.part.metal>
0.0000

> <Gold.PLP.part.buried>
-6.7877

> <Gold.PLP.part.nonpolar>
-35.2028

> <Gold.PLP.part.repulsive>
0.1417

> <Gold.PLP.ligand.clash>
0.0000

> <Gold.PLP.ligand.torsion>
1.0071

> <Gold.PLP.Chemscore.Hbond>
4.9520

> <Gold.PLP.Chemscore.CHOScore>
0.0000

> <Gold.PLP.Chemscore.Metal>
0.0000

> <Gold.Chemscore.Hbonds>
donor molecule, donor type, donor heavy atom, donor atom, acceptor molecule, acceptor atom, score
      L1  H    10    33       P1  7957  0.96
      L1  H    12    53       P1  8028  2.00
      P1  H  7989  7998       L1    10  0.96
      P1  H  7997  8008       L1     5  0.90

> <Gold.PLP.Chemscore.Internal.Correction>
0.4975

> <Gold.Rescore>
     Score         DG    S(hbond)    S(metal)    S(lipo)     H(rot)  DE(clash)    DE(int)     intcor
     17.54     -18.41       2.43        0.00     111.40       3.21       0.02       0.86       ----

> <Gold.Chemscore.Fitness>
17.5369

> <Gold.Chemscore.DG>
-18.4127

> <Gold.Chemscore.ZeroCoef>
-5.4800

> <Gold.Chemscore.Hbond>
2.4267

> <Gold.Chemscore.Metal>
0.0000

> <Gold.Chemscore.Lipo>
111.4026

> <Gold.Chemscore.Internal_Hbond>
0.0000

> <Gold.Chemscore.DEClash>
0.0168

> <Gold.Chemscore.DEInternal>
0.8590

> <Gold.Chemscore.Rot>
3.2058

> <Gold.Chemscore.Internal.Correction>
   9.000000E+99

> <Gold.Chemscore.Hbonds>
donor molecule, donor type, donor heavy atom, donor atom, acceptor molecule, acceptor atom, score
      L1  H    10    33       P1  7957  0.87
      L1  H    12    53       P1  8028  0.90
      P1  H  7989  7998       L1    10  0.25
      P1  H  7997  8008       L1     5  0.05

> <Gold.Chemscore.Hbond.Weighted>
-8.1053

> <Gold.Chemscore.Metal.Weighted>
-0.0000

> <Gold.Chemscore.Lipo.Weighted>
-13.0341

> <Gold.Chemscore.Internal_Hbond.Weighted>
0.0000

> <Gold.Chemscore.DEClash.Weighted>
0.0168

> <Gold.Chemscore.DEInternal.Weighted>
0.8590

> <Gold.Chemscore.Rot.Weighted>
8.2067

> <Gold.Chemscore.Internal.Correction.Weighted>
   9.000000E+99

> <Gold.Protein.RotatedTorsions>
[ 6907 6896 6895 6894 ] final   16.33 input  -60.11 | X-H torsion
[ 7974 7965 7964 7962 ] final    3.98 input  175.53 | X-H torsion
[ 8008 7997 7996 7995 ] final  -82.53 input   59.86 | X-H torsion
[ 10167 10162 10161 10158 ] final -139.28 input  -65.29 | X-H torsion
[ 10718 10713 10712 10709 ] final  -52.25 input   66.30 | X-H torsion
[ 10763 10752 10751 10750 ] final   48.02 input  -60.55 | X-H torsion
[ 11005 11000 10999 10996 ] final  -52.73 input  -57.11 | X-H torsion

> <Gold.Protein.ActiveResidues>
 VAL166  LYS551  ARG553  GLY616  TRP617  ASP618  TYR619  PRO620  LYS621  CYS622 
 ASP623  PHE694  ASN695  SER759  ASP760  ASP761  ALA762  ILE779  LEU786  VAL792 
 PHE793  MET794  SER795  GLU796  ALA797  LYS798  CYS799  TRP800  GLU811  SER814 

> <Gold.Protein.RotatedAtoms>
  151.8321  135.0618  160.0437 H   0  0  0  0  0  0  0  0  0  0  0  0  # atno 6907 bound_to 6896
  152.2872  133.5522  159.5543 H   0  0  0  0  0  0  0  0  0  0  0  0  # atno 6908 bound_to 6896
  150.7214  134.0396  159.3803 H   0  0  0  0  0  0  0  0  0  0  0  0  # atno 6909 bound_to 6896
  146.2444  140.0603  142.8369 H   0  0  0  0  0  0  0  0  0  0  0  0  # atno 7974 bound_to 7965
  154.6095  140.0632  156.9476 H   0  0  0  0  0  0  0  0  0  0  0  0  # atno 8008 bound_to 7997
  155.1996  140.3314  155.4327 H   0  0  0  0  0  0  0  0  0  0  0  0  # atno 8009 bound_to 7997
  156.2368  140.1867  156.7080 H   0  0  0  0  0  0  0  0  0  0  0  0  # atno 8010 bound_to 7997
  139.8395  143.7341  152.2663 H   0  0  0  0  0  0  0  0  0  0  0  0  # atno 10167 bound_to 10162
  156.1638  130.4149  149.9752 H   0  0  0  0  0  0  0  0  0  0  0  0  # atno 10718 bound_to 10713
  152.9795  135.5957  154.3858 H   0  0  0  0  0  0  0  0  0  0  0  0  # atno 10763 bound_to 10752
  154.3519  135.2767  155.2369 H   0  0  0  0  0  0  0  0  0  0  0  0  # atno 10764 bound_to 10752
  154.4405  135.6014  153.6181 H   0  0  0  0  0  0  0  0  0  0  0  0  # atno 10765 bound_to 10752
  141.0939  133.6628  156.4067 H   0  0  0  0  0  0  0  0  0  0  0  0  # atno 11005 bound_to 11000
  145.0906  140.9282  143.4771 LP  0  0  0  0  0  0  0  0  0  0  0  0  # atno 17320 bound_to 7965
  145.0775  139.2985  143.5801 LP  0  0  0  0  0  0  0  0  0  0  0  0  # atno 17321 bound_to 7965
  139.7573  144.7517  151.0416 LP  0  0  0  0  0  0  0  0  0  0  0  0  # atno 17342 bound_to 10162
  140.7799  143.4791  151.0043 LP  0  0  0  0  0  0  0  0  0  0  0  0  # atno 17343 bound_to 10162
  156.7573  130.9138  151.3640 LP  0  0  0  0  0  0  0  0  0  0  0  0  # atno 17370 bound_to 10713
  157.6752  130.9088  150.0134 LP  0  0  0  0  0  0  0  0  0  0  0  0  # atno 17371 bound_to 10713
  140.5186  134.6326  157.5310 LP  0  0  0  0  0  0  0  0  0  0  0  0  # atno 17394 bound_to 11000
  139.9771  134.7197  155.9929 LP  0  0  0  0  0  0  0  0  0  0  0  0  # atno 17395 bound_to 11000

$$$$
