AV-unprocessed.smi:1395|AV-procd|sdf|5669|dock10
  -GOLD-   22720 5293D 1   1.00000     0.00000
 Structure written by MMmdl.
 42 43  0  0  0  0  0  0  0  0  1 V2000
  142.6318  136.6215  153.7047 C   0  0  0  0  0  0  0  0  0  0  0  0
  143.5442  135.9581  152.6857 C   0  0  0  0  0  0  0  0  0  0  0  0
  143.2357  134.6609  152.2239 C   0  0  0  0  0  0  0  0  0  0  0  0
  144.0805  134.0489  151.2823 C   0  0  0  0  0  0  0  0  0  0  0  0
  145.2055  134.7651  150.8393 C   0  0  0  0  0  0  0  0  0  0  0  0
  145.5083  136.0048  151.2754 N   0  0  0  0  0  0  0  0  0  0  0  0
  144.7031  136.6100  152.1845 C   0  0  0  0  0  0  0  0  0  0  0  0
  144.9607  137.9152  152.6913 N   0  0  0  0  0  0  0  0  0  0  0  0
  146.0068  138.3394  153.4221 C   0  0  0  0  0  0  0  0  0  0  0  0
  146.9547  137.6420  153.7846 O   0  0  0  0  0  0  0  0  0  0  0  0
  145.8940  139.6432  153.7140 N   0  0  0  0  0  0  0  0  0  0  0  0
  146.8575  140.4205  154.4875 C   0  0  0  0  0  0  0  0  0  0  0  0
  148.0361  140.8276  153.5922 C   0  0  0  0  0  0  0  0  0  0  0  0
  149.1372  141.5362  154.4007 C   0  0  0  0  0  0  0  0  0  0  0  0
  149.6150  140.6697  155.4882 N   0  0  0  0  0  0  0  0  0  0  0  0
  150.7332  141.2737  156.2480 C   0  0  0  0  0  0  0  0  0  0  0  0
  151.8400  140.2882  156.6450 C   0  0  0  0  0  0  0  0  0  0  0  0
  152.0526  140.1031  157.9501 N   0  0  0  0  0  0  0  0  0  0  0  0
  152.4961  139.7047  155.7846 O   0  0  0  0  0  0  0  0  0  0  0  0
  148.5153  140.3597  156.4078 C   0  0  0  0  0  0  0  0  0  0  0  0
  147.3919  139.6047  155.6760 C   0  0  0  0  0  0  0  0  0  0  0  0
  141.7937  135.9755  153.9674 H   0  0  0  0  0  0  0  0  0  0  0  0
  142.2257  137.5515  153.3056 H   0  0  0  0  0  0  0  0  0  0  0  0
  143.1817  136.8464  154.6190 H   0  0  0  0  0  0  0  0  0  0  0  0
  142.3623  134.1379  152.5853 H   0  0  0  0  0  0  0  0  0  0  0  0
  143.8718  133.0571  150.9094 H   0  0  0  0  0  0  0  0  0  0  0  0
  145.8808  134.3322  150.1163 H   0  0  0  0  0  0  0  0  0  0  0  0
  144.2627  138.6089  152.4687 H   0  0  0  0  0  0  0  0  0  0  0  0
  145.0831  140.1384  153.3732 H   0  0  0  0  0  0  0  0  0  0  0  0
  146.3780  141.3277  154.8605 H   0  0  0  0  0  0  0  0  0  0  0  0
  148.4584  139.9461  153.1070 H   0  0  0  0  0  0  0  0  0  0  0  0
  147.6879  141.4827  152.7927 H   0  0  0  0  0  0  0  0  0  0  0  0
  149.9477  141.7867  153.7165 H   0  0  0  0  0  0  0  0  0  0  0  0
  148.7642  142.4783  154.8062 H   0  0  0  0  0  0  0  0  0  0  0  0
  151.1608  142.0997  155.6759 H   0  0  0  0  0  0  0  0  0  0  0  0
  150.3492  141.7050  157.1737 H   0  0  0  0  0  0  0  0  0  0  0  0
  152.7711  139.4652  158.2596 H   0  0  0  0  0  0  0  0  0  0  0  0
  151.4922  140.6049  158.6238 H   0  0  0  0  0  0  0  0  0  0  0  0
  148.8807  139.7371  157.2256 H   0  0  0  0  0  0  0  0  0  0  0  0
  148.1247  141.2747  156.8568 H   0  0  0  0  0  0  0  0  0  0  0  0
  146.5838  139.3849  156.3746 H   0  0  0  0  0  0  0  0  0  0  0  0
  147.7699  138.6422  155.3282 H   0  0  0  0  0  0  0  0  0  0  0  0
  1  2  1  0  0  0  0
  1 22  1  0  0  0  0
  1 23  1  0  0  0  0
  1 24  1  0  0  0  0
  2  7  1  0  0  0  0
  2  3  2  0  0  0  0
  3  4  1  0  0  0  0
  3 25  1  0  0  0  0
  4  5  2  0  0  0  0
  4 26  1  0  0  0  0
  5  6  1  0  0  0  0
  5 27  1  0  0  0  0
  6  7  2  0  0  0  0
  7  8  1  0  0  0  0
  8  9  1  0  0  0  0
  8 28  1  0  0  0  0
  9 10  2  0  0  0  0
  9 11  1  0  0  0  0
 11 12  1  0  0  0  0
 11 29  1  0  0  0  0
 12 21  1  0  0  0  0
 12 13  1  0  0  0  0
 12 30  1  0  0  0  0
 13 14  1  0  0  0  0
 13 31  1  0  0  0  0
 13 32  1  0  0  0  0
 14 15  1  0  0  0  0
 14 33  1  0  0  0  0
 14 34  1  0  0  0  0
 15 16  1  0  0  0  0
 15 20  1  0  0  0  0
 16 17  1  0  0  0  0
 16 35  1  0  0  0  0
 16 36  1  0  0  0  0
 17 18  1  0  0  0  0
 17 19  2  0  0  0  0
 18 37  1  0  0  0  0
 18 38  1  0  0  0  0
 20 21  1  0  0  0  0
 20 39  1  0  0  0  0
 20 40  1  0  0  0  0
 21 41  1  0  0  0  0
 21 42  1  0  0  0  0
M  END
> <s_m_source_file>
AV-unprocessed.smi

> <i_m_source_file_index>
1395

> <i_lp_mmshare_version>
43012

> <i_f3d_flags>
0

> <s_epik_input>
W0NIM11jMVtjSF1bY0hdW2NIXW5jMVtOSF1DKD1PKVtOSF1bQ0hdMltDSDJdW0NIMl1OKFtDSDJdW0NIMl0yKVtDSDJdQyg9TylbTkgyXQ==

> <s_epik_cmdline>
J2VwaWtfcHl0aG9uJywgJy1waCcsICc3LjAnLCAnLXRuJywgJzgnLCAnLW1hJywgJzIwMCcsICctbWV0YWxfYmluZGluZycsICctaW1hZScsICc8aW5maWxlLm1hZT4nLCAnLW9tYWUnLCAnPG91dGZpbGUubWFlPic=

> <r_epik_Ionization_Penalty>
0.164795

> <r_epik_Ionization_Penalty_Charging>
0

> <r_epik_Ionization_Penalty_Neutral>
0.164795

> <r_epik_State_Penalty>
0.154069

> <r_epik_Charging_Adjusted_Penalty>
0.154069

> <i_epik_Tot_Q>
0

> <i_epik_Tot_abs_Q>
0

> <r_epik_Metal_State_Penalty>
0.171366

> <b_epik_Metal_Only>
0

> <s_lp_Force_Field>
OPLS_2005

> <r_lp_Energy>
15.3703

> <b_lp_Chiralities_Consistent>
1

> <s_lp_Variant>
AV-unprocessed.smi:1395-1

> <Gold.Version>
5.8.1

> <Gold.Id.Protein>
6NUR|6NUR_protein|mol2

> <Gold.PLP.Fitness>
38.2412

> <Gold.PLP.PLP>
-29.0811

> <Gold.PLP.part.hbond>
-3.6485

> <Gold.PLP.part.metal>
0.0000

> <Gold.PLP.part.buried>
-2.5498

> <Gold.PLP.part.nonpolar>
-23.3962

> <Gold.PLP.part.repulsive>
0.7728

> <Gold.PLP.ligand.clash>
0.0000

> <Gold.PLP.ligand.torsion>
1.4232

> <Gold.PLP.Chemscore.Hbond>
3.0000

> <Gold.PLP.Chemscore.CHOScore>
1.0000

> <Gold.PLP.Chemscore.Metal>
0.0000

> <Gold.Chemscore.Hbonds>
donor molecule, donor type, donor heavy atom, donor atom, acceptor molecule, acceptor atom, score
      L1  H     8    28       P1 10175  1.00
      L1  H    11    29       P1 10175  1.00
      P1  H  7997  8010       L1    19  1.00
      L1  C     5    27       P1  7921  0.99

> <Gold.PLP.Chemscore.Internal.Correction>
0.0065

> <Gold.Rescore>
     Score         DG    S(hbond)    S(metal)    S(lipo)     H(rot)  DE(clash)    DE(int)     intcor
     13.60     -16.54       2.96        0.00      52.35       1.94       0.00       2.94       ----

> <Gold.Chemscore.Fitness>
13.5965

> <Gold.Chemscore.DG>
-16.5399

> <Gold.Chemscore.ZeroCoef>
-5.4800

> <Gold.Chemscore.Hbond>
2.9630

> <Gold.Chemscore.Metal>
0.0000

> <Gold.Chemscore.Lipo>
52.3539

> <Gold.Chemscore.Internal_Hbond>
0.0000

> <Gold.Chemscore.DEClash>
0.0000

> <Gold.Chemscore.DEInternal>
2.9434

> <Gold.Chemscore.Rot>
1.9383

> <Gold.Chemscore.Internal.Correction>
   9.000000E+99

> <Gold.Chemscore.Hbonds>
donor molecule, donor type, donor heavy atom, donor atom, acceptor molecule, acceptor atom, score
      L1  H     8    28       P1 10175  0.95
      L1  H    11    29       P1 10175  1.00
      P1  H  7997  8010       L1    19  0.34

> <Gold.Chemscore.Hbond.Weighted>
-9.8965

> <Gold.Chemscore.Metal.Weighted>
-0.0000

> <Gold.Chemscore.Lipo.Weighted>
-6.1254

> <Gold.Chemscore.Internal_Hbond.Weighted>
0.0000

> <Gold.Chemscore.DEClash.Weighted>
0.0000

> <Gold.Chemscore.DEInternal.Weighted>
2.9434

> <Gold.Chemscore.Rot.Weighted>
4.9620

> <Gold.Chemscore.Internal.Correction.Weighted>
   9.000000E+99

> <Gold.Protein.RotatedTorsions>
[ 6907 6896 6895 6894 ] final  154.74 input  -60.11 | X-H torsion
[ 7974 7965 7964 7962 ] final -160.58 input  175.53 | X-H torsion
[ 8008 7997 7996 7995 ] final   77.58 input   59.86 | X-H torsion
[ 10167 10162 10161 10158 ] final  102.36 input  -65.29 | X-H torsion
[ 10718 10713 10712 10709 ] final   25.24 input   66.30 | X-H torsion
[ 10763 10752 10751 10750 ] final   68.32 input  -60.55 | X-H torsion
[ 11005 11000 10999 10996 ] final  167.64 input  -57.11 | X-H torsion

> <Gold.Protein.ActiveResidues>
 VAL166  LYS551  ARG553  GLY616  TRP617  ASP618  TYR619  PRO620  LYS621  CYS622 
 ASP623  PHE694  ASN695  SER759  ASP760  ASP761  ALA762  ILE779  LEU786  VAL792 
 PHE793  MET794  SER795  GLU796  ALA797  LYS798  CYS799  TRP800  GLU811  SER814 

> <Gold.Protein.RotatedAtoms>
  152.0541  133.4032  159.4389 H   0  0  0  0  0  0  0  0  0  0  0  0  # atno 6907 bound_to 6896
  150.6869  134.3274  159.4822 H   0  0  0  0  0  0  0  0  0  0  0  0  # atno 6908 bound_to 6896
  152.1088  134.9289  160.0618 H   0  0  0  0  0  0  0  0  0  0  0  0  # atno 6909 bound_to 6896
  144.7422  140.3522  143.6113 H   0  0  0  0  0  0  0  0  0  0  0  0  # atno 7974 bound_to 7965
  155.8436  140.3461  155.5647 H   0  0  0  0  0  0  0  0  0  0  0  0  # atno 8008 bound_to 7997
  155.8114  140.0899  157.1921 H   0  0  0  0  0  0  0  0  0  0  0  0  # atno 8009 bound_to 7997
  154.4005  140.1447  156.3379 H   0  0  0  0  0  0  0  0  0  0  0  0  # atno 8010 bound_to 7997
  139.7357  144.7024  151.0653 H   0  0  0  0  0  0  0  0  0  0  0  0  # atno 10167 bound_to 10162
  157.1906  130.6844  149.6148 H   0  0  0  0  0  0  0  0  0  0  0  0  # atno 10718 bound_to 10713
  153.0229  135.5251  154.7116 H   0  0  0  0  0  0  0  0  0  0  0  0  # atno 10763 bound_to 10752
  154.6197  135.2887  155.0342 H   0  0  0  0  0  0  0  0  0  0  0  0  # atno 10764 bound_to 10752
  154.1333  135.6589  153.4979 H   0  0  0  0  0  0  0  0  0  0  0  0  # atno 10765 bound_to 10752
  140.2789  134.7767  157.3741 H   0  0  0  0  0  0  0  0  0  0  0  0  # atno 11005 bound_to 11000
  145.7265  139.1724  143.2455 LP  0  0  0  0  0  0  0  0  0  0  0  0  # atno 17320 bound_to 7965
  146.1238  140.7274  142.9445 LP  0  0  0  0  0  0  0  0  0  0  0  0  # atno 17321 bound_to 7965
  140.7778  143.4987  150.9799 LP  0  0  0  0  0  0  0  0  0  0  0  0  # atno 17342 bound_to 10162
  139.8675  143.7235  152.3169 LP  0  0  0  0  0  0  0  0  0  0  0  0  # atno 17343 bound_to 10162
  155.9712  130.4616  150.6114 LP  0  0  0  0  0  0  0  0  0  0  0  0  # atno 17370 bound_to 10713
  157.3864  131.0789  151.1432 LP  0  0  0  0  0  0  0  0  0  0  0  0  # atno 17371 bound_to 10713
  140.1302  134.5105  155.8111 LP  0  0  0  0  0  0  0  0  0  0  0  0  # atno 17394 bound_to 11000
  141.2166  133.6787  156.7026 LP  0  0  0  0  0  0  0  0  0  0  0  0  # atno 17395 bound_to 11000

$$$$
