AV-unprocessed.smi:826|AV-procd|sdf|3855|dock4
  -GOLD-   22720 1303D 1   1.00000     0.00000
 Structure written by MMmdl.
 38 39  0  0  0  0  0  0  0  0  2 V2000
  148.0195  132.9589  162.8509 C   0  0  0  0  0  0  0  0  0  0  0  0
  148.2828  134.2076  162.0816 C   0  0  0  0  0  0  0  0  0  0  0  0
  147.8944  135.4140  162.5021 N   0  0  0  0  0  0  0  0  0  0  0  0
  148.2594  136.4185  161.6173 N   0  0  0  0  0  0  0  0  0  0  0  0
  148.9274  135.9609  160.5488 C   0  0  0  0  0  0  0  0  0  0  0  0
  149.3719  136.7724  159.5753 N   0  5  0  0  0  0  0  0  0  0  0  0
  150.6515  137.2105  159.5945 C   0  0  0  0  0  0  0  0  0  0  0  0
  151.6172  136.6214  160.0864 O   0  0  0  0  0  0  0  0  0  0  0  0
  150.8261  138.4016  159.0021 N   0  0  0  0  0  0  0  0  0  0  0  0
  152.0976  139.1101  158.8609 C   0  0  1  0  0  0  0  0  0  0  0  0
  152.4652  139.1363  157.3675 C   0  0  0  0  0  0  0  0  0  0  0  0
  151.9588  140.5607  159.3489 C   0  0  0  0  0  0  0  0  0  0  0  0
  150.8501  141.0904  159.4388 O   0  0  0  0  0  0  0  0  0  0  0  0
  153.1032  141.1967  159.6409 N   0  0  0  0  0  0  0  0  0  0  0  0
  153.2033  142.5782  160.1018 C   0  0  0  0  0  0  0  0  0  0  0  0
  152.4241  142.7941  161.4164 C   0  0  0  0  0  0  0  0  0  0  0  0
  151.5104  143.9987  161.1791 C   0  0  0  0  0  0  0  0  0  0  0  0
  151.2494  143.9894  159.6760 C   0  0  0  0  0  0  0  0  0  0  0  0
  152.5784  143.5362  159.0722 C   0  0  0  0  0  0  0  0  0  0  0  0
  149.1366  134.2096  160.5483 S   0  0  0  0  0  0  0  0  0  0  0  0
  148.8820  132.7173  163.4723 H   0  0  0  0  0  0  0  0  0  0  0  0
  147.8354  132.1293  162.1682 H   0  0  0  0  0  0  0  0  0  0  0  0
  147.1466  133.0820  163.4929 H   0  0  0  0  0  0  0  0  0  0  0  0
  150.0081  138.8544  158.6219 H   0  0  0  0  0  0  0  0  0  0  0  0
  152.8811  138.5912  159.4172 H   0  0  0  0  0  0  0  0  0  0  0  0
  153.4091  139.6568  157.2013 H   0  0  0  0  0  0  0  0  0  0  0  0
  151.7007  139.6312  156.7666 H   0  0  0  0  0  0  0  0  0  0  0  0
  152.5814  138.1240  156.9798 H   0  0  0  0  0  0  0  0  0  0  0  0
  153.9666  140.6830  159.5432 H   0  0  0  0  0  0  0  0  0  0  0  0
  154.2542  142.8424  160.2350 H   0  0  0  0  0  0  0  0  0  0  0  0
  151.8109  141.9218  161.6489 H   0  0  0  0  0  0  0  0  0  0  0  0
  153.0900  142.9522  162.2652 H   0  0  0  0  0  0  0  0  0  0  0  0
  150.5925  143.9508  161.7655 H   0  0  0  0  0  0  0  0  0  0  0  0
  152.0331  144.9159  161.4535 H   0  0  0  0  0  0  0  0  0  0  0  0
  150.4713  143.2621  159.4413 H   0  0  0  0  0  0  0  0  0  0  0  0
  150.9261  144.9599  159.2985 H   0  0  0  0  0  0  0  0  0  0  0  0
  153.2286  144.4035  158.9501 H   0  0  0  0  0  0  0  0  0  0  0  0
  152.4528  143.0907  158.0843 H   0  0  0  0  0  0  0  0  0  0  0  0
  1  2  1  0  0  0  0
  1 21  1  0  0  0  0
  1 22  1  0  0  0  0
  1 23  1  0  0  0  0
  2 20  1  0  0  0  0
  2  3  2  0  0  0  0
  3  4  1  0  0  0  0
  4  5  2  0  0  0  0
  5  6  1  0  0  0  0
  5 20  1  0  0  0  0
  6  7  1  0  0  0  0
  7  8  2  0  0  0  0
  7  9  1  0  0  0  0
  9 10  1  0  0  0  0
  9 24  1  0  0  0  0
 10 11  1  0  0  0  0
 10 12  1  0  0  0  0
 10 25  1  0  0  0  0
 11 26  1  0  0  0  0
 11 27  1  0  0  0  0
 11 28  1  0  0  0  0
 12 13  2  0  0  0  0
 12 14  1  0  0  0  0
 14 15  1  0  0  0  0
 14 29  1  0  0  0  0
 15 19  1  0  0  0  0
 15 16  1  0  0  0  0
 15 30  1  0  0  0  0
 16 17  1  0  0  0  0
 16 31  1  0  0  0  0
 16 32  1  0  0  0  0
 17 18  1  0  0  0  0
 17 33  1  0  0  0  0
 17 34  1  0  0  0  0
 18 19  1  0  0  0  0
 18 35  1  0  0  0  0
 18 36  1  0  0  0  0
 19 37  1  0  0  0  0
 19 38  1  0  0  0  0
M  CHG  1   6  -1
M  END
> <s_m_source_file>
AV-unprocessed.smi

> <i_m_source_file_index>
826

> <i_lp_mmshare_version>
43012

> <i_f3d_flags>
0

> <s_epik_input>
W0NIM11jMW5uYyhzMSlbTkhdQyg9TylbTkhdW0NASF0oW0NIM10pQyg9TylbTkhdW0NIXTJbQ0gyXVtDSDJdW0NIMl1bQ0gyXTI=

> <s_epik_cmdline>
J2VwaWtfcHl0aG9uJywgJy1waCcsICc3LjAnLCAnLXRuJywgJzgnLCAnLW1hJywgJzIwMCcsICctbWV0YWxfYmluZGluZycsICctaW1hZScsICc8aW5maWxlLm1hZT4nLCAnLW9tYWUnLCAnPG91dGZpbGUubWFlPic=

> <r_lp_tautomer_probability>
1

> <r_epik_Ionization_Penalty>
3.15008

> <r_epik_Ionization_Penalty_Charging>
3.01509

> <r_epik_Ionization_Penalty_Neutral>
0.134987

> <r_epik_State_Penalty>
3.01143

> <r_epik_Charging_Adjusted_Penalty>
6.02652

> <i_epik_Tot_Q>
-1

> <i_epik_Tot_abs_Q>
1

> <r_epik_Metal_State_Penalty>
0.454645

> <b_epik_Metal_Only>
1

> <s_lp_Force_Field>
OPLS_2005

> <r_lp_Energy>
16.5176

> <b_lp_Chiralities_Consistent>
1

> <s_lp_Variant>
AV-unprocessed.smi:826-4

> <Gold.Version>
5.8.1

> <Gold.Id.Protein>
6NUR|6NUR_protein|mol2

> <Gold.PLP.Fitness>
46.8074

> <Gold.PLP.PLP>
-41.4046

> <Gold.PLP.part.hbond>
-3.5668

> <Gold.PLP.part.metal>
0.0000

> <Gold.PLP.part.buried>
-5.9352

> <Gold.PLP.part.nonpolar>
-32.9397

> <Gold.PLP.part.repulsive>
0.2516

> <Gold.PLP.ligand.clash>
0.0000

> <Gold.PLP.ligand.torsion>
1.5526

> <Gold.PLP.Chemscore.Hbond>
2.8080

> <Gold.PLP.Chemscore.CHOScore>
0.0000

> <Gold.PLP.Chemscore.Metal>
0.0000

> <Gold.Chemscore.Hbonds>
donor molecule, donor type, donor heavy atom, donor atom, acceptor molecule, acceptor atom, score
      P1  H  6896  6909       L1     8  0.80
      P1  H  6931  6943       L1     4  1.00

> <Gold.PLP.Chemscore.Internal.Correction>
0.0839

> <Gold.Rescore>
     Score         DG    S(hbond)    S(metal)    S(lipo)     H(rot)  DE(clash)    DE(int)     intcor
     16.02     -19.90       2.37        0.00      91.02       1.62       0.01       3.87       ----

> <Gold.Chemscore.Fitness>
16.0216

> <Gold.Chemscore.DG>
-19.9020

> <Gold.Chemscore.ZeroCoef>
-5.4800

> <Gold.Chemscore.Hbond>
2.3712

> <Gold.Chemscore.Metal>
0.0000

> <Gold.Chemscore.Lipo>
91.0221

> <Gold.Chemscore.Internal_Hbond>
0.0000

> <Gold.Chemscore.DEClash>
0.0073

> <Gold.Chemscore.DEInternal>
3.8730

> <Gold.Chemscore.Rot>
1.6201

> <Gold.Chemscore.Internal.Correction>
   9.000000E+99

> <Gold.Chemscore.Hbonds>
donor molecule, donor type, donor heavy atom, donor atom, acceptor molecule, acceptor atom, score
      P1  H  6896  6909       L1     8  0.73
      P1  H  6931  6943       L1     4  0.38

> <Gold.Chemscore.Hbond.Weighted>
-7.9199

> <Gold.Chemscore.Metal.Weighted>
-0.0000

> <Gold.Chemscore.Lipo.Weighted>
-10.6496

> <Gold.Chemscore.Internal_Hbond.Weighted>
0.0000

> <Gold.Chemscore.DEClash.Weighted>
0.0073

> <Gold.Chemscore.DEInternal.Weighted>
3.8730

> <Gold.Chemscore.Rot.Weighted>
4.1475

> <Gold.Chemscore.Internal.Correction.Weighted>
   9.000000E+99

> <Gold.Protein.RotatedTorsions>
[ 6907 6896 6895 6894 ] final  121.42 input  -60.11 | X-H torsion
[ 7974 7965 7964 7962 ] final   89.46 input  175.53 | X-H torsion
[ 8008 7997 7996 7995 ] final   72.51 input   59.86 | X-H torsion
[ 10167 10162 10161 10158 ] final -102.71 input  -65.29 | X-H torsion
[ 10718 10713 10712 10709 ] final  -12.27 input   66.30 | X-H torsion
[ 10763 10752 10751 10750 ] final -162.69 input  -60.55 | X-H torsion
[ 11005 11000 10999 10996 ] final  114.16 input  -57.11 | X-H torsion

> <Gold.Protein.ActiveResidues>
 VAL166  LYS551  ARG553  GLY616  TRP617  ASP618  TYR619  PRO620  LYS621  CYS622 
 ASP623  PHE694  ASN695  SER759  ASP760  ASP761  ALA762  ILE779  LEU786  VAL792 
 PHE793  MET794  SER795  GLU796  ALA797  LYS798  CYS799  TRP800  GLU811  SER814 

> <Gold.Protein.RotatedAtoms>
  152.4323  133.7299  159.6580 H   0  0  0  0  0  0  0  0  0  0  0  0  # atno 6907 bound_to 6896
  150.8203  133.8254  159.3148 H   0  0  0  0  0  0  0  0  0  0  0  0  # atno 6908 bound_to 6896
  151.5938  135.1054  160.0096 H   0  0  0  0  0  0  0  0  0  0  0  0  # atno 6909 bound_to 6896
  145.5321  139.2284  143.2613 H   0  0  0  0  0  0  0  0  0  0  0  0  # atno 7974 bound_to 7965
  155.7699  140.3484  155.5241 H   0  0  0  0  0  0  0  0  0  0  0  0  # atno 8008 bound_to 7997
  155.8832  140.1005  157.1491 H   0  0  0  0  0  0  0  0  0  0  0  0  # atno 8009 bound_to 7997
  154.4026  140.1318  156.4210 H   0  0  0  0  0  0  0  0  0  0  0  0  # atno 8010 bound_to 7997
  140.2278  143.3629  152.0914 H   0  0  0  0  0  0  0  0  0  0  0  0  # atno 10167 bound_to 10162
  156.6470  130.4944  149.6075 H   0  0  0  0  0  0  0  0  0  0  0  0  # atno 10718 bound_to 10713
  154.7191  135.3022  154.9076 H   0  0  0  0  0  0  0  0  0  0  0  0  # atno 10763 bound_to 10752
  153.9953  135.6713  153.4760 H   0  0  0  0  0  0  0  0  0  0  0  0  # atno 10764 bound_to 10752
  153.0819  135.5004  154.8436 H   0  0  0  0  0  0  0  0  0  0  0  0  # atno 10765 bound_to 10752
  139.8972  134.9563  156.6849 H   0  0  0  0  0  0  0  0  0  0  0  0  # atno 11005 bound_to 11000
  146.2037  140.6137  142.9090 LP  0  0  0  0  0  0  0  0  0  0  0  0  # atno 17320 bound_to 7965
  144.7621  140.5445  143.6728 LP  0  0  0  0  0  0  0  0  0  0  0  0  # atno 17321 bound_to 7965
  139.5121  144.6911  151.5757 LP  0  0  0  0  0  0  0  0  0  0  0  0  # atno 17342 bound_to 10162
  140.6208  143.9262  150.6524 LP  0  0  0  0  0  0  0  0  0  0  0  0  # atno 17343 bound_to 10162
  156.2114  130.6681  151.1273 LP  0  0  0  0  0  0  0  0  0  0  0  0  # atno 17370 bound_to 10713
  157.7153  131.0713  150.6351 LP  0  0  0  0  0  0  0  0  0  0  0  0  # atno 17371 bound_to 10713
  140.7270  133.9091  155.8185 LP  0  0  0  0  0  0  0  0  0  0  0  0  # atno 17394 bound_to 11000
  141.0183  134.0925  157.4148 LP  0  0  0  0  0  0  0  0  0  0  0  0  # atno 17395 bound_to 11000

$$$$
