AV-unprocessed.smi:2962|AV-procd|sdf|11315|dock6
  -GOLD-   2272016223D 1   1.00000     0.00000
 Structure written by MMmdl.
 36 37  0  0  0  0  0  0  0  0  1 V2000
  147.5059  140.9778  153.5224 C   0  0  0  0  0  0  0  0  0  0  0  0
  148.6856  141.6869  153.8672 O   0  0  0  0  0  0  0  0  0  0  0  0
  149.2965  141.2250  155.0637 C   0  0  0  0  0  0  0  0  0  0  0  0
  150.3312  142.2274  155.6043 C   0  0  0  0  0  0  0  0  0  0  0  0
  151.2192  141.6196  156.5856 N   0  0  0  0  0  0  0  0  0  0  0  0
  151.9227  140.4631  156.4920 C   0  0  0  0  0  0  0  0  0  0  0  0
  151.8790  139.4376  155.0598 S   0  0  0  0  0  0  0  0  0  0  0  0
  151.1852  137.9393  155.8228 C   0  0  2  0  0  0  0  0  0  0  0  0
  152.2344  137.2723  156.7289 C   0  0  0  0  0  0  0  0  0  0  0  0
  150.6294  136.9743  154.7661 C   0  0  0  0  0  0  0  0  0  0  0  0
  149.7122  137.4602  153.9255 N   0  0  0  0  0  0  0  0  0  0  0  0
  151.0111  135.8069  154.7038 O   0  0  0  0  0  0  0  0  0  0  0  0
  152.6582  140.1458  157.5572 N   0  0  0  0  0  0  0  0  0  0  0  0
  152.4120  141.1936  158.4220 C   0  0  0  0  0  0  0  0  0  0  0  0
  152.9013  141.4453  159.7238 C   0  0  0  0  0  0  0  0  0  0  0  0
  152.5025  142.6024  160.4247 C   0  0  0  0  0  0  0  0  0  0  0  0
  151.6113  143.5223  159.8351 C   0  0  0  0  0  0  0  0  0  0  0  0
  151.1128  143.2907  158.5387 C   0  0  0  0  0  0  0  0  0  0  0  0
  151.5146  142.1344  157.8436 C   0  0  0  0  0  0  0  0  0  0  0  0
  147.0715  141.4104  152.6213 H   0  0  0  0  0  0  0  0  0  0  0  0
  146.7551  141.0264  154.3112 H   0  0  0  0  0  0  0  0  0  0  0  0
  147.7260  139.9295  153.3178 H   0  0  0  0  0  0  0  0  0  0  0  0
  148.5469  140.9914  155.8214 H   0  0  0  0  0  0  0  0  0  0  0  0
  149.7985  140.2845  154.8349 H   0  0  0  0  0  0  0  0  0  0  0  0
  150.9138  142.6649  154.7953 H   0  0  0  0  0  0  0  0  0  0  0  0
  149.8163  143.0605  156.0834 H   0  0  0  0  0  0  0  0  0  0  0  0
  150.3536  138.2353  156.4636 H   0  0  0  0  0  0  0  0  0  0  0  0
  151.8413  136.3684  157.1956 H   0  0  0  0  0  0  0  0  0  0  0  0
  152.5391  137.9458  157.5303 H   0  0  0  0  0  0  0  0  0  0  0  0
  153.1309  136.9995  156.1708 H   0  0  0  0  0  0  0  0  0  0  0  0
  149.2992  136.8603  153.2262 H   0  0  0  0  0  0  0  0  0  0  0  0
  149.4188  138.4229  154.0073 H   0  0  0  0  0  0  0  0  0  0  0  0
  153.5840  140.7464  160.1845 H   0  0  0  0  0  0  0  0  0  0  0  0
  152.8816  142.7850  161.4195 H   0  0  0  0  0  0  0  0  0  0  0  0
  151.3101  144.4058  160.3790 H   0  0  0  0  0  0  0  0  0  0  0  0
  150.4292  143.9928  158.0848 H   0  0  0  0  0  0  0  0  0  0  0  0
  1  2  1  0  0  0  0
  1 20  1  0  0  0  0
  1 21  1  0  0  0  0
  1 22  1  0  0  0  0
  2  3  1  0  0  0  0
  3  4  1  0  0  0  0
  3 23  1  0  0  0  0
  3 24  1  0  0  0  0
  4  5  1  0  0  0  0
  4 25  1  0  0  0  0
  4 26  1  0  0  0  0
  5 19  1  0  0  0  0
  5  6  1  0  0  0  0
  6  7  1  0  0  0  0
  6 13  2  0  0  0  0
  7  8  1  0  0  0  0
  8  9  1  0  0  0  0
  8 10  1  0  0  0  0
  8 27  1  0  0  0  0
  9 28  1  0  0  0  0
  9 29  1  0  0  0  0
  9 30  1  0  0  0  0
 10 11  1  0  0  0  0
 10 12  2  0  0  0  0
 11 31  1  0  0  0  0
 11 32  1  0  0  0  0
 13 14  1  0  0  0  0
 14 19  2  0  0  0  0
 14 15  1  0  0  0  0
 15 16  2  0  0  0  0
 15 33  1  0  0  0  0
 16 17  1  0  0  0  0
 16 34  1  0  0  0  0
 17 18  2  0  0  0  0
 17 35  1  0  0  0  0
 18 19  1  0  0  0  0
 18 36  1  0  0  0  0
M  END
> <s_m_source_file>
AV-unprocessed.smi

> <i_m_source_file_index>
2962

> <i_lp_mmshare_version>
43012

> <i_f3d_flags>
0

> <s_epik_input>
W2NIXTFbY0hdW2NIXVtjSF1jKGMxMiluKFtDSDJdW0NIMl1PW0NIM10pYyhuMilTW0NASF0oW0NIM10pQyg9TylbTkgyXQ==

> <s_epik_cmdline>
J2VwaWtfcHl0aG9uJywgJy1waCcsICc3LjAnLCAnLXRuJywgJzgnLCAnLW1hJywgJzIwMCcsICctbWV0YWxfYmluZGluZycsICctaW1hZScsICc8aW5maWxlLm1hZT4nLCAnLW9tYWUnLCAnPG91dGZpbGUubWFlPic=

> <r_epik_Ionization_Penalty>
0.0199986

> <r_epik_Ionization_Penalty_Charging>
0

> <r_epik_Ionization_Penalty_Neutral>
0.0199986

> <r_epik_State_Penalty>
0.0160044

> <r_epik_Charging_Adjusted_Penalty>
0.0160044

> <i_epik_Tot_Q>
0

> <i_epik_Tot_abs_Q>
0

> <r_epik_Metal_State_Penalty>
0.015472

> <b_epik_Metal_Only>
0

> <s_lp_Force_Field>
OPLS_2005

> <r_lp_Energy>
7.16755

> <b_lp_Chiralities_Consistent>
1

> <s_lp_Variant>
AV-unprocessed.smi:2962-1

> <Gold.Version>
5.8.1

> <Gold.Id.Protein>
6NUR|6NUR_protein|mol2

> <Gold.PLP.Fitness>
46.3341

> <Gold.PLP.PLP>
-35.8011

> <Gold.PLP.part.hbond>
-4.3130

> <Gold.PLP.part.metal>
0.0000

> <Gold.PLP.part.buried>
-2.4226

> <Gold.PLP.part.nonpolar>
-27.8789

> <Gold.PLP.part.repulsive>
0.3446

> <Gold.PLP.ligand.clash>
0.0000

> <Gold.PLP.ligand.torsion>
0.3400

> <Gold.PLP.Chemscore.Hbond>
3.7200

> <Gold.PLP.Chemscore.CHOScore>
0.0000

> <Gold.PLP.Chemscore.Metal>
0.0000

> <Gold.Chemscore.Hbonds>
donor molecule, donor type, donor heavy atom, donor atom, acceptor molecule, acceptor atom, score
      L1  H    11    31       P1  7948  0.96
      P1  H  7997  8008       L1    13  0.96
      P1  H  8011  8017       L1     2  0.59
      P1  H 10752 10764       L1    12  1.00

> <Gold.PLP.Chemscore.Internal.Correction>
0.0530

> <Gold.Rescore>
     Score         DG    S(hbond)    S(metal)    S(lipo)     H(rot)  DE(clash)    DE(int)     intcor
     17.80     -20.01       2.77        0.00      99.93       2.50       1.82       0.39       ----

> <Gold.Chemscore.Fitness>
17.7972

> <Gold.Chemscore.DG>
-20.0112

> <Gold.Chemscore.ZeroCoef>
-5.4800

> <Gold.Chemscore.Hbond>
2.7685

> <Gold.Chemscore.Metal>
0.0000

> <Gold.Chemscore.Lipo>
99.9260

> <Gold.Chemscore.Internal_Hbond>
0.0000

> <Gold.Chemscore.DEClash>
1.8248

> <Gold.Chemscore.DEInternal>
0.3892

> <Gold.Chemscore.Rot>
2.5027

> <Gold.Chemscore.Internal.Correction>
   9.000000E+99

> <Gold.Chemscore.Hbonds>
donor molecule, donor type, donor heavy atom, donor atom, acceptor molecule, acceptor atom, score
      L1  H    11    31       P1  7948  0.87
      P1  H  7997  8008       L1    13  0.44
      P1  H  8011  8017       L1     2  0.52
      P1  H 10752 10764       L1    12  0.90

> <Gold.Chemscore.Hbond.Weighted>
-9.2469

> <Gold.Chemscore.Metal.Weighted>
-0.0000

> <Gold.Chemscore.Lipo.Weighted>
-11.6913

> <Gold.Chemscore.Internal_Hbond.Weighted>
0.0000

> <Gold.Chemscore.DEClash.Weighted>
1.8248

> <Gold.Chemscore.DEInternal.Weighted>
0.3892

> <Gold.Chemscore.Rot.Weighted>
6.4070

> <Gold.Chemscore.Internal.Correction.Weighted>
   9.000000E+99

> <Gold.Protein.RotatedTorsions>
[ 6907 6896 6895 6894 ] final  178.15 input  -60.11 | X-H torsion
[ 7974 7965 7964 7962 ] final   -6.63 input  175.53 | X-H torsion
[ 8008 7997 7996 7995 ] final  -78.64 input   59.86 | X-H torsion
[ 10167 10162 10161 10158 ] final  -83.64 input  -65.29 | X-H torsion
[ 10718 10713 10712 10709 ] final   39.93 input   66.30 | X-H torsion
[ 10763 10752 10751 10750 ] final  -63.07 input  -60.55 | X-H torsion
[ 11005 11000 10999 10996 ] final  143.34 input  -57.11 | X-H torsion

> <Gold.Protein.ActiveResidues>
 VAL166  LYS551  ARG553  GLY616  TRP617  ASP618  TYR619  PRO620  LYS621  CYS622 
 ASP623  PHE694  ASN695  SER759  ASP760  ASP761  ALA762  ILE779  LEU786  VAL792 
 PHE793  MET794  SER795  GLU796  ALA797  LYS798  CYS799  TRP800  GLU811  SER814 

> <Gold.Protein.RotatedAtoms>
  151.6924  133.3311  159.3245 H   0  0  0  0  0  0  0  0  0  0  0  0  # atno 6907 bound_to 6896
  150.7773  134.6687  159.6389 H   0  0  0  0  0  0  0  0  0  0  0  0  # atno 6908 bound_to 6896
  152.3819  134.6580  160.0192 H   0  0  0  0  0  0  0  0  0  0  0  0  # atno 6909 bound_to 6896
  146.2326  140.2199  142.8337 H   0  0  0  0  0  0  0  0  0  0  0  0  # atno 7974 bound_to 7965
  154.5709  140.0691  156.8962 H   0  0  0  0  0  0  0  0  0  0  0  0  # atno 8008 bound_to 7997
  155.2637  140.3360  155.4253 H   0  0  0  0  0  0  0  0  0  0  0  0  # atno 8009 bound_to 7997
  156.2117  140.1762  156.7665 H   0  0  0  0  0  0  0  0  0  0  0  0  # atno 8010 bound_to 7997
  140.4208  143.2585  151.8893 H   0  0  0  0  0  0  0  0  0  0  0  0  # atno 10167 bound_to 10162
  157.3762  130.7728  149.7157 H   0  0  0  0  0  0  0  0  0  0  0  0  # atno 10718 bound_to 10713
  154.3095  135.6218  153.5459 H   0  0  0  0  0  0  0  0  0  0  0  0  # atno 10763 bound_to 10752
  152.9831  135.5698  154.5193 H   0  0  0  0  0  0  0  0  0  0  0  0  # atno 10764 bound_to 10752
  154.4840  135.2864  155.1525 H   0  0  0  0  0  0  0  0  0  0  0  0  # atno 10765 bound_to 10752
  140.0547  134.9237  157.1078 H   0  0  0  0  0  0  0  0  0  0  0  0  # atno 11005 bound_to 11000
  144.9640  140.8303  143.5496 LP  0  0  0  0  0  0  0  0  0  0  0  0  # atno 17320 bound_to 7965
  145.2173  139.2176  143.5111 LP  0  0  0  0  0  0  0  0  0  0  0  0  # atno 17321 bound_to 7965
  139.4782  144.5439  151.8487 LP  0  0  0  0  0  0  0  0  0  0  0  0  # atno 17342 bound_to 10162
  140.4536  144.1821  150.5899 LP  0  0  0  0  0  0  0  0  0  0  0  0  # atno 17343 bound_to 10162
  155.9766  130.4074  150.3769 LP  0  0  0  0  0  0  0  0  0  0  0  0  # atno 17370 bound_to 10713
  157.1867  131.0405  151.2721 LP  0  0  0  0  0  0  0  0  0  0  0  0  # atno 17371 bound_to 10713
  140.3863  134.2232  155.7168 LP  0  0  0  0  0  0  0  0  0  0  0  0  # atno 17394 bound_to 11000
  141.1946  133.8124  157.0749 LP  0  0  0  0  0  0  0  0  0  0  0  0  # atno 17395 bound_to 11000

$$$$
