AV-unprocessed.smi:2090|AV-procd|sdf|8532|dock9
  -GOLD-   2272011253D 1   1.00000     0.00000
 Structure written by MMmdl.
 42 43  0  0  0  0  0  0  0  0  2 V2000
  151.4882  141.8867  157.5878 C   0  0  0  0  0  0  0  0  0  0  0  0
  151.2242  140.8645  156.5362 C   0  0  0  0  0  0  0  0  0  0  0  0
  150.1962  140.6808  155.6548 C   0  0  0  0  0  0  0  0  0  0  0  0
  150.5923  139.5191  154.9403 C   0  0  0  0  0  0  0  0  0  0  0  0
  149.7829  138.9914  153.9023 N   0  0  0  0  0  0  0  0  0  0  0  0
  148.5438  139.3790  153.5556 C   0  0  0  0  0  0  0  0  0  0  0  0
  147.9152  140.3004  154.0775 O   0  0  0  0  0  0  0  0  0  0  0  0
  148.0554  138.6271  152.5584 N   0  0  0  0  0  0  0  0  0  0  0  0
  146.7294  138.7859  151.9719 C   0  0  0  0  0  0  0  0  0  0  0  0
  145.7139  137.8137  152.6037 C   0  0  0  0  0  0  0  0  0  0  0  0
  145.8873  136.4196  152.1240 N   0  3  2  0  0  0  0  0  0  0  0  0
  145.2320  136.1957  150.8093 C   0  0  0  0  0  0  0  0  0  0  0  0
  145.5402  134.7908  150.2651 C   0  0  0  0  0  0  0  0  0  0  0  0
  145.1153  133.7014  151.2634 C   0  0  1  0  0  0  0  0  0  0  0  0
  145.4400  132.2943  150.7431 C   0  0  0  0  0  0  0  0  0  0  0  0
  145.7808  133.9756  152.6222 C   0  0  0  0  0  0  0  0  0  0  0  0
  145.4702  135.3972  153.1204 C   0  0  0  0  0  0  0  0  0  0  0  0
  151.7542  139.0347  155.3513 N   0  0  0  0  0  0  0  0  0  0  0  0
  152.1649  139.8942  156.3770 O   0  0  0  0  0  0  0  0  0  0  0  0
  150.7873  142.7177  157.5079 H   0  0  0  0  0  0  0  0  0  0  0  0
  152.4981  142.2867  157.4941 H   0  0  0  0  0  0  0  0  0  0  0  0
  151.3865  141.4523  158.5822 H   0  0  0  0  0  0  0  0  0  0  0  0
  149.3082  141.2846  155.5399 H   0  0  0  0  0  0  0  0  0  0  0  0
  150.1831  138.2246  153.3826 H   0  0  0  0  0  0  0  0  0  0  0  0
  148.6382  137.8934  152.1821 H   0  0  0  0  0  0  0  0  0  0  0  0
  146.3939  139.8181  152.0867 H   0  0  0  0  0  0  0  0  0  0  0  0
  146.8267  138.6075  150.9019 H   0  0  0  0  0  0  0  0  0  0  0  0
  145.7747  137.8422  153.6929 H   0  0  0  0  0  0  0  0  0  0  0  0
  144.7091  138.1506  152.3444 H   0  0  0  0  0  0  0  0  0  0  0  0
  144.1542  136.3339  150.9098 H   0  0  0  0  0  0  0  0  0  0  0  0
  145.5809  136.9383  150.0905 H   0  0  0  0  0  0  0  0  0  0  0  0
  145.0280  134.6465  149.3132 H   0  0  0  0  0  0  0  0  0  0  0  0
  146.6078  134.7075  150.0562 H   0  0  0  0  0  0  0  0  0  0  0  0
  144.0341  133.7643  151.3954 H   0  0  0  0  0  0  0  0  0  0  0  0
  146.5120  132.1624  150.5927 H   0  0  0  0  0  0  0  0  0  0  0  0
  144.9448  132.1042  149.7904 H   0  0  0  0  0  0  0  0  0  0  0  0
  145.1058  131.5302  151.4457 H   0  0  0  0  0  0  0  0  0  0  0  0
  145.4402  133.2468  153.3585 H   0  0  0  0  0  0  0  0  0  0  0  0
  146.8611  133.8476  152.5388 H   0  0  0  0  0  0  0  0  0  0  0  0
  145.9848  135.5557  154.0672 H   0  0  0  0  0  0  0  0  0  0  0  0
  144.4025  135.4983  153.3216 H   0  0  0  0  0  0  0  0  0  0  0  0
  146.8773  136.2941  151.9670 H   0  0  0  0  0  0  0  0  0  0  0  0
  1  2  1  0  0  0  0
  1 20  1  0  0  0  0
  1 21  1  0  0  0  0
  1 22  1  0  0  0  0
  2 19  1  0  0  0  0
  2  3  2  0  0  0  0
  3  4  1  0  0  0  0
  3 23  1  0  0  0  0
  4  5  1  0  0  0  0
  4 18  2  0  0  0  0
  5  6  1  0  0  0  0
  5 24  1  0  0  0  0
  6  7  2  0  0  0  0
  6  8  1  0  0  0  0
  8  9  1  0  0  0  0
  8 25  1  0  0  0  0
  9 10  1  0  0  0  0
  9 26  1  0  0  0  0
  9 27  1  0  0  0  0
 10 11  1  0  0  0  0
 10 28  1  0  0  0  0
 10 29  1  0  0  0  0
 11 17  1  0  0  0  0
 11 12  1  0  0  0  0
 11 42  1  0  0  0  0
 12 13  1  0  0  0  0
 12 30  1  0  0  0  0
 12 31  1  0  0  0  0
 13 14  1  0  0  0  0
 13 32  1  0  0  0  0
 13 33  1  0  0  0  0
 14 15  1  0  0  0  0
 14 16  1  0  0  0  0
 14 34  1  0  0  0  0
 15 35  1  0  0  0  0
 15 36  1  0  0  0  0
 15 37  1  0  0  0  0
 16 17  1  0  0  0  0
 16 38  1  0  0  0  0
 16 39  1  0  0  0  0
 17 40  1  0  0  0  0
 17 41  1  0  0  0  0
 18 19  1  0  0  0  0
M  CHG  1  11   1
M  END
> <s_m_source_file>
AV-unprocessed.smi

> <i_m_source_file_index>
2090

> <i_lp_mmshare_version>
43012

> <i_f3d_flags>
0

> <s_epik_input>
W0NIM11jMVtjSF1jKG5vMSlbTkhdQyg9TylbTkhdW0NIMl1bQ0gyXU4yW0NIMl1bQ0gyXVtDSF0oW0NIM10pW0NIMl1bQ0gyXTI=

> <s_epik_cmdline>
J2VwaWtfcHl0aG9uJywgJy1waCcsICc3LjAnLCAnLXRuJywgJzgnLCAnLW1hJywgJzIwMCcsICctbWV0YWxfYmluZGluZycsICctaW1hZScsICc8aW5maWxlLm1hZT4nLCAnLW9tYWUnLCAnPG91dGZpbGUubWFlPic=

> <r_epik_Ionization_Penalty>
0.00176265

> <r_epik_Ionization_Penalty_Charging>
0.00172695

> <r_epik_Ionization_Penalty_Neutral>
3.56992e-05

> <r_epik_State_Penalty>
0.00116803

> <r_epik_Charging_Adjusted_Penalty>
0.00289498

> <i_epik_Tot_Q>
1

> <i_epik_Tot_abs_Q>
1

> <r_epik_Metal_State_Penalty>
0.0215312

> <b_epik_Metal_Only>
0

> <s_lp_Force_Field>
OPLS_2005

> <r_lp_Energy>
12.7246

> <b_lp_Chiralities_Consistent>
1

> <s_lp_Variant>
AV-unprocessed.smi:2090-1

> <Gold.Version>
5.8.1

> <Gold.Id.Protein>
6NUR|6NUR_protein|mol2

> <Gold.PLP.Fitness>
42.0364

> <Gold.PLP.PLP>
-31.0926

> <Gold.PLP.part.hbond>
-5.0000

> <Gold.PLP.part.metal>
0.0000

> <Gold.PLP.part.buried>
-0.1019

> <Gold.PLP.part.nonpolar>
-25.8046

> <Gold.PLP.part.repulsive>
0.3008

> <Gold.PLP.ligand.clash>
0.0000

> <Gold.PLP.ligand.torsion>
0.5277

> <Gold.PLP.Chemscore.Hbond>
3.9920

> <Gold.PLP.Chemscore.CHOScore>
0.0000

> <Gold.PLP.Chemscore.Metal>
0.0000

> <Gold.Chemscore.Hbonds>
donor molecule, donor type, donor heavy atom, donor atom, acceptor molecule, acceptor atom, score
      L1  H     8    25       P1  7948  1.00
      L1  H    11    42       P1  7948  1.89
      P1  H  7997  8009       L1    19  0.63

> <Gold.PLP.Chemscore.Internal.Correction>
0.0232

> <Gold.Rescore>
     Score         DG    S(hbond)    S(metal)    S(lipo)     H(rot)  DE(clash)    DE(int)     intcor
     16.10     -18.39       2.85        0.00      63.35       1.57       0.47       1.82       ----

> <Gold.Chemscore.Fitness>
16.0987

> <Gold.Chemscore.DG>
-18.3917

> <Gold.Chemscore.ZeroCoef>
-5.4800

> <Gold.Chemscore.Hbond>
2.8498

> <Gold.Chemscore.Metal>
0.0000

> <Gold.Chemscore.Lipo>
63.3487

> <Gold.Chemscore.Internal_Hbond>
0.0000

> <Gold.Chemscore.DEClash>
0.4693

> <Gold.Chemscore.DEInternal>
1.8237

> <Gold.Chemscore.Rot>
1.5697

> <Gold.Chemscore.Internal.Correction>
   9.000000E+99

> <Gold.Chemscore.Hbonds>
donor molecule, donor type, donor heavy atom, donor atom, acceptor molecule, acceptor atom, score
      L1  H     8    25       P1  7948  0.97
      L1  H    11    42       P1  7948  0.90
      P1  H  7997  8009       L1    19  0.49

> <Gold.Chemscore.Hbond.Weighted>
-9.5184

> <Gold.Chemscore.Metal.Weighted>
-0.0000

> <Gold.Chemscore.Lipo.Weighted>
-7.4118

> <Gold.Chemscore.Internal_Hbond.Weighted>
0.0000

> <Gold.Chemscore.DEClash.Weighted>
0.4693

> <Gold.Chemscore.DEInternal.Weighted>
1.8237

> <Gold.Chemscore.Rot.Weighted>
4.0185

> <Gold.Chemscore.Internal.Correction.Weighted>
   9.000000E+99

> <Gold.Protein.RotatedTorsions>
[ 6907 6896 6895 6894 ] final -108.47 input  -60.11 | X-H torsion
[ 7974 7965 7964 7962 ] final -145.31 input  175.53 | X-H torsion
[ 8008 7997 7996 7995 ] final -165.10 input   59.86 | X-H torsion
[ 10167 10162 10161 10158 ] final  -48.21 input  -65.29 | X-H torsion
[ 10718 10713 10712 10709 ] final  155.18 input   66.30 | X-H torsion
[ 10763 10752 10751 10750 ] final  140.49 input  -60.55 | X-H torsion
[ 11005 11000 10999 10996 ] final   12.90 input  -57.11 | X-H torsion

> <Gold.Protein.ActiveResidues>
 VAL166  LYS551  ARG553  GLY616  TRP617  ASP618  TYR619  PRO620  LYS621  CYS622 
 ASP623  PHE694  ASN695  SER759  ASP760  ASP761  ALA762  ILE779  LEU786  VAL792 
 PHE793  MET794  SER795  GLU796  ALA797  LYS798  CYS799  TRP800  GLU811  SER814 

> <Gold.Protein.RotatedAtoms>
  150.7504  133.9673  159.3534 H   0  0  0  0  0  0  0  0  0  0  0  0  # atno 6907 bound_to 6896
  151.7604  135.0809  160.0354 H   0  0  0  0  0  0  0  0  0  0  0  0  # atno 6908 bound_to 6896
  152.3407  133.6027  159.5910 H   0  0  0  0  0  0  0  0  0  0  0  0  # atno 6909 bound_to 6896
  144.8236  140.5599  143.5562 H   0  0  0  0  0  0  0  0  0  0  0  0  # atno 7974 bound_to 7965
  155.8450  140.0954  157.1711 H   0  0  0  0  0  0  0  0  0  0  0  0  # atno 8008 bound_to 7997
  154.3983  140.1394  156.3836 H   0  0  0  0  0  0  0  0  0  0  0  0  # atno 8009 bound_to 7997
  155.8023  140.3452  155.5412 H   0  0  0  0  0  0  0  0  0  0  0  0  # atno 8010 bound_to 7997
  140.6741  143.2750  151.4038 H   0  0  0  0  0  0  0  0  0  0  0  0  # atno 10167 bound_to 10162
  157.2217  131.0720  151.1908 H   0  0  0  0  0  0  0  0  0  0  0  0  # atno 10718 bound_to 10713
  153.9236  135.2998  155.3447 H   0  0  0  0  0  0  0  0  0  0  0  0  # atno 10763 bound_to 10752
  154.7563  135.4956  153.9384 H   0  0  0  0  0  0  0  0  0  0  0  0  # atno 10764 bound_to 10752
  153.1129  135.6763  153.9573 H   0  0  0  0  0  0  0  0  0  0  0  0  # atno 10765 bound_to 10752
  140.4868  134.0880  155.7762 H   0  0  0  0  0  0  0  0  0  0  0  0  # atno 11005 bound_to 11000
  145.5050  139.1481  143.3636 LP  0  0  0  0  0  0  0  0  0  0  0  0  # atno 17320 bound_to 7965
  146.2542  140.5190  142.8881 LP  0  0  0  0  0  0  0  0  0  0  0  0  # atno 17321 bound_to 7965
  139.6024  144.1268  152.2212 LP  0  0  0  0  0  0  0  0  0  0  0  0  # atno 17342 bound_to 10162
  140.0656  144.5821  150.7230 LP  0  0  0  0  0  0  0  0  0  0  0  0  # atno 17343 bound_to 10162
  157.3569  130.7111  149.6476 LP  0  0  0  0  0  0  0  0  0  0  0  0  # atno 17370 bound_to 10713
  155.9682  130.4237  150.4573 LP  0  0  0  0  0  0  0  0  0  0  0  0  # atno 17371 bound_to 10713
  141.1504  133.8979  157.2112 LP  0  0  0  0  0  0  0  0  0  0  0  0  # atno 17394 bound_to 11000
  139.9793  135.0103  156.9710 LP  0  0  0  0  0  0  0  0  0  0  0  0  # atno 17395 bound_to 11000

$$$$
