AV-unprocessed.smi:851|AV-procd|sdf|3949|dock4
  -GOLD-   22720 1423D 1   1.00000     0.00000
 Structure written by MMmdl.
 34 35  0  0  0  0  0  0  0  0  1 V2000
  146.2881  133.2092  150.5598 C   0  0  0  0  0  0  0  0  0  0  0  0
  147.1260  133.5221  151.6666 O   0  0  0  0  0  0  0  0  0  0  0  0
  147.3376  132.5538  152.6299 C   0  0  0  0  0  0  0  0  0  0  0  0
  146.6908  131.3675  152.5079 N   0  0  0  0  0  0  0  0  0  0  0  0
  146.9019  130.4218  153.4466 C   0  0  0  0  0  0  0  0  0  0  0  0
  147.7654  130.6033  154.5426 C   0  0  0  0  0  0  0  0  0  0  0  0
  148.4370  131.8330  154.6715 C   0  0  0  0  0  0  0  0  0  0  0  0
  148.2143  132.8403  153.7018 C   0  0  0  0  0  0  0  0  0  0  0  0
  148.8496  134.1116  153.7185 N   0  0  0  0  0  0  0  0  0  0  0  0
  149.5866  134.6819  154.6908 C   0  0  0  0  0  0  0  0  0  0  0  0
  149.8666  134.1508  155.7630 O   0  0  0  0  0  0  0  0  0  0  0  0
  149.9924  135.9328  154.4066 N   0  0  0  0  0  0  0  0  0  0  0  0
  150.8006  136.8305  155.2345 C   0  0  2  0  0  0  0  0  0  0  0  0
  149.9916  137.3509  156.4371 C   0  0  0  0  0  0  0  0  0  0  0  0
  150.7450  138.5308  157.0643 C   0  0  0  0  0  0  0  0  0  0  0  0
  151.6566  139.3393  155.6942 S   0  0  0  0  0  0  0  0  0  0  0  0
  150.9748  140.5852  155.3128 O   0  0  0  0  0  0  0  0  0  0  0  0
  153.0937  139.3268  156.0067 O   0  0  0  0  0  0  0  0  0  0  0  0
  151.2968  138.0518  154.4427 C   0  0  0  0  0  0  0  0  0  0  0  0
  146.2247  134.0752  149.9009 H   0  0  0  0  0  0  0  0  0  0  0  0
  145.2749  132.9644  150.8821 H   0  0  0  0  0  0  0  0  0  0  0  0
  146.6902  132.3791  149.9773 H   0  0  0  0  0  0  0  0  0  0  0  0
  146.3710  129.4903  153.3170 H   0  0  0  0  0  0  0  0  0  0  0  0
  147.9130  129.8150  155.2658 H   0  0  0  0  0  0  0  0  0  0  0  0
  149.1155  131.9709  155.4986 H   0  0  0  0  0  0  0  0  0  0  0  0
  148.6463  134.6992  152.9231 H   0  0  0  0  0  0  0  0  0  0  0  0
  149.6880  136.3105  153.5208 H   0  0  0  0  0  0  0  0  0  0  0  0
  151.6638  136.2931  155.6317 H   0  0  0  0  0  0  0  0  0  0  0  0
  149.0197  137.7048  156.0896 H   0  0  0  0  0  0  0  0  0  0  0  0
  149.8003  136.5650  157.1685 H   0  0  0  0  0  0  0  0  0  0  0  0
  150.0835  139.2463  157.5529 H   0  0  0  0  0  0  0  0  0  0  0  0
  151.4763  138.1791  157.7925 H   0  0  0  0  0  0  0  0  0  0  0  0
  152.1874  137.8503  153.8470 H   0  0  0  0  0  0  0  0  0  0  0  0
  150.5176  138.4375  153.7840 H   0  0  0  0  0  0  0  0  0  0  0  0
  1  2  1  0  0  0  0
  1 20  1  0  0  0  0
  1 21  1  0  0  0  0
  1 22  1  0  0  0  0
  2  3  1  0  0  0  0
  3  8  1  0  0  0  0
  3  4  2  0  0  0  0
  4  5  1  0  0  0  0
  5  6  2  0  0  0  0
  5 23  1  0  0  0  0
  6  7  1  0  0  0  0
  6 24  1  0  0  0  0
  7  8  2  0  0  0  0
  7 25  1  0  0  0  0
  8  9  1  0  0  0  0
  9 10  1  0  0  0  0
  9 26  1  0  0  0  0
 10 11  2  0  0  0  0
 10 12  1  0  0  0  0
 12 13  1  0  0  0  0
 12 27  1  0  0  0  0
 13 19  1  0  0  0  0
 13 14  1  0  0  0  0
 13 28  1  0  0  0  0
 14 15  1  0  0  0  0
 14 29  1  0  0  0  0
 14 30  1  0  0  0  0
 15 16  1  0  0  0  0
 15 31  1  0  0  0  0
 15 32  1  0  0  0  0
 16 17  2  0  0  0  0
 16 18  2  0  0  0  0
 16 19  1  0  0  0  0
 19 33  1  0  0  0  0
 19 34  1  0  0  0  0
M  END
> <s_m_source_file>
AV-unprocessed.smi

> <i_m_source_file_index>
851

> <i_lp_mmshare_version>
43012

> <i_f3d_flags>
0

> <s_epik_input>
W0NIM11PYzFuW2NIXVtjSF1bY0hdYzFbTkhdQyg9TylbTkhdW0NAQEhdKFtDSDJdMilbQ0gyXVtDSDJdUzIoPU8pPU8=

> <s_epik_cmdline>
J2VwaWtfcHl0aG9uJywgJy1waCcsICc3LjAnLCAnLXRuJywgJzgnLCAnLW1hJywgJzIwMCcsICctbWV0YWxfYmluZGluZycsICctaW1hZScsICc8aW5maWxlLm1hZT4nLCAnLW9tYWUnLCAnPG91dGZpbGUubWFlPic=

> <r_lp_tautomer_probability>
1

> <r_epik_Ionization_Penalty>
7.64927e-05

> <r_epik_Ionization_Penalty_Charging>
0

> <r_epik_Ionization_Penalty_Neutral>
7.64927e-05

> <r_epik_State_Penalty>
-0

> <r_epik_Charging_Adjusted_Penalty>
0

> <i_epik_Tot_Q>
0

> <i_epik_Tot_abs_Q>
0

> <r_epik_Metal_State_Penalty>
-0

> <b_epik_Metal_Only>
0

> <s_lp_Force_Field>
OPLS_2005

> <r_lp_Energy>
17.9576

> <b_lp_Chiralities_Consistent>
1

> <s_lp_Variant>
AV-unprocessed.smi:851-1

> <Gold.Version>
5.8.1

> <Gold.Id.Protein>
6NUR|6NUR_protein|mol2

> <Gold.PLP.Fitness>
38.7185

> <Gold.PLP.PLP>
-27.2465

> <Gold.PLP.part.hbond>
-4.6187

> <Gold.PLP.part.metal>
0.0000

> <Gold.PLP.part.buried>
-3.5934

> <Gold.PLP.part.nonpolar>
-19.7046

> <Gold.PLP.part.repulsive>
0.4957

> <Gold.PLP.ligand.clash>
0.0000

> <Gold.PLP.ligand.torsion>
0.1564

> <Gold.PLP.Chemscore.Hbond>
3.9280

> <Gold.PLP.Chemscore.CHOScore>
0.0000

> <Gold.PLP.Chemscore.Metal>
0.0000

> <Gold.Chemscore.Hbonds>
donor molecule, donor type, donor heavy atom, donor atom, acceptor molecule, acceptor atom, score
      L1  H     9    26       P1  7948  0.95
      L1  H    12    27       P1  7948  1.00
      P1  H  7989  7998       L1    17  0.93
      P1  H  7997  8010       L1    18  1.00

> <Gold.PLP.Chemscore.Internal.Correction>
0.0006

> <Gold.Rescore>
     Score         DG    S(hbond)    S(metal)    S(lipo)     H(rot)  DE(clash)    DE(int)     intcor
     16.66     -18.12       3.36        0.00      40.87       1.31       0.05       1.41       ----

> <Gold.Chemscore.Fitness>
16.6578

> <Gold.Chemscore.DG>
-18.1190

> <Gold.Chemscore.ZeroCoef>
-5.4800

> <Gold.Chemscore.Hbond>
3.3571

> <Gold.Chemscore.Metal>
0.0000

> <Gold.Chemscore.Lipo>
40.8736

> <Gold.Chemscore.Internal_Hbond>
0.0000

> <Gold.Chemscore.DEClash>
0.0471

> <Gold.Chemscore.DEInternal>
1.4141

> <Gold.Chemscore.Rot>
1.3109

> <Gold.Chemscore.Internal.Correction>
   9.000000E+99

> <Gold.Chemscore.Hbonds>
donor molecule, donor type, donor heavy atom, donor atom, acceptor molecule, acceptor atom, score
      L1  H     9    26       P1  7948  0.21
      L1  H    12    27       P1  7948  0.34
      P1  H  7989  7998       L1    17  0.31
      P1  H  7997  8010       L1    18  0.93

> <Gold.Chemscore.Hbond.Weighted>
-11.2127

> <Gold.Chemscore.Metal.Weighted>
-0.0000

> <Gold.Chemscore.Lipo.Weighted>
-4.7822

> <Gold.Chemscore.Internal_Hbond.Weighted>
0.0000

> <Gold.Chemscore.DEClash.Weighted>
0.0471

> <Gold.Chemscore.DEInternal.Weighted>
1.4141

> <Gold.Chemscore.Rot.Weighted>
3.3559

> <Gold.Chemscore.Internal.Correction.Weighted>
   9.000000E+99

> <Gold.Protein.RotatedTorsions>
[ 6907 6896 6895 6894 ] final  146.39 input  -60.11 | X-H torsion
[ 7974 7965 7964 7962 ] final  -24.82 input  175.53 | X-H torsion
[ 8008 7997 7996 7995 ] final   69.79 input   59.86 | X-H torsion
[ 10167 10162 10161 10158 ] final  123.21 input  -65.29 | X-H torsion
[ 10718 10713 10712 10709 ] final   63.57 input   66.30 | X-H torsion
[ 10763 10752 10751 10750 ] final   16.99 input  -60.55 | X-H torsion
[ 11005 11000 10999 10996 ] final -110.47 input  -57.11 | X-H torsion

> <Gold.Protein.ActiveResidues>
 VAL166  LYS551  ARG553  GLY616  TRP617  ASP618  TYR619  PRO620  LYS621  CYS622 
 ASP623  PHE694  ASN695  SER759  ASP760  ASP761  ALA762  ILE779  LEU786  VAL792 
 PHE793  MET794  SER795  GLU796  ALA797  LYS798  CYS799  TRP800  GLU811  SER814 

> <Gold.Protein.RotatedAtoms>
  152.1685  133.4628  159.4896 H   0  0  0  0  0  0  0  0  0  0  0  0  # atno 6907 bound_to 6896
  150.6916  134.1982  159.4321 H   0  0  0  0  0  0  0  0  0  0  0  0  # atno 6908 bound_to 6896
  151.9888  134.9990  160.0611 H   0  0  0  0  0  0  0  0  0  0  0  0  # atno 6909 bound_to 6896
  146.1530  140.4803  142.8603 H   0  0  0  0  0  0  0  0  0  0  0  0  # atno 7974 bound_to 7965
  155.7290  140.3492  155.5050 H   0  0  0  0  0  0  0  0  0  0  0  0  # atno 8008 bound_to 7997
  155.9200  140.1065  157.1236 H   0  0  0  0  0  0  0  0  0  0  0  0  # atno 8009 bound_to 7997
  154.4068  140.1251  156.4654 H   0  0  0  0  0  0  0  0  0  0  0  0  # atno 8010 bound_to 7997
  139.5813  144.6987  151.3522 H   0  0  0  0  0  0  0  0  0  0  0  0  # atno 10167 bound_to 10162
  157.5980  130.9113  149.9733 H   0  0  0  0  0  0  0  0  0  0  0  0  # atno 10718 bound_to 10713
  153.1380  135.6754  153.9072 H   0  0  0  0  0  0  0  0  0  0  0  0  # atno 10763 bound_to 10752
  153.8538  135.3090  155.3435 H   0  0  0  0  0  0  0  0  0  0  0  0  # atno 10764 bound_to 10752
  154.7764  135.4912  153.9836 H   0  0  0  0  0  0  0  0  0  0  0  0  # atno 10765 bound_to 10752
  141.0790  133.9253  157.2330 H   0  0  0  0  0  0  0  0  0  0  0  0  # atno 11005 bound_to 11000
  144.7928  140.6065  143.6530 LP  0  0  0  0  0  0  0  0  0  0  0  0  # atno 17320 bound_to 7965
  145.4776  139.1498  143.3779 LP  0  0  0  0  0  0  0  0  0  0  0  0  # atno 17321 bound_to 7965
  140.7090  143.7438  150.7534 LP  0  0  0  0  0  0  0  0  0  0  0  0  # atno 17342 bound_to 10162
  140.0971  143.4822  152.2446 LP  0  0  0  0  0  0  0  0  0  0  0  0  # atno 17343 bound_to 10162
  156.1047  130.3653  150.0154 LP  0  0  0  0  0  0  0  0  0  0  0  0  # atno 17370 bound_to 10713
  156.8263  130.9377  151.3639 LP  0  0  0  0  0  0  0  0  0  0  0  0  # atno 17371 bound_to 10713
  139.9603  135.0156  156.9241 LP  0  0  0  0  0  0  0  0  0  0  0  0  # atno 17394 bound_to 11000
  140.5511  134.0626  155.7369 LP  0  0  0  0  0  0  0  0  0  0  0  0  # atno 17395 bound_to 11000

$$$$
