AV-unprocessed.smi:104|AV-procd|sdf|999|dock6
  -GOLD-   2262017583D 1   1.00000     0.00000
 Structure written by MMmdl.
 47 49  0  0  0  0  0  0  0  0  1 V2000
  150.7449  136.4220  156.8294 C   0  0  0  0  0  0  0  0  0  0  0  0
  149.9201  136.5345  158.1047 C   0  0  0  0  0  0  0  0  0  0  0  0
  150.4244  136.8976  159.1677 O   0  0  0  0  0  0  0  0  0  0  0  0
  148.6354  136.1997  157.9141 O   0  0  0  0  0  0  0  0  0  0  0  0
  147.7451  136.1859  159.0174 C   0  0  0  0  0  0  0  0  0  0  0  0
  147.9314  134.8841  159.8043 C   0  0  2  0  0  0  0  0  0  0  0  0
  147.7403  133.7711  158.9450 O   0  0  0  0  0  0  0  0  0  0  0  0
  147.3603  132.6617  159.6950 C   0  0  2  0  0  0  0  0  0  0  0  0
  146.3297  131.9145  158.9039 N   0  0  0  0  0  0  0  0  0  0  0  0
  145.8156  132.1975  157.6590 C   0  0  0  0  0  0  0  0  0  0  0  0
  146.3851  133.7009  156.6386 Br  0  0  0  0  0  0  0  0  0  0  0  0
  144.9186  131.3787  157.1849 N   0  0  0  0  0  0  0  0  0  0  0  0
  144.8043  130.4314  158.1949 C   0  0  0  0  0  0  0  0  0  0  0  0
  144.0267  129.2579  158.3617 C   0  0  0  0  0  0  0  0  0  0  0  0
  143.1525  128.8231  157.4433 N   0  0  0  0  0  0  0  0  0  0  0  0
  144.1735  128.5411  159.5005 N   0  0  0  0  0  0  0  0  0  0  0  0
  145.0397  128.9527  160.4323 C   0  0  0  0  0  0  0  0  0  0  0  0
  145.8325  130.0274  160.4200 N   0  0  0  0  0  0  0  0  0  0  0  0
  145.6818  130.7517  159.2720 C   0  0  0  0  0  0  0  0  0  0  0  0
  146.8233  133.1665  161.0515 C   0  0  2  0  0  0  0  0  0  0  0  0
  145.4936  132.7252  161.3120 O   0  0  0  0  0  0  0  0  0  0  0  0
  144.7029  133.4078  162.1549 C   0  0  0  0  0  0  0  0  0  0  0  0
  143.2302  133.2931  161.7863 C   0  0  0  0  0  0  0  0  0  0  0  0
  145.0746  134.0680  163.1251 O   0  0  0  0  0  0  0  0  0  0  0  0
  146.8804  134.6801  160.8952 C   0  0  1  0  0  0  0  0  0  0  0  0
  147.2973  135.2628  162.1238 O   0  0  0  0  0  0  0  0  0  0  0  0
  147.3373  136.5978  162.2674 C   0  0  0  0  0  0  0  0  0  0  0  0
  147.6997  137.0152  163.6861 C   0  0  0  0  0  0  0  0  0  0  0  0
  147.1176  137.4313  161.3886 O   0  0  0  0  0  0  0  0  0  0  0  0
  150.4803  137.2211  156.1367 H   0  0  0  0  0  0  0  0  0  0  0  0
  150.5619  135.4646  156.3413 H   0  0  0  0  0  0  0  0  0  0  0  0
  151.8092  136.4960  157.0535 H   0  0  0  0  0  0  0  0  0  0  0  0
  147.9681  137.0415  159.6561 H   0  0  0  0  0  0  0  0  0  0  0  0
  146.7111  136.2858  158.6839 H   0  0  0  0  0  0  0  0  0  0  0  0
  148.9317  134.8257  160.2379 H   0  0  0  0  0  0  0  0  0  0  0  0
  148.2007  131.9767  159.8016 H   0  0  0  0  0  0  0  0  0  0  0  0
  143.0253  129.3396  156.5848 H   0  0  0  0  0  0  0  0  0  0  0  0
  142.6185  127.9832  157.6132 H   0  0  0  0  0  0  0  0  0  0  0  0
  145.1071  128.3331  161.3144 H   0  0  0  0  0  0  0  0  0  0  0  0
  147.5192  132.8237  161.8190 H   0  0  0  0  0  0  0  0  0  0  0  0
  142.8859  132.2674  161.9196 H   0  0  0  0  0  0  0  0  0  0  0  0
  143.0771  133.5780  160.7453 H   0  0  0  0  0  0  0  0  0  0  0  0
  142.6257  133.9467  162.4155 H   0  0  0  0  0  0  0  0  0  0  0  0
  145.9099  135.0448  160.5534 H   0  0  0  0  0  0  0  0  0  0  0  0
  148.7201  136.7121  163.9202 H   0  0  0  0  0  0  0  0  0  0  0  0
  147.0249  136.5471  164.4028 H   0  0  0  0  0  0  0  0  0  0  0  0
  147.6256  138.0971  163.7978 H   0  0  0  0  0  0  0  0  0  0  0  0
  1  2  1  0  0  0  0
  1 30  1  0  0  0  0
  1 31  1  0  0  0  0
  1 32  1  0  0  0  0
  2  3  2  0  0  0  0
  2  4  1  0  0  0  0
  4  5  1  0  0  0  0
  5  6  1  0  0  0  0
  5 33  1  0  0  0  0
  5 34  1  0  0  0  0
  6 25  1  0  0  0  0
  6  7  1  0  0  0  0
  6 35  1  0  0  0  0
  7  8  1  0  0  0  0
  8  9  1  0  0  0  0
  8 20  1  0  0  0  0
  8 36  1  0  0  0  0
  9 19  1  0  0  0  0
  9 10  1  0  0  0  0
 10 11  1  0  0  0  0
 10 12  2  0  0  0  0
 12 13  1  0  0  0  0
 13 19  2  0  0  0  0
 13 14  1  0  0  0  0
 14 15  1  0  0  0  0
 14 16  2  0  0  0  0
 15 37  1  0  0  0  0
 15 38  1  0  0  0  0
 16 17  1  0  0  0  0
 17 18  2  0  0  0  0
 17 39  1  0  0  0  0
 18 19  1  0  0  0  0
 20 21  1  0  0  0  0
 20 25  1  0  0  0  0
 20 40  1  0  0  0  0
 21 22  1  0  0  0  0
 22 23  1  0  0  0  0
 22 24  2  0  0  0  0
 23 41  1  0  0  0  0
 23 42  1  0  0  0  0
 23 43  1  0  0  0  0
 25 26  1  0  0  0  0
 25 44  1  0  0  0  0
 26 27  1  0  0  0  0
 27 28  1  0  0  0  0
 27 29  2  0  0  0  0
 28 45  1  0  0  0  0
 28 46  1  0  0  0  0
 28 47  1  0  0  0  0
M  END
> <s_m_source_file>
AV-unprocessed.smi

> <i_m_source_file_index>
104

> <i_lp_mmshare_version>
43012

> <i_f3d_flags>
0

> <s_epik_input>
W0NIM11DKD1PKU9bQ0gyXVtDQEBIXTFPW0NASF0oW0NAQEhdKE9DKD1PKVtDSDNdKVtDQEhdMU9DKD1PKVtDSDNdKW4oYyhCciluMiljKGMyMyluW2NIXW5jM1tOSDJd

> <s_epik_cmdline>
J2VwaWtfcHl0aG9uJywgJy1waCcsICc3LjAnLCAnLXRuJywgJzgnLCAnLW1hJywgJzIwMCcsICctbWV0YWxfYmluZGluZycsICctaW1hZScsICc8aW5maWxlLm1hZT4nLCAnLW9tYWUnLCAnPG91dGZpbGUubWFlPic=

> <r_lp_tautomer_probability>
1

> <r_epik_Ionization_Penalty>
7.36622e-05

> <r_epik_Ionization_Penalty_Charging>
0

> <r_epik_Ionization_Penalty_Neutral>
7.36622e-05

> <r_epik_State_Penalty>
-0

> <r_epik_Charging_Adjusted_Penalty>
0

> <i_epik_Tot_Q>
0

> <i_epik_Tot_abs_Q>
0

> <r_epik_Metal_State_Penalty>
-0

> <b_epik_Metal_Only>
0

> <s_epik_Chemistry_Notes>
This compound has an ester and may undergo hydrolysis at high or low pH. This compound contains an acetal/aminal-like group ( X-CH(R)-Y where X, Y are N, S, or O) that may be acid/base labile, releasing an aldehyde.

> <s_lp_Force_Field>
OPLS_2005

> <r_lp_Energy>
16.6292

> <b_lp_Chiralities_Consistent>
1

> <s_lp_Variant>
AV-unprocessed.smi:104-7

> <Gold.Version>
5.8.1

> <Gold.Id.Protein>
6NUR|6NUR_protein|mol2

> <Gold.PLP.Fitness>
35.7245

> <Gold.PLP.PLP>
-27.4996

> <Gold.PLP.part.hbond>
-4.8385

> <Gold.PLP.part.metal>
0.0000

> <Gold.PLP.part.buried>
-4.2205

> <Gold.PLP.part.nonpolar>
-18.4777

> <Gold.PLP.part.repulsive>
0.3797

> <Gold.PLP.ligand.clash>
0.0000

> <Gold.PLP.ligand.torsion>
0.7687

> <Gold.PLP.Chemscore.Hbond>
3.2302

> <Gold.PLP.Chemscore.CHOScore>
0.0000

> <Gold.PLP.Chemscore.Metal>
0.0000

> <Gold.Chemscore.Hbonds>
donor molecule, donor type, donor heavy atom, donor atom, acceptor molecule, acceptor atom, score
      L1  H    15    37       P1 10956  1.00
      P1  H  6896  6907       L1     3  0.93
      P1  H  6931  6943       L1    29  0.16
      P1  H  6934  6947       L1    29  1.00

> <Gold.PLP.Chemscore.Internal.Correction>
0.0715

> <Gold.Rescore>
     Score         DG    S(hbond)    S(metal)    S(lipo)     H(rot)  DE(clash)    DE(int)     intcor
      2.47      -8.39       2.89        0.00      36.67       4.31       0.08       5.84       ----

> <Gold.Chemscore.Fitness>
2.4692

> <Gold.Chemscore.DG>
-8.3879

> <Gold.Chemscore.ZeroCoef>
-5.4800

> <Gold.Chemscore.Hbond>
2.8873

> <Gold.Chemscore.Metal>
0.0000

> <Gold.Chemscore.Lipo>
36.6687

> <Gold.Chemscore.Internal_Hbond>
0.0000

> <Gold.Chemscore.DEClash>
0.0761

> <Gold.Chemscore.DEInternal>
5.8426

> <Gold.Chemscore.Rot>
4.3070

> <Gold.Chemscore.Internal.Correction>
   9.000000E+99

> <Gold.Chemscore.Hbonds>
donor molecule, donor type, donor heavy atom, donor atom, acceptor molecule, acceptor atom, score
      L1  H    15    37       P1 10956  0.80
      P1  H  6896  6907       L1     3  0.23
      P1  H  6934  6947       L1    29  0.96

> <Gold.Chemscore.Hbond.Weighted>
-9.6435

> <Gold.Chemscore.Metal.Weighted>
-0.0000

> <Gold.Chemscore.Lipo.Weighted>
-4.2902

> <Gold.Chemscore.Internal_Hbond.Weighted>
0.0000

> <Gold.Chemscore.DEClash.Weighted>
0.0761

> <Gold.Chemscore.DEInternal.Weighted>
5.8426

> <Gold.Chemscore.Rot.Weighted>
11.0259

> <Gold.Chemscore.Internal.Correction.Weighted>
   9.000000E+99

> <Gold.Protein.RotatedTorsions>
[ 6907 6896 6895 6894 ] final  -25.03 input  -60.11 | X-H torsion
[ 7974 7965 7964 7962 ] final  -61.90 input  175.53 | X-H torsion
[ 8008 7997 7996 7995 ] final  -11.64 input   59.86 | X-H torsion
[ 10167 10162 10161 10158 ] final   57.64 input  -65.29 | X-H torsion
[ 10718 10713 10712 10709 ] final  130.44 input   66.30 | X-H torsion
[ 10763 10752 10751 10750 ] final  -69.26 input  -60.55 | X-H torsion
[ 11005 11000 10999 10996 ] final -110.97 input  -57.11 | X-H torsion

> <Gold.Protein.ActiveResidues>
 VAL166  LYS551  ARG553  GLY616  TRP617  ASP618  TYR619  PRO620  LYS621  CYS622 
 ASP623  PHE694  ASN695  SER759  ASP760  ASP761  ALA762  ILE779  LEU786  VAL792 
 PHE793  MET794  SER795  GLU796  ALA797  LYS798  CYS799  TRP800  GLU811  SER814 

> <Gold.Protein.RotatedAtoms>
  151.1811  135.0361  159.8792 H   0  0  0  0  0  0  0  0  0  0  0  0  # atno 6907 bound_to 6896
  152.5444  134.1062  159.8349 H   0  0  0  0  0  0  0  0  0  0  0  0  # atno 6908 bound_to 6896
  151.1179  133.5078  159.2635 H   0  0  0  0  0  0  0  0  0  0  0  0  # atno 6909 bound_to 6896
  145.7979  140.8672  143.0247 H   0  0  0  0  0  0  0  0  0  0  0  0  # atno 7974 bound_to 7965
  154.5447  140.2297  155.8583 H   0  0  0  0  0  0  0  0  0  0  0  0  # atno 8008 bound_to 7997
  156.1892  140.3081  155.9260 H   0  0  0  0  0  0  0  0  0  0  0  0  # atno 8009 bound_to 7997
  155.3188  140.0439  157.3029 H   0  0  0  0  0  0  0  0  0  0  0  0  # atno 8010 bound_to 7997
  140.1958  144.4039  150.6551 H   0  0  0  0  0  0  0  0  0  0  0  0  # atno 10167 bound_to 10162
  157.5061  131.1095  150.9359 H   0  0  0  0  0  0  0  0  0  0  0  0  # atno 10718 bound_to 10713
  154.4008  135.6031  153.5896 H   0  0  0  0  0  0  0  0  0  0  0  0  # atno 10763 bound_to 10752
  152.9788  135.5906  154.4186 H   0  0  0  0  0  0  0  0  0  0  0  0  # atno 10764 bound_to 10752
  154.3985  135.2842  155.2089 H   0  0  0  0  0  0  0  0  0  0  0  0  # atno 10765 bound_to 10752
  141.0761  133.9298  157.2386 H   0  0  0  0  0  0  0  0  0  0  0  0  # atno 11005 bound_to 11000
  144.6773  140.0216  143.7483 LP  0  0  0  0  0  0  0  0  0  0  0  0  # atno 17320 bound_to 7965
  145.9909  139.3014  143.0985 LP  0  0  0  0  0  0  0  0  0  0  0  0  # atno 17321 bound_to 7965
  140.6425  143.2206  151.6259 LP  0  0  0  0  0  0  0  0  0  0  0  0  # atno 17342 bound_to 10162
  139.5237  144.3124  152.0981 LP  0  0  0  0  0  0  0  0  0  0  0  0  # atno 17343 bound_to 10162
  157.0014  130.5601  149.5312 LP  0  0  0  0  0  0  0  0  0  0  0  0  # atno 17370 bound_to 10713
  156.0259  130.5353  150.8406 LP  0  0  0  0  0  0  0  0  0  0  0  0  # atno 17371 bound_to 10713
  139.9574  135.0162  156.9166 LP  0  0  0  0  0  0  0  0  0  0  0  0  # atno 17394 bound_to 11000
  140.5569  134.0572  155.7386 LP  0  0  0  0  0  0  0  0  0  0  0  0  # atno 17395 bound_to 11000

$$$$
