AV-unprocessed.smi:2921|AV-procd|sdf|11197|dock6
  -GOLD-   2272016 93D 1   1.00000     0.00000
 Structure written by MMmdl.
 41 42  0  0  0  0  0  0  0  0  1 V2000
  145.8815  143.5752  153.5041 C   0  0  0  0  0  0  0  0  0  0  0  0
  145.6874  142.3377  154.3938 C   0  0  0  0  0  0  0  0  0  0  0  0
  145.2905  142.7199  155.8294 C   0  0  0  0  0  0  0  0  0  0  0  0
  146.8773  141.4920  154.3783 N   0  0  0  0  0  0  0  0  0  0  0  0
  148.0535  141.9669  154.8514 N   0  0  0  0  0  0  0  0  0  0  0  0
  148.9214  140.9778  154.6870 C   0  0  0  0  0  0  0  0  0  0  0  0
  148.3416  139.8224  154.0917 C   0  0  0  0  0  0  0  0  0  0  0  0
  147.0388  140.2013  153.9136 C   0  0  0  0  0  0  0  0  0  0  0  0
  146.0175  139.4899  153.3661 N   0  0  0  0  0  0  0  0  0  0  0  0
  145.9388  138.1665  153.1426 C   0  0  0  0  0  0  0  0  0  0  0  0
  146.8157  137.3434  153.4055 O   0  0  0  0  0  0  0  0  0  0  0  0
  144.7580  137.8392  152.5993 N   0  0  0  0  0  0  0  0  0  0  0  0
  144.3268  136.4827  152.2788 C   0  0  0  0  0  0  0  0  0  0  0  0
  145.3328  135.7252  151.3897 C   0  0  0  0  0  0  0  0  0  0  0  0
  144.9452  134.2851  151.0964 C   0  0  0  0  0  0  0  0  0  0  0  0
  143.7433  133.7403  151.2819 C   0  0  0  0  0  0  0  0  0  0  0  0
  143.6853  132.2985  150.8577 C   0  0  0  0  0  0  0  0  0  0  0  0
  145.0865  132.0275  150.2678 C   0  0  0  0  0  0  0  0  0  0  0  0
  145.9238  133.3051  150.4979 C   0  0  0  0  0  0  0  0  0  0  0  0
  144.9717  144.1748  153.4641 H   0  0  0  0  0  0  0  0  0  0  0  0
  146.1319  143.2878  152.4824 H   0  0  0  0  0  0  0  0  0  0  0  0
  146.6829  144.2142  153.8764 H   0  0  0  0  0  0  0  0  0  0  0  0
  144.8627  141.7606  153.9756 H   0  0  0  0  0  0  0  0  0  0  0  0
  144.3562  143.2817  155.8394 H   0  0  0  0  0  0  0  0  0  0  0  0
  146.0513  143.3383  156.3070 H   0  0  0  0  0  0  0  0  0  0  0  0
  145.1469  141.8318  156.4455 H   0  0  0  0  0  0  0  0  0  0  0  0
  149.9441  141.1288  154.9996 H   0  0  0  0  0  0  0  0  0  0  0  0
  148.8198  138.8876  153.8418 H   0  0  0  0  0  0  0  0  0  0  0  0
  145.2018  140.0303  153.1192 H   0  0  0  0  0  0  0  0  0  0  0  0
  144.0974  138.5798  152.4141 H   0  0  0  0  0  0  0  0  0  0  0  0
  144.1712  135.9388  153.2110 H   0  0  0  0  0  0  0  0  0  0  0  0
  143.3547  136.5221  151.7846 H   0  0  0  0  0  0  0  0  0  0  0  0
  145.4158  136.2517  150.4383 H   0  0  0  0  0  0  0  0  0  0  0  0
  146.3304  135.7415  151.8298 H   0  0  0  0  0  0  0  0  0  0  0  0
  142.8836  134.2522  151.6886 H   0  0  0  0  0  0  0  0  0  0  0  0
  143.4807  131.6653  151.7214 H   0  0  0  0  0  0  0  0  0  0  0  0
  142.8981  132.1464  150.1187 H   0  0  0  0  0  0  0  0  0  0  0  0
  145.5520  131.1600  150.7368 H   0  0  0  0  0  0  0  0  0  0  0  0
  145.0109  131.8160  149.2005 H   0  0  0  0  0  0  0  0  0  0  0  0
  146.3361  133.6922  149.5656 H   0  0  0  0  0  0  0  0  0  0  0  0
  146.7446  133.1108  151.1872 H   0  0  0  0  0  0  0  0  0  0  0  0
  1  2  1  0  0  0  0
  1 20  1  0  0  0  0
  1 21  1  0  0  0  0
  1 22  1  0  0  0  0
  2  3  1  0  0  0  0
  2  4  1  0  0  0  0
  2 23  1  0  0  0  0
  3 24  1  0  0  0  0
  3 25  1  0  0  0  0
  3 26  1  0  0  0  0
  4  8  1  0  0  0  0
  4  5  1  0  0  0  0
  5  6  2  0  0  0  0
  6  7  1  0  0  0  0
  6 27  1  0  0  0  0
  7  8  2  0  0  0  0
  7 28  1  0  0  0  0
  8  9  1  0  0  0  0
  9 10  1  0  0  0  0
  9 29  1  0  0  0  0
 10 11  2  0  0  0  0
 10 12  1  0  0  0  0
 12 13  1  0  0  0  0
 12 30  1  0  0  0  0
 13 14  1  0  0  0  0
 13 31  1  0  0  0  0
 13 32  1  0  0  0  0
 14 15  1  0  0  0  0
 14 33  1  0  0  0  0
 14 34  1  0  0  0  0
 15 19  1  0  0  0  0
 15 16  2  0  0  0  0
 16 17  1  0  0  0  0
 16 35  1  0  0  0  0
 17 18  1  0  0  0  0
 17 36  1  0  0  0  0
 17 37  1  0  0  0  0
 18 19  1  0  0  0  0
 18 38  1  0  0  0  0
 18 39  1  0  0  0  0
 19 40  1  0  0  0  0
 19 41  1  0  0  0  0
M  END
> <s_m_source_file>
AV-unprocessed.smi

> <i_m_source_file_index>
2921

> <i_lp_mmshare_version>
43012

> <i_f3d_flags>
0

> <s_epik_input>
W0NIM11bQ0hdKFtDSDNdKW4xbltjSF1bY0hdYzFbTkhdQyg9TylbTkhdW0NIMl1bQ0gyXUMyPVtDSF1bQ0gyXVtDSDJdW0NIMl0y

> <s_epik_cmdline>
J2VwaWtfcHl0aG9uJywgJy1waCcsICc3LjAnLCAnLXRuJywgJzgnLCAnLW1hJywgJzIwMCcsICctbWV0YWxfYmluZGluZycsICctaW1hZScsICc8aW5maWxlLm1hZT4nLCAnLW9tYWUnLCAnPG91dGZpbGUubWFlPic=

> <r_lp_tautomer_probability>
1

> <r_epik_Ionization_Penalty>
4.14613e-05

> <r_epik_Ionization_Penalty_Charging>
0

> <r_epik_Ionization_Penalty_Neutral>
4.14613e-05

> <r_epik_State_Penalty>
-0

> <r_epik_Charging_Adjusted_Penalty>
0

> <i_epik_Tot_Q>
0

> <i_epik_Tot_abs_Q>
0

> <r_epik_Metal_State_Penalty>
-0

> <b_epik_Metal_Only>
0

> <s_lp_Force_Field>
OPLS_2005

> <r_lp_Energy>
26.255

> <b_lp_Chiralities_Consistent>
1

> <s_lp_Variant>
AV-unprocessed.smi:2921-1

> <Gold.Version>
5.8.1

> <Gold.Id.Protein>
6NUR|6NUR_protein|mol2

> <Gold.PLP.Fitness>
42.3971

> <Gold.PLP.PLP>
-36.8744

> <Gold.PLP.part.hbond>
-3.0000

> <Gold.PLP.part.metal>
0.0000

> <Gold.PLP.part.buried>
-6.0115

> <Gold.PLP.part.nonpolar>
-30.7324

> <Gold.PLP.part.repulsive>
3.0268

> <Gold.PLP.ligand.clash>
0.0000

> <Gold.PLP.ligand.torsion>
0.2670

> <Gold.PLP.Chemscore.Hbond>
2.0000

> <Gold.PLP.Chemscore.CHOScore>
0.0000

> <Gold.PLP.Chemscore.Metal>
0.0000

> <Gold.Chemscore.Hbonds>
donor molecule, donor type, donor heavy atom, donor atom, acceptor molecule, acceptor atom, score
      L1  H     9    29       P1 10175  1.00
      L1  H    12    30       P1 10175  0.99

> <Gold.PLP.Chemscore.Internal.Correction>
0.0567

> <Gold.Rescore>
     Score         DG    S(hbond)    S(metal)    S(lipo)     H(rot)  DE(clash)    DE(int)     intcor
     14.04     -16.68       1.92        0.00      73.88       1.50       0.04       2.59       ----

> <Gold.Chemscore.Fitness>
14.0439

> <Gold.Chemscore.DG>
-16.6770

> <Gold.Chemscore.ZeroCoef>
-5.4800

> <Gold.Chemscore.Hbond>
1.9154

> <Gold.Chemscore.Metal>
0.0000

> <Gold.Chemscore.Lipo>
73.8810

> <Gold.Chemscore.Internal_Hbond>
0.0000

> <Gold.Chemscore.DEClash>
0.0431

> <Gold.Chemscore.DEInternal>
2.5900

> <Gold.Chemscore.Rot>
1.5018

> <Gold.Chemscore.Internal.Correction>
   9.000000E+99

> <Gold.Chemscore.Hbonds>
donor molecule, donor type, donor heavy atom, donor atom, acceptor molecule, acceptor atom, score
      L1  H     9    29       P1 10175  1.00
      L1  H    12    30       P1 10175  0.94

> <Gold.Chemscore.Hbond.Weighted>
-6.3975

> <Gold.Chemscore.Metal.Weighted>
-0.0000

> <Gold.Chemscore.Lipo.Weighted>
-8.6441

> <Gold.Chemscore.Internal_Hbond.Weighted>
0.0000

> <Gold.Chemscore.DEClash.Weighted>
0.0431

> <Gold.Chemscore.DEInternal.Weighted>
2.5900

> <Gold.Chemscore.Rot.Weighted>
3.8446

> <Gold.Chemscore.Internal.Correction.Weighted>
   9.000000E+99

> <Gold.Protein.RotatedTorsions>
[ 6907 6896 6895 6894 ] final  -57.27 input  -60.11 | X-H torsion
[ 7974 7965 7964 7962 ] final -165.75 input  175.53 | X-H torsion
[ 8008 7997 7996 7995 ] final   24.87 input   59.86 | X-H torsion
[ 10167 10162 10161 10158 ] final  152.12 input  -65.29 | X-H torsion
[ 10718 10713 10712 10709 ] final   38.17 input   66.30 | X-H torsion
[ 10763 10752 10751 10750 ] final  -82.24 input  -60.55 | X-H torsion
[ 11005 11000 10999 10996 ] final  142.18 input  -57.11 | X-H torsion

> <Gold.Protein.ActiveResidues>
 VAL166  LYS551  ARG553  GLY616  TRP617  ASP618  TYR619  PRO620  LYS621  CYS622 
 ASP623  PHE694  ASN695  SER759  ASP760  ASP761  ALA762  ILE779  LEU786  VAL792 
 PHE793  MET794  SER795  GLU796  ALA797  LYS798  CYS799  TRP800  GLU811  SER814 

> <Gold.Protein.RotatedAtoms>
  150.8100  134.7248  159.6678 H   0  0  0  0  0  0  0  0  0  0  0  0  # atno 6907 bound_to 6896
  152.4219  134.5935  159.9990 H   0  0  0  0  0  0  0  0  0  0  0  0  # atno 6908 bound_to 6896
  151.6148  133.3307  159.3111 H   0  0  0  0  0  0  0  0  0  0  0  0  # atno 6909 bound_to 6896
  144.7262  140.2768  143.6242 H   0  0  0  0  0  0  0  0  0  0  0  0  # atno 7974 bound_to 7965
  155.0030  140.3127  155.4860 H   0  0  0  0  0  0  0  0  0  0  0  0  # atno 8008 bound_to 7997
  156.2922  140.2228  156.5081 H   0  0  0  0  0  0  0  0  0  0  0  0  # atno 8009 bound_to 7997
  154.7602  140.0459  157.0955 H   0  0  0  0  0  0  0  0  0  0  0  0  # atno 8010 bound_to 7997
  139.4835  144.5384  151.7605 H   0  0  0  0  0  0  0  0  0  0  0  0  # atno 10167 bound_to 10162
  157.3556  130.7622  149.7010 H   0  0  0  0  0  0  0  0  0  0  0  0  # atno 10718 bound_to 10713
  154.5733  135.5598  153.7115 H   0  0  0  0  0  0  0  0  0  0  0  0  # atno 10763 bound_to 10752
  153.0056  135.6302  154.2084 H   0  0  0  0  0  0  0  0  0  0  0  0  # atno 10764 bound_to 10752
  154.2024  135.2877  155.2966 H   0  0  0  0  0  0  0  0  0  0  0  0  # atno 10765 bound_to 10752
  140.0457  134.9282  157.0926 H   0  0  0  0  0  0  0  0  0  0  0  0  # atno 11005 bound_to 11000
  145.7988  139.1956  143.2060 LP  0  0  0  0  0  0  0  0  0  0  0  0  # atno 17320 bound_to 7965
  146.0694  140.7886  142.9696 LP  0  0  0  0  0  0  0  0  0  0  0  0  # atno 17321 bound_to 7965
  140.4920  144.1296  150.5952 LP  0  0  0  0  0  0  0  0  0  0  0  0  # atno 17342 bound_to 10162
  140.4160  143.2634  151.9775 LP  0  0  0  0  0  0  0  0  0  0  0  0  # atno 17343 bound_to 10162
  155.9728  130.4128  150.4051 LP  0  0  0  0  0  0  0  0  0  0  0  0  # atno 17370 bound_to 10713
  157.2120  131.0462  151.2594 LP  0  0  0  0  0  0  0  0  0  0  0  0  # atno 17371 bound_to 10713
  140.3997  134.2096  155.7164 LP  0  0  0  0  0  0  0  0  0  0  0  0  # atno 17394 bound_to 11000
  141.1906  133.8214  157.0913 LP  0  0  0  0  0  0  0  0  0  0  0  0  # atno 17395 bound_to 11000

$$$$
