AV-unprocessed.smi:1681|AV-procd|sdf|6742|dock8
  -GOLD-   22720 7493D 1   1.00000     0.00000
 Structure written by MMmdl.
 40 41  0  0  0  0  0  0  0  0  1 V2000
  154.9215  141.3838  160.3576 C   0  0  0  0  0  0  0  0  0  0  0  0
  154.0360  140.6439  159.3526 C   0  0  0  0  0  0  0  0  0  0  0  0
  154.5114  139.6679  158.7720 O   0  0  0  0  0  0  0  0  0  0  0  0
  152.7734  141.0835  159.1325 N   0  0  0  0  0  0  0  0  0  0  0  0
  152.1768  142.2867  159.7272 C   0  0  0  0  0  0  0  0  0  0  0  0
  152.0323  143.3577  158.6311 C   0  0  0  0  0  0  0  0  0  0  0  0
  151.2083  142.8233  157.4437 C   0  0  0  0  0  0  0  0  0  0  0  0
  151.7433  141.4612  156.9413 C   0  0  2  0  0  0  0  0  0  0  0  0
  150.8363  140.8748  155.8512 C   0  0  0  0  0  0  0  0  0  0  0  0
  151.3008  140.0858  155.0278 O   0  0  0  0  0  0  0  0  0  0  0  0
  149.5544  141.2814  155.8723 N   0  0  0  0  0  0  0  0  0  0  0  0
  148.5109  140.8968  154.9933 C   0  0  0  0  0  0  0  0  0  0  0  0
  147.3770  141.6930  154.6864 C   0  0  0  0  0  0  0  0  0  0  0  0
  146.5686  141.0702  153.8427 N   0  0  0  0  0  0  0  0  0  0  0  0
  147.1645  139.8756  153.6000 N   0  0  0  0  0  0  0  0  0  0  0  0
  146.5261  138.9200  152.7123 C   0  0  0  0  0  0  0  0  0  0  0  0
  146.1360  137.6420  153.4582 C   0  0  0  0  0  0  0  0  0  0  0  0
  146.7596  136.5138  153.1070 N   0  0  0  0  0  0  0  0  0  0  0  0
  145.2778  137.6712  154.3375 O   0  0  0  0  0  0  0  0  0  0  0  0
  148.3563  139.7390  154.2848 C   0  0  0  0  0  0  0  0  0  0  0  0
  151.8887  140.4810  158.1274 C   0  0  0  0  0  0  0  0  0  0  0  0
  155.0409  142.4295  160.0725 H   0  0  0  0  0  0  0  0  0  0  0  0
  155.9148  140.9353  160.3972 H   0  0  0  0  0  0  0  0  0  0  0  0
  154.4934  141.3346  161.3591 H   0  0  0  0  0  0  0  0  0  0  0  0
  151.1958  142.0360  160.1335 H   0  0  0  0  0  0  0  0  0  0  0  0
  152.7434  142.6873  160.5665 H   0  0  0  0  0  0  0  0  0  0  0  0
  151.5610  144.2523  159.0392 H   0  0  0  0  0  0  0  0  0  0  0  0
  153.0216  143.6589  158.2841 H   0  0  0  0  0  0  0  0  0  0  0  0
  150.1688  142.7213  157.7597 H   0  0  0  0  0  0  0  0  0  0  0  0
  151.2124  143.5540  156.6339 H   0  0  0  0  0  0  0  0  0  0  0  0
  152.7353  141.6237  156.5143 H   0  0  0  0  0  0  0  0  0  0  0  0
  149.2996  141.9364  156.5974 H   0  0  0  0  0  0  0  0  0  0  0  0
  147.1174  142.6796  155.0409 H   0  0  0  0  0  0  0  0  0  0  0  0
  145.6427  139.3783  152.2645 H   0  0  0  0  0  0  0  0  0  0  0  0
  147.2104  138.6810  151.8970 H   0  0  0  0  0  0  0  0  0  0  0  0
  146.5308  135.6448  153.5674 H   0  0  0  0  0  0  0  0  0  0  0  0
  147.4555  136.5344  152.3757 H   0  0  0  0  0  0  0  0  0  0  0  0
  148.9620  138.8483  154.2081 H   0  0  0  0  0  0  0  0  0  0  0  0
  152.2537  139.5142  157.7767 H   0  0  0  0  0  0  0  0  0  0  0  0
  150.9175  140.2807  158.5833 H   0  0  0  0  0  0  0  0  0  0  0  0
  1  2  1  0  0  0  0
  1 22  1  0  0  0  0
  1 23  1  0  0  0  0
  1 24  1  0  0  0  0
  2  3  2  0  0  0  0
  2  4  1  0  0  0  0
  4 21  1  0  0  0  0
  4  5  1  0  0  0  0
  5  6  1  0  0  0  0
  5 25  1  0  0  0  0
  5 26  1  0  0  0  0
  6  7  1  0  0  0  0
  6 27  1  0  0  0  0
  6 28  1  0  0  0  0
  7  8  1  0  0  0  0
  7 29  1  0  0  0  0
  7 30  1  0  0  0  0
  8  9  1  0  0  0  0
  8 21  1  0  0  0  0
  8 31  1  0  0  0  0
  9 10  2  0  0  0  0
  9 11  1  0  0  0  0
 11 12  1  0  0  0  0
 11 32  1  0  0  0  0
 12 20  2  0  0  0  0
 12 13  1  0  0  0  0
 13 14  2  0  0  0  0
 13 33  1  0  0  0  0
 14 15  1  0  0  0  0
 15 16  1  0  0  0  0
 15 20  1  0  0  0  0
 16 17  1  0  0  0  0
 16 34  1  0  0  0  0
 16 35  1  0  0  0  0
 17 18  1  0  0  0  0
 17 19  2  0  0  0  0
 18 36  1  0  0  0  0
 18 37  1  0  0  0  0
 20 38  1  0  0  0  0
 21 39  1  0  0  0  0
 21 40  1  0  0  0  0
M  END
> <s_m_source_file>
AV-unprocessed.smi

> <i_m_source_file_index>
1681

> <i_lp_mmshare_version>
43012

> <i_f3d_flags>
0

> <s_epik_input>
W0NIM11DKD1PKU4xW0NIMl1bQ0gyXVtDSDJdW0NASF0oW0NIMl0xKUMoPU8pW05IXWMyW2NIXW5uKFtjSF0yKVtDSDJdQyg9TylbTkgyXQ==

> <s_epik_cmdline>
J2VwaWtfcHl0aG9uJywgJy1waCcsICc3LjAnLCAnLXRuJywgJzgnLCAnLW1hJywgJzIwMCcsICctbWV0YWxfYmluZGluZycsICctaW1hZScsICc8aW5maWxlLm1hZT4nLCAnLW9tYWUnLCAnPG91dGZpbGUubWFlPic=

> <r_lp_tautomer_probability>
1

> <r_epik_Ionization_Penalty>
6.05275e-06

> <r_epik_Ionization_Penalty_Charging>
0

> <r_epik_Ionization_Penalty_Neutral>
6.05275e-06

> <r_epik_State_Penalty>
-0

> <r_epik_Charging_Adjusted_Penalty>
0

> <i_epik_Tot_Q>
0

> <i_epik_Tot_abs_Q>
0

> <r_epik_Metal_State_Penalty>
-0

> <b_epik_Metal_Only>
0

> <s_lp_Force_Field>
OPLS_2005

> <r_lp_Energy>
29.5866

> <b_lp_Chiralities_Consistent>
1

> <s_lp_Variant>
AV-unprocessed.smi:1681-2

> <Gold.Version>
5.8.1

> <Gold.Id.Protein>
6NUR|6NUR_protein|mol2

> <Gold.PLP.Fitness>
48.3889

> <Gold.PLP.PLP>
-38.1119

> <Gold.PLP.part.hbond>
-2.9163

> <Gold.PLP.part.metal>
0.0000

> <Gold.PLP.part.buried>
-2.5225

> <Gold.PLP.part.nonpolar>
-32.5493

> <Gold.PLP.part.repulsive>
0.5154

> <Gold.PLP.ligand.clash>
0.0000

> <Gold.PLP.ligand.torsion>
0.8737

> <Gold.PLP.Chemscore.Hbond>
3.0000

> <Gold.PLP.Chemscore.CHOScore>
1.0000

> <Gold.PLP.Chemscore.Metal>
0.0000

> <Gold.Chemscore.Hbonds>
donor molecule, donor type, donor heavy atom, donor atom, acceptor molecule, acceptor atom, score
      L1  H    18    37       P1  7948  1.00
      P1  H  7989  7998       L1    10  1.00
      P1  H  7997  8009       L1     3  1.00
      L1  C    13    33       P1  8028  0.47

> <Gold.PLP.Chemscore.Internal.Correction>
0.0244

> <Gold.Rescore>
     Score         DG    S(hbond)    S(metal)    S(lipo)     H(rot)  DE(clash)    DE(int)     intcor
     18.01     -18.81       2.82        0.00      76.27       1.96       0.26       0.54       ----

> <Gold.Chemscore.Fitness>
18.0128

> <Gold.Chemscore.DG>
-18.8139

> <Gold.Chemscore.ZeroCoef>
-5.4800

> <Gold.Chemscore.Hbond>
2.8239

> <Gold.Chemscore.Metal>
0.0000

> <Gold.Chemscore.Lipo>
76.2746

> <Gold.Chemscore.Internal_Hbond>
0.0000

> <Gold.Chemscore.DEClash>
0.2634

> <Gold.Chemscore.DEInternal>
0.5377

> <Gold.Chemscore.Rot>
1.9617

> <Gold.Chemscore.Internal.Correction>
   9.000000E+99

> <Gold.Chemscore.Hbonds>
donor molecule, donor type, donor heavy atom, donor atom, acceptor molecule, acceptor atom, score
      L1  H    18    37       P1  7948  0.94
      P1  H  7989  7998       L1    10  0.81
      P1  H  7997  8009       L1     3  0.84

> <Gold.Chemscore.Hbond.Weighted>
-9.4318

> <Gold.Chemscore.Metal.Weighted>
-0.0000

> <Gold.Chemscore.Lipo.Weighted>
-8.9241

> <Gold.Chemscore.Internal_Hbond.Weighted>
0.0000

> <Gold.Chemscore.DEClash.Weighted>
0.2634

> <Gold.Chemscore.DEInternal.Weighted>
0.5377

> <Gold.Chemscore.Rot.Weighted>
5.0220

> <Gold.Chemscore.Internal.Correction.Weighted>
   9.000000E+99

> <Gold.Protein.RotatedTorsions>
[ 6907 6896 6895 6894 ] final -159.63 input  -60.11 | X-H torsion
[ 7974 7965 7964 7962 ] final  173.84 input  175.53 | X-H torsion
[ 8008 7997 7996 7995 ] final  119.43 input   59.86 | X-H torsion
[ 10167 10162 10161 10158 ] final   67.45 input  -65.29 | X-H torsion
[ 10718 10713 10712 10709 ] final  152.16 input   66.30 | X-H torsion
[ 10763 10752 10751 10750 ] final  134.96 input  -60.55 | X-H torsion
[ 11005 11000 10999 10996 ] final -138.04 input  -57.11 | X-H torsion

> <Gold.Protein.ActiveResidues>
 VAL166  LYS551  ARG553  GLY616  TRP617  ASP618  TYR619  PRO620  LYS621  CYS622 
 ASP623  PHE694  ASN695  SER759  ASP760  ASP761  ALA762  ILE779  LEU786  VAL792 
 PHE793  MET794  SER795  GLU796  ALA797  LYS798  CYS799  TRP800  GLU811  SER814 

> <Gold.Protein.RotatedAtoms>
  151.3365  133.3979  159.2667 H   0  0  0  0  0  0  0  0  0  0  0  0  # atno 6907 bound_to 6896
  150.9913  134.9248  159.7911 H   0  0  0  0  0  0  0  0  0  0  0  0  # atno 6908 bound_to 6896
  152.5248  134.3330  159.9242 H   0  0  0  0  0  0  0  0  0  0  0  0  # atno 6909 bound_to 6896
  144.7234  139.9707  143.6437 H   0  0  0  0  0  0  0  0  0  0  0  0  # atno 7974 bound_to 7965
  156.2595  140.2853  156.0991 H   0  0  0  0  0  0  0  0  0  0  0  0  # atno 8008 bound_to 7997
  155.1379  140.0395  157.2809 H   0  0  0  0  0  0  0  0  0  0  0  0  # atno 8009 bound_to 7997
  154.6551  140.2553  155.7177 H   0  0  0  0  0  0  0  0  0  0  0  0  # atno 8010 bound_to 7997
  140.0894  144.5002  150.7109 H   0  0  0  0  0  0  0  0  0  0  0  0  # atno 10167 bound_to 10162
  157.2614  131.0799  151.1663 H   0  0  0  0  0  0  0  0  0  0  0  0  # atno 10718 bound_to 10713
  153.8322  135.3102  155.3419 H   0  0  0  0  0  0  0  0  0  0  0  0  # atno 10763 bound_to 10752
  154.7968  135.4750  154.0184 H   0  0  0  0  0  0  0  0  0  0  0  0  # atno 10764 bound_to 10752
  153.1627  135.6864  153.8810 H   0  0  0  0  0  0  0  0  0  0  0  0  # atno 10765 bound_to 10752
  140.8654  134.2117  157.4683 H   0  0  0  0  0  0  0  0  0  0  0  0  # atno 11005 bound_to 11000
  146.0565  139.3561  143.0608 LP  0  0  0  0  0  0  0  0  0  0  0  0  # atno 17320 bound_to 7965
  145.8148  140.9708  143.0930 LP  0  0  0  0  0  0  0  0  0  0  0  0  # atno 17321 bound_to 7965
  140.7037  143.2452  151.4791 LP  0  0  0  0  0  0  0  0  0  0  0  0  # atno 17342 bound_to 10162
  139.5734  144.1876  152.1868 LP  0  0  0  0  0  0  0  0  0  0  0  0  # atno 17343 bound_to 10162
  157.3171  130.6919  149.6248 LP  0  0  0  0  0  0  0  0  0  0  0  0  # atno 17370 bound_to 10713
  155.9664  130.4346  150.5057 LP  0  0  0  0  0  0  0  0  0  0  0  0  # atno 17371 bound_to 10713
  139.8709  134.9749  156.4864 LP  0  0  0  0  0  0  0  0  0  0  0  0  # atno 17394 bound_to 11000
  140.8635  133.8042  155.9289 LP  0  0  0  0  0  0  0  0  0  0  0  0  # atno 17395 bound_to 11000

$$$$
