AV-unprocessed.smi:1605|AV-procd|sdf|6459|dock5
  -GOLD-   22720 7113D 1   1.00000     0.00000
 Structure written by MMmdl.
 50 52  0  0  0  0  0  0  0  0  1 V2000
  148.9926  134.6842  157.3934 C   0  0  0  0  0  0  0  0  0  0  0  0
  149.0569  135.2492  158.6938 O   0  0  0  0  0  0  0  0  0  0  0  0
  149.0311  136.6708  158.7164 C   0  0  0  0  0  0  0  0  0  0  0  0
  147.9021  137.2344  157.8313 C   0  0  0  0  0  0  0  0  0  0  0  0
  148.0216  138.7635  157.7067 C   0  0  0  0  0  0  0  0  0  0  0  0
  149.3163  139.1883  157.1702 N   0  0  0  0  0  0  0  0  0  0  0  0
  149.3560  140.6437  156.9867 C   0  0  0  0  0  0  0  0  0  0  0  0
  150.6503  141.2220  156.3713 C   0  0  2  0  0  0  0  0  0  0  0  0
  150.9569  140.5026  155.1932 O   0  0  0  0  0  0  0  0  0  0  0  0
  151.8801  141.2905  157.2972 C   0  0  0  0  0  0  0  0  0  0  0  0
  151.7297  142.2941  158.3354 N   0  0  0  0  0  0  0  0  0  0  0  0
  151.0031  143.4266  158.2729 C   0  0  0  0  0  0  0  0  0  0  0  0
  151.0048  144.2112  159.3469 N   0  0  0  0  0  0  0  0  0  0  0  0
  151.8275  143.5042  160.2070 C   0  0  0  0  0  0  0  0  0  0  0  0
  152.2416  143.7949  161.5253 C   0  0  0  0  0  0  0  0  0  0  0  0
  153.0978  142.9162  162.2264 C   0  0  0  0  0  0  0  0  0  0  0  0
  153.5182  143.2686  163.6423 C   0  0  0  0  0  0  0  0  0  0  0  0
  153.5529  141.7237  161.6084 C   0  0  0  0  0  0  0  0  0  0  0  0
  154.4714  140.7635  162.3434 C   0  0  0  0  0  0  0  0  0  0  0  0
  153.1499  141.4185  160.2914 C   0  0  0  0  0  0  0  0  0  0  0  0
  152.2977  142.3010  159.6044 C   0  0  0  0  0  0  0  0  0  0  0  0
  150.3771  138.7090  158.0636 C   0  0  0  0  0  0  0  0  0  0  0  0
  150.3854  137.1772  158.1945 C   0  0  0  0  0  0  0  0  0  0  0  0
  148.9664  133.5975  157.4727 H   0  0  0  0  0  0  0  0  0  0  0  0
  149.8619  134.9495  156.7919 H   0  0  0  0  0  0  0  0  0  0  0  0
  148.0911  135.0014  156.8678 H   0  0  0  0  0  0  0  0  0  0  0  0
  148.9060  137.0231  159.7421 H   0  0  0  0  0  0  0  0  0  0  0  0
  147.9511  136.7837  156.8391 H   0  0  0  0  0  0  0  0  0  0  0  0
  146.9250  136.9809  158.2416 H   0  0  0  0  0  0  0  0  0  0  0  0
  147.2214  139.1179  157.0558 H   0  0  0  0  0  0  0  0  0  0  0  0
  147.8537  139.2249  158.6812 H   0  0  0  0  0  0  0  0  0  0  0  0
  148.5422  140.9460  156.3255 H   0  0  0  0  0  0  0  0  0  0  0  0
  149.1442  141.1402  157.9348 H   0  0  0  0  0  0  0  0  0  0  0  0
  150.4183  142.2395  156.0540 H   0  0  0  0  0  0  0  0  0  0  0  0
  150.2402  139.9143  155.0101 H   0  0  0  0  0  0  0  0  0  0  0  0
  152.0463  140.3266  157.7795 H   0  0  0  0  0  0  0  0  0  0  0  0
  152.7789  141.5278  156.7274 H   0  0  0  0  0  0  0  0  0  0  0  0
  150.4394  143.6887  157.3895 H   0  0  0  0  0  0  0  0  0  0  0  0
  151.8936  144.7028  161.9958 H   0  0  0  0  0  0  0  0  0  0  0  0
  154.6033  143.3512  163.7096 H   0  0  0  0  0  0  0  0  0  0  0  0
  153.1840  142.5019  164.3420 H   0  0  0  0  0  0  0  0  0  0  0  0
  153.0906  144.2203  163.9596 H   0  0  0  0  0  0  0  0  0  0  0  0
  154.7257  139.9029  161.7240 H   0  0  0  0  0  0  0  0  0  0  0  0
  153.9910  140.3933  163.2494 H   0  0  0  0  0  0  0  0  0  0  0  0
  155.4009  141.2609  162.6216 H   0  0  0  0  0  0  0  0  0  0  0  0
  153.4886  140.5140  159.8083 H   0  0  0  0  0  0  0  0  0  0  0  0
  151.3555  139.0263  157.7135 H   0  0  0  0  0  0  0  0  0  0  0  0
  150.2555  139.1538  159.0526 H   0  0  0  0  0  0  0  0  0  0  0  0
  151.1857  136.8635  158.8653 H   0  0  0  0  0  0  0  0  0  0  0  0
  150.6006  136.7309  157.2225 H   0  0  0  0  0  0  0  0  0  0  0  0
  1  2  1  0  0  0  0
  1 24  1  0  0  0  0
  1 25  1  0  0  0  0
  1 26  1  0  0  0  0
  2  3  1  0  0  0  0
  3 23  1  0  0  0  0
  3  4  1  0  0  0  0
  3 27  1  0  0  0  0
  4  5  1  0  0  0  0
  4 28  1  0  0  0  0
  4 29  1  0  0  0  0
  5  6  1  0  0  0  0
  5 30  1  0  0  0  0
  5 31  1  0  0  0  0
  6  7  1  0  0  0  0
  6 22  1  0  0  0  0
  7  8  1  0  0  0  0
  7 32  1  0  0  0  0
  7 33  1  0  0  0  0
  8  9  1  0  0  0  0
  8 10  1  0  0  0  0
  8 34  1  0  0  0  0
  9 35  1  0  0  0  0
 10 11  1  0  0  0  0
 10 36  1  0  0  0  0
 10 37  1  0  0  0  0
 11 21  1  0  0  0  0
 11 12  1  0  0  0  0
 12 13  2  0  0  0  0
 12 38  1  0  0  0  0
 13 14  1  0  0  0  0
 14 21  2  0  0  0  0
 14 15  1  0  0  0  0
 15 16  2  0  0  0  0
 15 39  1  0  0  0  0
 16 17  1  0  0  0  0
 16 18  1  0  0  0  0
 17 40  1  0  0  0  0
 17 41  1  0  0  0  0
 17 42  1  0  0  0  0
 18 19  1  0  0  0  0
 18 20  2  0  0  0  0
 19 43  1  0  0  0  0
 19 44  1  0  0  0  0
 19 45  1  0  0  0  0
 20 21  1  0  0  0  0
 20 46  1  0  0  0  0
 22 23  1  0  0  0  0
 22 47  1  0  0  0  0
 22 48  1  0  0  0  0
 23 49  1  0  0  0  0
 23 50  1  0  0  0  0
M  END
> <s_m_source_file>
AV-unprocessed.smi

> <i_m_source_file_index>
1605

> <i_lp_mmshare_version>
43012

> <i_f3d_flags>
0

> <s_epik_input>
W0NIM11PW0NIXTFbQ0gyXVtDSDJdTihbQ0gyXVtDSDJdMSlbQ0gyXVtDQEhdKFtPSF0pW0NIMl1uKFtjSF1uMiljKGMyMylbY0hdYyhbQ0gzXSljKFtjSF0zKVtDSDNd

> <s_epik_cmdline>
J2VwaWtfcHl0aG9uJywgJy1waCcsICc3LjAnLCAnLXRuJywgJzgnLCAnLW1hJywgJzIwMCcsICctbWV0YWxfYmluZGluZycsICctaW1hZScsICc8aW5maWxlLm1hZT4nLCAnLW9tYWUnLCAnPG91dGZpbGUubWFlPic=

> <r_epik_Ionization_Penalty>
2.02119

> <r_epik_Ionization_Penalty_Charging>
0

> <r_epik_Ionization_Penalty_Neutral>
2.02119

> <r_epik_State_Penalty>
2.11303

> <r_epik_Charging_Adjusted_Penalty>
2.11303

> <i_epik_Tot_Q>
0

> <i_epik_Tot_abs_Q>
0

> <r_epik_Metal_State_Penalty>
2.04251

> <b_epik_Metal_Only>
0

> <s_lp_Force_Field>
OPLS_2005

> <r_lp_Energy>
37.9414

> <b_lp_Chiralities_Consistent>
1

> <s_lp_Variant>
AV-unprocessed.smi:1605-9

> <Gold.Version>
5.8.1

> <Gold.Id.Protein>
6NUR|6NUR_protein|mol2

> <Gold.PLP.Fitness>
52.5728

> <Gold.PLP.PLP>
-44.7553

> <Gold.PLP.part.hbond>
-2.0000

> <Gold.PLP.part.metal>
0.0000

> <Gold.PLP.part.buried>
-6.3659

> <Gold.PLP.part.nonpolar>
-35.0901

> <Gold.PLP.part.repulsive>
0.1019

> <Gold.PLP.ligand.clash>
0.0000

> <Gold.PLP.ligand.torsion>
0.6034

> <Gold.PLP.Chemscore.Hbond>
1.9920

> <Gold.PLP.Chemscore.CHOScore>
0.9980

> <Gold.PLP.Chemscore.Metal>
0.0000

> <Gold.Chemscore.Hbonds>
donor molecule, donor type, donor heavy atom, donor atom, acceptor molecule, acceptor atom, score
      P1  H  6896  6907       L1     2  0.90
      P1  H  7989  7998       L1     9  0.99
      L1  C    12    38       P1  8028  1.00

> <Gold.PLP.Chemscore.Internal.Correction>
0.0543

> <Gold.Rescore>
     Score         DG    S(hbond)    S(metal)    S(lipo)     H(rot)  DE(clash)    DE(int)     intcor
     18.69     -19.57       1.78        0.00     116.46       2.14       0.14       0.74       ----

> <Gold.Chemscore.Fitness>
18.6894

> <Gold.Chemscore.DG>
-19.5691

> <Gold.Chemscore.ZeroCoef>
-5.4800

> <Gold.Chemscore.Hbond>
1.7818

> <Gold.Chemscore.Metal>
0.0000

> <Gold.Chemscore.Lipo>
116.4627

> <Gold.Chemscore.Internal_Hbond>
0.0000

> <Gold.Chemscore.DEClash>
0.1357

> <Gold.Chemscore.DEInternal>
0.7439

> <Gold.Chemscore.Rot>
2.1438

> <Gold.Chemscore.Internal.Correction>
   9.000000E+99

> <Gold.Chemscore.Hbonds>
donor molecule, donor type, donor heavy atom, donor atom, acceptor molecule, acceptor atom, score
      P1  H  6896  6907       L1     2  0.16
      P1  H  7989  7998       L1     9  0.37

> <Gold.Chemscore.Hbond.Weighted>
-5.9511

> <Gold.Chemscore.Metal.Weighted>
-0.0000

> <Gold.Chemscore.Lipo.Weighted>
-13.6261

> <Gold.Chemscore.Internal_Hbond.Weighted>
0.0000

> <Gold.Chemscore.DEClash.Weighted>
0.1357

> <Gold.Chemscore.DEInternal.Weighted>
0.7439

> <Gold.Chemscore.Rot.Weighted>
5.4881

> <Gold.Chemscore.Internal.Correction.Weighted>
   9.000000E+99

> <Gold.Protein.RotatedTorsions>
[ 6907 6896 6895 6894 ] final  -95.65 input  -60.11 | X-H torsion
[ 7974 7965 7964 7962 ] final  -34.97 input  175.53 | X-H torsion
[ 8008 7997 7996 7995 ] final   16.32 input   59.86 | X-H torsion
[ 10167 10162 10161 10158 ] final  -54.47 input  -65.29 | X-H torsion
[ 10718 10713 10712 10709 ] final   10.64 input   66.30 | X-H torsion
[ 10763 10752 10751 10750 ] final -127.29 input  -60.55 | X-H torsion
[ 11005 11000 10999 10996 ] final   52.00 input  -57.11 | X-H torsion

> <Gold.Protein.ActiveResidues>
 VAL166  LYS551  ARG553  GLY616  TRP617  ASP618  TYR619  PRO620  LYS621  CYS622 
 ASP623  PHE694  ASN695  SER759  ASP760  ASP761  ALA762  ILE779  LEU786  VAL792 
 PHE793  MET794  SER795  GLU796  ALA797  LYS798  CYS799  TRP800  GLU811  SER814 

> <Gold.Protein.RotatedAtoms>
  150.6969  134.1624  159.4180 H   0  0  0  0  0  0  0  0  0  0  0  0  # atno 6907 bound_to 6896
  151.9604  135.0124  160.0556 H   0  0  0  0  0  0  0  0  0  0  0  0  # atno 6908 bound_to 6896
  152.1932  133.4752  159.5055 H   0  0  0  0  0  0  0  0  0  0  0  0  # atno 6909 bound_to 6896
  146.0786  140.6102  142.8919 H   0  0  0  0  0  0  0  0  0  0  0  0  # atno 7974 bound_to 7965
  154.8753  140.2965  155.5457 H   0  0  0  0  0  0  0  0  0  0  0  0  # atno 8008 bound_to 7997
  156.3022  140.2452  156.3681 H   0  0  0  0  0  0  0  0  0  0  0  0  # atno 8009 bound_to 7997
  154.8774  140.0399  157.1750 H   0  0  0  0  0  0  0  0  0  0  0  0  # atno 8010 bound_to 7997
  140.6428  143.2518  151.4941 H   0  0  0  0  0  0  0  0  0  0  0  0  # atno 10167 bound_to 10162
  156.9840  130.6016  149.5679 H   0  0  0  0  0  0  0  0  0  0  0  0  # atno 10718 bound_to 10713
  154.8751  135.3967  154.3570 H   0  0  0  0  0  0  0  0  0  0  0  0  # atno 10763 bound_to 10752
  153.4347  135.7026  153.6213 H   0  0  0  0  0  0  0  0  0  0  0  0  # atno 10764 bound_to 10752
  153.4819  135.3767  155.2416 H   0  0  0  0  0  0  0  0  0  0  0  0  # atno 10765 bound_to 10752
  140.0886  134.5241  155.8875 H   0  0  0  0  0  0  0  0  0  0  0  0  # atno 11005 bound_to 11000
  144.7278  140.4578  143.6960 LP  0  0  0  0  0  0  0  0  0  0  0  0  # atno 17320 bound_to 7965
  145.6260  139.1530  143.2995 LP  0  0  0  0  0  0  0  0  0  0  0  0  # atno 17321 bound_to 7965
  139.5638  144.2092  152.1733 LP  0  0  0  0  0  0  0  0  0  0  0  0  # atno 17342 bound_to 10162
  140.1367  144.5239  150.6769 LP  0  0  0  0  0  0  0  0  0  0  0  0  # atno 17343 bound_to 10162
  156.0233  130.5328  150.8337 LP  0  0  0  0  0  0  0  0  0  0  0  0  # atno 17370 bound_to 10713
  157.5506  131.0943  150.9701 LP  0  0  0  0  0  0  0  0  0  0  0  0  # atno 17371 bound_to 10713
  141.2070  133.6660  156.6280 LP  0  0  0  0  0  0  0  0  0  0  0  0  # atno 17394 bound_to 11000
  140.3385  134.7869  157.4380 LP  0  0  0  0  0  0  0  0  0  0  0  0  # atno 17395 bound_to 11000

$$$$
