AV-unprocessed.smi:2702|AV-procd|sdf|10433|dock5
  -GOLD-   2272014473D 1   1.00000     0.00000
 Structure written by MMmdl.
 47 48  0  0  0  0  0  0  0  0  1 V2000
  152.3969  142.6398  160.0307 C   0  0  0  0  0  0  0  0  0  0  0  0
  152.0525  141.5365  159.2120 O   0  0  0  0  0  0  0  0  0  0  0  0
  151.4936  141.9338  157.9710 C   0  0  0  0  0  0  0  0  0  0  0  0
  151.2643  140.7287  157.0811 C   0  0  0  0  0  0  0  0  0  0  0  0
  150.7729  140.8455  155.8253 C   0  0  0  0  0  0  0  0  0  0  0  0
  150.5637  139.6610  154.9929 C   0  0  0  0  0  0  0  0  0  0  0  0
  150.1186  139.7260  153.8464 O   0  0  0  0  0  0  0  0  0  0  0  0
  150.8977  138.4759  155.5844 N   0  0  0  0  0  0  0  0  0  0  0  0
  150.7374  137.1956  154.8715 C   0  0  0  0  0  0  0  0  0  0  0  0
  149.8150  136.2154  155.6092 C   0  0  0  0  0  0  0  0  0  0  0  0
  149.9008  136.0751  156.8297 O   0  0  0  0  0  0  0  0  0  0  0  0
  148.9319  135.5524  154.8469 N   0  0  0  0  0  0  0  0  0  0  0  0
  147.9757  134.5432  155.3077 C   0  0  1  0  0  0  0  0  0  0  0  0
  146.8459  134.3844  154.2736 C   0  0  0  0  0  0  0  0  0  0  0  0
  147.3395  133.7143  152.9831 C   0  0  0  0  0  0  0  0  0  0  0  0
  148.0068  132.3658  153.2847 C   0  0  0  0  0  0  0  0  0  0  0  0
  149.1632  132.5020  154.2967 C   0  0  2  0  0  0  0  0  0  0  0  0
  149.8026  131.1241  154.5438 C   0  0  0  0  0  0  0  0  0  0  0  0
  148.6702  133.1857  155.6029 C   0  0  1  0  0  0  0  0  0  0  0  0
  149.7805  133.3324  156.6635 C   0  0  0  0  0  0  0  0  0  0  0  0
  151.4178  138.4121  156.8925 C   0  0  0  0  0  0  0  0  0  0  0  0
  151.5939  139.4763  157.6092 N   0  0  0  0  0  0  0  0  0  0  0  0
  152.8227  142.2815  160.9679 H   0  0  0  0  0  0  0  0  0  0  0  0
  151.5200  143.2436  160.2681 H   0  0  0  0  0  0  0  0  0  0  0  0
  153.1392  143.2749  159.5453 H   0  0  0  0  0  0  0  0  0  0  0  0
  150.5526  142.4614  158.1365 H   0  0  0  0  0  0  0  0  0  0  0  0
  152.1661  142.6240  157.4593 H   0  0  0  0  0  0  0  0  0  0  0  0
  150.5256  141.8192  155.4276 H   0  0  0  0  0  0  0  0  0  0  0  0
  150.3420  137.3400  153.8646 H   0  0  0  0  0  0  0  0  0  0  0  0
  151.7170  136.7364  154.7255 H   0  0  0  0  0  0  0  0  0  0  0  0
  148.9375  135.7420  153.8551 H   0  0  0  0  0  0  0  0  0  0  0  0
  147.5095  134.8902  156.2314 H   0  0  0  0  0  0  0  0  0  0  0  0
  146.0474  133.7799  154.7059 H   0  0  0  0  0  0  0  0  0  0  0  0
  146.4018  135.3544  154.0460 H   0  0  0  0  0  0  0  0  0  0  0  0
  146.5032  133.5690  152.2988 H   0  0  0  0  0  0  0  0  0  0  0  0
  148.0460  134.3672  152.4696 H   0  0  0  0  0  0  0  0  0  0  0  0
  147.2591  131.6725  153.6729 H   0  0  0  0  0  0  0  0  0  0  0  0
  148.3738  131.9302  152.3546 H   0  0  0  0  0  0  0  0  0  0  0  0
  149.9277  133.1359  153.8452 H   0  0  0  0  0  0  0  0  0  0  0  0
  149.1165  130.4552  155.0640 H   0  0  0  0  0  0  0  0  0  0  0  0
  150.7127  131.2017  155.1380 H   0  0  0  0  0  0  0  0  0  0  0  0
  150.0798  130.6478  153.6030 H   0  0  0  0  0  0  0  0  0  0  0  0
  147.9099  132.5364  156.0401 H   0  0  0  0  0  0  0  0  0  0  0  0
  150.6543  133.8478  156.2639 H   0  0  0  0  0  0  0  0  0  0  0  0
  150.1097  132.3635  157.0374 H   0  0  0  0  0  0  0  0  0  0  0  0
  149.4263  133.8994  157.5248 H   0  0  0  0  0  0  0  0  0  0  0  0
  151.6632  137.4117  157.2524 H   0  0  0  0  0  0  0  0  0  0  0  0
  1  2  1  0  0  0  0
  1 23  1  0  0  0  0
  1 24  1  0  0  0  0
  1 25  1  0  0  0  0
  2  3  1  0  0  0  0
  3  4  1  0  0  0  0
  3 26  1  0  0  0  0
  3 27  1  0  0  0  0
  4 22  1  0  0  0  0
  4  5  2  0  0  0  0
  5  6  1  0  0  0  0
  5 28  1  0  0  0  0
  6  7  2  0  0  0  0
  6  8  1  0  0  0  0
  8  9  1  0  0  0  0
  8 21  1  0  0  0  0
  9 10  1  0  0  0  0
  9 29  1  0  0  0  0
  9 30  1  0  0  0  0
 10 11  2  0  0  0  0
 10 12  1  0  0  0  0
 12 13  1  0  0  0  0
 12 31  1  0  0  0  0
 13 19  1  0  0  0  0
 13 14  1  0  0  0  0
 13 32  1  0  0  0  0
 14 15  1  0  0  0  0
 14 33  1  0  0  0  0
 14 34  1  0  0  0  0
 15 16  1  0  0  0  0
 15 35  1  0  0  0  0
 15 36  1  0  0  0  0
 16 17  1  0  0  0  0
 16 37  1  0  0  0  0
 16 38  1  0  0  0  0
 17 18  1  0  0  0  0
 17 19  1  0  0  0  0
 17 39  1  0  0  0  0
 18 40  1  0  0  0  0
 18 41  1  0  0  0  0
 18 42  1  0  0  0  0
 19 20  1  0  0  0  0
 19 43  1  0  0  0  0
 20 44  1  0  0  0  0
 20 45  1  0  0  0  0
 20 46  1  0  0  0  0
 21 22  2  0  0  0  0
 21 47  1  0  0  0  0
M  END
> <s_m_source_file>
AV-unprocessed.smi

> <i_m_source_file_index>
2702

> <i_lp_mmshare_version>
43012

> <i_f3d_flags>
0

> <s_epik_input>
W0NIM11PW0NIMl1jMVtjSF1jKD1PKW4oW2NIXW4xKVtDSDJdQyg9TylbTkhdW0NAQEhdMltDSDJdW0NIMl1bQ0gyXVtDQEBIXShbQ0gzXSlbQ0BIXTJbQ0gzXQ==

> <s_epik_cmdline>
J2VwaWtfcHl0aG9uJywgJy1waCcsICc3LjAnLCAnLXRuJywgJzgnLCAnLW1hJywgJzIwMCcsICctbWV0YWxfYmluZGluZycsICctaW1hZScsICc8aW5maWxlLm1hZT4nLCAnLW9tYWUnLCAnPG91dGZpbGUubWFlPic=

> <r_lp_tautomer_probability>
1

> <r_epik_Ionization_Penalty>
1.22164e-06

> <r_epik_Ionization_Penalty_Charging>
3.17988e-07

> <r_epik_Ionization_Penalty_Neutral>
9.03656e-07

> <r_epik_State_Penalty>
-0

> <r_epik_Charging_Adjusted_Penalty>
3.17988e-07

> <i_epik_Tot_Q>
0

> <i_epik_Tot_abs_Q>
0

> <r_epik_Metal_State_Penalty>
-0

> <b_epik_Metal_Only>
0

> <s_lp_Force_Field>
OPLS_2005

> <r_lp_Energy>
16.6041

> <b_lp_Chiralities_Consistent>
1

> <s_lp_Variant>
AV-unprocessed.smi:2702-4

> <Gold.Version>
5.8.1

> <Gold.Id.Protein>
6NUR|6NUR_protein|mol2

> <Gold.PLP.Fitness>
37.6459

> <Gold.PLP.PLP>
-32.7367

> <Gold.PLP.part.hbond>
-1.9794

> <Gold.PLP.part.metal>
0.0000

> <Gold.PLP.part.buried>
-3.2650

> <Gold.PLP.part.nonpolar>
-27.6028

> <Gold.PLP.part.repulsive>
0.5134

> <Gold.PLP.ligand.clash>
0.0000

> <Gold.PLP.ligand.torsion>
0.4792

> <Gold.PLP.Chemscore.Hbond>
1.9500

> <Gold.PLP.Chemscore.CHOScore>
0.0000

> <Gold.PLP.Chemscore.Metal>
0.0000

> <Gold.Chemscore.Hbonds>
donor molecule, donor type, donor heavy atom, donor atom, acceptor molecule, acceptor atom, score
      L1  H    12    31       P1  7948  0.99
      P1  H  7989  7998       L1     7  0.28

> <Gold.PLP.Chemscore.Internal.Correction>
0.0177

> <Gold.Rescore>
     Score         DG    S(hbond)    S(metal)    S(lipo)     H(rot)  DE(clash)    DE(int)     intcor
      9.77     -15.28       1.91        0.00      71.54       1.93       1.59       3.92       ----

> <Gold.Chemscore.Fitness>
9.7720

> <Gold.Chemscore.DG>
-15.2832

> <Gold.Chemscore.ZeroCoef>
-5.4800

> <Gold.Chemscore.Hbond>
1.9073

> <Gold.Chemscore.Metal>
0.0000

> <Gold.Chemscore.Lipo>
71.5358

> <Gold.Chemscore.Internal_Hbond>
0.0000

> <Gold.Chemscore.DEClash>
1.5924

> <Gold.Chemscore.DEInternal>
3.9189

> <Gold.Chemscore.Rot>
1.9284

> <Gold.Chemscore.Internal.Correction>
   9.000000E+99

> <Gold.Chemscore.Hbonds>
donor molecule, donor type, donor heavy atom, donor atom, acceptor molecule, acceptor atom, score
      L1  H    12    31       P1  7948  0.86

> <Gold.Chemscore.Hbond.Weighted>
-6.3703

> <Gold.Chemscore.Metal.Weighted>
-0.0000

> <Gold.Chemscore.Lipo.Weighted>
-8.3697

> <Gold.Chemscore.Internal_Hbond.Weighted>
0.0000

> <Gold.Chemscore.DEClash.Weighted>
1.5924

> <Gold.Chemscore.DEInternal.Weighted>
3.9189

> <Gold.Chemscore.Rot.Weighted>
4.9368

> <Gold.Chemscore.Internal.Correction.Weighted>
   9.000000E+99

> <Gold.Protein.RotatedTorsions>
[ 6907 6896 6895 6894 ] final  -53.46 input  -60.11 | X-H torsion
[ 7974 7965 7964 7962 ] final  157.56 input  175.53 | X-H torsion
[ 8008 7997 7996 7995 ] final  164.68 input   59.86 | X-H torsion
[ 10167 10162 10161 10158 ] final  116.60 input  -65.29 | X-H torsion
[ 10718 10713 10712 10709 ] final  -76.89 input   66.30 | X-H torsion
[ 10763 10752 10751 10750 ] final    1.54 input  -60.55 | X-H torsion
[ 11005 11000 10999 10996 ] final  162.83 input  -57.11 | X-H torsion

> <Gold.Protein.ActiveResidues>
 VAL166  LYS551  ARG553  GLY616  TRP617  ASP618  TYR619  PRO620  LYS621  CYS622 
 ASP623  PHE694  ASN695  SER759  ASP760  ASP761  ALA762  ILE779  LEU786  VAL792 
 PHE793  MET794  SER795  GLU796  ALA797  LYS798  CYS799  TRP800  GLU811  SER814 

> <Gold.Protein.RotatedAtoms>
  150.8424  134.7721  159.6943 H   0  0  0  0  0  0  0  0  0  0  0  0  # atno 6907 bound_to 6896
  152.4509  134.5393  159.9844 H   0  0  0  0  0  0  0  0  0  0  0  0  # atno 6908 bound_to 6896
  151.5530  133.3377  159.2992 H   0  0  0  0  0  0  0  0  0  0  0  0  # atno 6909 bound_to 6896
  144.7896  139.7358  143.6227 H   0  0  0  0  0  0  0  0  0  0  0  0  # atno 7974 bound_to 7965
  156.1861  140.1690  156.8183 H   0  0  0  0  0  0  0  0  0  0  0  0  # atno 8008 bound_to 7997
  154.5415  140.0735  156.8551 H   0  0  0  0  0  0  0  0  0  0  0  0  # atno 8009 bound_to 7997
  155.3205  140.3373  155.4243 H   0  0  0  0  0  0  0  0  0  0  0  0  # atno 8010 bound_to 7997
  139.6236  144.7105  151.2582 H   0  0  0  0  0  0  0  0  0  0  0  0  # atno 10167 bound_to 10162
  156.0161  130.4477  150.3262 H   0  0  0  0  0  0  0  0  0  0  0  0  # atno 10718 bound_to 10713
  153.3067  135.6960  153.7153 H   0  0  0  0  0  0  0  0  0  0  0  0  # atno 10763 bound_to 10752
  153.6046  135.3456  155.2958 H   0  0  0  0  0  0  0  0  0  0  0  0  # atno 10764 bound_to 10752
  154.8565  135.4349  154.2194 H   0  0  0  0  0  0  0  0  0  0  0  0  # atno 10765 bound_to 10752
  140.2297  134.8134  157.3304 H   0  0  0  0  0  0  0  0  0  0  0  0  # atno 11005 bound_to 11000
  146.2143  139.5521  142.9661 LP  0  0  0  0  0  0  0  0  0  0  0  0  # atno 17320 bound_to 7965
  145.5829  141.0380  143.2112 LP  0  0  0  0  0  0  0  0  0  0  0  0  # atno 17321 bound_to 7965
  140.7397  143.6610  150.8164 LP  0  0  0  0  0  0  0  0  0  0  0  0  # atno 17342 bound_to 10162
  140.0224  143.5528  152.2795 LP  0  0  0  0  0  0  0  0  0  0  0  0  # atno 17343 bound_to 10162
  157.1361  131.0284  151.2948 LP  0  0  0  0  0  0  0  0  0  0  0  0  # atno 17370 bound_to 10713
  157.4511  130.7598  149.7152 LP  0  0  0  0  0  0  0  0  0  0  0  0  # atno 17371 bound_to 10713
  140.1764  134.4545  155.7799 LP  0  0  0  0  0  0  0  0  0  0  0  0  # atno 17394 bound_to 11000
  141.2218  133.6964  156.7794 LP  0  0  0  0  0  0  0  0  0  0  0  0  # atno 17395 bound_to 11000

$$$$
