AV-unprocessed.smi:525|AV-procd|sdf|2810|dock7
  -GOLD-   2262023293D 1   1.00000     0.00000
 Structure written by MMmdl.
 44 46  0  0  0  0  0  0  0  0  2 V2000
  140.2068  136.3634  153.7868 C   0  0  0  0  0  0  0  0  0  0  0  0
  141.1636  135.3641  154.0900 O   0  0  0  0  0  0  0  0  0  0  0  0
  142.3186  135.4523  153.2715 C   0  0  0  0  0  0  0  0  0  0  0  0
  143.5604  135.0521  154.0799 C   0  0  0  0  0  0  0  0  0  0  0  0
  144.7388  134.8689  153.2205 N   0  0  0  0  0  0  0  0  0  0  0  0
  145.9371  135.5138  153.2309 C   0  0  0  0  0  0  0  0  0  0  0  0
  146.4150  136.8005  154.3377 S   0  0  0  0  0  0  0  0  0  0  0  0
  147.0274  138.1521  153.2803 C   0  0  1  0  0  0  0  0  0  0  0  0
  146.3215  138.2574  151.9167 C   0  0  0  0  0  0  0  0  0  0  0  0
  144.9863  138.2158  151.9224 N   0  0  0  0  0  0  0  0  0  0  0  0
  146.9599  138.3894  150.8739 O   0  0  0  0  0  0  0  0  0  0  0  0
  146.9296  139.4692  154.0421 C   0  0  0  0  0  0  0  0  0  0  0  0
  146.4006  139.5104  155.3525 C   0  0  0  0  0  0  0  0  0  0  0  0
  146.3181  140.7319  156.0483 C   0  0  0  0  0  0  0  0  0  0  0  0
  146.7639  141.9207  155.4401 C   0  0  0  0  0  0  0  0  0  0  0  0
  147.2931  141.8870  154.1359 C   0  0  0  0  0  0  0  0  0  0  0  0
  147.3771  140.6656  153.4398 C   0  0  0  0  0  0  0  0  0  0  0  0
  146.6927  135.0039  152.2198 N   0  3  0  0  0  0  0  0  0  0  0  0
  145.9643  134.0227  151.5456 C   0  0  0  0  0  0  0  0  0  0  0  0
  146.3019  133.2290  150.4537 C   0  0  0  0  0  0  0  0  0  0  0  0
  145.3178  132.3270  149.9987 C   0  0  0  0  0  0  0  0  0  0  0  0
  144.0562  132.2411  150.6223 C   0  0  0  0  0  0  0  0  0  0  0  0
  143.7257  133.0490  151.7302 C   0  0  0  0  0  0  0  0  0  0  0  0
  144.7055  133.9348  152.1781 C   0  0  0  0  0  0  0  0  0  0  0  0
  139.3457  136.2580  154.4464 H   0  0  0  0  0  0  0  0  0  0  0  0
  139.8551  136.2720  152.7582 H   0  0  0  0  0  0  0  0  0  0  0  0
  140.6210  137.3621  153.9295 H   0  0  0  0  0  0  0  0  0  0  0  0
  142.2145  134.7944  152.4073 H   0  0  0  0  0  0  0  0  0  0  0  0
  142.4330  136.4691  152.8935 H   0  0  0  0  0  0  0  0  0  0  0  0
  143.7984  135.8273  154.8088 H   0  0  0  0  0  0  0  0  0  0  0  0
  143.3803  134.1413  154.6502 H   0  0  0  0  0  0  0  0  0  0  0  0
  148.0793  137.9410  153.0840 H   0  0  0  0  0  0  0  0  0  0  0  0
  144.4736  138.3025  151.0567 H   0  0  0  0  0  0  0  0  0  0  0  0
  144.4921  138.1190  152.7979 H   0  0  0  0  0  0  0  0  0  0  0  0
  146.0561  138.6035  155.8284 H   0  0  0  0  0  0  0  0  0  0  0  0
  145.9128  140.7565  157.0490 H   0  0  0  0  0  0  0  0  0  0  0  0
  146.7005  142.8577  155.9736 H   0  0  0  0  0  0  0  0  0  0  0  0
  147.6358  142.7989  153.6693 H   0  0  0  0  0  0  0  0  0  0  0  0
  147.7863  140.6532  152.4405 H   0  0  0  0  0  0  0  0  0  0  0  0
  147.2658  133.2965  149.9709 H   0  0  0  0  0  0  0  0  0  0  0  0
  145.5333  131.6911  149.1523 H   0  0  0  0  0  0  0  0  0  0  0  0
  143.3251  131.5422  150.2425 H   0  0  0  0  0  0  0  0  0  0  0  0
  142.7534  132.9781  152.1945 H   0  0  0  0  0  0  0  0  0  0  0  0
  147.6333  135.3084  152.0062 H   0  0  0  0  0  0  0  0  0  0  0  0
  1  2  1  0  0  0  0
  1 25  1  0  0  0  0
  1 26  1  0  0  0  0
  1 27  1  0  0  0  0
  2  3  1  0  0  0  0
  3  4  1  0  0  0  0
  3 28  1  0  0  0  0
  3 29  1  0  0  0  0
  4  5  1  0  0  0  0
  4 30  1  0  0  0  0
  4 31  1  0  0  0  0
  5 24  1  0  0  0  0
  5  6  1  0  0  0  0
  6  7  1  0  0  0  0
  6 18  2  0  0  0  0
  7  8  1  0  0  0  0
  8  9  1  0  0  0  0
  8 12  1  0  0  0  0
  8 32  1  0  0  0  0
  9 10  1  0  0  0  0
  9 11  2  0  0  0  0
 10 33  1  0  0  0  0
 10 34  1  0  0  0  0
 12 17  1  0  0  0  0
 12 13  2  0  0  0  0
 13 14  1  0  0  0  0
 13 35  1  0  0  0  0
 14 15  2  0  0  0  0
 14 36  1  0  0  0  0
 15 16  1  0  0  0  0
 15 37  1  0  0  0  0
 16 17  2  0  0  0  0
 16 38  1  0  0  0  0
 17 39  1  0  0  0  0
 18 19  1  0  0  0  0
 18 44  1  0  0  0  0
 19 24  2  0  0  0  0
 19 20  1  0  0  0  0
 20 21  2  0  0  0  0
 20 40  1  0  0  0  0
 21 22  1  0  0  0  0
 21 41  1  0  0  0  0
 22 23  2  0  0  0  0
 22 42  1  0  0  0  0
 23 24  1  0  0  0  0
 23 43  1  0  0  0  0
M  CHG  1  18   1
M  END
> <s_m_source_file>
AV-unprocessed.smi

> <i_m_source_file_index>
525

> <i_lp_mmshare_version>
43012

> <i_f3d_flags>
0

> <s_epik_input>
W2NIXTFbY0hdW2NIXVtjSF1jKGMxMiluKFtDSDJdW0NIMl1PW0NIM10pYyhuMilTW0NASF0oQyg9TylbTkgyXSljM1tjSF1bY0hdW2NIXVtjSF1bY0hdMw==

> <s_epik_cmdline>
J2VwaWtfcHl0aG9uJywgJy1waCcsICc3LjAnLCAnLXRuJywgJzgnLCAnLW1hJywgJzIwMCcsICctbWV0YWxfYmluZGluZycsICctaW1hZScsICc8aW5maWxlLm1hZT4nLCAnLW9tYWUnLCAnPG91dGZpbGUubWFlPic=

> <r_epik_Ionization_Penalty>
1.29485

> <r_epik_Ionization_Penalty_Charging>
1.29485

> <r_epik_Ionization_Penalty_Neutral>
1.02965e-06

> <r_epik_State_Penalty>
1.36828

> <r_epik_Charging_Adjusted_Penalty>
2.66313

> <i_epik_Tot_Q>
1

> <i_epik_Tot_abs_Q>
1

> <r_epik_Metal_State_Penalty>
1.43316

> <b_epik_Metal_Only>
0

> <s_lp_Force_Field>
OPLS_2005

> <r_lp_Energy>
11.9794

> <b_lp_Chiralities_Consistent>
1

> <s_lp_Variant>
AV-unprocessed.smi:525-4

> <Gold.Version>
5.8.1

> <Gold.Id.Protein>
6NUR|6NUR_protein|mol2

> <Gold.PLP.Fitness>
52.6885

> <Gold.PLP.PLP>
-40.2351

> <Gold.PLP.part.hbond>
-4.6706

> <Gold.PLP.part.metal>
0.0000

> <Gold.PLP.part.buried>
-7.5429

> <Gold.PLP.part.nonpolar>
-30.8547

> <Gold.PLP.part.repulsive>
0.5509

> <Gold.PLP.ligand.clash>
0.0000

> <Gold.PLP.ligand.torsion>
1.0226

> <Gold.PLP.Chemscore.Hbond>
4.7720

> <Gold.PLP.Chemscore.CHOScore>
0.0000

> <Gold.PLP.Chemscore.Metal>
0.0000

> <Gold.Chemscore.Hbonds>
donor molecule, donor type, donor heavy atom, donor atom, acceptor molecule, acceptor atom, score
      L1  H    10    33       P1 10171  0.70
      L1  H    18    44       P1  7948  2.00
      P1  H  7954  7966       L1    11  1.00
      P1  H 11000 11005       L1     2  0.67

> <Gold.PLP.Chemscore.Internal.Correction>
0.1827

> <Gold.Rescore>
     Score         DG    S(hbond)    S(metal)    S(lipo)     H(rot)  DE(clash)    DE(int)     intcor
     20.04     -21.06       3.61        0.00      85.10       2.51       0.14       0.88       ----

> <Gold.Chemscore.Fitness>
20.0434

> <Gold.Chemscore.DG>
-21.0630

> <Gold.Chemscore.ZeroCoef>
-5.4800

> <Gold.Chemscore.Hbond>
3.6117

> <Gold.Chemscore.Metal>
0.0000

> <Gold.Chemscore.Lipo>
85.1033

> <Gold.Chemscore.Internal_Hbond>
0.0000

> <Gold.Chemscore.DEClash>
0.1393

> <Gold.Chemscore.DEInternal>
0.8803

> <Gold.Chemscore.Rot>
2.5145

> <Gold.Chemscore.Internal.Correction>
   9.000000E+99

> <Gold.Chemscore.Hbonds>
donor molecule, donor type, donor heavy atom, donor atom, acceptor molecule, acceptor atom, score
      L1  H    10    33       P1 10171  0.69
      L1  H    18    44       P1  7948  0.95
      P1  H  7954  7966       L1    11  0.96
      P1  H 11000 11005       L1     2  0.46

> <Gold.Chemscore.Hbond.Weighted>
-12.0631

> <Gold.Chemscore.Metal.Weighted>
-0.0000

> <Gold.Chemscore.Lipo.Weighted>
-9.9571

> <Gold.Chemscore.Internal_Hbond.Weighted>
0.0000

> <Gold.Chemscore.DEClash.Weighted>
0.1393

> <Gold.Chemscore.DEInternal.Weighted>
0.8803

> <Gold.Chemscore.Rot.Weighted>
6.4372

> <Gold.Chemscore.Internal.Correction.Weighted>
   9.000000E+99

> <Gold.Protein.RotatedTorsions>
[ 6907 6896 6895 6894 ] final  153.75 input  -60.11 | X-H torsion
[ 7974 7965 7964 7962 ] final -168.67 input  175.53 | X-H torsion
[ 8008 7997 7996 7995 ] final  -11.60 input   59.86 | X-H torsion
[ 10167 10162 10161 10158 ] final  -75.04 input  -65.29 | X-H torsion
[ 10718 10713 10712 10709 ] final  106.39 input   66.30 | X-H torsion
[ 10763 10752 10751 10750 ] final   13.44 input  -60.55 | X-H torsion
[ 11005 11000 10999 10996 ] final   17.91 input  -57.11 | X-H torsion

> <Gold.Protein.ActiveResidues>
 VAL166  LYS551  ARG553  GLY616  TRP617  ASP618  TYR619  PRO620  LYS621  CYS622 
 ASP623  PHE694  ASN695  SER759  ASP760  ASP761  ALA762  ILE779  LEU786  VAL792 
 PHE793  MET794  SER795  GLU796  ALA797  LYS798  CYS799  TRP800  GLU811  SER814 

> <Gold.Protein.RotatedAtoms>
  152.0682  133.4094  159.4447 H   0  0  0  0  0  0  0  0  0  0  0  0  # atno 6907 bound_to 6896
  150.6864  134.3122  159.4760 H   0  0  0  0  0  0  0  0  0  0  0  0  # atno 6908 bound_to 6896
  152.0951  134.9380  160.0621 H   0  0  0  0  0  0  0  0  0  0  0  0  # atno 6909 bound_to 6896
  144.7199  140.2336  143.6301 H   0  0  0  0  0  0  0  0  0  0  0  0  # atno 7974 bound_to 7965
  154.5450  140.2298  155.8578 H   0  0  0  0  0  0  0  0  0  0  0  0  # atno 8008 bound_to 7997
  156.1894  140.3081  155.9265 H   0  0  0  0  0  0  0  0  0  0  0  0  # atno 8009 bound_to 7997
  155.3182  140.0439  157.3028 H   0  0  0  0  0  0  0  0  0  0  0  0  # atno 8010 bound_to 7997
  140.4976  143.2367  151.7804 H   0  0  0  0  0  0  0  0  0  0  0  0  # atno 10167 bound_to 10162
  157.6670  131.0849  150.5999 H   0  0  0  0  0  0  0  0  0  0  0  0  # atno 10718 bound_to 10713
  153.1721  135.6814  153.8593 H   0  0  0  0  0  0  0  0  0  0  0  0  # atno 10763 bound_to 10752
  153.7954  135.3163  155.3385 H   0  0  0  0  0  0  0  0  0  0  0  0  # atno 10764 bound_to 10752
  154.8005  135.4781  154.0356 H   0  0  0  0  0  0  0  0  0  0  0  0  # atno 10765 bound_to 10752
  140.4306  134.1424  155.7680 H   0  0  0  0  0  0  0  0  0  0  0  0  # atno 11005 bound_to 11000
  145.8387  139.2119  143.1840 LP  0  0  0  0  0  0  0  0  0  0  0  0  # atno 17320 bound_to 7965
  146.0366  140.8206  142.9849 LP  0  0  0  0  0  0  0  0  0  0  0  0  # atno 17321 bound_to 7965
  139.4865  144.4565  151.9592 LP  0  0  0  0  0  0  0  0  0  0  0  0  # atno 17342 bound_to 10162
  140.3653  144.2922  150.5927 LP  0  0  0  0  0  0  0  0  0  0  0  0  # atno 17343 bound_to 10162
  156.6300  130.4429  149.5790 LP  0  0  0  0  0  0  0  0  0  0  0  0  # atno 17370 bound_to 10713
  156.2289  130.6783  151.1444 LP  0  0  0  0  0  0  0  0  0  0  0  0  # atno 17371 bound_to 10713
  141.1747  133.8538  157.1460 LP  0  0  0  0  0  0  0  0  0  0  0  0  # atno 17394 bound_to 11000
  140.0137  134.9977  157.0448 LP  0  0  0  0  0  0  0  0  0  0  0  0  # atno 17395 bound_to 11000

$$$$
