AV-unprocessed.smi:249|AV-procd|sdf|1922|dock9
  -GOLD-   2262021 33D 1   1.00000     0.00000
 Structure written by MMmdl.
 64 67  0  0  0  0  0  0  0  0  2 V2000
  146.0674  131.8590  149.0506 C   0  0  0  0  0  0  0  0  0  0  0  0
  145.4785  131.5847  150.4416 C   0  0  0  0  0  0  0  0  0  0  0  0
  146.5308  131.4097  151.4758 N   0  3  2  0  0  0  0  0  0  0  0  0
  146.2893  130.2563  152.3844 C   0  0  0  0  0  0  0  0  0  0  0  0
  147.5038  129.9995  153.2908 C   0  0  0  0  0  0  0  0  0  0  0  0
  147.8766  131.2594  154.0994 C   0  0  1  0  0  0  0  0  0  0  0  0
  148.9990  131.0458  155.0246 N   0  0  0  0  0  0  0  0  0  0  0  0
  150.2516  130.5650  154.4520 C   0  0  0  0  0  0  0  0  0  0  0  0
  149.1660  131.9543  156.0160 C   0  0  0  0  0  0  0  0  0  0  0  0
  149.9387  133.0526  155.8050 N   0  0  0  0  0  0  0  0  0  0  0  0
  150.0809  133.9661  156.7702 C   0  0  0  0  0  0  0  0  0  0  0  0
  149.5434  133.9798  157.9918 N   0  0  0  0  0  0  0  0  0  0  0  0
  148.7768  132.8729  158.2086 C   0  0  0  0  0  0  0  0  0  0  0  0
  148.5488  131.8134  157.2875 C   0  0  0  0  0  0  0  0  0  0  0  0
  147.7309  130.8488  157.8623 N   0  0  0  0  0  0  0  0  0  0  0  0
  147.4725  131.3209  159.0511 C   0  0  0  0  0  0  0  0  0  0  0  0
  148.0334  132.5475  159.3294 N   0  0  0  0  0  0  0  0  0  0  0  0
  147.8894  133.3079  160.5571 C   0  0  0  0  0  0  0  0  0  0  0  0
  146.4561  133.8489  160.8257 C   0  0  2  0  0  0  0  0  0  0  0  0
  145.7496  134.0969  159.4706 C   0  0  0  0  0  0  0  0  0  0  0  0
  144.4220  134.5438  159.6551 O   0  0  0  0  0  0  0  0  0  0  0  0
  146.4329  135.1229  161.7259 C   0  0  1  0  0  0  0  0  0  0  0  0
  147.4781  135.1516  162.8319 C   0  0  0  0  0  0  0  0  0  0  0  0
  147.5223  136.6263  163.2022 C   0  0  0  0  0  0  0  0  0  0  0  0
  147.3947  137.3036  161.9627 O   0  0  0  0  0  0  0  0  0  0  0  0
  146.7520  136.4532  161.0178 C   0  0  0  0  0  0  0  0  0  0  0  0
  148.0859  132.4407  153.1252 C   0  0  0  0  0  0  0  0  0  0  0  0
  146.8664  132.6662  152.2091 C   0  0  2  0  0  0  0  0  0  0  0  0
  145.6664  133.2795  152.9639 C   0  0  0  0  0  0  0  0  0  0  0  0
  145.2726  132.0606  148.3320 H   0  0  0  0  0  0  0  0  0  0  0  0
  146.6375  131.0115  148.6714 H   0  0  0  0  0  0  0  0  0  0  0  0
  146.7254  132.7283  149.0662 H   0  0  0  0  0  0  0  0  0  0  0  0
  144.8491  132.4351  150.7078 H   0  0  0  0  0  0  0  0  0  0  0  0
  144.8258  130.7110  150.4156 H   0  0  0  0  0  0  0  0  0  0  0  0
  145.3961  130.4300  152.9852 H   0  0  0  0  0  0  0  0  0  0  0  0
  146.0962  129.3555  151.8029 H   0  0  0  0  0  0  0  0  0  0  0  0
  147.2811  129.1675  153.9593 H   0  0  0  0  0  0  0  0  0  0  0  0
  148.3447  129.6837  152.6726 H   0  0  0  0  0  0  0  0  0  0  0  0
  147.0242  131.5071  154.7324 H   0  0  0  0  0  0  0  0  0  0  0  0
  150.9393  130.2529  155.2390 H   0  0  0  0  0  0  0  0  0  0  0  0
  150.7408  131.3361  153.8563 H   0  0  0  0  0  0  0  0  0  0  0  0
  150.0695  129.7037  153.8092 H   0  0  0  0  0  0  0  0  0  0  0  0
  150.7086  134.8105  156.5267 H   0  0  0  0  0  0  0  0  0  0  0  0
  146.8429  130.7941  159.7535 H   0  0  0  0  0  0  0  0  0  0  0  0
  148.2075  132.6791  161.3898 H   0  0  0  0  0  0  0  0  0  0  0  0
  148.6055  134.1285  160.5055 H   0  0  0  0  0  0  0  0  0  0  0  0
  145.8862  133.0749  161.3415 H   0  0  0  0  0  0  0  0  0  0  0  0
  146.2542  134.8684  158.8906 H   0  0  0  0  0  0  0  0  0  0  0  0
  145.7451  133.1908  158.8641 H   0  0  0  0  0  0  0  0  0  0  0  0
  143.9516  134.4340  158.8428 H   0  0  0  0  0  0  0  0  0  0  0  0
  145.4519  135.2072  162.1966 H   0  0  0  0  0  0  0  0  0  0  0  0
  147.2210  134.5241  163.6857 H   0  0  0  0  0  0  0  0  0  0  0  0
  148.4499  134.8341  162.4501 H   0  0  0  0  0  0  0  0  0  0  0  0
  146.6755  136.8861  163.8390 H   0  0  0  0  0  0  0  0  0  0  0  0
  148.4401  136.9047  163.7203 H   0  0  0  0  0  0  0  0  0  0  0  0
  147.4383  136.3050  160.1838 H   0  0  0  0  0  0  0  0  0  0  0  0
  145.8566  136.9423  160.6367 H   0  0  0  0  0  0  0  0  0  0  0  0
  148.3015  133.3534  153.6818 H   0  0  0  0  0  0  0  0  0  0  0  0
  148.9542  132.2541  152.4918 H   0  0  0  0  0  0  0  0  0  0  0  0
  147.1741  133.3972  151.4598 H   0  0  0  0  0  0  0  0  0  0  0  0
  145.9607  134.2003  153.4681 H   0  0  0  0  0  0  0  0  0  0  0  0
  145.2644  132.6105  153.7238 H   0  0  0  0  0  0  0  0  0  0  0  0
  144.8522  133.5370  152.2867 H   0  0  0  0  0  0  0  0  0  0  0  0
  147.3700  131.1805  150.9622 H   0  0  0  0  0  0  0  0  0  0  0  0
  1  2  1  0  0  0  0
  1 30  1  0  0  0  0
  1 31  1  0  0  0  0
  1 32  1  0  0  0  0
  2  3  1  0  0  0  0
  2 33  1  0  0  0  0
  2 34  1  0  0  0  0
  3 28  1  0  0  0  0
  3  4  1  0  0  0  0
  3 64  1  0  0  0  0
  4  5  1  0  0  0  0
  4 35  1  0  0  0  0
  4 36  1  0  0  0  0
  5  6  1  0  0  0  0
  5 37  1  0  0  0  0
  5 38  1  0  0  0  0
  6  7  1  0  0  0  0
  6 27  1  0  0  0  0
  6 39  1  0  0  0  0
  7  8  1  0  0  0  0
  7  9  1  0  0  0  0
  8 40  1  0  0  0  0
  8 41  1  0  0  0  0
  8 42  1  0  0  0  0
  9 14  1  0  0  0  0
  9 10  2  0  0  0  0
 10 11  1  0  0  0  0
 11 12  2  0  0  0  0
 11 43  1  0  0  0  0
 12 13  1  0  0  0  0
 13 17  1  0  0  0  0
 13 14  2  0  0  0  0
 14 15  1  0  0  0  0
 15 16  2  0  0  0  0
 16 17  1  0  0  0  0
 16 44  1  0  0  0  0
 17 18  1  0  0  0  0
 18 19  1  0  0  0  0
 18 45  1  0  0  0  0
 18 46  1  0  0  0  0
 19 20  1  0  0  0  0
 19 22  1  0  0  0  0
 19 47  1  0  0  0  0
 20 21  1  0  0  0  0
 20 48  1  0  0  0  0
 20 49  1  0  0  0  0
 21 50  1  0  0  0  0
 22 26  1  0  0  0  0
 22 23  1  0  0  0  0
 22 51  1  0  0  0  0
 23 24  1  0  0  0  0
 23 52  1  0  0  0  0
 23 53  1  0  0  0  0
 24 25  1  0  0  0  0
 24 54  1  0  0  0  0
 24 55  1  0  0  0  0
 25 26  1  0  0  0  0
 26 56  1  0  0  0  0
 26 57  1  0  0  0  0
 27 28  1  0  0  0  0
 27 58  1  0  0  0  0
 27 59  1  0  0  0  0
 28 29  1  0  0  0  0
 28 60  1  0  0  0  0
 29 61  1  0  0  0  0
 29 62  1  0  0  0  0
 29 63  1  0  0  0  0
M  CHG  1   3   1
M  END
> <s_m_source_file>
AV-unprocessed.smi

> <i_m_source_file_index>
249

> <i_lp_mmshare_version>
43012

> <i_f3d_flags>
0

> <s_epik_input>
W0NIM11bQ0gyXU4xW0NIMl1bQ0gyXVtDQEhdKFtDSDJdW0NASF0xW0NIM10pTihbQ0gzXSljKG5bY0hdbjIpYyhjMjMpbltjSF1uM1tDSDJdW0NASF0oW0NIMl1bT0hdKVtDQEBIXTRbQ0gyXVtDSDJdT1tDSDJdNA==

> <s_epik_cmdline>
J2VwaWtfcHl0aG9uJywgJy1waCcsICc3LjAnLCAnLXRuJywgJzgnLCAnLW1hJywgJzIwMCcsICctbWV0YWxfYmluZGluZycsICctaW1hZScsICc8aW5maWxlLm1hZT4nLCAnLW9tYWUnLCAnPG91dGZpbGUubWFlPic=

> <r_lp_tautomer_probability>
1

> <r_epik_Ionization_Penalty>
0.00294688

> <r_epik_Ionization_Penalty_Charging>
0.00169971

> <r_epik_Ionization_Penalty_Neutral>
0.00124717

> <r_epik_State_Penalty>
-0

> <r_epik_Charging_Adjusted_Penalty>
0.00169971

> <i_epik_Tot_Q>
1

> <i_epik_Tot_abs_Q>
1

> <r_epik_Metal_State_Penalty>
-0

> <b_epik_Metal_Only>
0

> <s_lp_Force_Field>
OPLS_2005

> <r_lp_Energy>
54.0807

> <b_lp_Chiralities_Consistent>
1

> <s_lp_Variant>
AV-unprocessed.smi:249-25

> <Gold.Version>
5.8.1

> <Gold.Id.Protein>
6NUR|6NUR_protein|mol2

> <Gold.PLP.Fitness>
49.4689

> <Gold.PLP.PLP>
-42.4390

> <Gold.PLP.part.hbond>
-4.0000

> <Gold.PLP.part.metal>
0.0000

> <Gold.PLP.part.buried>
-5.0886

> <Gold.PLP.part.nonpolar>
-34.1776

> <Gold.PLP.part.repulsive>
0.0155

> <Gold.PLP.ligand.clash>
0.0000

> <Gold.PLP.ligand.torsion>
1.8716

> <Gold.PLP.Chemscore.Hbond>
3.3216

> <Gold.PLP.Chemscore.CHOScore>
0.0000

> <Gold.PLP.Chemscore.Metal>
0.0000

> <Gold.Chemscore.Hbonds>
donor molecule, donor type, donor heavy atom, donor atom, acceptor molecule, acceptor atom, score
      L1  H     3    64       P1 10747  1.00
      P1  H  6896  6908       L1    12  1.00
      P1  H  6931  6943       L1    25  0.85
      P1  H  6934  6947       L1    25  0.63

> <Gold.PLP.Chemscore.Internal.Correction>
0.8082

> <Gold.Rescore>
     Score         DG    S(hbond)    S(metal)    S(lipo)     H(rot)  DE(clash)    DE(int)     intcor
     18.10     -20.19       2.80        0.00     109.37       2.90       0.06       2.04       ----

> <Gold.Chemscore.Fitness>
18.0952

> <Gold.Chemscore.DG>
-20.1938

> <Gold.Chemscore.ZeroCoef>
-5.4800

> <Gold.Chemscore.Hbond>
2.7973

> <Gold.Chemscore.Metal>
0.0000

> <Gold.Chemscore.Lipo>
109.3699

> <Gold.Chemscore.Internal_Hbond>
0.0000

> <Gold.Chemscore.DEClash>
0.0594

> <Gold.Chemscore.DEInternal>
2.0391

> <Gold.Chemscore.Rot>
2.9006

> <Gold.Chemscore.Internal.Correction>
   9.000000E+99

> <Gold.Chemscore.Hbonds>
donor molecule, donor type, donor heavy atom, donor atom, acceptor molecule, acceptor atom, score
      L1  H     3    64       P1 10747  1.00
      P1  H  6896  6908       L1    12  0.51
      P1  H  6931  6943       L1    25  0.21
      P1  H  6934  6947       L1    25  0.12

> <Gold.Chemscore.Hbond.Weighted>
-9.3431

> <Gold.Chemscore.Metal.Weighted>
-0.0000

> <Gold.Chemscore.Lipo.Weighted>
-12.7963

> <Gold.Chemscore.Internal_Hbond.Weighted>
0.0000

> <Gold.Chemscore.DEClash.Weighted>
0.0594

> <Gold.Chemscore.DEInternal.Weighted>
2.0391

> <Gold.Chemscore.Rot.Weighted>
7.4256

> <Gold.Chemscore.Internal.Correction.Weighted>
   9.000000E+99

> <Gold.Protein.RotatedTorsions>
[ 6907 6896 6895 6894 ] final  136.64 input  -60.11 | X-H torsion
[ 7974 7965 7964 7962 ] final  143.60 input  175.53 | X-H torsion
[ 8008 7997 7996 7995 ] final   71.54 input   59.86 | X-H torsion
[ 10167 10162 10161 10158 ] final -162.34 input  -65.29 | X-H torsion
[ 10718 10713 10712 10709 ] final  -63.20 input   66.30 | X-H torsion
[ 10763 10752 10751 10750 ] final   -0.04 input  -60.55 | X-H torsion
[ 11005 11000 10999 10996 ] final  -29.00 input  -57.11 | X-H torsion

> <Gold.Protein.ActiveResidues>
 VAL166  LYS551  ARG553  GLY616  TRP617  ASP618  TYR619  PRO620  LYS621  CYS622 
 ASP623  PHE694  ASN695  SER759  ASP760  ASP761  ALA762  ILE779  LEU786  VAL792 
 PHE793  MET794  SER795  GLU796  ALA797  LYS798  CYS799  TRP800  GLU811  SER814 

> <Gold.Protein.RotatedAtoms>
  152.2871  133.5525  159.5533 H   0  0  0  0  0  0  0  0  0  0  0  0  # atno 6907 bound_to 6896
  150.7220  134.0481  159.3798 H   0  0  0  0  0  0  0  0  0  0  0  0  # atno 6908 bound_to 6896
  151.8389  135.0597  160.0496 H   0  0  0  0  0  0  0  0  0  0  0  0  # atno 6909 bound_to 6896
  144.8906  139.5563  143.5800 H   0  0  0  0  0  0  0  0  0  0  0  0  # atno 7974 bound_to 7965
  155.7555  140.3487  155.5171 H   0  0  0  0  0  0  0  0  0  0  0  0  # atno 8008 bound_to 7997
  155.8964  140.1026  157.1403 H   0  0  0  0  0  0  0  0  0  0  0  0  # atno 8009 bound_to 7997
  154.4039  140.1294  156.4368 H   0  0  0  0  0  0  0  0  0  0  0  0  # atno 8010 bound_to 7997
  139.6399  144.0278  152.2084 H   0  0  0  0  0  0  0  0  0  0  0  0  # atno 10167 bound_to 10162
  156.0806  130.4218  150.1243 H   0  0  0  0  0  0  0  0  0  0  0  0  # atno 10718 bound_to 10713
  153.3267  135.6972  153.6983 H   0  0  0  0  0  0  0  0  0  0  0  0  # atno 10763 bound_to 10752
  153.5801  135.3499  155.2872 H   0  0  0  0  0  0  0  0  0  0  0  0  # atno 10764 bound_to 10752
  154.8609  135.4293  154.2445 H   0  0  0  0  0  0  0  0  0  0  0  0  # atno 10765 bound_to 10752
  140.9258  133.7369  156.0866 H   0  0  0  0  0  0  0  0  0  0  0  0  # atno 11005 bound_to 11000
  146.3051  139.7555  142.9062 LP  0  0  0  0  0  0  0  0  0  0  0  0  # atno 17320 bound_to 7965
  145.3789  141.0355  143.3189 LP  0  0  0  0  0  0  0  0  0  0  0  0  # atno 17321 bound_to 7965
  139.9965  144.6324  150.7767 LP  0  0  0  0  0  0  0  0  0  0  0  0  # atno 17342 bound_to 10162
  140.7485  143.2924  151.3295 LP  0  0  0  0  0  0  0  0  0  0  0  0  # atno 17343 bound_to 10162
  156.9275  130.9703  151.3538 LP  0  0  0  0  0  0  0  0  0  0  0  0  # atno 17370 bound_to 10713
  157.5921  130.8451  149.8675 LP  0  0  0  0  0  0  0  0  0  0  0  0  # atno 17371 bound_to 10713
  140.7928  134.3598  157.5460 LP  0  0  0  0  0  0  0  0  0  0  0  0  # atno 17394 bound_to 11000
  139.8785  134.9150  156.3121 LP  0  0  0  0  0  0  0  0  0  0  0  0  # atno 17395 bound_to 11000

$$$$
