AV-unprocessed.smi:113|AV-procd|sdf|1103|dock2
  -GOLD-   2262018213D 1   1.00000     0.00000
 Structure written by MMmdl.
 53 56  0  0  0  0  0  0  0  0  2 V2000
  148.9894  141.4047  154.2322 C   0  0  0  0  0  0  0  0  0  0  0  0
  149.8613  141.2834  155.4639 C   0  0  0  0  0  0  0  0  0  0  0  0
  150.4364  140.0607  155.8616 C   0  0  0  0  0  0  0  0  0  0  0  0
  151.2445  140.0040  157.0243 C   0  0  0  0  0  0  0  0  0  0  0  0
  151.8791  138.6871  157.4841 C   0  0  0  0  0  0  0  0  0  0  0  0
  151.0880  137.4772  157.3090 N   0  0  0  0  0  0  0  0  0  0  0  0
  150.0761  137.2077  158.2623 C   0  0  0  0  0  0  0  0  0  0  0  0
  149.8652  137.9681  159.2096 O   0  0  0  0  0  0  0  0  0  0  0  0
  149.3005  135.9892  158.0189 C   0  0  0  0  0  0  0  0  0  0  0  0
  148.1900  135.6391  158.9967 C   0  0  0  0  0  0  0  0  0  0  0  0
  149.5807  135.2179  156.9409 C   0  0  0  0  0  0  0  0  0  0  0  0
  150.5814  135.5001  156.0276 N   0  0  0  0  0  0  0  0  0  0  0  0
  150.7715  134.5989  154.8265 C   0  0  2  0  0  0  0  0  0  0  0  0
  149.5039  134.4418  153.9694 C   0  0  0  0  0  0  0  0  0  0  0  0
  149.2438  132.9427  154.0090 C   0  0  1  0  0  0  0  0  0  0  0  0
  148.7988  132.4793  152.7505 O   0  0  0  0  0  0  0  0  0  0  0  0
  150.6080  132.3591  154.3935 C   0  0  2  0  0  0  0  0  0  0  0  0
  150.5476  131.0027  155.1127 C   0  0  0  0  0  0  0  0  0  0  0  0
  151.8455  130.5634  155.4533 O   0  0  0  0  0  0  0  0  0  0  0  0
  151.1430  133.3341  155.2776 O   0  0  0  0  0  0  0  0  0  0  0  0
  151.3492  136.6760  156.1749 C   0  0  0  0  0  0  0  0  0  0  0  0
  152.1964  136.9963  155.3387 O   0  0  0  0  0  0  0  0  0  0  0  0
  151.4546  141.2039  157.7582 C   0  0  0  0  0  0  0  0  0  0  0  0
  152.2511  141.2433  158.9278 C   0  0  0  0  0  0  0  0  0  0  0  0
  152.4338  142.4518  159.6288 C   0  0  0  0  0  0  0  0  0  0  0  0
  151.8253  143.6359  159.1728 C   0  0  0  0  0  0  0  0  0  0  0  0
  151.0308  143.6152  158.0116 C   0  0  0  0  0  0  0  0  0  0  0  0
  150.8473  142.4076  157.3085 C   0  0  0  0  0  0  0  0  0  0  0  0
  150.0861  142.3944  156.1940 N   0  3  0  0  0  0  0  0  0  0  0  0
  148.8158  140.4300  153.7755 H   0  0  0  0  0  0  0  0  0  0  0  0
  149.4665  142.0479  153.4924 H   0  0  0  0  0  0  0  0  0  0  0  0
  148.0219  141.8356  154.4913 H   0  0  0  0  0  0  0  0  0  0  0  0
  150.2491  139.1786  155.2675 H   0  0  0  0  0  0  0  0  0  0  0  0
  152.8318  138.5325  156.9754 H   0  0  0  0  0  0  0  0  0  0  0  0
  152.1456  138.7458  158.5406 H   0  0  0  0  0  0  0  0  0  0  0  0
  147.6930  134.7062  158.7299 H   0  0  0  0  0  0  0  0  0  0  0  0
  147.4353  136.4262  159.0140 H   0  0  0  0  0  0  0  0  0  0  0  0
  148.5908  135.5260  160.0049 H   0  0  0  0  0  0  0  0  0  0  0  0
  148.9844  134.3295  156.7888 H   0  0  0  0  0  0  0  0  0  0  0  0
  151.5934  135.0252  154.2503 H   0  0  0  0  0  0  0  0  0  0  0  0
  148.6668  135.0296  154.3469 H   0  0  0  0  0  0  0  0  0  0  0  0
  149.7355  134.7868  152.9606 H   0  0  0  0  0  0  0  0  0  0  0  0
  148.4985  132.7122  154.7705 H   0  0  0  0  0  0  0  0  0  0  0  0
  148.7447  131.5357  152.7818 H   0  0  0  0  0  0  0  0  0  0  0  0
  151.2635  132.3067  153.5218 H   0  0  0  0  0  0  0  0  0  0  0  0
  149.9658  131.0925  156.0302 H   0  0  0  0  0  0  0  0  0  0  0  0
  150.0566  130.2523  154.4923 H   0  0  0  0  0  0  0  0  0  0  0  0
  151.9426  130.6127  156.3923 H   0  0  0  0  0  0  0  0  0  0  0  0
  152.7346  140.3561  159.3077 H   0  0  0  0  0  0  0  0  0  0  0  0
  153.0435  142.4697  160.5204 H   0  0  0  0  0  0  0  0  0  0  0  0
  151.9690  144.5597  159.7140 H   0  0  0  0  0  0  0  0  0  0  0  0
  150.5662  144.5275  157.6660 H   0  0  0  0  0  0  0  0  0  0  0  0
  149.6599  143.2690  155.8880 H   0  0  0  0  0  0  0  0  0  0  0  0
  1  2  1  0  0  0  0
  1 30  1  0  0  0  0
  1 31  1  0  0  0  0
  1 32  1  0  0  0  0
  2 29  1  0  0  0  0
  2  3  2  0  0  0  0
  3  4  1  0  0  0  0
  3 33  1  0  0  0  0
  4  5  1  0  0  0  0
  4 23  2  0  0  0  0
  5  6  1  0  0  0  0
  5 34  1  0  0  0  0
  5 35  1  0  0  0  0
  6 21  1  0  0  0  0
  6  7  1  0  0  0  0
  7  8  2  0  0  0  0
  7  9  1  0  0  0  0
  9 10  1  0  0  0  0
  9 11  2  0  0  0  0
 10 36  1  0  0  0  0
 10 37  1  0  0  0  0
 10 38  1  0  0  0  0
 11 12  1  0  0  0  0
 11 39  1  0  0  0  0
 12 13  1  0  0  0  0
 12 21  1  0  0  0  0
 13 20  1  0  0  0  0
 13 14  1  0  0  0  0
 13 40  1  0  0  0  0
 14 15  1  0  0  0  0
 14 41  1  0  0  0  0
 14 42  1  0  0  0  0
 15 16  1  0  0  0  0
 15 17  1  0  0  0  0
 15 43  1  0  0  0  0
 16 44  1  0  0  0  0
 17 18  1  0  0  0  0
 17 20  1  0  0  0  0
 17 45  1  0  0  0  0
 18 19  1  0  0  0  0
 18 46  1  0  0  0  0
 18 47  1  0  0  0  0
 19 48  1  0  0  0  0
 21 22  2  0  0  0  0
 23 28  1  0  0  0  0
 23 24  1  0  0  0  0
 24 25  2  0  0  0  0
 24 49  1  0  0  0  0
 25 26  1  0  0  0  0
 25 50  1  0  0  0  0
 26 27  2  0  0  0  0
 26 51  1  0  0  0  0
 27 28  1  0  0  0  0
 27 52  1  0  0  0  0
 28 29  2  0  0  0  0
 29 53  1  0  0  0  0
M  CHG  1  29   1
M  END
> <s_m_source_file>
AV-unprocessed.smi

> <i_m_source_file_index>
113

> <i_lp_mmshare_version>
43012

> <i_f3d_flags>
0

> <s_epik_input>
W2NIXTFbY0hdW2NIXVtjSF1jKGMxMiluYyhbQ0gzXSlbY0hdYzJbQ0gyXW4zYyg9TyljKFtDSDNdKVtjSF1uKGMzPU8pW0NAQEhdNFtDSDJdW0NAQEhdKFtPSF0pW0NASF0oTzQpW0NIMl1bT0hd

> <s_epik_cmdline>
J2VwaWtfcHl0aG9uJywgJy1waCcsICc3LjAnLCAnLXRuJywgJzgnLCAnLW1hJywgJzIwMCcsICctbWV0YWxfYmluZGluZycsICctaW1hZScsICc8aW5maWxlLm1hZT4nLCAnLW9tYWUnLCAnPG91dGZpbGUubWFlPic=

> <r_lp_tautomer_probability>
1

> <r_epik_Ionization_Penalty>
0.705471

> <r_epik_Ionization_Penalty_Charging>
0.70547

> <r_epik_Ionization_Penalty_Neutral>
1.19947e-07

> <r_epik_State_Penalty>
0.728574

> <r_epik_Charging_Adjusted_Penalty>
1.43404

> <i_epik_Tot_Q>
1

> <i_epik_Tot_abs_Q>
1

> <r_epik_Metal_State_Penalty>
4.61665

> <b_epik_Metal_Only>
0

> <s_epik_Chemistry_Notes>
This compound contains an acetal/aminal-like group ( X-CH(R)-Y where X, Y are N, S, or O) that may be acid/base labile, releasing an aldehyde.

> <s_lp_Force_Field>
OPLS_2005

> <r_lp_Energy>
37.5737

> <b_lp_Chiralities_Consistent>
1

> <s_lp_Variant>
AV-unprocessed.smi:113-13

> <Gold.Version>
5.8.1

> <Gold.Id.Protein>
6NUR|6NUR_protein|mol2

> <Gold.PLP.Fitness>
55.3873

> <Gold.PLP.PLP>
-47.6365

> <Gold.PLP.part.hbond>
-3.0000

> <Gold.PLP.part.metal>
0.0000

> <Gold.PLP.part.buried>
-5.6009

> <Gold.PLP.part.nonpolar>
-39.9398

> <Gold.PLP.part.repulsive>
0.2066

> <Gold.PLP.ligand.clash>
0.0000

> <Gold.PLP.ligand.torsion>
0.6396

> <Gold.PLP.Chemscore.Hbond>
3.0000

> <Gold.PLP.Chemscore.CHOScore>
0.0000

> <Gold.PLP.Chemscore.Metal>
0.0000

> <Gold.Chemscore.Hbonds>
donor molecule, donor type, donor heavy atom, donor atom, acceptor molecule, acceptor atom, score
      L1  H    29    53       P1  8028  2.00
      P1  H 10752 10765       L1    22  0.86

> <Gold.PLP.Chemscore.Internal.Correction>
0.0301

> <Gold.Rescore>
     Score         DG    S(hbond)    S(metal)    S(lipo)     H(rot)  DE(clash)    DE(int)     intcor
     18.02     -18.53       1.98        0.00     120.80       3.01       0.07       0.45       ----

> <Gold.Chemscore.Fitness>
18.0153

> <Gold.Chemscore.DG>
-18.5326

> <Gold.Chemscore.ZeroCoef>
-5.4800

> <Gold.Chemscore.Hbond>
1.9848

> <Gold.Chemscore.Metal>
0.0000

> <Gold.Chemscore.Lipo>
120.8034

> <Gold.Chemscore.Internal_Hbond>
0.0000

> <Gold.Chemscore.DEClash>
0.0682

> <Gold.Chemscore.DEInternal>
0.4491

> <Gold.Chemscore.Rot>
3.0120

> <Gold.Chemscore.Internal.Correction>
   9.000000E+99

> <Gold.Chemscore.Hbonds>
donor molecule, donor type, donor heavy atom, donor atom, acceptor molecule, acceptor atom, score
      L1  H    29    53       P1  8028  1.00
      P1  H 10752 10765       L1    22  0.56

> <Gold.Chemscore.Hbond.Weighted>
-6.6294

> <Gold.Chemscore.Metal.Weighted>
-0.0000

> <Gold.Chemscore.Lipo.Weighted>
-14.1340

> <Gold.Chemscore.Internal_Hbond.Weighted>
0.0000

> <Gold.Chemscore.DEClash.Weighted>
0.0682

> <Gold.Chemscore.DEInternal.Weighted>
0.4491

> <Gold.Chemscore.Rot.Weighted>
7.7108

> <Gold.Chemscore.Internal.Correction.Weighted>
   9.000000E+99

> <Gold.Protein.RotatedTorsions>
[ 6907 6896 6895 6894 ] final  -35.90 input  -60.11 | X-H torsion
[ 7974 7965 7964 7962 ] final   97.27 input  175.53 | X-H torsion
[ 8008 7997 7996 7995 ] final -123.07 input   59.86 | X-H torsion
[ 10167 10162 10161 10158 ] final   64.85 input  -65.29 | X-H torsion
[ 10718 10713 10712 10709 ] final -116.45 input   66.30 | X-H torsion
[ 10763 10752 10751 10750 ] final -162.64 input  -60.55 | X-H torsion
[ 11005 11000 10999 10996 ] final -166.43 input  -57.11 | X-H torsion

> <Gold.Protein.ActiveResidues>
 VAL166  LYS551  ARG553  GLY616  TRP617  ASP618  TYR619  PRO620  LYS621  CYS622 
 ASP623  PHE694  ASN695  SER759  ASP760  ASP761  ALA762  ILE779  LEU786  VAL792 
 PHE793  MET794  SER795  GLU796  ALA797  LYS798  CYS799  TRP800  GLU811  SER814 

> <Gold.Protein.RotatedAtoms>
  151.0339  134.9559  159.8125 H   0  0  0  0  0  0  0  0  0  0  0  0  # atno 6907 bound_to 6896
  152.5351  134.2745  159.8994 H   0  0  0  0  0  0  0  0  0  0  0  0  # atno 6908 bound_to 6896
  151.2755  133.4192  159.2658 H   0  0  0  0  0  0  0  0  0  0  0  0  # atno 6909 bound_to 6896
  145.4277  139.2314  143.3161 H   0  0  0  0  0  0  0  0  0  0  0  0  # atno 7974 bound_to 7965
  155.1746  140.0409  157.2870 H   0  0  0  0  0  0  0  0  0  0  0  0  # atno 8008 bound_to 7997
  154.6246  140.2509  155.7480 H   0  0  0  0  0  0  0  0  0  0  0  0  # atno 8009 bound_to 7997
  156.2452  140.2888  156.0570 H   0  0  0  0  0  0  0  0  0  0  0  0  # atno 8010 bound_to 7997
  140.1177  144.4760  150.6939 H   0  0  0  0  0  0  0  0  0  0  0  0  # atno 10167 bound_to 10162
  156.0964  130.6136  150.9037 H   0  0  0  0  0  0  0  0  0  0  0  0  # atno 10718 bound_to 10713
  154.7196  135.3023  154.9069 H   0  0  0  0  0  0  0  0  0  0  0  0  # atno 10763 bound_to 10752
  153.9945  135.6714  153.4760 H   0  0  0  0  0  0  0  0  0  0  0  0  # atno 10764 bound_to 10752
  153.0822  135.5002  154.8443 H   0  0  0  0  0  0  0  0  0  0  0  0  # atno 10765 bound_to 10752
  140.5646  134.5299  157.5150 H   0  0  0  0  0  0  0  0  0  0  0  0  # atno 11005 bound_to 11000
  146.2623  140.5010  142.8848 LP  0  0  0  0  0  0  0  0  0  0  0  0  # atno 17320 bound_to 7965
  144.8203  140.6539  143.6357 LP  0  0  0  0  0  0  0  0  0  0  0  0  # atno 17321 bound_to 7965
  140.6890  143.2365  151.5183 LP  0  0  0  0  0  0  0  0  0  0  0  0  # atno 17342 bound_to 10162
  139.5585  144.2214  152.1653 LP  0  0  0  0  0  0  0  0  0  0  0  0  # atno 17343 bound_to 10162
  157.6126  131.0935  150.8767 LP  0  0  0  0  0  0  0  0  0  0  0  0  # atno 17370 bound_to 10713
  156.8904  130.5211  149.5286 LP  0  0  0  0  0  0  0  0  0  0  0  0  # atno 17371 bound_to 10713
  139.9391  134.7820  156.0724 LP  0  0  0  0  0  0  0  0  0  0  0  0  # atno 17394 bound_to 11000
  141.1094  133.6648  156.2941 LP  0  0  0  0  0  0  0  0  0  0  0  0  # atno 17395 bound_to 11000

$$$$
