AV-unprocessed.smi:1840|AV-procd|sdf|7490|dock8
  -GOLD-   22720 9193D 1   1.00000     0.00000
 Structure written by MMmdl.
 43 44  0  0  0  0  0  0  0  0  1 V2000
  146.3544  139.4878  154.3275 C   0  0  0  0  0  0  0  0  0  0  0  0
  147.6965  138.7819  154.5635 C   0  0  2  0  0  0  0  0  0  0  0  0
  148.8744  139.6123  154.0099 C   0  0  0  0  0  0  0  0  0  0  0  0
  150.1639  139.1464  154.4890 N   0  0  0  0  0  0  0  0  0  0  0  0
  150.6880  137.8714  154.4389 C   0  0  0  0  0  0  0  0  0  0  0  0
  151.9169  137.9143  155.0320 C   0  0  0  0  0  0  0  0  0  0  0  0
  152.0599  139.2776  155.4142 C   0  0  0  0  0  0  0  0  0  0  0  0
  151.0109  140.0133  155.0844 N   0  0  0  0  0  0  0  0  0  0  0  0
  147.6558  137.4617  153.9358 N   0  0  0  0  0  0  0  0  0  0  0  0
  146.7524  136.5042  154.1905 C   0  0  0  0  0  0  0  0  0  0  0  0
  145.7970  136.6379  154.9551 O   0  0  0  0  0  0  0  0  0  0  0  0
  147.0361  135.3737  153.5305 N   0  0  0  0  0  0  0  0  0  0  0  0
  146.2966  134.1153  153.6367 C   0  0  1  0  0  0  0  0  0  0  0  0
  144.8352  134.3092  153.1833 C   0  0  0  0  0  0  0  0  0  0  0  0
  144.7247  134.5396  151.6663 C   0  0  0  0  0  0  0  0  0  0  0  0
  145.4038  133.4070  150.8819 C   0  0  0  0  0  0  0  0  0  0  0  0
  146.8689  133.2285  151.3112 C   0  0  0  0  0  0  0  0  0  0  0  0
  146.9912  132.9899  152.8307 C   0  0  1  0  0  0  0  0  0  0  0  0
  148.4543  132.7707  153.2545 C   0  0  0  0  0  0  0  0  0  0  0  0
  146.3367  140.4653  154.8105 H   0  0  0  0  0  0  0  0  0  0  0  0
  145.5274  138.9053  154.7349 H   0  0  0  0  0  0  0  0  0  0  0  0
  146.1652  139.6388  153.2641 H   0  0  0  0  0  0  0  0  0  0  0  0
  147.8189  138.6766  155.6432 H   0  0  0  0  0  0  0  0  0  0  0  0
  148.8792  139.5916  152.9192 H   0  0  0  0  0  0  0  0  0  0  0  0
  148.7646  140.6585  154.2993 H   0  0  0  0  0  0  0  0  0  0  0  0
  150.1447  137.0479  153.9993 H   0  0  0  0  0  0  0  0  0  0  0  0
  152.6073  137.0963  155.1742 H   0  0  0  0  0  0  0  0  0  0  0  0
  152.8895  139.7513  155.9183 H   0  0  0  0  0  0  0  0  0  0  0  0
  148.3984  137.2480  153.2864 H   0  0  0  0  0  0  0  0  0  0  0  0
  147.8432  135.3701  152.9246 H   0  0  0  0  0  0  0  0  0  0  0  0
  146.2826  133.8033  154.6828 H   0  0  0  0  0  0  0  0  0  0  0  0
  144.2585  133.4227  153.4505 H   0  0  0  0  0  0  0  0  0  0  0  0
  144.3783  135.1400  153.7226 H   0  0  0  0  0  0  0  0  0  0  0  0
  143.6756  134.6131  151.3783 H   0  0  0  0  0  0  0  0  0  0  0  0
  145.1823  135.4938  151.4027 H   0  0  0  0  0  0  0  0  0  0  0  0
  144.8603  132.4752  151.0428 H   0  0  0  0  0  0  0  0  0  0  0  0
  145.3524  133.6134  149.8124 H   0  0  0  0  0  0  0  0  0  0  0  0
  147.3062  132.3902  150.7676 H   0  0  0  0  0  0  0  0  0  0  0  0
  147.4427  134.1108  151.0247 H   0  0  0  0  0  0  0  0  0  0  0  0
  146.4592  132.0637  153.0540 H   0  0  0  0  0  0  0  0  0  0  0  0
  149.0793  133.6315  153.0155 H   0  0  0  0  0  0  0  0  0  0  0  0
  148.8812  131.9049  152.7480 H   0  0  0  0  0  0  0  0  0  0  0  0
  148.5292  132.5939  154.3277 H   0  0  0  0  0  0  0  0  0  0  0  0
  1  2  1  0  0  0  0
  1 20  1  0  0  0  0
  1 21  1  0  0  0  0
  1 22  1  0  0  0  0
  2  3  1  0  0  0  0
  2  9  1  0  0  0  0
  2 23  1  0  0  0  0
  3  4  1  0  0  0  0
  3 24  1  0  0  0  0
  3 25  1  0  0  0  0
  4  8  1  0  0  0  0
  4  5  1  0  0  0  0
  5  6  2  0  0  0  0
  5 26  1  0  0  0  0
  6  7  1  0  0  0  0
  6 27  1  0  0  0  0
  7  8  2  0  0  0  0
  7 28  1  0  0  0  0
  9 10  1  0  0  0  0
  9 29  1  0  0  0  0
 10 11  2  0  0  0  0
 10 12  1  0  0  0  0
 12 13  1  0  0  0  0
 12 30  1  0  0  0  0
 13 18  1  0  0  0  0
 13 14  1  0  0  0  0
 13 31  1  0  0  0  0
 14 15  1  0  0  0  0
 14 32  1  0  0  0  0
 14 33  1  0  0  0  0
 15 16  1  0  0  0  0
 15 34  1  0  0  0  0
 15 35  1  0  0  0  0
 16 17  1  0  0  0  0
 16 36  1  0  0  0  0
 16 37  1  0  0  0  0
 17 18  1  0  0  0  0
 17 38  1  0  0  0  0
 17 39  1  0  0  0  0
 18 19  1  0  0  0  0
 18 40  1  0  0  0  0
 19 41  1  0  0  0  0
 19 42  1  0  0  0  0
 19 43  1  0  0  0  0
M  END
> <s_m_source_file>
AV-unprocessed.smi

> <i_m_source_file_index>
1840

> <i_lp_mmshare_version>
43012

> <i_f3d_flags>
0

> <s_epik_input>
bjFbY0hdW2NIXVtjSF1uMVtDSDJdW0NAQEhdKFtDSDNdKVtOSF1DKD1PKVtOSF1bQ0BASF0yW0NIMl1bQ0gyXVtDSDJdW0NIMl1bQ0BIXTJbQ0gzXQ==

> <s_epik_cmdline>
J2VwaWtfcHl0aG9uJywgJy1waCcsICc3LjAnLCAnLXRuJywgJzgnLCAnLW1hJywgJzIwMCcsICctbWV0YWxfYmluZGluZycsICctaW1hZScsICc8aW5maWxlLm1hZT4nLCAnLW9tYWUnLCAnPG91dGZpbGUubWFlPic=

> <r_lp_tautomer_probability>
1

> <r_epik_Ionization_Penalty>
7.38659e-05

> <r_epik_Ionization_Penalty_Charging>
0

> <r_epik_Ionization_Penalty_Neutral>
7.38659e-05

> <r_epik_State_Penalty>
-0

> <r_epik_Charging_Adjusted_Penalty>
0

> <i_epik_Tot_Q>
0

> <i_epik_Tot_abs_Q>
0

> <r_epik_Metal_State_Penalty>
-0

> <b_epik_Metal_Only>
0

> <s_lp_Force_Field>
OPLS_2005

> <r_lp_Energy>
7.22709

> <b_lp_Chiralities_Consistent>
1

> <s_lp_Variant>
AV-unprocessed.smi:1840-3

> <Gold.Version>
5.8.1

> <Gold.Id.Protein>
6NUR|6NUR_protein|mol2

> <Gold.PLP.Fitness>
42.7841

> <Gold.PLP.PLP>
-30.9886

> <Gold.PLP.part.hbond>
-3.0000

> <Gold.PLP.part.metal>
0.0000

> <Gold.PLP.part.buried>
-2.5769

> <Gold.PLP.part.nonpolar>
-26.7250

> <Gold.PLP.part.repulsive>
0.0784

> <Gold.PLP.ligand.clash>
0.0000

> <Gold.PLP.ligand.torsion>
0.1508

> <Gold.PLP.Chemscore.Hbond>
2.9760

> <Gold.PLP.Chemscore.CHOScore>
1.0507

> <Gold.PLP.Chemscore.Metal>
0.0000

> <Gold.Chemscore.Hbonds>
donor molecule, donor type, donor heavy atom, donor atom, acceptor molecule, acceptor atom, score
      L1  H     9    29       P1  7948  0.96
      L1  H    12    30       P1  7948  1.00
      P1  H  7989  7998       L1     8  0.90
      L1  C     5    26       P1  7948  0.98
      L1  C     5    26       P1  7949  0.01

> <Gold.PLP.Chemscore.Internal.Correction>
0.0172

> <Gold.Rescore>
     Score         DG    S(hbond)    S(metal)    S(lipo)     H(rot)  DE(clash)    DE(int)     intcor
     17.14     -18.97       2.73        0.00      71.37       1.56       1.37       0.46       ----

> <Gold.Chemscore.Fitness>
17.1380

> <Gold.Chemscore.DG>
-18.9693

> <Gold.Chemscore.ZeroCoef>
-5.4800

> <Gold.Chemscore.Hbond>
2.7326

> <Gold.Chemscore.Metal>
0.0000

> <Gold.Chemscore.Lipo>
71.3655

> <Gold.Chemscore.Internal_Hbond>
0.0000

> <Gold.Chemscore.DEClash>
1.3666

> <Gold.Chemscore.DEInternal>
0.4647

> <Gold.Chemscore.Rot>
1.5576

> <Gold.Chemscore.Internal.Correction>
   9.000000E+99

> <Gold.Chemscore.Hbonds>
donor molecule, donor type, donor heavy atom, donor atom, acceptor molecule, acceptor atom, score
      L1  H     9    29       P1  7948  0.92
      L1  H    12    30       P1  7948  0.95
      P1  H  7989  7998       L1     8  0.05

> <Gold.Chemscore.Hbond.Weighted>
-9.1270

> <Gold.Chemscore.Metal.Weighted>
-0.0000

> <Gold.Chemscore.Lipo.Weighted>
-8.3498

> <Gold.Chemscore.Internal_Hbond.Weighted>
0.0000

> <Gold.Chemscore.DEClash.Weighted>
1.3666

> <Gold.Chemscore.DEInternal.Weighted>
0.4647

> <Gold.Chemscore.Rot.Weighted>
3.9875

> <Gold.Chemscore.Internal.Correction.Weighted>
   9.000000E+99

> <Gold.Protein.RotatedTorsions>
[ 6907 6896 6895 6894 ] final   65.06 input  -60.11 | X-H torsion
[ 7974 7965 7964 7962 ] final -166.50 input  175.53 | X-H torsion
[ 8008 7997 7996 7995 ] final  100.60 input   59.86 | X-H torsion
[ 10167 10162 10161 10158 ] final -170.66 input  -65.29 | X-H torsion
[ 10718 10713 10712 10709 ] final   -0.14 input   66.30 | X-H torsion
[ 10763 10752 10751 10750 ] final -120.97 input  -60.55 | X-H torsion
[ 11005 11000 10999 10996 ] final   22.96 input  -57.11 | X-H torsion

> <Gold.Protein.ActiveResidues>
 VAL166  LYS551  ARG553  GLY616  TRP617  ASP618  TYR619  PRO620  LYS621  CYS622 
 ASP623  PHE694  ASN695  SER759  ASP760  ASP761  ALA762  ILE779  LEU786  VAL792 
 PHE793  MET794  SER795  GLU796  ALA797  LYS798  CYS799  TRP800  GLU811  SER814 

> <Gold.Protein.RotatedAtoms>
  152.4379  134.5650  159.9904 H   0  0  0  0  0  0  0  0  0  0  0  0  # atno 6907 bound_to 6896
  151.5755  133.3378  159.3006 H   0  0  0  0  0  0  0  0  0  0  0  0  # atno 6908 bound_to 6896
  150.8280  134.7554  159.6893 H   0  0  0  0  0  0  0  0  0  0  0  0  # atno 6909 bound_to 6896
  144.7244  140.2657  143.6258 H   0  0  0  0  0  0  0  0  0  0  0  0  # atno 7974 bound_to 7965
  156.1218  140.3211  155.8220 H   0  0  0  0  0  0  0  0  0  0  0  0  # atno 8008 bound_to 7997
  155.4490  140.0531  157.3020 H   0  0  0  0  0  0  0  0  0  0  0  0  # atno 8009 bound_to 7997
  154.4833  140.2062  155.9726 H   0  0  0  0  0  0  0  0  0  0  0  0  # atno 8010 bound_to 7997
  139.5848  144.1342  152.1561 H   0  0  0  0  0  0  0  0  0  0  0  0  # atno 10167 bound_to 10162
  156.8248  130.5468  149.5693 H   0  0  0  0  0  0  0  0  0  0  0  0  # atno 10718 bound_to 10713
  154.8657  135.4184  154.2544 H   0  0  0  0  0  0  0  0  0  0  0  0  # atno 10763 bound_to 10752
  153.3484  135.6997  153.6814 H   0  0  0  0  0  0  0  0  0  0  0  0  # atno 10764 bound_to 10752
  153.5764  135.3581  155.2830 H   0  0  0  0  0  0  0  0  0  0  0  0  # atno 10765 bound_to 10752
  140.3748  134.1984  155.7665 H   0  0  0  0  0  0  0  0  0  0  0  0  # atno 11005 bound_to 11000
  145.8092  139.1996  143.2003 LP  0  0  0  0  0  0  0  0  0  0  0  0  # atno 17320 bound_to 7965
  146.0610  140.7970  142.9735 LP  0  0  0  0  0  0  0  0  0  0  0  0  # atno 17321 bound_to 7965
  140.0904  144.5626  150.7059 LP  0  0  0  0  0  0  0  0  0  0  0  0  # atno 17342 bound_to 10162
  140.7121  143.2514  151.4547 LP  0  0  0  0  0  0  0  0  0  0  0  0  # atno 17343 bound_to 10162
  156.0968  130.5938  150.9826 LP  0  0  0  0  0  0  0  0  0  0  0  0  # atno 17370 bound_to 10713
  157.6438  131.0907  150.8197 LP  0  0  0  0  0  0  0  0  0  0  0  0  # atno 17371 bound_to 10713
  141.1943  133.8132  157.0764 LP  0  0  0  0  0  0  0  0  0  0  0  0  # atno 17394 bound_to 11000
  140.0524  134.9798  157.1159 LP  0  0  0  0  0  0  0  0  0  0  0  0  # atno 17395 bound_to 11000

$$$$
