AV-unprocessed.smi:2337|AV-procd|sdf|9333|dock8
  -GOLD-   2272012553D 1   1.00000     0.00000
 Structure written by MMmdl.
 45 46  0  0  0  0  0  0  0  0  1 V2000
  152.9910  143.2987  161.7600 C   0  0  0  0  0  0  0  0  0  0  0  0
  151.8625  143.3422  160.8965 O   0  0  0  0  0  0  0  0  0  0  0  0
  152.1263  143.1177  159.5110 C   0  0  0  0  0  0  0  0  0  0  0  0
  152.8086  141.7638  159.2707 C   0  0  0  0  0  0  0  0  0  0  0  0
  151.8347  140.6812  159.3146 N   0  0  0  0  0  0  0  0  0  0  0  0
  151.9818  139.5023  158.6970 C   0  0  0  0  0  0  0  0  0  0  0  0
  152.9660  139.2123  158.0162 O   0  0  0  0  0  0  0  0  0  0  0  0
  150.9290  138.6986  158.9259 N   0  0  0  0  0  0  0  0  0  0  0  0
  150.7030  137.3893  158.4260 C   0  0  0  0  0  0  0  0  0  0  0  0
  151.2811  137.1134  157.1707 C   0  0  0  0  0  0  0  0  0  0  0  0
  151.1018  135.8350  156.6164 C   0  0  0  0  0  0  0  0  0  0  0  0
  150.3489  134.8962  157.3574 C   0  0  0  0  0  0  0  0  0  0  0  0
  150.0818  133.4596  156.8731 C   0  0  0  0  0  0  0  0  0  0  0  0
  149.4373  133.4920  155.4715 C   0  0  0  0  0  0  0  0  0  0  0  0
  149.1426  132.7429  157.8650 C   0  0  0  0  0  0  0  0  0  0  0  0
  151.3761  132.6214  156.7688 C   0  0  0  0  0  0  0  0  0  0  0  0
  149.8184  135.2209  158.5618 N   0  0  0  0  0  0  0  0  0  0  0  0
  149.9910  136.4394  159.0825 N   0  0  0  0  0  0  0  0  0  0  0  0
  150.8351  143.4168  158.7258 C   0  0  0  0  0  0  0  0  0  0  0  0
  151.6730  144.2194  157.7287 C   0  0  0  0  0  0  0  0  0  0  0  0
  152.7135  144.3751  158.8388 C   0  0  0  0  0  0  0  0  0  0  0  0
  152.6815  143.5805  162.7662 H   0  0  0  0  0  0  0  0  0  0  0  0
  153.7709  143.9933  161.4477 H   0  0  0  0  0  0  0  0  0  0  0  0
  153.4166  142.2975  161.8206 H   0  0  0  0  0  0  0  0  0  0  0  0
  153.3012  141.7607  158.2971 H   0  0  0  0  0  0  0  0  0  0  0  0
  153.5933  141.5773  160.0041 H   0  0  0  0  0  0  0  0  0  0  0  0
  150.9991  140.8423  159.8580 H   0  0  0  0  0  0  0  0  0  0  0  0
  150.2030  139.0681  159.5216 H   0  0  0  0  0  0  0  0  0  0  0  0
  151.8510  137.8625  156.6407 H   0  0  0  0  0  0  0  0  0  0  0  0
  151.5386  135.6080  155.6565 H   0  0  0  0  0  0  0  0  0  0  0  0
  149.2531  132.4850  155.0953 H   0  0  0  0  0  0  0  0  0  0  0  0
  150.0813  133.9993  154.7521 H   0  0  0  0  0  0  0  0  0  0  0  0
  148.4784  134.0116  155.4773 H   0  0  0  0  0  0  0  0  0  0  0  0
  148.1751  133.2408  157.9385 H   0  0  0  0  0  0  0  0  0  0  0  0
  149.5738  132.7141  158.8664 H   0  0  0  0  0  0  0  0  0  0  0  0
  148.9511  131.7138  157.5594 H   0  0  0  0  0  0  0  0  0  0  0  0
  151.1644  131.6088  156.4229 H   0  0  0  0  0  0  0  0  0  0  0  0
  151.8758  132.5288  157.7339 H   0  0  0  0  0  0  0  0  0  0  0  0
  152.0833  133.0577  156.0623 H   0  0  0  0  0  0  0  0  0  0  0  0
  150.3422  142.5430  158.2983 H   0  0  0  0  0  0  0  0  0  0  0  0
  150.1302  144.0420  159.2769 H   0  0  0  0  0  0  0  0  0  0  0  0
  152.0309  143.6169  156.8923 H   0  0  0  0  0  0  0  0  0  0  0  0
  151.2177  145.1516  157.3935 H   0  0  0  0  0  0  0  0  0  0  0  0
  152.5649  145.2872  159.4197 H   0  0  0  0  0  0  0  0  0  0  0  0
  153.7473  144.2760  158.5065 H   0  0  0  0  0  0  0  0  0  0  0  0
  1  2  1  0  0  0  0
  1 22  1  0  0  0  0
  1 23  1  0  0  0  0
  1 24  1  0  0  0  0
  2  3  1  0  0  0  0
  3 21  1  0  0  0  0
  3  4  1  0  0  0  0
  3 19  1  0  0  0  0
  4  5  1  0  0  0  0
  4 25  1  0  0  0  0
  4 26  1  0  0  0  0
  5  6  1  0  0  0  0
  5 27  1  0  0  0  0
  6  7  2  0  0  0  0
  6  8  1  0  0  0  0
  8  9  1  0  0  0  0
  8 28  1  0  0  0  0
  9 18  1  0  0  0  0
  9 10  2  0  0  0  0
 10 11  1  0  0  0  0
 10 29  1  0  0  0  0
 11 12  2  0  0  0  0
 11 30  1  0  0  0  0
 12 13  1  0  0  0  0
 12 17  1  0  0  0  0
 13 14  1  0  0  0  0
 13 15  1  0  0  0  0
 13 16  1  0  0  0  0
 14 31  1  0  0  0  0
 14 32  1  0  0  0  0
 14 33  1  0  0  0  0
 15 34  1  0  0  0  0
 15 35  1  0  0  0  0
 15 36  1  0  0  0  0
 16 37  1  0  0  0  0
 16 38  1  0  0  0  0
 16 39  1  0  0  0  0
 17 18  2  0  0  0  0
 19 20  1  0  0  0  0
 19 40  1  0  0  0  0
 19 41  1  0  0  0  0
 20 21  1  0  0  0  0
 20 42  1  0  0  0  0
 20 43  1  0  0  0  0
 21 44  1  0  0  0  0
 21 45  1  0  0  0  0
M  END
> <s_m_source_file>
AV-unprocessed.smi

> <i_m_source_file_index>
2337

> <i_lp_mmshare_version>
43012

> <i_f3d_flags>
0

> <s_epik_input>
W0NIMl0xW0NIMl1bQ0gyXUMxKE9bQ0gzXSlbQ0gyXVtOSF1DKD1PKVtOSF1jMltjSF1bY0hdYyhubjIpQyhbQ0gzXSkoW0NIM10pW0NIM10=

> <s_epik_cmdline>
J2VwaWtfcHl0aG9uJywgJy1waCcsICc3LjAnLCAnLXRuJywgJzgnLCAnLW1hJywgJzIwMCcsICctbWV0YWxfYmluZGluZycsICctaW1hZScsICc8aW5maWxlLm1hZT4nLCAnLW9tYWUnLCAnPG91dGZpbGUubWFlPic=

> <r_lp_tautomer_probability>
1

> <r_epik_Ionization_Penalty>
0.00977348

> <r_epik_Ionization_Penalty_Charging>
0

> <r_epik_Ionization_Penalty_Neutral>
0.00977348

> <r_epik_State_Penalty>
-0

> <r_epik_Charging_Adjusted_Penalty>
0

> <i_epik_Tot_Q>
0

> <i_epik_Tot_abs_Q>
0

> <r_epik_Metal_State_Penalty>
-0

> <b_epik_Metal_Only>
0

> <s_lp_Force_Field>
OPLS_2005

> <r_lp_Energy>
23.2497

> <b_lp_Chiralities_Consistent>
1

> <s_lp_Variant>
AV-unprocessed.smi:2337-1

> <Gold.Version>
5.8.1

> <Gold.Id.Protein>
6NUR|6NUR_protein|mol2

> <Gold.PLP.Fitness>
40.8171

> <Gold.PLP.PLP>
-37.2387

> <Gold.PLP.part.hbond>
-3.0436

> <Gold.PLP.part.metal>
0.0000

> <Gold.PLP.part.buried>
-5.5130

> <Gold.PLP.part.nonpolar>
-27.6148

> <Gold.PLP.part.repulsive>
0.3937

> <Gold.PLP.ligand.clash>
0.0000

> <Gold.PLP.ligand.torsion>
0.8498

> <Gold.PLP.Chemscore.Hbond>
1.6661

> <Gold.PLP.Chemscore.CHOScore>
0.0000

> <Gold.PLP.Chemscore.Metal>
0.0000

> <Gold.Chemscore.Hbonds>
donor molecule, donor type, donor heavy atom, donor atom, acceptor molecule, acceptor atom, score
      P1  H  6896  6909       L1    17  0.36
      P1  H  7997  8008       L1     7  0.70

> <Gold.PLP.Chemscore.Internal.Correction>
0.2798

> <Gold.Rescore>
     Score         DG    S(hbond)    S(metal)    S(lipo)     H(rot)  DE(clash)    DE(int)     intcor
     15.30     -17.44       1.17        0.00     102.99       1.56       0.04       2.10       ----

> <Gold.Chemscore.Fitness>
15.3015

> <Gold.Chemscore.DG>
-17.4420

> <Gold.Chemscore.ZeroCoef>
-5.4800

> <Gold.Chemscore.Hbond>
1.1692

> <Gold.Chemscore.Metal>
0.0000

> <Gold.Chemscore.Lipo>
102.9940

> <Gold.Chemscore.Internal_Hbond>
0.0000

> <Gold.Chemscore.DEClash>
0.0419

> <Gold.Chemscore.DEInternal>
2.0987

> <Gold.Chemscore.Rot>
1.5599

> <Gold.Chemscore.Internal.Correction>
   9.000000E+99

> <Gold.Chemscore.Hbonds>
donor molecule, donor type, donor heavy atom, donor atom, acceptor molecule, acceptor atom, score
      P1  H  6896  6909       L1    17  0.02
      P1  H  7997  8008       L1     7  0.66

> <Gold.Chemscore.Hbond.Weighted>
-3.9051

> <Gold.Chemscore.Metal.Weighted>
-0.0000

> <Gold.Chemscore.Lipo.Weighted>
-12.0503

> <Gold.Chemscore.Internal_Hbond.Weighted>
0.0000

> <Gold.Chemscore.DEClash.Weighted>
0.0419

> <Gold.Chemscore.DEInternal.Weighted>
2.0987

> <Gold.Chemscore.Rot.Weighted>
3.9933

> <Gold.Chemscore.Internal.Correction.Weighted>
   9.000000E+99

> <Gold.Protein.RotatedTorsions>
[ 6907 6896 6895 6894 ] final   14.69 input  -60.11 | X-H torsion
[ 7974 7965 7964 7962 ] final -122.76 input  175.53 | X-H torsion
[ 8008 7997 7996 7995 ] final  -59.05 input   59.86 | X-H torsion
[ 10167 10162 10161 10158 ] final   29.74 input  -65.29 | X-H torsion
[ 10718 10713 10712 10709 ] final   23.89 input   66.30 | X-H torsion
[ 10763 10752 10751 10750 ] final   81.88 input  -60.55 | X-H torsion
[ 11005 11000 10999 10996 ] final   57.98 input  -57.11 | X-H torsion

> <Gold.Protein.ActiveResidues>
 VAL166  LYS551  ARG553  GLY616  TRP617  ASP618  TYR619  PRO620  LYS621  CYS622 
 ASP623  PHE694  ASN695  SER759  ASP760  ASP761  ALA762  ILE779  LEU786  VAL792 
 PHE793  MET794  SER795  GLU796  ALA797  LYS798  CYS799  TRP800  GLU811  SER814 

> <Gold.Protein.RotatedAtoms>
  151.8062  135.0694  160.0406 H   0  0  0  0  0  0  0  0  0  0  0  0  # atno 6907 bound_to 6896
  152.3053  133.5693  159.5654 H   0  0  0  0  0  0  0  0  0  0  0  0  # atno 6908 bound_to 6896
  150.7293  134.0147  159.3723 H   0  0  0  0  0  0  0  0  0  0  0  0  # atno 6909 bound_to 6896
  145.0260  140.8028  143.4352 H   0  0  0  0  0  0  0  0  0  0  0  0  # atno 7974 bound_to 7965
  154.4335  140.1070  156.6054 H   0  0  0  0  0  0  0  0  0  0  0  0  # atno 8008 bound_to 7997
  155.5866  140.3491  155.4536 H   0  0  0  0  0  0  0  0  0  0  0  0  # atno 8009 bound_to 7997
  156.0278  140.1254  157.0279 H   0  0  0  0  0  0  0  0  0  0  0  0  # atno 8010 bound_to 7997
  140.4739  144.0721  150.6245 H   0  0  0  0  0  0  0  0  0  0  0  0  # atno 10167 bound_to 10162
  157.1723  130.6765  149.6082 H   0  0  0  0  0  0  0  0  0  0  0  0  # atno 10718 bound_to 10713
  153.1154  135.4749  154.9107 H   0  0  0  0  0  0  0  0  0  0  0  0  # atno 10763 bound_to 10752
  154.7523  135.3109  154.8536 H   0  0  0  0  0  0  0  0  0  0  0  0  # atno 10764 bound_to 10752
  153.9114  135.6864  153.4804 H   0  0  0  0  0  0  0  0  0  0  0  0  # atno 10765 bound_to 10752
  140.0412  134.5871  155.9380 H   0  0  0  0  0  0  0  0  0  0  0  0  # atno 11005 bound_to 11000
  145.1833  139.2340  143.5281 LP  0  0  0  0  0  0  0  0  0  0  0  0  # atno 17320 bound_to 7965
  146.3492  140.1612  142.8591 LP  0  0  0  0  0  0  0  0  0  0  0  0  # atno 17321 bound_to 7965
  140.3943  143.2736  152.0023 LP  0  0  0  0  0  0  0  0  0  0  0  0  # atno 17342 bound_to 10162
  139.4822  144.6051  151.7536 LP  0  0  0  0  0  0  0  0  0  0  0  0  # atno 17343 bound_to 10162
  155.9736  130.4675  150.6326 LP  0  0  0  0  0  0  0  0  0  0  0  0  # atno 17370 bound_to 10713
  157.4032  131.0813  151.1290 LP  0  0  0  0  0  0  0  0  0  0  0  0  # atno 17371 bound_to 10713
  141.1884  133.6562  156.5321 LP  0  0  0  0  0  0  0  0  0  0  0  0  # atno 17394 bound_to 11000
  140.4067  134.7309  157.4812 LP  0  0  0  0  0  0  0  0  0  0  0  0  # atno 17395 bound_to 11000

$$$$
