AV-unprocessed.smi:2725|AV-procd|sdf|10516|dock4
  -GOLD-   2272014553D 1   1.00000     0.00000
 Structure written by MMmdl.
 44 45  0  0  0  0  0  0  0  0  1 V2000
  153.0413  139.3264  156.2839 O   0  0  0  0  0  0  0  0  0  0  0  0
  151.9688  139.6718  156.7788 C   0  0  0  0  0  0  0  0  0  0  0  0
  151.9423  140.4666  158.0862 C   0  0  0  0  0  0  0  0  0  0  0  0
  151.6290  141.9576  157.8646 C   0  0  0  0  0  0  0  0  0  0  0  0
  152.2082  142.8638  158.9652 C   0  0  0  0  0  0  0  0  0  0  0  0
  152.1812  142.2523  160.3698 C   0  0  0  0  0  0  0  0  0  0  0  0
  152.2702  143.4423  161.3330 C   0  0  0  0  0  0  0  0  0  0  0  0
  151.8489  144.6822  160.5300 C   0  0  0  0  0  0  0  0  0  0  0  0
  151.4373  144.1730  159.1456 C   0  0  0  0  0  0  0  0  0  0  0  0
  150.7771  139.4006  156.2258 N   0  0  0  0  0  0  0  0  0  0  0  0
  150.5650  138.6924  154.9637 C   0  0  1  0  0  0  0  0  0  0  0  0
  151.3722  137.3764  154.9490 C   0  0  0  0  0  0  0  0  0  0  0  0
  152.1333  137.2714  153.7645 O   0  0  0  0  0  0  0  0  0  0  0  0
  149.0563  138.4247  154.7759 C   0  0  0  0  0  0  0  0  0  0  0  0
  148.2594  139.6582  154.3810 C   0  0  0  0  0  0  0  0  0  0  0  0
  147.5373  139.6947  153.1684 C   0  0  0  0  0  0  0  0  0  0  0  0
  146.8102  140.8591  152.8550 C   0  0  0  0  0  0  0  0  0  0  0  0
  146.8337  141.9376  153.7601 C   0  0  0  0  0  0  0  0  0  0  0  0
  147.5860  141.8024  154.9440 C   0  0  0  0  0  0  0  0  0  0  0  0
  148.2866  140.6902  155.2539 N   0  0  0  0  0  0  0  0  0  0  0  0
  151.1928  140.0165  158.7373 H   0  0  0  0  0  0  0  0  0  0  0  0
  152.9007  140.3646  158.5978 H   0  0  0  0  0  0  0  0  0  0  0  0
  152.0388  142.2680  156.9022 H   0  0  0  0  0  0  0  0  0  0  0  0
  150.5505  142.1087  157.7981 H   0  0  0  0  0  0  0  0  0  0  0  0
  153.2410  143.1134  158.7164 H   0  0  0  0  0  0  0  0  0  0  0  0
  151.2369  141.7297  160.5285 H   0  0  0  0  0  0  0  0  0  0  0  0
  152.9847  141.5321  160.5283 H   0  0  0  0  0  0  0  0  0  0  0  0
  151.6326  143.2891  162.2044 H   0  0  0  0  0  0  0  0  0  0  0  0
  153.2920  143.5636  161.6945 H   0  0  0  0  0  0  0  0  0  0  0  0
  151.0397  145.2306  161.0134 H   0  0  0  0  0  0  0  0  0  0  0  0
  152.6955  145.3636  160.4385 H   0  0  0  0  0  0  0  0  0  0  0  0
  151.6485  144.8957  158.3568 H   0  0  0  0  0  0  0  0  0  0  0  0
  150.3639  143.9778  159.1353 H   0  0  0  0  0  0  0  0  0  0  0  0
  149.9515  139.7275  156.7060 H   0  0  0  0  0  0  0  0  0  0  0  0
  150.8781  139.3261  154.1310 H   0  0  0  0  0  0  0  0  0  0  0  0
  152.0194  137.2856  155.8221 H   0  0  0  0  0  0  0  0  0  0  0  0
  150.7004  136.5173  154.9662 H   0  0  0  0  0  0  0  0  0  0  0  0
  151.5668  136.9811  153.0661 H   0  0  0  0  0  0  0  0  0  0  0  0
  148.9084  137.6573  154.0148 H   0  0  0  0  0  0  0  0  0  0  0  0
  148.6374  138.0178  155.6974 H   0  0  0  0  0  0  0  0  0  0  0  0
  147.5359  138.8505  152.4948 H   0  0  0  0  0  0  0  0  0  0  0  0
  146.2445  140.9235  151.9372 H   0  0  0  0  0  0  0  0  0  0  0  0
  146.2884  142.8463  153.5524 H   0  0  0  0  0  0  0  0  0  0  0  0
  147.6266  142.6094  155.6605 H   0  0  0  0  0  0  0  0  0  0  0  0
  1  2  2  0  0  0  0
  2  3  1  0  0  0  0
  2 10  1  0  0  0  0
  3  4  1  0  0  0  0
  3 21  1  0  0  0  0
  3 22  1  0  0  0  0
  4  5  1  0  0  0  0
  4 23  1  0  0  0  0
  4 24  1  0  0  0  0
  5  9  1  0  0  0  0
  5  6  1  0  0  0  0
  5 25  1  0  0  0  0
  6  7  1  0  0  0  0
  6 26  1  0  0  0  0
  6 27  1  0  0  0  0
  7  8  1  0  0  0  0
  7 28  1  0  0  0  0
  7 29  1  0  0  0  0
  8  9  1  0  0  0  0
  8 30  1  0  0  0  0
  8 31  1  0  0  0  0
  9 32  1  0  0  0  0
  9 33  1  0  0  0  0
 10 11  1  0  0  0  0
 10 34  1  0  0  0  0
 11 12  1  0  0  0  0
 11 14  1  0  0  0  0
 11 35  1  0  0  0  0
 12 13  1  0  0  0  0
 12 36  1  0  0  0  0
 12 37  1  0  0  0  0
 13 38  1  0  0  0  0
 14 15  1  0  0  0  0
 14 39  1  0  0  0  0
 14 40  1  0  0  0  0
 15 20  1  0  0  0  0
 15 16  2  0  0  0  0
 16 17  1  0  0  0  0
 16 41  1  0  0  0  0
 17 18  2  0  0  0  0
 17 42  1  0  0  0  0
 18 19  1  0  0  0  0
 18 43  1  0  0  0  0
 19 20  2  0  0  0  0
 19 44  1  0  0  0  0
M  END
> <s_m_source_file>
AV-unprocessed.smi

> <i_m_source_file_index>
2725

> <i_lp_mmshare_version>
43012

> <i_f3d_flags>
0

> <s_epik_input>
W0NIMl0xW0NIMl1bQ0gyXVtDSDJdW0NIXTFbQ0gyXVtDSDJdQyg9TylbTkhdW0NASF0oW0NIMl1bT0hdKVtDSDJdYzJbY0hdW2NIXVtjSF1bY0hdbjI=

> <s_epik_cmdline>
J2VwaWtfcHl0aG9uJywgJy1waCcsICc3LjAnLCAnLXRuJywgJzgnLCAnLW1hJywgJzIwMCcsICctbWV0YWxfYmluZGluZycsICctaW1hZScsICc8aW5maWxlLm1hZT4nLCAnLW9tYWUnLCAnPG91dGZpbGUubWFlPic=

> <r_epik_Ionization_Penalty>
0.0257016

> <r_epik_Ionization_Penalty_Charging>
0

> <r_epik_Ionization_Penalty_Neutral>
0.0257016

> <r_epik_State_Penalty>
0.0209381

> <r_epik_Charging_Adjusted_Penalty>
0.0209381

> <i_epik_Tot_Q>
0

> <i_epik_Tot_abs_Q>
0

> <r_epik_Metal_State_Penalty>
0.0200649

> <b_epik_Metal_Only>
0

> <s_lp_Force_Field>
OPLS_2005

> <r_lp_Energy>
24.1231

> <b_lp_Chiralities_Consistent>
1

> <s_lp_Variant>
AV-unprocessed.smi:2725-2

> <Gold.Version>
5.8.1

> <Gold.Id.Protein>
6NUR|6NUR_protein|mol2

> <Gold.PLP.Fitness>
51.0058

> <Gold.PLP.PLP>
-41.9450

> <Gold.PLP.part.hbond>
-2.9301

> <Gold.PLP.part.metal>
0.0000

> <Gold.PLP.part.buried>
-4.1673

> <Gold.PLP.part.nonpolar>
-35.8678

> <Gold.PLP.part.repulsive>
0.1387

> <Gold.PLP.ligand.clash>
0.0000

> <Gold.PLP.ligand.torsion>
1.5146

> <Gold.PLP.Chemscore.Hbond>
3.0000

> <Gold.PLP.Chemscore.CHOScore>
1.0000

> <Gold.PLP.Chemscore.Metal>
0.0000

> <Gold.Chemscore.Hbonds>
donor molecule, donor type, donor heavy atom, donor atom, acceptor molecule, acceptor atom, score
      L1  H    13    38       P1  7949  1.00
      P1  H  7997  8010       L1     1  1.00
      P1  H 10752 10763       L1    13  0.94
      L1  C    19    44       P1  8028  1.00

> <Gold.PLP.Chemscore.Internal.Correction>
0.0899

> <Gold.Rescore>
     Score         DG    S(hbond)    S(metal)    S(lipo)     H(rot)  DE(clash)    DE(int)     intcor
     16.27     -20.19       2.10        0.00     119.32       2.44       0.05       3.87       ----

> <Gold.Chemscore.Fitness>
16.2683

> <Gold.Chemscore.DG>
-20.1887

> <Gold.Chemscore.ZeroCoef>
-5.4800

> <Gold.Chemscore.Hbond>
2.0956

> <Gold.Chemscore.Metal>
0.0000

> <Gold.Chemscore.Lipo>
119.3173

> <Gold.Chemscore.Internal_Hbond>
0.0000

> <Gold.Chemscore.DEClash>
0.0478

> <Gold.Chemscore.DEInternal>
3.8727

> <Gold.Chemscore.Rot>
2.4416

> <Gold.Chemscore.Internal.Correction>
   9.000000E+99

> <Gold.Chemscore.Hbonds>
donor molecule, donor type, donor heavy atom, donor atom, acceptor molecule, acceptor atom, score
      L1  H    13    38       P1  7949  0.91
      P1  H  7997  8010       L1     1  0.93
      P1  H 10752 10763       L1    13  0.05

> <Gold.Chemscore.Hbond.Weighted>
-6.9992

> <Gold.Chemscore.Metal.Weighted>
-0.0000

> <Gold.Chemscore.Lipo.Weighted>
-13.9601

> <Gold.Chemscore.Internal_Hbond.Weighted>
0.0000

> <Gold.Chemscore.DEClash.Weighted>
0.0478

> <Gold.Chemscore.DEInternal.Weighted>
3.8727

> <Gold.Chemscore.Rot.Weighted>
6.2505

> <Gold.Chemscore.Internal.Correction.Weighted>
   9.000000E+99

> <Gold.Protein.RotatedTorsions>
[ 6907 6896 6895 6894 ] final   -8.34 input  -60.11 | X-H torsion
[ 7974 7965 7964 7962 ] final   94.00 input  175.53 | X-H torsion
[ 8008 7997 7996 7995 ] final   56.80 input   59.86 | X-H torsion
[ 10167 10162 10161 10158 ] final  -60.06 input  -65.29 | X-H torsion
[ 10718 10713 10712 10709 ] final  149.37 input   66.30 | X-H torsion
[ 10763 10752 10751 10750 ] final   29.18 input  -60.55 | X-H torsion
[ 11005 11000 10999 10996 ] final  -56.36 input  -57.11 | X-H torsion

> <Gold.Protein.ActiveResidues>
 VAL166  LYS551  ARG553  GLY616  TRP617  ASP618  TYR619  PRO620  LYS621  CYS622 
 ASP623  PHE694  ASN695  SER759  ASP760  ASP761  ALA762  ILE779  LEU786  VAL792 
 PHE793  MET794  SER795  GLU796  ALA797  LYS798  CYS799  TRP800  GLU811  SER814 

> <Gold.Protein.RotatedAtoms>
  151.4352  135.1014  159.9653 H   0  0  0  0  0  0  0  0  0  0  0  0  # atno 6907 bound_to 6896
  152.4942  133.8580  159.7246 H   0  0  0  0  0  0  0  0  0  0  0  0  # atno 6908 bound_to 6896
  150.9127  133.6919  159.2878 H   0  0  0  0  0  0  0  0  0  0  0  0  # atno 6909 bound_to 6896
  145.4714  139.2282  143.2933 H   0  0  0  0  0  0  0  0  0  0  0  0  # atno 7974 bound_to 7965
  155.5233  140.3480  155.4411 H   0  0  0  0  0  0  0  0  0  0  0  0  # atno 8008 bound_to 7997
  156.0769  140.1377  156.9787 H   0  0  0  0  0  0  0  0  0  0  0  0  # atno 8009 bound_to 7997
  154.4558  140.0954  156.6729 H   0  0  0  0  0  0  0  0  0  0  0  0  # atno 8010 bound_to 7997
  140.6095  143.2383  151.5742 H   0  0  0  0  0  0  0  0  0  0  0  0  # atno 10167 bound_to 10162
  157.2969  131.0864  151.1419 H   0  0  0  0  0  0  0  0  0  0  0  0  # atno 10718 bound_to 10713
  153.0446  135.6495  154.0851 H   0  0  0  0  0  0  0  0  0  0  0  0  # atno 10763 bound_to 10752
  154.0552  135.2892  155.3335 H   0  0  0  0  0  0  0  0  0  0  0  0  # atno 10764 bound_to 10752
  154.6694  135.5362  153.8184 H   0  0  0  0  0  0  0  0  0  0  0  0  # atno 10765 bound_to 10752
  141.1116  133.6610  156.4608 H   0  0  0  0  0  0  0  0  0  0  0  0  # atno 11005 bound_to 11000
  146.2394  140.5493  142.8940 LP  0  0  0  0  0  0  0  0  0  0  0  0  # atno 17320 bound_to 7965
  144.7943  140.6092  143.6521 LP  0  0  0  0  0  0  0  0  0  0  0  0  # atno 17321 bound_to 7965
  139.5350  144.2805  152.1232 LP  0  0  0  0  0  0  0  0  0  0  0  0  # atno 17342 bound_to 10162
  140.2002  144.4665  150.6435 LP  0  0  0  0  0  0  0  0  0  0  0  0  # atno 17343 bound_to 10162
  157.2793  130.6742  149.6058 LP  0  0  0  0  0  0  0  0  0  0  0  0  # atno 17370 bound_to 10713
  155.9669  130.4454  150.5502 LP  0  0  0  0  0  0  0  0  0  0  0  0  # atno 17371 bound_to 10713
  140.4758  134.6710  157.5149 LP  0  0  0  0  0  0  0  0  0  0  0  0  # atno 17394 bound_to 11000
  140.0014  134.6831  155.9525 LP  0  0  0  0  0  0  0  0  0  0  0  0  # atno 17395 bound_to 11000

$$$$
