AV-unprocessed.smi:2257|AV-procd|sdf|9128|dock10
  -GOLD-   2272012333D 1   1.00000     0.00000
 Structure written by MMmdl.
 40 42  0  0  0  0  0  0  0  0  1 V2000
  143.1370  136.8020  153.2151 C   0  0  0  0  0  0  0  0  0  0  0  0
  144.1503  136.7701  152.2166 O   0  0  0  0  0  0  0  0  0  0  0  0
  144.8737  135.5455  152.0908 C   0  0  0  0  0  0  0  0  0  0  0  0
  145.7020  135.2417  153.3516 C   0  0  0  0  0  0  0  0  0  0  0  0
  146.9438  136.0082  153.3800 N   0  0  0  0  0  0  0  0  0  0  0  0
  147.3001  136.8861  154.3272 C   0  0  0  0  0  0  0  0  0  0  0  0
  146.5948  137.1721  155.2939 O   0  0  0  0  0  0  0  0  0  0  0  0
  148.5061  137.4160  154.0631 N   0  0  0  0  0  0  0  0  0  0  0  0
  149.2428  138.3569  154.8307 C   0  0  0  0  0  0  0  0  0  0  0  0
  150.3005  139.0602  154.2172 C   0  0  0  0  0  0  0  0  0  0  0  0
  151.0526  139.9552  154.8925 N   0  0  0  0  0  0  0  0  0  0  0  0
  150.7621  140.1336  156.1842 C   0  0  0  0  0  0  0  0  0  0  0  0
  151.5723  141.1541  156.9219 C   0  0  0  0  0  0  0  0  0  0  0  0
  151.3653  141.3893  158.4045 C   0  0  0  0  0  0  0  0  0  0  0  0
  150.9352  142.4369  157.4160 C   0  0  0  0  0  0  0  0  0  0  0  0
  149.7893  139.5296  156.8720 N   0  0  0  0  0  0  0  0  0  0  0  0
  149.0299  138.6343  156.2037 C   0  0  0  0  0  0  0  0  0  0  0  0
  143.8924  134.4632  151.5976 C   0  0  0  0  0  0  0  0  0  0  0  0
  144.9548  134.0131  150.5937 C   0  0  0  0  0  0  0  0  0  0  0  0
  145.5504  135.4169  150.7095 C   0  0  0  0  0  0  0  0  0  0  0  0
  142.6772  137.7899  153.2224 H   0  0  0  0  0  0  0  0  0  0  0  0
  143.5381  136.6219  154.2122 H   0  0  0  0  0  0  0  0  0  0  0  0
  142.3455  136.0787  153.0259 H   0  0  0  0  0  0  0  0  0  0  0  0
  145.1387  135.5230  154.2415 H   0  0  0  0  0  0  0  0  0  0  0  0
  145.8964  134.1752  153.4657 H   0  0  0  0  0  0  0  0  0  0  0  0
  147.5905  135.8435  152.6227 H   0  0  0  0  0  0  0  0  0  0  0  0
  148.9300  137.1433  153.1884 H   0  0  0  0  0  0  0  0  0  0  0  0
  150.5439  138.9092  153.1756 H   0  0  0  0  0  0  0  0  0  0  0  0
  152.5879  141.2075  156.5344 H   0  0  0  0  0  0  0  0  0  0  0  0
  150.5823  140.8232  158.9052 H   0  0  0  0  0  0  0  0  0  0  0  0
  152.2473  141.5968  159.0067 H   0  0  0  0  0  0  0  0  0  0  0  0
  151.5284  143.3471  157.3571 H   0  0  0  0  0  0  0  0  0  0  0  0
  149.8662  142.5663  157.2586 H   0  0  0  0  0  0  0  0  0  0  0  0
  148.2718  138.1384  156.7893 H   0  0  0  0  0  0  0  0  0  0  0  0
  143.6225  133.7076  152.3357 H   0  0  0  0  0  0  0  0  0  0  0  0
  143.0069  134.8751  151.1097 H   0  0  0  0  0  0  0  0  0  0  0  0
  145.6127  133.2373  150.9887 H   0  0  0  0  0  0  0  0  0  0  0  0
  144.5716  133.7575  149.6054 H   0  0  0  0  0  0  0  0  0  0  0  0
  145.1439  136.0955  149.9574 H   0  0  0  0  0  0  0  0  0  0  0  0
  146.6402  135.4462  150.7278 H   0  0  0  0  0  0  0  0  0  0  0  0
  1  2  1  0  0  0  0
  1 21  1  0  0  0  0
  1 22  1  0  0  0  0
  1 23  1  0  0  0  0
  2  3  1  0  0  0  0
  3 20  1  0  0  0  0
  3  4  1  0  0  0  0
  3 18  1  0  0  0  0
  4  5  1  0  0  0  0
  4 24  1  0  0  0  0
  4 25  1  0  0  0  0
  5  6  1  0  0  0  0
  5 26  1  0  0  0  0
  6  7  2  0  0  0  0
  6  8  1  0  0  0  0
  8  9  1  0  0  0  0
  8 27  1  0  0  0  0
  9 17  1  0  0  0  0
  9 10  2  0  0  0  0
 10 11  1  0  0  0  0
 10 28  1  0  0  0  0
 11 12  2  0  0  0  0
 12 13  1  0  0  0  0
 12 16  1  0  0  0  0
 13 15  1  0  0  0  0
 13 14  1  0  0  0  0
 13 29  1  0  0  0  0
 14 15  1  0  0  0  0
 14 30  1  0  0  0  0
 14 31  1  0  0  0  0
 15 32  1  0  0  0  0
 15 33  1  0  0  0  0
 16 17  2  0  0  0  0
 17 34  1  0  0  0  0
 18 19  1  0  0  0  0
 18 35  1  0  0  0  0
 18 36  1  0  0  0  0
 19 20  1  0  0  0  0
 19 37  1  0  0  0  0
 19 38  1  0  0  0  0
 20 39  1  0  0  0  0
 20 40  1  0  0  0  0
M  END
> <s_m_source_file>
AV-unprocessed.smi

> <i_m_source_file_index>
2257

> <i_lp_mmshare_version>
43012

> <i_f3d_flags>
0

> <s_epik_input>
W0NIMl0xW0NIMl1bQ0gyXUMxKE9bQ0gzXSlbQ0gyXVtOSF1DKD1PKVtOSF1jMltjSF1uYyhuW2NIXTIpW0NIXTNbQ0gyXVtDSDJdMw==

> <s_epik_cmdline>
J2VwaWtfcHl0aG9uJywgJy1waCcsICc3LjAnLCAnLXRuJywgJzgnLCAnLW1hJywgJzIwMCcsICctbWV0YWxfYmluZGluZycsICctaW1hZScsICc8aW5maWxlLm1hZT4nLCAnLW9tYWUnLCAnPG91dGZpbGUubWFlPic=

> <r_lp_tautomer_probability>
1

> <r_epik_Ionization_Penalty>
2.49679e-05

> <r_epik_Ionization_Penalty_Charging>
0

> <r_epik_Ionization_Penalty_Neutral>
2.49679e-05

> <r_epik_State_Penalty>
-0

> <r_epik_Charging_Adjusted_Penalty>
0

> <i_epik_Tot_Q>
0

> <i_epik_Tot_abs_Q>
0

> <r_epik_Metal_State_Penalty>
-0

> <b_epik_Metal_Only>
0

> <s_lp_Force_Field>
OPLS_2005

> <r_lp_Energy>
15.4086

> <b_lp_Chiralities_Consistent>
1

> <s_lp_Variant>
AV-unprocessed.smi:2257-1

> <Gold.Version>
5.8.1

> <Gold.Id.Protein>
6NUR|6NUR_protein|mol2

> <Gold.PLP.Fitness>
39.6039

> <Gold.PLP.PLP>
-28.1969

> <Gold.PLP.part.hbond>
-3.0000

> <Gold.PLP.part.metal>
0.0000

> <Gold.PLP.part.buried>
-5.2982

> <Gold.PLP.part.nonpolar>
-20.4363

> <Gold.PLP.part.repulsive>
1.0645

> <Gold.PLP.ligand.clash>
0.0000

> <Gold.PLP.ligand.torsion>
0.4944

> <Gold.PLP.Chemscore.Hbond>
3.0000

> <Gold.PLP.Chemscore.CHOScore>
1.0000

> <Gold.PLP.Chemscore.Metal>
0.0000

> <Gold.Chemscore.Hbonds>
donor molecule, donor type, donor heavy atom, donor atom, acceptor molecule, acceptor atom, score
      L1  H     5    26       P1  7948  1.00
      L1  H     8    27       P1  7948  1.00
      P1  H  7989  7998       L1    11  0.90
      L1  C    10    28       P1  7957  1.00

> <Gold.PLP.Chemscore.Internal.Correction>
0.3958

> <Gold.Rescore>
     Score         DG    S(hbond)    S(metal)    S(lipo)     H(rot)  DE(clash)    DE(int)     intcor
     15.41     -17.17       2.65        0.00      59.89       1.62       0.01       1.75       ----

> <Gold.Chemscore.Fitness>
15.4111

> <Gold.Chemscore.DG>
-17.1739

> <Gold.Chemscore.ZeroCoef>
-5.4800

> <Gold.Chemscore.Hbond>
2.6470

> <Gold.Chemscore.Metal>
0.0000

> <Gold.Chemscore.Lipo>
59.8926

> <Gold.Chemscore.Internal_Hbond>
0.0000

> <Gold.Chemscore.DEClash>
0.0106

> <Gold.Chemscore.DEInternal>
1.7521

> <Gold.Chemscore.Rot>
1.6229

> <Gold.Chemscore.Internal.Correction>
   9.000000E+99

> <Gold.Chemscore.Hbonds>
donor molecule, donor type, donor heavy atom, donor atom, acceptor molecule, acceptor atom, score
      L1  H     5    26       P1  7948  0.94
      L1  H     8    27       P1  7948  0.95
      P1  H  7989  7998       L1    11  0.18

> <Gold.Chemscore.Hbond.Weighted>
-8.8410

> <Gold.Chemscore.Metal.Weighted>
-0.0000

> <Gold.Chemscore.Lipo.Weighted>
-7.0074

> <Gold.Chemscore.Internal_Hbond.Weighted>
0.0000

> <Gold.Chemscore.DEClash.Weighted>
0.0106

> <Gold.Chemscore.DEInternal.Weighted>
1.7521

> <Gold.Chemscore.Rot.Weighted>
4.1545

> <Gold.Chemscore.Internal.Correction.Weighted>
   9.000000E+99

> <Gold.Protein.RotatedTorsions>
[ 6907 6896 6895 6894 ] final -121.73 input  -60.11 | X-H torsion
[ 7974 7965 7964 7962 ] final   30.21 input  175.53 | X-H torsion
[ 8008 7997 7996 7995 ] final  141.14 input   59.86 | X-H torsion
[ 10167 10162 10161 10158 ] final   33.81 input  -65.29 | X-H torsion
[ 10718 10713 10712 10709 ] final -152.37 input   66.30 | X-H torsion
[ 10763 10752 10751 10750 ] final   89.72 input  -60.55 | X-H torsion
[ 11005 11000 10999 10996 ] final -153.89 input  -57.11 | X-H torsion

> <Gold.Protein.ActiveResidues>
 VAL166  LYS551  ARG553  GLY616  TRP617  ASP618  TYR619  PRO620  LYS621  CYS622 
 ASP623  PHE694  ASN695  SER759  ASP760  ASP761  ALA762  ILE779  LEU786  VAL792 
 PHE793  MET794  SER795  GLU796  ALA797  LYS798  CYS799  TRP800  GLU811  SER814 

> <Gold.Protein.RotatedAtoms>
  150.8510  133.7787  159.3025 H   0  0  0  0  0  0  0  0  0  0  0  0  # atno 6907 bound_to 6896
  151.5458  135.1066  159.9947 H   0  0  0  0  0  0  0  0  0  0  0  0  # atno 6908 bound_to 6896
  152.4553  133.7667  159.6832 H   0  0  0  0  0  0  0  0  0  0  0  0  # atno 6909 bound_to 6896
  146.1625  139.6819  142.9023 H   0  0  0  0  0  0  0  0  0  0  0  0  # atno 7974 bound_to 7965
  156.2970  140.2323  156.4516 H   0  0  0  0  0  0  0  0  0  0  0  0  # atno 8008 bound_to 7997
  154.8096  140.0444  157.1354 H   0  0  0  0  0  0  0  0  0  0  0  0  # atno 8009 bound_to 7997
  154.9438  140.3033  155.5111 H   0  0  0  0  0  0  0  0  0  0  0  0  # atno 8010 bound_to 7997
  140.4373  144.1238  150.6168 H   0  0  0  0  0  0  0  0  0  0  0  0  # atno 10167 bound_to 10162
  156.4716  130.8261  151.2490 H   0  0  0  0  0  0  0  0  0  0  0  0  # atno 10718 bound_to 10713
  153.1900  135.4460  155.0137 H   0  0  0  0  0  0  0  0  0  0  0  0  # atno 10763 bound_to 10752
  154.8084  135.3284  154.7372 H   0  0  0  0  0  0  0  0  0  0  0  0  # atno 10764 bound_to 10752
  153.7827  135.6976  153.4941 H   0  0  0  0  0  0  0  0  0  0  0  0  # atno 10765 bound_to 10752
  140.7033  134.3914  157.5207 H   0  0  0  0  0  0  0  0  0  0  0  0  # atno 11005 bound_to 11000
  145.4551  141.0430  143.2783 LP  0  0  0  0  0  0  0  0  0  0  0  0  # atno 17320 bound_to 7965
  144.8047  139.6074  143.7056 LP  0  0  0  0  0  0  0  0  0  0  0  0  # atno 17321 bound_to 7965
  140.4359  143.2548  151.9536 LP  0  0  0  0  0  0  0  0  0  0  0  0  # atno 17342 bound_to 10162
  139.4787  144.5701  151.8102 LP  0  0  0  0  0  0  0  0  0  0  0  0  # atno 17343 bound_to 10162
  157.7491  131.0074  150.3190 LP  0  0  0  0  0  0  0  0  0  0  0  0  # atno 17370 bound_to 10713
  156.3613  130.3847  149.7249 LP  0  0  0  0  0  0  0  0  0  0  0  0  # atno 17371 bound_to 10713
  139.8891  134.8839  156.2439 LP  0  0  0  0  0  0  0  0  0  0  0  0  # atno 17394 bound_to 11000
  141.0146  133.7076  156.1167 LP  0  0  0  0  0  0  0  0  0  0  0  0  # atno 17395 bound_to 11000

$$$$
