AV-unprocessed.smi:3337|AV-procd|sdf|12863|dock9
  -GOLD-   2272019263D 1   1.00000     0.00000
 Structure written by MMmdl.
 46 47  0  0  0  0  0  0  0  0  2 V2000
  147.0814  129.9544  153.0207 C   0  0  0  0  0  0  0  0  0  0  0  0
  145.8822  130.9027  152.8803 C   0  0  2  0  0  0  0  0  0  0  0  0
  145.4793  131.0867  151.4076 C   0  0  0  0  0  0  0  0  0  0  0  0
  144.2905  132.0549  151.2886 C   0  0  2  0  0  0  0  0  0  0  0  0
  143.8853  132.2705  149.8237 C   0  0  0  0  0  0  0  0  0  0  0  0
  144.6198  133.3903  151.9834 C   0  0  0  0  0  0  0  0  0  0  0  0
  145.0003  133.1837  153.4047 N   0  3  2  0  0  0  0  0  0  0  0  0
  145.1863  134.4673  154.1272 C   0  0  0  0  0  0  0  0  0  0  0  0
  146.6084  135.0361  153.9570 C   0  0  0  0  0  0  0  0  0  0  0  0
  146.5828  136.4607  153.6475 N   0  0  0  0  0  0  0  0  0  0  0  0
  147.3023  137.3971  154.2867 C   0  0  0  0  0  0  0  0  0  0  0  0
  148.0844  137.1305  155.2002 O   0  0  0  0  0  0  0  0  0  0  0  0
  147.1037  138.8482  153.8218 C   0  0  2  0  0  0  0  0  0  0  0  0
  146.9405  138.9633  152.2928 C   0  0  0  0  0  0  0  0  0  0  0  0
  148.1820  139.6910  154.3236 N   0  0  0  0  0  0  0  0  0  0  0  0
  149.4970  139.6232  154.1042 C   0  0  0  0  0  0  0  0  0  0  0  0
  150.1918  140.5873  154.6912 N   0  0  0  0  0  0  0  0  0  0  0  0
  149.1725  141.2696  155.2923 C   0  0  0  0  0  0  0  0  0  0  0  0
  147.9478  140.7821  155.0949 N   0  0  0  0  0  0  0  0  0  0  0  0
  146.1680  132.2710  153.5282 C   0  0  0  0  0  0  0  0  0  0  0  0
  147.9625  130.3506  152.5148 H   0  0  0  0  0  0  0  0  0  0  0  0
  146.8622  128.9768  152.5901 H   0  0  0  0  0  0  0  0  0  0  0  0
  147.3404  129.8007  154.0685 H   0  0  0  0  0  0  0  0  0  0  0  0
  145.0417  130.4482  153.4073 H   0  0  0  0  0  0  0  0  0  0  0  0
  146.3270  131.4692  150.8369 H   0  0  0  0  0  0  0  0  0  0  0  0
  145.2196  130.1219  150.9697 H   0  0  0  0  0  0  0  0  0  0  0  0
  143.4378  131.6078  151.8021 H   0  0  0  0  0  0  0  0  0  0  0  0
  144.6937  132.7260  149.2507 H   0  0  0  0  0  0  0  0  0  0  0  0
  143.0154  132.9238  149.7490 H   0  0  0  0  0  0  0  0  0  0  0  0
  143.6284  131.3259  149.3438 H   0  0  0  0  0  0  0  0  0  0  0  0
  145.4301  133.9021  151.4612 H   0  0  0  0  0  0  0  0  0  0  0  0
  143.7475  134.0434  151.9323 H   0  0  0  0  0  0  0  0  0  0  0  0
  144.4308  135.1826  153.7983 H   0  0  0  0  0  0  0  0  0  0  0  0
  145.0150  134.3112  155.1934 H   0  0  0  0  0  0  0  0  0  0  0  0
  147.1743  134.9004  154.8790 H   0  0  0  0  0  0  0  0  0  0  0  0
  147.1606  134.5134  153.1756 H   0  0  0  0  0  0  0  0  0  0  0  0
  145.9624  136.7594  152.9085 H   0  0  0  0  0  0  0  0  0  0  0  0
  146.1778  139.2120  154.2711 H   0  0  0  0  0  0  0  0  0  0  0  0
  146.0989  138.3656  151.9414 H   0  0  0  0  0  0  0  0  0  0  0  0
  147.8298  138.6282  151.7574 H   0  0  0  0  0  0  0  0  0  0  0  0
  146.7510  139.9967  152.0009 H   0  0  0  0  0  0  0  0  0  0  0  0
  149.9555  138.8545  153.4996 H   0  0  0  0  0  0  0  0  0  0  0  0
  149.3375  142.1556  155.8876 H   0  0  0  0  0  0  0  0  0  0  0  0
  146.4163  132.1199  154.5782 H   0  0  0  0  0  0  0  0  0  0  0  0
  147.0406  132.7333  153.0633 H   0  0  0  0  0  0  0  0  0  0  0  0
  144.2154  132.7206  153.8402 H   0  0  0  0  0  0  0  0  0  0  0  0
  1  2  1  0  0  0  0
  1 21  1  0  0  0  0
  1 22  1  0  0  0  0
  1 23  1  0  0  0  0
  2 20  1  0  0  0  0
  2  3  1  0  0  0  0
  2 24  1  0  0  0  0
  3  4  1  0  0  0  0
  3 25  1  0  0  0  0
  3 26  1  0  0  0  0
  4  5  1  0  0  0  0
  4  6  1  0  0  0  0
  4 27  1  0  0  0  0
  5 28  1  0  0  0  0
  5 29  1  0  0  0  0
  5 30  1  0  0  0  0
  6  7  1  0  0  0  0
  6 31  1  0  0  0  0
  6 32  1  0  0  0  0
  7  8  1  0  0  0  0
  7 20  1  0  0  0  0
  7 46  1  0  0  0  0
  8  9  1  0  0  0  0
  8 33  1  0  0  0  0
  8 34  1  0  0  0  0
  9 10  1  0  0  0  0
  9 35  1  0  0  0  0
  9 36  1  0  0  0  0
 10 11  1  0  0  0  0
 10 37  1  0  0  0  0
 11 12  2  0  0  0  0
 11 13  1  0  0  0  0
 13 14  1  0  0  0  0
 13 15  1  0  0  0  0
 13 38  1  0  0  0  0
 14 39  1  0  0  0  0
 14 40  1  0  0  0  0
 14 41  1  0  0  0  0
 15 19  1  0  0  0  0
 15 16  1  0  0  0  0
 16 17  2  0  0  0  0
 16 42  1  0  0  0  0
 17 18  1  0  0  0  0
 18 19  2  0  0  0  0
 18 43  1  0  0  0  0
 20 44  1  0  0  0  0
 20 45  1  0  0  0  0
M  CHG  1   7   1
M  END
> <s_m_source_file>
AV-unprocessed.smi

> <i_m_source_file_index>
3337

> <i_lp_mmshare_version>
43012

> <i_f3d_flags>
0

> <s_epik_input>
W0NIM11bQ0BASF0xW0NIMl1bQ0BASF0oW0NIM10pW0NIMl1OKFtDSDJdMSlbQ0gyXVtDSDJdW05IXUMoPU8pW0NASF0oW0NIM10pbjJbY0hdbltjSF1uMg==

> <s_epik_cmdline>
J2VwaWtfcHl0aG9uJywgJy1waCcsICc3LjAnLCAnLXRuJywgJzgnLCAnLW1hJywgJzIwMCcsICctbWV0YWxfYmluZGluZycsICctaW1hZScsICc8aW5maWxlLm1hZT4nLCAnLW9tYWUnLCAnPG91dGZpbGUubWFlPic=

> <r_lp_tautomer_probability>
1

> <r_epik_Ionization_Penalty>
0.00175613

> <r_epik_Ionization_Penalty_Charging>
0.00174812

> <r_epik_Ionization_Penalty_Neutral>
8.01354e-06

> <r_epik_State_Penalty>
0.00118332

> <r_epik_Charging_Adjusted_Penalty>
0.00293143

> <i_epik_Tot_Q>
1

> <i_epik_Tot_abs_Q>
1

> <r_epik_Metal_State_Penalty>
-0

> <b_epik_Metal_Only>
0

> <s_lp_Force_Field>
OPLS_2005

> <r_lp_Energy>
22.1479

> <b_lp_Chiralities_Consistent>
1

> <s_lp_Variant>
AV-unprocessed.smi:3337-3

> <Gold.Version>
5.8.1

> <Gold.Id.Protein>
6NUR|6NUR_protein|mol2

> <Gold.PLP.Fitness>
39.2980

> <Gold.PLP.PLP>
-28.8131

> <Gold.PLP.part.hbond>
-2.9674

> <Gold.PLP.part.metal>
0.0000

> <Gold.PLP.part.buried>
-2.2254

> <Gold.PLP.part.nonpolar>
-24.6475

> <Gold.PLP.part.repulsive>
0.2689

> <Gold.PLP.ligand.clash>
0.0000

> <Gold.PLP.ligand.torsion>
1.1546

> <Gold.PLP.Chemscore.Hbond>
2.8160

> <Gold.PLP.Chemscore.CHOScore>
1.4111

> <Gold.PLP.Chemscore.Metal>
0.0000

> <Gold.Chemscore.Hbonds>
donor molecule, donor type, donor heavy atom, donor atom, acceptor molecule, acceptor atom, score
      L1  H     7    46       P1 10957  1.95
      P1  H  7989  7998       L1    17  0.90
      L1  C    16    42       P1  7957  0.26
      L1  C    18    43       P1  8028  0.79

> <Gold.PLP.Chemscore.Internal.Correction>
0.1128

> <Gold.Rescore>
     Score         DG    S(hbond)    S(metal)    S(lipo)     H(rot)  DE(clash)    DE(int)     intcor
     10.83     -12.09       1.70        0.00      63.10       2.51       0.04       1.23       ----

> <Gold.Chemscore.Fitness>
10.8289

> <Gold.Chemscore.DG>
-12.0917

> <Gold.Chemscore.ZeroCoef>
-5.4800

> <Gold.Chemscore.Hbond>
1.6954

> <Gold.Chemscore.Metal>
0.0000

> <Gold.Chemscore.Lipo>
63.0956

> <Gold.Chemscore.Internal_Hbond>
0.0000

> <Gold.Chemscore.DEClash>
0.0354

> <Gold.Chemscore.DEInternal>
1.2274

> <Gold.Chemscore.Rot>
2.5129

> <Gold.Chemscore.Internal.Correction>
   9.000000E+99

> <Gold.Chemscore.Hbonds>
donor molecule, donor type, donor heavy atom, donor atom, acceptor molecule, acceptor atom, score
      L1  H     7    46       P1 10957  0.68
      P1  H  7989  7998       L1    17  0.35

> <Gold.Chemscore.Hbond.Weighted>
-5.6626

> <Gold.Chemscore.Metal.Weighted>
-0.0000

> <Gold.Chemscore.Lipo.Weighted>
-7.3822

> <Gold.Chemscore.Internal_Hbond.Weighted>
0.0000

> <Gold.Chemscore.DEClash.Weighted>
0.0354

> <Gold.Chemscore.DEInternal.Weighted>
1.2274

> <Gold.Chemscore.Rot.Weighted>
6.4331

> <Gold.Chemscore.Internal.Correction.Weighted>
   9.000000E+99

> <Gold.Protein.RotatedTorsions>
[ 6907 6896 6895 6894 ] final  178.76 input  -60.11 | X-H torsion
[ 7974 7965 7964 7962 ] final -111.30 input  175.53 | X-H torsion
[ 8008 7997 7996 7995 ] final -131.61 input   59.86 | X-H torsion
[ 10167 10162 10161 10158 ] final  -11.26 input  -65.29 | X-H torsion
[ 10718 10713 10712 10709 ] final   27.75 input   66.30 | X-H torsion
[ 10763 10752 10751 10750 ] final  146.83 input  -60.55 | X-H torsion
[ 11005 11000 10999 10996 ] final  172.32 input  -57.11 | X-H torsion

> <Gold.Protein.ActiveResidues>
 VAL166  LYS551  ARG553  GLY616  TRP617  ASP618  TYR619  PRO620  LYS621  CYS622 
 ASP623  PHE694  ASN695  SER759  ASP760  ASP761  ALA762  ILE779  LEU786  VAL792 
 PHE793  MET794  SER795  GLU796  ALA797  LYS798  CYS799  TRP800  GLU811  SER814 

> <Gold.Protein.RotatedAtoms>
  151.6826  133.3312  159.3222 H   0  0  0  0  0  0  0  0  0  0  0  0  # atno 6907 bound_to 6896
  150.7816  134.6767  159.6431 H   0  0  0  0  0  0  0  0  0  0  0  0  # atno 6908 bound_to 6896
  152.3874  134.6498  160.0172 H   0  0  0  0  0  0  0  0  0  0  0  0  # atno 6909 bound_to 6896
  145.1578  140.8862  143.3608 H   0  0  0  0  0  0  0  0  0  0  0  0  # atno 7974 bound_to 7965
  155.3152  140.0459  157.3037 H   0  0  0  0  0  0  0  0  0  0  0  0  # atno 8008 bound_to 7997
  154.5410  140.2288  155.8607 H   0  0  0  0  0  0  0  0  0  0  0  0  # atno 8009 bound_to 7997
  156.1881  140.3057  155.9285 H   0  0  0  0  0  0  0  0  0  0  0  0  # atno 8010 bound_to 7997
  140.7134  143.5659  150.9145 H   0  0  0  0  0  0  0  0  0  0  0  0  # atno 10167 bound_to 10162
  157.2243  130.6993  149.6284 H   0  0  0  0  0  0  0  0  0  0  0  0  # atno 10718 bound_to 10713
  154.0283  135.2900  155.3372 H   0  0  0  0  0  0  0  0  0  0  0  0  # atno 10763 bound_to 10752
  154.7004  135.5191  153.8521 H   0  0  0  0  0  0  0  0  0  0  0  0  # atno 10764 bound_to 10752
  153.0651  135.6628  154.0498 H   0  0  0  0  0  0  0  0  0  0  0  0  # atno 10765 bound_to 10752
  140.3285  134.7377  157.4117 H   0  0  0  0  0  0  0  0  0  0  0  0  # atno 11005 bound_to 11000
  145.0363  139.3298  143.5999 LP  0  0  0  0  0  0  0  0  0  0  0  0  # atno 17320 bound_to 7965
  146.3486  139.9719  142.8705 LP  0  0  0  0  0  0  0  0  0  0  0  0  # atno 17321 bound_to 7965
  139.9384  143.6410  152.3059 LP  0  0  0  0  0  0  0  0  0  0  0  0  # atno 17342 bound_to 10162
  139.6886  144.7649  151.1479 LP  0  0  0  0  0  0  0  0  0  0  0  0  # atno 17343 bound_to 10162
  155.9680  130.4509  150.5717 LP  0  0  0  0  0  0  0  0  0  0  0  0  # atno 17370 bound_to 10713
  157.3544  131.0739  151.1687 LP  0  0  0  0  0  0  0  0  0  0  0  0  # atno 17371 bound_to 10713
  140.0881  134.5639  155.8472 LP  0  0  0  0  0  0  0  0  0  0  0  0  # atno 17394 bound_to 11000
  141.2069  133.6659  156.6273 LP  0  0  0  0  0  0  0  0  0  0  0  0  # atno 17395 bound_to 11000

$$$$
