AV-unprocessed.smi:1983|AV-procd|sdf|8033|dock4
  -GOLD-   2272010223D 1   1.00000     0.00000
 Structure written by MMmdl.
 49 50  0  0  0  0  0  0  0  0  1 V2000
  149.7317  133.6778  154.7231 C   0  0  0  0  0  0  0  0  0  0  0  0
  149.4677  134.9556  155.5342 C   0  0  1  0  0  0  0  0  0  0  0  0
  150.6841  135.3702  156.3857 C   0  0  0  0  0  0  0  0  0  0  0  0
  151.6489  136.0204  155.5863 O   0  0  0  0  0  0  0  0  0  0  0  0
  149.0981  136.0325  154.6197 N   0  0  0  0  0  0  0  0  0  0  0  0
  148.8181  137.2933  154.9791 C   0  0  0  0  0  0  0  0  0  0  0  0
  148.8404  137.7029  156.1398 O   0  0  0  0  0  0  0  0  0  0  0  0
  148.5208  138.0576  153.9191 N   0  0  0  0  0  0  0  0  0  0  0  0
  148.1949  139.4789  153.9813 C   0  0  0  0  0  0  0  0  0  0  0  0
  149.0155  140.2737  154.9886 C   0  0  0  0  0  0  0  0  0  0  0  0
  150.4152  140.1274  155.0292 C   0  0  0  0  0  0  0  0  0  0  0  0
  151.1562  140.8610  155.9751 C   0  0  0  0  0  0  0  0  0  0  0  0
  150.4746  141.7285  156.8659 C   0  0  0  0  0  0  0  0  0  0  0  0
  151.1534  142.4846  157.8476 N   0  0  0  0  0  0  0  0  0  0  0  0
  152.0770  141.8016  158.7467 C   0  0  0  0  0  0  0  0  0  0  0  0
  152.3949  142.6852  159.9657 C   0  0  1  0  0  0  0  0  0  0  0  0
  153.4682  142.0570  160.8609 C   0  0  0  0  0  0  0  0  0  0  0  0
  152.8719  143.9557  159.5259 O   0  0  0  0  0  0  0  0  0  0  0  0
  151.9684  144.6720  158.6811 C   0  0  2  0  0  0  0  0  0  0  0  0
  150.7459  145.2035  159.4508 C   0  0  0  0  0  0  0  0  0  0  0  0
  151.5953  143.8206  157.4516 C   0  0  0  0  0  0  0  0  0  0  0  0
  149.1267  141.8614  156.8257 N   0  0  0  0  0  0  0  0  0  0  0  0
  148.4219  141.1550  155.9174 C   0  0  0  0  0  0  0  0  0  0  0  0
  149.9645  132.8363  155.3762 H   0  0  0  0  0  0  0  0  0  0  0  0
  150.5701  133.8077  154.0376 H   0  0  0  0  0  0  0  0  0  0  0  0
  148.8582  133.4000  154.1327 H   0  0  0  0  0  0  0  0  0  0  0  0
  148.6211  134.7651  156.1971 H   0  0  0  0  0  0  0  0  0  0  0  0
  150.3852  136.0253  157.2046 H   0  0  0  0  0  0  0  0  0  0  0  0
  151.1606  134.4963  156.8311 H   0  0  0  0  0  0  0  0  0  0  0  0
  151.2288  136.7312  155.1266 H   0  0  0  0  0  0  0  0  0  0  0  0
  149.0543  135.7982  153.6389 H   0  0  0  0  0  0  0  0  0  0  0  0
  148.5279  137.6300  153.0045 H   0  0  0  0  0  0  0  0  0  0  0  0
  148.3635  139.9073  152.9933 H   0  0  0  0  0  0  0  0  0  0  0  0
  147.1312  139.6031  154.1931 H   0  0  0  0  0  0  0  0  0  0  0  0
  150.9193  139.4627  154.3430 H   0  0  0  0  0  0  0  0  0  0  0  0
  152.2297  140.7481  155.9901 H   0  0  0  0  0  0  0  0  0  0  0  0
  151.6423  140.8648  159.0968 H   0  0  0  0  0  0  0  0  0  0  0  0
  152.9915  141.5597  158.2032 H   0  0  0  0  0  0  0  0  0  0  0  0
  151.4943  142.8181  160.5656 H   0  0  0  0  0  0  0  0  0  0  0  0
  153.1462  141.0852  161.2358 H   0  0  0  0  0  0  0  0  0  0  0  0
  153.6779  142.6921  161.7219 H   0  0  0  0  0  0  0  0  0  0  0  0
  154.4022  141.9140  160.3169 H   0  0  0  0  0  0  0  0  0  0  0  0
  152.5161  145.5444  158.3239 H   0  0  0  0  0  0  0  0  0  0  0  0
  150.1494  145.8615  158.8187 H   0  0  0  0  0  0  0  0  0  0  0  0
  151.0555  145.7776  160.3241 H   0  0  0  0  0  0  0  0  0  0  0  0
  150.0897  144.4023  159.7902 H   0  0  0  0  0  0  0  0  0  0  0  0
  152.4671  143.7103  156.8055 H   0  0  0  0  0  0  0  0  0  0  0  0
  150.8393  144.3464  156.8686 H   0  0  0  0  0  0  0  0  0  0  0  0
  147.3520  141.2992  155.9430 H   0  0  0  0  0  0  0  0  0  0  0  0
  1  2  1  0  0  0  0
  1 24  1  0  0  0  0
  1 25  1  0  0  0  0
  1 26  1  0  0  0  0
  2  3  1  0  0  0  0
  2  5  1  0  0  0  0
  2 27  1  0  0  0  0
  3  4  1  0  0  0  0
  3 28  1  0  0  0  0
  3 29  1  0  0  0  0
  4 30  1  0  0  0  0
  5  6  1  0  0  0  0
  5 31  1  0  0  0  0
  6  7  2  0  0  0  0
  6  8  1  0  0  0  0
  8  9  1  0  0  0  0
  8 32  1  0  0  0  0
  9 10  1  0  0  0  0
  9 33  1  0  0  0  0
  9 34  1  0  0  0  0
 10 23  1  0  0  0  0
 10 11  2  0  0  0  0
 11 12  1  0  0  0  0
 11 35  1  0  0  0  0
 12 13  2  0  0  0  0
 12 36  1  0  0  0  0
 13 14  1  0  0  0  0
 13 22  1  0  0  0  0
 14 21  1  0  0  0  0
 14 15  1  0  0  0  0
 15 16  1  0  0  0  0
 15 37  1  0  0  0  0
 15 38  1  0  0  0  0
 16 17  1  0  0  0  0
 16 18  1  0  0  0  0
 16 39  1  0  0  0  0
 17 40  1  0  0  0  0
 17 41  1  0  0  0  0
 17 42  1  0  0  0  0
 18 19  1  0  0  0  0
 19 20  1  0  0  0  0
 19 21  1  0  0  0  0
 19 43  1  0  0  0  0
 20 44  1  0  0  0  0
 20 45  1  0  0  0  0
 20 46  1  0  0  0  0
 21 47  1  0  0  0  0
 21 48  1  0  0  0  0
 22 23  2  0  0  0  0
 23 49  1  0  0  0  0
M  END
> <s_m_source_file>
AV-unprocessed.smi

> <i_m_source_file_index>
1983

> <i_lp_mmshare_version>
43012

> <i_f3d_flags>
0

> <s_epik_input>
W09IXVtDSDJdW0NAQEhdKFtDSDNdKVtOSF1DKD1PKVtOSF1bQ0gyXWMxW2NIXVtjSF1jKG5bY0hdMSlOMltDSDJdW0NAQEhdKFtDSDNdKU9bQ0BASF0oW0NIM10pW0NIMl0y

> <s_epik_cmdline>
J2VwaWtfcHl0aG9uJywgJy1waCcsICc3LjAnLCAnLXRuJywgJzgnLCAnLW1hJywgJzIwMCcsICctbWV0YWxfYmluZGluZycsICctaW1hZScsICc8aW5maWxlLm1hZT4nLCAnLW9tYWUnLCAnPG91dGZpbGUubWFlPic=

> <r_lp_tautomer_probability>
1

> <r_epik_Ionization_Penalty>
0.00801967

> <r_epik_Ionization_Penalty_Charging>
0

> <r_epik_Ionization_Penalty_Neutral>
0.00801967

> <r_epik_State_Penalty>
0.00598289

> <r_epik_Charging_Adjusted_Penalty>
0.00598289

> <i_epik_Tot_Q>
0

> <i_epik_Tot_abs_Q>
0

> <r_epik_Metal_State_Penalty>
0.00590297

> <b_epik_Metal_Only>
0

> <s_lp_Force_Field>
OPLS_2005

> <r_lp_Energy>
16.4024

> <b_lp_Chiralities_Consistent>
1

> <s_lp_Variant>
AV-unprocessed.smi:1983-6

> <Gold.Version>
5.8.1

> <Gold.Id.Protein>
6NUR|6NUR_protein|mol2

> <Gold.PLP.Fitness>
51.1285

> <Gold.PLP.PLP>
-43.4129

> <Gold.PLP.part.hbond>
-3.0000

> <Gold.PLP.part.metal>
0.0000

> <Gold.PLP.part.buried>
-4.8613

> <Gold.PLP.part.nonpolar>
-36.5384

> <Gold.PLP.part.repulsive>
0.4629

> <Gold.PLP.ligand.clash>
0.0000

> <Gold.PLP.ligand.torsion>
0.8796

> <Gold.PLP.Chemscore.Hbond>
3.0000

> <Gold.PLP.Chemscore.CHOScore>
0.0000

> <Gold.PLP.Chemscore.Metal>
0.0000

> <Gold.Chemscore.Hbonds>
donor molecule, donor type, donor heavy atom, donor atom, acceptor molecule, acceptor atom, score
      L1  H     5    31       P1  7948  1.00
      L1  H     8    32       P1  7948  1.00
      P1  H 10752 10765       L1     4  1.00

> <Gold.PLP.Chemscore.Internal.Correction>
0.4748

> <Gold.Rescore>
     Score         DG    S(hbond)    S(metal)    S(lipo)     H(rot)  DE(clash)    DE(int)     intcor
     18.76     -21.10       2.85        0.00     109.15       2.61       0.13       2.21       ----

> <Gold.Chemscore.Fitness>
18.7612

> <Gold.Chemscore.DG>
-21.0975

> <Gold.Chemscore.ZeroCoef>
-5.4800

> <Gold.Chemscore.Hbond>
2.8528

> <Gold.Chemscore.Metal>
0.0000

> <Gold.Chemscore.Lipo>
109.1455

> <Gold.Chemscore.Internal_Hbond>
0.0000

> <Gold.Chemscore.DEClash>
0.1250

> <Gold.Chemscore.DEInternal>
2.2113

> <Gold.Chemscore.Rot>
2.6097

> <Gold.Chemscore.Internal.Correction>
   9.000000E+99

> <Gold.Chemscore.Hbonds>
donor molecule, donor type, donor heavy atom, donor atom, acceptor molecule, acceptor atom, score
      L1  H     5    31       P1  7948  0.86
      L1  H     8    32       P1  7948  0.96
      P1  H 10752 10765       L1     4  0.60

> <Gold.Chemscore.Hbond.Weighted>
-9.5284

> <Gold.Chemscore.Metal.Weighted>
-0.0000

> <Gold.Chemscore.Lipo.Weighted>
-12.7700

> <Gold.Chemscore.Internal_Hbond.Weighted>
0.0000

> <Gold.Chemscore.DEClash.Weighted>
0.1250

> <Gold.Chemscore.DEInternal.Weighted>
2.2113

> <Gold.Chemscore.Rot.Weighted>
6.6809

> <Gold.Chemscore.Internal.Correction.Weighted>
   9.000000E+99

> <Gold.Protein.RotatedTorsions>
[ 6907 6896 6895 6894 ] final -127.98 input  -60.11 | X-H torsion
[ 7974 7965 7964 7962 ] final   44.07 input  175.53 | X-H torsion
[ 8008 7997 7996 7995 ] final   26.15 input   59.86 | X-H torsion
[ 10167 10162 10161 10158 ] final   79.02 input  -65.29 | X-H torsion
[ 10718 10713 10712 10709 ] final    2.81 input   66.30 | X-H torsion
[ 10763 10752 10751 10750 ] final -176.40 input  -60.55 | X-H torsion
[ 11005 11000 10999 10996 ] final   90.36 input  -57.11 | X-H torsion

> <Gold.Protein.ActiveResidues>
 VAL166  LYS551  ARG553  GLY616  TRP617  ASP618  TYR619  PRO620  LYS621  CYS622 
 ASP623  PHE694  ASN695  SER759  ASP760  ASP761  ALA762  ILE779  LEU786  VAL792 
 PHE793  MET794  SER795  GLU796  ALA797  LYS798  CYS799  TRP800  GLU811  SER814 

> <Gold.Protein.RotatedAtoms>
  150.9130  133.6974  159.2849 H   0  0  0  0  0  0  0  0  0  0  0  0  # atno 6907 bound_to 6896
  151.4454  135.1023  159.9692 H   0  0  0  0  0  0  0  0  0  0  0  0  # atno 6908 bound_to 6896
  152.4940  133.8529  159.7266 H   0  0  0  0  0  0  0  0  0  0  0  0  # atno 6909 bound_to 6896
  146.0600  139.5115  142.9664 H   0  0  0  0  0  0  0  0  0  0  0  0  # atno 7974 bound_to 7965
  155.0229  140.3149  155.4787 H   0  0  0  0  0  0  0  0  0  0  0  0  # atno 8008 bound_to 7997
  156.2889  140.2194  156.5290 H   0  0  0  0  0  0  0  0  0  0  0  0  # atno 8009 bound_to 7997
  154.7437  140.0471  157.0821 H   0  0  0  0  0  0  0  0  0  0  0  0  # atno 8010 bound_to 7997
  139.9647  144.5936  150.8040 H   0  0  0  0  0  0  0  0  0  0  0  0  # atno 10167 bound_to 10162
  156.8685  130.5611  149.5658 H   0  0  0  0  0  0  0  0  0  0  0  0  # atno 10718 bound_to 10713
  154.5728  135.2829  155.0811 H   0  0  0  0  0  0  0  0  0  0  0  0  # atno 10763 bound_to 10752
  154.2177  135.6397  153.5138 H   0  0  0  0  0  0  0  0  0  0  0  0  # atno 10764 bound_to 10752
  153.0063  135.5507  154.6356 H   0  0  0  0  0  0  0  0  0  0  0  0  # atno 10765 bound_to 10752
  139.8857  134.8608  156.3273 H   0  0  0  0  0  0  0  0  0  0  0  0  # atno 11005 bound_to 11000
  145.6576  141.0248  143.1726 LP  0  0  0  0  0  0  0  0  0  0  0  0  # atno 17320 bound_to 7965
  144.7170  139.8163  143.7395 LP  0  0  0  0  0  0  0  0  0  0  0  0  # atno 17321 bound_to 7965
  140.7542  143.3022  151.3052 LP  0  0  0  0  0  0  0  0  0  0  0  0  # atno 17342 bound_to 10162
  139.6527  144.0333  152.2637 LP  0  0  0  0  0  0  0  0  0  0  0  0  # atno 17343 bound_to 10162
  156.0739  130.5766  150.9436 LP  0  0  0  0  0  0  0  0  0  0  0  0  # atno 17370 bound_to 10713
  157.6209  131.0929  150.8623 LP  0  0  0  0  0  0  0  0  0  0  0  0  # atno 17371 bound_to 10713
  140.9746  133.7305  156.0584 LP  0  0  0  0  0  0  0  0  0  0  0  0  # atno 17394 bound_to 11000
  140.7827  134.3707  157.5483 LP  0  0  0  0  0  0  0  0  0  0  0  0  # atno 17395 bound_to 11000

$$$$
