AV-unprocessed.smi:290|AV-procd|sdf|2218|dock2
  -GOLD-   2262022 63D 1   1.00000     0.00000
 Structure written by MMmdl.
 59 62  0  0  0  0  0  0  0  0  2 V2000
  150.9259  141.3701  157.4359 C   0  0  0  0  0  0  0  0  0  0  0  0
  151.4223  140.5959  156.2049 C   0  0  1  0  0  0  0  0  0  0  0  0
  152.3987  139.6559  156.6424 O   0  0  0  0  0  0  0  0  0  0  0  0
  152.4035  138.5624  155.7431 C   0  0  0  0  0  0  0  0  0  0  0  0
  150.9191  138.3458  155.4924 C   0  0  0  0  0  0  0  0  0  0  0  0
  150.3659  139.7678  155.4184 C   0  0  2  0  0  0  0  0  0  0  0  0
  150.4137  140.1792  154.0623 O   0  0  0  0  0  0  0  0  0  0  0  0
  148.8991  139.8822  155.9108 C   0  0  0  0  0  0  0  0  0  0  0  0
  147.9425  139.2124  155.0428 N   0  0  0  0  0  0  0  0  0  0  0  0
  147.4529  139.6701  153.8399 C   0  0  0  0  0  0  0  0  0  0  0  0
  146.5972  138.8803  153.2500 N   0  0  0  0  0  0  0  0  0  0  0  0
  146.4994  137.7893  154.1056 C   0  0  0  0  0  0  0  0  0  0  0  0
  145.7640  136.5705  154.0855 C   0  0  0  0  0  0  0  0  0  0  0  0
  144.9046  136.2006  153.1115 N   0  0  0  0  0  0  0  0  0  0  0  0
  143.7174  137.0363  152.9744 C   0  0  0  0  0  0  0  0  0  0  0  0
  142.5862  136.1332  152.4589 C   0  0  0  0  0  0  0  0  0  0  0  0
  143.2158  134.7424  152.2653 C   0  0  1  0  0  0  0  0  0  0  0  0
  143.4373  134.3483  150.8376 N   0  3  1  0  0  0  0  0  0  0  0  0
  144.3988  135.2570  150.1654 C   0  0  0  0  0  0  0  0  0  0  0  0
  143.7423  132.9064  150.6058 C   0  0  0  0  0  0  0  0  0  0  0  0
  143.9466  132.5602  149.1198 C   0  0  0  0  0  0  0  0  0  0  0  0
  142.7639  132.0175  148.5732 O   0  0  0  0  0  0  0  0  0  0  0  0
  144.4868  134.8051  153.1306 C   0  0  1  0  0  0  0  0  0  0  0  0
  145.6083  133.8097  152.7811 C   0  0  0  0  0  0  0  0  0  0  0  0
  145.9207  135.7139  155.1237 N   0  0  0  0  0  0  0  0  0  0  0  0
  146.7490  136.0247  156.1258 C   0  0  0  0  0  0  0  0  0  0  0  0
  147.4989  137.1182  156.2810 N   0  0  0  0  0  0  0  0  0  0  0  0
  147.3401  137.9820  155.2371 C   0  0  0  0  0  0  0  0  0  0  0  0
  142.5667  133.9861  152.7092 H   0  0  0  0  0  0  0  0  0  0  0  0
  144.1737  134.5801  154.1512 H   0  0  0  0  0  0  0  0  0  0  0  0
  150.1867  142.1234  157.1633 H   0  0  0  0  0  0  0  0  0  0  0  0
  151.7538  141.8879  157.9206 H   0  0  0  0  0  0  0  0  0  0  0  0
  150.4809  140.7044  158.1758 H   0  0  0  0  0  0  0  0  0  0  0  0
  151.9257  141.2987  155.5379 H   0  0  0  0  0  0  0  0  0  0  0  0
  152.9242  138.8384  154.8248 H   0  0  0  0  0  0  0  0  0  0  0  0
  152.8924  137.6884  156.1735 H   0  0  0  0  0  0  0  0  0  0  0  0
  150.7166  137.7444  154.6049 H   0  0  0  0  0  0  0  0  0  0  0  0
  150.4961  137.8220  156.3505 H   0  0  0  0  0  0  0  0  0  0  0  0
  149.7408  140.8275  153.9206 H   0  0  0  0  0  0  0  0  0  0  0  0
  148.7968  139.4545  156.9086 H   0  0  0  0  0  0  0  0  0  0  0  0
  148.6052  140.9293  155.9920 H   0  0  0  0  0  0  0  0  0  0  0  0
  147.7493  140.6170  153.4124 H   0  0  0  0  0  0  0  0  0  0  0  0
  143.4318  137.5184  153.9098 H   0  0  0  0  0  0  0  0  0  0  0  0
  143.9295  137.8273  152.2545 H   0  0  0  0  0  0  0  0  0  0  0  0
  141.8092  136.0742  153.2220 H   0  0  0  0  0  0  0  0  0  0  0  0
  142.1118  136.5310  151.5622 H   0  0  0  0  0  0  0  0  0  0  0  0
  145.4067  135.1236  150.5598 H   0  0  0  0  0  0  0  0  0  0  0  0
  144.1157  136.3003  150.3082 H   0  0  0  0  0  0  0  0  0  0  0  0
  144.4290  135.0894  149.0900 H   0  0  0  0  0  0  0  0  0  0  0  0
  144.6318  132.6230  151.1691 H   0  0  0  0  0  0  0  0  0  0  0  0
  142.9340  132.2797  150.9776 H   0  0  0  0  0  0  0  0  0  0  0  0
  144.2663  133.4191  148.5312 H   0  0  0  0  0  0  0  0  0  0  0  0
  144.7352  131.8132  149.0266 H   0  0  0  0  0  0  0  0  0  0  0  0
  142.1149  132.7032  148.5177 H   0  0  0  0  0  0  0  0  0  0  0  0
  145.2279  132.7887  152.7508 H   0  0  0  0  0  0  0  0  0  0  0  0
  146.4037  133.8387  153.5263 H   0  0  0  0  0  0  0  0  0  0  0  0
  146.0614  134.0299  151.8152 H   0  0  0  0  0  0  0  0  0  0  0  0
  146.8212  135.2927  156.9167 H   0  0  0  0  0  0  0  0  0  0  0  0
  142.5493  134.5101  150.3834 H   0  0  0  0  0  0  0  0  0  0  0  0
  1  2  1  0  0  0  0
  1 31  1  0  0  0  0
  1 32  1  0  0  0  0
  1 33  1  0  0  0  0
  2  6  1  0  0  0  0
  2  3  1  0  0  0  0
  2 34  1  0  0  0  0
  3  4  1  0  0  0  0
  4  5  1  0  0  0  0
  4 35  1  0  0  0  0
  4 36  1  0  0  0  0
  5  6  1  0  0  0  0
  5 37  1  0  0  0  0
  5 38  1  0  0  0  0
  6  7  1  0  0  0  0
  6  8  1  0  0  0  0
  7 39  1  0  0  0  0
  8  9  1  0  0  0  0
  8 40  1  0  0  0  0
  8 41  1  0  0  0  0
  9 28  1  0  0  0  0
  9 10  1  0  0  0  0
 10 11  2  0  0  0  0
 10 42  1  0  0  0  0
 11 12  1  0  0  0  0
 12 28  2  0  0  0  0
 12 13  1  0  0  0  0
 13 14  1  0  0  0  0
 13 25  2  0  0  0  0
 14 23  1  0  0  0  0
 14 15  1  0  0  0  0
 15 16  1  0  0  0  0
 15 43  1  0  0  0  0
 15 44  1  0  0  0  0
 16 17  1  0  0  0  0
 16 45  1  0  0  0  0
 16 46  1  0  0  0  0
 17 29  1  0  0  0  0
 17 18  1  0  0  0  0
 17 23  1  0  0  0  0
 18 19  1  0  0  0  0
 18 20  1  0  0  0  0
 18 59  1  0  0  0  0
 19 47  1  0  0  0  0
 19 48  1  0  0  0  0
 19 49  1  0  0  0  0
 20 21  1  0  0  0  0
 20 50  1  0  0  0  0
 20 51  1  0  0  0  0
 21 22  1  0  0  0  0
 21 52  1  0  0  0  0
 21 53  1  0  0  0  0
 22 54  1  0  0  0  0
 23 30  1  0  0  0  0
 23 24  1  0  0  0  0
 24 55  1  0  0  0  0
 24 56  1  0  0  0  0
 24 57  1  0  0  0  0
 25 26  1  0  0  0  0
 26 27  2  0  0  0  0
 26 58  1  0  0  0  0
 27 28  1  0  0  0  0
M  CHG  1  18   1
M  END
> <s_m_source_file>
AV-unprocessed.smi

> <i_m_source_file_index>
290

> <i_lp_mmshare_version>
43012

> <i_f3d_flags>
0

> <s_epik_input>
W0NIMl0xW0NIMl1PW0NAQEhdKFtDSDNdKVtDQEBdMShbT0hdKVtDSDJdbihbY0hdbjIpYyhjMjMpbltjSF1uYzNONFtDSDJdW0NIMl1bQ0BIXShbQ0BIXTRbQ0gzXSlOKFtDSDNdKVtDSDJdW0NIMl1bT0hd

> <s_epik_cmdline>
J2VwaWtfcHl0aG9uJywgJy1waCcsICc3LjAnLCAnLXRuJywgJzgnLCAnLW1hJywgJzIwMCcsICctbWV0YWxfYmluZGluZycsICctaW1hZScsICc8aW5maWxlLm1hZT4nLCAnLW9tYWUnLCAnPG91dGZpbGUubWFlPic=

> <r_lp_tautomer_probability>
1

> <r_epik_Ionization_Penalty>
0.0036983

> <r_epik_Ionization_Penalty_Charging>
0.0032725

> <r_epik_Ionization_Penalty_Neutral>
0.000425798

> <r_epik_State_Penalty>
-0

> <r_epik_Charging_Adjusted_Penalty>
0.0032725

> <i_epik_Tot_Q>
1

> <i_epik_Tot_abs_Q>
1

> <r_epik_Metal_State_Penalty>
-0

> <b_epik_Metal_Only>
0

> <s_lp_Force_Field>
OPLS_2005

> <r_lp_Energy>
69.1694

> <b_lp_Chiralities_Consistent>
1

> <s_lp_Variant>
AV-unprocessed.smi:290-4

> <Gold.Version>
5.8.1

> <Gold.Id.Protein>
6NUR|6NUR_protein|mol2

> <Gold.PLP.Fitness>
57.0440

> <Gold.PLP.PLP>
-42.2134

> <Gold.PLP.part.hbond>
-6.9166

> <Gold.PLP.part.metal>
0.0000

> <Gold.PLP.part.buried>
-6.7351

> <Gold.PLP.part.nonpolar>
-28.9155

> <Gold.PLP.part.repulsive>
0.3687

> <Gold.PLP.ligand.clash>
0.0000

> <Gold.PLP.ligand.torsion>
0.8616

> <Gold.PLP.Chemscore.Hbond>
5.3392

> <Gold.PLP.Chemscore.CHOScore>
0.0000

> <Gold.PLP.Chemscore.Metal>
0.0000

> <Gold.Chemscore.Hbonds>
donor molecule, donor type, donor heavy atom, donor atom, acceptor molecule, acceptor atom, score
      L1  H    18    59       P1 10186  2.00
      L1  H    22    54       P1 10186  0.40
      P1  H  7989  7998       L1     7  0.93
      P1  H  7997  8008       L1     3  0.95
      P1  H 10785 10796       L1    22  0.91

> <Gold.PLP.Chemscore.Internal.Correction>
0.5361

> <Gold.Rescore>
     Score         DG    S(hbond)    S(metal)    S(lipo)     H(rot)  DE(clash)    DE(int)     intcor
     10.84     -13.18       2.19        0.00      83.39       3.67       0.02       2.32       ----

> <Gold.Chemscore.Fitness>
10.8383

> <Gold.Chemscore.DG>
-13.1780

> <Gold.Chemscore.ZeroCoef>
-5.4800

> <Gold.Chemscore.Hbond>
2.1933

> <Gold.Chemscore.Metal>
0.0000

> <Gold.Chemscore.Lipo>
83.3907

> <Gold.Chemscore.Internal_Hbond>
0.0000

> <Gold.Chemscore.DEClash>
0.0155

> <Gold.Chemscore.DEInternal>
2.3241

> <Gold.Chemscore.Rot>
3.6658

> <Gold.Chemscore.Internal.Correction>
   9.000000E+99

> <Gold.Chemscore.Hbonds>
donor molecule, donor type, donor heavy atom, donor atom, acceptor molecule, acceptor atom, score
      L1  H    18    59       P1 10186  0.45
      L1  H    22    54       P1 10186  0.39
      P1  H  7989  7998       L1     7  0.25
      P1  H  7997  8008       L1     3  0.20
      P1  H 10785 10796       L1    22  0.20

> <Gold.Chemscore.Hbond.Weighted>
-7.3257

> <Gold.Chemscore.Metal.Weighted>
-0.0000

> <Gold.Chemscore.Lipo.Weighted>
-9.7567

> <Gold.Chemscore.Internal_Hbond.Weighted>
0.0000

> <Gold.Chemscore.DEClash.Weighted>
0.0155

> <Gold.Chemscore.DEInternal.Weighted>
2.3241

> <Gold.Chemscore.Rot.Weighted>
9.3844

> <Gold.Chemscore.Internal.Correction.Weighted>
   9.000000E+99

> <Gold.Protein.RotatedTorsions>
[ 6907 6896 6895 6894 ] final   54.13 input  -60.11 | X-H torsion
[ 7974 7965 7964 7962 ] final   49.16 input  175.53 | X-H torsion
[ 8008 7997 7996 7995 ] final  -59.09 input   59.86 | X-H torsion
[ 10167 10162 10161 10158 ] final  128.08 input  -65.29 | X-H torsion
[ 10718 10713 10712 10709 ] final   35.70 input   66.30 | X-H torsion
[ 10763 10752 10751 10750 ] final  113.41 input  -60.55 | X-H torsion
[ 11005 11000 10999 10996 ] final  134.24 input  -57.11 | X-H torsion

> <Gold.Protein.ActiveResidues>
 VAL166  LYS551  ARG553  GLY616  TRP617  ASP618  TYR619  PRO620  LYS621  CYS622 
 ASP623  PHE694  ASN695  SER759  ASP760  ASP761  ALA762  ILE779  LEU786  VAL792 
 PHE793  MET794  SER795  GLU796  ALA797  LYS798  CYS799  TRP800  GLU811  SER814 

> <Gold.Protein.RotatedAtoms>
  152.3408  134.7137  160.0264 H   0  0  0  0  0  0  0  0  0  0  0  0  # atno 6907 bound_to 6896
  151.7523  133.3323  159.3403 H   0  0  0  0  0  0  0  0  0  0  0  0  # atno 6908 bound_to 6896
  150.7478  134.6113  159.6132 H   0  0  0  0  0  0  0  0  0  0  0  0  # atno 6909 bound_to 6896
  146.0135  139.4570  142.9941 H   0  0  0  0  0  0  0  0  0  0  0  0  # atno 7974 bound_to 7965
  154.4337  140.1069  156.6061 H   0  0  0  0  0  0  0  0  0  0  0  0  # atno 8008 bound_to 7997
  155.5860  140.3491  155.4534 H   0  0  0  0  0  0  0  0  0  0  0  0  # atno 8009 bound_to 7997
  156.0283  140.1255  157.0275 H   0  0  0  0  0  0  0  0  0  0  0  0  # atno 8010 bound_to 7997
  139.5545  144.6838  151.4223 H   0  0  0  0  0  0  0  0  0  0  0  0  # atno 10167 bound_to 10162
  157.3259  130.7472  149.6815 H   0  0  0  0  0  0  0  0  0  0  0  0  # atno 10718 bound_to 10713
  153.4920  135.3656  155.2497 H   0  0  0  0  0  0  0  0  0  0  0  0  # atno 10763 bound_to 10752
  154.8751  135.3979  154.3577 H   0  0  0  0  0  0  0  0  0  0  0  0  # atno 10764 bound_to 10752
  153.4199  135.7080  153.6367 H   0  0  0  0  0  0  0  0  0  0  0  0  # atno 10765 bound_to 10752
  139.9902  134.9517  156.9838 H   0  0  0  0  0  0  0  0  0  0  0  0  # atno 11005 bound_to 11000
  145.7304  141.0044  143.1354 LP  0  0  0  0  0  0  0  0  0  0  0  0  # atno 17320 bound_to 7965
  144.6962  139.8978  143.7457 LP  0  0  0  0  0  0  0  0  0  0  0  0  # atno 17321 bound_to 7965
  140.6815  143.8071  150.7128 LP  0  0  0  0  0  0  0  0  0  0  0  0  # atno 17342 bound_to 10162
  140.1526  143.4345  152.2121 LP  0  0  0  0  0  0  0  0  0  0  0  0  # atno 17343 bound_to 10162
  155.9690  130.4209  150.4445 LP  0  0  0  0  0  0  0  0  0  0  0  0  # atno 17370 bound_to 10713
  157.2469  131.0538  151.2403 LP  0  0  0  0  0  0  0  0  0  0  0  0  # atno 17371 bound_to 10713
  140.4923  134.1181  155.7235 LP  0  0  0  0  0  0  0  0  0  0  0  0  # atno 17394 bound_to 11000
  141.1559  133.8883  157.1977 LP  0  0  0  0  0  0  0  0  0  0  0  0  # atno 17395 bound_to 11000

$$$$
