AV-unprocessed.smi:1525|AV-procd|sdf|6144|dock6
  -GOLD-   22720 6293D 1   1.00000     0.00000
 Structure written by MMmdl.
 50 52  0  0  0  0  0  0  0  0  3 V2000
  151.1147  134.8550  155.5280 O   0  0  0  0  0  0  0  0  0  0  0  0
  150.3510  135.3117  154.6777 C   0  0  0  0  0  0  0  0  0  0  0  0
  150.2797  136.6154  154.3735 N   0  0  0  0  0  0  0  0  0  0  0  0
  151.0841  137.6611  154.9953 C   0  0  0  0  0  0  0  0  0  0  0  0
  150.4421  139.0506  154.8155 C   0  0  0  0  0  0  0  0  0  0  0  0
  150.9898  140.0585  155.7577 N   0  3  0  0  0  0  0  0  0  0  0  0
  150.2701  141.3563  155.7287 C   0  0  0  0  0  0  0  0  0  0  0  0
  150.9156  142.3519  156.7078 C   0  0  0  0  0  0  0  0  0  0  0  0
  150.9282  141.7970  158.0170 O   0  0  0  0  0  0  0  0  0  0  0  0
  151.6913  140.5988  158.0782 C   0  0  0  0  0  0  0  0  0  0  0  0
  151.0697  139.5449  157.1464 C   0  0  0  0  0  0  0  0  0  0  0  0
  149.5027  134.5864  153.9295 N   0  0  0  0  0  0  0  0  0  0  0  0
  149.3112  133.1750  153.9407 C   0  0  0  0  0  0  0  0  0  0  0  0
  150.2225  132.2992  154.5848 C   0  0  0  0  0  0  0  0  0  0  0  0
  149.9683  130.9145  154.6056 C   0  0  0  0  0  0  0  0  0  0  0  0
  148.8020  130.4260  153.9908 C   0  0  0  0  0  0  0  0  0  0  0  0
  147.9472  131.2862  153.3995 N   0  3  0  0  0  0  0  0  0  0  0  0
  148.1386  132.6278  153.3502 C   0  0  0  0  0  0  0  0  0  0  0  0
  147.1856  133.4282  152.6848 N   0  0  0  0  0  0  0  0  0  0  0  0
  147.2062  133.3019  151.2298 C   0  0  0  0  0  0  0  0  0  0  0  0
  145.7543  133.4291  150.7638 C   0  0  0  0  0  0  0  0  0  0  0  0
  144.9613  132.9366  151.9679 C   0  0  0  0  0  0  0  0  0  0  0  0
  145.7969  133.4413  153.1429 C   0  0  0  0  0  0  0  0  0  0  0  0
  149.6280  136.9061  153.6590 H   0  0  0  0  0  0  0  0  0  0  0  0
  151.2309  137.4405  156.0542 H   0  0  0  0  0  0  0  0  0  0  0  0
  152.0693  137.6260  154.5312 H   0  0  0  0  0  0  0  0  0  0  0  0
  150.5597  139.4014  153.7889 H   0  0  0  0  0  0  0  0  0  0  0  0
  149.3687  138.9602  154.9893 H   0  0  0  0  0  0  0  0  0  0  0  0
  150.2876  141.7823  154.7264 H   0  0  0  0  0  0  0  0  0  0  0  0
  149.2227  141.2012  155.9929 H   0  0  0  0  0  0  0  0  0  0  0  0
  151.9305  142.6030  156.3956 H   0  0  0  0  0  0  0  0  0  0  0  0
  150.3485  143.2829  156.7245 H   0  0  0  0  0  0  0  0  0  0  0  0
  152.7287  140.7983  157.8049 H   0  0  0  0  0  0  0  0  0  0  0  0
  151.6970  140.2354  159.1060 H   0  0  0  0  0  0  0  0  0  0  0  0
  150.0707  139.2795  157.4966 H   0  0  0  0  0  0  0  0  0  0  0  0
  151.6712  138.6353  157.1727 H   0  0  0  0  0  0  0  0  0  0  0  0
  149.0053  135.0869  153.2073 H   0  0  0  0  0  0  0  0  0  0  0  0
  151.1072  132.6683  155.0809 H   0  0  0  0  0  0  0  0  0  0  0  0
  150.6557  130.2383  155.0927 H   0  0  0  0  0  0  0  0  0  0  0  0
  148.5261  129.3819  153.9575 H   0  0  0  0  0  0  0  0  0  0  0  0
  147.8345  134.0674  150.7744 H   0  0  0  0  0  0  0  0  0  0  0  0
  147.6058  132.3274  150.9437 H   0  0  0  0  0  0  0  0  0  0  0  0
  145.5168  134.4763  150.5710 H   0  0  0  0  0  0  0  0  0  0  0  0
  145.5487  132.8637  149.8545 H   0  0  0  0  0  0  0  0  0  0  0  0
  143.9357  133.3059  151.9858 H   0  0  0  0  0  0  0  0  0  0  0  0
  144.9308  131.8461  151.9725 H   0  0  0  0  0  0  0  0  0  0  0  0
  145.6076  132.8649  154.0480 H   0  0  0  0  0  0  0  0  0  0  0  0
  145.5333  134.4752  153.3675 H   0  0  0  0  0  0  0  0  0  0  0  0
  151.9404  140.2398  155.4685 H   0  0  0  0  0  0  0  0  0  0  0  0
  147.1093  130.9034  152.9610 H   0  0  0  0  0  0  0  0  0  0  0  0
  1  2  2  0  0  0  0
  2  3  1  0  0  0  0
  2 12  1  0  0  0  0
  3  4  1  0  0  0  0
  3 24  1  0  0  0  0
  4  5  1  0  0  0  0
  4 25  1  0  0  0  0
  4 26  1  0  0  0  0
  5  6  1  0  0  0  0
  5 27  1  0  0  0  0
  5 28  1  0  0  0  0
  6 11  1  0  0  0  0
  6  7  1  0  0  0  0
  6 49  1  0  0  0  0
  7  8  1  0  0  0  0
  7 29  1  0  0  0  0
  7 30  1  0  0  0  0
  8  9  1  0  0  0  0
  8 31  1  0  0  0  0
  8 32  1  0  0  0  0
  9 10  1  0  0  0  0
 10 11  1  0  0  0  0
 10 33  1  0  0  0  0
 10 34  1  0  0  0  0
 11 35  1  0  0  0  0
 11 36  1  0  0  0  0
 12 13  1  0  0  0  0
 12 37  1  0  0  0  0
 13 18  1  0  0  0  0
 13 14  2  0  0  0  0
 14 15  1  0  0  0  0
 14 38  1  0  0  0  0
 15 16  2  0  0  0  0
 15 39  1  0  0  0  0
 16 17  1  0  0  0  0
 16 40  1  0  0  0  0
 17 18  2  0  0  0  0
 17 50  1  0  0  0  0
 18 19  1  0  0  0  0
 19 23  1  0  0  0  0
 19 20  1  0  0  0  0
 20 21  1  0  0  0  0
 20 41  1  0  0  0  0
 20 42  1  0  0  0  0
 21 22  1  0  0  0  0
 21 43  1  0  0  0  0
 21 44  1  0  0  0  0
 22 23  1  0  0  0  0
 22 45  1  0  0  0  0
 22 46  1  0  0  0  0
 23 47  1  0  0  0  0
 23 48  1  0  0  0  0
M  CHG  1   6   1
M  CHG  1  17   1
M  END
> <s_m_source_file>
AV-unprocessed.smi

> <i_m_source_file_index>
1525

> <i_lp_mmshare_version>
43012

> <i_f3d_flags>
0

> <s_epik_input>
W0NIMl0xW0NIMl1PW0NIMl1bQ0gyXU4xW0NIMl1bQ0gyXVtOSF1DKD1PKVtOSF1jMltjSF1bY0hdW2NIXW5jMk4zW0NIMl1bQ0gyXVtDSDJdW0NIMl0z

> <s_epik_cmdline>
J2VwaWtfcHl0aG9uJywgJy1waCcsICc3LjAnLCAnLXRuJywgJzgnLCAnLW1hJywgJzIwMCcsICctbWV0YWxfYmluZGluZycsICctaW1hZScsICc8aW5maWxlLm1hZT4nLCAnLW9tYWUnLCAnPG91dGZpbGUubWFlPic=

> <r_lp_tautomer_probability>
0.999994

> <r_epik_Ionization_Penalty>
1.81601

> <r_epik_Ionization_Penalty_Charging>
1.81599

> <r_epik_Ionization_Penalty_Neutral>
2.02981e-05

> <r_epik_State_Penalty>
1.85672

> <r_epik_Charging_Adjusted_Penalty>
3.6727

> <i_epik_Tot_Q>
2

> <i_epik_Tot_abs_Q>
2

> <r_epik_Metal_State_Penalty>
1.93796

> <b_epik_Metal_Only>
0

> <s_lp_Force_Field>
OPLS_2005

> <r_lp_Energy>
52.6706

> <b_lp_Chiralities_Consistent>
1

> <s_lp_Variant>
AV-unprocessed.smi:1525-4

> <Gold.Version>
5.8.1

> <Gold.Id.Protein>
6NUR|6NUR_protein|mol2

> <Gold.PLP.Fitness>
43.8753

> <Gold.PLP.PLP>
-37.6801

> <Gold.PLP.part.hbond>
-3.7686

> <Gold.PLP.part.metal>
0.0000

> <Gold.PLP.part.buried>
-3.8952

> <Gold.PLP.part.nonpolar>
-28.9888

> <Gold.PLP.part.repulsive>
0.4476

> <Gold.PLP.ligand.clash>
0.0000

> <Gold.PLP.ligand.torsion>
0.4752

> <Gold.PLP.Chemscore.Hbond>
2.3177

> <Gold.PLP.Chemscore.CHOScore>
0.0000

> <Gold.PLP.Chemscore.Metal>
0.0000

> <Gold.Chemscore.Hbonds>
donor molecule, donor type, donor heavy atom, donor atom, acceptor molecule, acceptor atom, score
      L1  H     3    24       P1  7948  0.74
      L1  H    12    37       P1  7948  1.00
      P1  H 10752 10763       L1     1  0.69

> <Gold.PLP.Chemscore.Internal.Correction>
0.1927

> <Gold.Rescore>
     Score         DG    S(hbond)    S(metal)    S(lipo)     H(rot)  DE(clash)    DE(int)     intcor
     14.53     -16.48       1.73        0.00      81.79       1.70       0.13       1.82       ----

> <Gold.Chemscore.Fitness>
14.5309

> <Gold.Chemscore.DG>
-16.4817

> <Gold.Chemscore.ZeroCoef>
-5.4800

> <Gold.Chemscore.Hbond>
1.7280

> <Gold.Chemscore.Metal>
0.0000

> <Gold.Chemscore.Lipo>
81.7927

> <Gold.Chemscore.Internal_Hbond>
0.0000

> <Gold.Chemscore.DEClash>
0.1283

> <Gold.Chemscore.DEInternal>
1.8225

> <Gold.Chemscore.Rot>
1.6952

> <Gold.Chemscore.Internal.Correction>
   9.000000E+99

> <Gold.Chemscore.Hbonds>
donor molecule, donor type, donor heavy atom, donor atom, acceptor molecule, acceptor atom, score
      L1  H     3    24       P1  7948  0.53
      L1  H    12    37       P1  7948  0.24
      P1  H 10752 10763       L1     1  0.23

> <Gold.Chemscore.Hbond.Weighted>
-5.7716

> <Gold.Chemscore.Metal.Weighted>
-0.0000

> <Gold.Chemscore.Lipo.Weighted>
-9.5698

> <Gold.Chemscore.Internal_Hbond.Weighted>
0.0000

> <Gold.Chemscore.DEClash.Weighted>
0.1283

> <Gold.Chemscore.DEInternal.Weighted>
1.8225

> <Gold.Chemscore.Rot.Weighted>
4.3397

> <Gold.Chemscore.Internal.Correction.Weighted>
   9.000000E+99

> <Gold.Protein.RotatedTorsions>
[ 6907 6896 6895 6894 ] final  -19.53 input  -60.11 | X-H torsion
[ 7974 7965 7964 7962 ] final    1.62 input  175.53 | X-H torsion
[ 8008 7997 7996 7995 ] final  -91.12 input   59.86 | X-H torsion
[ 10167 10162 10161 10158 ] final   27.03 input  -65.29 | X-H torsion
[ 10718 10713 10712 10709 ] final   97.23 input   66.30 | X-H torsion
[ 10763 10752 10751 10750 ] final   74.06 input  -60.55 | X-H torsion
[ 11005 11000 10999 10996 ] final -123.30 input  -57.11 | X-H torsion

> <Gold.Protein.ActiveResidues>
 VAL166  LYS551  ARG553  GLY616  TRP617  ASP618  TYR619  PRO620  LYS621  CYS622 
 ASP623  PHE694  ASN695  SER759  ASP760  ASP761  ALA762  ILE779  LEU786  VAL792 
 PHE793  MET794  SER795  GLU796  ALA797  LYS798  CYS799  TRP800  GLU811  SER814 

> <Gold.Protein.RotatedAtoms>
  151.2617  135.0656  159.9100 H   0  0  0  0  0  0  0  0  0  0  0  0  # atno 6907 bound_to 6896
  152.5365  134.0223  159.7998 H   0  0  0  0  0  0  0  0  0  0  0  0  # atno 6908 bound_to 6896
  151.0448  133.5625  159.2679 H   0  0  0  0  0  0  0  0  0  0  0  0  # atno 6909 bound_to 6896
  146.2441  140.0960  142.8350 H   0  0  0  0  0  0  0  0  0  0  0  0  # atno 7974 bound_to 7965
  154.7069  140.0523  157.0512 H   0  0  0  0  0  0  0  0  0  0  0  0  # atno 8008 bound_to 7997
  155.0608  140.3189  155.4642 H   0  0  0  0  0  0  0  0  0  0  0  0  # atno 8009 bound_to 7997
  156.2777  140.2099  156.5735 H   0  0  0  0  0  0  0  0  0  0  0  0  # atno 8010 bound_to 7997
  140.4973  144.0371  150.6319 H   0  0  0  0  0  0  0  0  0  0  0  0  # atno 10167 bound_to 10162
  157.6915  131.0603  150.4611 H   0  0  0  0  0  0  0  0  0  0  0  0  # atno 10718 bound_to 10713
  153.0562  135.5040  154.7986 H   0  0  0  0  0  0  0  0  0  0  0  0  # atno 10763 bound_to 10752
  154.6810  135.2968  154.9615 H   0  0  0  0  0  0  0  0  0  0  0  0  # atno 10764 bound_to 10752
  154.0401  135.6718  153.4842 H   0  0  0  0  0  0  0  0  0  0  0  0  # atno 10765 bound_to 10752
  140.9929  134.0513  157.3632 H   0  0  0  0  0  0  0  0  0  0  0  0  # atno 11005 bound_to 11000
  145.0610  140.9087  143.4939 LP  0  0  0  0  0  0  0  0  0  0  0  0  # atno 17320 bound_to 7965
  145.1075  139.2780  143.5654 LP  0  0  0  0  0  0  0  0  0  0  0  0  # atno 17321 bound_to 7965
  140.3657  143.2882  152.0334 LP  0  0  0  0  0  0  0  0  0  0  0  0  # atno 17342 bound_to 10162
  139.4864  144.6268  151.7148 LP  0  0  0  0  0  0  0  0  0  0  0  0  # atno 17343 bound_to 10162
  156.4956  130.4105  149.6382 LP  0  0  0  0  0  0  0  0  0  0  0  0  # atno 17370 bound_to 10713
  156.3376  130.7365  151.2305 LP  0  0  0  0  0  0  0  0  0  0  0  0  # atno 17371 bound_to 10713
  139.9001  135.0161  156.7226 LP  0  0  0  0  0  0  0  0  0  0  0  0  # atno 17394 bound_to 11000
  140.7011  133.9305  155.8025 LP  0  0  0  0  0  0  0  0  0  0  0  0  # atno 17395 bound_to 11000

$$$$
