AV-unprocessed.smi:1350|AV-procd|sdf|5523|dock3
  -GOLD-   22720 5113D 1   1.00000     0.00000
 Structure written by MMmdl.
 44 46  0  0  0  0  0  0  0  0  2 V2000
  149.1353  136.8472  158.8543 C   0  0  0  0  0  0  0  0  0  0  0  0
  148.7572  135.5172  159.1782 O   0  0  0  0  0  0  0  0  0  0  0  0
  148.1150  135.2900  160.3790 C   0  0  0  0  0  0  0  0  0  0  0  0
  147.8469  136.3136  161.3247 C   0  0  0  0  0  0  0  0  0  0  0  0
  147.1770  136.0223  162.5276 C   0  0  0  0  0  0  0  0  0  0  0  0
  146.7611  134.7083  162.8019 C   0  0  0  0  0  0  0  0  0  0  0  0
  147.0224  133.6845  161.8743 C   0  0  0  0  0  0  0  0  0  0  0  0
  147.7057  133.9649  160.6705 C   0  0  0  0  0  0  0  0  0  0  0  0
  147.9608  132.8409  159.6766 C   0  0  0  0  0  0  0  0  0  0  0  0
  147.2288  133.0093  158.4720 O   0  0  0  0  0  0  0  0  0  0  0  0
  147.9469  132.5892  157.3237 C   0  0  0  0  0  0  0  0  0  0  0  0
  147.0223  131.7385  156.4384 C   0  0  1  0  0  0  0  0  0  0  0  0
  145.8978  132.5174  156.0795 O   0  0  0  0  0  0  0  0  0  0  0  0
  147.7345  131.2554  155.1597 C   0  0  0  0  0  0  0  0  0  0  0  0
  147.5615  132.1797  154.0294 N   0  0  0  0  0  0  0  0  0  0  0  0
  148.0259  133.4491  153.8728 C   0  0  0  0  0  0  0  0  0  0  0  0
  147.6045  133.8956  152.6575 N   0  3  0  0  0  0  0  0  0  0  0  0
  146.8614  132.8964  152.0259 C   0  0  0  0  0  0  0  0  0  0  0  0
  146.2309  132.8786  150.7857 C   0  0  0  0  0  0  0  0  0  0  0  0
  145.5540  131.6916  150.4369 C   0  0  0  0  0  0  0  0  0  0  0  0
  145.5227  130.5818  151.3058 C   0  0  0  0  0  0  0  0  0  0  0  0
  146.1646  130.6113  152.5616 C   0  0  0  0  0  0  0  0  0  0  0  0
  146.8304  131.7892  152.9007 C   0  0  0  0  0  0  0  0  0  0  0  0
  149.6394  136.8518  157.8881 H   0  0  0  0  0  0  0  0  0  0  0  0
  149.8307  137.2544  159.5894 H   0  0  0  0  0  0  0  0  0  0  0  0
  148.2661  137.5014  158.7755 H   0  0  0  0  0  0  0  0  0  0  0  0
  148.1428  137.3366  161.1503 H   0  0  0  0  0  0  0  0  0  0  0  0
  146.9784  136.8104  163.2389 H   0  0  0  0  0  0  0  0  0  0  0  0
  146.2410  134.4851  163.7217 H   0  0  0  0  0  0  0  0  0  0  0  0
  146.6932  132.6794  162.0942 H   0  0  0  0  0  0  0  0  0  0  0  0
  149.0300  132.8106  159.4627 H   0  0  0  0  0  0  0  0  0  0  0  0
  147.6888  131.8822  160.1200 H   0  0  0  0  0  0  0  0  0  0  0  0
  148.3512  133.4401  156.7727 H   0  0  0  0  0  0  0  0  0  0  0  0
  148.7945  131.9858  157.6525 H   0  0  0  0  0  0  0  0  0  0  0  0
  146.6817  130.8671  156.9993 H   0  0  0  0  0  0  0  0  0  0  0  0
  146.1910  133.3915  155.8733 H   0  0  0  0  0  0  0  0  0  0  0  0
  148.7970  131.0854  155.3344 H   0  0  0  0  0  0  0  0  0  0  0  0
  147.3205  130.2959  154.8471 H   0  0  0  0  0  0  0  0  0  0  0  0
  148.6219  134.0021  154.5845 H   0  0  0  0  0  0  0  0  0  0  0  0
  146.2549  133.7270  150.1175 H   0  0  0  0  0  0  0  0  0  0  0  0
  145.0500  131.6307  149.4832 H   0  0  0  0  0  0  0  0  0  0  0  0
  144.9961  129.6884  151.0029 H   0  0  0  0  0  0  0  0  0  0  0  0
  146.1361  129.7528  153.2156 H   0  0  0  0  0  0  0  0  0  0  0  0
  147.8123  134.8148  152.2885 H   0  0  0  0  0  0  0  0  0  0  0  0
  1  2  1  0  0  0  0
  1 24  1  0  0  0  0
  1 25  1  0  0  0  0
  1 26  1  0  0  0  0
  2  3  1  0  0  0  0
  3  8  1  0  0  0  0
  3  4  2  0  0  0  0
  4  5  1  0  0  0  0
  4 27  1  0  0  0  0
  5  6  2  0  0  0  0
  5 28  1  0  0  0  0
  6  7  1  0  0  0  0
  6 29  1  0  0  0  0
  7  8  2  0  0  0  0
  7 30  1  0  0  0  0
  8  9  1  0  0  0  0
  9 10  1  0  0  0  0
  9 31  1  0  0  0  0
  9 32  1  0  0  0  0
 10 11  1  0  0  0  0
 11 12  1  0  0  0  0
 11 33  1  0  0  0  0
 11 34  1  0  0  0  0
 12 13  1  0  0  0  0
 12 14  1  0  0  0  0
 12 35  1  0  0  0  0
 13 36  1  0  0  0  0
 14 15  1  0  0  0  0
 14 37  1  0  0  0  0
 14 38  1  0  0  0  0
 15 23  1  0  0  0  0
 15 16  1  0  0  0  0
 16 17  2  0  0  0  0
 16 39  1  0  0  0  0
 17 18  1  0  0  0  0
 17 44  1  0  0  0  0
 18 23  2  0  0  0  0
 18 19  1  0  0  0  0
 19 20  2  0  0  0  0
 19 40  1  0  0  0  0
 20 21  1  0  0  0  0
 20 41  1  0  0  0  0
 21 22  2  0  0  0  0
 21 42  1  0  0  0  0
 22 23  1  0  0  0  0
 22 43  1  0  0  0  0
M  CHG  1  17   1
M  END
> <s_m_source_file>
AV-unprocessed.smi

> <i_m_source_file_index>
1350

> <i_lp_mmshare_version>
43012

> <i_f3d_flags>
0

> <s_epik_input>
W0NIM11PYzFbY0hdW2NIXVtjSF1bY0hdYzFbQ0gyXU9bQ0gyXVtDQEhdKFtPSF0pW0NIMl1uKFtjSF1uMiljKGMyMylbY0hdW2NIXVtjSF1bY0hdMw==

> <s_epik_cmdline>
J2VwaWtfcHl0aG9uJywgJy1waCcsICc3LjAnLCAnLXRuJywgJzgnLCAnLW1hJywgJzIwMCcsICctbWV0YWxfYmluZGluZycsICctaW1hZScsICc8aW5maWxlLm1hZT4nLCAnLW9tYWUnLCAnPG91dGZpbGUubWFlPic=

> <r_lp_tautomer_probability>
1

> <r_epik_Ionization_Penalty>
1.28975

> <r_epik_Ionization_Penalty_Charging>
1.28975

> <r_epik_Ionization_Penalty_Neutral>
1.07667e-06

> <r_epik_State_Penalty>
1.36276

> <r_epik_Charging_Adjusted_Penalty>
2.65251

> <i_epik_Tot_Q>
1

> <i_epik_Tot_abs_Q>
1

> <r_epik_Metal_State_Penalty>
5.39298

> <b_epik_Metal_Only>
0

> <s_lp_Force_Field>
OPLS_2005

> <r_lp_Energy>
25.8807

> <b_lp_Chiralities_Consistent>
1

> <s_lp_Variant>
AV-unprocessed.smi:1350-4

> <Gold.Version>
5.8.1

> <Gold.Id.Protein>
6NUR|6NUR_protein|mol2

> <Gold.PLP.Fitness>
45.8748

> <Gold.PLP.PLP>
-41.1142

> <Gold.PLP.part.hbond>
-2.0000

> <Gold.PLP.part.metal>
0.0000

> <Gold.PLP.part.buried>
-4.4460

> <Gold.PLP.part.nonpolar>
-34.8943

> <Gold.PLP.part.repulsive>
0.0073

> <Gold.PLP.ligand.clash>
0.0000

> <Gold.PLP.ligand.torsion>
1.0625

> <Gold.PLP.Chemscore.Hbond>
2.2730

> <Gold.PLP.Chemscore.CHOScore>
0.0000

> <Gold.PLP.Chemscore.Metal>
0.0000

> <Gold.Chemscore.Hbonds>
donor molecule, donor type, donor heavy atom, donor atom, acceptor molecule, acceptor atom, score
      L1  H    17    44       P1  7948  2.00
      P1  H  6896  6908       L1     2  0.13

> <Gold.PLP.Chemscore.Internal.Correction>
0.0667

> <Gold.Rescore>
     Score         DG    S(hbond)    S(metal)    S(lipo)     H(rot)  DE(clash)    DE(int)     intcor
     12.93     -14.16       0.90        0.00     108.42       2.74       0.07       1.16       ----

> <Gold.Chemscore.Fitness>
12.9320

> <Gold.Chemscore.DG>
-14.1642

> <Gold.Chemscore.ZeroCoef>
-5.4800

> <Gold.Chemscore.Hbond>
0.9013

> <Gold.Chemscore.Metal>
0.0000

> <Gold.Chemscore.Lipo>
108.4245

> <Gold.Chemscore.Internal_Hbond>
0.0000

> <Gold.Chemscore.DEClash>
0.0673

> <Gold.Chemscore.DEInternal>
1.1650

> <Gold.Chemscore.Rot>
2.7390

> <Gold.Chemscore.Internal.Correction>
   9.000000E+99

> <Gold.Chemscore.Hbonds>
donor molecule, donor type, donor heavy atom, donor atom, acceptor molecule, acceptor atom, score
      L1  H    17    44       P1  7948  0.72

> <Gold.Chemscore.Hbond.Weighted>
-3.0103

> <Gold.Chemscore.Metal.Weighted>
-0.0000

> <Gold.Chemscore.Lipo.Weighted>
-12.6857

> <Gold.Chemscore.Internal_Hbond.Weighted>
0.0000

> <Gold.Chemscore.DEClash.Weighted>
0.0673

> <Gold.Chemscore.DEInternal.Weighted>
1.1650

> <Gold.Chemscore.Rot.Weighted>
7.0118

> <Gold.Chemscore.Internal.Correction.Weighted>
   9.000000E+99

> <Gold.Protein.RotatedTorsions>
[ 6907 6896 6895 6894 ] final -159.74 input  -60.11 | X-H torsion
[ 7974 7965 7964 7962 ] final  -91.49 input  175.53 | X-H torsion
[ 8008 7997 7996 7995 ] final -119.45 input   59.86 | X-H torsion
[ 10167 10162 10161 10158 ] final  164.51 input  -65.29 | X-H torsion
[ 10718 10713 10712 10709 ] final  107.88 input   66.30 | X-H torsion
[ 10763 10752 10751 10750 ] final   11.42 input  -60.55 | X-H torsion
[ 11005 11000 10999 10996 ] final  142.39 input  -57.11 | X-H torsion

> <Gold.Protein.ActiveResidues>
 VAL166  LYS551  ARG553  GLY616  TRP617  ASP618  TYR619  PRO620  LYS621  CYS622 
 ASP623  PHE694  ASN695  SER759  ASP760  ASP761  ALA762  ILE779  LEU786  VAL792 
 PHE793  MET794  SER795  GLU796  ALA797  LYS798  CYS799  TRP800  GLU811  SER814 

> <Gold.Protein.RotatedAtoms>
  151.3382  133.3973  159.2668 H   0  0  0  0  0  0  0  0  0  0  0  0  # atno 6907 bound_to 6896
  150.9900  134.9237  159.7904 H   0  0  0  0  0  0  0  0  0  0  0  0  # atno 6908 bound_to 6896
  152.5244  134.3347  159.9248 H   0  0  0  0  0  0  0  0  0  0  0  0  # atno 6909 bound_to 6896
  145.4125  140.9546  143.2226 H   0  0  0  0  0  0  0  0  0  0  0  0  # atno 7974 bound_to 7965
  155.1160  140.0398  157.2737 H   0  0  0  0  0  0  0  0  0  0  0  0  # atno 8008 bound_to 7997
  154.6649  140.2599  155.7043 H   0  0  0  0  0  0  0  0  0  0  0  0  # atno 8009 bound_to 7997
  156.2635  140.2809  156.1136 H   0  0  0  0  0  0  0  0  0  0  0  0  # atno 8010 bound_to 7997
  139.4890  144.4228  151.9166 H   0  0  0  0  0  0  0  0  0  0  0  0  # atno 10167 bound_to 10162
  157.6610  131.0882  150.6223 H   0  0  0  0  0  0  0  0  0  0  0  0  # atno 10718 bound_to 10713
  153.1928  135.6845  153.8330 H   0  0  0  0  0  0  0  0  0  0  0  0  # atno 10763 bound_to 10752
  153.7624  135.3208  155.3340 H   0  0  0  0  0  0  0  0  0  0  0  0  # atno 10764 bound_to 10752
  154.8127  135.4706  154.0659 H   0  0  0  0  0  0  0  0  0  0  0  0  # atno 10765 bound_to 10752
  140.0473  134.9274  157.0953 H   0  0  0  0  0  0  0  0  0  0  0  0  # atno 11005 bound_to 11000
  144.8300  139.5645  143.6948 LP  0  0  0  0  0  0  0  0  0  0  0  0  # atno 17320 bound_to 7965
  146.2698  139.6607  142.9304 LP  0  0  0  0  0  0  0  0  0  0  0  0  # atno 17321 bound_to 7965
  140.3672  144.2900  150.5925 LP  0  0  0  0  0  0  0  0  0  0  0  0  # atno 17342 bound_to 10162
  140.5351  143.2235  151.8176 LP  0  0  0  0  0  0  0  0  0  0  0  0  # atno 17343 bound_to 10162
  156.6526  130.4489  149.5714 LP  0  0  0  0  0  0  0  0  0  0  0  0  # atno 17370 bound_to 10713
  156.2126  130.6688  151.1286 LP  0  0  0  0  0  0  0  0  0  0  0  0  # atno 17371 bound_to 10713
  140.3973  134.2120  155.7164 LP  0  0  0  0  0  0  0  0  0  0  0  0  # atno 17394 bound_to 11000
  141.1913  133.8197  157.0884 LP  0  0  0  0  0  0  0  0  0  0  0  0  # atno 17395 bound_to 11000

$$$$
