AV-unprocessed.smi:1323|AV-procd|sdf|5467|dock7
  -GOLD-   22720 5 33D 1   1.00000     0.00000
 Structure written by MMmdl.
 45 46  0  0  0  0  0  0  0  0  1 V2000
  153.4461  140.5356  160.0013 C   0  0  0  0  0  0  0  0  0  0  0  0
  153.2976  142.0438  160.2503 C   0  0  2  0  0  0  0  0  0  0  0  0
  152.7143  142.3392  161.6467 C   0  0  0  0  0  0  0  0  0  0  0  0
  152.6322  143.8501  161.9142 C   0  0  0  0  0  0  0  0  0  0  0  0
  151.8265  144.5671  160.8207 C   0  0  0  0  0  0  0  0  0  0  0  0
  152.3934  144.2702  159.4216 C   0  0  0  0  0  0  0  0  0  0  0  0
  152.4809  142.7577  159.1463 C   0  0  2  0  0  0  0  0  0  0  0  0
  151.1517  142.2533  159.1180 O   0  0  0  0  0  0  0  0  0  0  0  0
  150.3591  142.7086  158.0330 C   0  0  0  0  0  0  0  0  0  0  0  0
  150.5611  141.7680  156.8363 C   0  0  0  0  0  0  0  0  0  0  0  0
  149.4855  141.9024  155.8585 N   0  0  0  0  0  0  0  0  0  0  0  0
  149.3769  141.1940  154.7235 C   0  0  0  0  0  0  0  0  0  0  0  0
  150.1823  140.3229  154.3922 O   0  0  0  0  0  0  0  0  0  0  0  0
  148.1557  141.5061  153.8470 C   0  0  0  0  0  0  0  0  0  0  0  0
  147.3974  140.3031  153.4650 N   0  0  0  0  0  0  0  0  0  0  0  0
  147.2161  140.0720  152.0866 C   0  0  0  0  0  0  0  0  0  0  0  0
  146.5278  139.0149  151.6279 C   0  0  0  0  0  0  0  0  0  0  0  0
  145.9626  138.0989  152.5904 C   0  0  0  0  0  0  0  0  0  0  0  0
  146.1309  138.3098  153.9110 C   0  0  0  0  0  0  0  0  0  0  0  0
  146.8877  139.4609  154.4160 C   0  0  0  0  0  0  0  0  0  0  0  0
  147.0538  139.6535  155.6203 O   0  0  0  0  0  0  0  0  0  0  0  0
  152.4824  140.0280  160.0384 H   0  0  0  0  0  0  0  0  0  0  0  0
  154.0882  140.0763  160.7533 H   0  0  0  0  0  0  0  0  0  0  0  0
  153.8900  140.3403  159.0250 H   0  0  0  0  0  0  0  0  0  0  0  0
  154.3050  142.4619  160.2259 H   0  0  0  0  0  0  0  0  0  0  0  0
  151.7195  141.9013  161.7334 H   0  0  0  0  0  0  0  0  0  0  0  0
  153.3251  141.8657  162.4159 H   0  0  0  0  0  0  0  0  0  0  0  0
  152.1772  144.0299  162.8885 H   0  0  0  0  0  0  0  0  0  0  0  0
  153.6384  144.2681  161.9604 H   0  0  0  0  0  0  0  0  0  0  0  0
  150.7839  144.2498  160.8695 H   0  0  0  0  0  0  0  0  0  0  0  0
  151.8291  145.6421  161.0020 H   0  0  0  0  0  0  0  0  0  0  0  0
  151.7774  144.7519  158.6615 H   0  0  0  0  0  0  0  0  0  0  0  0
  153.3873  144.7110  159.3352 H   0  0  0  0  0  0  0  0  0  0  0  0
  152.9697  142.6172  158.1801 H   0  0  0  0  0  0  0  0  0  0  0  0
  149.3108  142.7088  158.3341 H   0  0  0  0  0  0  0  0  0  0  0  0
  150.6162  143.7313  157.7549 H   0  0  0  0  0  0  0  0  0  0  0  0
  151.5348  141.9366  156.3732 H   0  0  0  0  0  0  0  0  0  0  0  0
  150.5607  140.7352  157.1847 H   0  0  0  0  0  0  0  0  0  0  0  0
  148.7756  142.5929  156.0548 H   0  0  0  0  0  0  0  0  0  0  0  0
  147.5135  142.1974  154.3944 H   0  0  0  0  0  0  0  0  0  0  0  0
  148.4744  142.0566  152.9597 H   0  0  0  0  0  0  0  0  0  0  0  0
  147.6627  140.8090  151.4347 H   0  0  0  0  0  0  0  0  0  0  0  0
  146.3960  138.8566  150.5677 H   0  0  0  0  0  0  0  0  0  0  0  0
  145.4003  137.2420  152.2498 H   0  0  0  0  0  0  0  0  0  0  0  0
  145.6988  137.6156  154.6168 H   0  0  0  0  0  0  0  0  0  0  0  0
  1  2  1  0  0  0  0
  1 22  1  0  0  0  0
  1 23  1  0  0  0  0
  1 24  1  0  0  0  0
  2  7  1  0  0  0  0
  2  3  1  0  0  0  0
  2 25  1  0  0  0  0
  3  4  1  0  0  0  0
  3 26  1  0  0  0  0
  3 27  1  0  0  0  0
  4  5  1  0  0  0  0
  4 28  1  0  0  0  0
  4 29  1  0  0  0  0
  5  6  1  0  0  0  0
  5 30  1  0  0  0  0
  5 31  1  0  0  0  0
  6  7  1  0  0  0  0
  6 32  1  0  0  0  0
  6 33  1  0  0  0  0
  7  8  1  0  0  0  0
  7 34  1  0  0  0  0
  8  9  1  0  0  0  0
  9 10  1  0  0  0  0
  9 35  1  0  0  0  0
  9 36  1  0  0  0  0
 10 11  1  0  0  0  0
 10 37  1  0  0  0  0
 10 38  1  0  0  0  0
 11 12  1  0  0  0  0
 11 39  1  0  0  0  0
 12 13  2  0  0  0  0
 12 14  1  0  0  0  0
 14 15  1  0  0  0  0
 14 40  1  0  0  0  0
 14 41  1  0  0  0  0
 15 20  1  0  0  0  0
 15 16  1  0  0  0  0
 16 17  2  0  0  0  0
 16 42  1  0  0  0  0
 17 18  1  0  0  0  0
 17 43  1  0  0  0  0
 18 19  2  0  0  0  0
 18 44  1  0  0  0  0
 19 20  1  0  0  0  0
 19 45  1  0  0  0  0
 20 21  2  0  0  0  0
M  END
> <s_m_source_file>
AV-unprocessed.smi

> <i_m_source_file_index>
1323

> <i_lp_mmshare_version>
43012

> <i_f3d_flags>
0

> <s_epik_input>
W0NIM11bQ0BASF0xW0NIMl1bQ0gyXVtDSDJdW0NIMl1bQ0BIXTFPW0NIMl1bQ0gyXVtOSF1DKD1PKVtDSDJdbjJbY0hdW2NIXVtjSF1bY0hdYzI9Tw==

> <s_epik_cmdline>
J2VwaWtfcHl0aG9uJywgJy1waCcsICc3LjAnLCAnLXRuJywgJzgnLCAnLW1hJywgJzIwMCcsICctbWV0YWxfYmluZGluZycsICctaW1hZScsICc8aW5maWxlLm1hZT4nLCAnLW9tYWUnLCAnPG91dGZpbGUubWFlPic=

> <r_lp_tautomer_probability>
1

> <r_epik_Ionization_Penalty>
4.02412e-07

> <r_epik_Ionization_Penalty_Charging>
3.74552e-07

> <r_epik_Ionization_Penalty_Neutral>
2.78599e-08

> <r_epik_State_Penalty>
-0

> <r_epik_Charging_Adjusted_Penalty>
3.74552e-07

> <i_epik_Tot_Q>
0

> <i_epik_Tot_abs_Q>
0

> <r_epik_Metal_State_Penalty>
-0

> <b_epik_Metal_Only>
0

> <s_lp_Force_Field>
OPLS_2005

> <r_lp_Energy>
19.1209

> <b_lp_Chiralities_Consistent>
1

> <s_lp_Variant>
AV-unprocessed.smi:1323-3

> <Gold.Version>
5.8.1

> <Gold.Id.Protein>
6NUR|6NUR_protein|mol2

> <Gold.PLP.Fitness>
54.1948

> <Gold.PLP.PLP>
-48.8257

> <Gold.PLP.part.hbond>
-2.0000

> <Gold.PLP.part.metal>
0.0000

> <Gold.PLP.part.buried>
-1.4170

> <Gold.PLP.part.nonpolar>
-45.9920

> <Gold.PLP.part.repulsive>
0.2451

> <Gold.PLP.ligand.clash>
0.0000

> <Gold.PLP.ligand.torsion>
0.3778

> <Gold.PLP.Chemscore.Hbond>
1.4714

> <Gold.PLP.Chemscore.CHOScore>
0.5540

> <Gold.PLP.Chemscore.Metal>
0.0000

> <Gold.Chemscore.Hbonds>
donor molecule, donor type, donor heavy atom, donor atom, acceptor molecule, acceptor atom, score
      L1  H    11    39       P1  8028  0.36
      P1  H  7989  7998       L1    13  0.98
      L1  C    16    42       P1  7957  0.47

> <Gold.PLP.Chemscore.Internal.Correction>
0.0487

> <Gold.Rescore>
     Score         DG    S(hbond)    S(metal)    S(lipo)     H(rot)  DE(clash)    DE(int)     intcor
     17.64     -20.79       1.44        0.00     132.31       1.94       1.94       1.21       ----

> <Gold.Chemscore.Fitness>
17.6377

> <Gold.Chemscore.DG>
-20.7934

> <Gold.Chemscore.ZeroCoef>
-5.4800

> <Gold.Chemscore.Hbond>
1.4367

> <Gold.Chemscore.Metal>
0.0000

> <Gold.Chemscore.Lipo>
132.3129

> <Gold.Chemscore.Internal_Hbond>
0.0000

> <Gold.Chemscore.DEClash>
1.9448

> <Gold.Chemscore.DEInternal>
1.2109

> <Gold.Chemscore.Rot>
1.9398

> <Gold.Chemscore.Internal.Correction>
   9.000000E+99

> <Gold.Chemscore.Hbonds>
donor molecule, donor type, donor heavy atom, donor atom, acceptor molecule, acceptor atom, score
      L1  H    11    39       P1  8028  0.36
      P1  H  7989  7998       L1    13  0.87

> <Gold.Chemscore.Hbond.Weighted>
-4.7987

> <Gold.Chemscore.Metal.Weighted>
-0.0000

> <Gold.Chemscore.Lipo.Weighted>
-15.4806

> <Gold.Chemscore.Internal_Hbond.Weighted>
0.0000

> <Gold.Chemscore.DEClash.Weighted>
1.9448

> <Gold.Chemscore.DEInternal.Weighted>
1.2109

> <Gold.Chemscore.Rot.Weighted>
4.9659

> <Gold.Chemscore.Internal.Correction.Weighted>
   9.000000E+99

> <Gold.Protein.RotatedTorsions>
[ 6907 6896 6895 6894 ] final  -18.93 input  -60.11 | X-H torsion
[ 7974 7965 7964 7962 ] final -120.32 input  175.53 | X-H torsion
[ 8008 7997 7996 7995 ] final  135.56 input   59.86 | X-H torsion
[ 10167 10162 10161 10158 ] final  151.69 input  -65.29 | X-H torsion
[ 10718 10713 10712 10709 ] final  143.77 input   66.30 | X-H torsion
[ 10763 10752 10751 10750 ] final  161.98 input  -60.55 | X-H torsion
[ 11005 11000 10999 10996 ] final  148.09 input  -57.11 | X-H torsion

> <Gold.Protein.ActiveResidues>
 VAL166  LYS551  ARG553  GLY616  TRP617  ASP618  TYR619  PRO620  LYS621  CYS622 
 ASP623  PHE694  ASN695  SER759  ASP760  ASP761  ALA762  ILE779  LEU786  VAL792 
 PHE793  MET794  SER795  GLU796  ALA797  LYS798  CYS799  TRP800  GLU811  SER814 

> <Gold.Protein.RotatedAtoms>
  151.2707  135.0683  159.9132 H   0  0  0  0  0  0  0  0  0  0  0  0  # atno 6907 bound_to 6896
  152.5351  134.0133  159.7959 H   0  0  0  0  0  0  0  0  0  0  0  0  # atno 6908 bound_to 6896
  151.0371  133.5688  159.2685 H   0  0  0  0  0  0  0  0  0  0  0  0  # atno 6909 bound_to 6896
  145.0526  140.8230  143.4200 H   0  0  0  0  0  0  0  0  0  0  0  0  # atno 7974 bound_to 7965
  156.3003  140.2467  156.3601 H   0  0  0  0  0  0  0  0  0  0  0  0  # atno 8008 bound_to 7997
  154.8885  140.0410  157.1844 H   0  0  0  0  0  0  0  0  0  0  0  0  # atno 8009 bound_to 7997
  154.8622  140.2922  155.5536 H   0  0  0  0  0  0  0  0  0  0  0  0  # atno 8010 bound_to 7997
  139.4838  144.5420  151.7548 H   0  0  0  0  0  0  0  0  0  0  0  0  # atno 10167 bound_to 10162
  157.3650  131.0970  151.0881 H   0  0  0  0  0  0  0  0  0  0  0  0  # atno 10718 bound_to 10713
  154.2713  135.2765  155.2737 H   0  0  0  0  0  0  0  0  0  0  0  0  # atno 10763 bound_to 10752
  154.5299  135.5732  153.6753 H   0  0  0  0  0  0  0  0  0  0  0  0  # atno 10764 bound_to 10752
  152.9944  135.6225  154.2868 H   0  0  0  0  0  0  0  0  0  0  0  0  # atno 10765 bound_to 10752
  140.0930  134.9029  157.1680 H   0  0  0  0  0  0  0  0  0  0  0  0  # atno 11005 bound_to 11000
  145.1508  139.2516  143.5442 LP  0  0  0  0  0  0  0  0  0  0  0  0  # atno 17320 bound_to 7965
  146.3519  140.1209  142.8600 LP  0  0  0  0  0  0  0  0  0  0  0  0  # atno 17321 bound_to 7965
  140.4961  144.1239  150.5960 LP  0  0  0  0  0  0  0  0  0  0  0  0  # atno 17342 bound_to 10162
  140.4116  143.2654  151.9826 LP  0  0  0  0  0  0  0  0  0  0  0  0  # atno 17343 bound_to 10162
  157.2006  130.6393  149.5737 LP  0  0  0  0  0  0  0  0  0  0  0  0  # atno 17370 bound_to 10713
  155.9744  130.4692  150.6387 LP  0  0  0  0  0  0  0  0  0  0  0  0  # atno 17371 bound_to 10713
  140.3326  134.2793  155.7225 LP  0  0  0  0  0  0  0  0  0  0  0  0  # atno 17394 bound_to 11000
  141.2083  133.7780  157.0064 LP  0  0  0  0  0  0  0  0  0  0  0  0  # atno 17395 bound_to 11000

$$$$
