AV-unprocessed.smi:2878|AV-procd|sdf|11045|dock7
  -GOLD-   2272015513D 1   1.00000     0.00000
 Structure written by MMmdl.
 42 43  0  0  0  0  0  0  0  0  1 V2000
  152.3403  144.8321  158.2828 C   0  0  0  0  0  0  0  0  0  0  0  0
  151.2531  144.0114  159.4803 S   0  0  0  0  0  0  0  0  0  0  0  0
  151.4155  142.2698  158.9708 C   0  0  2  0  0  0  0  0  0  0  0  0
  152.8074  141.7468  159.3735 C   0  0  0  0  0  0  0  0  0  0  0  0
  153.0202  140.2898  158.9385 C   0  0  0  0  0  0  0  0  0  0  0  0
  152.8119  140.1353  157.4264 C   0  0  0  0  0  0  0  0  0  0  0  0
  151.4203  140.6324  157.0098 C   0  0  0  0  0  0  0  0  0  0  0  0
  151.1730  142.0896  157.4513 C   0  0  1  0  0  0  0  0  0  0  0  0
  149.8031  142.4621  157.1049 N   0  0  0  0  0  0  0  0  0  0  0  0
  148.7058  141.7414  157.3740 C   0  0  0  0  0  0  0  0  0  0  0  0
  148.7104  140.6703  157.9807 O   0  0  0  0  0  0  0  0  0  0  0  0
  147.5998  142.3252  156.8920 N   0  0  0  0  0  0  0  0  0  0  0  0
  146.2531  141.7760  156.9998 C   0  0  0  0  0  0  0  0  0  0  0  0
  145.2720  142.7975  157.5971 C   0  0  0  0  0  0  0  0  0  0  0  0
  144.7022  142.3442  158.8992 C   0  0  0  0  0  0  0  0  0  0  0  0
  143.7886  142.9692  159.6385 N   0  0  0  0  0  0  0  0  0  0  0  0
  143.7090  142.1365  160.7126 C   0  0  0  0  0  0  0  0  0  0  0  0
  142.7971  142.3883  161.8647 C   0  0  0  0  0  0  0  0  0  0  0  0
  144.5087  141.0773  160.6869 N   0  0  0  0  0  0  0  0  0  0  0  0
  145.1909  141.2169  159.4697 O   0  0  0  0  0  0  0  0  0  0  0  0
  152.3307  145.9091  158.4491 H   0  0  0  0  0  0  0  0  0  0  0  0
  152.0012  144.6387  157.2651 H   0  0  0  0  0  0  0  0  0  0  0  0
  153.3670  144.4815  158.3810 H   0  0  0  0  0  0  0  0  0  0  0  0
  150.6743  141.6895  159.5221 H   0  0  0  0  0  0  0  0  0  0  0  0
  153.5794  142.3735  158.9244 H   0  0  0  0  0  0  0  0  0  0  0  0
  152.9363  141.8270  160.4534 H   0  0  0  0  0  0  0  0  0  0  0  0
  154.0241  139.9635  159.2109 H   0  0  0  0  0  0  0  0  0  0  0  0
  152.3267  139.6407  159.4748 H   0  0  0  0  0  0  0  0  0  0  0  0
  153.5772  140.6977  156.8902 H   0  0  0  0  0  0  0  0  0  0  0  0
  152.9355  139.0911  157.1382 H   0  0  0  0  0  0  0  0  0  0  0  0
  151.3118  140.5478  155.9277 H   0  0  0  0  0  0  0  0  0  0  0  0
  150.6625  139.9801  157.4469 H   0  0  0  0  0  0  0  0  0  0  0  0
  151.8809  142.7309  156.9226 H   0  0  0  0  0  0  0  0  0  0  0  0
  149.6861  143.3294  156.6019 H   0  0  0  0  0  0  0  0  0  0  0  0
  147.6966  143.2061  156.4088 H   0  0  0  0  0  0  0  0  0  0  0  0
  145.9066  141.4400  156.0209 H   0  0  0  0  0  0  0  0  0  0  0  0
  146.2973  140.8902  157.6343 H   0  0  0  0  0  0  0  0  0  0  0  0
  145.7728  143.7544  157.7499 H   0  0  0  0  0  0  0  0  0  0  0  0
  144.4479  142.9829  156.9074 H   0  0  0  0  0  0  0  0  0  0  0  0
  142.5173  141.4516  162.3480 H   0  0  0  0  0  0  0  0  0  0  0  0
  141.8868  142.8860  161.5295 H   0  0  0  0  0  0  0  0  0  0  0  0
  143.2898  143.0245  162.6002 H   0  0  0  0  0  0  0  0  0  0  0  0
  1  2  1  0  0  0  0
  1 21  1  0  0  0  0
  1 22  1  0  0  0  0
  1 23  1  0  0  0  0
  2  3  1  0  0  0  0
  3  8  1  0  0  0  0
  3  4  1  0  0  0  0
  3 24  1  0  0  0  0
  4  5  1  0  0  0  0
  4 25  1  0  0  0  0
  4 26  1  0  0  0  0
  5  6  1  0  0  0  0
  5 27  1  0  0  0  0
  5 28  1  0  0  0  0
  6  7  1  0  0  0  0
  6 29  1  0  0  0  0
  6 30  1  0  0  0  0
  7  8  1  0  0  0  0
  7 31  1  0  0  0  0
  7 32  1  0  0  0  0
  8  9  1  0  0  0  0
  8 33  1  0  0  0  0
  9 10  1  0  0  0  0
  9 34  1  0  0  0  0
 10 11  2  0  0  0  0
 10 12  1  0  0  0  0
 12 13  1  0  0  0  0
 12 35  1  0  0  0  0
 13 14  1  0  0  0  0
 13 36  1  0  0  0  0
 13 37  1  0  0  0  0
 14 15  1  0  0  0  0
 14 38  1  0  0  0  0
 14 39  1  0  0  0  0
 15 20  1  0  0  0  0
 15 16  2  0  0  0  0
 16 17  1  0  0  0  0
 17 18  1  0  0  0  0
 17 19  2  0  0  0  0
 18 40  1  0  0  0  0
 18 41  1  0  0  0  0
 18 42  1  0  0  0  0
 19 20  1  0  0  0  0
M  END
> <s_m_source_file>
AV-unprocessed.smi

> <i_m_source_file_index>
2878

> <i_lp_mmshare_version>
43012

> <i_f3d_flags>
0

> <s_epik_input>
W0NIM11TW0NAQEhdMVtDSDJdW0NIMl1bQ0gyXVtDSDJdW0NASF0xW05IXUMoPU8pW05IXVtDSDJdW0NIMl1jMm5jKFtDSDNdKW5vMg==

> <s_epik_cmdline>
J2VwaWtfcHl0aG9uJywgJy1waCcsICc3LjAnLCAnLXRuJywgJzgnLCAnLW1hJywgJzIwMCcsICctbWV0YWxfYmluZGluZycsICctaW1hZScsICc8aW5maWxlLm1hZT4nLCAnLW9tYWUnLCAnPG91dGZpbGUubWFlPic=

> <r_lp_tautomer_probability>
1

> <r_epik_Ionization_Penalty>
4.9299e-05

> <r_epik_Ionization_Penalty_Charging>
0

> <r_epik_Ionization_Penalty_Neutral>
4.9299e-05

> <r_epik_State_Penalty>
-0

> <r_epik_Charging_Adjusted_Penalty>
0

> <i_epik_Tot_Q>
0

> <i_epik_Tot_abs_Q>
0

> <r_epik_Metal_State_Penalty>
-0

> <b_epik_Metal_Only>
0

> <s_lp_Force_Field>
OPLS_2005

> <r_lp_Energy>
1.6378

> <b_lp_Chiralities_Consistent>
1

> <s_lp_Variant>
AV-unprocessed.smi:2878-1

> <Gold.Version>
5.8.1

> <Gold.Id.Protein>
6NUR|6NUR_protein|mol2

> <Gold.PLP.Fitness>
39.8096

> <Gold.PLP.PLP>
-34.5802

> <Gold.PLP.part.hbond>
-5.5544

> <Gold.PLP.part.metal>
0.0000

> <Gold.PLP.part.buried>
-2.0651

> <Gold.PLP.part.nonpolar>
-27.2860

> <Gold.PLP.part.repulsive>
0.1404

> <Gold.PLP.ligand.clash>
0.0000

> <Gold.PLP.ligand.torsion>
0.6304

> <Gold.PLP.Chemscore.Hbond>
2.1500

> <Gold.PLP.Chemscore.CHOScore>
0.0000

> <Gold.PLP.Chemscore.Metal>
0.0000

> <Gold.Chemscore.Hbonds>
donor molecule, donor type, donor heavy atom, donor atom, acceptor molecule, acceptor atom, score
      L1  H     9    34       P1  8028  1.00
      L1  H    12    35       P1  8028  0.64
      P1  H  6934  6946       L1    20  0.06

> <Gold.PLP.Chemscore.Internal.Correction>
0.0402

> <Gold.Rescore>
     Score         DG    S(hbond)    S(metal)    S(lipo)     H(rot)  DE(clash)    DE(int)     intcor
     11.50     -13.39       1.26        0.00      77.33       2.09       0.09       1.79       ----

> <Gold.Chemscore.Fitness>
11.5016

> <Gold.Chemscore.DG>
-13.3859

> <Gold.Chemscore.ZeroCoef>
-5.4800

> <Gold.Chemscore.Hbond>
1.2617

> <Gold.Chemscore.Metal>
0.0000

> <Gold.Chemscore.Lipo>
77.3340

> <Gold.Chemscore.Internal_Hbond>
0.0000

> <Gold.Chemscore.DEClash>
0.0900

> <Gold.Chemscore.DEInternal>
1.7943

> <Gold.Chemscore.Rot>
2.0923

> <Gold.Chemscore.Internal.Correction>
   9.000000E+99

> <Gold.Chemscore.Hbonds>
donor molecule, donor type, donor heavy atom, donor atom, acceptor molecule, acceptor atom, score
      L1  H     9    34       P1  8028  1.00
      L1  H    12    35       P1  8028  0.05

> <Gold.Chemscore.Hbond.Weighted>
-4.2141

> <Gold.Chemscore.Metal.Weighted>
-0.0000

> <Gold.Chemscore.Lipo.Weighted>
-9.0481

> <Gold.Chemscore.Internal_Hbond.Weighted>
0.0000

> <Gold.Chemscore.DEClash.Weighted>
0.0900

> <Gold.Chemscore.DEInternal.Weighted>
1.7943

> <Gold.Chemscore.Rot.Weighted>
5.3562

> <Gold.Chemscore.Internal.Correction.Weighted>
   9.000000E+99

> <Gold.Protein.RotatedTorsions>
[ 6907 6896 6895 6894 ] final   -4.88 input  -60.11 | X-H torsion
[ 7974 7965 7964 7962 ] final    8.44 input  175.53 | X-H torsion
[ 8008 7997 7996 7995 ] final   42.44 input   59.86 | X-H torsion
[ 10167 10162 10161 10158 ] final  -51.56 input  -65.29 | X-H torsion
[ 10718 10713 10712 10709 ] final  -77.76 input   66.30 | X-H torsion
[ 10763 10752 10751 10750 ] final   42.04 input  -60.55 | X-H torsion
[ 11005 11000 10999 10996 ] final  148.37 input  -57.11 | X-H torsion

> <Gold.Protein.ActiveResidues>
 VAL166  LYS551  ARG553  GLY616  TRP617  ASP618  TYR619  PRO620  LYS621  CYS622 
 ASP623  PHE694  ASN695  SER759  ASP760  ASP761  ALA762  ILE779  LEU786  VAL792 
 PHE793  MET794  SER795  GLU796  ALA797  LYS798  CYS799  TRP800  GLU811  SER814 

> <Gold.Protein.RotatedAtoms>
  151.4906  135.1057  159.9802 H   0  0  0  0  0  0  0  0  0  0  0  0  # atno 6907 bound_to 6896
  152.4742  133.8097  159.7007 H   0  0  0  0  0  0  0  0  0  0  0  0  # atno 6908 bound_to 6896
  150.8770  133.7362  159.2969 H   0  0  0  0  0  0  0  0  0  0  0  0  # atno 6909 bound_to 6896
  146.2416  139.9932  142.8423 H   0  0  0  0  0  0  0  0  0  0  0  0  # atno 7974 bound_to 7965
  155.2862  140.3376  155.4255 H   0  0  0  0  0  0  0  0  0  0  0  0  # atno 8008 bound_to 7997
  156.2067  140.1754  156.7824 H   0  0  0  0  0  0  0  0  0  0  0  0  # atno 8009 bound_to 7997
  154.5630  140.0684  156.8833 H   0  0  0  0  0  0  0  0  0  0  0  0  # atno 8010 bound_to 7997
  140.6582  143.2615  151.4521 H   0  0  0  0  0  0  0  0  0  0  0  0  # atno 10167 bound_to 10162
  156.0136  130.4500  150.3393 H   0  0  0  0  0  0  0  0  0  0  0  0  # atno 10718 bound_to 10713
  152.9893  135.6144  154.2884 H   0  0  0  0  0  0  0  0  0  0  0  0  # atno 10763 bound_to 10752
  154.2611  135.2782  155.2779 H   0  0  0  0  0  0  0  0  0  0  0  0  # atno 10764 bound_to 10752
  154.5205  135.5816  153.6734 H   0  0  0  0  0  0  0  0  0  0  0  0  # atno 10765 bound_to 10752
  140.0954  134.9016  157.1714 H   0  0  0  0  0  0  0  0  0  0  0  0  # atno 11005 bound_to 11000
  145.1484  140.9609  143.4447 LP  0  0  0  0  0  0  0  0  0  0  0  0  # atno 17320 bound_to 7965
  145.0229  139.3408  143.6063 LP  0  0  0  0  0  0  0  0  0  0  0  0  # atno 17321 bound_to 7965
  139.5809  144.1711  152.1967 LP  0  0  0  0  0  0  0  0  0  0  0  0  # atno 17342 bound_to 10162
  140.1036  144.5518  150.6972 LP  0  0  0  0  0  0  0  0  0  0  0  0  # atno 17343 bound_to 10162
  157.1489  131.0316  151.2894 LP  0  0  0  0  0  0  0  0  0  0  0  0  # atno 17370 bound_to 10713
  157.4409  130.7543  149.7068 LP  0  0  0  0  0  0  0  0  0  0  0  0  # atno 17371 bound_to 10713
  140.3294  134.2827  155.7231 LP  0  0  0  0  0  0  0  0  0  0  0  0  # atno 17394 bound_to 11000
  141.2090  133.7761  157.0022 LP  0  0  0  0  0  0  0  0  0  0  0  0  # atno 17395 bound_to 11000

$$$$
