AV-unprocessed.smi:2405|AV-procd|sdf|9512|dock2
  -GOLD-   2272013143D 1   1.00000     0.00000
 Structure written by MMmdl.
 36 37  0  0  0  0  0  0  0  0  2 V2000
  152.1142  145.3496  158.9400 C   0  0  0  0  0  0  0  0  0  0  0  0
  151.5471  143.9263  158.9704 C   0  0  0  0  0  0  0  0  0  0  0  0
  152.2615  143.0493  159.9427 C   0  0  0  0  0  0  0  0  0  0  0  0
  152.9255  141.9465  159.5883 N   0  0  0  0  0  0  0  0  0  0  0  0
  153.5606  141.3266  160.6701 C   0  0  0  0  0  0  0  0  0  0  0  0
  154.3731  140.0807  160.4548 C   0  0  0  0  0  0  0  0  0  0  0  0
  153.6061  139.0736  159.5929 C   0  0  0  0  0  0  0  0  0  0  0  0
  153.3749  137.9450  160.0262 O   0  0  0  0  0  0  0  0  0  0  0  0
  153.2189  139.4923  158.3775 N   0  0  0  0  0  0  0  0  0  0  0  0
  152.4253  138.7145  157.4318 C   0  0  2  0  0  0  0  0  0  0  0  0
  153.3399  137.8338  156.5600 C   0  0  0  0  0  0  0  0  0  0  0  0
  153.2803  138.4292  155.1498 C   0  0  0  0  0  0  0  0  0  0  0  0
  151.8852  139.0571  155.0434 C   0  0  1  0  0  0  0  0  0  0  0  0
  150.8441  137.9961  154.6322 C   0  0  0  0  0  0  0  0  0  0  0  0
  149.6430  138.3333  154.5326 O   0  0  0  0  0  0  0  0  0  0  0  0
  151.2798  136.8410  154.4313 O   0  5  0  0  0  0  0  0  0  0  0  0
  151.6553  139.6297  156.4548 C   0  0  0  0  0  0  0  0  0  0  0  0
  153.3562  141.9795  161.8610 C   0  0  0  0  0  0  0  0  0  0  0  0
  152.3791  143.4076  161.6615 S   0  0  0  0  0  0  0  0  0  0  0  0
  151.5749  145.9683  158.2226 H   0  0  0  0  0  0  0  0  0  0  0  0
  153.1665  145.3475  158.6534 H   0  0  0  0  0  0  0  0  0  0  0  0
  152.0349  145.8256  159.9179 H   0  0  0  0  0  0  0  0  0  0  0  0
  150.4898  143.9525  159.2350 H   0  0  0  0  0  0  0  0  0  0  0  0
  151.6105  143.4786  157.9780 H   0  0  0  0  0  0  0  0  0  0  0  0
  155.3183  140.3143  159.9636 H   0  0  0  0  0  0  0  0  0  0  0  0
  154.6273  139.6210  161.4108 H   0  0  0  0  0  0  0  0  0  0  0  0
  153.4546  140.4350  158.1039 H   0  0  0  0  0  0  0  0  0  0  0  0
  151.7301  138.0716  157.9751 H   0  0  0  0  0  0  0  0  0  0  0  0
  154.3635  137.7691  156.9315 H   0  0  0  0  0  0  0  0  0  0  0  0
  152.9448  136.8172  156.5385 H   0  0  0  0  0  0  0  0  0  0  0  0
  154.0355  139.2096  155.0479 H   0  0  0  0  0  0  0  0  0  0  0  0
  153.4833  137.6828  154.3802 H   0  0  0  0  0  0  0  0  0  0  0  0
  151.8685  139.8511  154.2956 H   0  0  0  0  0  0  0  0  0  0  0  0
  150.6025  139.7228  156.7248 H   0  0  0  0  0  0  0  0  0  0  0  0
  152.0624  140.6422  156.4820 H   0  0  0  0  0  0  0  0  0  0  0  0
  153.7318  141.7150  162.8382 H   0  0  0  0  0  0  0  0  0  0  0  0
  1  2  1  0  0  0  0
  1 20  1  0  0  0  0
  1 21  1  0  0  0  0
  1 22  1  0  0  0  0
  2  3  1  0  0  0  0
  2 23  1  0  0  0  0
  2 24  1  0  0  0  0
  3 19  1  0  0  0  0
  3  4  2  0  0  0  0
  4  5  1  0  0  0  0
  5  6  1  0  0  0  0
  5 18  2  0  0  0  0
  6  7  1  0  0  0  0
  6 25  1  0  0  0  0
  6 26  1  0  0  0  0
  7  8  2  0  0  0  0
  7  9  1  0  0  0  0
  9 10  1  0  0  0  0
  9 27  1  0  0  0  0
 10 17  1  0  0  0  0
 10 11  1  0  0  0  0
 10 28  1  0  0  0  0
 11 12  1  0  0  0  0
 11 29  1  0  0  0  0
 11 30  1  0  0  0  0
 12 13  1  0  0  0  0
 12 31  1  0  0  0  0
 12 32  1  0  0  0  0
 13 14  1  0  0  0  0
 13 17  1  0  0  0  0
 13 33  1  0  0  0  0
 14 15  2  0  0  0  0
 14 16  1  0  0  0  0
 17 34  1  0  0  0  0
 17 35  1  0  0  0  0
 18 19  1  0  0  0  0
 18 36  1  0  0  0  0
M  CHG  1  16  -1
M  END
> <s_m_source_file>
AV-unprocessed.smi

> <i_m_source_file_index>
2405

> <i_lp_mmshare_version>
43012

> <i_f3d_flags>
0

> <s_epik_input>
W0NIM11bQ0gyXWMxbmMoW2NIXXMxKVtDSDJdQyg9TylbTkhdW0NAQEhdMltDSDJdW0NIMl1bQ0BIXShbQ0gyXTIpQyg9TylbT0hd

> <s_epik_cmdline>
J2VwaWtfcHl0aG9uJywgJy1waCcsICc3LjAnLCAnLXRuJywgJzgnLCAnLW1hJywgJzIwMCcsICctbWV0YWxfYmluZGluZycsICctaW1hZScsICc8aW5maWxlLm1hZT4nLCAnLW9tYWUnLCAnPG91dGZpbGUubWFlPic=

> <r_epik_Ionization_Penalty>
0.000544611

> <r_epik_Ionization_Penalty_Charging>
0.000481685

> <r_epik_Ionization_Penalty_Neutral>
6.29266e-05

> <r_epik_State_Penalty>
0.00029893

> <r_epik_Charging_Adjusted_Penalty>
0.000780614

> <i_epik_Tot_Q>
-1

> <i_epik_Tot_abs_Q>
1

> <r_epik_Metal_State_Penalty>
-0

> <b_epik_Metal_Only>
0

> <s_lp_Force_Field>
OPLS_2005

> <r_lp_Energy>
8.39141

> <b_lp_Chiralities_Consistent>
1

> <s_lp_Variant>
AV-unprocessed.smi:2405-1

> <Gold.Version>
5.8.1

> <Gold.Id.Protein>
6NUR|6NUR_protein|mol2

> <Gold.PLP.Fitness>
46.4145

> <Gold.PLP.PLP>
-41.4171

> <Gold.PLP.part.hbond>
-1.0000

> <Gold.PLP.part.metal>
0.0000

> <Gold.PLP.part.buried>
-5.2321

> <Gold.PLP.part.nonpolar>
-37.0556

> <Gold.PLP.part.repulsive>
1.8915

> <Gold.PLP.ligand.clash>
0.0000

> <Gold.PLP.ligand.torsion>
0.5268

> <Gold.PLP.Chemscore.Hbond>
2.0000

> <Gold.PLP.Chemscore.CHOScore>
0.0000

> <Gold.PLP.Chemscore.Metal>
0.0000

> <Gold.Chemscore.Hbonds>
donor molecule, donor type, donor heavy atom, donor atom, acceptor molecule, acceptor atom, score
      P1  H 10752 10764       L1    16  1.92

> <Gold.PLP.Chemscore.Internal.Correction>
0.0509

> <Gold.Rescore>
     Score         DG    S(hbond)    S(metal)    S(lipo)     H(rot)  DE(clash)    DE(int)     intcor
     15.91     -16.63       1.00        0.00     111.97       2.06       0.24       0.48       ----

> <Gold.Chemscore.Fitness>
15.9143

> <Gold.Chemscore.DG>
-16.6340

> <Gold.Chemscore.ZeroCoef>
-5.4800

> <Gold.Chemscore.Hbond>
0.9988

> <Gold.Chemscore.Metal>
0.0000

> <Gold.Chemscore.Lipo>
111.9693

> <Gold.Chemscore.Internal_Hbond>
0.0000

> <Gold.Chemscore.DEClash>
0.2364

> <Gold.Chemscore.DEInternal>
0.4833

> <Gold.Chemscore.Rot>
2.0635

> <Gold.Chemscore.Internal.Correction>
   9.000000E+99

> <Gold.Chemscore.Hbonds>
donor molecule, donor type, donor heavy atom, donor atom, acceptor molecule, acceptor atom, score
      P1  H 10752 10764       L1    16  0.91

> <Gold.Chemscore.Hbond.Weighted>
-3.3360

> <Gold.Chemscore.Metal.Weighted>
-0.0000

> <Gold.Chemscore.Lipo.Weighted>
-13.1004

> <Gold.Chemscore.Internal_Hbond.Weighted>
0.0000

> <Gold.Chemscore.DEClash.Weighted>
0.2364

> <Gold.Chemscore.DEInternal.Weighted>
0.4833

> <Gold.Chemscore.Rot.Weighted>
5.2825

> <Gold.Chemscore.Internal.Correction.Weighted>
   9.000000E+99

> <Gold.Protein.RotatedTorsions>
[ 6907 6896 6895 6894 ] final  124.59 input  -60.11 | X-H torsion
[ 7974 7965 7964 7962 ] final  111.28 input  175.53 | X-H torsion
[ 8008 7997 7996 7995 ] final -130.61 input   59.86 | X-H torsion
[ 10167 10162 10161 10158 ] final   96.28 input  -65.29 | X-H torsion
[ 10718 10713 10712 10709 ] final  139.61 input   66.30 | X-H torsion
[ 10763 10752 10751 10750 ] final  -80.62 input  -60.55 | X-H torsion
[ 11005 11000 10999 10996 ] final  142.69 input  -57.11 | X-H torsion

> <Gold.Protein.ActiveResidues>
 VAL166  LYS551  ARG553  GLY616  TRP617  ASP618  TYR619  PRO620  LYS621  CYS622 
 ASP623  PHE694  ASN695  SER759  ASP760  ASP761  ALA762  ILE779  LEU786  VAL792 
 PHE793  MET794  SER795  GLU796  ALA797  LYS798  CYS799  TRP800  GLU811  SER814 

> <Gold.Protein.RotatedAtoms>
  152.4065  133.6896  159.6360 H   0  0  0  0  0  0  0  0  0  0  0  0  # atno 6907 bound_to 6896
  150.7949  133.8700  159.3265 H   0  0  0  0  0  0  0  0  0  0  0  0  # atno 6908 bound_to 6896
  151.6454  135.1009  160.0201 H   0  0  0  0  0  0  0  0  0  0  0  0  # atno 6909 bound_to 6896
  145.2442  139.2766  143.4101 H   0  0  0  0  0  0  0  0  0  0  0  0  # atno 7974 bound_to 7965
  155.2986  140.0451  157.3028 H   0  0  0  0  0  0  0  0  0  0  0  0  # atno 8008 bound_to 7997
  154.5500  140.2314  155.8468 H   0  0  0  0  0  0  0  0  0  0  0  0  # atno 8009 bound_to 7997
  156.1958  140.3039  155.9431 H   0  0  0  0  0  0  0  0  0  0  0  0  # atno 8010 bound_to 7997
  139.7909  144.6852  150.9894 H   0  0  0  0  0  0  0  0  0  0  0  0  # atno 10167 bound_to 10162
  157.4125  131.1029  151.0439 H   0  0  0  0  0  0  0  0  0  0  0  0  # atno 10718 bound_to 10713
  154.5534  135.5655  153.6942 H   0  0  0  0  0  0  0  0  0  0  0  0  # atno 10763 bound_to 10752
  152.9996  135.6256  154.2343 H   0  0  0  0  0  0  0  0  0  0  0  0  # atno 10764 bound_to 10752
  154.2278  135.2867  155.2881 H   0  0  0  0  0  0  0  0  0  0  0  0  # atno 10765 bound_to 10752
  140.0496  134.9263  157.0992 H   0  0  0  0  0  0  0  0  0  0  0  0  # atno 11005 bound_to 11000
  146.3320  140.2814  142.8610 LP  0  0  0  0  0  0  0  0  0  0  0  0  # atno 17320 bound_to 7965
  144.9561  140.8228  143.5542 LP  0  0  0  0  0  0  0  0  0  0  0  0  # atno 17321 bound_to 7965
  140.7820  143.4382  151.0592 LP  0  0  0  0  0  0  0  0  0  0  0  0  # atno 17342 bound_to 10162
  139.8058  143.8019  152.3167 LP  0  0  0  0  0  0  0  0  0  0  0  0  # atno 17343 bound_to 10162
  157.1398  130.6138  149.5552 LP  0  0  0  0  0  0  0  0  0  0  0  0  # atno 17370 bound_to 10713
  155.9855  130.4885  150.7034 LP  0  0  0  0  0  0  0  0  0  0  0  0  # atno 17371 bound_to 10713
  140.3939  134.2155  155.7165 LP  0  0  0  0  0  0  0  0  0  0  0  0  # atno 17394 bound_to 11000
  141.1924  133.8174  157.0842 LP  0  0  0  0  0  0  0  0  0  0  0  0  # atno 17395 bound_to 11000

$$$$
