AV-unprocessed.smi:1750|AV-procd|sdf|7054|dock3
  -GOLD-   22720 8273D 1   1.00000     0.00000
 Structure written by MMmdl.
 35 36  0  0  0  0  0  0  0  0  2 V2000
  144.1531  145.3802  153.6748 C   0  0  0  0  0  0  0  0  0  0  0  0
  143.8168  144.9106  155.0941 C   0  0  0  0  0  0  0  0  0  0  0  0
  143.8690  143.3833  155.2384 C   0  0  0  0  0  0  0  0  0  0  0  0
  145.2581  142.8468  155.1397 C   0  0  0  0  0  0  0  0  0  0  0  0
  145.8786  142.2474  156.1593 N   0  0  0  0  0  0  0  0  0  0  0  0
  147.1705  141.8624  155.8315 N   0  0  0  0  0  0  0  0  0  0  0  0
  147.5191  142.2010  154.5819 C   0  0  0  0  0  0  0  0  0  0  0  0
  148.7300  141.9248  154.0698 N   0  5  0  0  0  0  0  0  0  0  0  0
  149.6960  141.4077  154.8629 C   0  0  0  0  0  0  0  0  0  0  0  0
  150.3251  140.3658  154.6644 O   0  0  0  0  0  0  0  0  0  0  0  0
  149.9497  142.1413  155.9542 N   0  0  0  0  0  0  0  0  0  0  0  0
  150.9436  141.8201  156.9708 C   0  0  0  0  0  0  0  0  0  0  0  0
  151.0398  142.9405  158.0162 C   0  0  2  0  0  0  0  0  0  0  0  0
  151.6180  144.2551  157.4966 C   0  0  0  0  0  0  0  0  0  0  0  0
  152.1258  144.9288  158.7604 C   0  0  0  0  0  0  0  0  0  0  0  0
  152.2711  143.7787  159.7631 C   0  0  0  0  0  0  0  0  0  0  0  0
  151.9579  142.5943  159.0404 O   0  0  0  0  0  0  0  0  0  0  0  0
  146.2343  143.0150  153.6901 S   0  0  0  0  0  0  0  0  0  0  0  0
  144.1024  146.4667  153.6035 H   0  0  0  0  0  0  0  0  0  0  0  0
  143.4549  144.9656  152.9473 H   0  0  0  0  0  0  0  0  0  0  0  0
  145.1593  145.0743  153.3873 H   0  0  0  0  0  0  0  0  0  0  0  0
  144.5140  145.3678  155.7972 H   0  0  0  0  0  0  0  0  0  0  0  0
  142.8237  145.2699  155.3668 H   0  0  0  0  0  0  0  0  0  0  0  0
  143.4437  143.0823  156.1966 H   0  0  0  0  0  0  0  0  0  0  0  0
  143.2605  142.9123  154.4657 H   0  0  0  0  0  0  0  0  0  0  0  0
  149.4162  142.9881  156.0829 H   0  0  0  0  0  0  0  0  0  0  0  0
  150.6758  140.8831  157.4617 H   0  0  0  0  0  0  0  0  0  0  0  0
  151.9113  141.6650  156.4912 H   0  0  0  0  0  0  0  0  0  0  0  0
  150.0625  143.1169  158.4697 H   0  0  0  0  0  0  0  0  0  0  0  0
  152.4541  144.0581  156.8242 H   0  0  0  0  0  0  0  0  0  0  0  0
  150.8860  144.8574  156.9578 H   0  0  0  0  0  0  0  0  0  0  0  0
  153.0703  145.4451  158.5853 H   0  0  0  0  0  0  0  0  0  0  0  0
  151.4057  145.6607  159.1280 H   0  0  0  0  0  0  0  0  0  0  0  0
  153.2750  143.7177  160.1840 H   0  0  0  0  0  0  0  0  0  0  0  0
  151.5652  143.8970  160.5860 H   0  0  0  0  0  0  0  0  0  0  0  0
  1  2  1  0  0  0  0
  1 19  1  0  0  0  0
  1 20  1  0  0  0  0
  1 21  1  0  0  0  0
  2  3  1  0  0  0  0
  2 22  1  0  0  0  0
  2 23  1  0  0  0  0
  3  4  1  0  0  0  0
  3 24  1  0  0  0  0
  3 25  1  0  0  0  0
  4 18  1  0  0  0  0
  4  5  2  0  0  0  0
  5  6  1  0  0  0  0
  6  7  2  0  0  0  0
  7  8  1  0  0  0  0
  7 18  1  0  0  0  0
  8  9  1  0  0  0  0
  9 10  2  0  0  0  0
  9 11  1  0  0  0  0
 11 12  1  0  0  0  0
 11 26  1  0  0  0  0
 12 13  1  0  0  0  0
 12 27  1  0  0  0  0
 12 28  1  0  0  0  0
 13 17  1  0  0  0  0
 13 14  1  0  0  0  0
 13 29  1  0  0  0  0
 14 15  1  0  0  0  0
 14 30  1  0  0  0  0
 14 31  1  0  0  0  0
 15 16  1  0  0  0  0
 15 32  1  0  0  0  0
 15 33  1  0  0  0  0
 16 17  1  0  0  0  0
 16 34  1  0  0  0  0
 16 35  1  0  0  0  0
M  CHG  1   8  -1
M  END
> <s_m_source_file>
AV-unprocessed.smi

> <i_m_source_file_index>
1750

> <i_lp_mmshare_version>
43012

> <i_f3d_flags>
0

> <s_epik_input>
W0NIM11bQ0gyXVtDSDJdYzFubmMoczEpW05IXUMoPU8pW05IXVtDSDJdW0NAQEhdMltDSDJdW0NIMl1bQ0gyXU8y

> <s_epik_cmdline>
J2VwaWtfcHl0aG9uJywgJy1waCcsICc3LjAnLCAnLXRuJywgJzgnLCAnLW1hJywgJzIwMCcsICctbWV0YWxfYmluZGluZycsICctaW1hZScsICc8aW5maWxlLm1hZT4nLCAnLW9tYWUnLCAnPG91dGZpbGUubWFlPic=

> <r_lp_tautomer_probability>
1

> <r_epik_Ionization_Penalty>
4.22484

> <r_epik_Ionization_Penalty_Charging>
4.21437

> <r_epik_Ionization_Penalty_Neutral>
0.0104685

> <r_epik_State_Penalty>
4.21389

> <r_epik_Charging_Adjusted_Penalty>
8.42826

> <i_epik_Tot_Q>
-1

> <i_epik_Tot_abs_Q>
1

> <r_epik_Metal_State_Penalty>
0.69377

> <b_epik_Metal_Only>
1

> <s_lp_Force_Field>
OPLS_2005

> <r_lp_Energy>
11.1337

> <b_lp_Chiralities_Consistent>
1

> <s_lp_Variant>
AV-unprocessed.smi:1750-3

> <Gold.Version>
5.8.1

> <Gold.Id.Protein>
6NUR|6NUR_protein|mol2

> <Gold.PLP.Fitness>
46.0130

> <Gold.PLP.PLP>
-40.0168

> <Gold.PLP.part.hbond>
-3.0000

> <Gold.PLP.part.metal>
0.0000

> <Gold.PLP.part.buried>
-5.0168

> <Gold.PLP.part.nonpolar>
-32.4984

> <Gold.PLP.part.repulsive>
0.6356

> <Gold.PLP.ligand.clash>
0.0000

> <Gold.PLP.ligand.torsion>
0.5801

> <Gold.PLP.Chemscore.Hbond>
2.3544

> <Gold.PLP.Chemscore.CHOScore>
0.0000

> <Gold.PLP.Chemscore.Metal>
0.0000

> <Gold.Chemscore.Hbonds>
donor molecule, donor type, donor heavy atom, donor atom, acceptor molecule, acceptor atom, score
      L1  H    11    26       P1  8028  1.00
      P1  H  7989  7998       L1    10  1.00
      P1  H  8011  8017       L1     8  0.39

> <Gold.PLP.Chemscore.Internal.Correction>
0.0933

> <Gold.Rescore>
     Score         DG    S(hbond)    S(metal)    S(lipo)     H(rot)  DE(clash)    DE(int)     intcor
     15.77     -16.82       1.64        0.00      84.84       1.59       0.41       0.64       ----

> <Gold.Chemscore.Fitness>
15.7685

> <Gold.Chemscore.DG>
-16.8206

> <Gold.Chemscore.ZeroCoef>
-5.4800

> <Gold.Chemscore.Hbond>
1.6440

> <Gold.Chemscore.Metal>
0.0000

> <Gold.Chemscore.Lipo>
84.8363

> <Gold.Chemscore.Internal_Hbond>
0.0000

> <Gold.Chemscore.DEClash>
0.4111

> <Gold.Chemscore.DEInternal>
0.6410

> <Gold.Chemscore.Rot>
1.5922

> <Gold.Chemscore.Internal.Correction>
   9.000000E+99

> <Gold.Chemscore.Hbonds>
donor molecule, donor type, donor heavy atom, donor atom, acceptor molecule, acceptor atom, score
      L1  H    11    26       P1  8028  0.98
      P1  H  7989  7998       L1    10  0.38
      P1  H  8011  8017       L1     8  0.15

> <Gold.Chemscore.Hbond.Weighted>
-5.4909

> <Gold.Chemscore.Metal.Weighted>
-0.0000

> <Gold.Chemscore.Lipo.Weighted>
-9.9258

> <Gold.Chemscore.Internal_Hbond.Weighted>
0.0000

> <Gold.Chemscore.DEClash.Weighted>
0.4111

> <Gold.Chemscore.DEInternal.Weighted>
0.6410

> <Gold.Chemscore.Rot.Weighted>
4.0761

> <Gold.Chemscore.Internal.Correction.Weighted>
   9.000000E+99

> <Gold.Protein.RotatedTorsions>
[ 6907 6896 6895 6894 ] final  -95.10 input  -60.11 | X-H torsion
[ 7974 7965 7964 7962 ] final  -24.64 input  175.53 | X-H torsion
[ 8008 7997 7996 7995 ] final -177.07 input   59.86 | X-H torsion
[ 10167 10162 10161 10158 ] final -131.43 input  -65.29 | X-H torsion
[ 10718 10713 10712 10709 ] final   72.00 input   66.30 | X-H torsion
[ 10763 10752 10751 10750 ] final   50.62 input  -60.55 | X-H torsion
[ 11005 11000 10999 10996 ] final  149.47 input  -57.11 | X-H torsion

> <Gold.Protein.ActiveResidues>
 VAL166  LYS551  ARG553  GLY616  TRP617  ASP618  TYR619  PRO620  LYS621  CYS622 
 ASP623  PHE694  ASN695  SER759  ASP760  ASP761  ALA762  ILE779  LEU786  VAL792 
 PHE793  MET794  SER795  GLU796  ALA797  LYS798  CYS799  TRP800  GLU811  SER814 

> <Gold.Protein.RotatedAtoms>
  150.6956  134.1709  159.4211 H   0  0  0  0  0  0  0  0  0  0  0  0  # atno 6907 bound_to 6896
  151.9687  135.0085  160.0561 H   0  0  0  0  0  0  0  0  0  0  0  0  # atno 6908 bound_to 6896
  152.1861  133.4706  159.5020 H   0  0  0  0  0  0  0  0  0  0  0  0  # atno 6909 bound_to 6896
  146.1542  140.4779  142.8598 H   0  0  0  0  0  0  0  0  0  0  0  0  # atno 7974 bound_to 7965
  156.0025  140.1223  157.0533 H   0  0  0  0  0  0  0  0  0  0  0  0  # atno 8008 bound_to 7997
  154.4247  140.1104  156.5786 H   0  0  0  0  0  0  0  0  0  0  0  0  # atno 8009 bound_to 7997
  155.6192  140.3472  155.4649 H   0  0  0  0  0  0  0  0  0  0  0  0  # atno 8010 bound_to 7997
  139.9190  143.6404  152.2558 H   0  0  0  0  0  0  0  0  0  0  0  0  # atno 10167 bound_to 10162
  157.6479  130.9556  150.0867 H   0  0  0  0  0  0  0  0  0  0  0  0  # atno 10718 bound_to 10713
  152.9784  135.5873  154.4282 H   0  0  0  0  0  0  0  0  0  0  0  0  # atno 10763 bound_to 10752
  154.3899  135.2767  155.2163 H   0  0  0  0  0  0  0  0  0  0  0  0  # atno 10764 bound_to 10752
  154.4040  135.6097  153.5968 H   0  0  0  0  0  0  0  0  0  0  0  0  # atno 10765 bound_to 10752
  140.1048  134.8961  157.1849 H   0  0  0  0  0  0  0  0  0  0  0  0  # atno 11005 bound_to 11000
  144.7942  140.6090  143.6521 LP  0  0  0  0  0  0  0  0  0  0  0  0  # atno 17320 bound_to 7965
  145.4750  139.1500  143.3793 LP  0  0  0  0  0  0  0  0  0  0  0  0  # atno 17321 bound_to 7965
  139.6877  144.7650  151.1494 LP  0  0  0  0  0  0  0  0  0  0  0  0  # atno 17342 bound_to 10162
  140.7667  143.5633  150.9075 LP  0  0  0  0  0  0  0  0  0  0  0  0  # atno 17343 bound_to 10162
  156.1828  130.3651  149.9013 LP  0  0  0  0  0  0  0  0  0  0  0  0  # atno 17370 bound_to 10713
  156.6961  130.8915  151.3594 LP  0  0  0  0  0  0  0  0  0  0  0  0  # atno 17371 bound_to 10713
  140.3171  134.2958  155.7254 LP  0  0  0  0  0  0  0  0  0  0  0  0  # atno 17394 bound_to 11000
  141.2115  133.7687  156.9859 LP  0  0  0  0  0  0  0  0  0  0  0  0  # atno 17395 bound_to 11000

$$$$
