AV-unprocessed.smi:1144|AV-procd|sdf|4879|dock10
  -GOLD-   22720 3453D 1   1.00000     0.00000
 Structure written by MMmdl.
 35 36  0  0  0  0  0  0  0  0  2 V2000
  147.1235  138.9868  152.8715 C   0  0  0  0  0  0  0  0  0  0  0  0
  148.2262  138.3593  153.6304 N   0  3  2  0  0  0  0  0  0  0  0  0
  147.7614  137.7018  154.8729 C   0  0  0  0  0  0  0  0  0  0  0  0
  148.9441  137.0438  155.6018 C   0  0  0  0  0  0  0  0  0  0  0  0
  149.9438  138.0219  155.8605 O   0  0  0  0  0  0  0  0  0  0  0  0
  150.4742  138.5874  154.6650 C   0  0  2  0  0  0  0  0  0  0  0  0
  151.5947  139.5628  155.0503 C   0  0  0  0  0  0  0  0  0  0  0  0
  152.1697  139.2357  156.3464 N   0  0  0  0  0  0  0  0  0  0  0  0
  152.1653  140.0924  157.4305 C   0  0  0  0  0  0  0  0  0  0  0  0
  151.1423  140.9479  157.4816 N   0  0  0  0  0  0  0  0  0  0  0  0
  151.1108  141.8047  158.5253 C   0  0  0  0  0  0  0  0  0  0  0  0
  152.1080  141.8003  159.5205 C   0  0  0  0  0  0  0  0  0  0  0  0
  153.1424  140.8502  159.3664 C   0  0  0  0  0  0  0  0  0  0  0  0
  154.2840  140.7267  160.3642 C   0  0  0  0  0  0  0  0  0  0  0  0
  154.1106  141.5359  161.4100 F   0  0  0  0  0  0  0  0  0  0  0  0
  154.3579  139.4718  160.8077 F   0  0  0  0  0  0  0  0  0  0  0  0
  155.4356  141.0418  159.7710 F   0  0  0  0  0  0  0  0  0  0  0  0
  153.1640  139.9980  158.3152 N   0  0  0  0  0  0  0  0  0  0  0  0
  149.3333  139.3017  153.9134 C   0  0  0  0  0  0  0  0  0  0  0  0
  146.6553  139.7859  153.4481 H   0  0  0  0  0  0  0  0  0  0  0  0
  146.3587  138.2496  152.6249 H   0  0  0  0  0  0  0  0  0  0  0  0
  147.4923  139.4102  151.9367 H   0  0  0  0  0  0  0  0  0  0  0  0
  147.2867  138.4386  155.5230 H   0  0  0  0  0  0  0  0  0  0  0  0
  147.0074  136.9510  154.6340 H   0  0  0  0  0  0  0  0  0  0  0  0
  148.6121  136.6180  156.5487 H   0  0  0  0  0  0  0  0  0  0  0  0
  149.3606  136.2247  155.0131 H   0  0  0  0  0  0  0  0  0  0  0  0
  150.8869  137.7974  154.0339 H   0  0  0  0  0  0  0  0  0  0  0  0
  152.3887  139.5241  154.3036 H   0  0  0  0  0  0  0  0  0  0  0  0
  151.2171  140.5860  155.0653 H   0  0  0  0  0  0  0  0  0  0  0  0
  152.4809  138.2891  156.5092 H   0  0  0  0  0  0  0  0  0  0  0  0
  150.2845  142.4989  158.5663 H   0  0  0  0  0  0  0  0  0  0  0  0
  152.0737  142.4895  160.3510 H   0  0  0  0  0  0  0  0  0  0  0  0
  149.7076  139.7156  152.9761 H   0  0  0  0  0  0  0  0  0  0  0  0
  148.9579  140.1380  154.5058 H   0  0  0  0  0  0  0  0  0  0  0  0
  148.6066  137.6319  153.0417 H   0  0  0  0  0  0  0  0  0  0  0  0
  1  2  1  0  0  0  0
  1 20  1  0  0  0  0
  1 21  1  0  0  0  0
  1 22  1  0  0  0  0
  2 19  1  0  0  0  0
  2  3  1  0  0  0  0
  2 35  1  0  0  0  0
  3  4  1  0  0  0  0
  3 23  1  0  0  0  0
  3 24  1  0  0  0  0
  4  5  1  0  0  0  0
  4 25  1  0  0  0  0
  4 26  1  0  0  0  0
  5  6  1  0  0  0  0
  6  7  1  0  0  0  0
  6 19  1  0  0  0  0
  6 27  1  0  0  0  0
  7  8  1  0  0  0  0
  7 28  1  0  0  0  0
  7 29  1  0  0  0  0
  8  9  1  0  0  0  0
  8 30  1  0  0  0  0
  9 18  1  0  0  0  0
  9 10  2  0  0  0  0
 10 11  1  0  0  0  0
 11 12  2  0  0  0  0
 11 31  1  0  0  0  0
 12 13  1  0  0  0  0
 12 32  1  0  0  0  0
 13 14  1  0  0  0  0
 13 18  2  0  0  0  0
 14 15  1  0  0  0  0
 14 16  1  0  0  0  0
 14 17  1  0  0  0  0
 19 33  1  0  0  0  0
 19 34  1  0  0  0  0
M  CHG  1   2   1
M  END
> <s_m_source_file>
AV-unprocessed.smi

> <i_m_source_file_index>
1144

> <i_lp_mmshare_version>
43012

> <i_f3d_flags>
0

> <s_epik_input>
W0NIM11OMVtDSDJdW0NIMl1PW0NASF0oW0NIMl0xKVtDSDJdW05IXWMybltjSF1bY0hdYyhuMilDKEYpKEYpRg==

> <s_epik_cmdline>
J2VwaWtfcHl0aG9uJywgJy1waCcsICc3LjAnLCAnLXRuJywgJzgnLCAnLW1hJywgJzIwMCcsICctbWV0YWxfYmluZGluZycsICctaW1hZScsICc8aW5maWxlLm1hZT4nLCAnLW9tYWUnLCAnPG91dGZpbGUubWFlPic=

> <r_lp_tautomer_probability>
1

> <r_epik_Ionization_Penalty>
0.178506

> <r_epik_Ionization_Penalty_Charging>
0.178504

> <r_epik_Ionization_Penalty_Neutral>
2.47225e-06

> <r_epik_State_Penalty>
0.167974

> <r_epik_Charging_Adjusted_Penalty>
0.346478

> <i_epik_Tot_Q>
1

> <i_epik_Tot_abs_Q>
1

> <r_epik_Metal_State_Penalty>
0.167974

> <b_epik_Metal_Only>
0

> <s_lp_Force_Field>
OPLS_2005

> <r_lp_Energy>
9.23753

> <b_lp_Chiralities_Consistent>
1

> <s_lp_Variant>
AV-unprocessed.smi:1144-4

> <Gold.Version>
5.8.1

> <Gold.Id.Protein>
6NUR|6NUR_protein|mol2

> <Gold.PLP.Fitness>
37.4194

> <Gold.PLP.PLP>
-29.9091

> <Gold.PLP.part.hbond>
-2.1381

> <Gold.PLP.part.metal>
0.0000

> <Gold.PLP.part.buried>
0.4693

> <Gold.PLP.part.nonpolar>
-27.4528

> <Gold.PLP.part.repulsive>
0.1877

> <Gold.PLP.ligand.clash>
0.0000

> <Gold.PLP.ligand.torsion>
0.7455

> <Gold.PLP.Chemscore.Hbond>
3.0000

> <Gold.PLP.Chemscore.CHOScore>
0.0000

> <Gold.PLP.Chemscore.Metal>
0.0000

> <Gold.Chemscore.Hbonds>
donor molecule, donor type, donor heavy atom, donor atom, acceptor molecule, acceptor atom, score
      L1  H     2    35       P1  7948  2.00
      P1  H  7997  8009       L1    18  1.00

> <Gold.PLP.Chemscore.Internal.Correction>
0.0013

> <Gold.Rescore>
     Score         DG    S(hbond)    S(metal)    S(lipo)     H(rot)  DE(clash)    DE(int)     intcor
     13.90     -14.64       1.70        0.00      59.00       1.34       0.04       0.70       ----

> <Gold.Chemscore.Fitness>
13.9014

> <Gold.Chemscore.DG>
-14.6419

> <Gold.Chemscore.ZeroCoef>
-5.4800

> <Gold.Chemscore.Hbond>
1.7017

> <Gold.Chemscore.Metal>
0.0000

> <Gold.Chemscore.Lipo>
59.0028

> <Gold.Chemscore.Internal_Hbond>
0.0000

> <Gold.Chemscore.DEClash>
0.0362

> <Gold.Chemscore.DEInternal>
0.7043

> <Gold.Chemscore.Rot>
1.3379

> <Gold.Chemscore.Internal.Correction>
   9.000000E+99

> <Gold.Chemscore.Hbonds>
donor molecule, donor type, donor heavy atom, donor atom, acceptor molecule, acceptor atom, score
      L1  H     2    35       P1  7948  1.00
      P1  H  7997  8009       L1    18  0.27

> <Gold.Chemscore.Hbond.Weighted>
-5.6835

> <Gold.Chemscore.Metal.Weighted>
-0.0000

> <Gold.Chemscore.Lipo.Weighted>
-6.9033

> <Gold.Chemscore.Internal_Hbond.Weighted>
0.0000

> <Gold.Chemscore.DEClash.Weighted>
0.0362

> <Gold.Chemscore.DEInternal.Weighted>
0.7043

> <Gold.Chemscore.Rot.Weighted>
3.4250

> <Gold.Chemscore.Internal.Correction.Weighted>
   9.000000E+99

> <Gold.Protein.RotatedTorsions>
[ 6907 6896 6895 6894 ] final  119.48 input  -60.11 | X-H torsion
[ 7974 7965 7964 7962 ] final   32.10 input  175.53 | X-H torsion
[ 8008 7997 7996 7995 ] final  144.19 input   59.86 | X-H torsion
[ 10167 10162 10161 10158 ] final  -81.52 input  -65.29 | X-H torsion
[ 10718 10713 10712 10709 ] final   58.42 input   66.30 | X-H torsion
[ 10763 10752 10751 10750 ] final  -45.82 input  -60.55 | X-H torsion
[ 11005 11000 10999 10996 ] final   94.29 input  -57.11 | X-H torsion

> <Gold.Protein.ActiveResidues>
 VAL166  LYS551  ARG553  GLY616  TRP617  ASP618  TYR619  PRO620  LYS621  CYS622 
 ASP623  PHE694  ASN695  SER759  ASP760  ASP761  ALA762  ILE779  LEU786  VAL792 
 PHE793  MET794  SER795  GLU796  ALA797  LYS798  CYS799  TRP800  GLU811  SER814 

> <Gold.Protein.RotatedAtoms>
  152.4469  133.7553  159.6716 H   0  0  0  0  0  0  0  0  0  0  0  0  # atno 6907 bound_to 6896
  150.8371  133.7986  159.3081 H   0  0  0  0  0  0  0  0  0  0  0  0  # atno 6908 bound_to 6896
  151.5622  135.1067  160.0027 H   0  0  0  0  0  0  0  0  0  0  0  0  # atno 6909 bound_to 6896
  146.1508  139.6569  142.9100 H   0  0  0  0  0  0  0  0  0  0  0  0  # atno 7974 bound_to 7965
  156.2914  140.2242  156.5013 H   0  0  0  0  0  0  0  0  0  0  0  0  # atno 8008 bound_to 7997
  154.7687  140.0468  157.1055 H   0  0  0  0  0  0  0  0  0  0  0  0  # atno 8009 bound_to 7997
  154.9900  140.3089  155.4913 H   0  0  0  0  0  0  0  0  0  0  0  0  # atno 8010 bound_to 7997
  140.4404  143.2516  151.8633 H   0  0  0  0  0  0  0  0  0  0  0  0  # atno 10167 bound_to 10162
  157.5595  130.8825  149.9088 H   0  0  0  0  0  0  0  0  0  0  0  0  # atno 10718 bound_to 10713
  154.0349  135.6652  153.4784 H   0  0  0  0  0  0  0  0  0  0  0  0  # atno 10763 bound_to 10752
  153.0525  135.5076  154.7897 H   0  0  0  0  0  0  0  0  0  0  0  0  # atno 10764 bound_to 10752
  154.6855  135.3052  154.9519 H   0  0  0  0  0  0  0  0  0  0  0  0  # atno 10765 bound_to 10752
  139.8800  134.8837  156.3842 H   0  0  0  0  0  0  0  0  0  0  0  0  # atno 11005 bound_to 11000
  145.4828  141.0438  143.2636 LP  0  0  0  0  0  0  0  0  0  0  0  0  # atno 17320 bound_to 7965
  144.7901  139.6345  143.7117 LP  0  0  0  0  0  0  0  0  0  0  0  0  # atno 17321 bound_to 7965
  139.4789  144.5235  151.8768 LP  0  0  0  0  0  0  0  0  0  0  0  0  # atno 17342 bound_to 10162
  140.4325  144.2097  150.5888 LP  0  0  0  0  0  0  0  0  0  0  0  0  # atno 17343 bound_to 10162
  156.0649  130.3694  150.0900 LP  0  0  0  0  0  0  0  0  0  0  0  0  # atno 17370 bound_to 10713
  156.9065  130.9637  151.3569 LP  0  0  0  0  0  0  0  0  0  0  0  0  # atno 17371 bound_to 10713
  140.9378  133.7535  156.0107 LP  0  0  0  0  0  0  0  0  0  0  0  0  # atno 17394 bound_to 11000
  140.8255  134.3239  157.5367 LP  0  0  0  0  0  0  0  0  0  0  0  0  # atno 17395 bound_to 11000

$$$$
