AV-unprocessed.smi:2045|AV-procd|sdf|8310|dock5
  -GOLD-   2272010573D 1   1.00000     0.00000
 Structure written by MMmdl.
 38 39  0  0  0  0  0  0  0  0  3 V2000
  152.2055  145.1436  160.4466 C   0  0  0  0  0  0  0  0  0  0  0  0
  151.7916  144.1988  159.3712 C   0  0  0  0  0  0  0  0  0  0  0  0
  150.9155  144.3024  158.3278 C   0  0  0  0  0  0  0  0  0  0  0  0
  151.0107  143.0313  157.7007 C   0  0  0  0  0  0  0  0  0  0  0  0
  150.2384  142.7339  156.5467 N   0  0  0  0  0  0  0  0  0  0  0  0
  150.1928  141.5938  155.8331 C   0  0  0  0  0  0  0  0  0  0  0  0
  150.8704  140.6165  156.1732 O   0  0  0  0  0  0  0  0  0  0  0  0
  149.3504  141.6875  154.7677 N   0  5  0  0  0  0  0  0  0  0  0  0
  148.6895  140.5522  154.1283 C   0  0  0  0  0  0  0  0  0  0  0  0
  147.3163  140.9933  153.5874 C   0  0  0  0  0  0  0  0  0  0  0  0
  146.5045  139.8397  153.1152 N   0  3  0  0  0  0  0  0  0  0  0  0
  147.0841  139.1886  151.9103 C   0  0  0  0  0  0  0  0  0  0  0  0
  146.1486  138.0991  151.3587 C   0  0  0  0  0  0  0  0  0  0  0  0
  145.8186  137.0573  152.4353 C   0  0  0  0  0  0  0  0  0  0  0  0
  145.2500  137.7533  153.6782 C   0  0  0  0  0  0  0  0  0  0  0  0
  146.2091  138.8436  154.1843 C   0  0  0  0  0  0  0  0  0  0  0  0
  151.8687  142.2253  158.3082 N   0  0  0  0  0  0  0  0  0  0  0  0
  152.3727  142.9689  159.3819 O   0  0  0  0  0  0  0  0  0  0  0  0
  151.6432  146.0754  160.3848 H   0  0  0  0  0  0  0  0  0  0  0  0
  153.2658  145.3821  160.3636 H   0  0  0  0  0  0  0  0  0  0  0  0
  152.0316  144.7083  161.4306 H   0  0  0  0  0  0  0  0  0  0  0  0
  150.3059  145.1515  158.0572 H   0  0  0  0  0  0  0  0  0  0  0  0
  149.6511  143.4828  156.2113 H   0  0  0  0  0  0  0  0  0  0  0  0
  149.2760  140.1458  153.3031 H   0  0  0  0  0  0  0  0  0  0  0  0
  148.5464  139.7266  154.8263 H   0  0  0  0  0  0  0  0  0  0  0  0
  146.7898  141.5103  154.3917 H   0  0  0  0  0  0  0  0  0  0  0  0
  147.4275  141.7249  152.7851 H   0  0  0  0  0  0  0  0  0  0  0  0
  147.2538  139.9357  151.1340 H   0  0  0  0  0  0  0  0  0  0  0  0
  148.0567  138.7612  152.1595 H   0  0  0  0  0  0  0  0  0  0  0  0
  145.2268  138.5571  150.9971 H   0  0  0  0  0  0  0  0  0  0  0  0
  146.6097  137.6123  150.4989 H   0  0  0  0  0  0  0  0  0  0  0  0
  145.1049  136.3284  152.0503 H   0  0  0  0  0  0  0  0  0  0  0  0
  146.7196  136.5032  152.7016 H   0  0  0  0  0  0  0  0  0  0  0  0
  144.2825  138.1979  153.4409 H   0  0  0  0  0  0  0  0  0  0  0  0
  145.0696  137.0209  154.4656 H   0  0  0  0  0  0  0  0  0  0  0  0
  147.1404  138.3912  154.5289 H   0  0  0  0  0  0  0  0  0  0  0  0
  145.7626  139.3371  155.0482 H   0  0  0  0  0  0  0  0  0  0  0  0
  145.6198  140.2304  152.8230 H   0  0  0  0  0  0  0  0  0  0  0  0
  1  2  1  0  0  0  0
  1 19  1  0  0  0  0
  1 20  1  0  0  0  0
  1 21  1  0  0  0  0
  2 18  1  0  0  0  0
  2  3  2  0  0  0  0
  3  4  1  0  0  0  0
  3 22  1  0  0  0  0
  4  5  1  0  0  0  0
  4 17  2  0  0  0  0
  5  6  1  0  0  0  0
  5 23  1  0  0  0  0
  6  7  2  0  0  0  0
  6  8  1  0  0  0  0
  8  9  1  0  0  0  0
  9 10  1  0  0  0  0
  9 24  1  0  0  0  0
  9 25  1  0  0  0  0
 10 11  1  0  0  0  0
 10 26  1  0  0  0  0
 10 27  1  0  0  0  0
 11 16  1  0  0  0  0
 11 12  1  0  0  0  0
 11 38  1  0  0  0  0
 12 13  1  0  0  0  0
 12 28  1  0  0  0  0
 12 29  1  0  0  0  0
 13 14  1  0  0  0  0
 13 30  1  0  0  0  0
 13 31  1  0  0  0  0
 14 15  1  0  0  0  0
 14 32  1  0  0  0  0
 14 33  1  0  0  0  0
 15 16  1  0  0  0  0
 15 34  1  0  0  0  0
 15 35  1  0  0  0  0
 16 36  1  0  0  0  0
 16 37  1  0  0  0  0
 17 18  1  0  0  0  0
M  CHG  1   8  -1
M  CHG  1  11   1
M  END
> <s_m_source_file>
AV-unprocessed.smi

> <i_m_source_file_index>
2045

> <i_lp_mmshare_version>
43012

> <i_f3d_flags>
0

> <s_epik_input>
W0NIM11jMVtjSF1jKG5vMSlbTkhdQyg9TylbTkhdW0NIMl1bQ0gyXU4yW0NIMl1bQ0gyXVtDSDJdW0NIMl1bQ0gyXTI=

> <s_epik_cmdline>
J2VwaWtfcHl0aG9uJywgJy1waCcsICc3LjAnLCAnLXRuJywgJzgnLCAnLW1hJywgJzIwMCcsICctbWV0YWxfYmluZGluZycsICctaW1hZScsICc8aW5maWxlLm1hZT4nLCAnLW9tYWUnLCAnPG91dGZpbGUubWFlPic=

> <r_epik_Ionization_Penalty>
6.7666

> <r_epik_Ionization_Penalty_Charging>
6.7666

> <r_epik_Ionization_Penalty_Neutral>
5.77131e-06

> <r_epik_State_Penalty>
6.79217

> <r_epik_Charging_Adjusted_Penalty>
13.5588

> <i_epik_Tot_Q>
0

> <i_epik_Tot_abs_Q>
2

> <r_epik_Metal_State_Penalty>
2.72569

> <b_epik_Metal_Only>
1

> <s_lp_Force_Field>
OPLS_2005

> <r_lp_Energy>
13.1294

> <b_lp_Chiralities_Consistent>
1

> <s_lp_Variant>
AV-unprocessed.smi:2045-3

> <Gold.Version>
5.8.1

> <Gold.Id.Protein>
6NUR|6NUR_protein|mol2

> <Gold.PLP.Fitness>
40.8356

> <Gold.PLP.PLP>
-32.4917

> <Gold.PLP.part.hbond>
-2.7364

> <Gold.PLP.part.metal>
0.0000

> <Gold.PLP.part.buried>
0.3890

> <Gold.PLP.part.nonpolar>
-31.5434

> <Gold.PLP.part.repulsive>
0.2704

> <Gold.PLP.ligand.clash>
0.0000

> <Gold.PLP.ligand.torsion>
0.3511

> <Gold.PLP.Chemscore.Hbond>
3.0000

> <Gold.PLP.Chemscore.CHOScore>
0.0000

> <Gold.PLP.Chemscore.Metal>
0.0000

> <Gold.Chemscore.Hbonds>
donor molecule, donor type, donor heavy atom, donor atom, acceptor molecule, acceptor atom, score
      L1  H     5    23       P1  8028  1.00
      L1  H    11    38       P1 10175  2.00

> <Gold.PLP.Chemscore.Internal.Correction>
0.0460

> <Gold.Rescore>
     Score         DG    S(hbond)    S(metal)    S(lipo)     H(rot)  DE(clash)    DE(int)     intcor
     14.09     -16.77       1.97        0.00      74.23       1.55       0.99       1.69       ----

> <Gold.Chemscore.Fitness>
14.0890

> <Gold.Chemscore.DG>
-16.7710

> <Gold.Chemscore.ZeroCoef>
-5.4800

> <Gold.Chemscore.Hbond>
1.9717

> <Gold.Chemscore.Metal>
0.0000

> <Gold.Chemscore.Lipo>
74.2287

> <Gold.Chemscore.Internal_Hbond>
0.0000

> <Gold.Chemscore.DEClash>
0.9894

> <Gold.Chemscore.DEInternal>
1.6926

> <Gold.Chemscore.Rot>
1.5544

> <Gold.Chemscore.Internal.Correction>
   9.000000E+99

> <Gold.Chemscore.Hbonds>
donor molecule, donor type, donor heavy atom, donor atom, acceptor molecule, acceptor atom, score
      L1  H     5    23       P1  8028  0.95
      L1  H    11    38       P1 10175  0.91

> <Gold.Chemscore.Hbond.Weighted>
-6.5856

> <Gold.Chemscore.Metal.Weighted>
-0.0000

> <Gold.Chemscore.Lipo.Weighted>
-8.6848

> <Gold.Chemscore.Internal_Hbond.Weighted>
0.0000

> <Gold.Chemscore.DEClash.Weighted>
0.9894

> <Gold.Chemscore.DEInternal.Weighted>
1.6926

> <Gold.Chemscore.Rot.Weighted>
3.9794

> <Gold.Chemscore.Internal.Correction.Weighted>
   9.000000E+99

> <Gold.Protein.RotatedTorsions>
[ 6907 6896 6895 6894 ] final -122.25 input  -60.11 | X-H torsion
[ 7974 7965 7964 7962 ] final  146.27 input  175.53 | X-H torsion
[ 8008 7997 7996 7995 ] final -109.15 input   59.86 | X-H torsion
[ 10167 10162 10161 10158 ] final -148.37 input  -65.29 | X-H torsion
[ 10718 10713 10712 10709 ] final  -36.39 input   66.30 | X-H torsion
[ 10763 10752 10751 10750 ] final  -40.98 input  -60.55 | X-H torsion
[ 11005 11000 10999 10996 ] final  150.23 input  -57.11 | X-H torsion

> <Gold.Protein.ActiveResidues>
 VAL166  LYS551  ARG553  GLY616  TRP617  ASP618  TYR619  PRO620  LYS621  CYS622 
 ASP623  PHE694  ASN695  SER759  ASP760  ASP761  ALA762  ILE779  LEU786  VAL792 
 PHE793  MET794  SER795  GLU796  ALA797  LYS798  CYS799  TRP800  GLU811  SER814 

> <Gold.Protein.RotatedAtoms>
  150.8558  133.7717  159.3009 H   0  0  0  0  0  0  0  0  0  0  0  0  # atno 6907 bound_to 6896
  151.5375  135.1067  159.9927 H   0  0  0  0  0  0  0  0  0  0  0  0  # atno 6908 bound_to 6896
  152.4589  133.7736  159.6868 H   0  0  0  0  0  0  0  0  0  0  0  0  # atno 6909 bound_to 6896
  144.8685  139.5884  143.5898 H   0  0  0  0  0  0  0  0  0  0  0  0  # atno 7974 bound_to 7965
  154.9550  140.0400  157.2162 H   0  0  0  0  0  0  0  0  0  0  0  0  # atno 8008 bound_to 7997
  154.7942  140.2841  155.5946 H   0  0  0  0  0  0  0  0  0  0  0  0  # atno 8009 bound_to 7997
  156.2953  140.2567  156.2797 H   0  0  0  0  0  0  0  0  0  0  0  0  # atno 8010 bound_to 7997
  139.7537  143.8479  152.2592 H   0  0  0  0  0  0  0  0  0  0  0  0  # atno 10167 bound_to 10162
  156.3274  130.4274  149.7904 H   0  0  0  0  0  0  0  0  0  0  0  0  # atno 10718 bound_to 10713
  153.9549  135.6746  153.4744 H   0  0  0  0  0  0  0  0  0  0  0  0  # atno 10763 bound_to 10752
  153.0866  135.4895  154.8606 H   0  0  0  0  0  0  0  0  0  0  0  0  # atno 10764 bound_to 10752
  154.7305  135.3137  154.8859 H   0  0  0  0  0  0  0  0  0  0  0  0  # atno 10765 bound_to 10752
  140.1113  134.8922  157.1941 H   0  0  0  0  0  0  0  0  0  0  0  0  # atno 11005 bound_to 11000
  146.2913  139.7147  142.9159 LP  0  0  0  0  0  0  0  0  0  0  0  0  # atno 17320 bound_to 7965
  145.4176  141.0403  143.2982 LP  0  0  0  0  0  0  0  0  0  0  0  0  # atno 17321 bound_to 7965
  139.8465  144.7185  150.9266 LP  0  0  0  0  0  0  0  0  0  0  0  0  # atno 17342 bound_to 10162
  140.7800  143.3937  151.1267 LP  0  0  0  0  0  0  0  0  0  0  0  0  # atno 17343 bound_to 10162
  156.5190  130.8206  151.3196 LP  0  0  0  0  0  0  0  0  0  0  0  0  # atno 17370 bound_to 10713
  157.7424  130.9889  150.2512 LP  0  0  0  0  0  0  0  0  0  0  0  0  # atno 17371 bound_to 10713
  140.3087  134.3049  155.7272 LP  0  0  0  0  0  0  0  0  0  0  0  0  # atno 17394 bound_to 11000
  141.2131  133.7636  156.9745 LP  0  0  0  0  0  0  0  0  0  0  0  0  # atno 17395 bound_to 11000

$$$$
