AV-unprocessed.smi:2655|AV-procd|sdf|10299|dock4
  -GOLD-   2272014313D 1   1.00000     0.00000
 Structure written by MMmdl.
 34 35  0  0  0  0  0  0  0  0  1 V2000
  144.5592  132.8284  150.5207 C   0  0  0  0  0  0  0  0  0  0  0  0
  143.8785  133.6347  151.6057 C   0  0  0  0  0  0  0  0  0  0  0  0
  142.8223  133.1367  152.3118 N   0  0  0  0  0  0  0  0  0  0  0  0
  142.3970  134.0952  153.1964 N   0  0  0  0  0  0  0  0  0  0  0  0
  143.1646  135.1917  153.0824 C   0  0  0  0  0  0  0  0  0  0  0  0
  143.0489  136.2253  153.7376 O   0  0  0  0  0  0  0  0  0  0  0  0
  144.1272  134.8799  152.0316 C   0  0  0  0  0  0  0  0  0  0  0  0
  145.2061  135.8338  151.5563 C   0  0  0  0  0  0  0  0  0  0  0  0
  145.3879  137.0212  152.5153 C   0  0  0  0  0  0  0  0  0  0  0  0
  146.7969  137.2821  152.7831 N   0  0  0  0  0  0  0  0  0  0  0  0
  147.2672  138.3420  153.4566 C   0  0  0  0  0  0  0  0  0  0  0  0
  146.5445  139.2217  153.9253 O   0  0  0  0  0  0  0  0  0  0  0  0
  148.6076  138.3066  153.5437 N   0  0  0  0  0  0  0  0  0  0  0  0
  149.4745  139.2281  154.1859 C   0  0  0  0  0  0  0  0  0  0  0  0
  149.0845  140.4002  154.8972 C   0  0  0  0  0  0  0  0  0  0  0  0
  150.2787  140.9196  155.3102 C   0  0  0  0  0  0  0  0  0  0  0  0
  150.6383  142.1315  156.0993 C   0  0  0  0  0  0  0  0  0  0  0  0
  151.3076  140.1369  154.8877 O   0  0  0  0  0  0  0  0  0  0  0  0
  150.7836  139.0568  154.1679 N   0  0  0  0  0  0  0  0  0  0  0  0
  144.5200  133.3661  149.5729 H   0  0  0  0  0  0  0  0  0  0  0  0
  144.0752  131.8605  150.3871 H   0  0  0  0  0  0  0  0  0  0  0  0
  145.6053  132.6585  150.7766 H   0  0  0  0  0  0  0  0  0  0  0  0
  141.6185  133.9055  153.8109 H   0  0  0  0  0  0  0  0  0  0  0  0
  144.9392  136.1937  150.5620 H   0  0  0  0  0  0  0  0  0  0  0  0
  146.1430  135.2866  151.4446 H   0  0  0  0  0  0  0  0  0  0  0  0
  144.9118  137.9157  152.1093 H   0  0  0  0  0  0  0  0  0  0  0  0
  144.8956  136.8129  153.4658 H   0  0  0  0  0  0  0  0  0  0  0  0
  147.4594  136.6063  152.4315 H   0  0  0  0  0  0  0  0  0  0  0  0
  149.0637  137.5193  153.1070 H   0  0  0  0  0  0  0  0  0  0  0  0
  148.1017  140.8062  155.0833 H   0  0  0  0  0  0  0  0  0  0  0  0
  149.7585  142.5570  156.5821 H   0  0  0  0  0  0  0  0  0  0  0  0
  151.0740  142.8955  155.4554 H   0  0  0  0  0  0  0  0  0  0  0  0
  151.3645  141.8879  156.8750 H   0  0  0  0  0  0  0  0  0  0  0  0
  142.3351  132.2629  152.1725 H   0  0  0  0  0  0  0  0  0  0  0  0
  1 20  1  0  0  0  0
  1 21  1  0  0  0  0
  1 22  1  0  0  0  0
  1  2  1  0  0  0  0
  2  7  2  0  0  0  0
  2  3  1  0  0  0  0
  3  4  1  0  0  0  0
  3 34  1  0  0  0  0
  4 23  1  0  0  0  0
  4  5  1  0  0  0  0
  5  7  1  0  0  0  0
  5  6  2  0  0  0  0
  7  8  1  0  0  0  0
  8  9  1  0  0  0  0
  8 24  1  0  0  0  0
  8 25  1  0  0  0  0
  9 10  1  0  0  0  0
  9 26  1  0  0  0  0
  9 27  1  0  0  0  0
 10 11  1  0  0  0  0
 10 28  1  0  0  0  0
 11 12  2  0  0  0  0
 11 13  1  0  0  0  0
 13 14  1  0  0  0  0
 13 29  1  0  0  0  0
 14 19  2  0  0  0  0
 14 15  1  0  0  0  0
 15 16  2  0  0  0  0
 15 30  1  0  0  0  0
 16 17  1  0  0  0  0
 16 18  1  0  0  0  0
 17 31  1  0  0  0  0
 17 32  1  0  0  0  0
 17 33  1  0  0  0  0
 18 19  1  0  0  0  0
M  END
> <s_m_source_file>
AV-unprocessed.smi

> <i_m_source_file_index>
2655

> <i_lp_mmshare_version>
43012

> <i_f3d_flags>
0

> <s_epik_input>
W0NIM11DMT1OW05IXUMoPU8pW0NASF0xW0NIMl1bQ0gyXVtOSF1DKD1PKVtOSF1jMltjSF1jKFtDSDNdKW9uMg==

> <s_epik_cmdline>
J2VwaWtfcHl0aG9uJywgJy1waCcsICc3LjAnLCAnLXRuJywgJzgnLCAnLW1hJywgJzIwMCcsICctbWV0YWxfYmluZGluZycsICctaW1hZScsICc8aW5maWxlLm1hZT4nLCAnLW9tYWUnLCAnPG91dGZpbGUubWFlPic=

> <r_lp_tautomer_probability>
0.00220696

> <r_epik_Ionization_Penalty>
0.0273702

> <r_epik_Ionization_Penalty_Charging>
8.84748e-06

> <r_epik_Ionization_Penalty_Neutral>
0.0273613

> <r_epik_State_Penalty>
0.626781

> <r_epik_Charging_Adjusted_Penalty>
0.626789

> <i_epik_Tot_Q>
0

> <i_epik_Tot_abs_Q>
0

> <r_epik_Metal_State_Penalty>
2.03048

> <b_epik_Metal_Only>
0

> <s_lp_Force_Field>
OPLS_2005

> <r_lp_Energy>
17.132

> <b_lp_Chiralities_Consistent>
1

> <s_lp_Variant>
AV-unprocessed.smi:2655-2

> <Gold.Version>
5.8.1

> <Gold.Id.Protein>
6NUR|6NUR_protein|mol2

> <Gold.PLP.Fitness>
37.4632

> <Gold.PLP.PLP>
-31.1881

> <Gold.PLP.part.hbond>
-5.8776

> <Gold.PLP.part.metal>
0.0000

> <Gold.PLP.part.buried>
-3.9417

> <Gold.PLP.part.nonpolar>
-21.9627

> <Gold.PLP.part.repulsive>
0.6371

> <Gold.PLP.ligand.clash>
0.0000

> <Gold.PLP.ligand.torsion>
0.5194

> <Gold.PLP.Chemscore.Hbond>
2.4320

> <Gold.PLP.Chemscore.CHOScore>
0.0000

> <Gold.PLP.Chemscore.Metal>
0.0000

> <Gold.Chemscore.Hbonds>
donor molecule, donor type, donor heavy atom, donor atom, acceptor molecule, acceptor atom, score
      L1  H    10    28       P1  7948  1.00
      L1  H    13    29       P1  7948  0.94
      P1  H  7989  7998       L1    18  0.43

> <Gold.PLP.Chemscore.Internal.Correction>
0.0180

> <Gold.Rescore>
     Score         DG    S(hbond)    S(metal)    S(lipo)     H(rot)  DE(clash)    DE(int)     intcor
      9.71     -12.92       1.90        0.00      50.67       1.89       0.03       3.18       ----

> <Gold.Chemscore.Fitness>
9.7057

> <Gold.Chemscore.DG>
-12.9208

> <Gold.Chemscore.ZeroCoef>
-5.4800

> <Gold.Chemscore.Hbond>
1.9036

> <Gold.Chemscore.Metal>
0.0000

> <Gold.Chemscore.Lipo>
50.6712

> <Gold.Chemscore.Internal_Hbond>
0.0000

> <Gold.Chemscore.DEClash>
0.0339

> <Gold.Chemscore.DEInternal>
3.1812

> <Gold.Chemscore.Rot>
1.8929

> <Gold.Chemscore.Internal.Correction>
   9.000000E+99

> <Gold.Chemscore.Hbonds>
donor molecule, donor type, donor heavy atom, donor atom, acceptor molecule, acceptor atom, score
      L1  H    10    28       P1  7948  0.95
      L1  H    13    29       P1  7948  0.91

> <Gold.Chemscore.Hbond.Weighted>
-6.3580

> <Gold.Chemscore.Metal.Weighted>
-0.0000

> <Gold.Chemscore.Lipo.Weighted>
-5.9285

> <Gold.Chemscore.Internal_Hbond.Weighted>
0.0000

> <Gold.Chemscore.DEClash.Weighted>
0.0339

> <Gold.Chemscore.DEInternal.Weighted>
3.1812

> <Gold.Chemscore.Rot.Weighted>
4.8457

> <Gold.Chemscore.Internal.Correction.Weighted>
   9.000000E+99

> <Gold.Protein.RotatedTorsions>
[ 6907 6896 6895 6894 ] final  -47.29 input  -60.11 | X-H torsion
[ 7974 7965 7964 7962 ] final  -58.93 input  175.53 | X-H torsion
[ 8008 7997 7996 7995 ] final -110.77 input   59.86 | X-H torsion
[ 10167 10162 10161 10158 ] final  141.65 input  -65.29 | X-H torsion
[ 10718 10713 10712 10709 ] final -157.78 input   66.30 | X-H torsion
[ 10763 10752 10751 10750 ] final  -76.22 input  -60.55 | X-H torsion
[ 11005 11000 10999 10996 ] final   -3.94 input  -57.11 | X-H torsion

> <Gold.Protein.ActiveResidues>
 VAL166  LYS551  ARG553  GLY616  TRP617  ASP618  TYR619  PRO620  LYS621  CYS622 
 ASP623  PHE694  ASN695  SER759  ASP760  ASP761  ALA762  ILE779  LEU786  VAL792 
 PHE793  MET794  SER795  GLU796  ALA797  LYS798  CYS799  TRP800  GLU811  SER814 

> <Gold.Protein.RotatedAtoms>
  150.9023  134.8436  159.7368 H   0  0  0  0  0  0  0  0  0  0  0  0  # atno 6907 bound_to 6896
  152.4899  134.4483  159.9576 H   0  0  0  0  0  0  0  0  0  0  0  0  # atno 6908 bound_to 6896
  151.4534  133.3572  159.2834 H   0  0  0  0  0  0  0  0  0  0  0  0  # atno 6909 bound_to 6896
  145.8335  140.8464  143.0071 H   0  0  0  0  0  0  0  0  0  0  0  0  # atno 7974 bound_to 7965
  154.9796  140.0396  157.2272 H   0  0  0  0  0  0  0  0  0  0  0  0  # atno 8008 bound_to 7997
  154.7726  140.2804  155.6103 H   0  0  0  0  0  0  0  0  0  0  0  0  # atno 8009 bound_to 7997
  156.2923  140.2607  156.2532 H   0  0  0  0  0  0  0  0  0  0  0  0  # atno 8010 bound_to 7997
  139.5015  144.6158  151.6167 H   0  0  0  0  0  0  0  0  0  0  0  0  # atno 10167 bound_to 10162
  156.5450  130.8580  151.2761 H   0  0  0  0  0  0  0  0  0  0  0  0  # atno 10718 bound_to 10713
  154.4970  135.5805  153.6502 H   0  0  0  0  0  0  0  0  0  0  0  0  # atno 10763 bound_to 10752
  152.9872  135.6126  154.3052 H   0  0  0  0  0  0  0  0  0  0  0  0  # atno 10764 bound_to 10752
  154.2956  135.2848  155.2614 H   0  0  0  0  0  0  0  0  0  0  0  0  # atno 10765 bound_to 10752
  140.6748  133.9205  155.8517 H   0  0  0  0  0  0  0  0  0  0  0  0  # atno 11005 bound_to 11000
  144.6738  140.0707  143.7473 LP  0  0  0  0  0  0  0  0  0  0  0  0  # atno 17320 bound_to 7965
  145.9544  139.2756  143.1193 LP  0  0  0  0  0  0  0  0  0  0  0  0  # atno 17321 bound_to 7965
  140.5845  143.9888  150.6287 LP  0  0  0  0  0  0  0  0  0  0  0  0  # atno 17342 bound_to 10162
  140.3048  143.3237  152.0937 LP  0  0  0  0  0  0  0  0  0  0  0  0  # atno 17343 bound_to 10162
  157.7398  130.9838  150.2338 LP  0  0  0  0  0  0  0  0  0  0  0  0  # atno 17370 bound_to 10713
  156.2936  130.3749  149.7817 LP  0  0  0  0  0  0  0  0  0  0  0  0  # atno 17371 bound_to 10713
  141.0364  134.0683  157.3954 LP  0  0  0  0  0  0  0  0  0  0  0  0  # atno 17394 bound_to 11000
  139.8970  135.0148  156.7080 LP  0  0  0  0  0  0  0  0  0  0  0  0  # atno 17395 bound_to 11000

$$$$
