AV-unprocessed.smi:99|AV-procd|sdf|866|dock10
  -GOLD-   2262017323D 1   1.00000     0.00000
 Structure written by MMmdl.
 53 56  0  0  0  0  0  0  0  0  1 V2000
  148.8249  134.3347  158.3882 O   0  0  0  0  0  0  0  0  0  0  0  0
  147.9671  135.0850  158.8581 C   0  0  0  0  0  0  0  0  0  0  0  0
  147.1785  135.8782  158.1080 O   0  0  0  0  0  0  0  0  0  0  0  0
  147.4420  136.0319  156.7240 C   0  0  0  0  0  0  0  0  0  0  0  0
  146.7774  137.3271  156.2245 C   0  0  1  0  0  0  0  0  0  0  0  0
  147.4709  138.4612  156.7465 O   0  0  0  0  0  0  0  0  0  0  0  0
  148.3674  138.9965  155.8097 C   0  0  1  0  0  0  0  0  0  0  0  0
  149.7692  139.0025  156.3880 N   0  0  0  0  0  0  0  0  0  0  0  0
  150.0537  138.5435  157.6689 C   0  0  0  0  0  0  0  0  0  0  0  0
  151.3018  138.5466  158.1940 C   0  0  0  0  0  0  0  0  0  0  0  0
  152.4311  139.0487  157.4185 C   0  0  0  0  0  0  0  0  0  0  0  0
  153.5958  139.0915  157.8087 O   0  0  0  0  0  0  0  0  0  0  0  0
  152.0997  139.5045  156.1395 N   0  0  0  0  0  0  0  0  0  0  0  0
  150.8178  139.5058  155.5877 C   0  0  0  0  0  0  0  0  0  0  0  0
  150.6359  139.9306  154.4471 O   0  0  0  0  0  0  0  0  0  0  0  0
  148.2409  138.1640  154.5135 C   0  0  1  0  0  0  0  0  0  0  0  0
  149.2560  137.1804  154.3801 O   0  0  0  0  0  0  0  0  0  0  0  0
  146.8660  137.5429  154.7145 C   0  0  1  0  0  0  0  0  0  0  0  0
  146.6300  136.3742  153.9364 O   0  0  0  0  0  0  0  0  0  0  0  0
  145.8956  136.4269  152.8055 C   0  0  0  0  0  0  0  0  0  0  0  0
  145.3672  137.4561  152.3805 O   0  0  0  0  0  0  0  0  0  0  0  0
  145.7980  135.1059  152.1206 C   0  0  0  0  0  0  0  0  0  0  0  0
  144.9373  134.9633  151.0073 C   0  0  0  0  0  0  0  0  0  0  0  0
  144.8279  133.7282  150.3391 C   0  0  0  0  0  0  0  0  0  0  0  0
  145.5790  132.6212  150.7750 C   0  0  0  0  0  0  0  0  0  0  0  0
  146.4390  132.7502  151.8811 C   0  0  0  0  0  0  0  0  0  0  0  0
  146.5486  133.9839  152.5517 C   0  0  0  0  0  0  0  0  0  0  0  0
  147.6923  135.2089  160.3184 C   0  0  0  0  0  0  0  0  0  0  0  0
  147.5339  134.0378  161.0957 C   0  0  0  0  0  0  0  0  0  0  0  0
  147.2747  134.1238  162.4775 C   0  0  0  0  0  0  0  0  0  0  0  0
  147.1723  135.3819  163.0989 C   0  0  0  0  0  0  0  0  0  0  0  0
  147.3298  136.5544  162.3370 C   0  0  0  0  0  0  0  0  0  0  0  0
  147.5884  136.4705  160.9549 C   0  0  0  0  0  0  0  0  0  0  0  0
  152.8507  139.8620  155.5672 H   0  0  0  0  0  0  0  0  0  0  0  0
  148.5169  136.0437  156.5442 H   0  0  0  0  0  0  0  0  0  0  0  0
  147.0322  135.1712  156.1940 H   0  0  0  0  0  0  0  0  0  0  0  0
  145.7351  137.3453  156.5448 H   0  0  0  0  0  0  0  0  0  0  0  0
  148.1020  140.0465  155.6699 H   0  0  0  0  0  0  0  0  0  0  0  0
  149.2642  138.1636  158.2979 H   0  0  0  0  0  0  0  0  0  0  0  0
  151.4654  138.1767  159.1958 H   0  0  0  0  0  0  0  0  0  0  0  0
  148.2711  138.8210  153.6438 H   0  0  0  0  0  0  0  0  0  0  0  0
  149.0402  136.6234  153.6478 H   0  0  0  0  0  0  0  0  0  0  0  0
  146.1165  138.2963  154.4654 H   0  0  0  0  0  0  0  0  0  0  0  0
  144.3513  135.7995  150.6535 H   0  0  0  0  0  0  0  0  0  0  0  0
  144.1672  133.6309  149.4902 H   0  0  0  0  0  0  0  0  0  0  0  0
  145.4959  131.6748  150.2615 H   0  0  0  0  0  0  0  0  0  0  0  0
  147.0173  131.9018  152.2167 H   0  0  0  0  0  0  0  0  0  0  0  0
  147.2190  134.0476  153.3964 H   0  0  0  0  0  0  0  0  0  0  0  0
  147.6078  133.0605  160.6404 H   0  0  0  0  0  0  0  0  0  0  0  0
  147.1539  133.2224  163.0603 H   0  0  0  0  0  0  0  0  0  0  0  0
  146.9731  135.4476  164.1582 H   0  0  0  0  0  0  0  0  0  0  0  0
  147.2521  137.5209  162.8130 H   0  0  0  0  0  0  0  0  0  0  0  0
  147.7065  137.3901  160.4003 H   0  0  0  0  0  0  0  0  0  0  0  0
  1  2  2  0  0  0  0
  2  3  1  0  0  0  0
  2 28  1  0  0  0  0
  3  4  1  0  0  0  0
  4  5  1  0  0  0  0
  4 35  1  0  0  0  0
  4 36  1  0  0  0  0
  5 18  1  0  0  0  0
  5  6  1  0  0  0  0
  5 37  1  0  0  0  0
  6  7  1  0  0  0  0
  7  8  1  0  0  0  0
  7 16  1  0  0  0  0
  7 38  1  0  0  0  0
  8 14  1  0  0  0  0
  8  9  1  0  0  0  0
  9 10  2  0  0  0  0
  9 39  1  0  0  0  0
 10 11  1  0  0  0  0
 10 40  1  0  0  0  0
 11 12  2  0  0  0  0
 11 13  1  0  0  0  0
 13 34  1  0  0  0  0
 13 14  1  0  0  0  0
 14 15  2  0  0  0  0
 16 17  1  0  0  0  0
 16 18  1  0  0  0  0
 16 41  1  0  0  0  0
 17 42  1  0  0  0  0
 18 19  1  0  0  0  0
 18 43  1  0  0  0  0
 19 20  1  0  0  0  0
 20 21  2  0  0  0  0
 20 22  1  0  0  0  0
 22 27  1  0  0  0  0
 22 23  2  0  0  0  0
 23 24  1  0  0  0  0
 23 44  1  0  0  0  0
 24 25  2  0  0  0  0
 24 45  1  0  0  0  0
 25 26  1  0  0  0  0
 25 46  1  0  0  0  0
 26 27  2  0  0  0  0
 26 47  1  0  0  0  0
 27 48  1  0  0  0  0
 28 33  1  0  0  0  0
 28 29  2  0  0  0  0
 29 30  1  0  0  0  0
 29 49  1  0  0  0  0
 30 31  2  0  0  0  0
 30 50  1  0  0  0  0
 31 32  1  0  0  0  0
 31 51  1  0  0  0  0
 32 33  2  0  0  0  0
 32 52  1  0  0  0  0
 33 53  1  0  0  0  0
M  END
> <s_m_source_file>
AV-unprocessed.smi

> <i_m_source_file_index>
99

> <i_lp_mmshare_version>
43012

> <i_f3d_flags>
0

> <s_epik_input>
W2NIXTFbY0hdW2NIXVtjSF1bY0hdYzFDKD1PKU9bQ0gyXVtDQEBIXTJPW0NAQEhdKG4zW2NIXVtjSF1jKD1PKVtuSF1jMz1PKVtDQEBIXShbT0hdKVtDQEhdMk9DKD1PKWM0W2NIXVtjSF1bY0hdW2NIXVtjSF00

> <s_epik_cmdline>
J2VwaWtfcHl0aG9uJywgJy1waCcsICc3LjAnLCAnLXRuJywgJzgnLCAnLW1hJywgJzIwMCcsICctbWV0YWxfYmluZGluZycsICctaW1hZScsICc8aW5maWxlLm1hZT4nLCAnLW9tYWUnLCAnPG91dGZpbGUubWFlPic=

> <r_lp_tautomer_probability>
1

> <r_epik_Ionization_Penalty>
0.00454555

> <r_epik_Ionization_Penalty_Charging>
0.0045191

> <r_epik_Ionization_Penalty_Neutral>
2.64449e-05

> <r_epik_State_Penalty>
-0

> <r_epik_Charging_Adjusted_Penalty>
0.0045191

> <i_epik_Tot_Q>
0

> <i_epik_Tot_abs_Q>
0

> <r_epik_Metal_State_Penalty>
1.27877

> <b_epik_Metal_Only>
0

> <s_epik_Chemistry_Notes>
This compound has an ester and may undergo hydrolysis at high or low pH. This compound contains an acetal/aminal-like group ( X-CH(R)-Y where X, Y are N, S, or O) that may be acid/base labile, releasing an aldehyde.

> <s_lp_Force_Field>
OPLS_2005

> <r_lp_Energy>
46.8901

> <b_lp_Chiralities_Consistent>
1

> <s_lp_Variant>
AV-unprocessed.smi:99-2

> <Gold.Version>
5.8.1

> <Gold.Id.Protein>
6NUR|6NUR_protein|mol2

> <Gold.PLP.Fitness>
53.6708

> <Gold.PLP.PLP>
-44.7697

> <Gold.PLP.part.hbond>
-3.8059

> <Gold.PLP.part.metal>
0.0000

> <Gold.PLP.part.buried>
-6.4693

> <Gold.PLP.part.nonpolar>
-35.0707

> <Gold.PLP.part.repulsive>
0.7308

> <Gold.PLP.ligand.clash>
0.0000

> <Gold.PLP.ligand.torsion>
1.6628

> <Gold.PLP.Chemscore.Hbond>
4.0000

> <Gold.PLP.Chemscore.CHOScore>
0.0000

> <Gold.PLP.Chemscore.Metal>
0.0000

> <Gold.Chemscore.Hbonds>
donor molecule, donor type, donor heavy atom, donor atom, acceptor molecule, acceptor atom, score
      L1  H    17    42       P1  7948  1.00
      P1  H  6896  6908       L1     1  0.88
      P1  H  7989  7998       L1    15  1.00
      P1  H  7997  8009       L1    12  1.00

> <Gold.PLP.Chemscore.Internal.Correction>
0.2266

> <Gold.Rescore>
     Score         DG    S(hbond)    S(metal)    S(lipo)     H(rot)  DE(clash)    DE(int)     intcor
     17.95     -21.39       3.95        0.00      93.06       3.19       0.02       3.42       ----

> <Gold.Chemscore.Fitness>
17.9491

> <Gold.Chemscore.DG>
-21.3869

> <Gold.Chemscore.ZeroCoef>
-5.4800

> <Gold.Chemscore.Hbond>
3.9477

> <Gold.Chemscore.Metal>
0.0000

> <Gold.Chemscore.Lipo>
93.0645

> <Gold.Chemscore.Internal_Hbond>
0.0000

> <Gold.Chemscore.DEClash>
0.0178

> <Gold.Chemscore.DEInternal>
3.4200

> <Gold.Chemscore.Rot>
3.1903

> <Gold.Chemscore.Internal.Correction>
   9.000000E+99

> <Gold.Chemscore.Hbonds>
donor molecule, donor type, donor heavy atom, donor atom, acceptor molecule, acceptor atom, score
      L1  H    17    42       P1  7948  0.97
      P1  H  6896  6908       L1     1  0.83
      P1  H  7989  7998       L1    15  1.00
      P1  H  7997  8009       L1    12  0.97

> <Gold.Chemscore.Hbond.Weighted>
-13.1854

> <Gold.Chemscore.Metal.Weighted>
-0.0000

> <Gold.Chemscore.Lipo.Weighted>
-10.8885

> <Gold.Chemscore.Internal_Hbond.Weighted>
0.0000

> <Gold.Chemscore.DEClash.Weighted>
0.0178

> <Gold.Chemscore.DEInternal.Weighted>
3.4200

> <Gold.Chemscore.Rot.Weighted>
8.1671

> <Gold.Chemscore.Internal.Correction.Weighted>
   9.000000E+99

> <Gold.Protein.RotatedTorsions>
[ 6907 6896 6895 6894 ] final  141.32 input  -60.11 | X-H torsion
[ 7974 7965 7964 7962 ] final   59.81 input  175.53 | X-H torsion
[ 8008 7997 7996 7995 ] final  138.02 input   59.86 | X-H torsion
[ 10167 10162 10161 10158 ] final -172.22 input  -65.29 | X-H torsion
[ 10718 10713 10712 10709 ] final   95.25 input   66.30 | X-H torsion
[ 10763 10752 10751 10750 ] final -126.61 input  -60.55 | X-H torsion
[ 11005 11000 10999 10996 ] final  -87.23 input  -57.11 | X-H torsion

> <Gold.Protein.ActiveResidues>
 VAL166  LYS551  ARG553  GLY616  TRP617  ASP618  TYR619  PRO620  LYS621  CYS622 
 ASP623  PHE694  ASN695  SER759  ASP760  ASP761  ALA762  ILE779  LEU786  VAL792 
 PHE793  MET794  SER795  GLU796  ALA797  LYS798  CYS799  TRP800  GLU811  SER814 

> <Gold.Protein.RotatedAtoms>
  152.2324  133.5069  159.5222 H   0  0  0  0  0  0  0  0  0  0  0  0  # atno 6907 bound_to 6896
  150.7041  134.1199  159.4040 H   0  0  0  0  0  0  0  0  0  0  0  0  # atno 6908 bound_to 6896
  151.9120  135.0335  160.0566 H   0  0  0  0  0  0  0  0  0  0  0  0  # atno 6909 bound_to 6896
  145.9030  139.3595  143.0581 H   0  0  0  0  0  0  0  0  0  0  0  0  # atno 7974 bound_to 7965
  156.2999  140.2404  156.4005 H   0  0  0  0  0  0  0  0  0  0  0  0  # atno 8008 bound_to 7997
  154.8531  140.0423  157.1637 H   0  0  0  0  0  0  0  0  0  0  0  0  # atno 8009 bound_to 7997
  154.8977  140.2972  155.5339 H   0  0  0  0  0  0  0  0  0  0  0  0  # atno 8010 bound_to 7997
  139.5757  144.1538  152.1447 H   0  0  0  0  0  0  0  0  0  0  0  0  # atno 10167 bound_to 10162
  157.6940  131.0539  150.4310 H   0  0  0  0  0  0  0  0  0  0  0  0  # atno 10718 bound_to 10713
  154.8747  135.3989  154.3459 H   0  0  0  0  0  0  0  0  0  0  0  0  # atno 10763 bound_to 10752
  153.4252  135.7024  153.6273 H   0  0  0  0  0  0  0  0  0  0  0  0  # atno 10764 bound_to 10752
  153.4918  135.3746  155.2465 H   0  0  0  0  0  0  0  0  0  0  0  0  # atno 10765 bound_to 10752
  141.1619  133.7499  156.9277 H   0  0  0  0  0  0  0  0  0  0  0  0  # atno 11005 bound_to 11000
  145.8767  140.9387  143.0622 LP  0  0  0  0  0  0  0  0  0  0  0  0  # atno 17320 bound_to 7965
  144.6737  140.0726  143.7472 LP  0  0  0  0  0  0  0  0  0  0  0  0  # atno 17321 bound_to 7965
  140.1080  144.5482  150.6944 LP  0  0  0  0  0  0  0  0  0  0  0  0  # atno 17342 bound_to 10162
  140.7040  143.2454  151.4782 LP  0  0  0  0  0  0  0  0  0  0  0  0  # atno 17343 bound_to 10162
  156.4677  130.4045  149.6537 LP  0  0  0  0  0  0  0  0  0  0  0  0  # atno 17370 bound_to 10713
  156.3629  130.7491  151.2465 LP  0  0  0  0  0  0  0  0  0  0  0  0  # atno 17371 bound_to 10713
  140.1408  134.9295  157.2464 LP  0  0  0  0  0  0  0  0  0  0  0  0  # atno 17394 bound_to 11000
  140.2839  134.3318  155.7335 LP  0  0  0  0  0  0  0  0  0  0  0  0  # atno 17395 bound_to 11000

$$$$
