AV-unprocessed.smi:980|AV-procd|sdf|4312|dock6
  -GOLD-   22720 2223D 1   1.00000     0.00000
 Structure written by MMmdl.
 44 45  0  0  0  0  0  0  0  0  1 V2000
  147.7696  141.6192  154.2905 C   0  0  0  0  0  0  0  0  0  0  0  0
  147.6316  140.1490  154.7404 C   0  0  0  0  0  0  0  0  0  0  0  0
  146.6881  140.1113  155.9588 C   0  0  0  0  0  0  0  0  0  0  0  0
  147.0150  139.3509  153.5745 C   0  0  0  0  0  0  0  0  0  0  0  0
  148.9792  139.5616  155.1111 C   0  0  0  0  0  0  0  0  0  0  0  0
  150.0984  139.4372  154.3193 C   0  0  0  0  0  0  0  0  0  0  0  0
  151.4236  138.6802  155.1588 S   0  0  0  0  0  0  0  0  0  0  0  0
  150.4108  138.5691  156.5897 C   0  0  0  0  0  0  0  0  0  0  0  0
  150.8615  137.9379  157.8638 C   0  0  0  0  0  0  0  0  0  0  0  0
  152.0989  138.6344  158.4527 C   0  0  0  0  0  0  0  0  0  0  0  0
  151.8035  139.9962  158.8820 N   0  0  0  0  0  0  0  0  0  0  0  0
  152.7205  140.9270  159.1882 C   0  0  0  0  0  0  0  0  0  0  0  0
  153.9334  140.7176  159.1501 O   0  0  0  0  0  0  0  0  0  0  0  0
  152.1853  142.3070  159.5936 C   0  0  1  0  0  0  0  0  0  0  0  0
  152.5398  142.6379  161.0613 C   0  0  0  0  0  0  0  0  0  0  0  0
  152.2434  144.0866  161.4082 C   0  0  0  0  0  0  0  0  0  0  0  0
  152.0328  145.0400  160.4842 C   0  0  0  0  0  0  0  0  0  0  0  0
  152.0741  144.7786  158.9889 C   0  0  0  0  0  0  0  0  0  0  0  0
  152.7044  143.4136  158.6530 C   0  0  0  0  0  0  0  0  0  0  0  0
  149.1815  139.0536  156.4016 N   0  0  0  0  0  0  0  0  0  0  0  0
  146.8016  142.0458  154.0248 H   0  0  0  0  0  0  0  0  0  0  0  0
  148.4141  141.7119  153.4154 H   0  0  0  0  0  0  0  0  0  0  0  0
  148.1905  142.2417  155.0811 H   0  0  0  0  0  0  0  0  0  0  0  0
  147.1022  140.6718  156.7979 H   0  0  0  0  0  0  0  0  0  0  0  0
  146.5128  139.0906  156.3009 H   0  0  0  0  0  0  0  0  0  0  0  0
  145.7154  140.5438  155.7221 H   0  0  0  0  0  0  0  0  0  0  0  0
  146.0497  139.7621  153.2771 H   0  0  0  0  0  0  0  0  0  0  0  0
  146.8529  138.3066  153.8432 H   0  0  0  0  0  0  0  0  0  0  0  0
  147.6632  139.3669  152.6974 H   0  0  0  0  0  0  0  0  0  0  0  0
  150.2271  139.7375  153.2903 H   0  0  0  0  0  0  0  0  0  0  0  0
  150.0370  137.9716  158.5768 H   0  0  0  0  0  0  0  0  0  0  0  0
  151.0683  136.8836  157.6750 H   0  0  0  0  0  0  0  0  0  0  0  0
  152.5005  138.0584  159.2883 H   0  0  0  0  0  0  0  0  0  0  0  0
  152.8881  138.6837  157.7019 H   0  0  0  0  0  0  0  0  0  0  0  0
  150.8291  140.2547  158.9391 H   0  0  0  0  0  0  0  0  0  0  0  0
  151.0970  142.2875  159.5068 H   0  0  0  0  0  0  0  0  0  0  0  0
  151.9671  141.9965  161.7322 H   0  0  0  0  0  0  0  0  0  0  0  0
  153.5947  142.4512  161.2676 H   0  0  0  0  0  0  0  0  0  0  0  0
  152.2165  144.3410  162.4576 H   0  0  0  0  0  0  0  0  0  0  0  0
  151.8112  146.0502  160.7959 H   0  0  0  0  0  0  0  0  0  0  0  0
  151.0529  144.8254  158.6099 H   0  0  0  0  0  0  0  0  0  0  0  0
  152.6323  145.5767  158.4988 H   0  0  0  0  0  0  0  0  0  0  0  0
  153.7891  143.4907  158.7456 H   0  0  0  0  0  0  0  0  0  0  0  0
  152.5025  143.1635  157.6104 H   0  0  0  0  0  0  0  0  0  0  0  0
  1  2  1  0  0  0  0
  1 21  1  0  0  0  0
  1 22  1  0  0  0  0
  1 23  1  0  0  0  0
  2  3  1  0  0  0  0
  2  4  1  0  0  0  0
  2  5  1  0  0  0  0
  3 24  1  0  0  0  0
  3 25  1  0  0  0  0
  3 26  1  0  0  0  0
  4 27  1  0  0  0  0
  4 28  1  0  0  0  0
  4 29  1  0  0  0  0
  5 20  1  0  0  0  0
  5  6  2  0  0  0  0
  6  7  1  0  0  0  0
  6 30  1  0  0  0  0
  7  8  1  0  0  0  0
  8  9  1  0  0  0  0
  8 20  2  0  0  0  0
  9 10  1  0  0  0  0
  9 31  1  0  0  0  0
  9 32  1  0  0  0  0
 10 11  1  0  0  0  0
 10 33  1  0  0  0  0
 10 34  1  0  0  0  0
 11 12  1  0  0  0  0
 11 35  1  0  0  0  0
 12 13  2  0  0  0  0
 12 14  1  0  0  0  0
 14 19  1  0  0  0  0
 14 15  1  0  0  0  0
 14 36  1  0  0  0  0
 15 16  1  0  0  0  0
 15 37  1  0  0  0  0
 15 38  1  0  0  0  0
 16 17  2  0  0  0  0
 16 39  1  0  0  0  0
 17 18  1  0  0  0  0
 17 40  1  0  0  0  0
 18 19  1  0  0  0  0
 18 41  1  0  0  0  0
 18 42  1  0  0  0  0
 19 43  1  0  0  0  0
 19 44  1  0  0  0  0
M  END
> <s_m_source_file>
AV-unprocessed.smi

> <i_m_source_file_index>
980

> <i_lp_mmshare_version>
43012

> <i_f3d_flags>
0

> <s_epik_input>
W0NIM11DKFtDSDNdKShbQ0gzXSljMVtjSF1zYyhuMSlbQ0gyXVtDSDJdW05IXUMoPU8pW0NAQEhdMltDSDJdW0NIXT1bQ0hdW0NIMl1bQ0gyXTI=

> <s_epik_cmdline>
J2VwaWtfcHl0aG9uJywgJy1waCcsICc3LjAnLCAnLXRuJywgJzgnLCAnLW1hJywgJzIwMCcsICctbWV0YWxfYmluZGluZycsICctaW1hZScsICc8aW5maWxlLm1hZT4nLCAnLW9tYWUnLCAnPG91dGZpbGUubWFlPic=

> <r_epik_Ionization_Penalty>
0.000809238

> <r_epik_Ionization_Penalty_Charging>
0

> <r_epik_Ionization_Penalty_Neutral>
0.000809238

> <r_epik_State_Penalty>
0.000520038

> <r_epik_Charging_Adjusted_Penalty>
0.000520038

> <i_epik_Tot_Q>
0

> <i_epik_Tot_abs_Q>
0

> <r_epik_Metal_State_Penalty>
-0

> <b_epik_Metal_Only>
0

> <s_lp_Force_Field>
OPLS_2005

> <r_lp_Energy>
-0.741004

> <b_lp_Chiralities_Consistent>
1

> <s_lp_Variant>
AV-unprocessed.smi:980-2

> <Gold.Version>
5.8.1

> <Gold.Id.Protein>
6NUR|6NUR_protein|mol2

> <Gold.PLP.Fitness>
44.1696

> <Gold.PLP.PLP>
-40.3005

> <Gold.PLP.part.hbond>
-1.0000

> <Gold.PLP.part.metal>
0.0000

> <Gold.PLP.part.buried>
-1.0751

> <Gold.PLP.part.nonpolar>
-37.0441

> <Gold.PLP.part.repulsive>
0.1346

> <Gold.PLP.ligand.clash>
0.0000

> <Gold.PLP.ligand.torsion>
0.1222

> <Gold.PLP.Chemscore.Hbond>
0.3604

> <Gold.PLP.Chemscore.CHOScore>
1.0000

> <Gold.PLP.Chemscore.Metal>
0.0000

> <Gold.Chemscore.Hbonds>
donor molecule, donor type, donor heavy atom, donor atom, acceptor molecule, acceptor atom, score
      P1  H  7997  8008       L1    13  0.35
      L1  C     6    30       P1  7957  1.00

> <Gold.PLP.Chemscore.Internal.Correction>
0.0324

> <Gold.Rescore>
     Score         DG    S(hbond)    S(metal)    S(lipo)     H(rot)  DE(clash)    DE(int)     intcor
     16.98     -17.54       0.47        0.00     120.61       1.41       0.37       0.19       ----

> <Gold.Chemscore.Fitness>
16.9769

> <Gold.Chemscore.DG>
-17.5389

> <Gold.Chemscore.ZeroCoef>
-5.4800

> <Gold.Chemscore.Hbond>
0.4659

> <Gold.Chemscore.Metal>
0.0000

> <Gold.Chemscore.Lipo>
120.6103

> <Gold.Chemscore.Internal_Hbond>
0.0000

> <Gold.Chemscore.DEClash>
0.3730

> <Gold.Chemscore.DEInternal>
0.1890

> <Gold.Chemscore.Rot>
1.4097

> <Gold.Chemscore.Internal.Correction>
   9.000000E+99

> <Gold.Chemscore.Hbonds>
donor molecule, donor type, donor heavy atom, donor atom, acceptor molecule, acceptor atom, score
      P1  H  7997  8008       L1    13  0.35

> <Gold.Chemscore.Hbond.Weighted>
-1.5562

> <Gold.Chemscore.Metal.Weighted>
-0.0000

> <Gold.Chemscore.Lipo.Weighted>
-14.1114

> <Gold.Chemscore.Internal_Hbond.Weighted>
0.0000

> <Gold.Chemscore.DEClash.Weighted>
0.3730

> <Gold.Chemscore.DEInternal.Weighted>
0.1890

> <Gold.Chemscore.Rot.Weighted>
3.6087

> <Gold.Chemscore.Internal.Correction.Weighted>
   9.000000E+99

> <Gold.Protein.RotatedTorsions>
[ 6907 6896 6895 6894 ] final   56.38 input  -60.11 | X-H torsion
[ 7974 7965 7964 7962 ] final   53.54 input  175.53 | X-H torsion
[ 8008 7997 7996 7995 ] final -110.02 input   59.86 | X-H torsion
[ 10167 10162 10161 10158 ] final   91.49 input  -65.29 | X-H torsion
[ 10718 10713 10712 10709 ] final   83.18 input   66.30 | X-H torsion
[ 10763 10752 10751 10750 ] final  -90.36 input  -60.55 | X-H torsion
[ 11005 11000 10999 10996 ] final    1.90 input  -57.11 | X-H torsion

> <Gold.Protein.ActiveResidues>
 VAL166  LYS551  ARG553  GLY616  TRP617  ASP618  TYR619  PRO620  LYS621  CYS622 
 ASP623  PHE694  ASN695  SER759  ASP760  ASP761  ALA762  ILE779  LEU786  VAL792 
 PHE793  MET794  SER795  GLU796  ALA797  LYS798  CYS799  TRP800  GLU811  SER814 

> <Gold.Protein.RotatedAtoms>
  152.3630  134.6845  160.0200 H   0  0  0  0  0  0  0  0  0  0  0  0  # atno 6907 bound_to 6896
  151.7162  133.3308  159.3311 H   0  0  0  0  0  0  0  0  0  0  0  0  # atno 6908 bound_to 6896
  150.7618  134.6423  159.6288 H   0  0  0  0  0  0  0  0  0  0  0  0  # atno 6909 bound_to 6896
  145.9701  139.4141  143.0195 H   0  0  0  0  0  0  0  0  0  0  0  0  # atno 7974 bound_to 7965
  154.9682  140.0398  157.2222 H   0  0  0  0  0  0  0  0  0  0  0  0  # atno 8008 bound_to 7997
  154.7825  140.2821  155.6030 H   0  0  0  0  0  0  0  0  0  0  0  0  # atno 8009 bound_to 7997
  156.2938  140.2589  156.2654 H   0  0  0  0  0  0  0  0  0  0  0  0  # atno 8010 bound_to 7997
  139.8369  144.6660  150.9330 H   0  0  0  0  0  0  0  0  0  0  0  0  # atno 10167 bound_to 10162
  157.6873  131.0080  150.2485 H   0  0  0  0  0  0  0  0  0  0  0  0  # atno 10718 bound_to 10713
  154.6649  135.5307  153.8064 H   0  0  0  0  0  0  0  0  0  0  0  0  # atno 10763 bound_to 10752
  153.0465  135.6515  154.0815 H   0  0  0  0  0  0  0  0  0  0  0  0  # atno 10764 bound_to 10752
  154.0720  135.2953  155.3286 H   0  0  0  0  0  0  0  0  0  0  0  0  # atno 10765 bound_to 10752
  140.6102  133.9755  155.8174 H   0  0  0  0  0  0  0  0  0  0  0  0  # atno 11005 bound_to 11000
  145.7917  140.9811  143.1045 LP  0  0  0  0  0  0  0  0  0  0  0  0  # atno 17320 bound_to 7965
  144.6835  139.9691  143.7482 LP  0  0  0  0  0  0  0  0  0  0  0  0  # atno 17321 bound_to 7965
  140.7802  143.3948  151.1248 LP  0  0  0  0  0  0  0  0  0  0  0  0  # atno 17342 bound_to 10162
  139.7598  143.8653  152.3097 LP  0  0  0  0  0  0  0  0  0  0  0  0  # atno 17343 bound_to 10162
  156.3086  130.3768  149.7682 LP  0  0  0  0  0  0  0  0  0  0  0  0  # atno 17370 bound_to 10713
  156.5290  130.8249  151.3230 LP  0  0  0  0  0  0  0  0  0  0  0  0  # atno 17371 bound_to 10713
  141.0813  134.0058  157.3382 LP  0  0  0  0  0  0  0  0  0  0  0  0  # atno 17394 bound_to 11000
  139.9195  135.0199  156.8011 LP  0  0  0  0  0  0  0  0  0  0  0  0  # atno 17395 bound_to 11000

$$$$
