AV-unprocessed.smi:3330|AV-procd|sdf|12802|dock3
  -GOLD-   2272019163D 1   1.00000     0.00000
 Structure written by MMmdl.
 39 40  0  0  0  0  0  0  0  0  2 V2000
  148.5498  132.8065  151.9968 C   0  0  0  0  0  0  0  0  0  0  0  0
  147.4590  133.5905  152.7577 C   0  0  1  0  0  0  0  0  0  0  0  0
  148.0766  134.6188  153.6271 N   0  3  0  0  0  0  0  0  0  0  0  0
  149.0049  134.1105  154.6579 C   0  0  0  0  0  0  0  0  0  0  0  0
  150.4627  134.2673  154.1993 C   0  0  0  0  0  0  0  0  0  0  0  0
  151.2732  134.9465  155.2137 N   0  0  0  0  0  0  0  0  0  0  0  0
  151.9146  136.1048  155.0128 C   0  0  0  0  0  0  0  0  0  0  0  0
  151.9376  136.7774  153.9828 O   0  0  0  0  0  0  0  0  0  0  0  0
  152.6452  136.4754  156.2850 C   0  0  0  0  0  0  0  0  0  0  0  0
  152.2812  135.3386  157.1035 N   0  0  0  0  0  0  0  0  0  0  0  0
  151.4910  134.4736  156.4543 C   0  0  0  0  0  0  0  0  0  0  0  0
  151.0508  133.4249  156.9225 O   0  0  0  0  0  0  0  0  0  0  0  0
  146.4287  134.2620  151.8102 C   0  0  2  0  0  0  0  0  0  0  0  0
  145.4927  135.2381  152.5499 C   0  0  0  0  0  0  0  0  0  0  0  0
  145.6435  133.2861  151.0643 N   0  0  0  0  0  0  0  0  0  0  0  0
  146.0952  132.2891  150.2239 C   0  0  0  0  0  0  0  0  0  0  0  0
  145.0000  131.6238  149.7529 C   0  0  0  0  0  0  0  0  0  0  0  0
  143.9065  132.2954  150.3668 C   0  0  0  0  0  0  0  0  0  0  0  0
  144.2938  133.2881  151.1513 N   0  0  0  0  0  0  0  0  0  0  0  0
  148.1260  132.0020  151.3956 H   0  0  0  0  0  0  0  0  0  0  0  0
  149.2620  132.3378  152.6751 H   0  0  0  0  0  0  0  0  0  0  0  0
  149.1104  133.4591  151.3269 H   0  0  0  0  0  0  0  0  0  0  0  0
  146.9185  132.8890  153.3956 H   0  0  0  0  0  0  0  0  0  0  0  0
  148.5562  135.2929  153.0478 H   0  0  0  0  0  0  0  0  0  0  0  0
  148.8463  134.6591  155.5874 H   0  0  0  0  0  0  0  0  0  0  0  0
  148.7940  133.0607  154.8614 H   0  0  0  0  0  0  0  0  0  0  0  0
  150.8913  133.2879  153.9788 H   0  0  0  0  0  0  0  0  0  0  0  0
  150.5011  134.8235  153.2607 H   0  0  0  0  0  0  0  0  0  0  0  0
  153.7230  136.5324  156.1302 H   0  0  0  0  0  0  0  0  0  0  0  0
  152.2733  137.4099  156.7061 H   0  0  0  0  0  0  0  0  0  0  0  0
  152.5979  135.2226  158.0555 H   0  0  0  0  0  0  0  0  0  0  0  0
  146.9844  134.8404  151.0701 H   0  0  0  0  0  0  0  0  0  0  0  0
  146.0466  136.0545  153.0131 H   0  0  0  0  0  0  0  0  0  0  0  0
  144.9278  134.7348  153.3353 H   0  0  0  0  0  0  0  0  0  0  0  0
  144.7749  135.6860  151.8619 H   0  0  0  0  0  0  0  0  0  0  0  0
  147.1473  132.1360  150.0331 H   0  0  0  0  0  0  0  0  0  0  0  0
  144.9824  130.7857  149.0722 H   0  0  0  0  0  0  0  0  0  0  0  0
  142.8504  132.0921  150.2669 H   0  0  0  0  0  0  0  0  0  0  0  0
  147.3273  135.0916  154.1123 H   0  0  0  0  0  0  0  0  0  0  0  0
  1  2  1  0  0  0  0
  1 20  1  0  0  0  0
  1 21  1  0  0  0  0
  1 22  1  0  0  0  0
  2  3  1  0  0  0  0
  2 13  1  0  0  0  0
  2 23  1  0  0  0  0
  3  4  1  0  0  0  0
  3 24  1  0  0  0  0
  3 39  1  0  0  0  0
  4  5  1  0  0  0  0
  4 25  1  0  0  0  0
  4 26  1  0  0  0  0
  5  6  1  0  0  0  0
  5 27  1  0  0  0  0
  5 28  1  0  0  0  0
  6 11  1  0  0  0  0
  6  7  1  0  0  0  0
  7  8  2  0  0  0  0
  7  9  1  0  0  0  0
  9 10  1  0  0  0  0
  9 29  1  0  0  0  0
  9 30  1  0  0  0  0
 10 11  1  0  0  0  0
 10 31  1  0  0  0  0
 11 12  2  0  0  0  0
 13 14  1  0  0  0  0
 13 15  1  0  0  0  0
 13 32  1  0  0  0  0
 14 33  1  0  0  0  0
 14 34  1  0  0  0  0
 14 35  1  0  0  0  0
 15 19  1  0  0  0  0
 15 16  1  0  0  0  0
 16 17  2  0  0  0  0
 16 36  1  0  0  0  0
 17 18  1  0  0  0  0
 17 37  1  0  0  0  0
 18 19  2  0  0  0  0
 18 38  1  0  0  0  0
M  CHG  1   3   1
M  END
> <s_m_source_file>
AV-unprocessed.smi

> <i_m_source_file_index>
3330

> <i_lp_mmshare_version>
43012

> <i_f3d_flags>
0

> <s_epik_input>
bjFbY0hdW2NIXVtjSF1uMVtDQEBIXShbQ0gzXSlbQ0BIXShbQ0gzXSlbTkhdW0NIMl1bQ0gyXU4yQyg9TylbQ0gyXVtOSF1DMj1P

> <s_epik_cmdline>
J2VwaWtfcHl0aG9uJywgJy1waCcsICc3LjAnLCAnLXRuJywgJzgnLCAnLW1hJywgJzIwMCcsICctbWV0YWxfYmluZGluZycsICctaW1hZScsICc8aW5maWxlLm1hZT4nLCAnLW9tYWUnLCAnPG91dGZpbGUubWFlPic=

> <r_lp_tautomer_probability>
1

> <r_epik_Ionization_Penalty>
0.0124905

> <r_epik_Ionization_Penalty_Charging>
0.0123685

> <r_epik_Ionization_Penalty_Neutral>
0.000122059

> <r_epik_State_Penalty>
0.00957041

> <r_epik_Charging_Adjusted_Penalty>
0.0219389

> <i_epik_Tot_Q>
1

> <i_epik_Tot_abs_Q>
1

> <r_epik_Metal_State_Penalty>
0.0858301

> <b_epik_Metal_Only>
0

> <s_lp_Force_Field>
OPLS_2005

> <r_lp_Energy>
24.6959

> <b_lp_Chiralities_Consistent>
1

> <s_lp_Variant>
AV-unprocessed.smi:3330-2

> <Gold.Version>
5.8.1

> <Gold.Id.Protein>
6NUR|6NUR_protein|mol2

> <Gold.PLP.Fitness>
44.4387

> <Gold.PLP.PLP>
-27.0906

> <Gold.PLP.part.hbond>
-3.0000

> <Gold.PLP.part.metal>
0.0000

> <Gold.PLP.part.buried>
-3.7782

> <Gold.PLP.part.nonpolar>
-22.7430

> <Gold.PLP.part.repulsive>
1.0499

> <Gold.PLP.ligand.clash>
0.0000

> <Gold.PLP.ligand.torsion>
0.7529

> <Gold.PLP.Chemscore.Hbond>
4.0000

> <Gold.PLP.Chemscore.CHOScore>
2.2480

> <Gold.PLP.Chemscore.Metal>
0.0000

> <Gold.Chemscore.Hbonds>
donor molecule, donor type, donor heavy atom, donor atom, acceptor molecule, acceptor atom, score
      L1  H     3    24       P1  7948  2.00
      L1  C    16    36       P1 10747  1.00
      L1  C    18    38       P1 10952  0.42

> <Gold.PLP.Chemscore.Internal.Correction>
0.1101

> <Gold.Rescore>
     Score         DG    S(hbond)    S(metal)    S(lipo)     H(rot)  DE(clash)    DE(int)     intcor
     12.11     -13.22       2.37        0.00      56.96       2.67       0.05       1.06       ----

> <Gold.Chemscore.Fitness>
12.1070

> <Gold.Chemscore.DG>
-13.2178

> <Gold.Chemscore.ZeroCoef>
-5.4800

> <Gold.Chemscore.Hbond>
2.3653

> <Gold.Chemscore.Metal>
0.0000

> <Gold.Chemscore.Lipo>
56.9575

> <Gold.Chemscore.Internal_Hbond>
0.0000

> <Gold.Chemscore.DEClash>
0.0508

> <Gold.Chemscore.DEInternal>
1.0600

> <Gold.Chemscore.Rot>
2.6666

> <Gold.Chemscore.Internal.Correction>
   9.000000E+99

> <Gold.Chemscore.Hbonds>
donor molecule, donor type, donor heavy atom, donor atom, acceptor molecule, acceptor atom, score
      L1  H     3    24       P1  7948  0.82

> <Gold.Chemscore.Hbond.Weighted>
-7.9002

> <Gold.Chemscore.Metal.Weighted>
-0.0000

> <Gold.Chemscore.Lipo.Weighted>
-6.6640

> <Gold.Chemscore.Internal_Hbond.Weighted>
0.0000

> <Gold.Chemscore.DEClash.Weighted>
0.0508

> <Gold.Chemscore.DEInternal.Weighted>
1.0600

> <Gold.Chemscore.Rot.Weighted>
6.8265

> <Gold.Chemscore.Internal.Correction.Weighted>
   9.000000E+99

> <Gold.Protein.RotatedTorsions>
[ 6907 6896 6895 6894 ] final  148.55 input  -60.11 | X-H torsion
[ 7974 7965 7964 7962 ] final -165.72 input  175.53 | X-H torsion
[ 8008 7997 7996 7995 ] final   88.42 input   59.86 | X-H torsion
[ 10167 10162 10161 10158 ] final  158.27 input  -65.29 | X-H torsion
[ 10718 10713 10712 10709 ] final   85.26 input   66.30 | X-H torsion
[ 10763 10752 10751 10750 ] final  146.62 input  -60.55 | X-H torsion
[ 11005 11000 10999 10996 ] final  107.18 input  -57.11 | X-H torsion

> <Gold.Protein.ActiveResidues>
 VAL166  LYS551  ARG553  GLY616  TRP617  ASP618  TYR619  PRO620  LYS621  CYS622 
 ASP623  PHE694  ASN695  SER759  ASP760  ASP761  ALA762  ILE779  LEU786  VAL792 
 PHE793  MET794  SER795  GLU796  ALA797  LYS798  CYS799  TRP800  GLU811  SER814 

> <Gold.Protein.RotatedAtoms>
  152.1400  133.4458  159.4761 H   0  0  0  0  0  0  0  0  0  0  0  0  # atno 6907 bound_to 6896
  150.6885  134.2317  159.4446 H   0  0  0  0  0  0  0  0  0  0  0  0  # atno 6908 bound_to 6896
  152.0207  134.9824  160.0621 H   0  0  0  0  0  0  0  0  0  0  0  0  # atno 6909 bound_to 6896
  144.7263  140.2772  143.6241 H   0  0  0  0  0  0  0  0  0  0  0  0  # atno 7974 bound_to 7965
  155.9875  140.3372  155.6721 H   0  0  0  0  0  0  0  0  0  0  0  0  # atno 8008 bound_to 7997
  155.6465  140.0701  157.2619 H   0  0  0  0  0  0  0  0  0  0  0  0  # atno 8009 bound_to 7997
  154.4209  140.1733  156.1617 H   0  0  0  0  0  0  0  0  0  0  0  0  # atno 8010 bound_to 7997
  139.4826  144.4840  151.8404 H   0  0  0  0  0  0  0  0  0  0  0  0  # atno 10167 bound_to 10162
  157.6912  131.0167  150.2796 H   0  0  0  0  0  0  0  0  0  0  0  0  # atno 10718 bound_to 10713
  154.0249  135.2903  155.3376 H   0  0  0  0  0  0  0  0  0  0  0  0  # atno 10763 bound_to 10752
  154.7024  135.5183  153.8549 H   0  0  0  0  0  0  0  0  0  0  0  0  # atno 10764 bound_to 10752
  153.0665  135.6633  154.0467 H   0  0  0  0  0  0  0  0  0  0  0  0  # atno 10765 bound_to 10752
  139.8824  134.9393  156.5780 H   0  0  0  0  0  0  0  0  0  0  0  0  # atno 11005 bound_to 11000
  145.7985  139.1955  143.2062 LP  0  0  0  0  0  0  0  0  0  0  0  0  # atno 17320 bound_to 7965
  146.0696  140.7883  142.9694 LP  0  0  0  0  0  0  0  0  0  0  0  0  # atno 17321 bound_to 7965
  140.4318  144.2105  150.5888 LP  0  0  0  0  0  0  0  0  0  0  0  0  # atno 17342 bound_to 10162
  140.4771  143.2392  151.9007 LP  0  0  0  0  0  0  0  0  0  0  0  0  # atno 17343 bound_to 10162
  156.3345  130.3805  149.7462 LP  0  0  0  0  0  0  0  0  0  0  0  0  # atno 17370 bound_to 10713
  156.4991  130.8120  151.3125 LP  0  0  0  0  0  0  0  0  0  0  0  0  # atno 17371 bound_to 10713
  140.8048  133.8476  155.8758 LP  0  0  0  0  0  0  0  0  0  0  0  0  # atno 17394 bound_to 11000
  140.9560  134.1718  157.4691 LP  0  0  0  0  0  0  0  0  0  0  0  0  # atno 17395 bound_to 11000

$$$$
