AV-unprocessed.smi:2081|AV-procd|sdf|8488|dock7
  -GOLD-   2272011193D 1   1.00000     0.00000
 Structure written by MMmdl.
 45 46  0  0  0  0  0  0  0  0  1 V2000
  149.7813  133.1993  153.7971 C   0  0  0  0  0  0  0  0  0  0  0  0
  149.5225  133.6278  155.1835 N   0  0  0  0  0  0  0  0  0  0  0  0
  149.1996  135.0580  155.3713 C   0  0  0  0  0  0  0  0  0  0  0  0
  150.3766  136.0351  155.3397 C   0  0  0  0  0  0  0  0  0  0  0  0
  151.1994  136.0431  156.2550 O   0  0  0  0  0  0  0  0  0  0  0  0
  150.4457  136.8431  154.2710 N   0  0  0  0  0  0  0  0  0  0  0  0
  151.5136  137.8040  154.0184 C   0  0  0  0  0  0  0  0  0  0  0  0
  151.6316  138.8832  155.0840 C   0  0  0  0  0  0  0  0  0  0  0  0
  150.7018  139.9393  155.1791 C   0  0  0  0  0  0  0  0  0  0  0  0
  150.8662  140.9066  156.1883 C   0  0  0  0  0  0  0  0  0  0  0  0
  151.9545  140.7911  157.0860 C   0  0  0  0  0  0  0  0  0  0  0  0
  152.1413  141.7497  158.1062 N   0  0  0  0  0  0  0  0  0  0  0  0
  152.3553  141.2671  159.4696 C   0  0  0  0  0  0  0  0  0  0  0  0
  152.8288  142.4147  160.3769 C   0  0  0  0  0  0  0  0  0  0  0  0
  151.8962  143.4884  160.3160 O   0  0  0  0  0  0  0  0  0  0  0  0
  151.7862  144.0185  158.9993 C   0  0  0  0  0  0  0  0  0  0  0  0
  151.2808  142.9286  158.0378 C   0  0  0  0  0  0  0  0  0  0  0  0
  152.8446  139.7722  156.9910 N   0  0  0  0  0  0  0  0  0  0  0  0
  152.6827  138.8476  156.0214 C   0  0  0  0  0  0  0  0  0  0  0  0
  150.4103  132.8370  156.4468 S   0  0  0  0  0  0  0  0  0  0  0  0
  149.3461  131.3919  156.8512 C   0  0  0  0  0  0  0  0  0  0  0  0
  151.6710  132.3413  155.8734 O   0  0  0  0  0  0  0  0  0  0  0  0
  150.4382  133.7342  157.6120 O   0  0  0  0  0  0  0  0  0  0  0  0
  150.6584  133.7124  153.4021 H   0  0  0  0  0  0  0  0  0  0  0  0
  148.9314  133.4073  153.1480 H   0  0  0  0  0  0  0  0  0  0  0  0
  149.9631  132.1261  153.7518 H   0  0  0  0  0  0  0  0  0  0  0  0
  148.4947  135.3709  154.6009 H   0  0  0  0  0  0  0  0  0  0  0  0
  148.6778  135.1729  156.3221 H   0  0  0  0  0  0  0  0  0  0  0  0
  149.7215  136.7674  153.5713 H   0  0  0  0  0  0  0  0  0  0  0  0
  152.4576  137.2604  153.9776 H   0  0  0  0  0  0  0  0  0  0  0  0
  151.3770  138.2598  153.0362 H   0  0  0  0  0  0  0  0  0  0  0  0
  149.8746  140.0157  154.4888 H   0  0  0  0  0  0  0  0  0  0  0  0
  150.1683  141.7279  156.2506 H   0  0  0  0  0  0  0  0  0  0  0  0
  151.4248  140.8468  159.8540 H   0  0  0  0  0  0  0  0  0  0  0  0
  153.1015  140.4714  159.4770 H   0  0  0  0  0  0  0  0  0  0  0  0
  152.9077  142.0697  161.4079 H   0  0  0  0  0  0  0  0  0  0  0  0
  153.8200  142.7614  160.0803 H   0  0  0  0  0  0  0  0  0  0  0  0
  151.0918  144.8586  159.0121 H   0  0  0  0  0  0  0  0  0  0  0  0
  152.7511  144.4086  158.6710 H   0  0  0  0  0  0  0  0  0  0  0  0
  151.2359  143.3404  157.0309 H   0  0  0  0  0  0  0  0  0  0  0  0
  150.2643  142.6371  158.3056 H   0  0  0  0  0  0  0  0  0  0  0  0
  153.4191  138.0581  155.9929 H   0  0  0  0  0  0  0  0  0  0  0  0
  149.8097  130.8168  157.6525 H   0  0  0  0  0  0  0  0  0  0  0  0
  149.2358  130.7582  155.9719 H   0  0  0  0  0  0  0  0  0  0  0  0
  148.3657  131.7378  157.1776 H   0  0  0  0  0  0  0  0  0  0  0  0
  1  2  1  0  0  0  0
  1 24  1  0  0  0  0
  1 25  1  0  0  0  0
  1 26  1  0  0  0  0
  2  3  1  0  0  0  0
  2 20  1  0  0  0  0
  3  4  1  0  0  0  0
  3 27  1  0  0  0  0
  3 28  1  0  0  0  0
  4  5  2  0  0  0  0
  4  6  1  0  0  0  0
  6  7  1  0  0  0  0
  6 29  1  0  0  0  0
  7  8  1  0  0  0  0
  7 30  1  0  0  0  0
  7 31  1  0  0  0  0
  8 19  1  0  0  0  0
  8  9  2  0  0  0  0
  9 10  1  0  0  0  0
  9 32  1  0  0  0  0
 10 11  2  0  0  0  0
 10 33  1  0  0  0  0
 11 12  1  0  0  0  0
 11 18  1  0  0  0  0
 12 17  1  0  0  0  0
 12 13  1  0  0  0  0
 13 14  1  0  0  0  0
 13 34  1  0  0  0  0
 13 35  1  0  0  0  0
 14 15  1  0  0  0  0
 14 36  1  0  0  0  0
 14 37  1  0  0  0  0
 15 16  1  0  0  0  0
 16 17  1  0  0  0  0
 16 38  1  0  0  0  0
 16 39  1  0  0  0  0
 17 40  1  0  0  0  0
 17 41  1  0  0  0  0
 18 19  2  0  0  0  0
 19 42  1  0  0  0  0
 20 21  1  0  0  0  0
 20 22  2  0  0  0  0
 20 23  2  0  0  0  0
 21 43  1  0  0  0  0
 21 44  1  0  0  0  0
 21 45  1  0  0  0  0
M  END
> <s_m_source_file>
AV-unprocessed.smi

> <i_m_source_file_index>
2081

> <i_lp_mmshare_version>
43012

> <i_f3d_flags>
0

> <s_epik_input>
W0NIM11TKD1PKSg9TylOKFtDSDNdKVtDSDJdQyg9TylbTkhdW0NIMl1jMVtjSF1bY0hdYyhuW2NIXTEpTjJbQ0gyXVtDSDJdT1tDSDJdW0NIMl0y

> <s_epik_cmdline>
J2VwaWtfcHl0aG9uJywgJy1waCcsICc3LjAnLCAnLXRuJywgJzgnLCAnLW1hJywgJzIwMCcsICctbWV0YWxfYmluZGluZycsICctaW1hZScsICc8aW5maWxlLm1hZT4nLCAnLW9tYWUnLCAnPG91dGZpbGUubWFlPic=

> <r_lp_tautomer_probability>
1

> <r_epik_Ionization_Penalty>
0.00477463

> <r_epik_Ionization_Penalty_Charging>
0

> <r_epik_Ionization_Penalty_Neutral>
0.00477463

> <r_epik_State_Penalty>
0.00345982

> <r_epik_Charging_Adjusted_Penalty>
0.00345982

> <i_epik_Tot_Q>
0

> <i_epik_Tot_abs_Q>
0

> <r_epik_Metal_State_Penalty>
-0

> <b_epik_Metal_Only>
0

> <s_lp_Force_Field>
OPLS_2005

> <r_lp_Energy>
5.64261

> <b_lp_Chiralities_Consistent>
1

> <s_lp_Variant>
AV-unprocessed.smi:2081-1

> <Gold.Version>
5.8.1

> <Gold.Id.Protein>
6NUR|6NUR_protein|mol2

> <Gold.PLP.Fitness>
48.8080

> <Gold.PLP.PLP>
-40.4344

> <Gold.PLP.part.hbond>
-3.7595

> <Gold.PLP.part.metal>
0.0000

> <Gold.PLP.part.buried>
-3.0875

> <Gold.PLP.part.nonpolar>
-33.1728

> <Gold.PLP.part.repulsive>
0.1187

> <Gold.PLP.ligand.clash>
0.0000

> <Gold.PLP.ligand.torsion>
1.6414

> <Gold.PLP.Chemscore.Hbond>
2.9760

> <Gold.PLP.Chemscore.CHOScore>
0.0000

> <Gold.PLP.Chemscore.Metal>
0.0000

> <Gold.Chemscore.Hbonds>
donor molecule, donor type, donor heavy atom, donor atom, acceptor molecule, acceptor atom, score
      L1  H     6    29       P1  7948  1.00
      P1  H  6896  6908       L1    23  0.78
      P1  H  7997  8008       L1    18  0.95
      P1  H 10752 10763       L1     5  0.08

> <Gold.PLP.Chemscore.Internal.Correction>
2.7283

> <Gold.Rescore>
     Score         DG    S(hbond)    S(metal)    S(lipo)     H(rot)  DE(clash)    DE(int)     intcor
     16.47     -19.83       2.64        0.00      92.72       2.07       0.47       2.89       ----

> <Gold.Chemscore.Fitness>
16.4677

> <Gold.Chemscore.DG>
-19.8342

> <Gold.Chemscore.ZeroCoef>
-5.4800

> <Gold.Chemscore.Hbond>
2.6398

> <Gold.Chemscore.Metal>
0.0000

> <Gold.Chemscore.Lipo>
92.7239

> <Gold.Chemscore.Internal_Hbond>
0.0000

> <Gold.Chemscore.DEClash>
0.4748

> <Gold.Chemscore.DEInternal>
2.8916

> <Gold.Chemscore.Rot>
2.0748

> <Gold.Chemscore.Internal.Correction>
   9.000000E+99

> <Gold.Chemscore.Hbonds>
donor molecule, donor type, donor heavy atom, donor atom, acceptor molecule, acceptor atom, score
      L1  H     6    29       P1  7948  0.54
      P1  H  6896  6908       L1    23  0.78
      P1  H  7997  8008       L1    18  0.21
      P1  H 10752 10763       L1     5  0.05

> <Gold.Chemscore.Hbond.Weighted>
-8.8169

> <Gold.Chemscore.Metal.Weighted>
-0.0000

> <Gold.Chemscore.Lipo.Weighted>
-10.8487

> <Gold.Chemscore.Internal_Hbond.Weighted>
0.0000

> <Gold.Chemscore.DEClash.Weighted>
0.4748

> <Gold.Chemscore.DEInternal.Weighted>
2.8916

> <Gold.Chemscore.Rot.Weighted>
5.3115

> <Gold.Chemscore.Internal.Correction.Weighted>
   9.000000E+99

> <Gold.Protein.RotatedTorsions>
[ 6907 6896 6895 6894 ] final  130.08 input  -60.11 | X-H torsion
[ 7974 7965 7964 7962 ] final   16.54 input  175.53 | X-H torsion
[ 8008 7997 7996 7995 ] final  -71.50 input   59.86 | X-H torsion
[ 10167 10162 10161 10158 ] final  -37.10 input  -65.29 | X-H torsion
[ 10718 10713 10712 10709 ] final    8.29 input   66.30 | X-H torsion
[ 10763 10752 10751 10750 ] final   98.93 input  -60.55 | X-H torsion
[ 11005 11000 10999 10996 ] final -103.51 input  -57.11 | X-H torsion

> <Gold.Protein.ActiveResidues>
 VAL166  LYS551  ARG553  GLY616  TRP617  ASP618  TYR619  PRO620  LYS621  CYS622 
 ASP623  PHE694  ASN695  SER759  ASP760  ASP761  ALA762  ILE779  LEU786  VAL792 
 PHE793  MET794  SER795  GLU796  ALA797  LYS798  CYS799  TRP800  GLU811  SER814 

> <Gold.Protein.RotatedAtoms>
  152.3561  133.6239  159.5980 H   0  0  0  0  0  0  0  0  0  0  0  0  # atno 6907 bound_to 6896
  150.7570  133.9497  159.3490 H   0  0  0  0  0  0  0  0  0  0  0  0  # atno 6908 bound_to 6896
  151.7342  135.0869  160.0356 H   0  0  0  0  0  0  0  0  0  0  0  0  # atno 6909 bound_to 6896
  146.2246  139.8733  142.8583 H   0  0  0  0  0  0  0  0  0  0  0  0  # atno 7974 bound_to 7965
  154.5093  140.0814  156.7957 H   0  0  0  0  0  0  0  0  0  0  0  0  # atno 8008 bound_to 7997
  155.3822  140.3428  155.4229 H   0  0  0  0  0  0  0  0  0  0  0  0  # atno 8009 bound_to 7997
  156.1553  140.1571  156.8689 H   0  0  0  0  0  0  0  0  0  0  0  0  # atno 8010 bound_to 7997
  140.7127  143.3364  151.2453 H   0  0  0  0  0  0  0  0  0  0  0  0  # atno 10167 bound_to 10162
  156.9495  130.5891  149.5656 H   0  0  0  0  0  0  0  0  0  0  0  0  # atno 10718 bound_to 10713
  153.2952  135.4131  155.1203 H   0  0  0  0  0  0  0  0  0  0  0  0  # atno 10763 bound_to 10752
  154.8532  135.3528  154.5927 H   0  0  0  0  0  0  0  0  0  0  0  0  # atno 10764 bound_to 10752
  153.6351  135.7059  153.5320 H   0  0  0  0  0  0  0  0  0  0  0  0  # atno 10765 bound_to 10752
  141.1142  133.8646  157.1495 H   0  0  0  0  0  0  0  0  0  0  0  0  # atno 11005 bound_to 11000
  145.2586  141.0069  143.3839 LP  0  0  0  0  0  0  0  0  0  0  0  0  # atno 17320 bound_to 7965
  144.9316  139.4292  143.6492 LP  0  0  0  0  0  0  0  0  0  0  0  0  # atno 17321 bound_to 7965
  139.6861  143.9772  152.2834 LP  0  0  0  0  0  0  0  0  0  0  0  0  # atno 17342 bound_to 10162
  139.9418  144.6677  150.8259 LP  0  0  0  0  0  0  0  0  0  0  0  0  # atno 17343 bound_to 10162
  156.0369  130.5455  150.8675 LP  0  0  0  0  0  0  0  0  0  0  0  0  # atno 17370 bound_to 10713
  157.5731  131.0946  150.9387 LP  0  0  0  0  0  0  0  0  0  0  0  0  # atno 17371 bound_to 10713
  140.0054  135.0010  157.0281 LP  0  0  0  0  0  0  0  0  0  0  0  0  # atno 17394 bound_to 11000
  140.4691  134.1405  155.7201 LP  0  0  0  0  0  0  0  0  0  0  0  0  # atno 17395 bound_to 11000

$$$$
