AV-unprocessed.smi:1343|AV-procd|sdf|5508|dock3
  -GOLD-   22720 5 93D 1   1.00000     0.00000
 Structure written by MMmdl.
 38 40  0  0  0  0  0  0  0  0  1 V2000
  152.1530  140.5198  158.2771 O   0  0  0  0  0  0  0  0  0  0  0  0
  151.8909  141.7177  158.1478 C   0  0  0  0  0  0  0  0  0  0  0  0
  150.8716  142.1557  157.0777 C   0  0  0  0  0  0  0  0  0  0  0  0
  150.5884  141.0740  156.0720 C   0  0  0  0  0  0  0  0  0  0  0  0
  151.4523  140.0936  155.6472 C   0  0  0  0  0  0  0  0  0  0  0  0
  150.7169  139.0391  154.4712 S   0  0  0  0  0  0  0  0  0  0  0  0
  149.2312  139.9772  154.6091 C   0  0  0  0  0  0  0  0  0  0  0  0
  148.0451  139.6808  153.8738 N   0  0  0  0  0  0  0  0  0  0  0  0
  147.8017  138.3467  153.3397 C   0  0  0  0  0  0  0  0  0  0  0  0
  146.4419  138.4671  152.6581 C   0  0  0  0  0  0  0  0  0  0  0  0
  146.1058  139.8516  152.8925 N   0  0  0  0  0  0  0  0  0  0  0  0
  147.0306  140.5218  153.5834 C   0  0  0  0  0  0  0  0  0  0  0  0
  146.9363  141.7102  153.8864 O   0  0  0  0  0  0  0  0  0  0  0  0
  149.3260  140.9918  155.4763 N   0  0  0  0  0  0  0  0  0  0  0  0
  152.4657  142.6661  158.9283 N   0  0  0  0  0  0  0  0  0  0  0  0
  152.1813  144.1073  158.8720 C   0  0  0  0  0  0  0  0  0  0  0  0
  151.3986  144.5090  160.1349 C   0  0  0  0  0  0  0  0  0  0  0  0
  152.1776  144.1256  161.4070 C   0  0  0  0  0  0  0  0  0  0  0  0
  152.6409  142.6567  161.3702 C   0  0  0  0  0  0  0  0  0  0  0  0
  153.3606  142.3375  160.0464 C   0  0  0  0  0  0  0  0  0  0  0  0
  149.9429  142.4445  157.5713 H   0  0  0  0  0  0  0  0  0  0  0  0
  151.2517  143.0439  156.5716 H   0  0  0  0  0  0  0  0  0  0  0  0
  152.4764  139.9334  155.9498 H   0  0  0  0  0  0  0  0  0  0  0  0
  148.5801  138.0697  152.6276 H   0  0  0  0  0  0  0  0  0  0  0  0
  147.7811  137.6067  154.1407 H   0  0  0  0  0  0  0  0  0  0  0  0
  146.4985  138.2593  151.5891 H   0  0  0  0  0  0  0  0  0  0  0  0
  145.6975  137.8108  153.1097 H   0  0  0  0  0  0  0  0  0  0  0  0
  145.2456  140.2637  152.5614 H   0  0  0  0  0  0  0  0  0  0  0  0
  153.1240  144.6549  158.8311 H   0  0  0  0  0  0  0  0  0  0  0  0
  151.6340  144.4146  157.9826 H   0  0  0  0  0  0  0  0  0  0  0  0
  151.1991  145.5807  160.1290 H   0  0  0  0  0  0  0  0  0  0  0  0
  150.4273  144.0123  160.1352 H   0  0  0  0  0  0  0  0  0  0  0  0
  153.0518  144.7716  161.4961 H   0  0  0  0  0  0  0  0  0  0  0  0
  151.5683  144.3079  162.2923 H   0  0  0  0  0  0  0  0  0  0  0  0
  153.2992  142.4519  162.2148 H   0  0  0  0  0  0  0  0  0  0  0  0
  151.7784  141.9981  161.4828 H   0  0  0  0  0  0  0  0  0  0  0  0
  153.6818  141.2950  160.0429 H   0  0  0  0  0  0  0  0  0  0  0  0
  154.2739  142.9282  159.9639 H   0  0  0  0  0  0  0  0  0  0  0  0
  1  2  2  0  0  0  0
  2  3  1  0  0  0  0
  2 15  1  0  0  0  0
  3  4  1  0  0  0  0
  3 21  1  0  0  0  0
  3 22  1  0  0  0  0
  4 14  1  0  0  0  0
  4  5  2  0  0  0  0
  5  6  1  0  0  0  0
  5 23  1  0  0  0  0
  6  7  1  0  0  0  0
  7  8  1  0  0  0  0
  7 14  2  0  0  0  0
  8 12  1  0  0  0  0
  8  9  1  0  0  0  0
  9 10  1  0  0  0  0
  9 24  1  0  0  0  0
  9 25  1  0  0  0  0
 10 11  1  0  0  0  0
 10 26  1  0  0  0  0
 10 27  1  0  0  0  0
 11 12  1  0  0  0  0
 11 28  1  0  0  0  0
 12 13  2  0  0  0  0
 15 20  1  0  0  0  0
 15 16  1  0  0  0  0
 16 17  1  0  0  0  0
 16 29  1  0  0  0  0
 16 30  1  0  0  0  0
 17 18  1  0  0  0  0
 17 31  1  0  0  0  0
 17 32  1  0  0  0  0
 18 19  1  0  0  0  0
 18 33  1  0  0  0  0
 18 34  1  0  0  0  0
 19 20  1  0  0  0  0
 19 35  1  0  0  0  0
 19 36  1  0  0  0  0
 20 37  1  0  0  0  0
 20 38  1  0  0  0  0
M  END
> <s_m_source_file>
AV-unprocessed.smi

> <i_m_source_file_index>
1343

> <i_lp_mmshare_version>
43012

> <i_f3d_flags>
0

> <s_epik_input>
W0NIMl0xW0NIMl1bQ0gyXVtDSDJdW0NIMl1OMUMoPU8pW0NIMl1jMltjSF1zYyhuMilOM1tDSDJdW0NIMl1bTkhdQzM9Tw==

> <s_epik_cmdline>
J2VwaWtfcHl0aG9uJywgJy1waCcsICc3LjAnLCAnLXRuJywgJzgnLCAnLW1hJywgJzIwMCcsICctbWV0YWxfYmluZGluZycsICctaW1hZScsICc8aW5maWxlLm1hZT4nLCAnLW9tYWUnLCAnPG91dGZpbGUubWFlPic=

> <r_lp_tautomer_probability>
1

> <r_epik_Ionization_Penalty>
0.0001265

> <r_epik_Ionization_Penalty_Charging>
0

> <r_epik_Ionization_Penalty_Neutral>
0.0001265

> <r_epik_State_Penalty>
-0

> <r_epik_Charging_Adjusted_Penalty>
0

> <i_epik_Tot_Q>
0

> <i_epik_Tot_abs_Q>
0

> <r_epik_Metal_State_Penalty>
-0

> <b_epik_Metal_Only>
0

> <s_lp_Force_Field>
OPLS_2005

> <r_lp_Energy>
52.3912

> <b_lp_Chiralities_Consistent>
1

> <s_lp_Variant>
AV-unprocessed.smi:1343-1

> <Gold.Version>
5.8.1

> <Gold.Id.Protein>
6NUR|6NUR_protein|mol2

> <Gold.PLP.Fitness>
47.7873

> <Gold.PLP.PLP>
-46.3409

> <Gold.PLP.part.hbond>
-1.0000

> <Gold.PLP.part.metal>
0.0000

> <Gold.PLP.part.buried>
-0.1600

> <Gold.PLP.part.nonpolar>
-45.1136

> <Gold.PLP.part.repulsive>
0.2792

> <Gold.PLP.ligand.clash>
0.0000

> <Gold.PLP.ligand.torsion>
0.7841

> <Gold.PLP.Chemscore.Hbond>
1.0000

> <Gold.PLP.Chemscore.CHOScore>
0.0000

> <Gold.PLP.Chemscore.Metal>
0.0000

> <Gold.Chemscore.Hbonds>
donor molecule, donor type, donor heavy atom, donor atom, acceptor molecule, acceptor atom, score
      L1  H    11    28       P1 10175  1.00

> <Gold.PLP.Chemscore.Internal.Correction>
0.0146

> <Gold.Rescore>
     Score         DG    S(hbond)    S(metal)    S(lipo)     H(rot)  DE(clash)    DE(int)     intcor
     13.71     -17.26       1.00        0.00      99.89       1.27       0.34       3.21       ----

> <Gold.Chemscore.Fitness>
13.7069

> <Gold.Chemscore.DG>
-17.2577

> <Gold.Chemscore.ZeroCoef>
-5.4800

> <Gold.Chemscore.Hbond>
0.9990

> <Gold.Chemscore.Metal>
0.0000

> <Gold.Chemscore.Lipo>
99.8866

> <Gold.Chemscore.Internal_Hbond>
0.0000

> <Gold.Chemscore.DEClash>
0.3444

> <Gold.Chemscore.DEInternal>
3.2064

> <Gold.Chemscore.Rot>
1.2678

> <Gold.Chemscore.Internal.Correction>
   9.000000E+99

> <Gold.Chemscore.Hbonds>
donor molecule, donor type, donor heavy atom, donor atom, acceptor molecule, acceptor atom, score
      L1  H    11    28       P1 10175  0.82

> <Gold.Chemscore.Hbond.Weighted>
-3.3366

> <Gold.Chemscore.Metal.Weighted>
-0.0000

> <Gold.Chemscore.Lipo.Weighted>
-11.6867

> <Gold.Chemscore.Internal_Hbond.Weighted>
0.0000

> <Gold.Chemscore.DEClash.Weighted>
0.3444

> <Gold.Chemscore.DEInternal.Weighted>
3.2064

> <Gold.Chemscore.Rot.Weighted>
3.2456

> <Gold.Chemscore.Internal.Correction.Weighted>
   9.000000E+99

> <Gold.Protein.RotatedTorsions>
[ 6907 6896 6895 6894 ] final -137.71 input  -60.11 | X-H torsion
[ 7974 7965 7964 7962 ] final  163.69 input  175.53 | X-H torsion
[ 8008 7997 7996 7995 ] final  -43.39 input   59.86 | X-H torsion
[ 10167 10162 10161 10158 ] final   53.19 input  -65.29 | X-H torsion
[ 10718 10713 10712 10709 ] final   -4.55 input   66.30 | X-H torsion
[ 10763 10752 10751 10750 ] final  -35.36 input  -60.55 | X-H torsion
[ 11005 11000 10999 10996 ] final   98.17 input  -57.11 | X-H torsion

> <Gold.Protein.ActiveResidues>
 VAL166  LYS551  ARG553  GLY616  TRP617  ASP618  TYR619  PRO620  LYS621  CYS622 
 ASP623  PHE694  ASN695  SER759  ASP760  ASP761  ALA762  ILE779  LEU786  VAL792 
 PHE793  MET794  SER795  GLU796  ALA797  LYS798  CYS799  TRP800  GLU811  SER814 

> <Gold.Protein.RotatedAtoms>
  151.0258  133.5835  159.2665 H   0  0  0  0  0  0  0  0  0  0  0  0  # atno 6907 bound_to 6896
  151.2934  135.0747  159.9222 H   0  0  0  0  0  0  0  0  0  0  0  0  # atno 6908 bound_to 6896
  152.5334  133.9953  159.7923 H   0  0  0  0  0  0  0  0  0  0  0  0  # atno 6909 bound_to 6896
  144.7578  139.8219  143.6343 H   0  0  0  0  0  0  0  0  0  0  0  0  # atno 7974 bound_to 7965
  154.3997  140.1449  156.3511 H   0  0  0  0  0  0  0  0  0  0  0  0  # atno 8008 bound_to 7997
  155.8268  140.3467  155.5527 H   0  0  0  0  0  0  0  0  0  0  0  0  # atno 8009 bound_to 7997
  155.8230  140.0901  157.1828 H   0  0  0  0  0  0  0  0  0  0  0  0  # atno 8010 bound_to 7997
  140.2433  144.3559  150.6372 H   0  0  0  0  0  0  0  0  0  0  0  0  # atno 10167 bound_to 10162
  156.7597  130.5265  149.5787 H   0  0  0  0  0  0  0  0  0  0  0  0  # atno 10718 bound_to 10713
  153.8619  135.6839  153.4782 H   0  0  0  0  0  0  0  0  0  0  0  0  # atno 10763 bound_to 10752
  153.1337  135.4687  154.9386 H   0  0  0  0  0  0  0  0  0  0  0  0  # atno 10764 bound_to 10752
  154.7754  135.3252  154.8051 H   0  0  0  0  0  0  0  0  0  0  0  0  # atno 10765 bound_to 10752
  139.8773  134.9036  156.4416 H   0  0  0  0  0  0  0  0  0  0  0  0  # atno 11005 bound_to 11000
  146.1608  139.4722  142.9989 LP  0  0  0  0  0  0  0  0  0  0  0  0  # atno 17320 bound_to 7965
  145.6719  141.0214  143.1653 LP  0  0  0  0  0  0  0  0  0  0  0  0  # atno 17321 bound_to 7965
  140.6096  143.2169  151.6912 LP  0  0  0  0  0  0  0  0  0  0  0  0  # atno 17342 bound_to 10162
  139.5070  144.3662  152.0514 LP  0  0  0  0  0  0  0  0  0  0  0  0  # atno 17343 bound_to 10162
  156.1347  130.6203  151.0383 LP  0  0  0  0  0  0  0  0  0  0  0  0  # atno 17370 bound_to 10713
  157.6740  131.0855  150.7541 LP  0  0  0  0  0  0  0  0  0  0  0  0  # atno 17371 bound_to 10713
  140.8995  133.7790  155.9664 LP  0  0  0  0  0  0  0  0  0  0  0  0  # atno 17394 bound_to 11000
  140.8666  134.2776  157.5210 LP  0  0  0  0  0  0  0  0  0  0  0  0  # atno 17395 bound_to 11000

$$$$
