AV-unprocessed.smi:2061|AV-procd|sdf|8384|dock7
  -GOLD-   2272011 63D 1   1.00000     0.00000
 Structure written by MMmdl.
 45 46  0  0  0  0  0  0  0  0  3 V2000
  149.7317  140.7096  153.8172 C   0  0  0  0  0  0  0  0  0  0  0  0
  150.4985  139.4579  154.0787 C   0  0  0  0  0  0  0  0  0  0  0  0
  150.1628  138.1350  154.0207 C   0  0  0  0  0  0  0  0  0  0  0  0
  151.3698  137.4772  154.3839 C   0  0  0  0  0  0  0  0  0  0  0  0
  151.5460  136.1507  154.4868 N   0  5  0  0  0  0  0  0  0  0  0  0
  150.6280  135.3871  155.1212 C   0  0  0  0  0  0  0  0  0  0  0  0
  150.7155  134.9327  156.2644 O   0  0  0  0  0  0  0  0  0  0  0  0
  149.5408  135.1271  154.3815 N   0  0  0  0  0  0  0  0  0  0  0  0
  148.4037  134.3120  154.7976 C   0  0  0  0  0  0  0  0  0  0  0  0
  147.0630  135.0923  154.7876 C   0  0  2  0  0  0  0  0  0  0  0  0
  146.0447  134.4168  155.7382 C   0  0  0  0  0  0  0  0  0  0  0  0
  146.5681  135.2384  153.3803 N   0  3  1  0  0  0  0  0  0  0  0  0
  146.0544  133.9988  152.7379 C   0  0  0  0  0  0  0  0  0  0  0  0
  145.6647  134.2575  151.2702 C   0  0  1  0  0  0  0  0  0  0  0  0
  145.0344  133.0212  150.6195 C   0  0  0  0  0  0  0  0  0  0  0  0
  144.7166  135.3167  151.1975 O   0  0  0  0  0  0  0  0  0  0  0  0
  145.1537  136.5438  151.7765 C   0  0  2  0  0  0  0  0  0  0  0  0
  146.2449  137.2364  150.9401 C   0  0  0  0  0  0  0  0  0  0  0  0
  145.5533  136.3181  153.2464 C   0  0  0  0  0  0  0  0  0  0  0  0
  152.3463  138.3266  154.6555 N   0  0  0  0  0  0  0  0  0  0  0  0
  151.7979  139.5989  154.4552 O   0  0  0  0  0  0  0  0  0  0  0  0
  148.7737  140.6908  154.3367 H   0  0  0  0  0  0  0  0  0  0  0  0
  149.5367  140.8255  152.7513 H   0  0  0  0  0  0  0  0  0  0  0  0
  150.2821  141.5869  154.1578 H   0  0  0  0  0  0  0  0  0  0  0  0
  149.2081  137.7054  153.7574 H   0  0  0  0  0  0  0  0  0  0  0  0
  149.5065  135.5234  153.4533 H   0  0  0  0  0  0  0  0  0  0  0  0
  148.3704  133.4286  154.1609 H   0  0  0  0  0  0  0  0  0  0  0  0
  148.6075  133.9468  155.8045 H   0  0  0  0  0  0  0  0  0  0  0  0
  147.2341  136.0964  155.1792 H   0  0  0  0  0  0  0  0  0  0  0  0
  146.4472  134.3011  156.7442 H   0  0  0  0  0  0  0  0  0  0  0  0
  145.7660  133.4239  155.3837 H   0  0  0  0  0  0  0  0  0  0  0  0
  145.1368  135.0093  155.8523 H   0  0  0  0  0  0  0  0  0  0  0  0
  146.8147  133.2186  152.7365 H   0  0  0  0  0  0  0  0  0  0  0  0
  145.1989  133.6231  153.3018 H   0  0  0  0  0  0  0  0  0  0  0  0
  146.5541  134.5210  150.6973 H   0  0  0  0  0  0  0  0  0  0  0  0
  145.7247  132.1774  150.6272 H   0  0  0  0  0  0  0  0  0  0  0  0
  144.7668  133.2211  149.5815 H   0  0  0  0  0  0  0  0  0  0  0  0
  144.1279  132.7172  151.1439 H   0  0  0  0  0  0  0  0  0  0  0  0
  144.2857  137.2039  151.7676 H   0  0  0  0  0  0  0  0  0  0  0  0
  146.4624  138.2285  151.3366 H   0  0  0  0  0  0  0  0  0  0  0  0
  145.9224  137.3598  149.9060 H   0  0  0  0  0  0  0  0  0  0  0  0
  147.1816  136.6795  150.9350 H   0  0  0  0  0  0  0  0  0  0  0  0
  144.6681  136.0430  153.8224 H   0  0  0  0  0  0  0  0  0  0  0  0
  145.9094  137.2579  153.6646 H   0  0  0  0  0  0  0  0  0  0  0  0
  147.3701  135.5178  152.8336 H   0  0  0  0  0  0  0  0  0  0  0  0
  1  2  1  0  0  0  0
  1 22  1  0  0  0  0
  1 23  1  0  0  0  0
  1 24  1  0  0  0  0
  2 21  1  0  0  0  0
  2  3  2  0  0  0  0
  3  4  1  0  0  0  0
  3 25  1  0  0  0  0
  4  5  1  0  0  0  0
  4 20  2  0  0  0  0
  5  6  1  0  0  0  0
  6  7  2  0  0  0  0
  6  8  1  0  0  0  0
  8  9  1  0  0  0  0
  8 26  1  0  0  0  0
  9 10  1  0  0  0  0
  9 27  1  0  0  0  0
  9 28  1  0  0  0  0
 10 11  1  0  0  0  0
 10 12  1  0  0  0  0
 10 29  1  0  0  0  0
 11 30  1  0  0  0  0
 11 31  1  0  0  0  0
 11 32  1  0  0  0  0
 12 19  1  0  0  0  0
 12 13  1  0  0  0  0
 12 45  1  0  0  0  0
 13 14  1  0  0  0  0
 13 33  1  0  0  0  0
 13 34  1  0  0  0  0
 14 15  1  0  0  0  0
 14 16  1  0  0  0  0
 14 35  1  0  0  0  0
 15 36  1  0  0  0  0
 15 37  1  0  0  0  0
 15 38  1  0  0  0  0
 16 17  1  0  0  0  0
 17 18  1  0  0  0  0
 17 19  1  0  0  0  0
 17 39  1  0  0  0  0
 18 40  1  0  0  0  0
 18 41  1  0  0  0  0
 18 42  1  0  0  0  0
 19 43  1  0  0  0  0
 19 44  1  0  0  0  0
 20 21  1  0  0  0  0
M  CHG  1   5  -1
M  CHG  1  12   1
M  END
> <s_m_source_file>
AV-unprocessed.smi

> <i_m_source_file_index>
2061

> <i_lp_mmshare_version>
43012

> <i_f3d_flags>
0

> <s_epik_input>
W0NIM11jMVtjSF1jKG5vMSlbTkhdQyg9TylbTkhdW0NIMl1bQ0BIXShbQ0gzXSlOMltDSDJdW0NAQEhdKFtDSDNdKU9bQ0BASF0oW0NIM10pW0NIMl0y

> <s_epik_cmdline>
J2VwaWtfcHl0aG9uJywgJy1waCcsICc3LjAnLCAnLXRuJywgJzgnLCAnLW1hJywgJzIwMCcsICctbWV0YWxfYmluZGluZycsICctaW1hZScsICc8aW5maWxlLm1hZT4nLCAnLW9tYWUnLCAnPG91dGZpbGUubWFlPic=

> <r_epik_Ionization_Penalty>
6.73511

> <r_epik_Ionization_Penalty_Charging>
6.73502

> <r_epik_Ionization_Penalty_Neutral>
9.50841e-05

> <r_epik_State_Penalty>
6.93549

> <r_epik_Charging_Adjusted_Penalty>
13.6705

> <i_epik_Tot_Q>
0

> <i_epik_Tot_abs_Q>
2

> <r_epik_Metal_State_Penalty>
2.87211

> <b_epik_Metal_Only>
1

> <s_lp_Force_Field>
OPLS_2005

> <r_lp_Energy>
11.3742

> <b_lp_Chiralities_Consistent>
1

> <s_lp_Variant>
AV-unprocessed.smi:2061-25

> <Gold.Version>
5.8.1

> <Gold.Id.Protein>
6NUR|6NUR_protein|mol2

> <Gold.PLP.Fitness>
46.1751

> <Gold.PLP.PLP>
-31.0376

> <Gold.PLP.part.hbond>
-4.3432

> <Gold.PLP.part.metal>
0.0000

> <Gold.PLP.part.buried>
-2.5846

> <Gold.PLP.part.nonpolar>
-26.2329

> <Gold.PLP.part.repulsive>
0.5263

> <Gold.PLP.ligand.clash>
0.0000

> <Gold.PLP.ligand.torsion>
1.4696

> <Gold.PLP.Chemscore.Hbond>
5.9840

> <Gold.PLP.Chemscore.CHOScore>
0.0000

> <Gold.PLP.Chemscore.Metal>
0.0000

> <Gold.Chemscore.Hbonds>
donor molecule, donor type, donor heavy atom, donor atom, acceptor molecule, acceptor atom, score
      L1  H     8    26       P1  7948  0.80
      L1  H    12    45       P1  7948  2.00
      P1  H  7989  7998       L1    21  0.05
      P1  H 10752 10764       L1     5  1.89

> <Gold.PLP.Chemscore.Internal.Correction>
0.1248

> <Gold.Rescore>
     Score         DG    S(hbond)    S(metal)    S(lipo)     H(rot)  DE(clash)    DE(int)     intcor
     12.79     -16.24       2.20        0.00      63.27       1.56       1.54       1.91       ----

> <Gold.Chemscore.Fitness>
12.7922

> <Gold.Chemscore.DG>
-16.2440

> <Gold.Chemscore.ZeroCoef>
-5.4800

> <Gold.Chemscore.Hbond>
2.1983

> <Gold.Chemscore.Metal>
0.0000

> <Gold.Chemscore.Lipo>
63.2710

> <Gold.Chemscore.Internal_Hbond>
0.0000

> <Gold.Chemscore.DEClash>
1.5375

> <Gold.Chemscore.DEInternal>
1.9143

> <Gold.Chemscore.Rot>
1.5550

> <Gold.Chemscore.Internal.Correction>
   9.000000E+99

> <Gold.Chemscore.Hbonds>
donor molecule, donor type, donor heavy atom, donor atom, acceptor molecule, acceptor atom, score
      L1  H     8    26       P1  7948  0.12
      L1  H    12    45       P1  7948  0.98
      P1  H 10752 10764       L1     5  0.77

> <Gold.Chemscore.Hbond.Weighted>
-7.3422

> <Gold.Chemscore.Metal.Weighted>
-0.0000

> <Gold.Chemscore.Lipo.Weighted>
-7.4027

> <Gold.Chemscore.Internal_Hbond.Weighted>
0.0000

> <Gold.Chemscore.DEClash.Weighted>
1.5375

> <Gold.Chemscore.DEInternal.Weighted>
1.9143

> <Gold.Chemscore.Rot.Weighted>
3.9809

> <Gold.Chemscore.Internal.Correction.Weighted>
   9.000000E+99

> <Gold.Protein.RotatedTorsions>
[ 6907 6896 6895 6894 ] final   61.66 input  -60.11 | X-H torsion
[ 7974 7965 7964 7962 ] final   74.09 input  175.53 | X-H torsion
[ 8008 7997 7996 7995 ] final   73.01 input   59.86 | X-H torsion
[ 10167 10162 10161 10158 ] final -100.97 input  -65.29 | X-H torsion
[ 10718 10713 10712 10709 ] final  -69.36 input   66.30 | X-H torsion
[ 10763 10752 10751 10750 ] final  -91.34 input  -60.55 | X-H torsion
[ 11005 11000 10999 10996 ] final  -81.37 input  -57.11 | X-H torsion

> <Gold.Protein.ActiveResidues>
 VAL166  LYS551  ARG553  GLY616  TRP617  ASP618  TYR619  PRO620  LYS621  CYS622 
 ASP623  PHE694  ASN695  SER759  ASP760  ASP761  ALA762  ILE779  LEU786  VAL792 
 PHE793  MET794  SER795  GLU796  ALA797  LYS798  CYS799  TRP800  GLU811  SER814 

> <Gold.Protein.RotatedAtoms>
  152.4107  134.6128  160.0030 H   0  0  0  0  0  0  0  0  0  0  0  0  # atno 6907 bound_to 6896
  151.6306  133.3326  159.3116 H   0  0  0  0  0  0  0  0  0  0  0  0  # atno 6908 bound_to 6896
  150.7999  134.7125  159.6657 H   0  0  0  0  0  0  0  0  0  0  0  0  # atno 6909 bound_to 6896
  145.7327  139.2690  143.1532 H   0  0  0  0  0  0  0  0  0  0  0  0  # atno 7974 bound_to 7965
  155.7773  140.3483  155.5278 H   0  0  0  0  0  0  0  0  0  0  0  0  # atno 8008 bound_to 7997
  155.8763  140.0995  157.1536 H   0  0  0  0  0  0  0  0  0  0  0  0  # atno 8009 bound_to 7997
  154.4021  140.1331  156.4128 H   0  0  0  0  0  0  0  0  0  0  0  0  # atno 8010 bound_to 7997
  140.2462  143.3504  152.0756 H   0  0  0  0  0  0  0  0  0  0  0  0  # atno 10167 bound_to 10162
  156.0459  130.4311  150.2136 H   0  0  0  0  0  0  0  0  0  0  0  0  # atno 10718 bound_to 10713
  154.6751  135.5271  153.8188 H   0  0  0  0  0  0  0  0  0  0  0  0  # atno 10763 bound_to 10752
  153.0527  135.6538  154.0664 H   0  0  0  0  0  0  0  0  0  0  0  0  # atno 10764 bound_to 10752
  154.0559  135.2965  155.3313 H   0  0  0  0  0  0  0  0  0  0  0  0  # atno 10765 bound_to 10752
  141.1666  133.7193  156.8412 H   0  0  0  0  0  0  0  0  0  0  0  0  # atno 11005 bound_to 11000
  146.0522  140.8057  142.9776 LP  0  0  0  0  0  0  0  0  0  0  0  0  # atno 17320 bound_to 7965
  144.6889  140.3070  143.7254 LP  0  0  0  0  0  0  0  0  0  0  0  0  # atno 17321 bound_to 7965
  139.5061  144.6807  151.6016 LP  0  0  0  0  0  0  0  0  0  0  0  0  # atno 17342 bound_to 10162
  140.6075  143.9496  150.6429 LP  0  0  0  0  0  0  0  0  0  0  0  0  # atno 17343 bound_to 10162
  157.0226  130.9984  151.3335 LP  0  0  0  0  0  0  0  0  0  0  0  0  # atno 17370 bound_to 10713
  157.5334  130.8073  149.7943 LP  0  0  0  0  0  0  0  0  0  0  0  0  # atno 17371 bound_to 10713
  140.1982  134.8916  157.3138 LP  0  0  0  0  0  0  0  0  0  0  0  0  # atno 17394 bound_to 11000
  140.2216  134.4016  155.7563 LP  0  0  0  0  0  0  0  0  0  0  0  0  # atno 17395 bound_to 11000

$$$$
