AV-unprocessed.smi:1352|AV-procd|sdf|5530|dock6
  -GOLD-   22720 5123D 1   1.00000     0.00000
 Structure written by MMmdl.
 47 48  0  0  0  0  0  0  0  0  2 V2000
  142.1460  136.3726  153.8137 C   0  0  0  0  0  0  0  0  0  0  0  0
  143.0760  136.4220  152.5931 C   0  0  2  0  0  0  0  0  0  0  0  0
  143.4588  135.0093  152.1215 C   0  0  0  0  0  0  0  0  0  0  0  0
  144.4055  135.0801  150.9118 C   0  0  2  0  0  0  0  0  0  0  0  0
  144.8165  133.6785  150.4387 C   0  0  0  0  0  0  0  0  0  0  0  0
  145.6355  135.9455  151.2476 C   0  0  0  0  0  0  0  0  0  0  0  0
  145.2374  137.3052  151.6956 N   0  3  2  0  0  0  0  0  0  0  0  0
  146.4090  138.1972  151.8870 C   0  0  0  0  0  0  0  0  0  0  0  0
  146.8755  138.2477  153.3549 C   0  0  0  0  0  0  0  0  0  0  0  0
  148.2124  138.8176  153.4737 N   0  0  0  0  0  0  0  0  0  0  0  0
  149.0450  138.6166  154.5064 C   0  0  0  0  0  0  0  0  0  0  0  0
  148.7450  137.9346  155.4874 O   0  0  0  0  0  0  0  0  0  0  0  0
  150.4104  139.3131  154.4160 C   0  0  0  0  0  0  0  0  0  0  0  0
  150.7131  140.1595  155.5825 N   0  0  0  0  0  0  0  0  0  0  0  0
  149.7711  141.1527  155.9169 C   0  0  0  0  0  0  0  0  0  0  0  0
  149.9489  141.9773  156.9612 C   0  0  0  0  0  0  0  0  0  0  0  0
  151.1472  141.8278  157.7525 C   0  0  0  0  0  0  0  0  0  0  0  0
  152.0532  140.8789  157.4434 C   0  0  0  0  0  0  0  0  0  0  0  0
  151.8611  139.9729  156.3049 C   0  0  0  0  0  0  0  0  0  0  0  0
  152.6804  139.0996  156.0178 O   0  0  0  0  0  0  0  0  0  0  0  0
  144.3439  137.2483  152.8831 C   0  0  0  0  0  0  0  0  0  0  0  0
  142.6325  135.8937  154.6642 H   0  0  0  0  0  0  0  0  0  0  0  0
  141.2364  135.8134  153.5920 H   0  0  0  0  0  0  0  0  0  0  0  0
  141.8480  137.3752  154.1218 H   0  0  0  0  0  0  0  0  0  0  0  0
  142.5302  136.9122  151.7853 H   0  0  0  0  0  0  0  0  0  0  0  0
  143.9384  134.4642  152.9361 H   0  0  0  0  0  0  0  0  0  0  0  0
  142.5609  134.4487  151.8585 H   0  0  0  0  0  0  0  0  0  0  0  0
  143.8698  135.5592  150.0906 H   0  0  0  0  0  0  0  0  0  0  0  0
  145.3631  133.1418  151.2148 H   0  0  0  0  0  0  0  0  0  0  0  0
  145.4568  133.7327  149.5575 H   0  0  0  0  0  0  0  0  0  0  0  0
  143.9432  133.0816  150.1736 H   0  0  0  0  0  0  0  0  0  0  0  0
  146.2366  135.4688  152.0239 H   0  0  0  0  0  0  0  0  0  0  0  0
  146.2674  136.0249  150.3619 H   0  0  0  0  0  0  0  0  0  0  0  0
  147.2232  137.8876  151.2300 H   0  0  0  0  0  0  0  0  0  0  0  0
  146.1371  139.2083  151.5805 H   0  0  0  0  0  0  0  0  0  0  0  0
  146.1716  138.8219  153.9600 H   0  0  0  0  0  0  0  0  0  0  0  0
  146.9123  137.2487  153.7876 H   0  0  0  0  0  0  0  0  0  0  0  0
  148.5354  139.3940  152.7094 H   0  0  0  0  0  0  0  0  0  0  0  0
  151.1925  138.5620  154.2875 H   0  0  0  0  0  0  0  0  0  0  0  0
  150.4303  139.9040  153.4990 H   0  0  0  0  0  0  0  0  0  0  0  0
  148.8997  141.1951  155.2796 H   0  0  0  0  0  0  0  0  0  0  0  0
  149.2139  142.7305  157.2048 H   0  0  0  0  0  0  0  0  0  0  0  0
  151.3171  142.4795  158.5970 H   0  0  0  0  0  0  0  0  0  0  0  0
  152.9434  140.7811  158.0473 H   0  0  0  0  0  0  0  0  0  0  0  0
  144.0483  138.2546  153.1778 H   0  0  0  0  0  0  0  0  0  0  0  0
  144.8886  136.8212  153.7271 H   0  0  0  0  0  0  0  0  0  0  0  0
  144.6990  137.7015  150.9384 H   0  0  0  0  0  0  0  0  0  0  0  0
  1  2  1  0  0  0  0
  1 22  1  0  0  0  0
  1 23  1  0  0  0  0
  1 24  1  0  0  0  0
  2 21  1  0  0  0  0
  2  3  1  0  0  0  0
  2 25  1  0  0  0  0
  3  4  1  0  0  0  0
  3 26  1  0  0  0  0
  3 27  1  0  0  0  0
  4  5  1  0  0  0  0
  4  6  1  0  0  0  0
  4 28  1  0  0  0  0
  5 29  1  0  0  0  0
  5 30  1  0  0  0  0
  5 31  1  0  0  0  0
  6  7  1  0  0  0  0
  6 32  1  0  0  0  0
  6 33  1  0  0  0  0
  7  8  1  0  0  0  0
  7 21  1  0  0  0  0
  7 47  1  0  0  0  0
  8  9  1  0  0  0  0
  8 34  1  0  0  0  0
  8 35  1  0  0  0  0
  9 10  1  0  0  0  0
  9 36  1  0  0  0  0
  9 37  1  0  0  0  0
 10 11  1  0  0  0  0
 10 38  1  0  0  0  0
 11 12  2  0  0  0  0
 11 13  1  0  0  0  0
 13 14  1  0  0  0  0
 13 39  1  0  0  0  0
 13 40  1  0  0  0  0
 14 19  1  0  0  0  0
 14 15  1  0  0  0  0
 15 16  2  0  0  0  0
 15 41  1  0  0  0  0
 16 17  1  0  0  0  0
 16 42  1  0  0  0  0
 17 18  2  0  0  0  0
 17 43  1  0  0  0  0
 18 19  1  0  0  0  0
 18 44  1  0  0  0  0
 19 20  2  0  0  0  0
 21 45  1  0  0  0  0
 21 46  1  0  0  0  0
M  CHG  1   7   1
M  END
> <s_m_source_file>
AV-unprocessed.smi

> <i_m_source_file_index>
1352

> <i_lp_mmshare_version>
43012

> <i_f3d_flags>
0

> <s_epik_input>
W0NIM11bQ0BASF0xW0NIMl1bQ0BASF0oW0NIM10pW0NIMl1OKFtDSDJdMSlbQ0gyXVtDSDJdW05IXUMoPU8pW0NIMl1uMltjSF1bY0hdW2NIXVtjSF1jMj1P

> <s_epik_cmdline>
J2VwaWtfcHl0aG9uJywgJy1waCcsICc3LjAnLCAnLXRuJywgJzgnLCAnLW1hJywgJzIwMCcsICctbWV0YWxfYmluZGluZycsICctaW1hZScsICc8aW5maWxlLm1hZT4nLCAnLW9tYWUnLCAnPG91dGZpbGUubWFlPic=

> <r_lp_tautomer_probability>
1

> <r_epik_Ionization_Penalty>
0.00156146

> <r_epik_Ionization_Penalty_Charging>
0.00156138

> <r_epik_Ionization_Penalty_Neutral>
8.12891e-08

> <r_epik_State_Penalty>
0.00104868

> <r_epik_Charging_Adjusted_Penalty>
0.00261006

> <i_epik_Tot_Q>
1

> <i_epik_Tot_abs_Q>
1

> <r_epik_Metal_State_Penalty>
-0

> <b_epik_Metal_Only>
0

> <s_lp_Force_Field>
OPLS_2005

> <r_lp_Energy>
25.1883

> <b_lp_Chiralities_Consistent>
1

> <s_lp_Variant>
AV-unprocessed.smi:1352-3

> <Gold.Version>
5.8.1

> <Gold.Id.Protein>
6NUR|6NUR_protein|mol2

> <Gold.PLP.Fitness>
47.2325

> <Gold.PLP.PLP>
-39.6002

> <Gold.PLP.part.hbond>
-3.7388

> <Gold.PLP.part.metal>
0.0000

> <Gold.PLP.part.buried>
-4.6802

> <Gold.PLP.part.nonpolar>
-32.6873

> <Gold.PLP.part.repulsive>
0.1391

> <Gold.PLP.ligand.clash>
0.0000

> <Gold.PLP.ligand.torsion>
0.6977

> <Gold.PLP.Chemscore.Hbond>
3.0000

> <Gold.PLP.Chemscore.CHOScore>
0.0000

> <Gold.PLP.Chemscore.Metal>
0.0000

> <Gold.Chemscore.Hbonds>
donor molecule, donor type, donor heavy atom, donor atom, acceptor molecule, acceptor atom, score
      L1  H     7    47       P1 10171  1.00
      L1  H    10    38       P1  7957  1.00
      P1  H  7997  8010       L1    20  0.99

> <Gold.PLP.Chemscore.Internal.Correction>
0.0276

> <Gold.Rescore>
     Score         DG    S(hbond)    S(metal)    S(lipo)     H(rot)  DE(clash)    DE(int)     intcor
     19.32     -20.11       2.91        0.00      82.13       1.83       0.08       0.71       ----

> <Gold.Chemscore.Fitness>
19.3192

> <Gold.Chemscore.DG>
-20.1095

> <Gold.Chemscore.ZeroCoef>
-5.4800

> <Gold.Chemscore.Hbond>
2.9080

> <Gold.Chemscore.Metal>
0.0000

> <Gold.Chemscore.Lipo>
82.1278

> <Gold.Chemscore.Internal_Hbond>
0.0000

> <Gold.Chemscore.DEClash>
0.0759

> <Gold.Chemscore.DEInternal>
0.7145

> <Gold.Chemscore.Rot>
1.8329

> <Gold.Chemscore.Internal.Correction>
   9.000000E+99

> <Gold.Chemscore.Hbonds>
donor molecule, donor type, donor heavy atom, donor atom, acceptor molecule, acceptor atom, score
      L1  H     7    47       P1 10171  1.00
      L1  H    10    38       P1  7957  0.97
      P1  H  7997  8010       L1    20  0.27

> <Gold.Chemscore.Hbond.Weighted>
-9.7128

> <Gold.Chemscore.Metal.Weighted>
-0.0000

> <Gold.Chemscore.Lipo.Weighted>
-9.6090

> <Gold.Chemscore.Internal_Hbond.Weighted>
0.0000

> <Gold.Chemscore.DEClash.Weighted>
0.0759

> <Gold.Chemscore.DEInternal.Weighted>
0.7145

> <Gold.Chemscore.Rot.Weighted>
4.6922

> <Gold.Chemscore.Internal.Correction.Weighted>
   9.000000E+99

> <Gold.Protein.RotatedTorsions>
[ 6907 6896 6895 6894 ] final -110.01 input  -60.11 | X-H torsion
[ 7974 7965 7964 7962 ] final -118.32 input  175.53 | X-H torsion
[ 8008 7997 7996 7995 ] final   98.80 input   59.86 | X-H torsion
[ 10167 10162 10161 10158 ] final -119.06 input  -65.29 | X-H torsion
[ 10718 10713 10712 10709 ] final   27.15 input   66.30 | X-H torsion
[ 10763 10752 10751 10750 ] final  176.48 input  -60.55 | X-H torsion
[ 11005 11000 10999 10996 ] final   92.00 input  -57.11 | X-H torsion

> <Gold.Protein.ActiveResidues>
 VAL166  LYS551  ARG553  GLY616  TRP617  ASP618  TYR619  PRO620  LYS621  CYS622 
 ASP623  PHE694  ASN695  SER759  ASP760  ASP761  ALA762  ILE779  LEU786  VAL792 
 PHE793  MET794  SER795  GLU796  ALA797  LYS798  CYS799  TRP800  GLU811  SER814 

> <Gold.Protein.RotatedAtoms>
  150.7598  133.9445  159.3466 H   0  0  0  0  0  0  0  0  0  0  0  0  # atno 6907 bound_to 6896
  151.7356  135.0863  160.0316 H   0  0  0  0  0  0  0  0  0  0  0  0  # atno 6908 bound_to 6896
  152.3562  133.6202  159.6016 H   0  0  0  0  0  0  0  0  0  0  0  0  # atno 6909 bound_to 6896
  145.0751  140.8387  143.4072 H   0  0  0  0  0  0  0  0  0  0  0  0  # atno 7974 bound_to 7965
  156.1041  140.3238  155.7982 H   0  0  0  0  0  0  0  0  0  0  0  0  # atno 8008 bound_to 7997
  155.4786  140.0552  157.2987 H   0  0  0  0  0  0  0  0  0  0  0  0  # atno 8009 bound_to 7997
  154.4716  140.2014  155.9995 H   0  0  0  0  0  0  0  0  0  0  0  0  # atno 8010 bound_to 7997
  140.0508  143.5062  152.2083 H   0  0  0  0  0  0  0  0  0  0  0  0  # atno 10167 bound_to 10162
  157.2164  130.6958  149.6251 H   0  0  0  0  0  0  0  0  0  0  0  0  # atno 10718 bound_to 10713
  154.4817  135.2775  155.1566 H   0  0  0  0  0  0  0  0  0  0  0  0  # atno 10763 bound_to 10752
  154.3273  135.6197  153.5539 H   0  0  0  0  0  0  0  0  0  0  0  0  # atno 10764 bound_to 10752
  152.9876  135.5757  154.5219 H   0  0  0  0  0  0  0  0  0  0  0  0  # atno 10765 bound_to 10752
  139.8830  134.8707  156.3509 H   0  0  0  0  0  0  0  0  0  0  0  0  # atno 11005 bound_to 11000
  145.1245  139.2672  143.5571 LP  0  0  0  0  0  0  0  0  0  0  0  0  # atno 17320 bound_to 7965
  146.3530  140.0879  142.8614 LP  0  0  0  0  0  0  0  0  0  0  0  0  # atno 17321 bound_to 7965
  139.5954  144.7565  151.3298 LP  0  0  0  0  0  0  0  0  0  0  0  0  # atno 17342 bound_to 10162
  140.7218  143.7116  150.7765 LP  0  0  0  0  0  0  0  0  0  0  0  0  # atno 17343 bound_to 10162
  155.9686  130.4534  150.5811 LP  0  0  0  0  0  0  0  0  0  0  0  0  # atno 17370 bound_to 10713
  157.3620  131.0751  151.1628 LP  0  0  0  0  0  0  0  0  0  0  0  0  # atno 17371 bound_to 10713
  140.9594  133.7398  156.0381 LP  0  0  0  0  0  0  0  0  0  0  0  0  # atno 17394 bound_to 11000
  140.8008  134.3511  157.5440 LP  0  0  0  0  0  0  0  0  0  0  0  0  # atno 17395 bound_to 11000

$$$$
