AV-unprocessed.smi:3149|AV-procd|sdf|12006|dock8
  -GOLD-   2272017413D 1   1.00000     0.00000
 Structure written by MMmdl.
 37 38  0  0  0  0  0  0  0  0  1 V2000
  148.6901  140.3983  157.4033 C   0  0  0  0  0  0  0  0  0  0  0  0
  149.8697  140.9362  156.5683 C   0  0  1  0  0  0  0  0  0  0  0  0
  151.1382  140.5486  157.1804 N   0  0  0  0  0  0  0  0  0  0  0  0
  151.6665  141.5352  158.1289 C   0  0  0  0  0  0  0  0  0  0  0  0
  152.8623  140.9702  158.8991 C   0  0  0  0  0  0  0  0  0  0  0  0
  153.3741  139.9069  158.5495 O   0  0  0  0  0  0  0  0  0  0  0  0
  153.4012  141.7428  159.9317 N   0  0  0  0  0  0  0  0  0  0  0  0
  152.5749  142.6780  160.6793 C   0  0  0  0  0  0  0  0  0  0  0  0
  153.5326  142.4196  161.8474 C   0  0  0  0  0  0  0  0  0  0  0  0
  153.9758  141.1424  161.1268 C   0  0  0  0  0  0  0  0  0  0  0  0
  149.8244  140.4470  155.0946 C   0  0  1  0  0  0  0  0  0  0  0  0
  150.2121  138.9631  154.9363 C   0  0  0  0  0  0  0  0  0  0  0  0
  148.5700  140.7642  154.4147 N   0  0  0  0  0  0  0  0  0  0  0  0
  147.9902  142.0046  154.2391 C   0  0  0  0  0  0  0  0  0  0  0  0
  146.8131  141.8189  153.5729 C   0  0  0  0  0  0  0  0  0  0  0  0
  146.7505  140.4107  153.3853 C   0  0  0  0  0  0  0  0  0  0  0  0
  147.7980  139.7830  153.8929 N   0  0  0  0  0  0  0  0  0  0  0  0
  147.7413  140.5917  156.9025 H   0  0  0  0  0  0  0  0  0  0  0  0
  148.6341  140.8765  158.3808 H   0  0  0  0  0  0  0  0  0  0  0  0
  148.7654  139.3225  157.5646 H   0  0  0  0  0  0  0  0  0  0  0  0
  149.8115  142.0256  156.5481 H   0  0  0  0  0  0  0  0  0  0  0  0
  151.0536  139.6309  157.5946 H   0  0  0  0  0  0  0  0  0  0  0  0
  151.9599  142.4464  157.6059 H   0  0  0  0  0  0  0  0  0  0  0  0
  150.8963  141.8130  158.8481 H   0  0  0  0  0  0  0  0  0  0  0  0
  152.5941  143.6964  160.2903 H   0  0  0  0  0  0  0  0  0  0  0  0
  151.5619  142.3147  160.8646 H   0  0  0  0  0  0  0  0  0  0  0  0
  154.3243  143.1662  161.9312 H   0  0  0  0  0  0  0  0  0  0  0  0
  153.0368  142.2452  162.8028 H   0  0  0  0  0  0  0  0  0  0  0  0
  153.4460  140.2535  161.4738 H   0  0  0  0  0  0  0  0  0  0  0  0
  155.0556  140.9987  161.0780 H   0  0  0  0  0  0  0  0  0  0  0  0
  150.5964  141.0076  154.5652 H   0  0  0  0  0  0  0  0  0  0  0  0
  151.1941  138.7683  155.3683 H   0  0  0  0  0  0  0  0  0  0  0  0
  150.2547  138.6816  153.8839 H   0  0  0  0  0  0  0  0  0  0  0  0
  149.5002  138.2984  155.4264 H   0  0  0  0  0  0  0  0  0  0  0  0
  148.4586  142.9080  154.6014 H   0  0  0  0  0  0  0  0  0  0  0  0
  146.1030  142.5735  153.2690 H   0  0  0  0  0  0  0  0  0  0  0  0
  145.9793  139.8295  152.9017 H   0  0  0  0  0  0  0  0  0  0  0  0
  1  2  1  0  0  0  0
  1 18  1  0  0  0  0
  1 19  1  0  0  0  0
  1 20  1  0  0  0  0
  2  3  1  0  0  0  0
  2 11  1  0  0  0  0
  2 21  1  0  0  0  0
  3  4  1  0  0  0  0
  3 22  1  0  0  0  0
  4  5  1  0  0  0  0
  4 23  1  0  0  0  0
  4 24  1  0  0  0  0
  5  6  2  0  0  0  0
  5  7  1  0  0  0  0
  7 10  1  0  0  0  0
  7  8  1  0  0  0  0
  8  9  1  0  0  0  0
  8 25  1  0  0  0  0
  8 26  1  0  0  0  0
  9 10  1  0  0  0  0
  9 27  1  0  0  0  0
  9 28  1  0  0  0  0
 10 29  1  0  0  0  0
 10 30  1  0  0  0  0
 11 12  1  0  0  0  0
 11 13  1  0  0  0  0
 11 31  1  0  0  0  0
 12 32  1  0  0  0  0
 12 33  1  0  0  0  0
 12 34  1  0  0  0  0
 13 17  1  0  0  0  0
 13 14  1  0  0  0  0
 14 15  2  0  0  0  0
 14 35  1  0  0  0  0
 15 16  1  0  0  0  0
 15 36  1  0  0  0  0
 16 17  2  0  0  0  0
 16 37  1  0  0  0  0
M  END
> <s_m_source_file>
AV-unprocessed.smi

> <i_m_source_file_index>
3149

> <i_lp_mmshare_version>
43012

> <i_f3d_flags>
0

> <s_epik_input>
bjFbY0hdW2NIXVtjSF1uMVtDQEBIXShbQ0gzXSlbQ0BIXShbQ0gzXSlbTkhdW0NIMl1DKD1PKU4yW0NIMl1bQ0gyXVtDSDJdMg==

> <s_epik_cmdline>
J2VwaWtfcHl0aG9uJywgJy1waCcsICc3LjAnLCAnLXRuJywgJzgnLCAnLW1hJywgJzIwMCcsICctbWV0YWxfYmluZGluZycsICctaW1hZScsICc8aW5maWxlLm1hZT4nLCAnLW9tYWUnLCAnPG91dGZpbGUubWFlPic=

> <r_lp_tautomer_probability>
1

> <r_epik_Ionization_Penalty>
0.918674

> <r_epik_Ionization_Penalty_Charging>
0

> <r_epik_Ionization_Penalty_Neutral>
0.918674

> <r_epik_State_Penalty>
0.958258

> <r_epik_Charging_Adjusted_Penalty>
0.958258

> <i_epik_Tot_Q>
0

> <i_epik_Tot_abs_Q>
0

> <r_epik_Metal_State_Penalty>
0.956881

> <b_epik_Metal_Only>
0

> <s_lp_Force_Field>
OPLS_2005

> <r_lp_Energy>
24.8849

> <b_lp_Chiralities_Consistent>
1

> <s_lp_Variant>
AV-unprocessed.smi:3149-8

> <Gold.Version>
5.8.1

> <Gold.Id.Protein>
6NUR|6NUR_protein|mol2

> <Gold.PLP.Fitness>
44.5416

> <Gold.PLP.PLP>
-37.0162

> <Gold.PLP.part.hbond>
-1.0000

> <Gold.PLP.part.metal>
0.0000

> <Gold.PLP.part.buried>
-3.4305

> <Gold.PLP.part.nonpolar>
-32.5458

> <Gold.PLP.part.repulsive>
0.1663

> <Gold.PLP.ligand.clash>
0.0000

> <Gold.PLP.ligand.torsion>
1.0825

> <Gold.PLP.Chemscore.Hbond>
1.0000

> <Gold.PLP.Chemscore.CHOScore>
1.8971

> <Gold.PLP.Chemscore.Metal>
0.0000

> <Gold.Chemscore.Hbonds>
donor molecule, donor type, donor heavy atom, donor atom, acceptor molecule, acceptor atom, score
      P1  H  7997  8010       L1     6  1.00
      L1  C    14    35       P1  8028  1.00
      L1  C    16    37       P1 10175  0.96

> <Gold.PLP.Chemscore.Internal.Correction>
0.9992

> <Gold.Rescore>
     Score         DG    S(hbond)    S(metal)    S(lipo)     H(rot)  DE(clash)    DE(int)     intcor
     12.69     -13.88       0.96        0.00      83.51       1.79       0.16       1.03       ----

> <Gold.Chemscore.Fitness>
12.6875

> <Gold.Chemscore.DG>
-13.8775

> <Gold.Chemscore.ZeroCoef>
-5.4800

> <Gold.Chemscore.Hbond>
0.9587

> <Gold.Chemscore.Metal>
0.0000

> <Gold.Chemscore.Lipo>
83.5139

> <Gold.Chemscore.Internal_Hbond>
0.0000

> <Gold.Chemscore.DEClash>
0.1555

> <Gold.Chemscore.DEInternal>
1.0345

> <Gold.Chemscore.Rot>
1.7874

> <Gold.Chemscore.Internal.Correction>
   9.000000E+99

> <Gold.Chemscore.Hbonds>
donor molecule, donor type, donor heavy atom, donor atom, acceptor molecule, acceptor atom, score
      P1  H  7997  8010       L1     6  0.87

> <Gold.Chemscore.Hbond.Weighted>
-3.2022

> <Gold.Chemscore.Metal.Weighted>
-0.0000

> <Gold.Chemscore.Lipo.Weighted>
-9.7711

> <Gold.Chemscore.Internal_Hbond.Weighted>
0.0000

> <Gold.Chemscore.DEClash.Weighted>
0.1555

> <Gold.Chemscore.DEInternal.Weighted>
1.0345

> <Gold.Chemscore.Rot.Weighted>
4.5758

> <Gold.Chemscore.Internal.Correction.Weighted>
   9.000000E+99

> <Gold.Protein.RotatedTorsions>
[ 6907 6896 6895 6894 ] final  -19.22 input  -60.11 | X-H torsion
[ 7974 7965 7964 7962 ] final    1.69 input  175.53 | X-H torsion
[ 8008 7997 7996 7995 ] final   34.72 input   59.86 | X-H torsion
[ 10167 10162 10161 10158 ] final   88.10 input  -65.29 | X-H torsion
[ 10718 10713 10712 10709 ] final   44.53 input   66.30 | X-H torsion
[ 10763 10752 10751 10750 ] final   13.30 input  -60.55 | X-H torsion
[ 11005 11000 10999 10996 ] final -101.77 input  -57.11 | X-H torsion

> <Gold.Protein.ActiveResidues>
 VAL166  LYS551  ARG553  GLY616  TRP617  ASP618  TYR619  PRO620  LYS621  CYS622 
 ASP623  PHE694  ASN695  SER759  ASP760  ASP761  ALA762  ILE779  LEU786  VAL792 
 PHE793  MET794  SER795  GLU796  ALA797  LYS798  CYS799  TRP800  GLU811  SER814 

> <Gold.Protein.RotatedAtoms>
  151.2664  135.0670  159.9117 H   0  0  0  0  0  0  0  0  0  0  0  0  # atno 6907 bound_to 6896
  152.5358  134.0176  159.7977 H   0  0  0  0  0  0  0  0  0  0  0  0  # atno 6908 bound_to 6896
  151.0408  133.5658  159.2682 H   0  0  0  0  0  0  0  0  0  0  0  0  # atno 6909 bound_to 6896
  146.2441  140.0949  142.8350 H   0  0  0  0  0  0  0  0  0  0  0  0  # atno 7974 bound_to 7965
  155.1594  140.3282  155.4414 H   0  0  0  0  0  0  0  0  0  0  0  0  # atno 8008 bound_to 7997
  156.2548  140.1963  156.6653 H   0  0  0  0  0  0  0  0  0  0  0  0  # atno 8009 bound_to 7997
  154.6416  140.0569  156.9838 H   0  0  0  0  0  0  0  0  0  0  0  0  # atno 8010 bound_to 7997
  139.8707  144.6494  150.8953 H   0  0  0  0  0  0  0  0  0  0  0  0  # atno 10167 bound_to 10162
  157.4278  130.8007  149.7574 H   0  0  0  0  0  0  0  0  0  0  0  0  # atno 10718 bound_to 10713
  153.1735  135.6816  153.8575 H   0  0  0  0  0  0  0  0  0  0  0  0  # atno 10763 bound_to 10752
  153.7931  135.3166  155.3382 H   0  0  0  0  0  0  0  0  0  0  0  0  # atno 10764 bound_to 10752
  154.8014  135.4776  154.0377 H   0  0  0  0  0  0  0  0  0  0  0  0  # atno 10765 bound_to 10752
  141.1217  133.8504  157.1274 H   0  0  0  0  0  0  0  0  0  0  0  0  # atno 11005 bound_to 11000
  145.0618  140.9093  143.4934 LP  0  0  0  0  0  0  0  0  0  0  0  0  # atno 17320 bound_to 7965
  145.1066  139.2786  143.5659 LP  0  0  0  0  0  0  0  0  0  0  0  0  # atno 17321 bound_to 7965
  140.7761  143.3666  151.1726 LP  0  0  0  0  0  0  0  0  0  0  0  0  # atno 17342 bound_to 10162
  139.7287  143.9107  152.3012 LP  0  0  0  0  0  0  0  0  0  0  0  0  # atno 17343 bound_to 10162
  155.9902  130.3946  150.3037 LP  0  0  0  0  0  0  0  0  0  0  0  0  # atno 17370 bound_to 10713
  157.1191  131.0242  151.3016 LP  0  0  0  0  0  0  0  0  0  0  0  0  # atno 17371 bound_to 10713
  140.0180  134.9959  157.0533 LP  0  0  0  0  0  0  0  0  0  0  0  0  # atno 17394 bound_to 11000
  140.4487  134.1605  155.7179 LP  0  0  0  0  0  0  0  0  0  0  0  0  # atno 17395 bound_to 11000

$$$$
