AV-unprocessed.smi:1554|AV-procd|sdf|6262|dock8
  -GOLD-   22720 6453D 1   1.00000     0.00000
 Structure written by MMmdl.
 49 51  0  0  0  0  0  0  0  0  3 V2000
  152.7747  143.1170  160.8977 C   0  0  0  0  0  0  0  0  0  0  0  0
  152.1826  142.5905  159.6014 C   0  0  0  0  0  0  0  0  0  0  0  0
  152.1328  141.1928  159.4013 C   0  0  0  0  0  0  0  0  0  0  0  0
  151.5838  140.7420  158.2068 C   0  0  0  0  0  0  0  0  0  0  0  0
  151.3924  139.4470  157.7211 N   0  3  0  0  0  0  0  0  0  0  0  0
  150.8128  139.5040  156.4905 C   0  0  0  0  0  0  0  0  0  0  0  0
  150.6264  140.8170  156.1837 N   0  0  0  0  0  0  0  0  0  0  0  0
  150.0485  141.4205  154.9743 C   0  0  0  0  0  0  0  0  0  0  0  0
  148.7136  140.7720  154.5570 C   0  0  2  0  0  0  0  0  0  0  0  0
  149.0185  139.6261  153.7886 O   0  0  0  0  0  0  0  0  0  0  0  0
  147.8003  141.7006  153.7266 C   0  0  0  0  0  0  0  0  0  0  0  0
  146.9230  142.5484  154.5736 N   0  3  2  0  0  0  0  0  0  0  0  0
  146.4513  141.8396  155.7866 C   0  0  0  0  0  0  0  0  0  0  0  0
  145.5979  142.7753  156.6585 C   0  0  0  0  0  0  0  0  0  0  0  0
  144.5086  143.2756  155.8934 O   0  0  0  0  0  0  0  0  0  0  0  0
  144.9419  144.0385  154.7727 C   0  0  2  0  0  0  0  0  0  0  0  0
  143.7030  144.6068  154.0717 C   0  0  0  0  0  0  0  0  0  0  0  0
  145.7742  143.1366  153.8405 C   0  0  0  0  0  0  0  0  0  0  0  0
  151.0962  141.6275  157.2253 C   0  0  0  0  0  0  0  0  0  0  0  0
  151.1388  143.0084  157.4074 C   0  0  0  0  0  0  0  0  0  0  0  0
  151.6911  143.4866  158.6172 C   0  0  0  0  0  0  0  0  0  0  0  0
  151.7477  144.9879  158.8436 C   0  0  0  0  0  0  0  0  0  0  0  0
  153.1248  142.3048  161.5355 H   0  0  0  0  0  0  0  0  0  0  0  0
  152.0291  143.6822  161.4570 H   0  0  0  0  0  0  0  0  0  0  0  0
  153.6242  143.7696  160.6949 H   0  0  0  0  0  0  0  0  0  0  0  0
  152.5053  140.5045  160.1463 H   0  0  0  0  0  0  0  0  0  0  0  0
  150.5503  138.6592  155.8697 H   0  0  0  0  0  0  0  0  0  0  0  0
  149.9390  142.4950  155.1199 H   0  0  0  0  0  0  0  0  0  0  0  0
  150.7847  141.2971  154.1784 H   0  0  0  0  0  0  0  0  0  0  0  0
  148.1995  140.4418  155.4591 H   0  0  0  0  0  0  0  0  0  0  0  0
  149.4828  139.8954  153.0103 H   0  0  0  0  0  0  0  0  0  0  0  0
  148.3869  142.3501  153.0760 H   0  0  0  0  0  0  0  0  0  0  0  0
  147.1876  141.0830  153.0677 H   0  0  0  0  0  0  0  0  0  0  0  0
  145.8680  140.9641  155.4965 H   0  0  0  0  0  0  0  0  0  0  0  0
  147.3045  141.4810  156.3637 H   0  0  0  0  0  0  0  0  0  0  0  0
  145.2058  142.2333  157.5192 H   0  0  0  0  0  0  0  0  0  0  0  0
  146.1964  143.6006  157.0475 H   0  0  0  0  0  0  0  0  0  0  0  0
  145.5554  144.8714  155.1215 H   0  0  0  0  0  0  0  0  0  0  0  0
  143.9824  145.2094  153.2070 H   0  0  0  0  0  0  0  0  0  0  0  0
  143.1303  145.2427  154.7472 H   0  0  0  0  0  0  0  0  0  0  0  0
  143.0433  143.8103  153.7257 H   0  0  0  0  0  0  0  0  0  0  0  0
  146.1251  143.7242  152.9930 H   0  0  0  0  0  0  0  0  0  0  0  0
  145.1509  142.3365  153.4373 H   0  0  0  0  0  0  0  0  0  0  0  0
  150.7661  143.6952  156.6626 H   0  0  0  0  0  0  0  0  0  0  0  0
  151.3350  145.5359  157.9961 H   0  0  0  0  0  0  0  0  0  0  0  0
  152.7782  145.3162  158.9814 H   0  0  0  0  0  0  0  0  0  0  0  0
  151.1743  145.2635  159.7290 H   0  0  0  0  0  0  0  0  0  0  0  0
  147.4941  143.3165  154.8975 H   0  0  0  0  0  0  0  0  0  0  0  0
  151.6420  138.5860  158.1913 H   0  0  0  0  0  0  0  0  0  0  0  0
  1  2  1  0  0  0  0
  1 23  1  0  0  0  0
  1 24  1  0  0  0  0
  1 25  1  0  0  0  0
  2 21  1  0  0  0  0
  2  3  2  0  0  0  0
  3  4  1  0  0  0  0
  3 26  1  0  0  0  0
  4 19  2  0  0  0  0
  4  5  1  0  0  0  0
  5  6  2  0  0  0  0
  5 49  1  0  0  0  0
  6  7  1  0  0  0  0
  6 27  1  0  0  0  0
  7  8  1  0  0  0  0
  7 19  1  0  0  0  0
  8  9  1  0  0  0  0
  8 28  1  0  0  0  0
  8 29  1  0  0  0  0
  9 10  1  0  0  0  0
  9 11  1  0  0  0  0
  9 30  1  0  0  0  0
 10 31  1  0  0  0  0
 11 12  1  0  0  0  0
 11 32  1  0  0  0  0
 11 33  1  0  0  0  0
 12 18  1  0  0  0  0
 12 13  1  0  0  0  0
 12 48  1  0  0  0  0
 13 14  1  0  0  0  0
 13 34  1  0  0  0  0
 13 35  1  0  0  0  0
 14 15  1  0  0  0  0
 14 36  1  0  0  0  0
 14 37  1  0  0  0  0
 15 16  1  0  0  0  0
 16 17  1  0  0  0  0
 16 18  1  0  0  0  0
 16 38  1  0  0  0  0
 17 39  1  0  0  0  0
 17 40  1  0  0  0  0
 17 41  1  0  0  0  0
 18 42  1  0  0  0  0
 18 43  1  0  0  0  0
 19 20  1  0  0  0  0
 20 21  2  0  0  0  0
 20 44  1  0  0  0  0
 21 22  1  0  0  0  0
 22 45  1  0  0  0  0
 22 46  1  0  0  0  0
 22 47  1  0  0  0  0
M  CHG  1   5   1
M  CHG  1  12   1
M  END
> <s_m_source_file>
AV-unprocessed.smi

> <i_m_source_file_index>
1554

> <i_lp_mmshare_version>
43012

> <i_f3d_flags>
0

> <s_epik_input>
W0NIM11jKFtjSF0xKWMoW0NIM10pW2NIXWMoYzEyKW4oW2NIXW4yKVtDSDJdW0NASF0oW09IXSlbQ0gyXU4zW0NIMl1bQ0gyXU9bQ0BASF0oW0NIM10pW0NIMl0z

> <s_epik_cmdline>
J2VwaWtfcHl0aG9uJywgJy1waCcsICc3LjAnLCAnLXRuJywgJzgnLCAnLW1hJywgJzIwMCcsICctbWV0YWxfYmluZGluZycsICctaW1hZScsICc8aW5maWxlLm1hZT4nLCAnLW9tYWUnLCAnPG91dGZpbGUubWFlPic=

> <r_epik_Ionization_Penalty>
1.8848

> <r_epik_Ionization_Penalty_Charging>
1.88479

> <r_epik_Ionization_Penalty_Neutral>
1.42224e-05

> <r_epik_State_Penalty>
1.94551

> <r_epik_Charging_Adjusted_Penalty>
3.8303

> <i_epik_Tot_Q>
2

> <i_epik_Tot_abs_Q>
2

> <r_epik_Metal_State_Penalty>
5.95849

> <b_epik_Metal_Only>
0

> <s_lp_Force_Field>
OPLS_2005

> <r_lp_Energy>
32.1421

> <b_lp_Chiralities_Consistent>
1

> <s_lp_Variant>
AV-unprocessed.smi:1554-23

> <Gold.Version>
5.8.1

> <Gold.Id.Protein>
6NUR|6NUR_protein|mol2

> <Gold.PLP.Fitness>
53.5874

> <Gold.PLP.PLP>
-46.3933

> <Gold.PLP.part.hbond>
-2.0000

> <Gold.PLP.part.metal>
0.0000

> <Gold.PLP.part.buried>
-5.9169

> <Gold.PLP.part.nonpolar>
-37.8134

> <Gold.PLP.part.repulsive>
0.2600

> <Gold.PLP.ligand.clash>
0.0000

> <Gold.PLP.ligand.torsion>
0.9208

> <Gold.PLP.Chemscore.Hbond>
3.0000

> <Gold.PLP.Chemscore.CHOScore>
0.0000

> <Gold.PLP.Chemscore.Metal>
0.0000

> <Gold.Chemscore.Hbonds>
donor molecule, donor type, donor heavy atom, donor atom, acceptor molecule, acceptor atom, score
      L1  H    10    31       P1  7957  1.00
      L1  H    12    48       P1  8028  1.79

> <Gold.PLP.Chemscore.Internal.Correction>
0.0358

> <Gold.Rescore>
     Score         DG    S(hbond)    S(metal)    S(lipo)     H(rot)  DE(clash)    DE(int)     intcor
     17.77     -19.59       1.40        0.00     126.91       2.11       0.92       0.90       ----

> <Gold.Chemscore.Fitness>
17.7707

> <Gold.Chemscore.DG>
-19.5930

> <Gold.Chemscore.ZeroCoef>
-5.4800

> <Gold.Chemscore.Hbond>
1.3989

> <Gold.Chemscore.Metal>
0.0000

> <Gold.Chemscore.Lipo>
126.9065

> <Gold.Chemscore.Internal_Hbond>
0.0000

> <Gold.Chemscore.DEClash>
0.9237

> <Gold.Chemscore.DEInternal>
0.8986

> <Gold.Chemscore.Rot>
2.1122

> <Gold.Chemscore.Internal.Correction>
   9.000000E+99

> <Gold.Chemscore.Hbonds>
donor molecule, donor type, donor heavy atom, donor atom, acceptor molecule, acceptor atom, score
      L1  H    10    31       P1  7957  0.95
      L1  H    12    48       P1  8028  0.22

> <Gold.Chemscore.Hbond.Weighted>
-4.6722

> <Gold.Chemscore.Metal.Weighted>
-0.0000

> <Gold.Chemscore.Lipo.Weighted>
-14.8481

> <Gold.Chemscore.Internal_Hbond.Weighted>
0.0000

> <Gold.Chemscore.DEClash.Weighted>
0.9237

> <Gold.Chemscore.DEInternal.Weighted>
0.8986

> <Gold.Chemscore.Rot.Weighted>
5.4073

> <Gold.Chemscore.Internal.Correction.Weighted>
   9.000000E+99

> <Gold.Protein.RotatedTorsions>
[ 6907 6896 6895 6894 ] final  108.92 input  -60.11 | X-H torsion
[ 7974 7965 7964 7962 ] final   53.20 input  175.53 | X-H torsion
[ 8008 7997 7996 7995 ] final -127.48 input   59.86 | X-H torsion
[ 10167 10162 10161 10158 ] final  -54.85 input  -65.29 | X-H torsion
[ 10718 10713 10712 10709 ] final   59.22 input   66.30 | X-H torsion
[ 10763 10752 10751 10750 ] final   10.11 input  -60.55 | X-H torsion
[ 11005 11000 10999 10996 ] final -145.49 input  -57.11 | X-H torsion

> <Gold.Protein.ActiveResidues>
 VAL166  LYS551  ARG553  GLY616  TRP617  ASP618  TYR619  PRO620  LYS621  CYS622 
 ASP623  PHE694  ASN695  SER759  ASP760  ASP761  ALA762  ILE779  LEU786  VAL792 
 PHE793  MET794  SER795  GLU796  ALA797  LYS798  CYS799  TRP800  GLU811  SER814 

> <Gold.Protein.RotatedAtoms>
  152.5091  133.9019  159.7444 H   0  0  0  0  0  0  0  0  0  0  0  0  # atno 6907 bound_to 6896
  150.9433  133.6623  159.2793 H   0  0  0  0  0  0  0  0  0  0  0  0  # atno 6908 bound_to 6896
  151.3928  135.0963  159.9584 H   0  0  0  0  0  0  0  0  0  0  0  0  # atno 6909 bound_to 6896
  145.9736  139.4173  143.0175 H   0  0  0  0  0  0  0  0  0  0  0  0  # atno 7974 bound_to 7965
  155.2469  140.0431  157.2982 H   0  0  0  0  0  0  0  0  0  0  0  0  # atno 8008 bound_to 7997
  154.5793  140.2396  155.8046 H   0  0  0  0  0  0  0  0  0  0  0  0  # atno 8009 bound_to 7997
  156.2181  140.2978  155.9896 H   0  0  0  0  0  0  0  0  0  0  0  0  # atno 8010 bound_to 7997
  140.6408  143.2506  151.4995 H   0  0  0  0  0  0  0  0  0  0  0  0  # atno 10167 bound_to 10162
  157.5658  130.8870  149.9185 H   0  0  0  0  0  0  0  0  0  0  0  0  # atno 10718 bound_to 10713
  153.2068  135.6863  153.8163 H   0  0  0  0  0  0  0  0  0  0  0  0  # atno 10763 bound_to 10752
  153.7410  135.3238  155.3305 H   0  0  0  0  0  0  0  0  0  0  0  0  # atno 10764 bound_to 10752
  154.8201  135.4658  154.0858 H   0  0  0  0  0  0  0  0  0  0  0  0  # atno 10765 bound_to 10752
  140.7917  134.2960  157.5011 H   0  0  0  0  0  0  0  0  0  0  0  0  # atno 11005 bound_to 11000
  145.7871  140.9831  143.1069 LP  0  0  0  0  0  0  0  0  0  0  0  0  # atno 17320 bound_to 7965
  144.6843  139.9636  143.7481 LP  0  0  0  0  0  0  0  0  0  0  0  0  # atno 17321 bound_to 7965
  139.5617  144.2141  152.1701 LP  0  0  0  0  0  0  0  0  0  0  0  0  # atno 17342 bound_to 10162
  140.1410  144.5202  150.6744 LP  0  0  0  0  0  0  0  0  0  0  0  0  # atno 17343 bound_to 10162
  156.0707  130.3685  150.0783 LP  0  0  0  0  0  0  0  0  0  0  0  0  # atno 17370 bound_to 10713
  156.8941  130.9598  151.3585 LP  0  0  0  0  0  0  0  0  0  0  0  0  # atno 17371 bound_to 10713
  139.8730  134.9378  156.3698 LP  0  0  0  0  0  0  0  0  0  0  0  0  # atno 17394 bound_to 11000
  140.9383  133.7532  156.0113 LP  0  0  0  0  0  0  0  0  0  0  0  0  # atno 17395 bound_to 11000

$$$$
