AV-unprocessed.smi:459|AV-procd|sdf|2625|dock5
  -GOLD-   2262023 23D 1   1.00000     0.00000
 Structure written by MMmdl.
 44 46  0  0  0  0  0  0  0  0  2 V2000
  154.4917  135.6602  163.8671 C   0  0  0  0  0  0  0  0  0  0  0  0
  154.5859  137.0674  164.0323 O   0  0  0  0  0  0  0  0  0  0  0  0
  154.4926  137.8598  162.9082 C   0  0  0  0  0  0  0  0  0  0  0  0
  155.0887  139.1383  162.7823 C   0  0  0  0  0  0  0  0  0  0  0  0
  154.9442  139.8775  161.5925 C   0  0  0  0  0  0  0  0  0  0  0  0
  154.2101  139.3648  160.5047 C   0  0  0  0  0  0  0  0  0  0  0  0
  154.1277  140.1526  159.3766 O   0  0  0  0  0  0  0  0  0  0  0  0
  153.4762  139.6207  158.2320 C   0  0  0  0  0  0  0  0  0  0  0  0
  151.9642  139.8095  158.4029 C   0  0  0  0  0  0  0  0  0  0  0  0
  151.5208  141.1306  157.9386 N   0  0  0  0  0  0  0  0  0  0  0  0
  150.7754  141.4788  156.8503 C   0  0  0  0  0  0  0  0  0  0  0  0
  150.2102  140.5591  155.8167 C   0  0  0  0  0  0  0  0  0  0  0  0
  149.4048  141.3267  154.7599 C   0  0  0  0  0  0  0  0  0  0  0  0
  149.6522  140.7851  153.4804 O   0  0  0  0  0  0  0  0  0  0  0  0
  150.6514  142.8362  156.8643 N   0  3  0  0  0  0  0  0  0  0  0  0
  151.3098  143.3596  157.9778 C   0  0  0  0  0  0  0  0  0  0  0  0
  151.4564  144.6721  158.4163 C   0  0  0  0  0  0  0  0  0  0  0  0
  152.1900  144.8632  159.6057 C   0  0  0  0  0  0  0  0  0  0  0  0
  152.7429  143.7742  160.3108 C   0  0  0  0  0  0  0  0  0  0  0  0
  152.5891  142.4479  159.8552 C   0  0  0  0  0  0  0  0  0  0  0  0
  151.8658  142.2682  158.6766 C   0  0  0  0  0  0  0  0  0  0  0  0
  153.6097  138.0884  160.6324 C   0  0  0  0  0  0  0  0  0  0  0  0
  153.7529  137.3500  161.8230 C   0  0  0  0  0  0  0  0  0  0  0  0
  154.5698  135.1779  164.8413 H   0  0  0  0  0  0  0  0  0  0  0  0
  155.3005  135.2766  163.2438 H   0  0  0  0  0  0  0  0  0  0  0  0
  153.5329  135.3730  163.4333 H   0  0  0  0  0  0  0  0  0  0  0  0
  155.6634  139.5758  163.5843 H   0  0  0  0  0  0  0  0  0  0  0  0
  155.4071  140.8502  161.5133 H   0  0  0  0  0  0  0  0  0  0  0  0
  153.8099  140.1403  157.3322 H   0  0  0  0  0  0  0  0  0  0  0  0
  153.7109  138.5609  158.1223 H   0  0  0  0  0  0  0  0  0  0  0  0
  151.4066  139.0374  157.8721 H   0  0  0  0  0  0  0  0  0  0  0  0
  151.6921  139.7175  159.4546 H   0  0  0  0  0  0  0  0  0  0  0  0
  151.0245  140.0056  155.3478 H   0  0  0  0  0  0  0  0  0  0  0  0
  149.5759  139.8220  156.3105 H   0  0  0  0  0  0  0  0  0  0  0  0
  148.3366  141.2619  154.9694 H   0  0  0  0  0  0  0  0  0  0  0  0
  149.6735  142.3835  154.7570 H   0  0  0  0  0  0  0  0  0  0  0  0
  148.8722  140.3420  153.1826 H   0  0  0  0  0  0  0  0  0  0  0  0
  151.0317  145.5078  157.8793 H   0  0  0  0  0  0  0  0  0  0  0  0
  152.3299  145.8648  159.9859 H   0  0  0  0  0  0  0  0  0  0  0  0
  153.2960  143.9597  161.2203 H   0  0  0  0  0  0  0  0  0  0  0  0
  153.0150  141.6207  160.4041 H   0  0  0  0  0  0  0  0  0  0  0  0
  153.0336  137.6513  159.8314 H   0  0  0  0  0  0  0  0  0  0  0  0
  153.2903  136.3773  161.9034 H   0  0  0  0  0  0  0  0  0  0  0  0
  150.1483  143.3639  156.1625 H   0  0  0  0  0  0  0  0  0  0  0  0
  1  2  1  0  0  0  0
  1 24  1  0  0  0  0
  1 25  1  0  0  0  0
  1 26  1  0  0  0  0
  2  3  1  0  0  0  0
  3 23  1  0  0  0  0
  3  4  2  0  0  0  0
  4  5  1  0  0  0  0
  4 27  1  0  0  0  0
  5  6  2  0  0  0  0
  5 28  1  0  0  0  0
  6  7  1  0  0  0  0
  6 22  1  0  0  0  0
  7  8  1  0  0  0  0
  8  9  1  0  0  0  0
  8 29  1  0  0  0  0
  8 30  1  0  0  0  0
  9 10  1  0  0  0  0
  9 31  1  0  0  0  0
  9 32  1  0  0  0  0
 10 21  1  0  0  0  0
 10 11  1  0  0  0  0
 11 12  1  0  0  0  0
 11 15  2  0  0  0  0
 12 13  1  0  0  0  0
 12 33  1  0  0  0  0
 12 34  1  0  0  0  0
 13 14  1  0  0  0  0
 13 35  1  0  0  0  0
 13 36  1  0  0  0  0
 14 37  1  0  0  0  0
 15 16  1  0  0  0  0
 15 44  1  0  0  0  0
 16 21  2  0  0  0  0
 16 17  1  0  0  0  0
 17 18  2  0  0  0  0
 17 38  1  0  0  0  0
 18 19  1  0  0  0  0
 18 39  1  0  0  0  0
 19 20  2  0  0  0  0
 19 40  1  0  0  0  0
 20 21  1  0  0  0  0
 20 41  1  0  0  0  0
 22 23  2  0  0  0  0
 22 42  1  0  0  0  0
 23 43  1  0  0  0  0
M  CHG  1  15   1
M  END
> <s_m_source_file>
AV-unprocessed.smi

> <i_m_source_file_index>
459

> <i_lp_mmshare_version>
43012

> <i_f3d_flags>
0

> <s_epik_input>
W0NIM11PYzFbY0hdW2NIXWMoW2NIXVtjSF0xKU9bQ0gyXVtDSDJdbihjKG4yKVtDSDJdW0NIMl1bT0hdKWMoYzIzKVtjSF1bY0hdW2NIXVtjSF0z

> <s_epik_cmdline>
J2VwaWtfcHl0aG9uJywgJy1waCcsICc3LjAnLCAnLXRuJywgJzgnLCAnLW1hJywgJzIwMCcsICctbWV0YWxfYmluZGluZycsICctaW1hZScsICc8aW5maWxlLm1hZT4nLCAnLW9tYWUnLCAnPG91dGZpbGUubWFlPic=

> <r_lp_tautomer_probability>
1

> <r_epik_Ionization_Penalty>
0.723344

> <r_epik_Ionization_Penalty_Charging>
0.723344

> <r_epik_Ionization_Penalty_Neutral>
5.89567e-08

> <r_epik_State_Penalty>
0.747968

> <r_epik_Charging_Adjusted_Penalty>
1.47131

> <i_epik_Tot_Q>
1

> <i_epik_Tot_abs_Q>
1

> <r_epik_Metal_State_Penalty>
4.64387

> <b_epik_Metal_Only>
0

> <s_lp_Force_Field>
OPLS_2005

> <r_lp_Energy>
25.798

> <b_lp_Chiralities_Consistent>
1

> <s_lp_Variant>
AV-unprocessed.smi:459-2

> <Gold.Version>
5.8.1

> <Gold.Id.Protein>
6NUR|6NUR_protein|mol2

> <Gold.PLP.Fitness>
58.4238

> <Gold.PLP.PLP>
-50.3238

> <Gold.PLP.part.hbond>
-4.3558

> <Gold.PLP.part.metal>
0.0000

> <Gold.PLP.part.buried>
-3.9367

> <Gold.PLP.part.nonpolar>
-42.0262

> <Gold.PLP.part.repulsive>
0.0897

> <Gold.PLP.ligand.clash>
0.0000

> <Gold.PLP.ligand.torsion>
1.0362

> <Gold.PLP.Chemscore.Hbond>
3.3360

> <Gold.PLP.Chemscore.CHOScore>
0.0000

> <Gold.PLP.Chemscore.Metal>
0.0000

> <Gold.Chemscore.Hbonds>
donor molecule, donor type, donor heavy atom, donor atom, acceptor molecule, acceptor atom, score
      L1  H    15    44       P1  8028  2.00
      P1  H  7989  7998       L1    14  0.34
      P1  H  8011  8017       L1    14  1.00

> <Gold.PLP.Chemscore.Internal.Correction>
0.1643

> <Gold.Rescore>
     Score         DG    S(hbond)    S(metal)    S(lipo)     H(rot)  DE(clash)    DE(int)     intcor
     17.74     -21.64       1.85        0.00     143.99       2.68       1.51       2.39       ----

> <Gold.Chemscore.Fitness>
17.7402

> <Gold.Chemscore.DG>
-21.6390

> <Gold.Chemscore.ZeroCoef>
-5.4800

> <Gold.Chemscore.Hbond>
1.8513

> <Gold.Chemscore.Metal>
0.0000

> <Gold.Chemscore.Lipo>
143.9893

> <Gold.Chemscore.Internal_Hbond>
0.0000

> <Gold.Chemscore.DEClash>
1.5087

> <Gold.Chemscore.DEInternal>
2.3902

> <Gold.Chemscore.Rot>
2.6840

> <Gold.Chemscore.Internal.Correction>
   9.000000E+99

> <Gold.Chemscore.Hbonds>
donor molecule, donor type, donor heavy atom, donor atom, acceptor molecule, acceptor atom, score
      L1  H    14    37       P1  7957  0.01
      L1  H    15    44       P1  8028  0.95
      P1  H  7989  7998       L1    14  0.09
      P1  H  8011  8017       L1    14  0.19

> <Gold.Chemscore.Hbond.Weighted>
-6.1833

> <Gold.Chemscore.Metal.Weighted>
-0.0000

> <Gold.Chemscore.Lipo.Weighted>
-16.8467

> <Gold.Chemscore.Internal_Hbond.Weighted>
0.0000

> <Gold.Chemscore.DEClash.Weighted>
1.5087

> <Gold.Chemscore.DEInternal.Weighted>
2.3902

> <Gold.Chemscore.Rot.Weighted>
6.8710

> <Gold.Chemscore.Internal.Correction.Weighted>
   9.000000E+99

> <Gold.Protein.RotatedTorsions>
[ 6907 6896 6895 6894 ] final   16.21 input  -60.11 | X-H torsion
[ 7974 7965 7964 7962 ] final  -91.38 input  175.53 | X-H torsion
[ 8008 7997 7996 7995 ] final  157.20 input   59.86 | X-H torsion
[ 10167 10162 10161 10158 ] final  133.62 input  -65.29 | X-H torsion
[ 10718 10713 10712 10709 ] final    1.50 input   66.30 | X-H torsion
[ 10763 10752 10751 10750 ] final  -89.14 input  -60.55 | X-H torsion
[ 11005 11000 10999 10996 ] final -172.02 input  -57.11 | X-H torsion

> <Gold.Protein.ActiveResidues>
 VAL166  LYS551  ARG553  GLY616  TRP617  ASP618  TYR619  PRO620  LYS621  CYS622 
 ASP623  PHE694  ASN695  SER759  ASP760  ASP761  ALA762  ILE779  LEU786  VAL792 
 PHE793  MET794  SER795  GLU796  ALA797  LYS798  CYS799  TRP800  GLU811  SER814 

> <Gold.Protein.RotatedAtoms>
  151.8303  135.0623  160.0435 H   0  0  0  0  0  0  0  0  0  0  0  0  # atno 6907 bound_to 6896
  152.2885  133.5534  159.5551 H   0  0  0  0  0  0  0  0  0  0  0  0  # atno 6908 bound_to 6896
  150.7220  134.0378  159.3797 H   0  0  0  0  0  0  0  0  0  0  0  0  # atno 6909 bound_to 6896
  145.4139  140.9547  143.2218 H   0  0  0  0  0  0  0  0  0  0  0  0  # atno 7974 bound_to 7965
  156.2378  140.1892  156.7072 H   0  0  0  0  0  0  0  0  0  0  0  0  # atno 8008 bound_to 7997
  154.6139  140.0618  156.9556 H   0  0  0  0  0  0  0  0  0  0  0  0  # atno 8009 bound_to 7997
  155.1971  140.3289  155.4351 H   0  0  0  0  0  0  0  0  0  0  0  0  # atno 8010 bound_to 7997
  139.5289  144.6607  151.5022 H   0  0  0  0  0  0  0  0  0  0  0  0  # atno 10167 bound_to 10162
  156.8491  130.5547  149.5671 H   0  0  0  0  0  0  0  0  0  0  0  0  # atno 10718 bound_to 10713
  154.6521  135.5351  153.7914 H   0  0  0  0  0  0  0  0  0  0  0  0  # atno 10763 bound_to 10752
  153.0392  135.6485  154.1001 H   0  0  0  0  0  0  0  0  0  0  0  0  # atno 10764 bound_to 10752
  154.0917  135.2939  155.3250 H   0  0  0  0  0  0  0  0  0  0  0  0  # atno 10765 bound_to 10752
  140.5017  134.5887  157.4990 H   0  0  0  0  0  0  0  0  0  0  0  0  # atno 11005 bound_to 11000
  144.8290  139.5660  143.6952 LP  0  0  0  0  0  0  0  0  0  0  0  0  # atno 17320 bound_to 7965
  146.2691  139.6591  142.9309 LP  0  0  0  0  0  0  0  0  0  0  0  0  # atno 17321 bound_to 7965
  140.6454  143.8806  150.6732 LP  0  0  0  0  0  0  0  0  0  0  0  0  # atno 17342 bound_to 10162
  140.2153  143.3851  152.1686 LP  0  0  0  0  0  0  0  0  0  0  0  0  # atno 17343 bound_to 10162
  156.0838  130.5842  150.9611 LP  0  0  0  0  0  0  0  0  0  0  0  0  # atno 17370 bound_to 10713
  157.6313  131.0920  150.8435 LP  0  0  0  0  0  0  0  0  0  0  0  0  # atno 17371 bound_to 10713
  139.9709  134.7294  156.0043 LP  0  0  0  0  0  0  0  0  0  0  0  0  # atno 17394 bound_to 11000
  141.1432  133.6561  156.3790 LP  0  0  0  0  0  0  0  0  0  0  0  0  # atno 17395 bound_to 11000

$$$$
