AV-unprocessed.smi:2752|AV-procd|sdf|10606|dock10
  -GOLD-   2272015 63D 1   1.00000     0.00000
 Structure written by MMmdl.
 34 35  0  0  0  0  0  0  0  0  1 V2000
  152.0542  138.9770  154.7686 C   0  0  0  0  0  0  0  0  0  0  0  0
  151.1644  140.0437  155.0553 O   0  0  0  0  0  0  0  0  0  0  0  0
  150.0136  140.0737  154.2150 C   0  0  1  0  0  0  0  0  0  0  0  0
  149.3844  138.6767  154.1820 C   0  0  0  0  0  0  0  0  0  0  0  0
  148.5645  138.6073  155.4674 C   0  0  0  0  0  0  0  0  0  0  0  0
  148.0020  140.0199  155.6495 C   0  0  0  0  0  0  0  0  0  0  0  0
  148.9195  140.9638  154.8473 C   0  0  1  0  0  0  0  0  0  0  0  0
  149.4629  142.0239  155.6939 N   0  0  0  0  0  0  0  0  0  0  0  0
  150.0270  141.8289  156.8943 C   0  0  0  0  0  0  0  0  0  0  0  0
  150.1625  140.7173  157.4066 O   0  0  0  0  0  0  0  0  0  0  0  0
  150.4085  142.9933  157.4476 N   0  0  0  0  0  0  0  0  0  0  0  0
  151.0398  143.2037  158.7023 C   0  0  0  0  0  0  0  0  0  0  0  0
  150.9026  144.5080  159.2299 C   0  0  0  0  0  0  0  0  0  0  0  0
  151.4935  144.8200  160.4699 C   0  0  0  0  0  0  0  0  0  0  0  0
  152.2070  143.8169  161.1497 C   0  0  0  0  0  0  0  0  0  0  0  0
  152.7920  144.0697  162.3444 F   0  0  0  0  0  0  0  0  0  0  0  0
  152.2969  142.5443  160.5561 C   0  0  0  0  0  0  0  0  0  0  0  0
  151.7312  142.2443  159.3678 N   0  0  0  0  0  0  0  0  0  0  0  0
  152.8917  139.0047  155.4655 H   0  0  0  0  0  0  0  0  0  0  0  0
  152.4572  139.0665  153.7591 H   0  0  0  0  0  0  0  0  0  0  0  0
  151.5687  138.0059  154.8661 H   0  0  0  0  0  0  0  0  0  0  0  0
  150.2720  140.4360  153.2181 H   0  0  0  0  0  0  0  0  0  0  0  0
  148.7172  138.5990  153.3226 H   0  0  0  0  0  0  0  0  0  0  0  0
  150.1124  137.8693  154.1051 H   0  0  0  0  0  0  0  0  0  0  0  0
  147.7832  137.8479  155.4256 H   0  0  0  0  0  0  0  0  0  0  0  0
  149.2203  138.3629  156.3041 H   0  0  0  0  0  0  0  0  0  0  0  0
  146.9890  140.0701  155.2489 H   0  0  0  0  0  0  0  0  0  0  0  0
  147.9402  140.2814  156.7066 H   0  0  0  0  0  0  0  0  0  0  0  0
  148.3225  141.4118  154.0506 H   0  0  0  0  0  0  0  0  0  0  0  0
  149.3833  142.9688  155.3484 H   0  0  0  0  0  0  0  0  0  0  0  0
  150.2241  143.8265  156.9087 H   0  0  0  0  0  0  0  0  0  0  0  0
  150.3504  145.2657  158.6931 H   0  0  0  0  0  0  0  0  0  0  0  0
  151.4001  145.8102  160.8904 H   0  0  0  0  0  0  0  0  0  0  0  0
  152.8360  141.7470  161.0461 H   0  0  0  0  0  0  0  0  0  0  0  0
  1  2  1  0  0  0  0
  1 19  1  0  0  0  0
  1 20  1  0  0  0  0
  1 21  1  0  0  0  0
  2  3  1  0  0  0  0
  3  7  1  0  0  0  0
  3  4  1  0  0  0  0
  3 22  1  0  0  0  0
  4  5  1  0  0  0  0
  4 23  1  0  0  0  0
  4 24  1  0  0  0  0
  5  6  1  0  0  0  0
  5 25  1  0  0  0  0
  5 26  1  0  0  0  0
  6  7  1  0  0  0  0
  6 27  1  0  0  0  0
  6 28  1  0  0  0  0
  7  8  1  0  0  0  0
  7 29  1  0  0  0  0
  8  9  1  0  0  0  0
  8 30  1  0  0  0  0
  9 10  2  0  0  0  0
  9 11  1  0  0  0  0
 11 12  1  0  0  0  0
 11 31  1  0  0  0  0
 12 18  1  0  0  0  0
 12 13  2  0  0  0  0
 13 14  1  0  0  0  0
 13 32  1  0  0  0  0
 14 15  2  0  0  0  0
 14 33  1  0  0  0  0
 15 16  1  0  0  0  0
 15 17  1  0  0  0  0
 17 18  2  0  0  0  0
 17 34  1  0  0  0  0
M  END
> <s_m_source_file>
AV-unprocessed.smi

> <i_m_source_file_index>
2752

> <i_lp_mmshare_version>
43012

> <i_f3d_flags>
0

> <s_epik_input>
W0NIM11PW0NAQEhdMVtDSDJdW0NIMl1bQ0gyXVtDQEhdMVtOSF1DKD1PKVtOSF1jMltjSF1bY0hdYyhGKVtjSF1uMg==

> <s_epik_cmdline>
J2VwaWtfcHl0aG9uJywgJy1waCcsICc3LjAnLCAnLXRuJywgJzgnLCAnLW1hJywgJzIwMCcsICctbWV0YWxfYmluZGluZycsICctaW1hZScsICc8aW5maWxlLm1hZT4nLCAnLW9tYWUnLCAnPG91dGZpbGUubWFlPic=

> <r_lp_tautomer_probability>
1

> <r_epik_Ionization_Penalty>
3.49853e-05

> <r_epik_Ionization_Penalty_Charging>
0

> <r_epik_Ionization_Penalty_Neutral>
3.49853e-05

> <r_epik_State_Penalty>
-0

> <r_epik_Charging_Adjusted_Penalty>
0

> <i_epik_Tot_Q>
0

> <i_epik_Tot_abs_Q>
0

> <r_epik_Metal_State_Penalty>
-0

> <b_epik_Metal_Only>
0

> <s_lp_Force_Field>
OPLS_2005

> <r_lp_Energy>
23.7986

> <b_lp_Chiralities_Consistent>
1

> <s_lp_Variant>
AV-unprocessed.smi:2752-2

> <Gold.Version>
5.8.1

> <Gold.Id.Protein>
6NUR|6NUR_protein|mol2

> <Gold.PLP.Fitness>
39.0009

> <Gold.PLP.PLP>
-33.9242

> <Gold.PLP.part.hbond>
-3.0000

> <Gold.PLP.part.metal>
0.0000

> <Gold.PLP.part.buried>
-2.5435

> <Gold.PLP.part.nonpolar>
-28.2224

> <Gold.PLP.part.repulsive>
0.2159

> <Gold.PLP.ligand.clash>
0.0014

> <Gold.PLP.ligand.torsion>
0.3230

> <Gold.PLP.Chemscore.Hbond>
1.9040

> <Gold.PLP.Chemscore.CHOScore>
0.0000

> <Gold.PLP.Chemscore.Metal>
0.0000

> <Gold.Chemscore.Hbonds>
donor molecule, donor type, donor heavy atom, donor atom, acceptor molecule, acceptor atom, score
      L1  H     8    30       P1  8028  0.98
      L1  H    11    31       P1  8028  0.90

> <Gold.PLP.Chemscore.Internal.Correction>
0.0120

> <Gold.Rescore>
     Score         DG    S(hbond)    S(metal)    S(lipo)     H(rot)  DE(clash)    DE(int)     intcor
     10.75     -17.35       1.89        0.00      75.58       1.28       0.76       5.84       ----

> <Gold.Chemscore.Fitness>
10.7548

> <Gold.Chemscore.DG>
-17.3490

> <Gold.Chemscore.ZeroCoef>
-5.4800

> <Gold.Chemscore.Hbond>
1.8887

> <Gold.Chemscore.Metal>
0.0000

> <Gold.Chemscore.Lipo>
75.5802

> <Gold.Chemscore.Internal_Hbond>
0.0000

> <Gold.Chemscore.DEClash>
0.7582

> <Gold.Chemscore.DEInternal>
5.8361

> <Gold.Chemscore.Rot>
1.2821

> <Gold.Chemscore.Internal.Correction>
   9.000000E+99

> <Gold.Chemscore.Hbonds>
donor molecule, donor type, donor heavy atom, donor atom, acceptor molecule, acceptor atom, score
      L1  H     8    30       P1  8028  0.93
      L1  H    11    31       P1  8028  0.83

> <Gold.Chemscore.Hbond.Weighted>
-6.3083

> <Gold.Chemscore.Metal.Weighted>
-0.0000

> <Gold.Chemscore.Lipo.Weighted>
-8.8429

> <Gold.Chemscore.Internal_Hbond.Weighted>
0.0000

> <Gold.Chemscore.DEClash.Weighted>
0.7582

> <Gold.Chemscore.DEInternal.Weighted>
5.8361

> <Gold.Chemscore.Rot.Weighted>
3.2822

> <Gold.Chemscore.Internal.Correction.Weighted>
   9.000000E+99

> <Gold.Protein.RotatedTorsions>
[ 6907 6896 6895 6894 ] final -104.72 input  -60.11 | X-H torsion
[ 7974 7965 7964 7962 ] final  114.37 input  175.53 | X-H torsion
[ 8008 7997 7996 7995 ] final -129.85 input   59.86 | X-H torsion
[ 10167 10162 10161 10158 ] final -166.29 input  -65.29 | X-H torsion
[ 10718 10713 10712 10709 ] final   33.73 input   66.30 | X-H torsion
[ 10763 10752 10751 10750 ] final  -26.42 input  -60.55 | X-H torsion
[ 11005 11000 10999 10996 ] final   33.90 input  -57.11 | X-H torsion

> <Gold.Protein.ActiveResidues>
 VAL166  LYS551  ARG553  GLY616  TRP617  ASP618  TYR619  PRO620  LYS621  CYS622 
 ASP623  PHE694  ASN695  SER759  ASP760  ASP761  ALA762  ILE779  LEU786  VAL792 
 PHE793  MET794  SER795  GLU796  ALA797  LYS798  CYS799  TRP800  GLU811  SER814 

> <Gold.Protein.RotatedAtoms>
  150.7301  134.0235  159.3709 H   0  0  0  0  0  0  0  0  0  0  0  0  # atno 6907 bound_to 6896
  151.8201  135.0652  160.0433 H   0  0  0  0  0  0  0  0  0  0  0  0  # atno 6908 bound_to 6896
  152.3010  133.5619  159.5654 H   0  0  0  0  0  0  0  0  0  0  0  0  # atno 6909 bound_to 6896
  145.2052  139.2933  143.4297 H   0  0  0  0  0  0  0  0  0  0  0  0  # atno 7974 bound_to 7965
  155.2860  140.0446  157.3019 H   0  0  0  0  0  0  0  0  0  0  0  0  # atno 8008 bound_to 7997
  154.5569  140.2334  155.8364 H   0  0  0  0  0  0  0  0  0  0  0  0  # atno 8009 bound_to 7997
  156.2015  140.3024  155.9543 H   0  0  0  0  0  0  0  0  0  0  0  0  # atno 8010 bound_to 7997
  139.6125  144.0786  152.1855 H   0  0  0  0  0  0  0  0  0  0  0  0  # atno 10167 bound_to 10162
  157.3014  130.7353  149.6669 H   0  0  0  0  0  0  0  0  0  0  0  0  # atno 10718 bound_to 10713
  153.7156  135.6948  153.5026 H   0  0  0  0  0  0  0  0  0  0  0  0  # atno 10763 bound_to 10752
  153.2241  135.4360  155.0521 H   0  0  0  0  0  0  0  0  0  0  0  0  # atno 10764 bound_to 10752
  154.8301  135.3468  154.6691 H   0  0  0  0  0  0  0  0  0  0  0  0  # atno 10765 bound_to 10752
  140.2584  134.3221  155.7866 H   0  0  0  0  0  0  0  0  0  0  0  0  # atno 11005 bound_to 11000
  146.3409  140.2310  142.8593 LP  0  0  0  0  0  0  0  0  0  0  0  0  # atno 17320 bound_to 7965
  144.9909  140.8546  143.5340 LP  0  0  0  0  0  0  0  0  0  0  0  0  # atno 17321 bound_to 7965
  140.0408  144.6008  150.7412 LP  0  0  0  0  0  0  0  0  0  0  0  0  # atno 17342 bound_to 10162
  140.7328  143.2710  151.3888 LP  0  0  0  0  0  0  0  0  0  0  0  0  # atno 17343 bound_to 10162
  155.9672  130.4278  150.4763 LP  0  0  0  0  0  0  0  0  0  0  0  0  # atno 17370 bound_to 10713
  157.2744  131.0594  151.2239 LP  0  0  0  0  0  0  0  0  0  0  0  0  # atno 17371 bound_to 10713
  141.2193  133.7395  156.9147 LP  0  0  0  0  0  0  0  0  0  0  0  0  # atno 17394 bound_to 11000
  140.1489  134.9243  157.2566 LP  0  0  0  0  0  0  0  0  0  0  0  0  # atno 17395 bound_to 11000

$$$$
