AV-unprocessed.smi:2304|AV-procd|sdf|9245|dock5
  -GOLD-   2272012463D 1   1.00000     0.00000
 Structure written by MMmdl.
 37 38  0  0  0  0  0  0  0  0  1 V2000
  152.0976  139.1004  154.9114 C   0  0  0  0  0  0  0  0  0  0  0  0
  151.0027  139.9874  154.7669 O   0  0  0  0  0  0  0  0  0  0  0  0
  149.8904  139.6128  155.5636 C   0  0  0  0  0  0  0  0  0  0  0  0
  148.8346  140.7307  155.5325 C   0  0  1  0  0  0  0  0  0  0  0  0
  149.3684  141.9238  156.1852 N   0  0  0  0  0  0  0  0  0  0  0  0
  150.0447  141.9494  157.3434 C   0  0  0  0  0  0  0  0  0  0  0  0
  150.3128  140.9427  158.0000 O   0  0  0  0  0  0  0  0  0  0  0  0
  150.3807  143.2075  157.6789 N   0  0  0  0  0  0  0  0  0  0  0  0
  151.0617  143.6540  158.8427 C   0  0  0  0  0  0  0  0  0  0  0  0
  151.1107  145.0566  159.0076 C   0  0  0  0  0  0  0  0  0  0  0  0
  151.7594  145.5997  160.1334 C   0  0  0  0  0  0  0  0  0  0  0  0
  152.3433  144.7261  161.0680 C   0  0  0  0  0  0  0  0  0  0  0  0
  152.2494  143.3408  160.8300 C   0  0  0  0  0  0  0  0  0  0  0  0
  152.8546  142.3411  161.7930 C   0  0  0  0  0  0  0  0  0  0  0  0
  151.6284  142.8198  159.7499 N   0  0  0  0  0  0  0  0  0  0  0  0
  148.3824  141.0094  154.1114 C   0  0  0  0  0  0  0  0  0  0  0  0
  147.1090  141.7718  153.8351 C   0  0  0  0  0  0  0  0  0  0  0  0
  147.1917  140.2955  153.5173 C   0  0  0  0  0  0  0  0  0  0  0  0
  152.9181  139.4235  154.2709 H   0  0  0  0  0  0  0  0  0  0  0  0
  151.8243  138.0848  154.6224 H   0  0  0  0  0  0  0  0  0  0  0  0
  152.4596  139.0867  155.9403 H   0  0  0  0  0  0  0  0  0  0  0  0
  149.4648  138.6719  155.2104 H   0  0  0  0  0  0  0  0  0  0  0  0
  150.2268  139.4518  156.5891 H   0  0  0  0  0  0  0  0  0  0  0  0
  147.9583  140.3712  156.0753 H   0  0  0  0  0  0  0  0  0  0  0  0
  149.2028  142.8025  155.7175 H   0  0  0  0  0  0  0  0  0  0  0  0
  150.1033  143.9323  157.0343 H   0  0  0  0  0  0  0  0  0  0  0  0
  150.6563  145.7142  158.2809 H   0  0  0  0  0  0  0  0  0  0  0  0
  151.8075  146.6692  160.2765 H   0  0  0  0  0  0  0  0  0  0  0  0
  152.8481  145.1116  161.9417 H   0  0  0  0  0  0  0  0  0  0  0  0
  153.2131  142.8312  162.6986 H   0  0  0  0  0  0  0  0  0  0  0  0
  153.6958  141.8294  161.3250 H   0  0  0  0  0  0  0  0  0  0  0  0
  152.1146  141.5941  162.0824 H   0  0  0  0  0  0  0  0  0  0  0  0
  149.2047  141.1994  153.4238 H   0  0  0  0  0  0  0  0  0  0  0  0
  146.5018  142.0700  154.6878 H   0  0  0  0  0  0  0  0  0  0  0  0
  147.1118  142.4673  152.9984 H   0  0  0  0  0  0  0  0  0  0  0  0
  147.2496  140.0086  152.4696 H   0  0  0  0  0  0  0  0  0  0  0  0
  146.6366  139.6131  154.1582 H   0  0  0  0  0  0  0  0  0  0  0  0
  1  2  1  0  0  0  0
  1 19  1  0  0  0  0
  1 20  1  0  0  0  0
  1 21  1  0  0  0  0
  2  3  1  0  0  0  0
  3  4  1  0  0  0  0
  3 22  1  0  0  0  0
  3 23  1  0  0  0  0
  4  5  1  0  0  0  0
  4 16  1  0  0  0  0
  4 24  1  0  0  0  0
  5  6  1  0  0  0  0
  5 25  1  0  0  0  0
  6  7  2  0  0  0  0
  6  8  1  0  0  0  0
  8  9  1  0  0  0  0
  8 26  1  0  0  0  0
  9 15  1  0  0  0  0
  9 10  2  0  0  0  0
 10 11  1  0  0  0  0
 10 27  1  0  0  0  0
 11 12  2  0  0  0  0
 11 28  1  0  0  0  0
 12 13  1  0  0  0  0
 12 29  1  0  0  0  0
 13 14  1  0  0  0  0
 13 15  2  0  0  0  0
 14 30  1  0  0  0  0
 14 31  1  0  0  0  0
 14 32  1  0  0  0  0
 16 18  1  0  0  0  0
 16 17  1  0  0  0  0
 16 33  1  0  0  0  0
 17 18  1  0  0  0  0
 17 34  1  0  0  0  0
 17 35  1  0  0  0  0
 18 36  1  0  0  0  0
 18 37  1  0  0  0  0
M  END
> <s_m_source_file>
AV-unprocessed.smi

> <i_m_source_file_index>
2304

> <i_lp_mmshare_version>
43012

> <i_f3d_flags>
0

> <s_epik_input>
W0NIM11PW0NIMl1bQ0BASF0oW0NIXTFbQ0gyXVtDSDJdMSlbTkhdQyg9TylbTkhdYzJbY0hdW2NIXVtjSF1jKG4yKVtDSDNd

> <s_epik_cmdline>
J2VwaWtfcHl0aG9uJywgJy1waCcsICc3LjAnLCAnLXRuJywgJzgnLCAnLW1hJywgJzIwMCcsICctbWV0YWxfYmluZGluZycsICctaW1hZScsICc8aW5maWxlLm1hZT4nLCAnLW9tYWUnLCAnPG91dGZpbGUubWFlPic=

> <r_lp_tautomer_probability>
1

> <r_epik_Ionization_Penalty>
8.58396e-05

> <r_epik_Ionization_Penalty_Charging>
0

> <r_epik_Ionization_Penalty_Neutral>
8.58396e-05

> <r_epik_State_Penalty>
-0

> <r_epik_Charging_Adjusted_Penalty>
0

> <i_epik_Tot_Q>
0

> <i_epik_Tot_abs_Q>
0

> <r_epik_Metal_State_Penalty>
-0

> <b_epik_Metal_Only>
0

> <s_lp_Force_Field>
OPLS_2005

> <r_lp_Energy>
16.7335

> <b_lp_Chiralities_Consistent>
1

> <s_lp_Variant>
AV-unprocessed.smi:2304-2

> <Gold.Version>
5.8.1

> <Gold.Id.Protein>
6NUR|6NUR_protein|mol2

> <Gold.PLP.Fitness>
50.1701

> <Gold.PLP.PLP>
-41.6306

> <Gold.PLP.part.hbond>
-3.0000

> <Gold.PLP.part.metal>
0.0000

> <Gold.PLP.part.buried>
-7.8025

> <Gold.PLP.part.nonpolar>
-31.6090

> <Gold.PLP.part.repulsive>
0.1837

> <Gold.PLP.ligand.clash>
0.0000

> <Gold.PLP.ligand.torsion>
0.7581

> <Gold.PLP.Chemscore.Hbond>
2.9920

> <Gold.PLP.Chemscore.CHOScore>
0.0000

> <Gold.PLP.Chemscore.Metal>
0.0000

> <Gold.Chemscore.Hbonds>
donor molecule, donor type, donor heavy atom, donor atom, acceptor molecule, acceptor atom, score
      L1  H     5    25       P1  8028  1.00
      L1  H     8    26       P1  8028  1.00
      P1  H  7989  7998       L1     2  0.85

> <Gold.PLP.Chemscore.Internal.Correction>
1.0798

> <Gold.Rescore>
     Score         DG    S(hbond)    S(metal)    S(lipo)     H(rot)  DE(clash)    DE(int)     intcor
     17.73     -22.03       2.70        0.00      99.87       1.61       0.65       3.65       ----

> <Gold.Chemscore.Fitness>
17.7298

> <Gold.Chemscore.DG>
-22.0339

> <Gold.Chemscore.ZeroCoef>
-5.4800

> <Gold.Chemscore.Hbond>
2.6951

> <Gold.Chemscore.Metal>
0.0000

> <Gold.Chemscore.Lipo>
99.8669

> <Gold.Chemscore.Internal_Hbond>
0.0000

> <Gold.Chemscore.DEClash>
0.6539

> <Gold.Chemscore.DEInternal>
3.6502

> <Gold.Chemscore.Rot>
1.6142

> <Gold.Chemscore.Internal.Correction>
   9.000000E+99

> <Gold.Chemscore.Hbonds>
donor molecule, donor type, donor heavy atom, donor atom, acceptor molecule, acceptor atom, score
      L1  H     5    25       P1  8028  0.97
      L1  H     8    26       P1  8028  0.91
      P1  H  7989  7998       L1     2  0.15

> <Gold.Chemscore.Hbond.Weighted>
-9.0017

> <Gold.Chemscore.Metal.Weighted>
-0.0000

> <Gold.Chemscore.Lipo.Weighted>
-11.6844

> <Gold.Chemscore.Internal_Hbond.Weighted>
0.0000

> <Gold.Chemscore.DEClash.Weighted>
0.6539

> <Gold.Chemscore.DEInternal.Weighted>
3.6502

> <Gold.Chemscore.Rot.Weighted>
4.1323

> <Gold.Chemscore.Internal.Correction.Weighted>
   9.000000E+99

> <Gold.Protein.RotatedTorsions>
[ 6907 6896 6895 6894 ] final -178.65 input  -60.11 | X-H torsion
[ 7974 7965 7964 7962 ] final   72.76 input  175.53 | X-H torsion
[ 8008 7997 7996 7995 ] final  -46.62 input   59.86 | X-H torsion
[ 10167 10162 10161 10158 ] final  -36.58 input  -65.29 | X-H torsion
[ 10718 10713 10712 10709 ] final   88.89 input   66.30 | X-H torsion
[ 10763 10752 10751 10750 ] final -175.45 input  -60.55 | X-H torsion
[ 11005 11000 10999 10996 ] final   43.19 input  -57.11 | X-H torsion

> <Gold.Protein.ActiveResidues>
 VAL166  LYS551  ARG553  GLY616  TRP617  ASP618  TYR619  PRO620  LYS621  CYS622 
 ASP623  PHE694  ASN695  SER759  ASP760  ASP761  ALA762  ILE779  LEU786  VAL792 
 PHE793  MET794  SER795  GLU796  ALA797  LYS798  CYS799  TRP800  GLU811  SER814 

> <Gold.Protein.RotatedAtoms>
  151.6407  133.3326  159.3129 H   0  0  0  0  0  0  0  0  0  0  0  0  # atno 6907 bound_to 6896
  150.8009  134.7106  159.6611 H   0  0  0  0  0  0  0  0  0  0  0  0  # atno 6908 bound_to 6896
  152.4101  134.6143  160.0085 H   0  0  0  0  0  0  0  0  0  0  0  0  # atno 6909 bound_to 6896
  145.7493  139.2753  143.1441 H   0  0  0  0  0  0  0  0  0  0  0  0  # atno 7974 bound_to 7965
  154.4009  140.1367  156.4041 H   0  0  0  0  0  0  0  0  0  0  0  0  # atno 8008 bound_to 7997
  155.7796  140.3482  155.5270 H   0  0  0  0  0  0  0  0  0  0  0  0  # atno 8009 bound_to 7997
  155.8686  140.0968  157.1555 H   0  0  0  0  0  0  0  0  0  0  0  0  # atno 8010 bound_to 7997
  140.7139  143.3399  151.2381 H   0  0  0  0  0  0  0  0  0  0  0  0  # atno 10167 bound_to 10162
  157.6952  131.0312  150.3342 H   0  0  0  0  0  0  0  0  0  0  0  0  # atno 10718 bound_to 10713
  154.5842  135.2839  155.0702 H   0  0  0  0  0  0  0  0  0  0  0  0  # atno 10763 bound_to 10752
  154.2027  135.6421  153.5095 H   0  0  0  0  0  0  0  0  0  0  0  0  # atno 10764 bound_to 10752
  153.0098  135.5473  154.6506 H   0  0  0  0  0  0  0  0  0  0  0  0  # atno 10765 bound_to 10752
  140.1668  134.4272  155.8282 H   0  0  0  0  0  0  0  0  0  0  0  0  # atno 11005 bound_to 11000
  146.0372  140.8200  142.9846 LP  0  0  0  0  0  0  0  0  0  0  0  0  # atno 17320 bound_to 7965
  144.6853  140.2856  143.7285 LP  0  0  0  0  0  0  0  0  0  0  0  0  # atno 17321 bound_to 7965
  139.6904  143.9703  152.2856 LP  0  0  0  0  0  0  0  0  0  0  0  0  # atno 17342 bound_to 10162
  139.9362  144.6710  150.8312 LP  0  0  0  0  0  0  0  0  0  0  0  0  # atno 17343 bound_to 10162
  156.3812  130.3881  149.7100 LP  0  0  0  0  0  0  0  0  0  0  0  0  # atno 17370 bound_to 10713
  156.4482  130.7894  151.2915 LP  0  0  0  0  0  0  0  0  0  0  0  0  # atno 17371 bound_to 10713
  141.2214  133.6938  156.7692 LP  0  0  0  0  0  0  0  0  0  0  0  0  # atno 17394 bound_to 11000
  140.2425  134.8603  157.3587 LP  0  0  0  0  0  0  0  0  0  0  0  0  # atno 17395 bound_to 11000

$$$$
