AV-unprocessed.smi:3261|AV-procd|sdf|12482|dock3
  -GOLD-   2272018383D 1   1.00000     0.00000
 Structure written by MMmdl.
 30 31  0  0  0  0  0  0  0  0  3 V2000
  147.2540  131.7509  152.6889 O   0  0  0  0  0  0  0  0  0  0  0  0
  147.9129  132.7830  152.5738 C   0  0  0  0  0  0  0  0  0  0  0  0
  147.3689  133.8382  151.9180 N   0  0  0  0  0  0  0  0  0  0  0  0
  146.1170  133.9333  151.2534 C   0  0  0  0  0  0  0  0  0  0  0  0
  145.5782  135.2227  151.0511 C   0  0  0  0  0  0  0  0  0  0  0  0
  144.3488  135.3634  150.3758 C   0  0  0  0  0  0  0  0  0  0  0  0
  143.7038  134.2690  149.9176 N   0  3  0  0  0  0  0  0  0  0  0  0
  144.1894  133.0181  150.0705 C   0  0  0  0  0  0  0  0  0  0  0  0
  145.4148  132.8153  150.7372 C   0  0  0  0  0  0  0  0  0  0  0  0
  149.1653  132.8895  153.1140 N   0  5  0  0  0  0  0  0  0  0  0  0
  149.5625  132.9598  154.5291 C   0  0  2  0  0  0  0  0  0  0  0  0
  150.4064  134.2198  154.8129 C   0  0  0  0  0  0  0  0  0  0  0  0
  151.0843  134.0592  156.1811 C   0  0  0  0  0  0  0  0  0  0  0  0
  151.3913  132.2609  156.3786 S   0  0  0  0  0  0  0  0  0  0  0  0
  152.8127  131.9744  156.1303 O   0  0  0  0  0  0  0  0  0  0  0  0
  150.7342  131.7976  157.6110 O   0  0  0  0  0  0  0  0  0  0  0  0
  150.4083  131.7394  154.9184 C   0  0  0  0  0  0  0  0  0  0  0  0
  147.9048  134.6927  151.9603 H   0  0  0  0  0  0  0  0  0  0  0  0
  146.0977  136.0971  151.4161 H   0  0  0  0  0  0  0  0  0  0  0  0
  143.8675  136.3121  150.1881 H   0  0  0  0  0  0  0  0  0  0  0  0
  143.5913  132.2220  149.6521 H   0  0  0  0  0  0  0  0  0  0  0  0
  145.8011  131.8115  150.8315 H   0  0  0  0  0  0  0  0  0  0  0  0
  148.6968  132.9840  155.1930 H   0  0  0  0  0  0  0  0  0  0  0  0
  151.1809  134.3169  154.0504 H   0  0  0  0  0  0  0  0  0  0  0  0
  149.8054  135.1286  154.7724 H   0  0  0  0  0  0  0  0  0  0  0  0
  152.0219  134.6098  156.2534 H   0  0  0  0  0  0  0  0  0  0  0  0
  150.4286  134.3839  156.9906 H   0  0  0  0  0  0  0  0  0  0  0  0
  149.8067  130.8635  155.1606 H   0  0  0  0  0  0  0  0  0  0  0  0
  151.1083  131.4725  154.1255 H   0  0  0  0  0  0  0  0  0  0  0  0
  142.8158  134.3927  149.4305 H   0  0  0  0  0  0  0  0  0  0  0  0
  1  2  2  0  0  0  0
  2  3  1  0  0  0  0
  2 10  1  0  0  0  0
  3  4  1  0  0  0  0
  3 18  1  0  0  0  0
  4  9  1  0  0  0  0
  4  5  2  0  0  0  0
  5  6  1  0  0  0  0
  5 19  1  0  0  0  0
  6  7  2  0  0  0  0
  6 20  1  0  0  0  0
  7  8  1  0  0  0  0
  7 30  1  0  0  0  0
  8  9  2  0  0  0  0
  8 21  1  0  0  0  0
  9 22  1  0  0  0  0
 10 11  1  0  0  0  0
 11 17  1  0  0  0  0
 11 12  1  0  0  0  0
 11 23  1  0  0  0  0
 12 13  1  0  0  0  0
 12 24  1  0  0  0  0
 12 25  1  0  0  0  0
 13 14  1  0  0  0  0
 13 26  1  0  0  0  0
 13 27  1  0  0  0  0
 14 15  2  0  0  0  0
 14 16  2  0  0  0  0
 14 17  1  0  0  0  0
 17 28  1  0  0  0  0
 17 29  1  0  0  0  0
M  CHG  1   7   1
M  CHG  1  10  -1
M  END
> <s_m_source_file>
AV-unprocessed.smi

> <i_m_source_file_index>
3261

> <i_lp_mmshare_version>
43012

> <i_f3d_flags>
0

> <s_epik_input>
Tz1TMSg9TylbQ0gyXVtDSDJdW0NASF0oW0NIMl0xKVtOSF1DKD1PKVtOSF1jMltjSF1bY0hdbltjSF1bY0hdMg==

> <s_epik_cmdline>
J2VwaWtfcHl0aG9uJywgJy1waCcsICc3LjAnLCAnLXRuJywgJzgnLCAnLW1hJywgJzIwMCcsICctbWV0YWxfYmluZGluZycsICctaW1hZScsICc8aW5maWxlLm1hZT4nLCAnLW9tYWUnLCAnPG91dGZpbGUubWFlPic=

> <r_epik_Ionization_Penalty>
8.1176

> <r_epik_Ionization_Penalty_Charging>
8.1176

> <r_epik_Ionization_Penalty_Neutral>
3.03687e-06

> <r_epik_State_Penalty>
7.79629

> <r_epik_Charging_Adjusted_Penalty>
15.9139

> <i_epik_Tot_Q>
0

> <i_epik_Tot_abs_Q>
2

> <r_epik_Metal_State_Penalty>
3.7997

> <b_epik_Metal_Only>
1

> <s_lp_Force_Field>
OPLS_2005

> <r_lp_Energy>
18.9878

> <b_lp_Chiralities_Consistent>
1

> <s_lp_Variant>
AV-unprocessed.smi:3261-5

> <Gold.Version>
5.8.1

> <Gold.Id.Protein>
6NUR|6NUR_protein|mol2

> <Gold.PLP.Fitness>
39.5589

> <Gold.PLP.PLP>
-30.0567

> <Gold.PLP.part.hbond>
-3.0367

> <Gold.PLP.part.metal>
0.0000

> <Gold.PLP.part.buried>
-3.6460

> <Gold.PLP.part.nonpolar>
-22.9550

> <Gold.PLP.part.repulsive>
0.3807

> <Gold.PLP.ligand.clash>
0.0000

> <Gold.PLP.ligand.torsion>
0.7935

> <Gold.PLP.Chemscore.Hbond>
3.6960

> <Gold.PLP.Chemscore.CHOScore>
0.0000

> <Gold.PLP.Chemscore.Metal>
0.0000

> <Gold.Chemscore.Hbonds>
donor molecule, donor type, donor heavy atom, donor atom, acceptor molecule, acceptor atom, score
      L1  H     3    18       P1  7948  1.00
      L1  H     7    30       P1 10186  1.92
      P1  H  6896  6907       L1    16  0.29

> <Gold.PLP.Chemscore.Internal.Correction>
0.0013

> <Gold.Rescore>
     Score         DG    S(hbond)    S(metal)    S(lipo)     H(rot)  DE(clash)    DE(int)     intcor
     14.43     -17.84       2.55        0.00      54.77       1.00       1.33       2.08       ----

> <Gold.Chemscore.Fitness>
14.4299

> <Gold.Chemscore.DG>
-17.8415

> <Gold.Chemscore.ZeroCoef>
-5.4800

> <Gold.Chemscore.Hbond>
2.5490

> <Gold.Chemscore.Metal>
0.0000

> <Gold.Chemscore.Lipo>
54.7668

> <Gold.Chemscore.Internal_Hbond>
0.0000

> <Gold.Chemscore.DEClash>
1.3337

> <Gold.Chemscore.DEInternal>
2.0778

> <Gold.Chemscore.Rot>
1.0000

> <Gold.Chemscore.Internal.Correction>
   9.000000E+99

> <Gold.Chemscore.Hbonds>
donor molecule, donor type, donor heavy atom, donor atom, acceptor molecule, acceptor atom, score
      L1  H     3    18       P1  7948  0.30
      L1  H     7    30       P1 10186  0.92
      P1  H  6896  6907       L1    16  0.15

> <Gold.Chemscore.Hbond.Weighted>
-8.5138

> <Gold.Chemscore.Metal.Weighted>
-0.0000

> <Gold.Chemscore.Lipo.Weighted>
-6.4077

> <Gold.Chemscore.Internal_Hbond.Weighted>
0.0000

> <Gold.Chemscore.DEClash.Weighted>
1.3337

> <Gold.Chemscore.DEInternal.Weighted>
2.0778

> <Gold.Chemscore.Rot.Weighted>
2.5600

> <Gold.Chemscore.Internal.Correction.Weighted>
   9.000000E+99

> <Gold.Protein.RotatedTorsions>
[ 6907 6896 6895 6894 ] final -155.16 input  -60.11 | X-H torsion
[ 7974 7965 7964 7962 ] final  177.12 input  175.53 | X-H torsion
[ 8008 7997 7996 7995 ] final -120.56 input   59.86 | X-H torsion
[ 10167 10162 10161 10158 ] final  159.42 input  -65.29 | X-H torsion
[ 10718 10713 10712 10709 ] final  -42.14 input   66.30 | X-H torsion
[ 10763 10752 10751 10750 ] final  -17.53 input  -60.55 | X-H torsion
[ 11005 11000 10999 10996 ] final  -53.98 input  -57.11 | X-H torsion

> <Gold.Protein.ActiveResidues>
 VAL166  LYS551  ARG553  GLY616  TRP617  ASP618  TYR619  PRO620  LYS621  CYS622 
 ASP623  PHE694  ASN695  SER759  ASP760  ASP761  ALA762  ILE779  LEU786  VAL792 
 PHE793  MET794  SER795  GLU796  ALA797  LYS798  CYS799  TRP800  GLU811  SER814 

> <Gold.Protein.RotatedAtoms>
  151.2684  133.4267  159.2619 H   0  0  0  0  0  0  0  0  0  0  0  0  # atno 6907 bound_to 6896
  151.0467  134.9645  159.8200 H   0  0  0  0  0  0  0  0  0  0  0  0  # atno 6908 bound_to 6896
  152.5375  134.2640  159.8998 H   0  0  0  0  0  0  0  0  0  0  0  0  # atno 6909 bound_to 6896
  144.7173  140.0200  143.6440 H   0  0  0  0  0  0  0  0  0  0  0  0  # atno 7974 bound_to 7965
  155.1338  140.0400  157.2781 H   0  0  0  0  0  0  0  0  0  0  0  0  # atno 8008 bound_to 7997
  154.6523  140.2572  155.7174 H   0  0  0  0  0  0  0  0  0  0  0  0  # atno 8009 bound_to 7997
  156.2582  140.2834  156.0961 H   0  0  0  0  0  0  0  0  0  0  0  0  # atno 8010 bound_to 7997
  139.4832  144.4731  151.8548 H   0  0  0  0  0  0  0  0  0  0  0  0  # atno 10167 bound_to 10162
  156.2627  130.4198  149.8524 H   0  0  0  0  0  0  0  0  0  0  0  0  # atno 10718 bound_to 10713
  153.5753  135.7006  153.5487 H   0  0  0  0  0  0  0  0  0  0  0  0  # atno 10763 bound_to 10752
  153.3308  135.4048  155.1494 H   0  0  0  0  0  0  0  0  0  0  0  0  # atno 10764 bound_to 10752
  154.8626  135.3718  154.5278 H   0  0  0  0  0  0  0  0  0  0  0  0  # atno 10765 bound_to 10752
  141.1003  133.6619  156.4253 H   0  0  0  0  0  0  0  0  0  0  0  0  # atno 11005 bound_to 11000
  146.0189  139.3233  143.0825 LP  0  0  0  0  0  0  0  0  0  0  0  0  # atno 17320 bound_to 7965
  145.8592  140.9485  143.0709 LP  0  0  0  0  0  0  0  0  0  0  0  0  # atno 17321 bound_to 7965
  140.4202  144.2254  150.5887 LP  0  0  0  0  0  0  0  0  0  0  0  0  # atno 17342 bound_to 10162
  140.4882  143.2356  151.8858 LP  0  0  0  0  0  0  0  0  0  0  0  0  # atno 17343 bound_to 10162
  156.6033  130.8556  151.3437 LP  0  0  0  0  0  0  0  0  0  0  0  0  # atno 17370 bound_to 10713
  157.7256  130.9618  150.1623 LP  0  0  0  0  0  0  0  0  0  0  0  0  # atno 17371 bound_to 10713
  140.5038  134.6460  157.5258 LP  0  0  0  0  0  0  0  0  0  0  0  0  # atno 17394 bound_to 11000
  139.9853  134.7072  155.9786 LP  0  0  0  0  0  0  0  0  0  0  0  0  # atno 17395 bound_to 11000

$$$$
