AV-unprocessed.smi:1508|AV-procd|sdf|6086|dock6
  -GOLD-   22720 6213D 1   1.00000     0.00000
 Structure written by MMmdl.
 38 39  0  0  0  0  0  0  0  0  2 V2000
  147.1985  141.9308  154.0837 C   0  0  0  0  0  0  0  0  0  0  0  0
  147.8942  140.6371  154.5360 C   0  0  0  0  0  0  0  0  0  0  0  0
  148.0599  139.5639  153.4259 C   0  0  2  0  0  0  0  0  0  0  0  0
  146.6987  138.9664  152.9748 C   0  0  0  0  0  0  0  0  0  0  0  0
  146.8272  137.6407  152.3775 N   0  0  0  0  0  0  0  0  0  0  0  0
  145.8103  136.7909  152.1752 C   0  0  0  0  0  0  0  0  0  0  0  0
  144.6452  137.0498  152.4760 O   0  0  0  0  0  0  0  0  0  0  0  0
  146.2349  135.6455  151.6179 N   0  0  0  0  0  0  0  0  0  0  0  0
  145.4650  134.5064  151.2736 C   0  0  0  0  0  0  0  0  0  0  0  0
  144.1587  134.5205  151.5635 N   0  0  0  0  0  0  0  0  0  0  0  0
  143.5255  133.3478  151.1702 N   0  0  0  0  0  0  0  0  0  0  0  0
  144.3805  132.4939  150.5990 C   0  0  0  0  0  0  0  0  0  0  0  0
  146.0451  133.0369  150.4840 S   0  0  0  0  0  0  0  0  0  0  0  0
  149.0153  138.4874  153.8223 N   0  3  0  0  0  0  0  0  0  0  0  0
  150.4057  138.9394  154.0841 C   0  0  0  0  0  0  0  0  0  0  0  0
  150.9561  138.0835  155.2338 C   0  0  0  0  0  0  0  0  0  0  0  0
  149.9054  137.0021  155.4579 C   0  0  0  0  0  0  0  0  0  0  0  0
  148.6176  137.6676  154.9877 C   0  0  0  0  0  0  0  0  0  0  0  0
  147.0788  142.6142  154.9245 H   0  0  0  0  0  0  0  0  0  0  0  0
  146.2061  141.7335  153.6784 H   0  0  0  0  0  0  0  0  0  0  0  0
  147.7765  142.4532  153.3216 H   0  0  0  0  0  0  0  0  0  0  0  0
  148.8720  140.8948  154.9434 H   0  0  0  0  0  0  0  0  0  0  0  0
  147.3516  140.2200  155.3842 H   0  0  0  0  0  0  0  0  0  0  0  0
  148.5047  140.0679  152.5660 H   0  0  0  0  0  0  0  0  0  0  0  0
  145.9998  138.8950  153.8090 H   0  0  0  0  0  0  0  0  0  0  0  0
  146.2214  139.6207  152.2453 H   0  0  0  0  0  0  0  0  0  0  0  0
  147.7543  137.3512  152.1003 H   0  0  0  0  0  0  0  0  0  0  0  0
  147.2228  135.5745  151.4229 H   0  0  0  0  0  0  0  0  0  0  0  0
  144.0277  131.5376  150.2423 H   0  0  0  0  0  0  0  0  0  0  0  0
  151.0021  138.8230  153.1787 H   0  0  0  0  0  0  0  0  0  0  0  0
  150.4364  139.9920  154.3704 H   0  0  0  0  0  0  0  0  0  0  0  0
  151.9384  137.6654  155.0112 H   0  0  0  0  0  0  0  0  0  0  0  0
  151.0534  138.6943  156.1324 H   0  0  0  0  0  0  0  0  0  0  0  0
  150.1245  136.1363  154.8314 H   0  0  0  0  0  0  0  0  0  0  0  0
  149.8560  136.6656  156.4939 H   0  0  0  0  0  0  0  0  0  0  0  0
  148.2260  138.3122  155.7766 H   0  0  0  0  0  0  0  0  0  0  0  0
  147.8527  136.9336  154.7337 H   0  0  0  0  0  0  0  0  0  0  0  0
  149.0739  137.8448  153.0451 H   0  0  0  0  0  0  0  0  0  0  0  0
  1  2  1  0  0  0  0
  1 19  1  0  0  0  0
  1 20  1  0  0  0  0
  1 21  1  0  0  0  0
  2  3  1  0  0  0  0
  2 22  1  0  0  0  0
  2 23  1  0  0  0  0
  3  4  1  0  0  0  0
  3 14  1  0  0  0  0
  3 24  1  0  0  0  0
  4  5  1  0  0  0  0
  4 25  1  0  0  0  0
  4 26  1  0  0  0  0
  5  6  1  0  0  0  0
  5 27  1  0  0  0  0
  6  7  2  0  0  0  0
  6  8  1  0  0  0  0
  8  9  1  0  0  0  0
  8 28  1  0  0  0  0
  9 13  1  0  0  0  0
  9 10  2  0  0  0  0
 10 11  1  0  0  0  0
 11 12  2  0  0  0  0
 12 13  1  0  0  0  0
 12 29  1  0  0  0  0
 14 18  1  0  0  0  0
 14 15  1  0  0  0  0
 14 38  1  0  0  0  0
 15 16  1  0  0  0  0
 15 30  1  0  0  0  0
 15 31  1  0  0  0  0
 16 17  1  0  0  0  0
 16 32  1  0  0  0  0
 16 33  1  0  0  0  0
 17 18  1  0  0  0  0
 17 34  1  0  0  0  0
 17 35  1  0  0  0  0
 18 36  1  0  0  0  0
 18 37  1  0  0  0  0
M  CHG  1  14   1
M  END
> <s_m_source_file>
AV-unprocessed.smi

> <i_m_source_file_index>
1508

> <i_lp_mmshare_version>
43012

> <i_f3d_flags>
0

> <s_epik_input>
W0NIMl0xW0NIMl1bQ0gyXVtDSDJdTjFbQ0BIXShbQ0gyXVtDSDNdKVtDSDJdW05IXUMoPU8pW05IXWMybm5bY0hdczI=

> <s_epik_cmdline>
J2VwaWtfcHl0aG9uJywgJy1waCcsICc3LjAnLCAnLXRuJywgJzgnLCAnLW1hJywgJzIwMCcsICctbWV0YWxfYmluZGluZycsICctaW1hZScsICc8aW5maWxlLm1hZT4nLCAnLW9tYWUnLCAnPG91dGZpbGUubWFlPic=

> <r_lp_tautomer_probability>
1

> <r_epik_Ionization_Penalty>
0.00193711

> <r_epik_Ionization_Penalty_Charging>
0.00115997

> <r_epik_Ionization_Penalty_Neutral>
0.000777142

> <r_epik_State_Penalty>
-0

> <r_epik_Charging_Adjusted_Penalty>
0.00115997

> <i_epik_Tot_Q>
1

> <i_epik_Tot_abs_Q>
1

> <r_epik_Metal_State_Penalty>
0.264283

> <b_epik_Metal_Only>
0

> <s_lp_Force_Field>
OPLS_2005

> <r_lp_Energy>
30.1882

> <b_lp_Chiralities_Consistent>
1

> <s_lp_Variant>
AV-unprocessed.smi:1508-1

> <Gold.Version>
5.8.1

> <Gold.Id.Protein>
6NUR|6NUR_protein|mol2

> <Gold.PLP.Fitness>
38.7974

> <Gold.PLP.PLP>
-27.8230

> <Gold.PLP.part.hbond>
-3.6487

> <Gold.PLP.part.metal>
0.0000

> <Gold.PLP.part.buried>
-3.5740

> <Gold.PLP.part.nonpolar>
-22.5122

> <Gold.PLP.part.repulsive>
0.7428

> <Gold.PLP.ligand.clash>
0.0000

> <Gold.PLP.ligand.torsion>
0.4943

> <Gold.PLP.Chemscore.Hbond>
3.9440

> <Gold.PLP.Chemscore.CHOScore>
0.0000

> <Gold.PLP.Chemscore.Metal>
0.0000

> <Gold.Chemscore.Hbonds>
donor molecule, donor type, donor heavy atom, donor atom, acceptor molecule, acceptor atom, score
      L1  H     5    27       P1  7948  1.00
      L1  H     8    28       P1  7948  0.94
      L1  H    14    38       P1  7948  2.00

> <Gold.PLP.Chemscore.Internal.Correction>
0.1309

> <Gold.Rescore>
     Score         DG    S(hbond)    S(metal)    S(lipo)     H(rot)  DE(clash)    DE(int)     intcor
     15.13     -17.32       2.88        0.00      60.50       1.89       0.16       2.02       ----

> <Gold.Chemscore.Fitness>
15.1284

> <Gold.Chemscore.DG>
-17.3161

> <Gold.Chemscore.ZeroCoef>
-5.4800

> <Gold.Chemscore.Hbond>
2.8770

> <Gold.Chemscore.Metal>
0.0000

> <Gold.Chemscore.Lipo>
60.4961

> <Gold.Chemscore.Internal_Hbond>
0.0000

> <Gold.Chemscore.DEClash>
0.1644

> <Gold.Chemscore.DEInternal>
2.0233

> <Gold.Chemscore.Rot>
1.8950

> <Gold.Chemscore.Internal.Correction>
   9.000000E+99

> <Gold.Chemscore.Hbonds>
donor molecule, donor type, donor heavy atom, donor atom, acceptor molecule, acceptor atom, score
      L1  H     5    27       P1  7948  0.98
      L1  H     8    28       P1  7948  0.88
      L1  H    14    38       P1  7948  0.98

> <Gold.Chemscore.Hbond.Weighted>
-9.6092

> <Gold.Chemscore.Metal.Weighted>
-0.0000

> <Gold.Chemscore.Lipo.Weighted>
-7.0780

> <Gold.Chemscore.Internal_Hbond.Weighted>
0.0000

> <Gold.Chemscore.DEClash.Weighted>
0.1644

> <Gold.Chemscore.DEInternal.Weighted>
2.0233

> <Gold.Chemscore.Rot.Weighted>
4.8511

> <Gold.Chemscore.Internal.Correction.Weighted>
   9.000000E+99

> <Gold.Protein.RotatedTorsions>
[ 6907 6896 6895 6894 ] final   52.46 input  -60.11 | X-H torsion
[ 7974 7965 7964 7962 ] final -168.18 input  175.53 | X-H torsion
[ 8008 7997 7996 7995 ] final   64.84 input   59.86 | X-H torsion
[ 10167 10162 10161 10158 ] final  -77.57 input  -65.29 | X-H torsion
[ 10718 10713 10712 10709 ] final   -4.72 input   66.30 | X-H torsion
[ 10763 10752 10751 10750 ] final  -90.60 input  -60.55 | X-H torsion
[ 11005 11000 10999 10996 ] final   13.85 input  -57.11 | X-H torsion

> <Gold.Protein.ActiveResidues>
 VAL166  LYS551  ARG553  GLY616  TRP617  ASP618  TYR619  PRO620  LYS621  CYS622 
 ASP623  PHE694  ASN695  SER759  ASP760  ASP761  ALA762  ILE779  LEU786  VAL792 
 PHE793  MET794  SER795  GLU796  ALA797  LYS798  CYS799  TRP800  GLU811  SER814 

> <Gold.Protein.RotatedAtoms>
  152.3235  134.7350  160.0307 H   0  0  0  0  0  0  0  0  0  0  0  0  # atno 6907 bound_to 6896
  151.7791  133.3342  159.3474 H   0  0  0  0  0  0  0  0  0  0  0  0  # atno 6908 bound_to 6896
  150.7383  134.5879  159.6017 H   0  0  0  0  0  0  0  0  0  0  0  0  # atno 6909 bound_to 6896
  144.7208  140.2408  143.6292 H   0  0  0  0  0  0  0  0  0  0  0  0  # atno 7974 bound_to 7965
  155.6524  140.3497  155.4753 H   0  0  0  0  0  0  0  0  0  0  0  0  # atno 8008 bound_to 7997
  155.9836  140.1179  157.0726 H   0  0  0  0  0  0  0  0  0  0  0  0  # atno 8009 bound_to 7997
  154.4199  140.1133  156.5456 H   0  0  0  0  0  0  0  0  0  0  0  0  # atno 8010 bound_to 7997
  140.4759  143.2414  151.8134 H   0  0  0  0  0  0  0  0  0  0  0  0  # atno 10167 bound_to 10162
  156.7571  130.5258  149.5792 H   0  0  0  0  0  0  0  0  0  0  0  0  # atno 10718 bound_to 10713
  154.6674  135.5298  153.8095 H   0  0  0  0  0  0  0  0  0  0  0  0  # atno 10763 bound_to 10752
  153.0480  135.6520  154.0777 H   0  0  0  0  0  0  0  0  0  0  0  0  # atno 10764 bound_to 10752
  154.0680  135.2956  155.3293 H   0  0  0  0  0  0  0  0  0  0  0  0  # atno 10765 bound_to 10752
  140.4761  134.0982  155.7742 H   0  0  0  0  0  0  0  0  0  0  0  0  # atno 11005 bound_to 11000
  145.8322  139.2091  143.1876 LP  0  0  0  0  0  0  0  0  0  0  0  0  # atno 17320 bound_to 7965
  146.0421  140.8155  142.9823 LP  0  0  0  0  0  0  0  0  0  0  0  0  # atno 17321 bound_to 7965
  139.4825  144.4834  151.9277 LP  0  0  0  0  0  0  0  0  0  0  0  0  # atno 17342 bound_to 10162
  140.3919  144.2604  150.5899 LP  0  0  0  0  0  0  0  0  0  0  0  0  # atno 17343 bound_to 10162
  156.1363  130.6213  151.0405 LP  0  0  0  0  0  0  0  0  0  0  0  0  # atno 17370 bound_to 10713
  157.6751  131.0852  150.7515 LP  0  0  0  0  0  0  0  0  0  0  0  0  # atno 17371 bound_to 10713
  141.1553  133.8893  157.1992 LP  0  0  0  0  0  0  0  0  0  0  0  0  # atno 17394 bound_to 11000
  139.9855  135.0083  156.9851 LP  0  0  0  0  0  0  0  0  0  0  0  0  # atno 17395 bound_to 11000

$$$$
