AV-unprocessed.smi:1088|AV-procd|sdf|4733|dock9
  -GOLD-   22720 3273D 1   1.00000     0.00000
 Structure written by MMmdl.
 47 48  0  0  0  0  0  0  0  0  1 V2000
  151.6876  138.2142  154.9196 C   0  0  0  0  0  0  0  0  0  0  0  0
  150.2725  138.1716  154.8744 O   0  0  0  0  0  0  0  0  0  0  0  0
  149.7066  139.3832  154.4013 C   0  0  0  0  0  0  0  0  0  0  0  0
  148.8957  140.0642  155.5152 C   0  0  0  0  0  0  0  0  0  0  0  0
  148.2143  141.3011  155.1254 N   0  0  0  0  0  0  0  0  0  0  0  0
  147.5494  141.2011  153.8369 C   0  0  0  0  0  0  0  0  0  0  0  0
  146.5488  142.3560  153.7739 C   0  0  0  0  0  0  0  0  0  0  0  0
  146.3526  142.7540  155.2413 C   0  0  0  0  0  0  0  0  0  0  0  0
  147.1427  141.7022  156.0329 C   0  0  2  0  0  0  0  0  0  0  0  0
  147.5956  142.2454  157.4047 C   0  0  0  0  0  0  0  0  0  0  0  0
  149.0094  142.6040  157.3934 N   0  0  0  0  0  0  0  0  0  0  0  0
  150.0079  141.8535  157.8809 C   0  0  0  0  0  0  0  0  0  0  0  0
  149.8452  140.7276  158.3525 O   0  0  0  0  0  0  0  0  0  0  0  0
  151.4091  142.4741  157.8127 C   0  0  0  0  0  0  0  0  0  0  0  0
  152.1857  142.2532  159.0391 N   0  0  0  0  0  0  0  0  0  0  0  0
  153.0148  141.1508  159.1363 C   0  0  0  0  0  0  0  0  0  0  0  0
  153.7466  140.8640  160.2350 C   0  0  0  0  0  0  0  0  0  0  0  0
  153.7032  141.7261  161.4098 C   0  0  0  0  0  0  0  0  0  0  0  0
  154.3354  141.4893  162.4399 O   0  0  0  0  0  0  0  0  0  0  0  0
  152.8613  142.8565  161.2775 N   0  0  0  0  0  0  0  0  0  0  0  0
  152.7397  143.7591  162.4037 C   0  0  0  0  0  0  0  0  0  0  0  0
  152.0856  143.1423  160.1314 C   0  0  0  0  0  0  0  0  0  0  0  0
  151.3395  144.1234  160.0763 O   0  0  0  0  0  0  0  0  0  0  0  0
  152.0704  137.2653  155.2955 H   0  0  0  0  0  0  0  0  0  0  0  0
  152.0385  139.0053  155.5832 H   0  0  0  0  0  0  0  0  0  0  0  0
  152.1080  138.3766  153.9265 H   0  0  0  0  0  0  0  0  0  0  0  0
  150.5110  140.0496  154.0862 H   0  0  0  0  0  0  0  0  0  0  0  0
  149.0753  139.2039  153.5294 H   0  0  0  0  0  0  0  0  0  0  0  0
  148.1875  139.3561  155.9477 H   0  0  0  0  0  0  0  0  0  0  0  0
  149.6078  140.2977  156.3033 H   0  0  0  0  0  0  0  0  0  0  0  0
  148.2624  141.2384  153.0129 H   0  0  0  0  0  0  0  0  0  0  0  0
  147.0098  140.2548  153.7678 H   0  0  0  0  0  0  0  0  0  0  0  0
  146.9517  143.1928  153.2023 H   0  0  0  0  0  0  0  0  0  0  0  0
  145.6156  142.0446  153.3039 H   0  0  0  0  0  0  0  0  0  0  0  0
  146.7638  143.7513  155.4066 H   0  0  0  0  0  0  0  0  0  0  0  0
  145.3010  142.7760  155.5291 H   0  0  0  0  0  0  0  0  0  0  0  0
  146.4735  140.8535  156.1886 H   0  0  0  0  0  0  0  0  0  0  0  0
  146.9558  143.0744  157.7126 H   0  0  0  0  0  0  0  0  0  0  0  0
  147.4800  141.4703  158.1631 H   0  0  0  0  0  0  0  0  0  0  0  0
  149.2422  143.5128  157.0205 H   0  0  0  0  0  0  0  0  0  0  0  0
  151.9294  142.0438  156.9561 H   0  0  0  0  0  0  0  0  0  0  0  0
  151.3370  143.5439  157.6076 H   0  0  0  0  0  0  0  0  0  0  0  0
  153.0778  140.4775  158.2939 H   0  0  0  0  0  0  0  0  0  0  0  0
  154.3696  139.9817  160.2467 H   0  0  0  0  0  0  0  0  0  0  0  0
  152.6665  144.7820  162.0304 H   0  0  0  0  0  0  0  0  0  0  0  0
  153.6250  143.6941  163.0370 H   0  0  0  0  0  0  0  0  0  0  0  0
  151.8405  143.4666  162.9478 H   0  0  0  0  0  0  0  0  0  0  0  0
  1  2  1  0  0  0  0
  1 24  1  0  0  0  0
  1 25  1  0  0  0  0
  1 26  1  0  0  0  0
  2  3  1  0  0  0  0
  3  4  1  0  0  0  0
  3 27  1  0  0  0  0
  3 28  1  0  0  0  0
  4  5  1  0  0  0  0
  4 29  1  0  0  0  0
  4 30  1  0  0  0  0
  5  9  1  0  0  0  0
  5  6  1  0  0  0  0
  6  7  1  0  0  0  0
  6 31  1  0  0  0  0
  6 32  1  0  0  0  0
  7  8  1  0  0  0  0
  7 33  1  0  0  0  0
  7 34  1  0  0  0  0
  8  9  1  0  0  0  0
  8 35  1  0  0  0  0
  8 36  1  0  0  0  0
  9 10  1  0  0  0  0
  9 37  1  0  0  0  0
 10 11  1  0  0  0  0
 10 38  1  0  0  0  0
 10 39  1  0  0  0  0
 11 12  1  0  0  0  0
 11 40  1  0  0  0  0
 12 13  2  0  0  0  0
 12 14  1  0  0  0  0
 14 15  1  0  0  0  0
 14 41  1  0  0  0  0
 14 42  1  0  0  0  0
 15 22  1  0  0  0  0
 15 16  1  0  0  0  0
 16 17  2  0  0  0  0
 16 43  1  0  0  0  0
 17 18  1  0  0  0  0
 17 44  1  0  0  0  0
 18 19  2  0  0  0  0
 18 20  1  0  0  0  0
 20 21  1  0  0  0  0
 20 22  1  0  0  0  0
 21 45  1  0  0  0  0
 21 46  1  0  0  0  0
 21 47  1  0  0  0  0
 22 23  2  0  0  0  0
M  END
> <s_m_source_file>
AV-unprocessed.smi

> <i_m_source_file_index>
1088

> <i_lp_mmshare_version>
43012

> <i_f3d_flags>
0

> <s_epik_input>
W0NIM11PW0NIMl1bQ0gyXU4xW0NIMl1bQ0gyXVtDSDJdW0NASF0xW0NIMl1bTkhdQyg9TylbQ0gyXW4yW2NIXVtjSF1jKD1PKW4oW0NIM10pYzI9Tw==

> <s_epik_cmdline>
J2VwaWtfcHl0aG9uJywgJy1waCcsICc3LjAnLCAnLXRuJywgJzgnLCAnLW1hJywgJzIwMCcsICctbWV0YWxfYmluZGluZycsICctaW1hZScsICc8aW5maWxlLm1hZT4nLCAnLW9tYWUnLCAnPG91dGZpbGUubWFlPic=

> <r_lp_tautomer_probability>
1

> <r_epik_Ionization_Penalty>
2.28131

> <r_epik_Ionization_Penalty_Charging>
1.22971e-08

> <r_epik_Ionization_Penalty_Neutral>
2.28131

> <r_epik_State_Penalty>
2.43063

> <r_epik_Charging_Adjusted_Penalty>
2.43063

> <i_epik_Tot_Q>
0

> <i_epik_Tot_abs_Q>
0

> <r_epik_Metal_State_Penalty>
2.43056

> <b_epik_Metal_Only>
0

> <s_lp_Force_Field>
OPLS_2005

> <r_lp_Energy>
54.0247

> <b_lp_Chiralities_Consistent>
1

> <s_lp_Variant>
AV-unprocessed.smi:1088-6

> <Gold.Version>
5.8.1

> <Gold.Id.Protein>
6NUR|6NUR_protein|mol2

> <Gold.PLP.Fitness>
46.5562

> <Gold.PLP.PLP>
-47.5227

> <Gold.PLP.part.hbond>
-2.0000

> <Gold.PLP.part.metal>
0.0000

> <Gold.PLP.part.buried>
-4.7122

> <Gold.PLP.part.nonpolar>
-40.5107

> <Gold.PLP.part.repulsive>
0.4294

> <Gold.PLP.ligand.clash>
0.0000

> <Gold.PLP.ligand.torsion>
1.8623

> <Gold.PLP.Chemscore.Hbond>
0.8960

> <Gold.PLP.Chemscore.CHOScore>
0.0000

> <Gold.PLP.Chemscore.Metal>
0.0000

> <Gold.Chemscore.Hbonds>
donor molecule, donor type, donor heavy atom, donor atom, acceptor molecule, acceptor atom, score
      L1  H    11    40       P1  8028  0.90

> <Gold.PLP.Chemscore.Internal.Correction>
0.0702

> <Gold.Rescore>
     Score         DG    S(hbond)    S(metal)    S(lipo)     H(rot)  DE(clash)    DE(int)     intcor
      8.90     -10.98       0.68        0.00      82.22       2.49       0.28       1.81       ----

> <Gold.Chemscore.Fitness>
8.8981

> <Gold.Chemscore.DG>
-10.9820

> <Gold.Chemscore.ZeroCoef>
-5.4800

> <Gold.Chemscore.Hbond>
0.6786

> <Gold.Chemscore.Metal>
0.0000

> <Gold.Chemscore.Lipo>
82.2172

> <Gold.Chemscore.Internal_Hbond>
0.0000

> <Gold.Chemscore.DEClash>
0.2786

> <Gold.Chemscore.DEInternal>
1.8053

> <Gold.Chemscore.Rot>
2.4938

> <Gold.Chemscore.Internal.Correction>
   9.000000E+99

> <Gold.Chemscore.Hbonds>
donor molecule, donor type, donor heavy atom, donor atom, acceptor molecule, acceptor atom, score
      L1  H    11    40       P1  8028  0.72

> <Gold.Chemscore.Hbond.Weighted>
-2.2667

> <Gold.Chemscore.Metal.Weighted>
-0.0000

> <Gold.Chemscore.Lipo.Weighted>
-9.6194

> <Gold.Chemscore.Internal_Hbond.Weighted>
0.0000

> <Gold.Chemscore.DEClash.Weighted>
0.2786

> <Gold.Chemscore.DEInternal.Weighted>
1.8053

> <Gold.Chemscore.Rot.Weighted>
6.3841

> <Gold.Chemscore.Internal.Correction.Weighted>
   9.000000E+99

> <Gold.Protein.RotatedTorsions>
[ 6907 6896 6895 6894 ] final  166.38 input  -60.11 | X-H torsion
[ 7974 7965 7964 7962 ] final   -9.39 input  175.53 | X-H torsion
[ 8008 7997 7996 7995 ] final -156.94 input   59.86 | X-H torsion
[ 10167 10162 10161 10158 ] final  -18.98 input  -65.29 | X-H torsion
[ 10718 10713 10712 10709 ] final   92.71 input   66.30 | X-H torsion
[ 10763 10752 10751 10750 ] final  137.54 input  -60.55 | X-H torsion
[ 11005 11000 10999 10996 ] final  104.76 input  -57.11 | X-H torsion

> <Gold.Protein.ActiveResidues>
 VAL166  LYS551  ARG553  GLY616  TRP617  ASP618  TYR619  PRO620  LYS621  CYS622 
 ASP623  PHE694  ASN695  SER759  ASP760  ASP761  ALA762  ILE779  LEU786  VAL792 
 PHE793  MET794  SER795  GLU796  ALA797  LYS798  CYS799  TRP800  GLU811  SER814 

> <Gold.Protein.RotatedAtoms>
  151.8797  133.3493  159.3762 H   0  0  0  0  0  0  0  0  0  0  0  0  # atno 6907 bound_to 6896
  150.7130  134.5030  159.5580 H   0  0  0  0  0  0  0  0  0  0  0  0  # atno 6908 bound_to 6896
  152.2580  134.8065  160.0486 H   0  0  0  0  0  0  0  0  0  0  0  0  # atno 6909 bound_to 6896
  146.2253  140.2609  142.8352 H   0  0  0  0  0  0  0  0  0  0  0  0  # atno 7974 bound_to 7965
  155.7248  140.0794  157.2315 H   0  0  0  0  0  0  0  0  0  0  0  0  # atno 8008 bound_to 7997
  154.4040  140.1606  156.2497 H   0  0  0  0  0  0  0  0  0  0  0  0  # atno 8009 bound_to 7997
  155.9163  140.3400  155.6140 H   0  0  0  0  0  0  0  0  0  0  0  0  # atno 8010 bound_to 7997
  140.7264  143.4863  151.0051 H   0  0  0  0  0  0  0  0  0  0  0  0  # atno 10167 bound_to 10162
  157.6957  131.0453  150.3923 H   0  0  0  0  0  0  0  0  0  0  0  0  # atno 10718 bound_to 10713
  153.8748  135.3051  155.3443 H   0  0  0  0  0  0  0  0  0  0  0  0  # atno 10763 bound_to 10752
  154.7789  135.4846  153.9805 H   0  0  0  0  0  0  0  0  0  0  0  0  # atno 10764 bound_to 10752
  153.1385  135.6819  153.9160 H   0  0  0  0  0  0  0  0  0  0  0  0  # atno 10765 bound_to 10752
  139.8795  134.9312  156.5411 H   0  0  0  0  0  0  0  0  0  0  0  0  # atno 11005 bound_to 11000
  144.9340  140.8006  143.5672 LP  0  0  0  0  0  0  0  0  0  0  0  0  # atno 17320 bound_to 7965
  145.2555  139.2014  143.4919 LP  0  0  0  0  0  0  0  0  0  0  0  0  # atno 17321 bound_to 7965
  139.8565  143.7371  152.3175 LP  0  0  0  0  0  0  0  0  0  0  0  0  # atno 17342 bound_to 10162
  139.7571  144.7517  151.0419 LP  0  0  0  0  0  0  0  0  0  0  0  0  # atno 17343 bound_to 10162
  156.4326  130.3975  149.6750 LP  0  0  0  0  0  0  0  0  0  0  0  0  # atno 17370 bound_to 10713
  156.3962  130.7652  151.2657 LP  0  0  0  0  0  0  0  0  0  0  0  0  # atno 17371 bound_to 10713
  140.8310  133.8279  155.8984 LP  0  0  0  0  0  0  0  0  0  0  0  0  # atno 17394 bound_to 11000
  140.9329  134.1999  157.4851 LP  0  0  0  0  0  0  0  0  0  0  0  0  # atno 17395 bound_to 11000

$$$$
