AV-unprocessed.smi:726|AV-procd|sdf|3514|dock4
  -GOLD-   22720 0513D 1   1.00000     0.00000
 Structure written by MMmdl.
 24 24  0  0  0  0  0  0  0  0  2 V2000
  151.6107  139.8770  158.7937 C   0  0  0  0  0  0  0  0  0  0  0  0
  151.6331  141.3996  158.8309 C   0  0  0  0  0  0  0  0  0  0  0  0
  152.0641  142.0198  159.9540 C   0  0  0  0  0  0  0  0  0  0  0  0
  152.1840  143.4856  160.0087 C   0  0  0  0  0  0  0  0  0  0  0  0
  152.5010  144.0787  161.0381 O   0  0  0  0  0  0  0  0  0  0  0  0
  151.9206  144.1925  158.7491 C   0  0  0  0  0  0  0  0  0  0  0  0
  151.4925  143.4914  157.6817 C   0  0  0  0  0  0  0  0  0  0  0  0
  151.2971  144.0916  156.4988 O   0  0  0  0  0  0  0  0  0  0  0  0
  151.2381  142.1015  157.6676 N   0  0  0  0  0  0  0  0  0  0  0  0
  150.4647  141.4304  156.5959 C   0  0  2  0  0  0  0  0  0  0  0  0
  149.1219  140.8614  157.1001 C   0  0  0  0  0  0  0  0  0  0  0  0
  151.3024  140.4470  155.7550 C   0  0  0  0  0  0  0  0  0  0  0  0
  150.7978  139.9827  154.7082 O   0  0  0  0  0  0  0  0  0  0  0  0
  152.4476  140.1796  156.1810 O   0  5  0  0  0  0  0  0  0  0  0  0
  152.2757  139.4606  159.5510 H   0  0  0  0  0  0  0  0  0  0  0  0
  151.9497  139.4903  157.8323 H   0  0  0  0  0  0  0  0  0  0  0  0
  150.6053  139.5057  158.9937 H   0  0  0  0  0  0  0  0  0  0  0  0
  152.3626  141.4537  160.8244 H   0  0  0  0  0  0  0  0  0  0  0  0
  152.1005  145.2565  158.6979 H   0  0  0  0  0  0  0  0  0  0  0  0
  150.1891  142.1618  155.8408 H   0  0  0  0  0  0  0  0  0  0  0  0
  148.5339  140.4563  156.2760 H   0  0  0  0  0  0  0  0  0  0  0  0
  148.5244  141.6423  157.5706 H   0  0  0  0  0  0  0  0  0  0  0  0
  149.2534  140.0636  157.8301 H   0  0  0  0  0  0  0  0  0  0  0  0
  150.4078  144.4093  156.4835 H   0  0  0  0  0  0  0  0  0  0  0  0
  1  2  1  0  0  0  0
  1 15  1  0  0  0  0
  1 16  1  0  0  0  0
  1 17  1  0  0  0  0
  2  9  1  0  0  0  0
  2  3  2  0  0  0  0
  3  4  1  0  0  0  0
  3 18  1  0  0  0  0
  4  5  2  0  0  0  0
  4  6  1  0  0  0  0
  6  7  2  0  0  0  0
  6 19  1  0  0  0  0
  7  8  1  0  0  0  0
  7  9  1  0  0  0  0
  8 24  1  0  0  0  0
  9 10  1  0  0  0  0
 10 11  1  0  0  0  0
 10 12  1  0  0  0  0
 10 20  1  0  0  0  0
 11 21  1  0  0  0  0
 11 22  1  0  0  0  0
 11 23  1  0  0  0  0
 12 13  2  0  0  0  0
 12 14  1  0  0  0  0
M  CHG  1  14  -1
M  END
> <s_m_source_file>
AV-unprocessed.smi

> <i_m_source_file_index>
726

> <i_lp_mmshare_version>
43012

> <i_f3d_flags>
0

> <s_epik_input>
W0NIM11jMVtjSF1jKFtPSF0pW2NIXWMoPU8pbjFbQ0BIXShbQ0gzXSlDKD1PKVtPSF0=

> <s_epik_cmdline>
J2VwaWtfcHl0aG9uJywgJy1waCcsICc3LjAnLCAnLXRuJywgJzgnLCAnLW1hJywgJzIwMCcsICctbWV0YWxfYmluZGluZycsICctaW1hZScsICc8aW5maWxlLm1hZT4nLCAnLW9tYWUnLCAnPG91dGZpbGUubWFlPic=

> <r_epik_Ionization_Penalty>
0.000857085

> <r_epik_Ionization_Penalty_Charging>
0.000857085

> <r_epik_Ionization_Penalty_Neutral>
0

> <r_epik_State_Penalty>
1.45659

> <r_epik_Charging_Adjusted_Penalty>
1.45745

> <i_epik_Tot_Q>
-1

> <i_epik_Tot_abs_Q>
1

> <r_epik_Metal_State_Penalty>
1.45659

> <b_epik_Metal_Only>
0

> <s_lp_Force_Field>
OPLS_2005

> <r_lp_Energy>
4.32013

> <b_lp_Chiralities_Consistent>
1

> <s_lp_Variant>
AV-unprocessed.smi:726-5

> <Gold.Version>
5.8.1

> <Gold.Id.Protein>
6NUR|6NUR_protein|mol2

> <Gold.PLP.Fitness>
40.7659

> <Gold.PLP.PLP>
-28.8707

> <Gold.PLP.part.hbond>
-3.0000

> <Gold.PLP.part.metal>
0.0000

> <Gold.PLP.part.buried>
-0.9029

> <Gold.PLP.part.nonpolar>
-24.0030

> <Gold.PLP.part.repulsive>
0.1786

> <Gold.PLP.ligand.clash>
0.0000

> <Gold.PLP.ligand.torsion>
0.2167

> <Gold.PLP.Chemscore.Hbond>
4.0000

> <Gold.PLP.Chemscore.CHOScore>
0.0000

> <Gold.PLP.Chemscore.Metal>
0.0000

> <Gold.Chemscore.Hbonds>
donor molecule, donor type, donor heavy atom, donor atom, acceptor molecule, acceptor atom, score
      L1  H     8    24       P1  8028  1.00
      P1  H  7989  7998       L1    13  1.00
      P1  H  7997  8010       L1    14  2.00

> <Gold.PLP.Chemscore.Internal.Correction>
0.3286

> <Gold.Rescore>
     Score         DG    S(hbond)    S(metal)    S(lipo)     H(rot)  DE(clash)    DE(int)     intcor
     12.03     -14.92       2.94        0.00      42.89       2.11       0.19       2.69       ----

> <Gold.Chemscore.Fitness>
12.0307

> <Gold.Chemscore.DG>
-14.9175

> <Gold.Chemscore.ZeroCoef>
-5.4800

> <Gold.Chemscore.Hbond>
2.9422

> <Gold.Chemscore.Metal>
0.0000

> <Gold.Chemscore.Lipo>
42.8904

> <Gold.Chemscore.Internal_Hbond>
0.0000

> <Gold.Chemscore.DEClash>
0.1940

> <Gold.Chemscore.DEInternal>
2.6927

> <Gold.Chemscore.Rot>
2.1124

> <Gold.Chemscore.Internal.Correction>
   9.000000E+99

> <Gold.Chemscore.Hbonds>
donor molecule, donor type, donor heavy atom, donor atom, acceptor molecule, acceptor atom, score
      L1  H     8    24       P1  8028  0.96
      P1  H  7989  7998       L1    13  0.35
      P1  H  7997  8010       L1    14  0.98

> <Gold.Chemscore.Hbond.Weighted>
-9.8271

> <Gold.Chemscore.Metal.Weighted>
-0.0000

> <Gold.Chemscore.Lipo.Weighted>
-5.0182

> <Gold.Chemscore.Internal_Hbond.Weighted>
0.0000

> <Gold.Chemscore.DEClash.Weighted>
0.1940

> <Gold.Chemscore.DEInternal.Weighted>
2.6927

> <Gold.Chemscore.Rot.Weighted>
5.4078

> <Gold.Chemscore.Internal.Correction.Weighted>
   9.000000E+99

> <Gold.Protein.RotatedTorsions>
[ 6907 6896 6895 6894 ] final  148.28 input  -60.11 | X-H torsion
[ 7974 7965 7964 7962 ] final -164.90 input  175.53 | X-H torsion
[ 8008 7997 7996 7995 ] final   84.25 input   59.86 | X-H torsion
[ 10167 10162 10161 10158 ] final   54.94 input  -65.29 | X-H torsion
[ 10718 10713 10712 10709 ] final   82.52 input   66.30 | X-H torsion
[ 10763 10752 10751 10750 ] final  -62.53 input  -60.55 | X-H torsion
[ 11005 11000 10999 10996 ] final  128.58 input  -57.11 | X-H torsion

> <Gold.Protein.ActiveResidues>
 VAL166  LYS551  ARG553  GLY616  TRP617  ASP618  TYR619  PRO620  LYS621  CYS622 
 ASP623  PHE694  ASN695  SER759  ASP760  ASP761  ALA762  ILE779  LEU786  VAL792 
 PHE793  MET794  SER795  GLU796  ALA797  LYS798  CYS799  TRP800  GLU811  SER814 

> <Gold.Protein.RotatedAtoms>
  152.1436  133.4479  159.4778 H   0  0  0  0  0  0  0  0  0  0  0  0  # atno 6907 bound_to 6896
  150.6888  134.2275  159.4430 H   0  0  0  0  0  0  0  0  0  0  0  0  # atno 6908 bound_to 6896
  152.0167  134.9845  160.0620 H   0  0  0  0  0  0  0  0  0  0  0  0  # atno 6909 bound_to 6896
  144.7284  140.2893  143.6223 H   0  0  0  0  0  0  0  0  0  0  0  0  # atno 7974 bound_to 7965
  155.9346  140.3412  155.6277 H   0  0  0  0  0  0  0  0  0  0  0  0  # atno 8008 bound_to 7997
  155.7115  140.0772  157.2387 H   0  0  0  0  0  0  0  0  0  0  0  0  # atno 8009 bound_to 7997
  154.4091  140.1622  156.2289 H   0  0  0  0  0  0  0  0  0  0  0  0  # atno 8010 bound_to 7997
  140.2248  144.3750  150.6437 H   0  0  0  0  0  0  0  0  0  0  0  0  # atno 10167 bound_to 10162
  157.6859  131.0051  150.2387 H   0  0  0  0  0  0  0  0  0  0  0  0  # atno 10718 bound_to 10713
  154.3013  135.6234  153.5426 H   0  0  0  0  0  0  0  0  0  0  0  0  # atno 10763 bound_to 10752
  152.9840  135.5679  154.5280 H   0  0  0  0  0  0  0  0  0  0  0  0  # atno 10764 bound_to 10752
  154.4911  135.2867  155.1472 H   0  0  0  0  0  0  0  0  0  0  0  0  # atno 10765 bound_to 10752
  139.9568  134.9611  156.9022 H   0  0  0  0  0  0  0  0  0  0  0  0  # atno 11005 bound_to 11000
  145.7871  139.1913  143.2124 LP  0  0  0  0  0  0  0  0  0  0  0  0  # atno 17320 bound_to 7965
  146.0787  140.7789  142.9652 LP  0  0  0  0  0  0  0  0  0  0  0  0  # atno 17321 bound_to 7965
  140.6229  143.2178  151.6657 LP  0  0  0  0  0  0  0  0  0  0  0  0  # atno 17342 bound_to 10162
  139.5131  144.3454  152.0702 LP  0  0  0  0  0  0  0  0  0  0  0  0  # atno 17343 bound_to 10162
  156.3005  130.3758  149.7754 LP  0  0  0  0  0  0  0  0  0  0  0  0  # atno 17370 bound_to 10713
  156.5386  130.8289  151.3261 LP  0  0  0  0  0  0  0  0  0  0  0  0  # atno 17371 bound_to 10713
  140.5590  134.0553  155.7393 LP  0  0  0  0  0  0  0  0  0  0  0  0  # atno 17394 bound_to 11000
  141.1241  133.9413  157.2671 LP  0  0  0  0  0  0  0  0  0  0  0  0  # atno 17395 bound_to 11000

$$$$
