AV-unprocessed.smi:895|AV-procd|sdf|4075|dock3
  -GOLD-   22720 1563D 1   1.00000     0.00000
 Structure written by MMmdl.
 44 45  0  0  0  0  0  0  0  0  1 V2000
  147.1764  139.7219  153.2342 C   0  0  0  0  0  0  0  0  0  0  0  0
  147.5587  140.6671  154.3893 C   0  0  0  0  0  0  0  0  0  0  0  0
  146.8284  142.0123  154.2399 C   0  0  0  0  0  0  0  0  0  0  0  0
  147.0950  140.0988  155.5985 O   0  0  0  0  0  0  0  0  0  0  0  0
  149.0820  140.9055  154.5274 C   0  0  0  0  0  0  0  0  0  0  0  0
  149.4240  141.8784  155.5636 N   0  0  0  0  0  0  0  0  0  0  0  0
  150.4640  141.7894  156.4042 C   0  0  0  0  0  0  0  0  0  0  0  0
  151.2663  140.8557  156.4172 O   0  0  0  0  0  0  0  0  0  0  0  0
  150.5268  142.8444  157.2278 N   0  0  0  0  0  0  0  0  0  0  0  0
  151.5562  143.0630  158.2426 C   0  0  2  0  0  0  0  0  0  0  0  0
  151.7663  141.7744  159.0628 C   0  0  0  0  0  0  0  0  0  0  0  0
  152.8444  141.9685  160.1400 C   0  0  0  0  0  0  0  0  0  0  0  0
  152.5079  143.1445  161.0689 C   0  0  0  0  0  0  0  0  0  0  0  0
  152.2803  144.4436  160.2737 C   0  0  0  0  0  0  0  0  0  0  0  0
  151.2485  144.3039  159.1297 C   0  0  2  0  0  0  0  0  0  0  0  0
  149.8643  144.3685  159.6035 N   0  0  0  0  0  0  0  0  0  0  0  0
  149.3019  145.3391  160.4090 C   0  0  0  0  0  0  0  0  0  0  0  0
  147.9878  145.0177  160.5915 C   0  0  0  0  0  0  0  0  0  0  0  0
  147.8303  143.8159  159.8483 C   0  0  0  0  0  0  0  0  0  0  0  0
  148.9501  143.4331  159.2591 N   0  0  0  0  0  0  0  0  0  0  0  0
  147.5496  140.0980  152.2811 H   0  0  0  0  0  0  0  0  0  0  0  0
  146.0940  139.6221  153.1468 H   0  0  0  0  0  0  0  0  0  0  0  0
  147.5796  138.7188  153.3755 H   0  0  0  0  0  0  0  0  0  0  0  0
  147.1260  142.5218  153.3228 H   0  0  0  0  0  0  0  0  0  0  0  0
  147.0490  142.6805  155.0734 H   0  0  0  0  0  0  0  0  0  0  0  0
  145.7464  141.8780  154.2040 H   0  0  0  0  0  0  0  0  0  0  0  0
  146.1511  140.0657  155.5702 H   0  0  0  0  0  0  0  0  0  0  0  0
  149.5837  139.9576  154.7303 H   0  0  0  0  0  0  0  0  0  0  0  0
  149.4954  141.2576  153.5815 H   0  0  0  0  0  0  0  0  0  0  0  0
  148.8271  142.6894  155.6348 H   0  0  0  0  0  0  0  0  0  0  0  0
  149.8226  143.5620  157.1364 H   0  0  0  0  0  0  0  0  0  0  0  0
  152.4970  143.2564  157.7232 H   0  0  0  0  0  0  0  0  0  0  0  0
  150.8340  141.4556  159.5286 H   0  0  0  0  0  0  0  0  0  0  0  0
  152.0627  140.9608  158.3999 H   0  0  0  0  0  0  0  0  0  0  0  0
  152.9544  141.0541  160.7238 H   0  0  0  0  0  0  0  0  0  0  0  0
  153.8083  142.1467  159.6618 H   0  0  0  0  0  0  0  0  0  0  0  0
  151.6294  142.9028  161.6660 H   0  0  0  0  0  0  0  0  0  0  0  0
  153.3201  143.2913  161.7815 H   0  0  0  0  0  0  0  0  0  0  0  0
  151.9880  145.2492  160.9483 H   0  0  0  0  0  0  0  0  0  0  0  0
  153.2338  144.7492  159.8411 H   0  0  0  0  0  0  0  0  0  0  0  0
  151.3791  145.1841  158.4981 H   0  0  0  0  0  0  0  0  0  0  0  0
  149.8784  146.1737  160.7807 H   0  0  0  0  0  0  0  0  0  0  0  0
  147.2518  145.5592  161.1668 H   0  0  0  0  0  0  0  0  0  0  0  0
  146.9420  143.2155  159.7187 H   0  0  0  0  0  0  0  0  0  0  0  0
  1  2  1  0  0  0  0
  1 21  1  0  0  0  0
  1 22  1  0  0  0  0
  1 23  1  0  0  0  0
  2  3  1  0  0  0  0
  2  4  1  0  0  0  0
  2  5  1  0  0  0  0
  3 24  1  0  0  0  0
  3 25  1  0  0  0  0
  3 26  1  0  0  0  0
  4 27  1  0  0  0  0
  5  6  1  0  0  0  0
  5 28  1  0  0  0  0
  5 29  1  0  0  0  0
  6  7  1  0  0  0  0
  6 30  1  0  0  0  0
  7  8  2  0  0  0  0
  7  9  1  0  0  0  0
  9 10  1  0  0  0  0
  9 31  1  0  0  0  0
 10 15  1  0  0  0  0
 10 11  1  0  0  0  0
 10 32  1  0  0  0  0
 11 12  1  0  0  0  0
 11 33  1  0  0  0  0
 11 34  1  0  0  0  0
 12 13  1  0  0  0  0
 12 35  1  0  0  0  0
 12 36  1  0  0  0  0
 13 14  1  0  0  0  0
 13 37  1  0  0  0  0
 13 38  1  0  0  0  0
 14 15  1  0  0  0  0
 14 39  1  0  0  0  0
 14 40  1  0  0  0  0
 15 16  1  0  0  0  0
 15 41  1  0  0  0  0
 16 20  1  0  0  0  0
 16 17  1  0  0  0  0
 17 18  2  0  0  0  0
 17 42  1  0  0  0  0
 18 19  1  0  0  0  0
 18 43  1  0  0  0  0
 19 20  2  0  0  0  0
 19 44  1  0  0  0  0
M  END
> <s_m_source_file>
AV-unprocessed.smi

> <i_m_source_file_index>
895

> <i_lp_mmshare_version>
43012

> <i_f3d_flags>
0

> <s_epik_input>
W0NIM11DKFtDSDNdKShbT0hdKVtDSDJdW05IXUMoPU8pW05IXVtDQEBIXTFbQ0gyXVtDSDJdW0NIMl1bQ0gyXVtDQEhdMW4yW2NIXVtjSF1bY0hdbjI=

> <s_epik_cmdline>
J2VwaWtfcHl0aG9uJywgJy1waCcsICc3LjAnLCAnLXRuJywgJzgnLCAnLW1hJywgJzIwMCcsICctbWV0YWxfYmluZGluZycsICctaW1hZScsICc8aW5maWxlLm1hZT4nLCAnLW9tYWUnLCAnPG91dGZpbGUubWFlPic=

> <r_lp_tautomer_probability>
1

> <r_epik_Ionization_Penalty>
0.000440451

> <r_epik_Ionization_Penalty_Charging>
0

> <r_epik_Ionization_Penalty_Neutral>
0.000440451

> <r_epik_State_Penalty>
-0

> <r_epik_Charging_Adjusted_Penalty>
0

> <i_epik_Tot_Q>
0

> <i_epik_Tot_abs_Q>
0

> <r_epik_Metal_State_Penalty>
-0

> <b_epik_Metal_Only>
0

> <s_lp_Force_Field>
OPLS_2005

> <r_lp_Energy>
14.0773

> <b_lp_Chiralities_Consistent>
1

> <s_lp_Variant>
AV-unprocessed.smi:895-3

> <Gold.Version>
5.8.1

> <Gold.Id.Protein>
6NUR|6NUR_protein|mol2

> <Gold.PLP.Fitness>
48.1780

> <Gold.PLP.PLP>
-43.5812

> <Gold.PLP.part.hbond>
-2.5233

> <Gold.PLP.part.metal>
0.0000

> <Gold.PLP.part.buried>
-5.3572

> <Gold.PLP.part.nonpolar>
-36.4593

> <Gold.PLP.part.repulsive>
0.3601

> <Gold.PLP.ligand.clash>
0.0000

> <Gold.PLP.ligand.torsion>
0.3449

> <Gold.PLP.Chemscore.Hbond>
1.7280

> <Gold.PLP.Chemscore.CHOScore>
0.0000

> <Gold.PLP.Chemscore.Metal>
0.0000

> <Gold.Chemscore.Hbonds>
donor molecule, donor type, donor heavy atom, donor atom, acceptor molecule, acceptor atom, score
      L1  H     6    30       P1  8028  0.85
      L1  H     9    31       P1  8028  0.70

> <Gold.PLP.Chemscore.Internal.Correction>
0.1026

> <Gold.Rescore>
     Score         DG    S(hbond)    S(metal)    S(lipo)     H(rot)  DE(clash)    DE(int)     intcor
     15.53     -18.75       1.87        0.00     107.94       2.19       0.08       3.14       ----

> <Gold.Chemscore.Fitness>
15.5265

> <Gold.Chemscore.DG>
-18.7466

> <Gold.Chemscore.ZeroCoef>
-5.4800

> <Gold.Chemscore.Hbond>
1.8708

> <Gold.Chemscore.Metal>
0.0000

> <Gold.Chemscore.Lipo>
107.9445

> <Gold.Chemscore.Internal_Hbond>
0.0000

> <Gold.Chemscore.DEClash>
0.0847

> <Gold.Chemscore.DEInternal>
3.1353

> <Gold.Chemscore.Rot>
2.1919

> <Gold.Chemscore.Internal.Correction>
   9.000000E+99

> <Gold.Chemscore.Hbonds>
donor molecule, donor type, donor heavy atom, donor atom, acceptor molecule, acceptor atom, score
      L1  H     6    30       P1  8028  0.79
      L1  H     9    31       P1  8028  0.65

> <Gold.Chemscore.Hbond.Weighted>
-6.2484

> <Gold.Chemscore.Metal.Weighted>
-0.0000

> <Gold.Chemscore.Lipo.Weighted>
-12.6295

> <Gold.Chemscore.Internal_Hbond.Weighted>
0.0000

> <Gold.Chemscore.DEClash.Weighted>
0.0847

> <Gold.Chemscore.DEInternal.Weighted>
3.1353

> <Gold.Chemscore.Rot.Weighted>
5.6113

> <Gold.Chemscore.Internal.Correction.Weighted>
   9.000000E+99

> <Gold.Protein.RotatedTorsions>
[ 6907 6896 6895 6894 ] final   56.42 input  -60.11 | X-H torsion
[ 7974 7965 7964 7962 ] final -141.87 input  175.53 | X-H torsion
[ 8008 7997 7996 7995 ] final   25.13 input   59.86 | X-H torsion
[ 10167 10162 10161 10158 ] final   18.23 input  -65.29 | X-H torsion
[ 10718 10713 10712 10709 ] final -109.84 input   66.30 | X-H torsion
[ 10763 10752 10751 10750 ] final   91.43 input  -60.55 | X-H torsion
[ 11005 11000 10999 10996 ] final  144.78 input  -57.11 | X-H torsion

> <Gold.Protein.ActiveResidues>
 VAL166  LYS551  ARG553  GLY616  TRP617  ASP618  TYR619  PRO620  LYS621  CYS622 
 ASP623  PHE694  ASN695  SER759  ASP760  ASP761  ALA762  ILE779  LEU786  VAL792 
 PHE793  MET794  SER795  GLU796  ALA797  LYS798  CYS799  TRP800  GLU811  SER814 

> <Gold.Protein.RotatedAtoms>
  152.3634  134.6839  160.0199 H   0  0  0  0  0  0  0  0  0  0  0  0  # atno 6907 bound_to 6896
  151.7155  133.3308  159.3310 H   0  0  0  0  0  0  0  0  0  0  0  0  # atno 6908 bound_to 6896
  150.7621  134.6429  159.6291 H   0  0  0  0  0  0  0  0  0  0  0  0  # atno 6909 bound_to 6896
  144.8486  140.6027  143.5405 H   0  0  0  0  0  0  0  0  0  0  0  0  # atno 7974 bound_to 7965
  155.0070  140.3132  155.4845 H   0  0  0  0  0  0  0  0  0  0  0  0  # atno 8008 bound_to 7997
  156.2915  140.2221  156.5123 H   0  0  0  0  0  0  0  0  0  0  0  0  # atno 8009 bound_to 7997
  154.7568  140.0462  157.0928 H   0  0  0  0  0  0  0  0  0  0  0  0  # atno 8010 bound_to 7997
  140.5668  143.9235  150.6683 H   0  0  0  0  0  0  0  0  0  0  0  0  # atno 10167 bound_to 10162
  156.0559  130.5785  150.8156 H   0  0  0  0  0  0  0  0  0  0  0  0  # atno 10718 bound_to 10713
  153.2082  135.4398  155.0348 H   0  0  0  0  0  0  0  0  0  0  0  0  # atno 10763 bound_to 10752
  154.8185  135.3326  154.7109 H   0  0  0  0  0  0  0  0  0  0  0  0  # atno 10764 bound_to 10752
  153.7549  135.6995  153.4993 H   0  0  0  0  0  0  0  0  0  0  0  0  # atno 10765 bound_to 10752
  140.0659  134.9179  157.1264 H   0  0  0  0  0  0  0  0  0  0  0  0  # atno 11005 bound_to 11000
  145.4546  139.1519  143.3900 LP  0  0  0  0  0  0  0  0  0  0  0  0  # atno 17320 bound_to 7965
  146.2766  140.4673  142.8793 LP  0  0  0  0  0  0  0  0  0  0  0  0  # atno 17321 bound_to 7965
  140.2700  143.3463  152.1246 LP  0  0  0  0  0  0  0  0  0  0  0  0  # atno 17342 bound_to 10162
  139.5097  144.6872  151.5857 LP  0  0  0  0  0  0  0  0  0  0  0  0  # atno 17343 bound_to 10162
  157.5527  131.0944  150.9672 LP  0  0  0  0  0  0  0  0  0  0  0  0  # atno 17370 bound_to 10713
  156.9928  130.5570  149.5304 LP  0  0  0  0  0  0  0  0  0  0  0  0  # atno 17371 bound_to 10713
  140.3699  134.2401  155.7179 LP  0  0  0  0  0  0  0  0  0  0  0  0  # atno 17394 bound_to 11000
  141.1992  133.8016  157.0545 LP  0  0  0  0  0  0  0  0  0  0  0  0  # atno 17395 bound_to 11000

$$$$
