AV-unprocessed.smi:1412|AV-procd|sdf|5740|dock5
  -GOLD-   22720 5373D 1   1.00000     0.00000
 Structure written by MMmdl.
 41 42  0  0  0  0  0  0  0  0  1 V2000
  152.2280  138.6309  154.4780 C   0  0  0  0  0  0  0  0  0  0  0  0
  151.4627  139.8811  154.9533 C   0  0  0  0  0  0  0  0  0  0  0  0
  150.0816  139.6680  155.6619 C   0  0  1  0  0  0  0  0  0  0  0  0
  149.0066  139.4331  154.5702 C   0  0  0  0  0  0  0  0  0  0  0  0
  150.1637  138.3658  156.5156 C   0  0  0  0  0  0  0  0  0  0  0  0
  148.9747  138.1830  157.3445 N   0  0  0  0  0  0  0  0  0  0  0  0
  148.9380  137.5338  158.5152 C   0  0  0  0  0  0  0  0  0  0  0  0
  149.9164  136.9807  159.0173 O   0  0  0  0  0  0  0  0  0  0  0  0
  147.7080  137.5751  159.0521 N   0  0  0  0  0  0  0  0  0  0  0  0
  147.2802  137.0413  160.2935 C   0  0  0  0  0  0  0  0  0  0  0  0
  146.4386  137.7712  161.0348 N   0  0  0  0  0  0  0  0  0  0  0  0
  146.1052  137.1339  162.2239 N   0  0  0  0  0  0  0  0  0  0  0  0
  146.7103  135.9473  162.3332 C   0  0  0  0  0  0  0  0  0  0  0  0
  147.7472  135.4887  160.9940 S   0  0  0  0  0  0  0  0  0  0  0  0
  149.7626  140.8493  156.5228 N   0  0  0  0  0  0  0  0  0  0  0  0
  150.7942  141.1977  157.5094 C   0  0  0  0  0  0  0  0  0  0  0  0
  150.3506  142.3380  158.4417 C   0  0  0  0  0  0  0  0  0  0  0  0
  149.9954  143.4784  157.6712 O   0  0  0  0  0  0  0  0  0  0  0  0
  148.9496  143.2004  156.7498 C   0  0  0  0  0  0  0  0  0  0  0  0
  149.3828  142.0713  155.7995 C   0  0  0  0  0  0  0  0  0  0  0  0
  153.1196  138.9251  153.9242 H   0  0  0  0  0  0  0  0  0  0  0  0
  151.6288  138.0092  153.8141 H   0  0  0  0  0  0  0  0  0  0  0  0
  152.5681  138.0153  155.3102 H   0  0  0  0  0  0  0  0  0  0  0  0
  152.1242  140.4464  155.6115 H   0  0  0  0  0  0  0  0  0  0  0  0
  151.3272  140.5022  154.0683 H   0  0  0  0  0  0  0  0  0  0  0  0
  149.2232  138.5448  153.9776 H   0  0  0  0  0  0  0  0  0  0  0  0
  148.9399  140.2673  153.8723 H   0  0  0  0  0  0  0  0  0  0  0  0
  148.0157  139.2783  154.9957 H   0  0  0  0  0  0  0  0  0  0  0  0
  150.2923  137.4819  155.8923 H   0  0  0  0  0  0  0  0  0  0  0  0
  151.0620  138.3746  157.1336 H   0  0  0  0  0  0  0  0  0  0  0  0
  148.1223  138.6047  157.0048 H   0  0  0  0  0  0  0  0  0  0  0  0
  146.9987  138.0574  158.5201 H   0  0  0  0  0  0  0  0  0  0  0  0
  146.5445  135.3378  163.2091 H   0  0  0  0  0  0  0  0  0  0  0  0
  151.0392  140.3460  158.1402 H   0  0  0  0  0  0  0  0  0  0  0  0
  151.7133  141.4949  157.0046 H   0  0  0  0  0  0  0  0  0  0  0  0
  149.5045  142.0266  159.0564 H   0  0  0  0  0  0  0  0  0  0  0  0
  151.1587  142.6061  159.1221 H   0  0  0  0  0  0  0  0  0  0  0  0
  148.0418  142.9247  157.2888 H   0  0  0  0  0  0  0  0  0  0  0  0
  148.7242  144.1046  156.1844 H   0  0  0  0  0  0  0  0  0  0  0  0
  150.2152  142.4268  155.1927 H   0  0  0  0  0  0  0  0  0  0  0  0
  148.5515  141.8867  155.1231 H   0  0  0  0  0  0  0  0  0  0  0  0
  1  2  1  0  0  0  0
  1 21  1  0  0  0  0
  1 22  1  0  0  0  0
  1 23  1  0  0  0  0
  2  3  1  0  0  0  0
  2 24  1  0  0  0  0
  2 25  1  0  0  0  0
  3  4  1  0  0  0  0
  3  5  1  0  0  0  0
  3 15  1  0  0  0  0
  4 26  1  0  0  0  0
  4 27  1  0  0  0  0
  4 28  1  0  0  0  0
  5  6  1  0  0  0  0
  5 29  1  0  0  0  0
  5 30  1  0  0  0  0
  6  7  1  0  0  0  0
  6 31  1  0  0  0  0
  7  8  2  0  0  0  0
  7  9  1  0  0  0  0
  9 10  1  0  0  0  0
  9 32  1  0  0  0  0
 10 14  1  0  0  0  0
 10 11  2  0  0  0  0
 11 12  1  0  0  0  0
 12 13  2  0  0  0  0
 13 14  1  0  0  0  0
 13 33  1  0  0  0  0
 15 20  1  0  0  0  0
 15 16  1  0  0  0  0
 16 17  1  0  0  0  0
 16 34  1  0  0  0  0
 16 35  1  0  0  0  0
 17 18  1  0  0  0  0
 17 36  1  0  0  0  0
 17 37  1  0  0  0  0
 18 19  1  0  0  0  0
 19 20  1  0  0  0  0
 19 38  1  0  0  0  0
 19 39  1  0  0  0  0
 20 40  1  0  0  0  0
 20 41  1  0  0  0  0
M  END
> <s_m_source_file>
AV-unprocessed.smi

> <i_m_source_file_index>
1412

> <i_lp_mmshare_version>
43012

> <i_f3d_flags>
0

> <s_epik_input>
W0NIMl0xW0NIMl1PW0NIMl1bQ0gyXU4xW0NAQF0oW0NIM10pKFtDSDJdW0NIM10pW0NIMl1bTkhdQyg9TylbTkhdYzJubltjSF1zMg==

> <s_epik_cmdline>
J2VwaWtfcHl0aG9uJywgJy1waCcsICc3LjAnLCAnLXRuJywgJzgnLCAnLW1hJywgJzIwMCcsICctbWV0YWxfYmluZGluZycsICctaW1hZScsICc8aW5maWxlLm1hZT4nLCAnLW9tYWUnLCAnPG91dGZpbGUubWFlPic=

> <r_lp_tautomer_probability>
1

> <r_epik_Ionization_Penalty>
0.295854

> <r_epik_Ionization_Penalty_Charging>
0

> <r_epik_Ionization_Penalty_Neutral>
0.295854

> <r_epik_State_Penalty>
0.288723

> <r_epik_Charging_Adjusted_Penalty>
0.288723

> <i_epik_Tot_Q>
0

> <i_epik_Tot_abs_Q>
0

> <r_epik_Metal_State_Penalty>
0.510549

> <b_epik_Metal_Only>
0

> <s_lp_Force_Field>
OPLS_2005

> <r_lp_Energy>
43.1066

> <b_lp_Chiralities_Consistent>
1

> <s_lp_Variant>
AV-unprocessed.smi:1412-1

> <Gold.Version>
5.8.1

> <Gold.Id.Protein>
6NUR|6NUR_protein|mol2

> <Gold.PLP.Fitness>
38.5229

> <Gold.PLP.PLP>
-32.1288

> <Gold.PLP.part.hbond>
-3.0000

> <Gold.PLP.part.metal>
0.0000

> <Gold.PLP.part.buried>
-5.8104

> <Gold.PLP.part.nonpolar>
-23.4710

> <Gold.PLP.part.repulsive>
0.2674

> <Gold.PLP.ligand.clash>
0.0000

> <Gold.PLP.ligand.torsion>
1.0468

> <Gold.PLP.Chemscore.Hbond>
2.8080

> <Gold.PLP.Chemscore.CHOScore>
0.0000

> <Gold.PLP.Chemscore.Metal>
0.0000

> <Gold.Chemscore.Hbonds>
donor molecule, donor type, donor heavy atom, donor atom, acceptor molecule, acceptor atom, score
      P1  H  6934  6947       L1    11  0.68

> <Gold.PLP.Chemscore.Internal.Correction>
0.0637

> <Gold.Rescore>
     Score         DG    S(hbond)    S(metal)    S(lipo)     H(rot)  DE(clash)    DE(int)     intcor
     15.07     -15.75       1.92        0.00      73.67       1.86       0.07       0.62       ----

> <Gold.Chemscore.Fitness>
15.0680

> <Gold.Chemscore.DG>
-15.7490

> <Gold.Chemscore.ZeroCoef>
-5.4800

> <Gold.Chemscore.Hbond>
1.9202

> <Gold.Chemscore.Metal>
0.0000

> <Gold.Chemscore.Lipo>
73.6710

> <Gold.Chemscore.Internal_Hbond>
0.0000

> <Gold.Chemscore.DEClash>
0.0650

> <Gold.Chemscore.DEInternal>
0.6160

> <Gold.Chemscore.Rot>
1.8609

> <Gold.Chemscore.Internal.Correction>
   9.000000E+99

> <Gold.Chemscore.Hbonds>
donor molecule, donor type, donor heavy atom, donor atom, acceptor molecule, acceptor atom, score
      P1  H  6896  6907       L1     8  0.04
      P1  H  6934  6947       L1    11  0.11

> <Gold.Chemscore.Hbond.Weighted>
-6.4133

> <Gold.Chemscore.Metal.Weighted>
-0.0000

> <Gold.Chemscore.Lipo.Weighted>
-8.6195

> <Gold.Chemscore.Internal_Hbond.Weighted>
0.0000

> <Gold.Chemscore.DEClash.Weighted>
0.0650

> <Gold.Chemscore.DEInternal.Weighted>
0.6160

> <Gold.Chemscore.Rot.Weighted>
4.7638

> <Gold.Chemscore.Internal.Correction.Weighted>
   9.000000E+99

> <Gold.Protein.RotatedTorsions>
[ 6907 6896 6895 6894 ] final  -59.06 input  -60.11 | X-H torsion
[ 7974 7965 7964 7962 ] final   33.11 input  175.53 | X-H torsion
[ 8008 7997 7996 7995 ] final    6.54 input   59.86 | X-H torsion
[ 10167 10162 10161 10158 ] final   93.79 input  -65.29 | X-H torsion
[ 10718 10713 10712 10709 ] final  -76.12 input   66.30 | X-H torsion
[ 10763 10752 10751 10750 ] final  -77.50 input  -60.55 | X-H torsion
[ 11005 11000 10999 10996 ] final   87.57 input  -57.11 | X-H torsion

> <Gold.Protein.ActiveResidues>
 VAL166  LYS551  ARG553  GLY616  TRP617  ASP618  TYR619  PRO620  LYS621  CYS622 
 ASP623  PHE694  ASN695  SER759  ASP760  ASP761  ALA762  ILE779  LEU786  VAL792 
 PHE793  MET794  SER795  GLU796  ALA797  LYS798  CYS799  TRP800  GLU811  SER814 

> <Gold.Protein.RotatedAtoms>
  150.7959  134.7018  159.6554 H   0  0  0  0  0  0  0  0  0  0  0  0  # atno 6907 bound_to 6896
  152.4071  134.6185  160.0054 H   0  0  0  0  0  0  0  0  0  0  0  0  # atno 6908 bound_to 6896
  151.6439  133.3287  159.3172 H   0  0  0  0  0  0  0  0  0  0  0  0  # atno 6909 bound_to 6896
  146.1442  139.6440  142.9142 H   0  0  0  0  0  0  0  0  0  0  0  0  # atno 7974 bound_to 7965
  154.7424  140.2751  155.6362 H   0  0  0  0  0  0  0  0  0  0  0  0  # atno 8008 bound_to 7997
  156.2876  140.2694  156.2080 H   0  0  0  0  0  0  0  0  0  0  0  0  # atno 8009 bound_to 7997
  155.0242  140.0371  157.2439 H   0  0  0  0  0  0  0  0  0  0  0  0  # atno 8010 bound_to 7997
  139.8146  144.6758  150.9596 H   0  0  0  0  0  0  0  0  0  0  0  0  # atno 10167 bound_to 10162
  156.0185  130.4458  150.3146 H   0  0  0  0  0  0  0  0  0  0  0  0  # atno 10718 bound_to 10713
  154.5137  135.5762  153.6625 H   0  0  0  0  0  0  0  0  0  0  0  0  # atno 10763 bound_to 10752
  152.9902  135.6165  154.2845 H   0  0  0  0  0  0  0  0  0  0  0  0  # atno 10764 bound_to 10752
  154.2761  135.2852  155.2697 H   0  0  0  0  0  0  0  0  0  0  0  0  # atno 10765 bound_to 10752
  139.8916  134.8431  156.2879 H   0  0  0  0  0  0  0  0  0  0  0  0  # atno 11005 bound_to 11000
  145.4975  141.0438  143.2559 LP  0  0  0  0  0  0  0  0  0  0  0  0  # atno 17320 bound_to 7965
  144.7827  139.6491  143.7147 LP  0  0  0  0  0  0  0  0  0  0  0  0  # atno 17321 bound_to 7965
  140.7816  143.4151  151.0930 LP  0  0  0  0  0  0  0  0  0  0  0  0  # atno 17342 bound_to 10162
  139.7815  143.8348  152.3138 LP  0  0  0  0  0  0  0  0  0  0  0  0  # atno 17343 bound_to 10162
  157.1247  131.0256  151.2994 LP  0  0  0  0  0  0  0  0  0  0  0  0  # atno 17370 bound_to 10713
  157.4599  130.7647  149.7227 LP  0  0  0  0  0  0  0  0  0  0  0  0  # atno 17371 bound_to 10713
  140.9996  133.7159  156.0939 LP  0  0  0  0  0  0  0  0  0  0  0  0  # atno 17394 bound_to 11000
  140.7516  134.4039  157.5540 LP  0  0  0  0  0  0  0  0  0  0  0  0  # atno 17395 bound_to 11000

$$$$
