AV-unprocessed.smi:2021|AV-procd|sdf|8177|dock4
  -GOLD-   2272010423D 1   1.00000     0.00000
 Structure written by MMmdl.
 42 43  0  0  0  0  0  0  0  0  2 V2000
  145.6576  143.9707  153.7369 C   0  0  0  0  0  0  0  0  0  0  0  0
  145.6255  142.8763  154.8169 C   0  0  0  0  0  0  0  0  0  0  0  0
  144.9023  143.3849  156.0730 C   0  0  0  0  0  0  0  0  0  0  0  0
  147.0418  142.3738  155.1739 C   0  0  0  0  0  0  0  0  0  0  0  0
  147.7728  141.7988  154.0114 N   0  3  1  0  0  0  0  0  0  0  0  0
  149.1456  141.3450  154.3417 C   0  0  0  0  0  0  0  0  0  0  0  0
  149.1215  139.9863  155.0643 C   0  0  0  0  0  0  0  0  0  0  0  0
  148.4414  139.0356  154.2553 O   0  0  0  0  0  0  0  0  0  0  0  0
  147.0806  139.3844  154.0190 C   0  0  2  0  0  0  0  0  0  0  0  0
  146.4169  138.2655  153.1960 C   0  0  0  0  0  0  0  0  0  0  0  0
  144.9668  138.4179  153.1405 N   0  0  0  0  0  0  0  0  0  0  0  0
  144.0778  137.5382  153.6236 C   0  0  0  0  0  0  0  0  0  0  0  0
  144.3971  136.4901  154.1851 O   0  0  0  0  0  0  0  0  0  0  0  0
  142.8174  137.9559  153.4118 N   0  0  0  0  0  0  0  0  0  0  0  0
  141.6038  137.3066  153.7607 C   0  0  0  0  0  0  0  0  0  0  0  0
  141.5304  136.0245  154.1512 N   0  0  0  0  0  0  0  0  0  0  0  0
  140.2250  135.6408  154.4307 N   0  0  0  0  0  0  0  0  0  0  0  0
  139.3671  136.6474  154.2409 C   0  0  0  0  0  0  0  0  0  0  0  0
  140.0700  138.1633  153.7039 S   0  0  0  0  0  0  0  0  0  0  0  0
  147.0431  140.7362  153.2716 C   0  0  0  0  0  0  0  0  0  0  0  0
  146.2294  144.8384  154.0674 H   0  0  0  0  0  0  0  0  0  0  0  0
  144.6502  144.3111  153.4950 H   0  0  0  0  0  0  0  0  0  0  0  0
  146.1062  143.6077  152.8120 H   0  0  0  0  0  0  0  0  0  0  0  0
  145.0341  142.0456  154.4336 H   0  0  0  0  0  0  0  0  0  0  0  0
  145.4257  144.2318  156.5178 H   0  0  0  0  0  0  0  0  0  0  0  0
  144.8303  142.6029  156.8294 H   0  0  0  0  0  0  0  0  0  0  0  0
  143.8871  143.7075  155.8394 H   0  0  0  0  0  0  0  0  0  0  0  0
  147.6079  143.2177  155.5713 H   0  0  0  0  0  0  0  0  0  0  0  0
  146.9923  141.6440  155.9819 H   0  0  0  0  0  0  0  0  0  0  0  0
  149.7076  141.2473  153.4118 H   0  0  0  0  0  0  0  0  0  0  0  0
  149.6691  142.0940  154.9370 H   0  0  0  0  0  0  0  0  0  0  0  0
  150.1393  139.6360  155.2360 H   0  0  0  0  0  0  0  0  0  0  0  0
  148.6438  140.0635  156.0419 H   0  0  0  0  0  0  0  0  0  0  0  0
  146.5566  139.4695  154.9721 H   0  0  0  0  0  0  0  0  0  0  0  0
  146.7824  138.3009  152.1694 H   0  0  0  0  0  0  0  0  0  0  0  0
  146.6913  137.2832  153.5848 H   0  0  0  0  0  0  0  0  0  0  0  0
  144.6145  139.2513  152.6928 H   0  0  0  0  0  0  0  0  0  0  0  0
  142.7120  138.8393  152.9354 H   0  0  0  0  0  0  0  0  0  0  0  0
  138.3127  136.4964  154.4184 H   0  0  0  0  0  0  0  0  0  0  0  0
  146.0158  141.0337  153.0667 H   0  0  0  0  0  0  0  0  0  0  0  0
  147.5208  140.6201  152.2977 H   0  0  0  0  0  0  0  0  0  0  0  0
  147.8867  142.5703  153.3692 H   0  0  0  0  0  0  0  0  0  0  0  0
  1  2  1  0  0  0  0
  1 21  1  0  0  0  0
  1 22  1  0  0  0  0
  1 23  1  0  0  0  0
  2  3  1  0  0  0  0
  2  4  1  0  0  0  0
  2 24  1  0  0  0  0
  3 25  1  0  0  0  0
  3 26  1  0  0  0  0
  3 27  1  0  0  0  0
  4  5  1  0  0  0  0
  4 28  1  0  0  0  0
  4 29  1  0  0  0  0
  5 20  1  0  0  0  0
  5  6  1  0  0  0  0
  5 42  1  0  0  0  0
  6  7  1  0  0  0  0
  6 30  1  0  0  0  0
  6 31  1  0  0  0  0
  7  8  1  0  0  0  0
  7 32  1  0  0  0  0
  7 33  1  0  0  0  0
  8  9  1  0  0  0  0
  9 10  1  0  0  0  0
  9 20  1  0  0  0  0
  9 34  1  0  0  0  0
 10 11  1  0  0  0  0
 10 35  1  0  0  0  0
 10 36  1  0  0  0  0
 11 12  1  0  0  0  0
 11 37  1  0  0  0  0
 12 13  2  0  0  0  0
 12 14  1  0  0  0  0
 14 15  1  0  0  0  0
 14 38  1  0  0  0  0
 15 19  1  0  0  0  0
 15 16  2  0  0  0  0
 16 17  1  0  0  0  0
 17 18  2  0  0  0  0
 18 19  1  0  0  0  0
 18 39  1  0  0  0  0
 20 40  1  0  0  0  0
 20 41  1  0  0  0  0
M  CHG  1   5   1
M  END
> <s_m_source_file>
AV-unprocessed.smi

> <i_m_source_file_index>
2021

> <i_lp_mmshare_version>
43012

> <i_f3d_flags>
0

> <s_epik_input>
W0NIM11bQ0hdKFtDSDNdKVtDSDJdTjFbQ0gyXVtDSDJdT1tDQEhdKFtDSDJdMSlbQ0gyXVtOSF1DKD1PKVtOSF1jMm5uW2NIXXMy

> <s_epik_cmdline>
J2VwaWtfcHl0aG9uJywgJy1waCcsICc3LjAnLCAnLXRuJywgJzgnLCAnLW1hJywgJzIwMCcsICctbWV0YWxfYmluZGluZycsICctaW1hZScsICc8aW5maWxlLm1hZT4nLCAnLW9tYWUnLCAnPG91dGZpbGUubWFlPic=

> <r_lp_tautomer_probability>
1

> <r_epik_Ionization_Penalty>
0.102019

> <r_epik_Ionization_Penalty_Charging>
0.098413

> <r_epik_Ionization_Penalty_Neutral>
0.00360555

> <r_epik_State_Penalty>
0.0884988

> <r_epik_Charging_Adjusted_Penalty>
0.186912

> <i_epik_Tot_Q>
1

> <i_epik_Tot_abs_Q>
1

> <r_epik_Metal_State_Penalty>
0.454709

> <b_epik_Metal_Only>
0

> <s_lp_Force_Field>
OPLS_2005

> <r_lp_Energy>
19.4379

> <b_lp_Chiralities_Consistent>
1

> <s_lp_Variant>
AV-unprocessed.smi:2021-3

> <Gold.Version>
5.8.1

> <Gold.Id.Protein>
6NUR|6NUR_protein|mol2

> <Gold.PLP.Fitness>
42.2242

> <Gold.PLP.PLP>
-33.8558

> <Gold.PLP.part.hbond>
-3.7080

> <Gold.PLP.part.metal>
0.0000

> <Gold.PLP.part.buried>
-4.8176

> <Gold.PLP.part.nonpolar>
-25.7945

> <Gold.PLP.part.repulsive>
0.6282

> <Gold.PLP.ligand.clash>
0.0000

> <Gold.PLP.ligand.torsion>
0.1231

> <Gold.PLP.Chemscore.Hbond>
2.8400

> <Gold.PLP.Chemscore.CHOScore>
0.0000

> <Gold.PLP.Chemscore.Metal>
0.0000

> <Gold.Chemscore.Hbonds>
donor molecule, donor type, donor heavy atom, donor atom, acceptor molecule, acceptor atom, score
      L1  H    11    37       P1 10175  1.00
      L1  H    14    38       P1 10175  0.88
      P1  H 11000 11005       L1    17  1.00

> <Gold.PLP.Chemscore.Internal.Correction>
0.0946

> <Gold.Rescore>
     Score         DG    S(hbond)    S(metal)    S(lipo)     H(rot)  DE(clash)    DE(int)     intcor
     15.38     -16.92       2.62        0.00      64.13       1.88       0.13       1.41       ----

> <Gold.Chemscore.Fitness>
15.3849

> <Gold.Chemscore.DG>
-16.9234

> <Gold.Chemscore.ZeroCoef>
-5.4800

> <Gold.Chemscore.Hbond>
2.6217

> <Gold.Chemscore.Metal>
0.0000

> <Gold.Chemscore.Lipo>
64.1267

> <Gold.Chemscore.Internal_Hbond>
0.0000

> <Gold.Chemscore.DEClash>
0.1308

> <Gold.Chemscore.DEInternal>
1.4077

> <Gold.Chemscore.Rot>
1.8812

> <Gold.Chemscore.Internal.Correction>
   9.000000E+99

> <Gold.Chemscore.Hbonds>
donor molecule, donor type, donor heavy atom, donor atom, acceptor molecule, acceptor atom, score
      L1  H    11    37       P1 10175  0.93
      L1  H    14    38       P1 10175  0.86
      P1  H 11000 11005       L1    17  0.85

> <Gold.Chemscore.Hbond.Weighted>
-8.7565

> <Gold.Chemscore.Metal.Weighted>
-0.0000

> <Gold.Chemscore.Lipo.Weighted>
-7.5028

> <Gold.Chemscore.Internal_Hbond.Weighted>
0.0000

> <Gold.Chemscore.DEClash.Weighted>
0.1308

> <Gold.Chemscore.DEInternal.Weighted>
1.4077

> <Gold.Chemscore.Rot.Weighted>
4.8159

> <Gold.Chemscore.Internal.Correction.Weighted>
   9.000000E+99

> <Gold.Protein.RotatedTorsions>
[ 6907 6896 6895 6894 ] final  143.52 input  -60.11 | X-H torsion
[ 7974 7965 7964 7962 ] final   69.97 input  175.53 | X-H torsion
[ 8008 7997 7996 7995 ] final  111.91 input   59.86 | X-H torsion
[ 10167 10162 10161 10158 ] final   77.85 input  -65.29 | X-H torsion
[ 10718 10713 10712 10709 ] final  -18.18 input   66.30 | X-H torsion
[ 10763 10752 10751 10750 ] final   12.83 input  -60.55 | X-H torsion
[ 11005 11000 10999 10996 ] final   57.57 input  -57.11 | X-H torsion

> <Gold.Protein.ActiveResidues>
 VAL166  LYS551  ARG553  GLY616  TRP617  ASP618  TYR619  PRO620  LYS621  CYS622 
 ASP623  PHE694  ASN695  SER759  ASP760  ASP761  ALA762  ILE779  LEU786  VAL792 
 PHE793  MET794  SER795  GLU796  ALA797  LYS798  CYS799  TRP800  GLU811  SER814 

> <Gold.Protein.RotatedAtoms>
  152.2053  133.4871  159.5080 H   0  0  0  0  0  0  0  0  0  0  0  0  # atno 6907 bound_to 6896
  150.6978  134.1538  159.4159 H   0  0  0  0  0  0  0  0  0  0  0  0  # atno 6908 bound_to 6896
  151.9456  135.0193  160.0589 H   0  0  0  0  0  0  0  0  0  0  0  0  # atno 6909 bound_to 6896
  145.7839  139.2901  143.1250 H   0  0  0  0  0  0  0  0  0  0  0  0  # atno 7974 bound_to 7965
  156.2156  140.3010  155.9833 H   0  0  0  0  0  0  0  0  0  0  0  0  # atno 8008 bound_to 7997
  155.2613  140.0430  157.3014 H   0  0  0  0  0  0  0  0  0  0  0  0  # atno 8009 bound_to 7997
  154.5764  140.2363  155.8125 H   0  0  0  0  0  0  0  0  0  0  0  0  # atno 8010 bound_to 7997
  139.9771  144.5853  150.7933 H   0  0  0  0  0  0  0  0  0  0  0  0  # atno 10167 bound_to 10162
  156.5632  130.4731  149.6397 H   0  0  0  0  0  0  0  0  0  0  0  0  # atno 10718 bound_to 10713
  153.1782  135.6823  153.8513 H   0  0  0  0  0  0  0  0  0  0  0  0  # atno 10763 bound_to 10752
  153.7854  135.3176  155.3372 H   0  0  0  0  0  0  0  0  0  0  0  0  # atno 10764 bound_to 10752
  154.8043  135.4758  154.0447 H   0  0  0  0  0  0  0  0  0  0  0  0  # atno 10765 bound_to 10752
  140.0443  134.5829  155.9343 H   0  0  0  0  0  0  0  0  0  0  0  0  # atno 11005 bound_to 11000
  146.0046  140.8490  143.0001 LP  0  0  0  0  0  0  0  0  0  0  0  0  # atno 17320 bound_to 7965
  144.6792  140.2402  143.7344 LP  0  0  0  0  0  0  0  0  0  0  0  0  # atno 17321 bound_to 7965
  140.7502  143.2951  151.3226 LP  0  0  0  0  0  0  0  0  0  0  0  0  # atno 17342 bound_to 10162
  139.6437  144.0491  152.2574 LP  0  0  0  0  0  0  0  0  0  0  0  0  # atno 17343 bound_to 10162
  156.2780  130.7055  151.1871 LP  0  0  0  0  0  0  0  0  0  0  0  0  # atno 17370 bound_to 10713
  157.7364  131.0562  150.5416 LP  0  0  0  0  0  0  0  0  0  0  0  0  # atno 17371 bound_to 10713
  141.1899  133.6566  156.5387 LP  0  0  0  0  0  0  0  0  0  0  0  0  # atno 17394 bound_to 11000
  140.4019  134.7349  157.4785 LP  0  0  0  0  0  0  0  0  0  0  0  0  # atno 17395 bound_to 11000

$$$$
