AV-unprocessed.smi:54|AV-procd|sdf|533|dock10
  -GOLD-   2262016413D 1   1.00000     0.00000
 Structure written by MMmdl.
 44 46  0  0  0  0  0  0  0  0  1 V2000
  145.9357  134.6317  152.0403 C   0  0  0  0  0  0  0  0  0  0  0  0
  147.0182  133.5691  152.2898 C   0  0  0  0  0  0  0  0  0  0  0  0
  146.4797  132.1522  152.0325 C   0  0  0  0  0  0  0  0  0  0  0  0
  147.5707  133.6858  153.7145 C   0  0  0  0  0  0  0  0  0  0  0  0
  147.4325  132.7869  154.5435 O   0  0  0  0  0  0  0  0  0  0  0  0
  148.2778  134.9170  154.0102 N   0  0  0  0  0  0  0  0  0  0  0  0
  148.8524  135.2680  155.1832 C   0  0  0  0  0  0  0  0  0  0  0  0
  149.3939  136.4589  155.3998 N   0  0  0  0  0  0  0  0  0  0  0  0
  149.9512  136.6150  156.6400 C   0  0  0  0  0  0  0  0  0  0  0  0
  149.9870  135.6690  157.6451 C   0  0  0  0  0  0  0  0  0  0  0  0
  150.6270  136.1807  158.7675 N   0  0  0  0  0  0  0  0  0  0  0  0
  150.9602  137.3901  158.4157 C   0  0  0  0  0  0  0  0  0  0  0  0
  150.5955  137.7323  157.1362 N   0  0  0  0  0  0  0  0  0  0  0  0
  150.8415  139.0310  156.4408 C   0  0  2  0  0  0  0  0  0  0  0  0
  149.6134  139.6189  156.1585 O   0  0  0  0  0  0  0  0  0  0  0  0
  149.7640  140.4068  154.9871 C   0  0  2  0  0  0  0  0  0  0  0  0
  148.4005  140.7958  154.3898 C   0  0  0  0  0  0  0  0  0  0  0  0
  148.5675  141.2710  153.0710 O   0  0  0  0  0  0  0  0  0  0  0  0
  150.6643  139.5305  154.1011 C   0  0  2  0  0  0  0  0  0  0  0  0
  149.9120  138.5822  153.3685 O   0  0  0  0  0  0  0  0  0  0  0  0
  151.5797  138.8288  155.1050 C   0  0  1  0  0  0  0  0  0  0  0  0
  152.8373  139.4752  155.1182 O   0  0  0  0  0  0  0  0  0  0  0  0
  149.4063  134.3763  157.4240 C   0  0  0  0  0  0  0  0  0  0  0  0
  149.3492  133.4239  158.1987 O   0  0  0  0  0  0  0  0  0  0  0  0
  148.8574  134.2564  156.1421 N   0  0  0  0  0  0  0  0  0  0  0  0
  151.3940  139.6395  157.1586 H   0  0  0  0  0  0  0  0  0  0  0  0
  150.3246  141.3070  155.2484 H   0  0  0  0  0  0  0  0  0  0  0  0
  151.2156  140.1352  153.3794 H   0  0  0  0  0  0  0  0  0  0  0  0
  151.7154  137.7698  154.8788 H   0  0  0  0  0  0  0  0  0  0  0  0
  146.3144  135.6366  152.2312 H   0  0  0  0  0  0  0  0  0  0  0  0
  145.0653  134.4767  152.6793 H   0  0  0  0  0  0  0  0  0  0  0  0
  145.5939  134.6030  151.0054 H   0  0  0  0  0  0  0  0  0  0  0  0
  147.8363  133.7513  151.5913 H   0  0  0  0  0  0  0  0  0  0  0  0
  147.2466  131.3980  152.2126 H   0  0  0  0  0  0  0  0  0  0  0  0
  146.1510  132.0427  150.9988 H   0  0  0  0  0  0  0  0  0  0  0  0
  145.6284  131.9223  152.6747 H   0  0  0  0  0  0  0  0  0  0  0  0
  148.3869  135.5604  153.2404 H   0  0  0  0  0  0  0  0  0  0  0  0
  151.4873  138.0618  159.0776 H   0  0  0  0  0  0  0  0  0  0  0  0
  147.7461  139.9250  154.3415 H   0  0  0  0  0  0  0  0  0  0  0  0
  147.9007  141.5494  154.9967 H   0  0  0  0  0  0  0  0  0  0  0  0
  148.7033  140.5304  152.4996 H   0  0  0  0  0  0  0  0  0  0  0  0
  149.8894  138.8481  152.4622 H   0  0  0  0  0  0  0  0  0  0  0  0
  152.9110  140.0042  154.3388 H   0  0  0  0  0  0  0  0  0  0  0  0
  148.4350  133.3687  155.9139 H   0  0  0  0  0  0  0  0  0  0  0  0
  1  2  1  0  0  0  0
  1 30  1  0  0  0  0
  1 31  1  0  0  0  0
  1 32  1  0  0  0  0
  2  3  1  0  0  0  0
  2  4  1  0  0  0  0
  2 33  1  0  0  0  0
  3 34  1  0  0  0  0
  3 35  1  0  0  0  0
  3 36  1  0  0  0  0
  4  5  2  0  0  0  0
  4  6  1  0  0  0  0
  6 37  1  0  0  0  0
  6  7  1  0  0  0  0
  7 25  1  0  0  0  0
  7  8  2  0  0  0  0
  8  9  1  0  0  0  0
  9 13  1  0  0  0  0
  9 10  2  0  0  0  0
 10 11  1  0  0  0  0
 10 23  1  0  0  0  0
 11 12  2  0  0  0  0
 12 13  1  0  0  0  0
 12 38  1  0  0  0  0
 13 14  1  0  0  0  0
 14 26  1  0  0  0  0
 14 21  1  0  0  0  0
 14 15  1  0  0  0  0
 15 16  1  0  0  0  0
 16 27  1  0  0  0  0
 16 17  1  0  0  0  0
 16 19  1  0  0  0  0
 17 18  1  0  0  0  0
 17 39  1  0  0  0  0
 17 40  1  0  0  0  0
 18 41  1  0  0  0  0
 19 28  1  0  0  0  0
 19 20  1  0  0  0  0
 19 21  1  0  0  0  0
 20 42  1  0  0  0  0
 21 29  1  0  0  0  0
 21 22  1  0  0  0  0
 22 43  1  0  0  0  0
 23 24  2  0  0  0  0
 23 25  1  0  0  0  0
 25 44  1  0  0  0  0
M  END
> <s_m_source_file>
AV-unprocessed.smi

> <i_m_source_file_index>
54

> <i_lp_mmshare_version>
43012

> <i_f3d_flags>
0

> <s_epik_input>
W0NIM11bQ0hdKFtDSDNdKUMoPU8pW05IXWMobjEpW25IXWMoPU8pYyhjMTIpbltjSF1uMltDQEBIXTNPW0NASF0oW0NIMl1bT0hdKVtDQEBIXShbT0hdKVtDQEhdM1tPSF0=

> <s_epik_cmdline>
J2VwaWtfcHl0aG9uJywgJy1waCcsICc3LjAnLCAnLXRuJywgJzgnLCAnLW1hJywgJzIwMCcsICctbWV0YWxfYmluZGluZycsICctaW1hZScsICc8aW5maWxlLm1hZT4nLCAnLW9tYWUnLCAnPG91dGZpbGUubWFlPic=

> <r_lp_tautomer_probability>
0.85571

> <r_epik_Ionization_Penalty>
0.0316551

> <r_epik_Ionization_Penalty_Charging>
0.0316043

> <r_epik_Ionization_Penalty_Neutral>
5.07097e-05

> <r_epik_State_Penalty>
3.15494e-07

> <r_epik_Charging_Adjusted_Penalty>
0.0316047

> <i_epik_Tot_Q>
0

> <i_epik_Tot_abs_Q>
0

> <r_epik_Metal_State_Penalty>
0.421206

> <b_epik_Metal_Only>
0

> <s_epik_Chemistry_Notes>
This compound contains an acetal/aminal-like group ( X-CH(R)-Y where X, Y are N, S, or O) that may be acid/base labile, releasing an aldehyde.

> <s_lp_Force_Field>
OPLS_2005

> <r_lp_Energy>
38.1022

> <b_lp_Chiralities_Consistent>
1

> <s_lp_Variant>
AV-unprocessed.smi:54-5

> <Gold.Version>
5.8.1

> <Gold.Id.Protein>
6NUR|6NUR_protein|mol2

> <Gold.PLP.Fitness>
45.4533

> <Gold.PLP.PLP>
-26.2897

> <Gold.PLP.part.hbond>
-8.0225

> <Gold.PLP.part.metal>
0.0000

> <Gold.PLP.part.buried>
2.0702

> <Gold.PLP.part.nonpolar>
-19.7568

> <Gold.PLP.part.repulsive>
0.1454

> <Gold.PLP.ligand.clash>
0.0000

> <Gold.PLP.ligand.torsion>
0.2139

> <Gold.PLP.Chemscore.Hbond>
6.5200

> <Gold.PLP.Chemscore.CHOScore>
0.0000

> <Gold.PLP.Chemscore.Metal>
0.0000

> <Gold.Chemscore.Hbonds>
donor molecule, donor type, donor heavy atom, donor atom, acceptor molecule, acceptor atom, score
      L1  H     6    37       P1  7948  1.00
      L1  H    18    41       P1  7957  0.83
      L1  H    20    42       P1  7957  1.00
      P1  H  6896  6907       L1    11  0.69
      P1  H  6896  6909       L1    24  1.00
      P1  H  7997  8008       L1    22  0.96
      P1  H  8011  8017       L1    18  0.84

> <Gold.PLP.Chemscore.Internal.Correction>
0.0313

> <Gold.Rescore>
     Score         DG    S(hbond)    S(metal)    S(lipo)     H(rot)  DE(clash)    DE(int)     intcor
     14.62     -16.92       4.85        0.00      47.88       4.05       1.82       0.48       ----

> <Gold.Chemscore.Fitness>
14.6226

> <Gold.Chemscore.DG>
-16.9198

> <Gold.Chemscore.ZeroCoef>
-5.4800

> <Gold.Chemscore.Hbond>
4.8515

> <Gold.Chemscore.Metal>
0.0000

> <Gold.Chemscore.Lipo>
47.8816

> <Gold.Chemscore.Internal_Hbond>
0.0000

> <Gold.Chemscore.DEClash>
1.8199

> <Gold.Chemscore.DEInternal>
0.4773

> <Gold.Chemscore.Rot>
4.0493

> <Gold.Chemscore.Internal.Correction>
   9.000000E+99

> <Gold.Chemscore.Hbonds>
donor molecule, donor type, donor heavy atom, donor atom, acceptor molecule, acceptor atom, score
      L1  H     6    37       P1  7948  0.98
      L1  H    18    41       P1  7957  0.81
      L1  H    20    42       P1  7957  0.49
      P1  H  6896  6907       L1    11  0.68
      P1  H  6896  6909       L1    24  0.38
      P1  H  7997  8008       L1    22  0.39
      P1  H  8011  8017       L1    18  0.16

> <Gold.Chemscore.Hbond.Weighted>
-16.2039

> <Gold.Chemscore.Metal.Weighted>
-0.0000

> <Gold.Chemscore.Lipo.Weighted>
-5.6021

> <Gold.Chemscore.Internal_Hbond.Weighted>
0.0000

> <Gold.Chemscore.DEClash.Weighted>
1.8199

> <Gold.Chemscore.DEInternal.Weighted>
0.4773

> <Gold.Chemscore.Rot.Weighted>
10.3662

> <Gold.Chemscore.Internal.Correction.Weighted>
   9.000000E+99

> <Gold.Protein.RotatedTorsions>
[ 6907 6896 6895 6894 ] final  -13.39 input  -60.11 | X-H torsion
[ 7974 7965 7964 7962 ] final -168.08 input  175.53 | X-H torsion
[ 8008 7997 7996 7995 ] final  -43.40 input   59.86 | X-H torsion
[ 10167 10162 10161 10158 ] final   -2.45 input  -65.29 | X-H torsion
[ 10718 10713 10712 10709 ] final    3.54 input   66.30 | X-H torsion
[ 10763 10752 10751 10750 ] final  -82.45 input  -60.55 | X-H torsion
[ 11005 11000 10999 10996 ] final -100.97 input  -57.11 | X-H torsion

> <Gold.Protein.ActiveResidues>
 VAL166  LYS551  ARG553  GLY616  TRP617  ASP618  TYR619  PRO620  LYS621  CYS622 
 ASP623  PHE694  ASN695  SER759  ASP760  ASP761  ALA762  ILE779  LEU786  VAL792 
 PHE793  MET794  SER795  GLU796  ALA797  LYS798  CYS799  TRP800  GLU811  SER814 

> <Gold.Protein.RotatedAtoms>
  151.3557  135.0893  159.9417 H   0  0  0  0  0  0  0  0  0  0  0  0  # atno 6907 bound_to 6896
  152.5175  133.9308  159.7590 H   0  0  0  0  0  0  0  0  0  0  0  0  # atno 6908 bound_to 6896
  150.9693  133.6307  159.2770 H   0  0  0  0  0  0  0  0  0  0  0  0  # atno 6909 bound_to 6896
  144.7210  140.2423  143.6290 H   0  0  0  0  0  0  0  0  0  0  0  0  # atno 7974 bound_to 7965
  154.3997  140.1448  156.3513 H   0  0  0  0  0  0  0  0  0  0  0  0  # atno 8008 bound_to 7997
  155.8266  140.3467  155.5525 H   0  0  0  0  0  0  0  0  0  0  0  0  # atno 8009 bound_to 7997
  155.8232  140.0901  157.1827 H   0  0  0  0  0  0  0  0  0  0  0  0  # atno 8010 bound_to 7997
  140.6851  143.6655  150.8229 H   0  0  0  0  0  0  0  0  0  0  0  0  # atno 10167 bound_to 10162
  156.8793  130.5648  149.5653 H   0  0  0  0  0  0  0  0  0  0  0  0  # atno 10718 bound_to 10713
  154.5759  135.5591  153.7138 H   0  0  0  0  0  0  0  0  0  0  0  0  # atno 10763 bound_to 10752
  153.0064  135.6308  154.2050 H   0  0  0  0  0  0  0  0  0  0  0  0  # atno 10764 bound_to 10752
  154.1991  135.2879  155.2977 H   0  0  0  0  0  0  0  0  0  0  0  0  # atno 10765 bound_to 10752
  141.1249  133.8441  157.1172 H   0  0  0  0  0  0  0  0  0  0  0  0  # atno 11005 bound_to 11000
  145.8307  139.2085  143.1884 LP  0  0  0  0  0  0  0  0  0  0  0  0  # atno 17320 bound_to 7965
  146.0433  140.8143  142.9818 LP  0  0  0  0  0  0  0  0  0  0  0  0  # atno 17321 bound_to 7965
  140.0361  143.5393  152.2738 LP  0  0  0  0  0  0  0  0  0  0  0  0  # atno 17342 bound_to 10162
  139.6204  144.7628  151.2753 LP  0  0  0  0  0  0  0  0  0  0  0  0  # atno 17343 bound_to 10162
  156.0685  130.5723  150.9337 LP  0  0  0  0  0  0  0  0  0  0  0  0  # atno 17370 bound_to 10713
  157.6149  131.0934  150.8728 LP  0  0  0  0  0  0  0  0  0  0  0  0  # atno 17371 bound_to 10713
  140.0239  134.9933  157.0647 LP  0  0  0  0  0  0  0  0  0  0  0  0  # atno 17394 bound_to 11000
  140.4394  134.1697  155.7173 LP  0  0  0  0  0  0  0  0  0  0  0  0  # atno 17395 bound_to 11000

$$$$
