AV-unprocessed.smi:2735|AV-procd|sdf|10543|dock3
  -GOLD-   2272014593D 1   1.00000     0.00000
 Structure written by MMmdl.
 42 42  0  0  0  0  0  0  0  0  2 V2000
  151.8469  130.4796  156.4456 C   0  0  0  0  0  0  0  0  0  0  0  0
  150.8590  131.3912  155.7799 C   0  0  0  0  0  0  0  0  0  0  0  0
  150.0420  131.1294  154.6460 C   0  0  0  0  0  0  0  0  0  0  0  0
  149.3283  132.2811  154.4705 C   0  0  0  0  0  0  0  0  0  0  0  0
  148.2844  132.6110  153.4538 C   0  0  0  0  0  0  0  0  0  0  0  0
  149.7366  133.1669  155.4554 N   0  0  0  0  0  0  0  0  0  0  0  0
  149.2374  134.5119  155.7485 C   0  0  2  0  0  0  0  0  0  0  0  0
  149.7423  135.5515  154.7260 C   0  0  0  0  0  0  0  0  0  0  0  0
  149.5585  134.8917  157.2048 C   0  0  0  0  0  0  0  0  0  0  0  0
  150.7101  134.8334  157.6379 O   0  0  0  0  0  0  0  0  0  0  0  0
  148.5107  135.2717  157.9521 N   0  0  0  0  0  0  0  0  0  0  0  0
  148.5409  135.6128  159.3716 C   0  0  2  0  0  0  0  0  0  0  0  0
  147.4741  134.7651  160.1067 C   0  0  0  0  0  0  0  0  0  0  0  0
  147.6829  134.6185  161.6332 C   0  0  0  0  0  0  0  0  0  0  0  0
  146.6154  133.6939  162.2373 C   0  0  0  0  0  0  0  0  0  0  0  0
  147.6998  135.9721  162.3625 C   0  0  0  0  0  0  0  0  0  0  0  0
  148.1914  137.0985  159.5538 C   0  0  0  0  0  0  0  0  0  0  0  0
  149.0411  137.9306  159.1678 O   0  0  0  0  0  0  0  0  0  0  0  0
  147.0906  137.3808  160.0800 O   0  5  0  0  0  0  0  0  0  0  0  0
  150.6699  132.6075  156.2610 N   0  0  0  0  0  0  0  0  0  0  0  0
  149.5292  135.4214  159.7930 H   0  0  0  0  0  0  0  0  0  0  0  0
  151.7689  129.4637  156.0578 H   0  0  0  0  0  0  0  0  0  0  0  0
  151.6794  130.4362  157.5222 H   0  0  0  0  0  0  0  0  0  0  0  0
  152.8688  130.8216  156.2794 H   0  0  0  0  0  0  0  0  0  0  0  0
  149.9808  130.2267  154.0565 H   0  0  0  0  0  0  0  0  0  0  0  0
  148.1124  131.7678  152.7848 H   0  0  0  0  0  0  0  0  0  0  0  0
  148.5890  133.4628  152.8456 H   0  0  0  0  0  0  0  0  0  0  0  0
  147.3362  132.8551  153.9323 H   0  0  0  0  0  0  0  0  0  0  0  0
  148.1507  134.4901  155.6658 H   0  0  0  0  0  0  0  0  0  0  0  0
  149.2936  136.5293  154.9054 H   0  0  0  0  0  0  0  0  0  0  0  0
  149.4804  135.2554  153.7099 H   0  0  0  0  0  0  0  0  0  0  0  0
  150.8256  135.6731  154.7659 H   0  0  0  0  0  0  0  0  0  0  0  0
  147.6063  135.3097  157.5058 H   0  0  0  0  0  0  0  0  0  0  0  0
  146.4887  135.1977  159.9253 H   0  0  0  0  0  0  0  0  0  0  0  0
  147.4432  133.7649  159.6701 H   0  0  0  0  0  0  0  0  0  0  0  0
  148.6466  134.1388  161.8088 H   0  0  0  0  0  0  0  0  0  0  0  0
  145.6149  134.1088  162.1112 H   0  0  0  0  0  0  0  0  0  0  0  0
  146.7824  133.5438  163.3043 H   0  0  0  0  0  0  0  0  0  0  0  0
  146.6313  132.7123  161.7627 H   0  0  0  0  0  0  0  0  0  0  0  0
  146.7807  136.5307  162.1839 H   0  0  0  0  0  0  0  0  0  0  0  0
  148.5370  136.5904  162.0387 H   0  0  0  0  0  0  0  0  0  0  0  0
  147.8031  135.8352  163.4392 H   0  0  0  0  0  0  0  0  0  0  0  0
  1  2  1  0  0  0  0
  1 22  1  0  0  0  0
  1 23  1  0  0  0  0
  1 24  1  0  0  0  0
  2 20  2  0  0  0  0
  2  3  1  0  0  0  0
  3  4  2  0  0  0  0
  3 25  1  0  0  0  0
  4  5  1  0  0  0  0
  4  6  1  0  0  0  0
  5 26  1  0  0  0  0
  5 27  1  0  0  0  0
  5 28  1  0  0  0  0
  6  7  1  0  0  0  0
  6 20  1  0  0  0  0
  7  8  1  0  0  0  0
  7  9  1  0  0  0  0
  7 29  1  0  0  0  0
  8 30  1  0  0  0  0
  8 31  1  0  0  0  0
  8 32  1  0  0  0  0
  9 10  2  0  0  0  0
  9 11  1  0  0  0  0
 11 12  1  0  0  0  0
 11 33  1  0  0  0  0
 12 21  1  0  0  0  0
 12 13  1  0  0  0  0
 12 17  1  0  0  0  0
 13 14  1  0  0  0  0
 13 34  1  0  0  0  0
 13 35  1  0  0  0  0
 14 15  1  0  0  0  0
 14 16  1  0  0  0  0
 14 36  1  0  0  0  0
 15 37  1  0  0  0  0
 15 38  1  0  0  0  0
 15 39  1  0  0  0  0
 16 40  1  0  0  0  0
 16 41  1  0  0  0  0
 16 42  1  0  0  0  0
 17 18  2  0  0  0  0
 17 19  1  0  0  0  0
M  CHG  1  19  -1
M  END
> <s_m_source_file>
AV-unprocessed.smi

> <i_m_source_file_index>
2735

> <i_lp_mmshare_version>
43012

> <i_f3d_flags>
0

> <s_epik_input>
W0NIM11jMVtjSF1jKFtDSDNdKW4objEpW0NASF0oW0NIM10pQyg9TylbTkhdW0NASF0oQyg9TylbT0hdKVtDSDJdW0NIXShbQ0gzXSlbQ0gzXQ==

> <s_epik_cmdline>
J2VwaWtfcHl0aG9uJywgJy1waCcsICc3LjAnLCAnLXRuJywgJzgnLCAnLW1hJywgJzIwMCcsICctbWV0YWxfYmluZGluZycsICctaW1hZScsICc8aW5maWxlLm1hZT4nLCAnLW9tYWUnLCAnPG91dGZpbGUubWFlPic=

> <r_lp_tautomer_probability>
1

> <r_epik_Ionization_Penalty>
0.0012303

> <r_epik_Ionization_Penalty_Charging>
0.000186407

> <r_epik_Ionization_Penalty_Neutral>
0.0010439

> <r_epik_State_Penalty>
-0

> <r_epik_Charging_Adjusted_Penalty>
0.000186407

> <i_epik_Tot_Q>
-1

> <i_epik_Tot_abs_Q>
1

> <r_epik_Metal_State_Penalty>
-0

> <b_epik_Metal_Only>
0

> <s_lp_Force_Field>
OPLS_2005

> <r_lp_Energy>
6.45659

> <b_lp_Chiralities_Consistent>
1

> <s_lp_Variant>
AV-unprocessed.smi:2735-3

> <Gold.Version>
5.8.1

> <Gold.Id.Protein>
6NUR|6NUR_protein|mol2

> <Gold.PLP.Fitness>
38.2570

> <Gold.PLP.PLP>
-32.8086

> <Gold.PLP.part.hbond>
-3.3449

> <Gold.PLP.part.metal>
0.0000

> <Gold.PLP.part.buried>
-2.4738

> <Gold.PLP.part.nonpolar>
-27.6756

> <Gold.PLP.part.repulsive>
0.0661

> <Gold.PLP.ligand.clash>
0.0000

> <Gold.PLP.ligand.torsion>
1.0002

> <Gold.PLP.Chemscore.Hbond>
2.4160

> <Gold.PLP.Chemscore.CHOScore>
0.0000

> <Gold.PLP.Chemscore.Metal>
0.0000

> <Gold.Chemscore.Hbonds>
donor molecule, donor type, donor heavy atom, donor atom, acceptor molecule, acceptor atom, score
      P1  H  6896  6907       L1    10  0.43
      P1  H  6934  6947       L1    19  2.00

> <Gold.PLP.Chemscore.Internal.Correction>
0.2008

> <Gold.Rescore>
     Score         DG    S(hbond)    S(metal)    S(lipo)     H(rot)  DE(clash)    DE(int)     intcor
      8.93     -11.90       1.19        0.00      69.76       2.24       0.02       2.95       ----

> <Gold.Chemscore.Fitness>
8.9318

> <Gold.Chemscore.DG>
-11.9011

> <Gold.Chemscore.ZeroCoef>
-5.4800

> <Gold.Chemscore.Hbond>
1.1946

> <Gold.Chemscore.Metal>
0.0000

> <Gold.Chemscore.Lipo>
69.7640

> <Gold.Chemscore.Internal_Hbond>
0.0000

> <Gold.Chemscore.DEClash>
0.0236

> <Gold.Chemscore.DEInternal>
2.9457

> <Gold.Chemscore.Rot>
2.2388

> <Gold.Chemscore.Internal.Correction>
   9.000000E+99

> <Gold.Chemscore.Hbonds>
donor molecule, donor type, donor heavy atom, donor atom, acceptor molecule, acceptor atom, score
      P1  H  6896  6907       L1    10  0.33
      P1  H  6934  6947       L1    19  0.73

> <Gold.Chemscore.Hbond.Weighted>
-3.9900

> <Gold.Chemscore.Metal.Weighted>
-0.0000

> <Gold.Chemscore.Lipo.Weighted>
-8.1624

> <Gold.Chemscore.Internal_Hbond.Weighted>
0.0000

> <Gold.Chemscore.DEClash.Weighted>
0.0236

> <Gold.Chemscore.DEInternal.Weighted>
2.9457

> <Gold.Chemscore.Rot.Weighted>
5.7314

> <Gold.Chemscore.Internal.Correction.Weighted>
   9.000000E+99

> <Gold.Protein.RotatedTorsions>
[ 6907 6896 6895 6894 ] final  -95.97 input  -60.11 | X-H torsion
[ 7974 7965 7964 7962 ] final  -77.03 input  175.53 | X-H torsion
[ 8008 7997 7996 7995 ] final -178.02 input   59.86 | X-H torsion
[ 10167 10162 10161 10158 ] final  -10.08 input  -65.29 | X-H torsion
[ 10718 10713 10712 10709 ] final  -37.58 input   66.30 | X-H torsion
[ 10763 10752 10751 10750 ] final   29.70 input  -60.55 | X-H torsion
[ 11005 11000 10999 10996 ] final   -3.13 input  -57.11 | X-H torsion

> <Gold.Protein.ActiveResidues>
 VAL166  LYS551  ARG553  GLY616  TRP617  ASP618  TYR619  PRO620  LYS621  CYS622 
 ASP623  PHE694  ASN695  SER759  ASP760  ASP761  ALA762  ILE779  LEU786  VAL792 
 PHE793  MET794  SER795  GLU796  ALA797  LYS798  CYS799  TRP800  GLU811  SER814 

> <Gold.Protein.RotatedAtoms>
  150.6977  134.1576  159.4163 H   0  0  0  0  0  0  0  0  0  0  0  0  # atno 6907 bound_to 6896
  151.9557  135.0145  160.0554 H   0  0  0  0  0  0  0  0  0  0  0  0  # atno 6908 bound_to 6896
  152.1971  133.4779  159.5075 H   0  0  0  0  0  0  0  0  0  0  0  0  # atno 6909 bound_to 6896
  145.6051  140.9400  143.1220 H   0  0  0  0  0  0  0  0  0  0  0  0  # atno 7974 bound_to 7965
  156.0138  140.1246  157.0427 H   0  0  0  0  0  0  0  0  0  0  0  0  # atno 8008 bound_to 7997
  154.4285  140.1082  156.5937 H   0  0  0  0  0  0  0  0  0  0  0  0  # atno 8009 bound_to 7997
  155.6042  140.3471  155.4605 H   0  0  0  0  0  0  0  0  0  0  0  0  # atno 8010 bound_to 7997
  140.7104  143.5787  150.9015 H   0  0  0  0  0  0  0  0  0  0  0  0  # atno 10167 bound_to 10162
  156.3136  130.4256  149.8027 H   0  0  0  0  0  0  0  0  0  0  0  0  # atno 10718 bound_to 10713
  153.0415  135.6482  154.0931 H   0  0  0  0  0  0  0  0  0  0  0  0  # atno 10763 bound_to 10752
  154.0637  135.2886  155.3322 H   0  0  0  0  0  0  0  0  0  0  0  0  # atno 10764 bound_to 10752
  154.6641  135.5381  153.8119 H   0  0  0  0  0  0  0  0  0  0  0  0  # atno 10765 bound_to 10752
  140.6660  133.9278  155.8465 H   0  0  0  0  0  0  0  0  0  0  0  0  # atno 11005 bound_to 11000
  144.7293  139.7775  143.7353 LP  0  0  0  0  0  0  0  0  0  0  0  0  # atno 17320 bound_to 7965
  146.1547  139.4641  143.0026 LP  0  0  0  0  0  0  0  0  0  0  0  0  # atno 17321 bound_to 7965
  139.9513  143.6269  152.3028 LP  0  0  0  0  0  0  0  0  0  0  0  0  # atno 17342 bound_to 10162
  139.6788  144.7657  151.1646 LP  0  0  0  0  0  0  0  0  0  0  0  0  # atno 17343 bound_to 10162
  156.5361  130.8279  151.3253 LP  0  0  0  0  0  0  0  0  0  0  0  0  # atno 17370 bound_to 10713
  157.7396  130.9835  150.2327 LP  0  0  0  0  0  0  0  0  0  0  0  0  # atno 17371 bound_to 10713
  141.0429  134.0596  157.3880 LP  0  0  0  0  0  0  0  0  0  0  0  0  # atno 17394 bound_to 11000
  139.8997  135.0159  156.7208 LP  0  0  0  0  0  0  0  0  0  0  0  0  # atno 17395 bound_to 11000

$$$$
