AV-unprocessed.smi:2201|AV-procd|sdf|8928|dock7
  -GOLD-   2272012143D 1   1.00000     0.00000
 Structure written by MMmdl.
 30 30  0  0  0  0  0  0  0  0  2 V2000
  151.4267  144.2244  160.3683 C   0  0  0  0  0  0  0  0  0  0  0  0
  152.1855  143.2963  159.3910 C   0  0  0  0  0  0  0  0  0  0  0  0
  152.8607  144.1809  158.3175 C   0  0  0  0  0  0  0  0  0  0  0  0
  153.2642  142.5326  160.1927 C   0  0  0  0  0  0  0  0  0  0  0  0
  151.2011  142.2937  158.7252 C   0  0  0  0  0  0  0  0  0  0  0  0
  149.9906  142.3848  158.9452 O   0  0  0  0  0  0  0  0  0  0  0  0
  151.8289  141.3831  157.9377 N   0  5  0  0  0  0  0  0  0  0  0  0
  151.1986  140.8871  156.8622 C   0  0  0  0  0  0  0  0  0  0  0  0
  151.6899  139.8834  156.1275 N   0  0  0  0  0  0  0  0  0  0  0  0
  150.8752  139.5278  155.0484 C   0  0  0  0  0  0  0  0  0  0  0  0
  151.2933  138.4250  154.1164 C   0  0  0  0  0  0  0  0  0  0  0  0
  151.2871  137.0610  154.8162 C   0  0  0  0  0  0  0  0  0  0  0  0
  150.4490  136.1277  154.3541 N   0  0  0  0  0  0  0  0  0  0  0  0
  152.0181  136.8579  155.7836 O   0  0  0  0  0  0  0  0  0  0  0  0
  149.7236  140.2692  154.9796 C   0  0  0  0  0  0  0  0  0  0  0  0
  149.6377  141.4459  156.2587 S   0  0  0  0  0  0  0  0  0  0  0  0
  152.1033  144.9344  160.8447 H   0  0  0  0  0  0  0  0  0  0  0  0
  150.9406  143.6602  161.1654 H   0  0  0  0  0  0  0  0  0  0  0  0
  150.6589  144.8065  159.8563 H   0  0  0  0  0  0  0  0  0  0  0  0
  152.1212  144.6808  157.6903 H   0  0  0  0  0  0  0  0  0  0  0  0
  153.5134  143.6040  157.6611 H   0  0  0  0  0  0  0  0  0  0  0  0
  153.4764  144.9552  158.7759 H   0  0  0  0  0  0  0  0  0  0  0  0
  153.9107  143.2212  160.7375 H   0  0  0  0  0  0  0  0  0  0  0  0
  153.9090  141.9348  159.5474 H   0  0  0  0  0  0  0  0  0  0  0  0
  152.8148  141.8598  160.9243 H   0  0  0  0  0  0  0  0  0  0  0  0
  150.6291  138.3884  153.2518 H   0  0  0  0  0  0  0  0  0  0  0  0
  152.2945  138.6101  153.7260 H   0  0  0  0  0  0  0  0  0  0  0  0
  150.3977  135.2278  154.8094 H   0  0  0  0  0  0  0  0  0  0  0  0
  149.8497  136.3370  153.5693 H   0  0  0  0  0  0  0  0  0  0  0  0
  148.9254  140.1974  154.2565 H   0  0  0  0  0  0  0  0  0  0  0  0
  1  2  1  0  0  0  0
  1 17  1  0  0  0  0
  1 18  1  0  0  0  0
  1 19  1  0  0  0  0
  2  3  1  0  0  0  0
  2  4  1  0  0  0  0
  2  5  1  0  0  0  0
  3 20  1  0  0  0  0
  3 21  1  0  0  0  0
  3 22  1  0  0  0  0
  4 23  1  0  0  0  0
  4 24  1  0  0  0  0
  4 25  1  0  0  0  0
  5  6  2  0  0  0  0
  5  7  1  0  0  0  0
  7  8  1  0  0  0  0
  8 16  1  0  0  0  0
  8  9  2  0  0  0  0
  9 10  1  0  0  0  0
 10 11  1  0  0  0  0
 10 15  2  0  0  0  0
 11 12  1  0  0  0  0
 11 26  1  0  0  0  0
 11 27  1  0  0  0  0
 12 13  1  0  0  0  0
 12 14  2  0  0  0  0
 13 28  1  0  0  0  0
 13 29  1  0  0  0  0
 15 16  1  0  0  0  0
 15 30  1  0  0  0  0
M  CHG  1   7  -1
M  END
> <s_m_source_file>
AV-unprocessed.smi

> <i_m_source_file_index>
2201

> <i_lp_mmshare_version>
43012

> <i_f3d_flags>
0

> <s_epik_input>
W0NIM11DKFtDSDNdKShbQ0gzXSlDKD1PKVtOSF1jMW5jKFtjSF1zMSlbQ0gyXUMoPU8pW05IMl0=

> <s_epik_cmdline>
J2VwaWtfcHl0aG9uJywgJy1waCcsICc3LjAnLCAnLXRuJywgJzgnLCAnLW1hJywgJzIwMCcsICctbWV0YWxfYmluZGluZycsICctaW1hZScsICc8aW5maWxlLm1hZT4nLCAnLW9tYWUnLCAnPG91dGZpbGUubWFlPic=

> <r_lp_tautomer_probability>
1

> <r_epik_Ionization_Penalty>
5.6718

> <r_epik_Ionization_Penalty_Charging>
5.12968

> <r_epik_Ionization_Penalty_Neutral>
0.54212

> <r_epik_State_Penalty>
5.12958

> <r_epik_Charging_Adjusted_Penalty>
10.2593

> <i_epik_Tot_Q>
-1

> <i_epik_Tot_abs_Q>
1

> <r_epik_Metal_State_Penalty>
1.2135

> <b_epik_Metal_Only>
1

> <s_lp_Force_Field>
OPLS_2005

> <r_lp_Energy>
3.19374

> <b_lp_Chiralities_Consistent>
1

> <s_lp_Variant>
AV-unprocessed.smi:2201-2

> <Gold.Version>
5.8.1

> <Gold.Id.Protein>
6NUR|6NUR_protein|mol2

> <Gold.PLP.Fitness>
40.5837

> <Gold.PLP.PLP>
-35.2815

> <Gold.PLP.part.hbond>
-3.7572

> <Gold.PLP.part.metal>
0.0000

> <Gold.PLP.part.buried>
-3.6515

> <Gold.PLP.part.nonpolar>
-28.0336

> <Gold.PLP.part.repulsive>
0.1903

> <Gold.PLP.ligand.clash>
0.0000

> <Gold.PLP.ligand.torsion>
0.3451

> <Gold.PLP.Chemscore.Hbond>
1.9920

> <Gold.PLP.Chemscore.CHOScore>
0.0000

> <Gold.PLP.Chemscore.Metal>
0.0000

> <Gold.Chemscore.Hbonds>
donor molecule, donor type, donor heavy atom, donor atom, acceptor molecule, acceptor atom, score
      L1  H    13    29       P1  7948  0.95
      P1  H 10752 10764       L1    14  0.85

> <Gold.PLP.Chemscore.Internal.Correction>
0.0165

> <Gold.Rescore>
     Score         DG    S(hbond)    S(metal)    S(lipo)     H(rot)  DE(clash)    DE(int)     intcor
     12.91     -15.01       1.54        0.00      78.62       1.88       0.27       1.83       ----

> <Gold.Chemscore.Fitness>
12.9119

> <Gold.Chemscore.DG>
-15.0096

> <Gold.Chemscore.ZeroCoef>
-5.4800

> <Gold.Chemscore.Hbond>
1.5402

> <Gold.Chemscore.Metal>
0.0000

> <Gold.Chemscore.Lipo>
78.6187

> <Gold.Chemscore.Internal_Hbond>
0.0000

> <Gold.Chemscore.DEClash>
0.2721

> <Gold.Chemscore.DEInternal>
1.8256

> <Gold.Chemscore.Rot>
1.8802

> <Gold.Chemscore.Internal.Correction>
   9.000000E+99

> <Gold.Chemscore.Hbonds>
donor molecule, donor type, donor heavy atom, donor atom, acceptor molecule, acceptor atom, score
      L1  H    13    29       P1  7948  0.21
      P1  H 10752 10764       L1    14  0.14

> <Gold.Chemscore.Hbond.Weighted>
-5.1444

> <Gold.Chemscore.Metal.Weighted>
-0.0000

> <Gold.Chemscore.Lipo.Weighted>
-9.1984

> <Gold.Chemscore.Internal_Hbond.Weighted>
0.0000

> <Gold.Chemscore.DEClash.Weighted>
0.2721

> <Gold.Chemscore.DEInternal.Weighted>
1.8256

> <Gold.Chemscore.Rot.Weighted>
4.8132

> <Gold.Chemscore.Internal.Correction.Weighted>
   9.000000E+99

> <Gold.Protein.RotatedTorsions>
[ 6907 6896 6895 6894 ] final   35.39 input  -60.11 | X-H torsion
[ 7974 7965 7964 7962 ] final   77.80 input  175.53 | X-H torsion
[ 8008 7997 7996 7995 ] final   75.66 input   59.86 | X-H torsion
[ 10167 10162 10161 10158 ] final  -80.97 input  -65.29 | X-H torsion
[ 10718 10713 10712 10709 ] final -174.78 input   66.30 | X-H torsion
[ 10763 10752 10751 10750 ] final  -34.75 input  -60.55 | X-H torsion
[ 11005 11000 10999 10996 ] final -123.25 input  -57.11 | X-H torsion

> <Gold.Protein.ActiveResidues>
 VAL166  LYS551  ARG553  GLY616  TRP617  ASP618  TYR619  PRO620  LYS621  CYS622 
 ASP623  PHE694  ASN695  SER759  ASP760  ASP761  ALA762  ILE779  LEU786  VAL792 
 PHE793  MET794  SER795  GLU796  ALA797  LYS798  CYS799  TRP800  GLU811  SER814 

> <Gold.Protein.RotatedAtoms>
  152.1154  134.9244  160.0564 H   0  0  0  0  0  0  0  0  0  0  0  0  # atno 6907 bound_to 6896
  152.0405  133.3970  159.4343 H   0  0  0  0  0  0  0  0  0  0  0  0  # atno 6908 bound_to 6896
  150.6846  134.3341  159.4883 H   0  0  0  0  0  0  0  0  0  0  0  0  # atno 6909 bound_to 6896
  145.6854  139.2536  143.1790 H   0  0  0  0  0  0  0  0  0  0  0  0  # atno 7974 bound_to 7965
  155.8161  140.3471  155.5486 H   0  0  0  0  0  0  0  0  0  0  0  0  # atno 8008 bound_to 7997
  155.8390  140.0938  157.1766 H   0  0  0  0  0  0  0  0  0  0  0  0  # atno 8009 bound_to 7997
  154.4005  140.1398  156.3693 H   0  0  0  0  0  0  0  0  0  0  0  0  # atno 8010 bound_to 7997
  140.4455  143.2500  151.8564 H   0  0  0  0  0  0  0  0  0  0  0  0  # atno 10167 bound_to 10162
  156.7902  130.9515  151.3120 H   0  0  0  0  0  0  0  0  0  0  0  0  # atno 10718 bound_to 10713
  153.8519  135.6848  153.4791 H   0  0  0  0  0  0  0  0  0  0  0  0  # atno 10763 bound_to 10752
  153.1392  135.4664  154.9468 H   0  0  0  0  0  0  0  0  0  0  0  0  # atno 10764 bound_to 10752
  154.7798  135.3265  154.7961 H   0  0  0  0  0  0  0  0  0  0  0  0  # atno 10765 bound_to 10752
  140.9933  134.0507  157.3627 H   0  0  0  0  0  0  0  0  0  0  0  0  # atno 11005 bound_to 11000
  146.0928  140.7636  142.9587 LP  0  0  0  0  0  0  0  0  0  0  0  0  # atno 17320 bound_to 7965
  144.7013  140.3664  143.7154 LP  0  0  0  0  0  0  0  0  0  0  0  0  # atno 17321 bound_to 7965
  139.4792  144.5180  151.8841 LP  0  0  0  0  0  0  0  0  0  0  0  0  # atno 17342 bound_to 10162
  140.4269  144.2169  150.5887 LP  0  0  0  0  0  0  0  0  0  0  0  0  # atno 17343 bound_to 10162
  157.6604  130.8961  149.9818 LP  0  0  0  0  0  0  0  0  0  0  0  0  # atno 17370 bound_to 10713
  156.1164  130.3647  149.9961 LP  0  0  0  0  0  0  0  0  0  0  0  0  # atno 17371 bound_to 10713
  139.9003  135.0162  156.7234 LP  0  0  0  0  0  0  0  0  0  0  0  0  # atno 17394 bound_to 11000
  140.7005  133.9311  155.8021 LP  0  0  0  0  0  0  0  0  0  0  0  0  # atno 17395 bound_to 11000

$$$$
