AV-unprocessed.smi:1019|AV-procd|sdf|4451|dock10
  -GOLD-   22720 2423D 1   1.00000     0.00000
 Structure written by MMmdl.
 43 45  0  0  0  0  0  0  0  0  1 V2000
  145.8565  135.3278  154.4908 C   0  0  0  0  0  0  0  0  0  0  0  0
  147.2889  135.3248  154.1934 N   0  0  0  0  0  0  0  0  0  0  0  0
  147.5606  134.6233  152.9377 C   0  0  0  0  0  0  0  0  0  0  0  0
  146.6695  135.0520  151.7837 C   0  0  0  0  0  0  0  0  0  0  0  0
  145.8236  134.1141  151.1545 C   0  0  0  0  0  0  0  0  0  0  0  0
  144.9977  134.5116  150.0849 C   0  0  0  0  0  0  0  0  0  0  0  0
  145.0127  135.8486  149.6423 C   0  0  0  0  0  0  0  0  0  0  0  0
  145.8539  136.7879  150.2694 C   0  0  0  0  0  0  0  0  0  0  0  0
  146.6803  136.3910  151.3388 C   0  0  0  0  0  0  0  0  0  0  0  0
  148.0684  134.7334  155.2845 C   0  0  0  0  0  0  0  0  0  0  0  0
  148.0909  135.5289  156.6066 C   0  0  2  0  0  0  0  0  0  0  0  0
  148.8759  136.6917  156.4237 O   0  0  0  0  0  0  0  0  0  0  0  0
  148.6859  134.6910  157.7544 C   0  0  0  0  0  0  0  0  0  0  0  0
  148.5823  135.3538  159.0427 N   0  0  0  0  0  0  0  0  0  0  0  0
  149.1948  136.4936  159.4167 C   0  0  0  0  0  0  0  0  0  0  0  0
  148.9595  136.9370  160.6481 N   0  0  0  0  0  0  0  0  0  0  0  0
  148.0928  135.9716  161.1313 C   0  0  0  0  0  0  0  0  0  0  0  0
  147.4619  135.8540  162.3906 C   0  0  0  0  0  0  0  0  0  0  0  0
  146.6046  134.7673  162.6615 C   0  0  0  0  0  0  0  0  0  0  0  0
  146.3660  133.7831  161.6804 C   0  0  0  0  0  0  0  0  0  0  0  0
  146.9830  133.8790  160.4181 C   0  0  0  0  0  0  0  0  0  0  0  0
  147.8366  134.9657  160.1509 C   0  0  0  0  0  0  0  0  0  0  0  0
  145.6321  135.9218  155.3752 H   0  0  0  0  0  0  0  0  0  0  0  0
  145.4860  134.3152  154.6554 H   0  0  0  0  0  0  0  0  0  0  0  0
  145.2846  135.7661  153.6727 H   0  0  0  0  0  0  0  0  0  0  0  0
  148.5884  134.8133  152.6255 H   0  0  0  0  0  0  0  0  0  0  0  0
  147.4804  133.5452  153.0853 H   0  0  0  0  0  0  0  0  0  0  0  0
  145.8092  133.0871  151.4897 H   0  0  0  0  0  0  0  0  0  0  0  0
  144.3527  133.7905  149.6046 H   0  0  0  0  0  0  0  0  0  0  0  0
  144.3793  136.1537  148.8224 H   0  0  0  0  0  0  0  0  0  0  0  0
  145.8662  137.8135  149.9304 H   0  0  0  0  0  0  0  0  0  0  0  0
  147.3239  137.1171  151.8137 H   0  0  0  0  0  0  0  0  0  0  0  0
  147.6928  133.7277  155.4797 H   0  0  0  0  0  0  0  0  0  0  0  0
  149.1019  134.6007  154.9605 H   0  0  0  0  0  0  0  0  0  0  0  0
  147.0865  135.8351  156.8956 H   0  0  0  0  0  0  0  0  0  0  0  0
  148.4050  137.2879  155.8619 H   0  0  0  0  0  0  0  0  0  0  0  0
  148.1691  133.7330  157.8255 H   0  0  0  0  0  0  0  0  0  0  0  0
  149.7346  134.4630  157.5596 H   0  0  0  0  0  0  0  0  0  0  0  0
  149.8514  137.0280  158.7456 H   0  0  0  0  0  0  0  0  0  0  0  0
  147.6381  136.6016  163.1498 H   0  0  0  0  0  0  0  0  0  0  0  0
  146.1279  134.6884  163.6275 H   0  0  0  0  0  0  0  0  0  0  0  0
  145.7087  132.9540  161.8976 H   0  0  0  0  0  0  0  0  0  0  0  0
  146.8027  133.1261  159.6654 H   0  0  0  0  0  0  0  0  0  0  0  0
  1  2  1  0  0  0  0
  1 23  1  0  0  0  0
  1 24  1  0  0  0  0
  1 25  1  0  0  0  0
  2  3  1  0  0  0  0
  2 10  1  0  0  0  0
  3  4  1  0  0  0  0
  3 26  1  0  0  0  0
  3 27  1  0  0  0  0
  4  9  1  0  0  0  0
  4  5  2  0  0  0  0
  5  6  1  0  0  0  0
  5 28  1  0  0  0  0
  6  7  2  0  0  0  0
  6 29  1  0  0  0  0
  7  8  1  0  0  0  0
  7 30  1  0  0  0  0
  8  9  2  0  0  0  0
  8 31  1  0  0  0  0
  9 32  1  0  0  0  0
 10 11  1  0  0  0  0
 10 33  1  0  0  0  0
 10 34  1  0  0  0  0
 11 12  1  0  0  0  0
 11 13  1  0  0  0  0
 11 35  1  0  0  0  0
 12 36  1  0  0  0  0
 13 14  1  0  0  0  0
 13 37  1  0  0  0  0
 13 38  1  0  0  0  0
 14 22  1  0  0  0  0
 14 15  1  0  0  0  0
 15 16  2  0  0  0  0
 15 39  1  0  0  0  0
 16 17  1  0  0  0  0
 17 22  2  0  0  0  0
 17 18  1  0  0  0  0
 18 19  2  0  0  0  0
 18 40  1  0  0  0  0
 19 20  1  0  0  0  0
 19 41  1  0  0  0  0
 20 21  2  0  0  0  0
 20 42  1  0  0  0  0
 21 22  1  0  0  0  0
 21 43  1  0  0  0  0
M  END
> <s_m_source_file>
AV-unprocessed.smi

> <i_m_source_file_index>
1019

> <i_lp_mmshare_version>
43012

> <i_f3d_flags>
0

> <s_epik_input>
W2NIXTFbY0hdW2NIXVtjSF1bY0hdYzFbQ0gyXU4oW0NIM10pW0NIMl1bQ0BIXShbT0hdKVtDSDJdbihbY0hdbjIpYyhjMjMpW2NIXVtjSF1bY0hdW2NIXTM=

> <s_epik_cmdline>
J2VwaWtfcHl0aG9uJywgJy1waCcsICc3LjAnLCAnLXRuJywgJzgnLCAnLW1hJywgJzIwMCcsICctbWV0YWxfYmluZGluZycsICctaW1hZScsICc8aW5maWxlLm1hZT4nLCAnLW9tYWUnLCAnPG91dGZpbGUubWFlPic=

> <r_epik_Ionization_Penalty>
1.56741

> <r_epik_Ionization_Penalty_Charging>
0

> <r_epik_Ionization_Penalty_Neutral>
1.56741

> <r_epik_State_Penalty>
1.62466

> <r_epik_Charging_Adjusted_Penalty>
1.62466

> <i_epik_Tot_Q>
0

> <i_epik_Tot_abs_Q>
0

> <r_epik_Metal_State_Penalty>
1.58486

> <b_epik_Metal_Only>
0

> <s_lp_Force_Field>
OPLS_2005

> <r_lp_Energy>
24.0301

> <b_lp_Chiralities_Consistent>
1

> <s_lp_Variant>
AV-unprocessed.smi:1019-9

> <Gold.Version>
5.8.1

> <Gold.Id.Protein>
6NUR|6NUR_protein|mol2

> <Gold.PLP.Fitness>
43.5395

> <Gold.PLP.PLP>
-39.6602

> <Gold.PLP.part.hbond>
-2.0000

> <Gold.PLP.part.metal>
0.0000

> <Gold.PLP.part.buried>
-4.8464

> <Gold.PLP.part.nonpolar>
-33.1026

> <Gold.PLP.part.repulsive>
0.0657

> <Gold.PLP.ligand.clash>
0.0000

> <Gold.PLP.ligand.torsion>
0.2066

> <Gold.PLP.Chemscore.Hbond>
1.3790

> <Gold.PLP.Chemscore.CHOScore>
0.0000

> <Gold.PLP.Chemscore.Metal>
0.0000

> <Gold.Chemscore.Hbonds>
donor molecule, donor type, donor heavy atom, donor atom, acceptor molecule, acceptor atom, score
      P1  H  6931  6943       L1    16  0.78

> <Gold.PLP.Chemscore.Internal.Correction>
0.1556

> <Gold.Rescore>
     Score         DG    S(hbond)    S(metal)    S(lipo)     H(rot)  DE(clash)    DE(int)     intcor
     15.36     -15.78       1.43        0.00      96.79       2.27       0.00       0.41       ----

> <Gold.Chemscore.Fitness>
15.3607

> <Gold.Chemscore.DG>
-15.7794

> <Gold.Chemscore.ZeroCoef>
-5.4800

> <Gold.Chemscore.Hbond>
1.4304

> <Gold.Chemscore.Metal>
0.0000

> <Gold.Chemscore.Lipo>
96.7920

> <Gold.Chemscore.Internal_Hbond>
0.0000

> <Gold.Chemscore.DEClash>
0.0038

> <Gold.Chemscore.DEInternal>
0.4149

> <Gold.Chemscore.Rot>
2.2667

> <Gold.Chemscore.Internal.Correction>
   9.000000E+99

> <Gold.Chemscore.Hbonds>
donor molecule, donor type, donor heavy atom, donor atom, acceptor molecule, acceptor atom, score
      P1  H  6931  6943       L1    16  0.51

> <Gold.Chemscore.Hbond.Weighted>
-4.7776

> <Gold.Chemscore.Metal.Weighted>
-0.0000

> <Gold.Chemscore.Lipo.Weighted>
-11.3247

> <Gold.Chemscore.Internal_Hbond.Weighted>
0.0000

> <Gold.Chemscore.DEClash.Weighted>
0.0038

> <Gold.Chemscore.DEInternal.Weighted>
0.4149

> <Gold.Chemscore.Rot.Weighted>
5.8028

> <Gold.Chemscore.Internal.Correction.Weighted>
   9.000000E+99

> <Gold.Protein.RotatedTorsions>
[ 6907 6896 6895 6894 ] final   21.14 input  -60.11 | X-H torsion
[ 7974 7965 7964 7962 ] final  161.52 input  175.53 | X-H torsion
[ 8008 7997 7996 7995 ] final  -84.06 input   59.86 | X-H torsion
[ 10167 10162 10161 10158 ] final  -30.69 input  -65.29 | X-H torsion
[ 10718 10713 10712 10709 ] final  -88.68 input   66.30 | X-H torsion
[ 10763 10752 10751 10750 ] final   12.35 input  -60.55 | X-H torsion
[ 11005 11000 10999 10996 ] final  -53.93 input  -57.11 | X-H torsion

> <Gold.Protein.ActiveResidues>
 VAL166  LYS551  ARG553  GLY616  TRP617  ASP618  TYR619  PRO620  LYS621  CYS622 
 ASP623  PHE694  ASN695  SER759  ASP760  ASP761  ALA762  ILE779  LEU786  VAL792 
 PHE793  MET794  SER795  GLU796  ALA797  LYS798  CYS799  TRP800  GLU811  SER814 

> <Gold.Protein.RotatedAtoms>
  151.9072  135.0354  160.0511 H   0  0  0  0  0  0  0  0  0  0  0  0  # atno 6907 bound_to 6896
  152.2310  133.5053  159.5224 H   0  0  0  0  0  0  0  0  0  0  0  0  # atno 6908 bound_to 6896
  150.7025  134.1133  159.4051 H   0  0  0  0  0  0  0  0  0  0  0  0  # atno 6909 bound_to 6896
  144.7682  139.7909  143.6307 H   0  0  0  0  0  0  0  0  0  0  0  0  # atno 7974 bound_to 7965
  154.6257  140.0610  156.9671 H   0  0  0  0  0  0  0  0  0  0  0  0  # atno 8008 bound_to 7997
  155.1745  140.3294  155.4368 H   0  0  0  0  0  0  0  0  0  0  0  0  # atno 8009 bound_to 7997
  156.2456  140.1908  156.6845 H   0  0  0  0  0  0  0  0  0  0  0  0  # atno 8010 bound_to 7997
  140.7246  143.3829  151.1568 H   0  0  0  0  0  0  0  0  0  0  0  0  # atno 10167 bound_to 10162
  155.9983  130.4844  150.5055 H   0  0  0  0  0  0  0  0  0  0  0  0  # atno 10718 bound_to 10713
  153.1831  135.6831  153.8451 H   0  0  0  0  0  0  0  0  0  0  0  0  # atno 10763 bound_to 10752
  153.7776  135.3187  155.3362 H   0  0  0  0  0  0  0  0  0  0  0  0  # atno 10764 bound_to 10752
  154.8072  135.4741  154.0518 H   0  0  0  0  0  0  0  0  0  0  0  0  # atno 10765 bound_to 10752
  141.1001  133.6619  156.4245 H   0  0  0  0  0  0  0  0  0  0  0  0  # atno 11005 bound_to 11000
  146.1807  139.4998  142.9868 LP  0  0  0  0  0  0  0  0  0  0  0  0  # atno 17320 bound_to 7965
  145.6405  141.0285  143.1814 LP  0  0  0  0  0  0  0  0  0  0  0  0  # atno 17321 bound_to 7965
  139.7421  143.8908  152.3053 LP  0  0  0  0  0  0  0  0  0  0  0  0  # atno 17342 bound_to 10162
  139.8733  144.7057  150.8962 LP  0  0  0  0  0  0  0  0  0  0  0  0  # atno 17343 bound_to 10162
  157.3035  131.0650  151.2052 LP  0  0  0  0  0  0  0  0  0  0  0  0  # atno 17370 bound_to 10713
  157.3023  130.6849  149.6170 LP  0  0  0  0  0  0  0  0  0  0  0  0  # atno 17371 bound_to 10713
  140.5044  134.6455  157.5261 LP  0  0  0  0  0  0  0  0  0  0  0  0  # atno 17394 bound_to 11000
  139.9849  134.7077  155.9792 LP  0  0  0  0  0  0  0  0  0  0  0  0  # atno 17395 bound_to 11000

$$$$
