AV-unprocessed.smi:2413|AV-procd|sdf|9536|dock6
  -GOLD-   2272013173D 1   1.00000     0.00000
 Structure written by MMmdl.
 46 47  0  0  0  0  0  0  0  0  2 V2000
  148.8166  138.3533  158.4049 C   0  0  0  0  0  0  0  0  0  0  0  0
  150.1260  137.6287  158.6956 C   0  0  0  0  0  0  0  0  0  0  0  0
  150.1159  136.5546  159.2963 O   0  0  0  0  0  0  0  0  0  0  0  0
  151.2450  138.2231  158.2533 N   0  0  0  0  0  0  0  0  0  0  0  0
  152.6024  137.7119  158.4261 C   0  0  0  0  0  0  0  0  0  0  0  0
  153.3513  138.4106  159.5762 C   0  0  2  0  0  0  0  0  0  0  0  0
  152.9083  139.8726  159.7868 C   0  0  0  0  0  0  0  0  0  0  0  0
  153.7368  140.5387  160.7911 N   0  0  0  0  0  0  0  0  0  0  0  0
  153.2967  141.7939  161.2683 C   0  0  0  0  0  0  0  0  0  0  0  0
  153.6271  142.2520  162.5604 C   0  0  0  0  0  0  0  0  0  0  0  0
  153.1502  143.5211  162.9349 C   0  0  0  0  0  0  0  0  0  0  0  0
  152.3928  144.2503  162.0814 N   0  3  0  0  0  0  0  0  0  0  0  0
  152.0588  143.7475  160.8808 C   0  0  0  0  0  0  0  0  0  0  0  0
  151.2976  144.6268  159.8783 C   0  0  0  0  0  0  0  0  0  0  0  0
  152.0238  145.9761  159.6652 C   0  0  0  0  0  0  0  0  0  0  0  0
  149.8723  144.8839  160.3998 C   0  0  0  0  0  0  0  0  0  0  0  0
  151.2299  143.9450  158.4928 C   0  0  0  0  0  0  0  0  0  0  0  0
  152.5326  142.5654  160.4611 N   0  0  0  0  0  0  0  0  0  0  0  0
  155.1701  140.4045  160.5428 C   0  0  0  0  0  0  0  0  0  0  0  0
  155.5385  138.9298  160.3109 C   0  0  0  0  0  0  0  0  0  0  0  0
  154.7406  138.3934  159.2615 O   0  0  0  0  0  0  0  0  0  0  0  0
  148.8792  139.3979  158.7113 H   0  0  0  0  0  0  0  0  0  0  0  0
  147.9896  137.8896  158.9433 H   0  0  0  0  0  0  0  0  0  0  0  0
  148.5930  138.3177  157.3385 H   0  0  0  0  0  0  0  0  0  0  0  0
  151.1510  139.1027  157.7662 H   0  0  0  0  0  0  0  0  0  0  0  0
  152.5248  136.6460  158.6415 H   0  0  0  0  0  0  0  0  0  0  0  0
  153.1704  137.7918  157.4973 H   0  0  0  0  0  0  0  0  0  0  0  0
  153.1914  137.8423  160.4948 H   0  0  0  0  0  0  0  0  0  0  0  0
  152.9703  140.4232  158.8470 H   0  0  0  0  0  0  0  0  0  0  0  0
  151.8659  139.8859  160.1065 H   0  0  0  0  0  0  0  0  0  0  0  0
  154.2153  141.6671  163.2511 H   0  0  0  0  0  0  0  0  0  0  0  0
  153.3535  143.9797  163.8915 H   0  0  0  0  0  0  0  0  0  0  0  0
  151.5143  146.5875  158.9195 H   0  0  0  0  0  0  0  0  0  0  0  0
  153.0482  145.8273  159.3214 H   0  0  0  0  0  0  0  0  0  0  0  0
  152.0658  146.5678  160.5808 H   0  0  0  0  0  0  0  0  0  0  0  0
  149.8892  145.3915  161.3651 H   0  0  0  0  0  0  0  0  0  0  0  0
  149.3223  143.9509  160.5290 H   0  0  0  0  0  0  0  0  0  0  0  0
  149.3030  145.5086  159.7107 H   0  0  0  0  0  0  0  0  0  0  0  0
  150.7265  144.5802  157.7631 H   0  0  0  0  0  0  0  0  0  0  0  0
  150.6775  143.0053  158.5260 H   0  0  0  0  0  0  0  0  0  0  0  0
  152.2268  143.7302  158.1055 H   0  0  0  0  0  0  0  0  0  0  0  0
  155.4325  140.9967  159.6652 H   0  0  0  0  0  0  0  0  0  0  0  0
  155.7635  140.7842  161.3726 H   0  0  0  0  0  0  0  0  0  0  0  0
  156.5893  138.8456  160.0341 H   0  0  0  0  0  0  0  0  0  0  0  0
  155.4025  138.3459  161.2227 H   0  0  0  0  0  0  0  0  0  0  0  0
  152.0693  145.1763  162.3621 H   0  0  0  0  0  0  0  0  0  0  0  0
  1  2  1  0  0  0  0
  1 22  1  0  0  0  0
  1 23  1  0  0  0  0
  1 24  1  0  0  0  0
  2  3  2  0  0  0  0
  2  4  1  0  0  0  0
  4  5  1  0  0  0  0
  4 25  1  0  0  0  0
  5  6  1  0  0  0  0
  5 26  1  0  0  0  0
  5 27  1  0  0  0  0
  6 21  1  0  0  0  0
  6  7  1  0  0  0  0
  6 28  1  0  0  0  0
  7  8  1  0  0  0  0
  7 29  1  0  0  0  0
  7 30  1  0  0  0  0
  8  9  1  0  0  0  0
  8 19  1  0  0  0  0
  9 18  1  0  0  0  0
  9 10  2  0  0  0  0
 10 11  1  0  0  0  0
 10 31  1  0  0  0  0
 11 12  2  0  0  0  0
 11 32  1  0  0  0  0
 12 13  1  0  0  0  0
 12 46  1  0  0  0  0
 13 14  1  0  0  0  0
 13 18  2  0  0  0  0
 14 15  1  0  0  0  0
 14 16  1  0  0  0  0
 14 17  1  0  0  0  0
 15 33  1  0  0  0  0
 15 34  1  0  0  0  0
 15 35  1  0  0  0  0
 16 36  1  0  0  0  0
 16 37  1  0  0  0  0
 16 38  1  0  0  0  0
 17 39  1  0  0  0  0
 17 40  1  0  0  0  0
 17 41  1  0  0  0  0
 19 20  1  0  0  0  0
 19 42  1  0  0  0  0
 19 43  1  0  0  0  0
 20 21  1  0  0  0  0
 20 44  1  0  0  0  0
 20 45  1  0  0  0  0
M  CHG  1  12   1
M  END
> <s_m_source_file>
AV-unprocessed.smi

> <i_m_source_file_index>
2413

> <i_lp_mmshare_version>
43012

> <i_f3d_flags>
0

> <s_epik_input>
W0NIM11DKD1PKVtOSF1bQ0gyXVtDQEBIXTFbQ0gyXU4oW0NIMl1bQ0gyXU8xKWMyW2NIXVtjSF1uYyhuMilDKFtDSDNdKShbQ0gzXSlbQ0gzXQ==

> <s_epik_cmdline>
J2VwaWtfcHl0aG9uJywgJy1waCcsICc3LjAnLCAnLXRuJywgJzgnLCAnLW1hJywgJzIwMCcsICctbWV0YWxfYmluZGluZycsICctaW1hZScsICc8aW5maWxlLm1hZT4nLCAnLW9tYWUnLCAnPG91dGZpbGUubWFlPic=

> <r_lp_tautomer_probability>
0.999336

> <r_epik_Ionization_Penalty>
2.26127

> <r_epik_Ionization_Penalty_Charging>
2.26127

> <r_epik_Ionization_Penalty_Neutral>
4.08984e-07

> <r_epik_State_Penalty>
2.40914

> <r_epik_Charging_Adjusted_Penalty>
4.67041

> <i_epik_Tot_Q>
1

> <i_epik_Tot_abs_Q>
1

> <r_epik_Metal_State_Penalty>
2.42208

> <b_epik_Metal_Only>
0

> <s_lp_Force_Field>
OPLS_2005

> <r_lp_Energy>
13.7164

> <b_lp_Chiralities_Consistent>
1

> <s_lp_Variant>
AV-unprocessed.smi:2413-3

> <Gold.Version>
5.8.1

> <Gold.Id.Protein>
6NUR|6NUR_protein|mol2

> <Gold.PLP.Fitness>
41.8700

> <Gold.PLP.PLP>
-40.4747

> <Gold.PLP.part.hbond>
-2.2092

> <Gold.PLP.part.metal>
0.0000

> <Gold.PLP.part.buried>
-5.6811

> <Gold.PLP.part.nonpolar>
-33.1938

> <Gold.PLP.part.repulsive>
0.1347

> <Gold.PLP.ligand.clash>
0.0000

> <Gold.PLP.ligand.torsion>
1.0488

> <Gold.PLP.Chemscore.Hbond>
1.0000

> <Gold.PLP.Chemscore.CHOScore>
0.0000

> <Gold.PLP.Chemscore.Metal>
0.0000

> <Gold.Chemscore.Hbonds>
donor molecule, donor type, donor heavy atom, donor atom, acceptor molecule, acceptor atom, score
      P1  H  6896  6909       L1     3  1.00

> <Gold.PLP.Chemscore.Internal.Correction>
0.4929

> <Gold.Rescore>
     Score         DG    S(hbond)    S(metal)    S(lipo)     H(rot)  DE(clash)    DE(int)     intcor
     14.22     -15.80       1.00        0.00      98.47       1.77       0.56       1.02       ----

> <Gold.Chemscore.Fitness>
14.2188

> <Gold.Chemscore.DG>
-15.7965

> <Gold.Chemscore.ZeroCoef>
-5.4800

> <Gold.Chemscore.Hbond>
0.9975

> <Gold.Chemscore.Metal>
0.0000

> <Gold.Chemscore.Lipo>
98.4686

> <Gold.Chemscore.Internal_Hbond>
0.0000

> <Gold.Chemscore.DEClash>
0.5611

> <Gold.Chemscore.DEInternal>
1.0166

> <Gold.Chemscore.Rot>
1.7719

> <Gold.Chemscore.Internal.Correction>
   9.000000E+99

> <Gold.Chemscore.Hbonds>
donor molecule, donor type, donor heavy atom, donor atom, acceptor molecule, acceptor atom, score
      P1  H  6896  6909       L1     3  1.00

> <Gold.Chemscore.Hbond.Weighted>
-3.3318

> <Gold.Chemscore.Metal.Weighted>
-0.0000

> <Gold.Chemscore.Lipo.Weighted>
-11.5208

> <Gold.Chemscore.Internal_Hbond.Weighted>
0.0000

> <Gold.Chemscore.DEClash.Weighted>
0.5611

> <Gold.Chemscore.DEInternal.Weighted>
1.0166

> <Gold.Chemscore.Rot.Weighted>
4.5361

> <Gold.Chemscore.Internal.Correction.Weighted>
   9.000000E+99

> <Gold.Protein.RotatedTorsions>
[ 6907 6896 6895 6894 ] final   77.14 input  -60.11 | X-H torsion
[ 7974 7965 7964 7962 ] final -135.00 input  175.53 | X-H torsion
[ 8008 7997 7996 7995 ] final -102.22 input   59.86 | X-H torsion
[ 10167 10162 10161 10158 ] final -147.88 input  -65.29 | X-H torsion
[ 10718 10713 10712 10709 ] final  103.76 input   66.30 | X-H torsion
[ 10763 10752 10751 10750 ] final  148.20 input  -60.55 | X-H torsion
[ 11005 11000 10999 10996 ] final -156.48 input  -57.11 | X-H torsion

> <Gold.Protein.ActiveResidues>
 VAL166  LYS551  ARG553  GLY616  TRP617  ASP618  TYR619  PRO620  LYS621  CYS622 
 ASP623  PHE694  ASN695  SER759  ASP760  ASP761  ALA762  ILE779  LEU786  VAL792 
 PHE793  MET794  SER795  GLU796  ALA797  LYS798  CYS799  TRP800  GLU811  SER814 

> <Gold.Protein.RotatedAtoms>
  152.5104  134.3862  159.9367 H   0  0  0  0  0  0  0  0  0  0  0  0  # atno 6907 bound_to 6896
  151.3820  133.3811  159.2719 H   0  0  0  0  0  0  0  0  0  0  0  0  # atno 6908 bound_to 6896
  150.9497  134.8918  159.7723 H   0  0  0  0  0  0  0  0  0  0  0  0  # atno 6909 bound_to 6896
  144.9053  140.6824  143.5059 H   0  0  0  0  0  0  0  0  0  0  0  0  # atno 7974 bound_to 7965
  154.8536  140.0429  157.1620 H   0  0  0  0  0  0  0  0  0  0  0  0  # atno 8008 bound_to 7997
  154.8916  140.2987  155.5347 H   0  0  0  0  0  0  0  0  0  0  0  0  # atno 8009 bound_to 7997
  156.2997  140.2392  156.3932 H   0  0  0  0  0  0  0  0  0  0  0  0  # atno 8010 bound_to 7997
  139.7582  143.8416  152.2601 H   0  0  0  0  0  0  0  0  0  0  0  0  # atno 10167 bound_to 10162
  157.6762  131.0787  150.5603 H   0  0  0  0  0  0  0  0  0  0  0  0  # atno 10718 bound_to 10713
  154.0508  135.2882  155.3341 H   0  0  0  0  0  0  0  0  0  0  0  0  # atno 10763 bound_to 10752
  154.6870  135.5241  153.8344 H   0  0  0  0  0  0  0  0  0  0  0  0  # atno 10764 bound_to 10752
  153.0561  135.6596  154.0704 H   0  0  0  0  0  0  0  0  0  0  0  0  # atno 10765 bound_to 10752
  140.6751  134.4205  157.5230 H   0  0  0  0  0  0  0  0  0  0  0  0  # atno 11005 bound_to 11000
  145.3547  139.1697  143.4416 LP  0  0  0  0  0  0  0  0  0  0  0  0  # atno 17320 bound_to 7965
  146.3130  140.3603  142.8664 LP  0  0  0  0  0  0  0  0  0  0  0  0  # atno 17321 bound_to 7965
  139.8414  144.7208  150.9326 LP  0  0  0  0  0  0  0  0  0  0  0  0  # atno 17342 bound_to 10162
  140.7805  143.3980  151.1197 LP  0  0  0  0  0  0  0  0  0  0  0  0  # atno 17343 bound_to 10162
  156.5906  130.4328  149.5938 LP  0  0  0  0  0  0  0  0  0  0  0  0  # atno 17370 bound_to 10713
  156.2586  130.6949  151.1711 LP  0  0  0  0  0  0  0  0  0  0  0  0  # atno 17371 bound_to 10713
  139.8969  134.8649  156.2067 LP  0  0  0  0  0  0  0  0  0  0  0  0  # atno 17394 bound_to 11000
  141.0361  133.6962  156.1515 LP  0  0  0  0  0  0  0  0  0  0  0  0  # atno 17395 bound_to 11000

$$$$
