AV-unprocessed.smi:687|AV-procd|sdf|3353|dock1
  -GOLD-   22720 0323D 1   1.00000     0.00000
 Structure written by MMmdl.
 40 41  0  0  0  0  0  0  0  0  1 V2000
  149.2499  140.5733  156.6469 O   0  0  0  0  0  0  0  0  0  0  0  0
  149.1299  141.7553  156.3273 C   0  0  0  0  0  0  0  0  0  0  0  0
  149.8960  142.7590  156.7864 N   0  0  0  0  0  0  0  0  0  0  0  0
  150.9577  142.6910  157.7273 C   0  0  0  0  0  0  0  0  0  0  0  0
  151.6739  143.8723  158.0090 C   0  0  0  0  0  0  0  0  0  0  0  0
  152.7186  143.8325  158.9516 C   0  0  0  0  0  0  0  0  0  0  0  0
  152.9998  142.6079  159.5879 C   0  0  0  0  0  0  0  0  0  0  0  0
  152.3129  141.4719  159.3437 N   0  0  0  0  0  0  0  0  0  0  0  0
  151.3141  141.5167  158.4355 C   0  0  0  0  0  0  0  0  0  0  0  0
  148.2245  142.2097  155.4442 N   0  0  0  0  0  0  0  0  0  0  0  0
  147.2157  141.4475  154.6898 C   0  0  0  0  0  0  0  0  0  0  0  0
  147.8854  140.3292  153.8407 C   0  0  0  0  0  0  0  0  0  0  0  0
  146.9276  139.4411  153.0223 C   0  0  0  0  0  0  0  0  0  0  0  0
  147.6400  138.3520  152.4770 O   0  0  0  0  0  0  0  0  0  0  0  0
  146.1682  140.8069  155.6442 C   0  0  0  0  0  0  0  0  0  0  0  0
  145.3467  141.8450  156.4289 C   0  0  0  0  0  0  0  0  0  0  0  0
  144.6347  142.8156  155.4776 C   0  0  0  0  0  0  0  0  0  0  0  0
  145.6359  143.4861  154.5274 C   0  0  0  0  0  0  0  0  0  0  0  0
  146.4714  142.4432  153.7598 C   0  0  0  0  0  0  0  0  0  0  0  0
  149.7467  143.6631  156.3634 H   0  0  0  0  0  0  0  0  0  0  0  0
  151.4318  144.7973  157.5060 H   0  0  0  0  0  0  0  0  0  0  0  0
  153.2898  144.7195  159.1824 H   0  0  0  0  0  0  0  0  0  0  0  0
  153.7940  142.5407  160.3165 H   0  0  0  0  0  0  0  0  0  0  0  0
  150.7827  140.5874  158.3005 H   0  0  0  0  0  0  0  0  0  0  0  0
  148.2296  143.2036  155.2683 H   0  0  0  0  0  0  0  0  0  0  0  0
  148.6078  140.7764  153.1569 H   0  0  0  0  0  0  0  0  0  0  0  0
  148.4772  139.6914  154.4988 H   0  0  0  0  0  0  0  0  0  0  0  0
  146.1234  139.0478  153.6428 H   0  0  0  0  0  0  0  0  0  0  0  0
  146.4700  139.9987  152.2051 H   0  0  0  0  0  0  0  0  0  0  0  0
  148.2931  138.6872  151.8817 H   0  0  0  0  0  0  0  0  0  0  0  0
  145.4793  140.1954  155.0595 H   0  0  0  0  0  0  0  0  0  0  0  0
  146.6421  140.1168  156.3420 H   0  0  0  0  0  0  0  0  0  0  0  0
  144.6119  141.3373  157.0543 H   0  0  0  0  0  0  0  0  0  0  0  0
  145.9948  142.3998  157.1084 H   0  0  0  0  0  0  0  0  0  0  0  0
  143.8860  142.2750  154.8974 H   0  0  0  0  0  0  0  0  0  0  0  0
  144.0971  143.5726  156.0495 H   0  0  0  0  0  0  0  0  0  0  0  0
  145.1023  144.1227  153.8212 H   0  0  0  0  0  0  0  0  0  0  0  0
  146.2929  144.1462  155.0946 H   0  0  0  0  0  0  0  0  0  0  0  0
  147.1775  142.9683  153.1167 H   0  0  0  0  0  0  0  0  0  0  0  0
  145.8096  141.8913  153.0907 H   0  0  0  0  0  0  0  0  0  0  0  0
  1  2  2  0  0  0  0
  2  3  1  0  0  0  0
  2 10  1  0  0  0  0
  3  4  1  0  0  0  0
  3 20  1  0  0  0  0
  4  9  1  0  0  0  0
  4  5  2  0  0  0  0
  5  6  1  0  0  0  0
  5 21  1  0  0  0  0
  6  7  2  0  0  0  0
  6 22  1  0  0  0  0
  7  8  1  0  0  0  0
  7 23  1  0  0  0  0
  8  9  2  0  0  0  0
  9 24  1  0  0  0  0
 10 11  1  0  0  0  0
 10 25  1  0  0  0  0
 11 19  1  0  0  0  0
 11 12  1  0  0  0  0
 11 15  1  0  0  0  0
 12 13  1  0  0  0  0
 12 26  1  0  0  0  0
 12 27  1  0  0  0  0
 13 14  1  0  0  0  0
 13 28  1  0  0  0  0
 13 29  1  0  0  0  0
 14 30  1  0  0  0  0
 15 16  1  0  0  0  0
 15 31  1  0  0  0  0
 15 32  1  0  0  0  0
 16 17  1  0  0  0  0
 16 33  1  0  0  0  0
 16 34  1  0  0  0  0
 17 18  1  0  0  0  0
 17 35  1  0  0  0  0
 17 36  1  0  0  0  0
 18 19  1  0  0  0  0
 18 37  1  0  0  0  0
 18 38  1  0  0  0  0
 19 39  1  0  0  0  0
 19 40  1  0  0  0  0
M  END
> <s_m_source_file>
AV-unprocessed.smi

> <i_m_source_file_index>
687

> <i_lp_mmshare_version>
43012

> <i_f3d_flags>
0

> <s_epik_input>
W0NIMl0xW0NIMl1bQ0gyXVtDSDJdW0NIMl1DMShbQ0gyXVtDSDJdW09IXSlbTkhdQyg9TylbTkhdYzJbY0hdW2NIXVtjSF1uW2NIXTI=

> <s_epik_cmdline>
J2VwaWtfcHl0aG9uJywgJy1waCcsICc3LjAnLCAnLXRuJywgJzgnLCAnLW1hJywgJzIwMCcsICctbWV0YWxfYmluZGluZycsICctaW1hZScsICc8aW5maWxlLm1hZT4nLCAnLW9tYWUnLCAnPG91dGZpbGUubWFlPic=

> <r_epik_Ionization_Penalty>
0.00504975

> <r_epik_Ionization_Penalty_Charging>
0

> <r_epik_Ionization_Penalty_Neutral>
0.00504975

> <r_epik_State_Penalty>
0.00364262

> <r_epik_Charging_Adjusted_Penalty>
0.00364262

> <i_epik_Tot_Q>
0

> <i_epik_Tot_abs_Q>
0

> <r_epik_Metal_State_Penalty>
-0

> <b_epik_Metal_Only>
0

> <s_lp_Force_Field>
OPLS_2005

> <r_lp_Energy>
17.0091

> <b_lp_Chiralities_Consistent>
1

> <s_lp_Variant>
AV-unprocessed.smi:687-1

> <Gold.Version>
5.8.1

> <Gold.Id.Protein>
6NUR|6NUR_protein|mol2

> <Gold.PLP.Fitness>
47.0623

> <Gold.PLP.PLP>
-38.1562

> <Gold.PLP.part.hbond>
-3.9027

> <Gold.PLP.part.metal>
0.0000

> <Gold.PLP.part.buried>
-4.0968

> <Gold.PLP.part.nonpolar>
-30.1868

> <Gold.PLP.part.repulsive>
0.1897

> <Gold.PLP.ligand.clash>
0.0000

> <Gold.PLP.ligand.torsion>
0.0509

> <Gold.PLP.Chemscore.Hbond>
3.0000

> <Gold.PLP.Chemscore.CHOScore>
0.0000

> <Gold.PLP.Chemscore.Metal>
0.0000

> <Gold.Chemscore.Hbonds>
donor molecule, donor type, donor heavy atom, donor atom, acceptor molecule, acceptor atom, score
      L1  H     3    20       P1  8028  0.99
      L1  H    10    25       P1  8028  0.98
      L1  H    14    30       P1  7957  1.00

> <Gold.PLP.Chemscore.Internal.Correction>
0.0078

> <Gold.Rescore>
     Score         DG    S(hbond)    S(metal)    S(lipo)     H(rot)  DE(clash)    DE(int)     intcor
     18.76     -20.10       2.82        0.00      89.00       2.04       0.01       1.33       ----

> <Gold.Chemscore.Fitness>
18.7633

> <Gold.Chemscore.DG>
-20.1012

> <Gold.Chemscore.ZeroCoef>
-5.4800

> <Gold.Chemscore.Hbond>
2.8237

> <Gold.Chemscore.Metal>
0.0000

> <Gold.Chemscore.Lipo>
88.9981

> <Gold.Chemscore.Internal_Hbond>
0.0000

> <Gold.Chemscore.DEClash>
0.0078

> <Gold.Chemscore.DEInternal>
1.3300

> <Gold.Chemscore.Rot>
2.0402

> <Gold.Chemscore.Internal.Correction>
   9.000000E+99

> <Gold.Chemscore.Hbonds>
donor molecule, donor type, donor heavy atom, donor atom, acceptor molecule, acceptor atom, score
      L1  H     3    20       P1  8028  0.90
      L1  H    10    25       P1  8028  0.89
      L1  H    14    30       P1  7957  0.75

> <Gold.Chemscore.Hbond.Weighted>
-9.4312

> <Gold.Chemscore.Metal.Weighted>
-0.0000

> <Gold.Chemscore.Lipo.Weighted>
-10.4128

> <Gold.Chemscore.Internal_Hbond.Weighted>
0.0000

> <Gold.Chemscore.DEClash.Weighted>
0.0078

> <Gold.Chemscore.DEInternal.Weighted>
1.3300

> <Gold.Chemscore.Rot.Weighted>
5.2228

> <Gold.Chemscore.Internal.Correction.Weighted>
   9.000000E+99

> <Gold.Protein.RotatedTorsions>
[ 6907 6896 6895 6894 ] final  152.73 input  -60.11 | X-H torsion
[ 7974 7965 7964 7962 ] final   -1.56 input  175.53 | X-H torsion
[ 8008 7997 7996 7995 ] final   -7.79 input   59.86 | X-H torsion
[ 10167 10162 10161 10158 ] final -167.84 input  -65.29 | X-H torsion
[ 10718 10713 10712 10709 ] final  144.88 input   66.30 | X-H torsion
[ 10763 10752 10751 10750 ] final  -44.61 input  -60.55 | X-H torsion
[ 11005 11000 10999 10996 ] final   54.00 input  -57.11 | X-H torsion

> <Gold.Protein.ActiveResidues>
 VAL166  LYS551  ARG553  GLY616  TRP617  ASP618  TYR619  PRO620  LYS621  CYS622 
 ASP623  PHE694  ASN695  SER759  ASP760  ASP761  ALA762  ILE779  LEU786  VAL792 
 PHE793  MET794  SER795  GLU796  ALA797  LYS798  CYS799  TRP800  GLU811  SER814 

> <Gold.Protein.RotatedAtoms>
  152.0826  133.4160  159.4507 H   0  0  0  0  0  0  0  0  0  0  0  0  # atno 6907 bound_to 6896
  150.6862  134.2965  159.4697 H   0  0  0  0  0  0  0  0  0  0  0  0  # atno 6908 bound_to 6896
  152.0808  134.9472  160.0624 H   0  0  0  0  0  0  0  0  0  0  0  0  # atno 6909 bound_to 6896
  146.2415  140.1438  142.8335 H   0  0  0  0  0  0  0  0  0  0  0  0  # atno 7974 bound_to 7965
  154.5804  140.2398  155.8061 H   0  0  0  0  0  0  0  0  0  0  0  0  # atno 8008 bound_to 7997
  156.2175  140.3008  155.9830 H   0  0  0  0  0  0  0  0  0  0  0  0  # atno 8009 bound_to 7997
  155.2551  140.0412  157.2981 H   0  0  0  0  0  0  0  0  0  0  0  0  # atno 8010 bound_to 7997
  139.6023  144.0984  152.1756 H   0  0  0  0  0  0  0  0  0  0  0  0  # atno 10167 bound_to 10162
  157.3519  131.0952  151.0993 H   0  0  0  0  0  0  0  0  0  0  0  0  # atno 10718 bound_to 10713
  154.0149  135.6676  153.4768 H   0  0  0  0  0  0  0  0  0  0  0  0  # atno 10763 bound_to 10752
  153.0605  135.5031  154.8078 H   0  0  0  0  0  0  0  0  0  0  0  0  # atno 10764 bound_to 10752
  154.6973  135.3072  154.9357 H   0  0  0  0  0  0  0  0  0  0  0  0  # atno 10765 bound_to 10752
  140.0722  134.5454  155.9035 H   0  0  0  0  0  0  0  0  0  0  0  0  # atno 11005 bound_to 11000
  145.0224  140.8805  143.5158 LP  0  0  0  0  0  0  0  0  0  0  0  0  # atno 17320 bound_to 7965
  145.1489  139.2526  143.5451 LP  0  0  0  0  0  0  0  0  0  0  0  0  # atno 17321 bound_to 7965
  140.0583  144.5877  150.7282 LP  0  0  0  0  0  0  0  0  0  0  0  0  # atno 17342 bound_to 10162
  140.7259  143.2636  151.4121 LP  0  0  0  0  0  0  0  0  0  0  0  0  # atno 17343 bound_to 10162
  157.2165  130.6462  149.5794 LP  0  0  0  0  0  0  0  0  0  0  0  0  # atno 17370 bound_to 10713
  155.9723  130.4643  150.6212 LP  0  0  0  0  0  0  0  0  0  0  0  0  # atno 17371 bound_to 10713
  141.2016  133.6619  156.5959 LP  0  0  0  0  0  0  0  0  0  0  0  0  # atno 17394 bound_to 11000
  140.3611  134.7687  157.4534 LP  0  0  0  0  0  0  0  0  0  0  0  0  # atno 17395 bound_to 11000

$$$$
