AV-unprocessed.smi:3348|AV-procd|sdf|12925|dock5
  -GOLD-   2272019353D 1   1.00000     0.00000
 Structure written by MMmdl.
 46 47  0  0  0  0  0  0  0  0  1 V2000
  151.8527  138.0846  155.4599 C   0  0  0  0  0  0  0  0  0  0  0  0
  150.7842  139.1861  155.4284 C   0  0  2  0  0  0  0  0  0  0  0  0
  150.0438  139.1617  154.0688 C   0  0  0  0  0  0  0  0  0  0  0  0
  148.9097  140.0637  153.9884 N   0  0  0  0  0  0  0  0  0  0  0  0
  147.5731  139.7477  153.8578 C   0  0  0  0  0  0  0  0  0  0  0  0
  146.8794  140.9230  153.8273 C   0  0  0  0  0  0  0  0  0  0  0  0
  147.8910  141.9155  153.9562 C   0  0  0  0  0  0  0  0  0  0  0  0
  149.1051  141.3983  154.0564 N   0  0  0  0  0  0  0  0  0  0  0  0
  151.4286  140.4793  155.6776 N   0  0  0  0  0  0  0  0  0  0  0  0
  151.7763  140.7486  157.0732 C   0  0  0  0  0  0  0  0  0  0  0  0
  150.7745  141.7151  157.7086 C   0  0  0  0  0  0  0  0  0  0  0  0
  151.3106  142.1238  158.9579 O   0  0  0  0  0  0  0  0  0  0  0  0
  152.5105  142.8849  158.8850 C   0  0  1  0  0  0  0  0  0  0  0  0
  152.2828  144.1951  158.1002 C   0  0  0  0  0  0  0  0  0  0  0  0
  151.2853  145.1188  158.8180 C   0  0  0  0  0  0  0  0  0  0  0  0
  151.7407  145.4167  160.2543 C   0  0  0  0  0  0  0  0  0  0  0  0
  151.9746  144.1205  161.0466 C   0  0  0  0  0  0  0  0  0  0  0  0
  152.9723  143.1888  160.3285 C   0  0  1  0  0  0  0  0  0  0  0  0
  153.2357  141.9065  161.1336 C   0  0  0  0  0  0  0  0  0  0  0  0
  151.4063  137.1004  155.3136 H   0  0  0  0  0  0  0  0  0  0  0  0
  152.3726  138.0672  156.4185 H   0  0  0  0  0  0  0  0  0  0  0  0
  152.5992  138.2305  154.6782 H   0  0  0  0  0  0  0  0  0  0  0  0
  150.0763  138.9684  156.2297 H   0  0  0  0  0  0  0  0  0  0  0  0
  150.7346  139.4011  153.2588 H   0  0  0  0  0  0  0  0  0  0  0  0
  149.6751  138.1555  153.8657 H   0  0  0  0  0  0  0  0  0  0  0  0
  147.2328  138.7252  153.7893 H   0  0  0  0  0  0  0  0  0  0  0  0
  145.8121  141.0534  153.7277 H   0  0  0  0  0  0  0  0  0  0  0  0
  147.7804  142.9895  153.9795 H   0  0  0  0  0  0  0  0  0  0  0  0
  152.2618  140.5629  155.1040 H   0  0  0  0  0  0  0  0  0  0  0  0
  151.8208  139.8402  157.6686 H   0  0  0  0  0  0  0  0  0  0  0  0
  152.7742  141.1863  157.1128 H   0  0  0  0  0  0  0  0  0  0  0  0
  150.6549  142.5870  157.0642 H   0  0  0  0  0  0  0  0  0  0  0  0
  149.7959  141.2465  157.8141 H   0  0  0  0  0  0  0  0  0  0  0  0
  153.2855  142.2958  158.3915 H   0  0  0  0  0  0  0  0  0  0  0  0
  153.2352  144.7154  157.9914 H   0  0  0  0  0  0  0  0  0  0  0  0
  151.9399  143.9911  157.0866 H   0  0  0  0  0  0  0  0  0  0  0  0
  151.1753  146.0504  158.2626 H   0  0  0  0  0  0  0  0  0  0  0  0
  150.2997  144.6515  158.8349 H   0  0  0  0  0  0  0  0  0  0  0  0
  152.6614  146.0010  160.2312 H   0  0  0  0  0  0  0  0  0  0  0  0
  150.9965  146.0328  160.7599 H   0  0  0  0  0  0  0  0  0  0  0  0
  152.3441  144.3657  162.0429 H   0  0  0  0  0  0  0  0  0  0  0  0
  151.0242  143.6054  161.1910 H   0  0  0  0  0  0  0  0  0  0  0  0
  153.9231  143.7199  160.2606 H   0  0  0  0  0  0  0  0  0  0  0  0
  152.3235  141.3250  161.2694 H   0  0  0  0  0  0  0  0  0  0  0  0
  153.6291  142.1394  162.1233 H   0  0  0  0  0  0  0  0  0  0  0  0
  153.9640  141.2701  160.6307 H   0  0  0  0  0  0  0  0  0  0  0  0
  1  2  1  0  0  0  0
  1 20  1  0  0  0  0
  1 21  1  0  0  0  0
  1 22  1  0  0  0  0
  2  3  1  0  0  0  0
  2  9  1  0  0  0  0
  2 23  1  0  0  0  0
  3  4  1  0  0  0  0
  3 24  1  0  0  0  0
  3 25  1  0  0  0  0
  4  8  1  0  0  0  0
  4  5  1  0  0  0  0
  5  6  2  0  0  0  0
  5 26  1  0  0  0  0
  6  7  1  0  0  0  0
  6 27  1  0  0  0  0
  7  8  2  0  0  0  0
  7 28  1  0  0  0  0
  9 10  1  0  0  0  0
  9 29  1  0  0  0  0
 10 11  1  0  0  0  0
 10 30  1  0  0  0  0
 10 31  1  0  0  0  0
 11 12  1  0  0  0  0
 11 32  1  0  0  0  0
 11 33  1  0  0  0  0
 12 13  1  0  0  0  0
 13 18  1  0  0  0  0
 13 14  1  0  0  0  0
 13 34  1  0  0  0  0
 14 15  1  0  0  0  0
 14 35  1  0  0  0  0
 14 36  1  0  0  0  0
 15 16  1  0  0  0  0
 15 37  1  0  0  0  0
 15 38  1  0  0  0  0
 16 17  1  0  0  0  0
 16 39  1  0  0  0  0
 16 40  1  0  0  0  0
 17 18  1  0  0  0  0
 17 41  1  0  0  0  0
 17 42  1  0  0  0  0
 18 19  1  0  0  0  0
 18 43  1  0  0  0  0
 19 44  1  0  0  0  0
 19 45  1  0  0  0  0
 19 46  1  0  0  0  0
M  END
> <s_m_source_file>
AV-unprocessed.smi

> <i_m_source_file_index>
3348

> <i_lp_mmshare_version>
43012

> <i_f3d_flags>
0

> <s_epik_input>
bjFbY0hdW2NIXVtjSF1uMVtDSDJdW0NAQEhdKFtDSDNdKVtOSF1bQ0gyXVtDSDJdT1tDQEBIXTJbQ0gyXVtDSDJdW0NIMl1bQ0gyXVtDQEhdMltDSDNd

> <s_epik_cmdline>
J2VwaWtfcHl0aG9uJywgJy1waCcsICc3LjAnLCAnLXRuJywgJzgnLCAnLW1hJywgJzIwMCcsICctbWV0YWxfYmluZGluZycsICctaW1hZScsICc8aW5maWxlLm1hZT4nLCAnLW9tYWUnLCAnPG91dGZpbGUubWFlPic=

> <r_lp_tautomer_probability>
1

> <r_epik_Ionization_Penalty>
2.46945

> <r_epik_Ionization_Penalty_Charging>
0

> <r_epik_Ionization_Penalty_Neutral>
2.46945

> <r_epik_State_Penalty>
2.6322

> <r_epik_Charging_Adjusted_Penalty>
2.6322

> <i_epik_Tot_Q>
0

> <i_epik_Tot_abs_Q>
0

> <r_epik_Metal_State_Penalty>
2.63217

> <b_epik_Metal_Only>
0

> <s_lp_Force_Field>
OPLS_2005

> <r_lp_Energy>
18.1509

> <b_lp_Chiralities_Consistent>
1

> <s_lp_Variant>
AV-unprocessed.smi:3348-11

> <Gold.Version>
5.8.1

> <Gold.Id.Protein>
6NUR|6NUR_protein|mol2

> <Gold.PLP.Fitness>
52.8416

> <Gold.PLP.PLP>
-49.6534

> <Gold.PLP.part.hbond>
-2.6062

> <Gold.PLP.part.metal>
0.0000

> <Gold.PLP.part.buried>
-2.2730

> <Gold.PLP.part.nonpolar>
-43.9759

> <Gold.PLP.part.repulsive>
0.1806

> <Gold.PLP.ligand.clash>
0.0000

> <Gold.PLP.ligand.torsion>
0.5417

> <Gold.PLP.Chemscore.Hbond>
0.3669

> <Gold.PLP.Chemscore.CHOScore>
1.0000

> <Gold.PLP.Chemscore.Metal>
0.0000

> <Gold.Chemscore.Hbonds>
donor molecule, donor type, donor heavy atom, donor atom, acceptor molecule, acceptor atom, score
      P1  H  8011  8017       L1     8  0.37
      L1  C     7    28       P1  8028  0.81

> <Gold.PLP.Chemscore.Internal.Correction>
0.1708

> <Gold.Rescore>
     Score         DG    S(hbond)    S(metal)    S(lipo)     H(rot)  DE(clash)    DE(int)     intcor
     16.76     -17.61       0.01        0.00     141.11       1.72       0.22       0.62       ----

> <Gold.Chemscore.Fitness>
16.7638

> <Gold.Chemscore.DG>
-17.6077

> <Gold.Chemscore.ZeroCoef>
-5.4800

> <Gold.Chemscore.Hbond>
0.0090

> <Gold.Chemscore.Metal>
0.0000

> <Gold.Chemscore.Lipo>
141.1123

> <Gold.Chemscore.Internal_Hbond>
0.0000

> <Gold.Chemscore.DEClash>
0.2199

> <Gold.Chemscore.DEInternal>
0.6241

> <Gold.Chemscore.Rot>
1.7237

> <Gold.Chemscore.Internal.Correction>
   9.000000E+99

> <Gold.Chemscore.Hbonds>
donor molecule, donor type, donor heavy atom, donor atom, acceptor molecule, acceptor atom, score
      P1  H  8011  8017       L1     8  0.03

> <Gold.Chemscore.Hbond.Weighted>
-0.0302

> <Gold.Chemscore.Metal.Weighted>
-0.0000

> <Gold.Chemscore.Lipo.Weighted>
-16.5101

> <Gold.Chemscore.Internal_Hbond.Weighted>
0.0000

> <Gold.Chemscore.DEClash.Weighted>
0.2199

> <Gold.Chemscore.DEInternal.Weighted>
0.6241

> <Gold.Chemscore.Rot.Weighted>
4.4126

> <Gold.Chemscore.Internal.Correction.Weighted>
   9.000000E+99

> <Gold.Protein.RotatedTorsions>
[ 6907 6896 6895 6894 ] final -144.32 input  -60.11 | X-H torsion
[ 7974 7965 7964 7962 ] final -171.33 input  175.53 | X-H torsion
[ 8008 7997 7996 7995 ] final    6.94 input   59.86 | X-H torsion
[ 10167 10162 10161 10158 ] final  121.97 input  -65.29 | X-H torsion
[ 10718 10713 10712 10709 ] final -150.27 input   66.30 | X-H torsion
[ 10763 10752 10751 10750 ] final  159.16 input  -60.55 | X-H torsion
[ 11005 11000 10999 10996 ] final  -91.79 input  -57.11 | X-H torsion

> <Gold.Protein.ActiveResidues>
 VAL166  LYS551  ARG553  GLY616  TRP617  ASP618  TYR619  PRO620  LYS621  CYS622 
 ASP623  PHE694  ASN695  SER759  ASP760  ASP761  ALA762  ILE779  LEU786  VAL792 
 PHE793  MET794  SER795  GLU796  ALA797  LYS798  CYS799  TRP800  GLU811  SER814 

> <Gold.Protein.RotatedAtoms>
  151.1124  133.5163  159.2604 H   0  0  0  0  0  0  0  0  0  0  0  0  # atno 6907 bound_to 6896
  151.1952  135.0419  159.8859 H   0  0  0  0  0  0  0  0  0  0  0  0  # atno 6908 bound_to 6896
  152.5451  134.0960  159.8350 H   0  0  0  0  0  0  0  0  0  0  0  0  # atno 6909 bound_to 6896
  144.7158  140.1938  143.6346 H   0  0  0  0  0  0  0  0  0  0  0  0  # atno 7974 bound_to 7965
  154.7474  140.2760  155.6321 H   0  0  0  0  0  0  0  0  0  0  0  0  # atno 8008 bound_to 7997
  156.2888  140.2685  156.2144 H   0  0  0  0  0  0  0  0  0  0  0  0  # atno 8009 bound_to 7997
  155.0180  140.0371  157.2416 H   0  0  0  0  0  0  0  0  0  0  0  0  # atno 8010 bound_to 7997
  139.5887  144.7017  151.3344 H   0  0  0  0  0  0  0  0  0  0  0  0  # atno 10167 bound_to 10162
  156.4439  130.8135  151.2365 H   0  0  0  0  0  0  0  0  0  0  0  0  # atno 10718 bound_to 10713
  154.2275  135.2779  155.2902 H   0  0  0  0  0  0  0  0  0  0  0  0  # atno 10763 bound_to 10752
  154.5651  135.5635  153.7046 H   0  0  0  0  0  0  0  0  0  0  0  0  # atno 10764 bound_to 10752
  153.0027  135.6307  154.2416 H   0  0  0  0  0  0  0  0  0  0  0  0  # atno 10765 bound_to 10752
  141.1537  133.7778  156.9928 H   0  0  0  0  0  0  0  0  0  0  0  0  # atno 11005 bound_to 11000
  145.8744  139.2289  143.1642 LP  0  0  0  0  0  0  0  0  0  0  0  0  # atno 17320 bound_to 7965
  146.0054  140.8483  142.9997 LP  0  0  0  0  0  0  0  0  0  0  0  0  # atno 17321 bound_to 7965
  140.7154  143.7279  150.7645 LP  0  0  0  0  0  0  0  0  0  0  0  0  # atno 17342 bound_to 10162
  140.0830  143.4950  152.2520 LP  0  0  0  0  0  0  0  0  0  0  0  0  # atno 17343 bound_to 10162
  157.7505  131.0159  150.3524 LP  0  0  0  0  0  0  0  0  0  0  0  0  # atno 17370 bound_to 10713
  156.3888  130.3894  149.7046 LP  0  0  0  0  0  0  0  0  0  0  0  0  # atno 17371 bound_to 10713
  140.0991  134.9546  157.1895 LP  0  0  0  0  0  0  0  0  0  0  0  0  # atno 17394 bound_to 11000
  140.3342  134.2776  155.7223 LP  0  0  0  0  0  0  0  0  0  0  0  0  # atno 17395 bound_to 11000

$$$$
