AV-unprocessed.smi:1060|AV-procd|sdf|4657|dock4
  -GOLD-   22720 3163D 1   1.00000     0.00000
 Structure written by MMmdl.
 37 38  0  0  0  0  0  0  0  0  1 V2000
  145.9772  135.0993  156.4486 O   0  0  0  0  0  0  0  0  0  0  0  0
  147.1123  134.6326  156.5341 C   0  0  0  0  0  0  0  0  0  0  0  0
  147.8530  134.7177  157.8681 C   0  0  0  0  0  0  0  0  0  0  0  0
  148.1130  136.0801  158.1692 O   0  0  0  0  0  0  0  0  0  0  0  0
  148.5359  136.2744  159.5080 C   0  0  0  0  0  0  0  0  0  0  0  0
  147.3146  136.1908  160.4317 C   0  0  1  0  0  0  0  0  0  0  0  0
  147.1725  134.8447  161.1394 C   0  0  0  0  0  0  0  0  0  0  0  0
  146.3471  135.2232  162.3478 C   0  0  0  0  0  0  0  0  0  0  0  0
  146.9274  136.5880  162.7075 C   0  0  0  0  0  0  0  0  0  0  0  0
  147.4239  137.1400  161.4900 O   0  0  0  0  0  0  0  0  0  0  0  0
  147.7998  134.0650  155.5229 N   0  0  0  0  0  0  0  0  0  0  0  0
  147.4006  133.8159  154.1990 C   0  0  0  0  0  0  0  0  0  0  0  0
  146.3692  134.4363  153.5682 C   0  0  0  0  0  0  0  0  0  0  0  0
  146.0012  134.1212  152.1979 C   0  0  0  0  0  0  0  0  0  0  0  0
  144.8094  134.7818  151.5216 C   0  0  0  0  0  0  0  0  0  0  0  0
  143.9073  133.8774  151.1382 F   0  0  0  0  0  0  0  0  0  0  0  0
  144.2121  135.6460  152.3426 F   0  0  0  0  0  0  0  0  0  0  0  0
  145.2138  135.4485  150.4412 F   0  0  0  0  0  0  0  0  0  0  0  0
  146.7176  133.1571  151.5909 C   0  0  0  0  0  0  0  0  0  0  0  0
  147.7792  132.5147  152.2319 N   0  0  0  0  0  0  0  0  0  0  0  0
  148.1713  132.7748  153.4992 C   0  0  0  0  0  0  0  0  0  0  0  0
  149.1143  132.1597  153.9960 O   0  0  0  0  0  0  0  0  0  0  0  0
  148.2730  131.8081  151.7061 H   0  0  0  0  0  0  0  0  0  0  0  0
  147.2393  134.2626  158.6470 H   0  0  0  0  0  0  0  0  0  0  0  0
  148.7881  134.1581  157.8077 H   0  0  0  0  0  0  0  0  0  0  0  0
  149.2512  135.4940  159.7724 H   0  0  0  0  0  0  0  0  0  0  0  0
  149.0387  137.2361  159.6234 H   0  0  0  0  0  0  0  0  0  0  0  0
  146.3999  136.3967  159.8735 H   0  0  0  0  0  0  0  0  0  0  0  0
  146.6987  134.0846  160.5177 H   0  0  0  0  0  0  0  0  0  0  0  0
  148.1471  134.4709  161.4562 H   0  0  0  0  0  0  0  0  0  0  0  0
  145.2973  135.3219  162.0674 H   0  0  0  0  0  0  0  0  0  0  0  0
  146.4178  134.5010  163.1616 H   0  0  0  0  0  0  0  0  0  0  0  0
  146.1887  137.2433  163.1693 H   0  0  0  0  0  0  0  0  0  0  0  0
  147.7619  136.4773  163.4008 H   0  0  0  0  0  0  0  0  0  0  0  0
  148.7511  133.7968  155.7316 H   0  0  0  0  0  0  0  0  0  0  0  0
  145.7752  135.1794  154.0742 H   0  0  0  0  0  0  0  0  0  0  0  0
  146.5351  132.8039  150.5867 H   0  0  0  0  0  0  0  0  0  0  0  0
  1  2  2  0  0  0  0
  2  3  1  0  0  0  0
  2 11  1  0  0  0  0
  3  4  1  0  0  0  0
  3 24  1  0  0  0  0
  3 25  1  0  0  0  0
  4  5  1  0  0  0  0
  5  6  1  0  0  0  0
  5 26  1  0  0  0  0
  5 27  1  0  0  0  0
  6 10  1  0  0  0  0
  6  7  1  0  0  0  0
  6 28  1  0  0  0  0
  7  8  1  0  0  0  0
  7 29  1  0  0  0  0
  7 30  1  0  0  0  0
  8  9  1  0  0  0  0
  8 31  1  0  0  0  0
  8 32  1  0  0  0  0
  9 10  1  0  0  0  0
  9 33  1  0  0  0  0
  9 34  1  0  0  0  0
 11 12  1  0  0  0  0
 11 35  1  0  0  0  0
 12 21  1  0  0  0  0
 12 13  2  0  0  0  0
 13 14  1  0  0  0  0
 13 36  1  0  0  0  0
 14 15  1  0  0  0  0
 14 19  2  0  0  0  0
 15 16  1  0  0  0  0
 15 17  1  0  0  0  0
 15 18  1  0  0  0  0
 19 20  1  0  0  0  0
 19 37  1  0  0  0  0
 20 23  1  0  0  0  0
 20 21  1  0  0  0  0
 21 22  2  0  0  0  0
M  END
> <s_m_source_file>
AV-unprocessed.smi

> <i_m_source_file_index>
1060

> <i_lp_mmshare_version>
43012

> <i_f3d_flags>
0

> <s_epik_input>
Tz1jMVtuSF1bY0hdYyhDKEYpKEYpRilbY0hdYzFbTkhdQyg9TylbQ0gyXU9bQ0gyXVtDQEBIXTJbQ0gyXVtDSDJdW0NIMl1PMg==

> <s_epik_cmdline>
J2VwaWtfcHl0aG9uJywgJy1waCcsICc3LjAnLCAnLXRuJywgJzgnLCAnLW1hJywgJzIwMCcsICctbWV0YWxfYmluZGluZycsICctaW1hZScsICc8aW5maWxlLm1hZT4nLCAnLW9tYWUnLCAnPG91dGZpbGUubWFlPic=

> <r_lp_tautomer_probability>
0.999

> <r_epik_Ionization_Penalty>
0.00950091

> <r_epik_Ionization_Penalty_Charging>
0.00950081

> <r_epik_Ionization_Penalty_Neutral>
1.00143e-07

> <r_epik_State_Penalty>
0.00721819

> <r_epik_Charging_Adjusted_Penalty>
0.016719

> <i_epik_Tot_Q>
0

> <i_epik_Tot_abs_Q>
0

> <r_epik_Metal_State_Penalty>
0.323303

> <b_epik_Metal_Only>
0

> <s_lp_Force_Field>
OPLS_2005

> <r_lp_Energy>
32.1884

> <b_lp_Chiralities_Consistent>
1

> <s_lp_Variant>
AV-unprocessed.smi:1060-2

> <Gold.Version>
5.8.1

> <Gold.Id.Protein>
6NUR|6NUR_protein|mol2

> <Gold.PLP.Fitness>
43.9553

> <Gold.PLP.PLP>
-37.1797

> <Gold.PLP.part.hbond>
-3.0000

> <Gold.PLP.part.metal>
0.0000

> <Gold.PLP.part.buried>
-5.5342

> <Gold.PLP.part.nonpolar>
-28.5267

> <Gold.PLP.part.repulsive>
0.1356

> <Gold.PLP.ligand.clash>
0.0000

> <Gold.PLP.ligand.torsion>
0.8161

> <Gold.PLP.Chemscore.Hbond>
2.7680

> <Gold.PLP.Chemscore.CHOScore>
0.0000

> <Gold.PLP.Chemscore.Metal>
0.0000

> <Gold.Chemscore.Hbonds>
donor molecule, donor type, donor heavy atom, donor atom, acceptor molecule, acceptor atom, score
      L1  H    20    23       P1 10747  1.00
      P1  H  6931  6943       L1    10  0.94
      P1  H  6934  6947       L1    10  0.90

> <Gold.PLP.Chemscore.Internal.Correction>
0.1039

> <Gold.Rescore>
     Score         DG    S(hbond)    S(metal)    S(lipo)     H(rot)  DE(clash)    DE(int)     intcor
     13.59     -15.44       2.44        0.00      58.09       1.95       0.02       1.83       ----

> <Gold.Chemscore.Fitness>
13.5944

> <Gold.Chemscore.DG>
-15.4357

> <Gold.Chemscore.ZeroCoef>
-5.4800

> <Gold.Chemscore.Hbond>
2.4426

> <Gold.Chemscore.Metal>
0.0000

> <Gold.Chemscore.Lipo>
58.0890

> <Gold.Chemscore.Internal_Hbond>
0.0000

> <Gold.Chemscore.DEClash>
0.0155

> <Gold.Chemscore.DEInternal>
1.8258

> <Gold.Chemscore.Rot>
1.9527

> <Gold.Chemscore.Internal.Correction>
   9.000000E+99

> <Gold.Chemscore.Hbonds>
donor molecule, donor type, donor heavy atom, donor atom, acceptor molecule, acceptor atom, score
      L1  H    20    23       P1 10747  1.00
      P1  H  6931  6943       L1    10  0.57
      P1  H  6934  6947       L1    10  0.78

> <Gold.Chemscore.Hbond.Weighted>
-8.1583

> <Gold.Chemscore.Metal.Weighted>
-0.0000

> <Gold.Chemscore.Lipo.Weighted>
-6.7964

> <Gold.Chemscore.Internal_Hbond.Weighted>
0.0000

> <Gold.Chemscore.DEClash.Weighted>
0.0155

> <Gold.Chemscore.DEInternal.Weighted>
1.8258

> <Gold.Chemscore.Rot.Weighted>
4.9990

> <Gold.Chemscore.Internal.Correction.Weighted>
   9.000000E+99

> <Gold.Protein.RotatedTorsions>
[ 6907 6896 6895 6894 ] final   45.74 input  -60.11 | X-H torsion
[ 7974 7965 7964 7962 ] final  -74.97 input  175.53 | X-H torsion
[ 8008 7997 7996 7995 ] final -154.73 input   59.86 | X-H torsion
[ 10167 10162 10161 10158 ] final  155.25 input  -65.29 | X-H torsion
[ 10718 10713 10712 10709 ] final  -54.14 input   66.30 | X-H torsion
[ 10763 10752 10751 10750 ] final  163.13 input  -60.55 | X-H torsion
[ 11005 11000 10999 10996 ] final   90.56 input  -57.11 | X-H torsion

> <Gold.Protein.ActiveResidues>
 VAL166  LYS551  ARG553  GLY616  TRP617  ASP618  TYR619  PRO620  LYS621  CYS622 
 ASP623  PHE694  ASN695  SER759  ASP760  ASP761  ALA762  ILE779  LEU786  VAL792 
 PHE793  MET794  SER795  GLU796  ALA797  LYS798  CYS799  TRP800  GLU811  SER814 

> <Gold.Protein.RotatedAtoms>
  152.2482  134.8160  160.0449 H   0  0  0  0  0  0  0  0  0  0  0  0  # atno 6907 bound_to 6896
  151.8849  133.3498  159.3787 H   0  0  0  0  0  0  0  0  0  0  0  0  # atno 6908 bound_to 6896
  150.7075  134.4908  159.5559 H   0  0  0  0  0  0  0  0  0  0  0  0  # atno 6909 bound_to 6896
  145.6321  140.9335  143.1081 H   0  0  0  0  0  0  0  0  0  0  0  0  # atno 7974 bound_to 7965
  155.6909  140.0755  157.2448 H   0  0  0  0  0  0  0  0  0  0  0  0  # atno 8008 bound_to 7997
  154.4089  140.1665  156.2138 H   0  0  0  0  0  0  0  0  0  0  0  0  # atno 8009 bound_to 7997
  155.9452  140.3381  155.6364 H   0  0  0  0  0  0  0  0  0  0  0  0  # atno 8010 bound_to 7997
  139.4821  144.5115  151.8017 H   0  0  0  0  0  0  0  0  0  0  0  0  # atno 10167 bound_to 10162
  156.1475  130.4152  149.9999 H   0  0  0  0  0  0  0  0  0  0  0  0  # atno 10718 bound_to 10713
  154.2890  135.2761  155.2663 H   0  0  0  0  0  0  0  0  0  0  0  0  # atno 10763 bound_to 10752
  154.5151  135.5772  153.6639 H   0  0  0  0  0  0  0  0  0  0  0  0  # atno 10764 bound_to 10752
  152.9917  135.6190  154.3053 H   0  0  0  0  0  0  0  0  0  0  0  0  # atno 10765 bound_to 10752
  139.8854  134.8621  156.3301 H   0  0  0  0  0  0  0  0  0  0  0  0  # atno 11005 bound_to 11000
  144.7189  139.8098  143.7389 LP  0  0  0  0  0  0  0  0  0  0  0  0  # atno 17320 bound_to 7965
  146.1348  139.4391  143.0146 LP  0  0  0  0  0  0  0  0  0  0  0  0  # atno 17321 bound_to 7965
  140.4619  144.1710  150.5907 LP  0  0  0  0  0  0  0  0  0  0  0  0  # atno 17342 bound_to 10162
  140.4476  143.2500  151.9391 LP  0  0  0  0  0  0  0  0  0  0  0  0  # atno 17343 bound_to 10162
  156.7866  130.9241  151.3646 LP  0  0  0  0  0  0  0  0  0  0  0  0  # atno 17370 bound_to 10713
  157.6629  130.8982  149.9869 LP  0  0  0  0  0  0  0  0  0  0  0  0  # atno 17371 bound_to 10713
  140.9728  133.7316  156.0559 LP  0  0  0  0  0  0  0  0  0  0  0  0  # atno 17394 bound_to 11000
  140.7849  134.3684  157.5479 LP  0  0  0  0  0  0  0  0  0  0  0  0  # atno 17395 bound_to 11000

$$$$
