AV-unprocessed.smi:2171|AV-procd|sdf|8827|dock10
  -GOLD-   2272012 23D 1   1.00000     0.00000
 Structure written by MMmdl.
 39 41  0  0  0  0  0  0  0  0  2 V2000
  150.6700  140.5097  154.3610 O   0  0  0  0  0  0  0  0  0  0  0  0
  151.2287  140.1084  155.3814 C   0  0  0  0  0  0  0  0  0  0  0  0
  152.1571  138.8962  155.3245 C   0  0  0  0  0  0  0  0  0  0  0  0
  151.3906  137.6768  155.1385 N   0  0  0  0  0  0  0  0  0  0  0  0
  150.0537  137.5463  154.8254 C   0  0  0  0  0  0  0  0  0  0  0  0
  149.7868  136.2105  154.7322 C   0  0  0  0  0  0  0  0  0  0  0  0
  151.0399  135.5947  155.0069 C   0  0  0  0  0  0  0  0  0  0  0  0
  151.9987  136.4744  155.2473 N   0  0  0  0  0  0  0  0  0  0  0  0
  151.1003  140.7024  156.5774 N   0  0  0  0  0  0  0  0  0  0  0  0
  150.3748  141.9452  156.8173 C   0  0  1  0  0  0  0  0  0  0  0  0
  149.1663  141.7724  157.7476 C   0  0  0  0  0  0  0  0  0  0  0  0
  149.0630  143.0984  158.5228 C   0  0  0  0  0  0  0  0  0  0  0  0
  150.1833  143.9414  158.0486 N   0  3  1  0  0  0  0  0  0  0  0  0
  150.6641  144.9913  158.9828 C   0  0  0  0  0  0  0  0  0  0  0  0
  151.5714  144.4306  160.0908 C   0  0  0  0  0  0  0  0  0  0  0  0
  152.7238  143.6205  159.4883 C   0  0  0  0  0  0  0  0  0  0  0  0
  152.1605  142.4915  158.6191 C   0  0  0  0  0  0  0  0  0  0  0  0
  151.2175  143.0300  157.5108 C   0  0  1  0  0  0  0  0  0  0  0  0
  152.8751  139.0050  154.5101 H   0  0  0  0  0  0  0  0  0  0  0  0
  152.7282  138.8168  156.2506 H   0  0  0  0  0  0  0  0  0  0  0  0
  149.4128  138.4058  154.6934 H   0  0  0  0  0  0  0  0  0  0  0  0
  148.8403  135.7440  154.5025 H   0  0  0  0  0  0  0  0  0  0  0  0
  151.2796  134.5420  155.0370 H   0  0  0  0  0  0  0  0  0  0  0  0
  151.5973  140.3004  157.3598 H   0  0  0  0  0  0  0  0  0  0  0  0
  150.0114  142.3396  155.8659 H   0  0  0  0  0  0  0  0  0  0  0  0
  148.2571  141.5523  157.1869 H   0  0  0  0  0  0  0  0  0  0  0  0
  149.3261  140.9506  158.4473 H   0  0  0  0  0  0  0  0  0  0  0  0
  148.1138  143.6039  158.3433 H   0  0  0  0  0  0  0  0  0  0  0  0
  149.1423  142.9093  159.5938 H   0  0  0  0  0  0  0  0  0  0  0  0
  151.2242  145.7239  158.4004 H   0  0  0  0  0  0  0  0  0  0  0  0
  149.8135  145.5224  159.4113 H   0  0  0  0  0  0  0  0  0  0  0  0
  151.9680  145.2489  160.6926 H   0  0  0  0  0  0  0  0  0  0  0  0
  150.9940  143.8032  160.7705 H   0  0  0  0  0  0  0  0  0  0  0  0
  153.3649  144.2690  158.8898 H   0  0  0  0  0  0  0  0  0  0  0  0
  153.3480  143.2073  160.2813 H   0  0  0  0  0  0  0  0  0  0  0  0
  152.9859  141.9349  158.1736 H   0  0  0  0  0  0  0  0  0  0  0  0
  151.6280  141.7858  159.2581 H   0  0  0  0  0  0  0  0  0  0  0  0
  151.8156  143.5718  156.7767 H   0  0  0  0  0  0  0  0  0  0  0  0
  149.8138  144.4290  157.2447 H   0  0  0  0  0  0  0  0  0  0  0  0
  1  2  2  0  0  0  0
  2  3  1  0  0  0  0
  2  9  1  0  0  0  0
  3  4  1  0  0  0  0
  3 19  1  0  0  0  0
  3 20  1  0  0  0  0
  4  8  1  0  0  0  0
  4  5  1  0  0  0  0
  5  6  2  0  0  0  0
  5 21  1  0  0  0  0
  6  7  1  0  0  0  0
  6 22  1  0  0  0  0
  7  8  2  0  0  0  0
  7 23  1  0  0  0  0
  9 10  1  0  0  0  0
  9 24  1  0  0  0  0
 10 18  1  0  0  0  0
 10 11  1  0  0  0  0
 10 25  1  0  0  0  0
 11 12  1  0  0  0  0
 11 26  1  0  0  0  0
 11 27  1  0  0  0  0
 12 13  1  0  0  0  0
 12 28  1  0  0  0  0
 12 29  1  0  0  0  0
 13 18  1  0  0  0  0
 13 14  1  0  0  0  0
 13 39  1  0  0  0  0
 14 15  1  0  0  0  0
 14 30  1  0  0  0  0
 14 31  1  0  0  0  0
 15 16  1  0  0  0  0
 15 32  1  0  0  0  0
 15 33  1  0  0  0  0
 16 17  1  0  0  0  0
 16 34  1  0  0  0  0
 16 35  1  0  0  0  0
 17 18  1  0  0  0  0
 17 36  1  0  0  0  0
 17 37  1  0  0  0  0
 18 38  1  0  0  0  0
M  CHG  1  13   1
M  END
> <s_m_source_file>
AV-unprocessed.smi

> <i_m_source_file_index>
2171

> <i_lp_mmshare_version>
43012

> <i_f3d_flags>
0

> <s_epik_input>
bjFbY0hdW2NIXVtjSF1uMVtDSDJdQyg9TylbTkhdW0NASF0oW0NIMl1bQ0gyXTIpW0NAQEhdKE4yMylbQ0gyXVtDSDJdW0NIMl1bQ0gyXTM=

> <s_epik_cmdline>
J2VwaWtfcHl0aG9uJywgJy1waCcsICc3LjAnLCAnLXRuJywgJzgnLCAnLW1hJywgJzIwMCcsICctbWV0YWxfYmluZGluZycsICctaW1hZScsICc8aW5maWxlLm1hZT4nLCAnLW9tYWUnLCAnPG91dGZpbGUubWFlPic=

> <r_lp_tautomer_probability>
1

> <r_epik_Ionization_Penalty>
0.00204179

> <r_epik_Ionization_Penalty_Charging>
0.00203239

> <r_epik_Ionization_Penalty_Neutral>
9.40205e-06

> <r_epik_State_Penalty>
0.00138983

> <r_epik_Charging_Adjusted_Penalty>
0.00342221

> <i_epik_Tot_Q>
1

> <i_epik_Tot_abs_Q>
1

> <r_epik_Metal_State_Penalty>
-0

> <b_epik_Metal_Only>
0

> <s_lp_Force_Field>
OPLS_2005

> <r_lp_Energy>
35.3096

> <b_lp_Chiralities_Consistent>
1

> <s_lp_Variant>
AV-unprocessed.smi:2171-2

> <Gold.Version>
5.8.1

> <Gold.Id.Protein>
6NUR|6NUR_protein|mol2

> <Gold.PLP.Fitness>
47.6961

> <Gold.PLP.PLP>
-36.1450

> <Gold.PLP.part.hbond>
-3.3950

> <Gold.PLP.part.metal>
0.0000

> <Gold.PLP.part.buried>
-3.8722

> <Gold.PLP.part.nonpolar>
-28.6873

> <Gold.PLP.part.repulsive>
0.3335

> <Gold.PLP.ligand.clash>
0.0000

> <Gold.PLP.ligand.torsion>
0.2268

> <Gold.PLP.Chemscore.Hbond>
4.0000

> <Gold.PLP.Chemscore.CHOScore>
0.0000

> <Gold.PLP.Chemscore.Metal>
0.0000

> <Gold.Chemscore.Hbonds>
donor molecule, donor type, donor heavy atom, donor atom, acceptor molecule, acceptor atom, score
      L1  H    13    39       P1  8028  2.00
      P1  H  7989  7998       L1     1  0.52
      P1  H 10752 10763       L1     8  0.61

> <Gold.PLP.Chemscore.Internal.Correction>
0.0047

> <Gold.Rescore>
     Score         DG    S(hbond)    S(metal)    S(lipo)     H(rot)  DE(clash)    DE(int)     intcor
     20.66     -21.35       2.73        0.00      89.24       1.44       0.16       0.52       ----

> <Gold.Chemscore.Fitness>
20.6609

> <Gold.Chemscore.DG>
-21.3453

> <Gold.Chemscore.ZeroCoef>
-5.4800

> <Gold.Chemscore.Hbond>
2.7286

> <Gold.Chemscore.Metal>
0.0000

> <Gold.Chemscore.Lipo>
89.2381

> <Gold.Chemscore.Internal_Hbond>
0.0000

> <Gold.Chemscore.DEClash>
0.1596

> <Gold.Chemscore.DEInternal>
0.5248

> <Gold.Chemscore.Rot>
1.4410

> <Gold.Chemscore.Internal.Correction>
   9.000000E+99

> <Gold.Chemscore.Hbonds>
donor molecule, donor type, donor heavy atom, donor atom, acceptor molecule, acceptor atom, score
      L1  H    13    39       P1  8028  0.30
      P1  H  7989  7998       L1     1  0.33
      P1  H 10752 10763       L1     8  0.06

> <Gold.Chemscore.Hbond.Weighted>
-9.1134

> <Gold.Chemscore.Metal.Weighted>
-0.0000

> <Gold.Chemscore.Lipo.Weighted>
-10.4409

> <Gold.Chemscore.Internal_Hbond.Weighted>
0.0000

> <Gold.Chemscore.DEClash.Weighted>
0.1596

> <Gold.Chemscore.DEInternal.Weighted>
0.5248

> <Gold.Chemscore.Rot.Weighted>
3.6889

> <Gold.Chemscore.Internal.Correction.Weighted>
   9.000000E+99

> <Gold.Protein.RotatedTorsions>
[ 6907 6896 6895 6894 ] final -146.14 input  -60.11 | X-H torsion
[ 7974 7965 7964 7962 ] final -126.04 input  175.53 | X-H torsion
[ 8008 7997 7996 7995 ] final   41.39 input   59.86 | X-H torsion
[ 10167 10162 10161 10158 ] final  -58.58 input  -65.29 | X-H torsion
[ 10718 10713 10712 10709 ] final   85.02 input   66.30 | X-H torsion
[ 10763 10752 10751 10750 ] final   84.08 input  -60.55 | X-H torsion
[ 11005 11000 10999 10996 ] final   -9.62 input  -57.11 | X-H torsion

> <Gold.Protein.ActiveResidues>
 VAL166  LYS551  ARG553  GLY616  TRP617  ASP618  TYR619  PRO620  LYS621  CYS622 
 ASP623  PHE694  ASN695  SER759  ASP760  ASP761  ALA762  ILE779  LEU786  VAL792 
 PHE793  MET794  SER795  GLU796  ALA797  LYS798  CYS799  TRP800  GLU811  SER814 

> <Gold.Protein.RotatedAtoms>
  151.1375  133.4994  159.2597 H   0  0  0  0  0  0  0  0  0  0  0  0  # atno 6907 bound_to 6896
  151.1691  135.0309  159.8754 H   0  0  0  0  0  0  0  0  0  0  0  0  # atno 6908 bound_to 6896
  152.5461  134.1240  159.8464 H   0  0  0  0  0  0  0  0  0  0  0  0  # atno 6909 bound_to 6896
  144.9913  140.7734  143.4552 H   0  0  0  0  0  0  0  0  0  0  0  0  # atno 7974 bound_to 7965
  155.2689  140.3364  155.4267 H   0  0  0  0  0  0  0  0  0  0  0  0  # atno 8008 bound_to 7997
  156.2142  140.1782  156.7669 H   0  0  0  0  0  0  0  0  0  0  0  0  # atno 8009 bound_to 7997
  154.5729  140.0667  156.8975 H   0  0  0  0  0  0  0  0  0  0  0  0  # atno 8010 bound_to 7997
  140.6189  143.2412  151.5530 H   0  0  0  0  0  0  0  0  0  0  0  0  # atno 10167 bound_to 10162
  157.6908  131.0157  150.2760 H   0  0  0  0  0  0  0  0  0  0  0  0  # atno 10718 bound_to 10713
  153.1349  135.4667  154.9406 H   0  0  0  0  0  0  0  0  0  0  0  0  # atno 10763 bound_to 10752
  154.7697  135.3155  154.8217 H   0  0  0  0  0  0  0  0  0  0  0  0  # atno 10764 bound_to 10752
  153.8752  135.6899  153.4825 H   0  0  0  0  0  0  0  0  0  0  0  0  # atno 10765 bound_to 10752
  140.7361  133.8709  155.8930 H   0  0  0  0  0  0  0  0  0  0  0  0  # atno 11005 bound_to 11000
  145.2281  139.2127  143.5057 LP  0  0  0  0  0  0  0  0  0  0  0  0  # atno 17320 bound_to 7965
  146.3432  140.2153  142.8590 LP  0  0  0  0  0  0  0  0  0  0  0  0  # atno 17321 bound_to 7965
  139.5421  144.2618  152.1372 LP  0  0  0  0  0  0  0  0  0  0  0  0  # atno 17342 bound_to 10162
  140.1834  144.4822  150.6516 LP  0  0  0  0  0  0  0  0  0  0  0  0  # atno 17343 bound_to 10162
  156.3314  130.3801  149.7487 LP  0  0  0  0  0  0  0  0  0  0  0  0  # atno 17370 bound_to 10713
  156.5026  130.8135  151.3138 LP  0  0  0  0  0  0  0  0  0  0  0  0  # atno 17371 bound_to 10713
  140.9878  134.1319  157.4436 LP  0  0  0  0  0  0  0  0  0  0  0  0  # atno 17394 bound_to 11000
  139.8816  135.0031  156.6166 LP  0  0  0  0  0  0  0  0  0  0  0  0  # atno 17395 bound_to 11000

$$$$
