AV-unprocessed.smi:1745|AV-procd|sdf|7030|dock9
  -GOLD-   22720 8253D 1   1.00000     0.00000
 Structure written by MMmdl.
 47 49  0  0  0  0  0  0  0  0  1 V2000
  144.6638  136.8977  153.4632 C   0  0  0  0  0  0  0  0  0  0  0  0
  145.5094  137.1509  152.2068 C   0  0  1  0  0  0  0  0  0  0  0  0
  146.8667  137.5125  152.6129 N   0  0  0  0  0  0  0  0  0  0  0  0
  147.1956  138.3815  153.5800 C   0  0  0  0  0  0  0  0  0  0  0  0
  146.3705  138.9953  154.2557 O   0  0  0  0  0  0  0  0  0  0  0  0
  148.5303  138.4724  153.7098 N   0  0  0  0  0  0  0  0  0  0  0  0
  149.2832  139.2489  154.6319 C   0  0  0  0  0  0  0  0  0  0  0  0
  150.6876  139.1423  154.5879 C   0  0  0  0  0  0  0  0  0  0  0  0
  151.4641  139.9041  155.4806 C   0  0  0  0  0  0  0  0  0  0  0  0
  150.8050  140.7616  156.3906 C   0  0  0  0  0  0  0  0  0  0  0  0
  151.5169  141.5419  157.3115 N   0  0  0  0  0  0  0  0  0  0  0  0
  151.2748  142.9716  157.1668 C   0  0  0  0  0  0  0  0  0  0  0  0
  152.1824  143.7591  158.1278 C   0  0  0  0  0  0  0  0  0  0  0  0
  151.9751  143.3033  159.4620 O   0  0  0  0  0  0  0  0  0  0  0  0
  152.2898  141.9214  159.6096 C   0  0  0  0  0  0  0  0  0  0  0  0
  151.3839  141.0855  158.6892 C   0  0  0  0  0  0  0  0  0  0  0  0
  149.4605  140.8828  156.4294 N   0  0  0  0  0  0  0  0  0  0  0  0
  148.7210  140.1486  155.5705 C   0  0  0  0  0  0  0  0  0  0  0  0
  145.5436  135.9202  151.2797 C   0  0  2  0  0  0  0  0  0  0  0  0
  144.1714  135.3903  150.8609 C   0  0  0  0  0  0  0  0  0  0  0  0
  144.4394  133.9303  150.5318 C   0  0  0  0  0  0  0  0  0  0  0  0
  145.7996  133.6453  151.1755 C   0  0  0  0  0  0  0  0  0  0  0  0
  146.0975  134.7988  151.9498 O   0  0  0  0  0  0  0  0  0  0  0  0
  143.6342  136.6531  153.2009 H   0  0  0  0  0  0  0  0  0  0  0  0
  144.6370  137.7805  154.1026 H   0  0  0  0  0  0  0  0  0  0  0  0
  145.0622  136.0707  154.0517 H   0  0  0  0  0  0  0  0  0  0  0  0
  145.0483  137.9761  151.6613 H   0  0  0  0  0  0  0  0  0  0  0  0
  147.6181  137.0603  152.1132 H   0  0  0  0  0  0  0  0  0  0  0  0
  149.0726  137.8572  153.1214 H   0  0  0  0  0  0  0  0  0  0  0  0
  151.1679  138.4798  153.8827 H   0  0  0  0  0  0  0  0  0  0  0  0
  152.5415  139.8267  155.4647 H   0  0  0  0  0  0  0  0  0  0  0  0
  151.4660  143.2765  156.1370 H   0  0  0  0  0  0  0  0  0  0  0  0
  150.2289  143.1944  157.3817 H   0  0  0  0  0  0  0  0  0  0  0  0
  153.2323  143.6457  157.8528 H   0  0  0  0  0  0  0  0  0  0  0  0
  151.9525  144.8233  158.0758 H   0  0  0  0  0  0  0  0  0  0  0  0
  153.3428  141.7507  159.3793 H   0  0  0  0  0  0  0  0  0  0  0  0
  152.1397  141.6312  160.6496 H   0  0  0  0  0  0  0  0  0  0  0  0
  150.3462  141.1768  159.0126 H   0  0  0  0  0  0  0  0  0  0  0  0
  151.6524  140.0306  158.7559 H   0  0  0  0  0  0  0  0  0  0  0  0
  147.6575  140.3141  155.6414 H   0  0  0  0  0  0  0  0  0  0  0  0
  146.1433  136.1304  150.3916 H   0  0  0  0  0  0  0  0  0  0  0  0
  143.4731  135.4539  151.6968 H   0  0  0  0  0  0  0  0  0  0  0  0
  143.7436  135.9420  150.0231 H   0  0  0  0  0  0  0  0  0  0  0  0
  143.6562  133.2881  150.9359 H   0  0  0  0  0  0  0  0  0  0  0  0
  144.4849  133.7673  149.4544 H   0  0  0  0  0  0  0  0  0  0  0  0
  145.7895  132.7501  151.7976 H   0  0  0  0  0  0  0  0  0  0  0  0
  146.5666  133.5191  150.4100 H   0  0  0  0  0  0  0  0  0  0  0  0
  1  2  1  0  0  0  0
  1 24  1  0  0  0  0
  1 25  1  0  0  0  0
  1 26  1  0  0  0  0
  2  3  1  0  0  0  0
  2 19  1  0  0  0  0
  2 27  1  0  0  0  0
  3  4  1  0  0  0  0
  3 28  1  0  0  0  0
  4  5  2  0  0  0  0
  4  6  1  0  0  0  0
  6  7  1  0  0  0  0
  6 29  1  0  0  0  0
  7 18  1  0  0  0  0
  7  8  2  0  0  0  0
  8  9  1  0  0  0  0
  8 30  1  0  0  0  0
  9 10  2  0  0  0  0
  9 31  1  0  0  0  0
 10 11  1  0  0  0  0
 10 17  1  0  0  0  0
 11 16  1  0  0  0  0
 11 12  1  0  0  0  0
 12 13  1  0  0  0  0
 12 32  1  0  0  0  0
 12 33  1  0  0  0  0
 13 14  1  0  0  0  0
 13 34  1  0  0  0  0
 13 35  1  0  0  0  0
 14 15  1  0  0  0  0
 15 16  1  0  0  0  0
 15 36  1  0  0  0  0
 15 37  1  0  0  0  0
 16 38  1  0  0  0  0
 16 39  1  0  0  0  0
 17 18  2  0  0  0  0
 18 40  1  0  0  0  0
 19 23  1  0  0  0  0
 19 20  1  0  0  0  0
 19 41  1  0  0  0  0
 20 21  1  0  0  0  0
 20 42  1  0  0  0  0
 20 43  1  0  0  0  0
 21 22  1  0  0  0  0
 21 44  1  0  0  0  0
 21 45  1  0  0  0  0
 22 23  1  0  0  0  0
 22 46  1  0  0  0  0
 22 47  1  0  0  0  0
M  END
> <s_m_source_file>
AV-unprocessed.smi

> <i_m_source_file_index>
1745

> <i_lp_mmshare_version>
43012

> <i_f3d_flags>
0

> <s_epik_input>
TzFbQ0gyXVtDSDJdW0NIMl1bQ0BIXTFbQ0BIXShbQ0gzXSlbTkhdQyg9TylbTkhdYzJbY0hdW2NIXWMobltjSF0yKU4zW0NIMl1bQ0gyXU9bQ0gyXVtDSDJdMw==

> <s_epik_cmdline>
J2VwaWtfcHl0aG9uJywgJy1waCcsICc3LjAnLCAnLXRuJywgJzgnLCAnLW1hJywgJzIwMCcsICctbWV0YWxfYmluZGluZycsICctaW1hZScsICc8aW5maWxlLm1hZT4nLCAnLW9tYWUnLCAnPG91dGZpbGUubWFlPic=

> <r_lp_tautomer_probability>
1

> <r_epik_Ionization_Penalty>
0.00206005

> <r_epik_Ionization_Penalty_Charging>
0

> <r_epik_Ionization_Penalty_Neutral>
0.00206005

> <r_epik_State_Penalty>
0.00138459

> <r_epik_Charging_Adjusted_Penalty>
0.00138459

> <i_epik_Tot_Q>
0

> <i_epik_Tot_abs_Q>
0

> <r_epik_Metal_State_Penalty>
-0

> <b_epik_Metal_Only>
0

> <s_lp_Force_Field>
OPLS_2005

> <r_lp_Energy>
36.4473

> <b_lp_Chiralities_Consistent>
1

> <s_lp_Variant>
AV-unprocessed.smi:1745-2

> <Gold.Version>
5.8.1

> <Gold.Id.Protein>
6NUR|6NUR_protein|mol2

> <Gold.PLP.Fitness>
43.6766

> <Gold.PLP.PLP>
-38.4178

> <Gold.PLP.part.hbond>
-2.6656

> <Gold.PLP.part.metal>
0.0000

> <Gold.PLP.part.buried>
-4.9034

> <Gold.PLP.part.nonpolar>
-32.2799

> <Gold.PLP.part.repulsive>
0.4366

> <Gold.PLP.ligand.clash>
0.0000

> <Gold.PLP.ligand.torsion>
0.2820

> <Gold.PLP.Chemscore.Hbond>
1.8960

> <Gold.PLP.Chemscore.CHOScore>
0.0000

> <Gold.PLP.Chemscore.Metal>
0.0000

> <Gold.Chemscore.Hbonds>
donor molecule, donor type, donor heavy atom, donor atom, acceptor molecule, acceptor atom, score
      L1  H     3    28       P1  7948  1.00
      L1  H     6    29       P1  7948  0.89

> <Gold.PLP.Chemscore.Internal.Correction>
0.1348

> <Gold.Rescore>
     Score         DG    S(hbond)    S(metal)    S(lipo)     H(rot)  DE(clash)    DE(int)     intcor
     16.57     -19.57       1.87        0.00      97.57       1.40       0.34       2.67       ----

> <Gold.Chemscore.Fitness>
16.5656

> <Gold.Chemscore.DG>
-19.5748

> <Gold.Chemscore.ZeroCoef>
-5.4800

> <Gold.Chemscore.Hbond>
1.8714

> <Gold.Chemscore.Metal>
0.0000

> <Gold.Chemscore.Lipo>
97.5687

> <Gold.Chemscore.Internal_Hbond>
0.0000

> <Gold.Chemscore.DEClash>
0.3431

> <Gold.Chemscore.DEInternal>
2.6661

> <Gold.Chemscore.Rot>
1.3950

> <Gold.Chemscore.Internal.Correction>
   9.000000E+99

> <Gold.Chemscore.Hbonds>
donor molecule, donor type, donor heavy atom, donor atom, acceptor molecule, acceptor atom, score
      L1  H     3    28       P1  7948  0.97
      L1  H     6    29       P1  7948  0.81

> <Gold.Chemscore.Hbond.Weighted>
-6.2505

> <Gold.Chemscore.Metal.Weighted>
-0.0000

> <Gold.Chemscore.Lipo.Weighted>
-11.4155

> <Gold.Chemscore.Internal_Hbond.Weighted>
0.0000

> <Gold.Chemscore.DEClash.Weighted>
0.3431

> <Gold.Chemscore.DEInternal.Weighted>
2.6661

> <Gold.Chemscore.Rot.Weighted>
3.5712

> <Gold.Chemscore.Internal.Correction.Weighted>
   9.000000E+99

> <Gold.Protein.RotatedTorsions>
[ 6907 6896 6895 6894 ] final   -9.22 input  -60.11 | X-H torsion
[ 7974 7965 7964 7962 ] final  -97.85 input  175.53 | X-H torsion
[ 8008 7997 7996 7995 ] final  -88.56 input   59.86 | X-H torsion
[ 10167 10162 10161 10158 ] final   38.14 input  -65.29 | X-H torsion
[ 10718 10713 10712 10709 ] final  156.98 input   66.30 | X-H torsion
[ 10763 10752 10751 10750 ] final   87.46 input  -60.55 | X-H torsion
[ 11005 11000 10999 10996 ] final  140.62 input  -57.11 | X-H torsion

> <Gold.Protein.ActiveResidues>
 VAL166  LYS551  ARG553  GLY616  TRP617  ASP618  TYR619  PRO620  LYS621  CYS622 
 ASP623  PHE694  ASN695  SER759  ASP760  ASP761  ALA762  ILE779  LEU786  VAL792 
 PHE793  MET794  SER795  GLU796  ALA797  LYS798  CYS799  TRP800  GLU811  SER814 

> <Gold.Protein.RotatedAtoms>
  151.4212  135.0998  159.9614 H   0  0  0  0  0  0  0  0  0  0  0  0  # atno 6907 bound_to 6896
  152.4988  133.8705  159.7306 H   0  0  0  0  0  0  0  0  0  0  0  0  # atno 6908 bound_to 6896
  150.9222  133.6809  159.2857 H   0  0  0  0  0  0  0  0  0  0  0  0  # atno 6909 bound_to 6896
  145.3283  140.9436  143.2676 H   0  0  0  0  0  0  0  0  0  0  0  0  # atno 7974 bound_to 7965
  154.6763  140.0552  157.0219 H   0  0  0  0  0  0  0  0  0  0  0  0  # atno 8008 bound_to 7997
  155.1016  140.3229  155.4527 H   0  0  0  0  0  0  0  0  0  0  0  0  # atno 8009 bound_to 7997
  156.2677  140.2030  156.6142 H   0  0  0  0  0  0  0  0  0  0  0  0  # atno 8010 bound_to 7997
  140.3965  144.1781  150.6132 H   0  0  0  0  0  0  0  0  0  0  0  0  # atno 10167 bound_to 10162
  157.1976  131.0669  151.2044 H   0  0  0  0  0  0  0  0  0  0  0  0  # atno 10718 bound_to 10713
  153.1670  135.4543  154.9851 H   0  0  0  0  0  0  0  0  0  0  0  0  # atno 10763 bound_to 10752
  154.7939  135.3230  154.7715 H   0  0  0  0  0  0  0  0  0  0  0  0  # atno 10764 bound_to 10752
  153.8197  135.6948  153.4883 H   0  0  0  0  0  0  0  0  0  0  0  0  # atno 10765 bound_to 10752
  140.0341  134.9338  157.0718 H   0  0  0  0  0  0  0  0  0  0  0  0  # atno 11005 bound_to 11000
  144.8884  139.4807  143.6689 LP  0  0  0  0  0  0  0  0  0  0  0  0  # atno 17320 bound_to 7965
  146.3055  139.7567  142.9059 LP  0  0  0  0  0  0  0  0  0  0  0  0  # atno 17321 bound_to 7965
  140.4785  143.2387  151.8989 LP  0  0  0  0  0  0  0  0  0  0  0  0  # atno 17342 bound_to 10162
  139.4786  144.5295  151.8687 LP  0  0  0  0  0  0  0  0  0  0  0  0  # atno 17343 bound_to 10162
  157.3799  130.7225  149.6623 LP  0  0  0  0  0  0  0  0  0  0  0  0  # atno 17370 bound_to 10713
  155.9704  130.4175  150.4284 LP  0  0  0  0  0  0  0  0  0  0  0  0  # atno 17371 bound_to 10713
  140.4177  134.1913  155.7164 LP  0  0  0  0  0  0  0  0  0  0  0  0  # atno 17394 bound_to 11000
  141.1847  133.8338  157.1130 LP  0  0  0  0  0  0  0  0  0  0  0  0  # atno 17395 bound_to 11000

$$$$
