AV-unprocessed.smi:1826|AV-procd|sdf|7416|dock1
  -GOLD-   22720 9 93D 1   1.00000     0.00000
 Structure written by MMmdl.
 39 41  0  0  0  0  0  0  0  0  1 V2000
  151.9795  136.8857  156.1537 O   0  0  0  0  0  0  0  0  0  0  0  0
  151.8168  138.0748  155.4106 C   0  0  0  0  0  0  0  0  0  0  0  0
  151.7262  139.2916  156.2795 C   0  0  0  0  0  0  0  0  0  0  0  0
  152.6877  139.6098  157.1476 N   0  0  0  0  0  0  0  0  0  0  0  0
  152.2055  140.7685  157.7243 C   0  0  0  0  0  0  0  0  0  0  0  0
  152.7628  141.5988  158.7230 C   0  0  0  0  0  0  0  0  0  0  0  0
  152.0747  142.7496  159.1602 C   0  0  0  0  0  0  0  0  0  0  0  0
  150.8222  143.0860  158.6069 C   0  0  0  0  0  0  0  0  0  0  0  0
  150.2490  142.2723  157.6109 C   0  0  0  0  0  0  0  0  0  0  0  0
  150.9403  141.1252  157.1777 C   0  0  0  0  0  0  0  0  0  0  0  0
  150.6655  140.1375  156.2379 N   0  0  0  0  0  0  0  0  0  0  0  0
  149.4727  140.0609  155.4045 C   0  0  0  0  0  0  0  0  0  0  0  0
  149.2627  141.3286  154.5524 C   0  0  1  0  0  0  0  0  0  0  0  0
  149.3638  141.0117  153.1774 O   0  0  0  0  0  0  0  0  0  0  0  0
  147.9451  142.0093  154.8883 C   0  0  0  0  0  0  0  0  0  0  0  0
  147.5533  142.1639  156.2346 C   0  0  0  0  0  0  0  0  0  0  0  0
  146.3318  142.7893  156.5512 C   0  0  0  0  0  0  0  0  0  0  0  0
  145.4866  143.2676  155.5276 C   0  0  0  0  0  0  0  0  0  0  0  0
  144.1695  143.9369  155.8918 C   0  0  0  0  0  0  0  0  0  0  0  0
  143.5270  144.3878  154.8139 F   0  0  0  0  0  0  0  0  0  0  0  0
  143.3871  143.0580  156.5173 F   0  0  0  0  0  0  0  0  0  0  0  0
  144.3952  144.9672  156.7071 F   0  0  0  0  0  0  0  0  0  0  0  0
  145.8757  143.1051  154.1797 C   0  0  0  0  0  0  0  0  0  0  0  0
  147.0972  142.4800  153.8626 C   0  0  0  0  0  0  0  0  0  0  0  0
  151.3435  136.8802  156.8524 H   0  0  0  0  0  0  0  0  0  0  0  0
  152.6637  138.1794  154.7314 H   0  0  0  0  0  0  0  0  0  0  0  0
  150.9258  137.9958  154.7881 H   0  0  0  0  0  0  0  0  0  0  0  0
  153.7214  141.3495  159.1534 H   0  0  0  0  0  0  0  0  0  0  0  0
  152.5098  143.3770  159.9243 H   0  0  0  0  0  0  0  0  0  0  0  0
  150.3016  143.9690  158.9478 H   0  0  0  0  0  0  0  0  0  0  0  0
  149.2899  142.5265  157.1847 H   0  0  0  0  0  0  0  0  0  0  0  0
  149.5212  139.1747  154.7723 H   0  0  0  0  0  0  0  0  0  0  0  0
  148.6155  139.9127  156.0626 H   0  0  0  0  0  0  0  0  0  0  0  0
  150.0704  142.0301  154.7657 H   0  0  0  0  0  0  0  0  0  0  0  0
  148.4998  140.8072  152.8535 H   0  0  0  0  0  0  0  0  0  0  0  0
  148.1871  141.8025  157.0311 H   0  0  0  0  0  0  0  0  0  0  0  0
  146.0414  142.9012  157.5856 H   0  0  0  0  0  0  0  0  0  0  0  0
  145.2418  143.4557  153.3790 H   0  0  0  0  0  0  0  0  0  0  0  0
  147.3802  142.3601  152.8270 H   0  0  0  0  0  0  0  0  0  0  0  0
  1  2  1  0  0  0  0
  1 25  1  0  0  0  0
  2  3  1  0  0  0  0
  2 26  1  0  0  0  0
  2 27  1  0  0  0  0
  3 11  1  0  0  0  0
  3  4  2  0  0  0  0
  4  5  1  0  0  0  0
  5 10  2  0  0  0  0
  5  6  1  0  0  0  0
  6  7  2  0  0  0  0
  6 28  1  0  0  0  0
  7  8  1  0  0  0  0
  7 29  1  0  0  0  0
  8  9  2  0  0  0  0
  8 30  1  0  0  0  0
  9 10  1  0  0  0  0
  9 31  1  0  0  0  0
 10 11  1  0  0  0  0
 11 12  1  0  0  0  0
 12 13  1  0  0  0  0
 12 32  1  0  0  0  0
 12 33  1  0  0  0  0
 13 14  1  0  0  0  0
 13 15  1  0  0  0  0
 13 34  1  0  0  0  0
 14 35  1  0  0  0  0
 15 24  1  0  0  0  0
 15 16  2  0  0  0  0
 16 17  1  0  0  0  0
 16 36  1  0  0  0  0
 17 18  2  0  0  0  0
 17 37  1  0  0  0  0
 18 19  1  0  0  0  0
 18 23  1  0  0  0  0
 19 20  1  0  0  0  0
 19 21  1  0  0  0  0
 19 22  1  0  0  0  0
 23 24  2  0  0  0  0
 23 38  1  0  0  0  0
 24 39  1  0  0  0  0
M  END
> <s_m_source_file>
AV-unprocessed.smi

> <i_m_source_file_index>
1826

> <i_lp_mmshare_version>
43012

> <i_f3d_flags>
0

> <s_epik_input>
W2NIXTFbY0hdW2NIXVtjSF1jKGMxMiluKGMobjIpW0NIMl1bT0hdKVtDSDJdW0NASF0oW09IXSljM1tjSF1bY0hdYyhDKEYpKEYpRilbY0hdW2NIXTM=

> <s_epik_cmdline>
J2VwaWtfcHl0aG9uJywgJy1waCcsICc3LjAnLCAnLXRuJywgJzgnLCAnLW1hJywgJzIwMCcsICctbWV0YWxfYmluZGluZycsICctaW1hZScsICc8aW5maWxlLm1hZT4nLCAnLW9tYWUnLCAnPG91dGZpbGUubWFlPic=

> <r_epik_Ionization_Penalty>
0.0634718

> <r_epik_Ionization_Penalty_Charging>
0

> <r_epik_Ionization_Penalty_Neutral>
0.0634718

> <r_epik_State_Penalty>
0.0551572

> <r_epik_Charging_Adjusted_Penalty>
0.0551572

> <i_epik_Tot_Q>
0

> <i_epik_Tot_abs_Q>
0

> <r_epik_Metal_State_Penalty>
5.78034e-05

> <b_epik_Metal_Only>
0

> <s_lp_Force_Field>
OPLS_2005

> <r_lp_Energy>
14.1967

> <b_lp_Chiralities_Consistent>
1

> <s_lp_Variant>
AV-unprocessed.smi:1826-2

> <Gold.Version>
5.8.1

> <Gold.Id.Protein>
6NUR|6NUR_protein|mol2

> <Gold.PLP.Fitness>
49.7340

> <Gold.PLP.PLP>
-42.7567

> <Gold.PLP.part.hbond>
-4.2545

> <Gold.PLP.part.metal>
0.0000

> <Gold.PLP.part.buried>
-4.8109

> <Gold.PLP.part.nonpolar>
-34.2130

> <Gold.PLP.part.repulsive>
0.0000

> <Gold.PLP.ligand.clash>
0.0000

> <Gold.PLP.ligand.torsion>
1.1355

> <Gold.PLP.Chemscore.Hbond>
3.0260

> <Gold.PLP.Chemscore.CHOScore>
0.0000

> <Gold.PLP.Chemscore.Metal>
0.0000

> <Gold.Chemscore.Hbonds>
donor molecule, donor type, donor heavy atom, donor atom, acceptor molecule, acceptor atom, score
      P1  H  7989  7998       L1    14  0.03
      P1  H  7997  8009       L1     4  1.00
      P1  H  8011  8017       L1    14  1.00
      P1  H 10752 10765       L1     1  0.76

> <Gold.PLP.Chemscore.Internal.Correction>
0.1703

> <Gold.Rescore>
     Score         DG    S(hbond)    S(metal)    S(lipo)     H(rot)  DE(clash)    DE(int)     intcor
     15.63     -16.94       2.36        0.00      94.26       2.91       0.06       1.25       ----

> <Gold.Chemscore.Fitness>
15.6320

> <Gold.Chemscore.DG>
-16.9393

> <Gold.Chemscore.ZeroCoef>
-5.4800

> <Gold.Chemscore.Hbond>
2.3624

> <Gold.Chemscore.Metal>
0.0000

> <Gold.Chemscore.Lipo>
94.2649

> <Gold.Chemscore.Internal_Hbond>
0.0000

> <Gold.Chemscore.DEClash>
0.0557

> <Gold.Chemscore.DEInternal>
1.2516

> <Gold.Chemscore.Rot>
2.9141

> <Gold.Chemscore.Internal.Correction>
   9.000000E+99

> <Gold.Chemscore.Hbonds>
donor molecule, donor type, donor heavy atom, donor atom, acceptor molecule, acceptor atom, score
      P1  H  7997  8009       L1     4  0.35
      P1  H  8011  8017       L1    14  0.31
      P1  H 10752 10765       L1     1  0.53

> <Gold.Chemscore.Hbond.Weighted>
-7.8903

> <Gold.Chemscore.Metal.Weighted>
-0.0000

> <Gold.Chemscore.Lipo.Weighted>
-11.0290

> <Gold.Chemscore.Internal_Hbond.Weighted>
0.0000

> <Gold.Chemscore.DEClash.Weighted>
0.0557

> <Gold.Chemscore.DEInternal.Weighted>
1.2516

> <Gold.Chemscore.Rot.Weighted>
7.4600

> <Gold.Chemscore.Internal.Correction.Weighted>
   9.000000E+99

> <Gold.Protein.RotatedTorsions>
[ 6907 6896 6895 6894 ] final  174.12 input  -60.11 | X-H torsion
[ 7974 7965 7964 7962 ] final   55.41 input  175.53 | X-H torsion
[ 8008 7997 7996 7995 ] final  176.89 input   59.86 | X-H torsion
[ 10167 10162 10161 10158 ] final   55.99 input  -65.29 | X-H torsion
[ 10718 10713 10712 10709 ] final  172.49 input   66.30 | X-H torsion
[ 10763 10752 10751 10750 ] final -152.49 input  -60.55 | X-H torsion
[ 11005 11000 10999 10996 ] final -105.42 input  -57.11 | X-H torsion

> <Gold.Protein.ActiveResidues>
 VAL166  LYS551  ARG553  GLY616  TRP617  ASP618  TYR619  PRO620  LYS621  CYS622 
 ASP623  PHE694  ASN695  SER759  ASP760  ASP761  ALA762  ILE779  LEU786  VAL792 
 PHE793  MET794  SER795  GLU796  ALA797  LYS798  CYS799  TRP800  GLU811  SER814 

> <Gold.Protein.RotatedAtoms>
  151.7574  133.3331  159.3407 H   0  0  0  0  0  0  0  0  0  0  0  0  # atno 6907 bound_to 6896
  150.7511  134.6137  159.6109 H   0  0  0  0  0  0  0  0  0  0  0  0  # atno 6908 bound_to 6896
  152.3428  134.7113  160.0310 H   0  0  0  0  0  0  0  0  0  0  0  0  # atno 6909 bound_to 6896
  145.9507  139.3969  143.0308 H   0  0  0  0  0  0  0  0  0  0  0  0  # atno 7974 bound_to 7965
  156.0716  140.1372  156.9822 H   0  0  0  0  0  0  0  0  0  0  0  0  # atno 8008 bound_to 7997
  154.4535  140.0970  156.6739 H   0  0  0  0  0  0  0  0  0  0  0  0  # atno 8009 bound_to 7997
  155.5219  140.3456  155.4411 H   0  0  0  0  0  0  0  0  0  0  0  0  # atno 8010 bound_to 7997
  140.2135  144.3864  150.6479 H   0  0  0  0  0  0  0  0  0  0  0  0  # atno 10167 bound_to 10162
  156.9782  131.0111  151.2888 H   0  0  0  0  0  0  0  0  0  0  0  0  # atno 10718 bound_to 10713
  154.7990  135.3235  154.7596 H   0  0  0  0  0  0  0  0  0  0  0  0  # atno 10763 bound_to 10752
  153.8268  135.6883  153.4824 H   0  0  0  0  0  0  0  0  0  0  0  0  # atno 10764 bound_to 10752
  153.1697  135.4628  154.9828 H   0  0  0  0  0  0  0  0  0  0  0  0  # atno 10765 bound_to 10752
  141.1054  133.8807  157.1732 H   0  0  0  0  0  0  0  0  0  0  0  0  # atno 11005 bound_to 11000
  145.8175  140.9695  143.0916 LP  0  0  0  0  0  0  0  0  0  0  0  0  # atno 17320 bound_to 7965
  144.6795  140.0000  143.7484 LP  0  0  0  0  0  0  0  0  0  0  0  0  # atno 17321 bound_to 7965
  140.6306  143.2187  151.6503 LP  0  0  0  0  0  0  0  0  0  0  0  0  # atno 17342 bound_to 10162
  139.5171  144.3326  152.0812 LP  0  0  0  0  0  0  0  0  0  0  0  0  # atno 17343 bound_to 10162
  157.5545  130.8204  149.8186 LP  0  0  0  0  0  0  0  0  0  0  0  0  # atno 17370 bound_to 10713
  156.0255  130.3781  150.1836 LP  0  0  0  0  0  0  0  0  0  0  0  0  # atno 17371 bound_to 10713
  139.9922  135.0060  157.0001 LP  0  0  0  0  0  0  0  0  0  0  0  0  # atno 17394 bound_to 11000
  140.4916  134.1188  155.7233 LP  0  0  0  0  0  0  0  0  0  0  0  0  # atno 17395 bound_to 11000

$$$$
