AV-unprocessed.smi:703|AV-procd|sdf|3439|dock8
  -GOLD-   22720 0423D 1   1.00000     0.00000
 Structure written by MMmdl.
 37 38  0  0  0  0  0  0  0  0  3 V2000
  145.7467  134.5793  151.4676 C   0  0  0  0  0  0  0  0  0  0  0  0
  146.6798  133.5089  152.0496 C   0  0  0  0  0  0  0  0  0  0  0  0
  147.5824  134.0576  153.0898 N   0  3  2  0  0  0  0  0  0  0  0  0
  148.6642  133.1342  153.5100 C   0  0  0  0  0  0  0  0  0  0  0  0
  148.6740  133.1242  155.0478 C   0  0  1  0  0  0  0  0  0  0  0  0
  150.0823  132.9441  155.6481 C   0  0  0  0  0  0  0  0  0  0  0  0
  147.9543  134.4287  155.4217 C   0  0  2  0  0  0  0  0  0  0  0  0
  147.3462  134.3417  156.7399 N   0  5  0  0  0  0  0  0  0  0  0  0
  147.8874  135.2857  157.9433 S   0  0  0  0  0  0  0  0  0  0  0  0
  149.2434  134.9076  158.3725 O   0  0  0  0  0  0  0  0  0  0  0  0
  147.6367  136.7159  157.6979 O   0  0  0  0  0  0  0  0  0  0  0  0
  146.7621  134.7781  159.3177 C   0  0  0  0  0  0  0  0  0  0  0  0
  147.1265  135.4886  160.5920 C   0  0  0  0  0  0  0  0  0  0  0  0
  147.2592  134.9443  161.8998 C   0  0  0  0  0  0  0  0  0  0  0  0
  147.6006  136.0240  162.6618 C   0  0  0  0  0  0  0  0  0  0  0  0
  147.6662  137.1433  161.8979 O   0  0  0  0  0  0  0  0  0  0  0  0
  147.3570  136.7926  160.5790 N   0  0  0  0  0  0  0  0  0  0  0  0
  146.9066  134.5427  154.3124 C   0  0  0  0  0  0  0  0  0  0  0  0
  145.1330  134.1619  150.6692 H   0  0  0  0  0  0  0  0  0  0  0  0
  146.3137  135.4115  151.0493 H   0  0  0  0  0  0  0  0  0  0  0  0
  145.0708  134.9785  152.2244 H   0  0  0  0  0  0  0  0  0  0  0  0
  146.0999  132.6806  152.4598 H   0  0  0  0  0  0  0  0  0  0  0  0
  147.2873  133.0986  151.2419 H   0  0  0  0  0  0  0  0  0  0  0  0
  148.5203  132.1245  153.1219 H   0  0  0  0  0  0  0  0  0  0  0  0
  149.6066  133.5044  153.1013 H   0  0  0  0  0  0  0  0  0  0  0  0
  148.0555  132.2834  155.3695 H   0  0  0  0  0  0  0  0  0  0  0  0
  150.7652  133.7417  155.3498 H   0  0  0  0  0  0  0  0  0  0  0  0
  150.5202  132.0031  155.3146 H   0  0  0  0  0  0  0  0  0  0  0  0
  150.0576  132.9162  156.7390 H   0  0  0  0  0  0  0  0  0  0  0  0
  148.6571  135.2589  155.3363 H   0  0  0  0  0  0  0  0  0  0  0  0
  145.7309  134.9684  159.0196 H   0  0  0  0  0  0  0  0  0  0  0  0
  146.8696  133.7017  159.4482 H   0  0  0  0  0  0  0  0  0  0  0  0
  147.1312  133.9225  162.2245 H   0  0  0  0  0  0  0  0  0  0  0  0
  147.8177  136.1524  163.7118 H   0  0  0  0  0  0  0  0  0  0  0  0
  146.5454  135.5637  154.1847 H   0  0  0  0  0  0  0  0  0  0  0  0
  146.0472  133.9059  154.5333 H   0  0  0  0  0  0  0  0  0  0  0  0
  148.0492  134.8589  152.6901 H   0  0  0  0  0  0  0  0  0  0  0  0
  1  2  1  0  0  0  0
  1 19  1  0  0  0  0
  1 20  1  0  0  0  0
  1 21  1  0  0  0  0
  2  3  1  0  0  0  0
  2 22  1  0  0  0  0
  2 23  1  0  0  0  0
  3 18  1  0  0  0  0
  3  4  1  0  0  0  0
  3 37  1  0  0  0  0
  4  5  1  0  0  0  0
  4 24  1  0  0  0  0
  4 25  1  0  0  0  0
  5  6  1  0  0  0  0
  5  7  1  0  0  0  0
  5 26  1  0  0  0  0
  6 27  1  0  0  0  0
  6 28  1  0  0  0  0
  6 29  1  0  0  0  0
  7  8  1  0  0  0  0
  7 18  1  0  0  0  0
  7 30  1  0  0  0  0
  8  9  1  0  0  0  0
  9 10  2  0  0  0  0
  9 11  2  0  0  0  0
  9 12  1  0  0  0  0
 12 13  1  0  0  0  0
 12 31  1  0  0  0  0
 12 32  1  0  0  0  0
 13 17  2  0  0  0  0
 13 14  1  0  0  0  0
 14 15  2  0  0  0  0
 14 33  1  0  0  0  0
 15 16  1  0  0  0  0
 15 34  1  0  0  0  0
 16 17  1  0  0  0  0
 18 35  1  0  0  0  0
 18 36  1  0  0  0  0
M  CHG  1   3   1
M  CHG  1   8  -1
M  END
> <s_m_source_file>
AV-unprocessed.smi

> <i_m_source_file_index>
703

> <i_lp_mmshare_version>
43012

> <i_f3d_flags>
0

> <s_epik_input>
W0NIM11bQ0gyXU4xW0NIMl1bQ0BASF0oW0NIM10pW0NASF0oW0NIMl0xKVtOSF1TKD1PKSg9TylbQ0gyXWMyW2NIXVtjSF1vbjI=

> <s_epik_cmdline>
J2VwaWtfcHl0aG9uJywgJy1waCcsICc3LjAnLCAnLXRuJywgJzgnLCAnLW1hJywgJzIwMCcsICctbWV0YWxfYmluZGluZycsICctaW1hZScsICc8aW5maWxlLm1hZT4nLCAnLW9tYWUnLCAnPG91dGZpbGUubWFlPic=

> <r_epik_Ionization_Penalty>
3.62494

> <r_epik_Ionization_Penalty_Charging>
3.62494

> <r_epik_Ionization_Penalty_Neutral>
2.0321e-10

> <r_epik_State_Penalty>
3.62558

> <r_epik_Charging_Adjusted_Penalty>
7.25052

> <i_epik_Tot_Q>
0

> <i_epik_Tot_abs_Q>
2

> <r_epik_Metal_State_Penalty>
0.530836

> <b_epik_Metal_Only>
1

> <s_lp_Force_Field>
OPLS_2005

> <r_lp_Energy>
15.0444

> <b_lp_Chiralities_Consistent>
1

> <s_lp_Variant>
AV-unprocessed.smi:703-14

> <Gold.Version>
5.8.1

> <Gold.Id.Protein>
6NUR|6NUR_protein|mol2

> <Gold.PLP.Fitness>
40.4804

> <Gold.PLP.PLP>
-29.3964

> <Gold.PLP.part.hbond>
-4.3735

> <Gold.PLP.part.metal>
0.0000

> <Gold.PLP.part.buried>
-3.8461

> <Gold.PLP.part.nonpolar>
-20.8684

> <Gold.PLP.part.repulsive>
0.0000

> <Gold.PLP.ligand.clash>
0.0000

> <Gold.PLP.ligand.torsion>
0.9373

> <Gold.PLP.Chemscore.Hbond>
3.9760

> <Gold.PLP.Chemscore.CHOScore>
0.0000

> <Gold.PLP.Chemscore.Metal>
0.0000

> <Gold.Chemscore.Hbonds>
donor molecule, donor type, donor heavy atom, donor atom, acceptor molecule, acceptor atom, score
      L1  H     3    37       P1  7948  2.00
      P1  H  6896  6908       L1    10  1.00
      P1  H  6931  6943       L1    16  1.00

> <Gold.PLP.Chemscore.Internal.Correction>
1.0306

> <Gold.Rescore>
     Score         DG    S(hbond)    S(metal)    S(lipo)     H(rot)  DE(clash)    DE(int)     intcor
     14.90     -17.07       2.67        0.00      58.64       1.63       0.03       2.13       ----

> <Gold.Chemscore.Fitness>
14.9043

> <Gold.Chemscore.DG>
-17.0683

> <Gold.Chemscore.ZeroCoef>
-5.4800

> <Gold.Chemscore.Hbond>
2.6677

> <Gold.Chemscore.Metal>
0.0000

> <Gold.Chemscore.Lipo>
58.6377

> <Gold.Chemscore.Internal_Hbond>
0.0000

> <Gold.Chemscore.DEClash>
0.0300

> <Gold.Chemscore.DEInternal>
2.1340

> <Gold.Chemscore.Rot>
1.6338

> <Gold.Chemscore.Internal.Correction>
   9.000000E+99

> <Gold.Chemscore.Hbonds>
donor molecule, donor type, donor heavy atom, donor atom, acceptor molecule, acceptor atom, score
      L1  H     3    37       P1  7948  0.82
      P1  H  6896  6908       L1    10  1.00
      P1  H  6931  6943       L1    16  0.70

> <Gold.Chemscore.Hbond.Weighted>
-8.9102

> <Gold.Chemscore.Metal.Weighted>
-0.0000

> <Gold.Chemscore.Lipo.Weighted>
-6.8606

> <Gold.Chemscore.Internal_Hbond.Weighted>
0.0000

> <Gold.Chemscore.DEClash.Weighted>
0.0300

> <Gold.Chemscore.DEInternal.Weighted>
2.1340

> <Gold.Chemscore.Rot.Weighted>
4.1825

> <Gold.Chemscore.Internal.Correction.Weighted>
   9.000000E+99

> <Gold.Protein.RotatedTorsions>
[ 6907 6896 6895 6894 ] final  167.78 input  -60.11 | X-H torsion
[ 7974 7965 7964 7962 ] final -111.38 input  175.53 | X-H torsion
[ 8008 7997 7996 7995 ] final  111.89 input   59.86 | X-H torsion
[ 10167 10162 10161 10158 ] final -120.29 input  -65.29 | X-H torsion
[ 10718 10713 10712 10709 ] final  160.42 input   66.30 | X-H torsion
[ 10763 10752 10751 10750 ] final  -71.81 input  -60.55 | X-H torsion
[ 11005 11000 10999 10996 ] final  103.17 input  -57.11 | X-H torsion

> <Gold.Protein.ActiveResidues>
 VAL166  LYS551  ARG553  GLY616  TRP617  ASP618  TYR619  PRO620  LYS621  CYS622 
 ASP623  PHE694  ASN695  SER759  ASP760  ASP761  ALA762  ILE779  LEU786  VAL792 
 PHE793  MET794  SER795  GLU796  ALA797  LYS798  CYS799  TRP800  GLU811  SER814 

> <Gold.Protein.RotatedAtoms>
  151.8580  133.3452  159.3694 H   0  0  0  0  0  0  0  0  0  0  0  0  # atno 6907 bound_to 6896
  150.7187  134.5234  159.5674 H   0  0  0  0  0  0  0  0  0  0  0  0  # atno 6908 bound_to 6896
  152.2742  134.7900  160.0459 H   0  0  0  0  0  0  0  0  0  0  0  0  # atno 6909 bound_to 6896
  145.1567  140.8857  143.3614 H   0  0  0  0  0  0  0  0  0  0  0  0  # atno 7974 bound_to 7965
  156.2155  140.3010  155.9830 H   0  0  0  0  0  0  0  0  0  0  0  0  # atno 8008 bound_to 7997
  155.2616  140.0430  157.3015 H   0  0  0  0  0  0  0  0  0  0  0  0  # atno 8009 bound_to 7997
  154.5762  140.2362  155.8128 H   0  0  0  0  0  0  0  0  0  0  0  0  # atno 8010 bound_to 7997
  140.0374  143.5188  152.2147 H   0  0  0  0  0  0  0  0  0  0  0  0  # atno 10167 bound_to 10162
  157.1506  131.0563  151.2282 H   0  0  0  0  0  0  0  0  0  0  0  0  # atno 10718 bound_to 10713
  154.4369  135.5950  153.6104 H   0  0  0  0  0  0  0  0  0  0  0  0  # atno 10763 bound_to 10752
  152.9802  135.5988  154.3770 H   0  0  0  0  0  0  0  0  0  0  0  0  # atno 10764 bound_to 10752
  154.3615  135.2841  155.2296 H   0  0  0  0  0  0  0  0  0  0  0  0  # atno 10765 bound_to 10752
  139.8782  134.9253  156.5169 H   0  0  0  0  0  0  0  0  0  0  0  0  # atno 11005 bound_to 11000
  145.0373  139.3289  143.5994 LP  0  0  0  0  0  0  0  0  0  0  0  0  # atno 17320 bound_to 7965
  146.3488  139.9734  142.8704 LP  0  0  0  0  0  0  0  0  0  0  0  0  # atno 17321 bound_to 7965
  139.6036  144.7590  151.3114 LP  0  0  0  0  0  0  0  0  0  0  0  0  # atno 17342 bound_to 10162
  140.7275  143.6960  150.7883 LP  0  0  0  0  0  0  0  0  0  0  0  0  # atno 17343 bound_to 10162
  157.4224  130.7445  149.6924 LP  0  0  0  0  0  0  0  0  0  0  0  0  # atno 17370 bound_to 10713
  155.9771  130.4067  150.3733 LP  0  0  0  0  0  0  0  0  0  0  0  0  # atno 17371 bound_to 10713
  140.8479  133.8154  155.9139 LP  0  0  0  0  0  0  0  0  0  0  0  0  # atno 17394 bound_to 11000
  140.9173  134.2186  157.4949 LP  0  0  0  0  0  0  0  0  0  0  0  0  # atno 17395 bound_to 11000

$$$$
