AV-unprocessed.smi:159|AV-procd|sdf|1339|dock10
  -GOLD-   2262019 33D 1   1.00000     0.00000
 Structure written by MMmdl.
 28 29  0  0  0  0  0  0  0  0  1 V2000
  150.1759  139.3440  153.9038 N   0  0  0  0  0  0  0  0  0  0  0  0
  150.5456  140.0600  154.9749 C   0  0  0  0  0  0  0  0  0  0  0  0
  149.9405  141.3463  155.2380 C   0  0  0  0  0  0  0  0  0  0  0  0
  150.3627  142.0050  156.3396 C   0  0  0  0  0  0  0  0  0  0  0  0
  151.3233  141.4801  157.1930 N   0  0  0  0  0  0  0  0  0  0  0  0
  151.7803  142.2426  158.4167 C   0  0  1  0  0  0  0  0  0  0  0  0
  152.4195  143.5752  158.0096 C   0  0  0  0  0  0  0  0  0  0  0  0
  151.3253  144.5661  158.3458 C   0  0  0  0  0  0  0  0  0  0  0  0
  150.6645  143.9099  159.5561 C   0  0  1  0  0  0  0  0  0  0  0  0
  149.2305  144.3977  159.8082 C   0  0  0  0  0  0  0  0  0  0  0  0
  149.2022  145.8076  159.8688 O   0  0  0  0  0  0  0  0  0  0  0  0
  150.6667  142.5281  159.2122 O   0  0  0  0  0  0  0  0  0  0  0  0
  151.9137  140.2276  156.8965 C   0  0  0  0  0  0  0  0  0  0  0  0
  152.7969  139.7403  157.6014 O   0  0  0  0  0  0  0  0  0  0  0  0
  151.4708  139.5727  155.7785 N   0  0  0  0  0  0  0  0  0  0  0  0
  152.4522  141.5894  158.9757 H   0  0  0  0  0  0  0  0  0  0  0  0
  151.2941  144.0667  160.4343 H   0  0  0  0  0  0  0  0  0  0  0  0
  150.6025  138.4473  153.7208 H   0  0  0  0  0  0  0  0  0  0  0  0
  149.4720  139.7074  153.2774 H   0  0  0  0  0  0  0  0  0  0  0  0
  149.1844  141.7888  154.6053 H   0  0  0  0  0  0  0  0  0  0  0  0
  149.9262  142.9711  156.5458 H   0  0  0  0  0  0  0  0  0  0  0  0
  153.2978  143.7454  158.6335 H   0  0  0  0  0  0  0  0  0  0  0  0
  152.7219  143.5890  156.9616 H   0  0  0  0  0  0  0  0  0  0  0  0
  151.7071  145.5648  158.5598 H   0  0  0  0  0  0  0  0  0  0  0  0
  150.6207  144.6408  157.5164 H   0  0  0  0  0  0  0  0  0  0  0  0
  148.5817  144.0937  158.9861 H   0  0  0  0  0  0  0  0  0  0  0  0
  148.8190  143.9683  160.7220 H   0  0  0  0  0  0  0  0  0  0  0  0
  148.6827  146.1294  159.1480 H   0  0  0  0  0  0  0  0  0  0  0  0
  1  2  1  0  0  0  0
  1 18  1  0  0  0  0
  1 19  1  0  0  0  0
  2 15  2  0  0  0  0
  2  3  1  0  0  0  0
  3  4  2  0  0  0  0
  3 20  1  0  0  0  0
  4  5  1  0  0  0  0
  4 21  1  0  0  0  0
  5  6  1  0  0  0  0
  5 13  1  0  0  0  0
  6 16  1  0  0  0  0
  6 12  1  0  0  0  0
  6  7  1  0  0  0  0
  7  8  1  0  0  0  0
  7 22  1  0  0  0  0
  7 23  1  0  0  0  0
  8  9  1  0  0  0  0
  8 24  1  0  0  0  0
  8 25  1  0  0  0  0
  9 17  1  0  0  0  0
  9 10  1  0  0  0  0
  9 12  1  0  0  0  0
 10 11  1  0  0  0  0
 10 26  1  0  0  0  0
 10 27  1  0  0  0  0
 11 28  1  0  0  0  0
 13 14  2  0  0  0  0
 13 15  1  0  0  0  0
M  END
> <s_m_source_file>
AV-unprocessed.smi

> <i_m_source_file_index>
159

> <i_lp_mmshare_version>
43012

> <i_f3d_flags>
0

> <s_epik_input>
W05IMl1jMVtjSF1bY0hdbihjKD1PKW4xKVtDQEhdMltDSDJdW0NIMl1bQ0BIXShPMilbQ0gyXVtPSF0=

> <s_epik_cmdline>
J2VwaWtfcHl0aG9uJywgJy1waCcsICc3LjAnLCAnLXRuJywgJzgnLCAnLW1hJywgJzIwMCcsICctbWV0YWxfYmluZGluZycsICctaW1hZScsICc8aW5maWxlLm1hZT4nLCAnLW9tYWUnLCAnPG91dGZpbGUubWFlPic=

> <r_lp_tautomer_probability>
0.99996

> <r_epik_Ionization_Penalty>
0.00126102

> <r_epik_Ionization_Penalty_Charging>
4.46248e-08

> <r_epik_Ionization_Penalty_Neutral>
0.00126097

> <r_epik_State_Penalty>
1.15523e-05

> <r_epik_Charging_Adjusted_Penalty>
1.1597e-05

> <i_epik_Tot_Q>
0

> <i_epik_Tot_abs_Q>
0

> <r_epik_Metal_State_Penalty>
-0

> <b_epik_Metal_Only>
0

> <s_epik_Chemistry_Notes>
This compound contains an acetal/aminal-like group ( X-CH(R)-Y where X, Y are N, S, or O) that may be acid/base labile, releasing an aldehyde.

> <s_lp_Force_Field>
OPLS_2005

> <r_lp_Energy>
25.8801

> <b_lp_Chiralities_Consistent>
1

> <s_lp_Variant>
AV-unprocessed.smi:159-1

> <Gold.Version>
5.8.1

> <Gold.Id.Protein>
6NUR|6NUR_protein|mol2

> <Gold.PLP.Fitness>
37.4042

> <Gold.PLP.PLP>
-27.4788

> <Gold.PLP.part.hbond>
-4.7691

> <Gold.PLP.part.metal>
0.0000

> <Gold.PLP.part.buried>
0.0638

> <Gold.PLP.part.nonpolar>
-21.3176

> <Gold.PLP.part.repulsive>
0.4090

> <Gold.PLP.ligand.clash>
0.0000

> <Gold.PLP.ligand.torsion>
0.0744

> <Gold.PLP.Chemscore.Hbond>
2.3536

> <Gold.PLP.Chemscore.CHOScore>
1.0000

> <Gold.PLP.Chemscore.Metal>
0.0000

> <Gold.Chemscore.Hbonds>
donor molecule, donor type, donor heavy atom, donor atom, acceptor molecule, acceptor atom, score
      L1  H     1    19       P1  7957  0.40
      L1  H    11    28       P1  8029  1.00
      P1  H  7997  8010       L1    14  1.00
      L1  C     4    21       P1  8028  1.00

> <Gold.PLP.Chemscore.Internal.Correction>
0.0134

> <Gold.Rescore>
     Score         DG    S(hbond)    S(metal)    S(lipo)     H(rot)  DE(clash)    DE(int)     intcor
     12.85     -13.56       2.37        0.00      47.19       2.09       0.56       0.15       ----

> <Gold.Chemscore.Fitness>
12.8485

> <Gold.Chemscore.DG>
-13.5561

> <Gold.Chemscore.ZeroCoef>
-5.4800

> <Gold.Chemscore.Hbond>
2.3696

> <Gold.Chemscore.Metal>
0.0000

> <Gold.Chemscore.Lipo>
47.1870

> <Gold.Chemscore.Internal_Hbond>
0.0000

> <Gold.Chemscore.DEClash>
0.5588

> <Gold.Chemscore.DEInternal>
0.1487

> <Gold.Chemscore.Rot>
2.0935

> <Gold.Chemscore.Internal.Correction>
   9.000000E+99

> <Gold.Chemscore.Hbonds>
donor molecule, donor type, donor heavy atom, donor atom, acceptor molecule, acceptor atom, score
      L1  H     1    19       P1  7957  0.40
      L1  H    11    28       P1  8029  0.91
      P1  H  7997  8010       L1    14  0.78

> <Gold.Chemscore.Hbond.Weighted>
-7.9146

> <Gold.Chemscore.Metal.Weighted>
-0.0000

> <Gold.Chemscore.Lipo.Weighted>
-5.5209

> <Gold.Chemscore.Internal_Hbond.Weighted>
0.0000

> <Gold.Chemscore.DEClash.Weighted>
0.5588

> <Gold.Chemscore.DEInternal.Weighted>
0.1487

> <Gold.Chemscore.Rot.Weighted>
5.3594

> <Gold.Chemscore.Internal.Correction.Weighted>
   9.000000E+99

> <Gold.Protein.RotatedTorsions>
[ 6907 6896 6895 6894 ] final   70.99 input  -60.11 | X-H torsion
[ 7974 7965 7964 7962 ] final   98.88 input  175.53 | X-H torsion
[ 8008 7997 7996 7995 ] final   45.01 input   59.86 | X-H torsion
[ 10167 10162 10161 10158 ] final -169.75 input  -65.29 | X-H torsion
[ 10718 10713 10712 10709 ] final  170.77 input   66.30 | X-H torsion
[ 10763 10752 10751 10750 ] final  -62.28 input  -60.55 | X-H torsion
[ 11005 11000 10999 10996 ] final  -36.25 input  -57.11 | X-H torsion

> <Gold.Protein.ActiveResidues>
 VAL166  LYS551  ARG553  GLY616  TRP617  ASP618  TYR619  PRO620  LYS621  CYS622 
 ASP623  PHE694  ASN695  SER759  ASP760  ASP761  ALA762  ILE779  LEU786  VAL792 
 PHE793  MET794  SER795  GLU796  ALA797  LYS798  CYS799  TRP800  GLU811  SER814 

> <Gold.Protein.RotatedAtoms>
  152.4783  134.4786  159.9658 H   0  0  0  0  0  0  0  0  0  0  0  0  # atno 6907 bound_to 6896
  151.4797  133.3543  159.2844 H   0  0  0  0  0  0  0  0  0  0  0  0  # atno 6908 bound_to 6896
  150.8837  134.8258  159.7305 H   0  0  0  0  0  0  0  0  0  0  0  0  # atno 6909 bound_to 6896
  145.4063  139.2340  143.3273 H   0  0  0  0  0  0  0  0  0  0  0  0  # atno 7974 bound_to 7965
  155.3288  140.3401  155.4240 H   0  0  0  0  0  0  0  0  0  0  0  0  # atno 8008 bound_to 7997
  156.1872  140.1685  156.8199 H   0  0  0  0  0  0  0  0  0  0  0  0  # atno 8009 bound_to 7997
  154.5400  140.0727  156.8477 H   0  0  0  0  0  0  0  0  0  0  0  0  # atno 8010 bound_to 7997
  139.5903  144.1227  152.1626 H   0  0  0  0  0  0  0  0  0  0  0  0  # atno 10167 bound_to 10162
  157.0033  131.0182  151.2824 H   0  0  0  0  0  0  0  0  0  0  0  0  # atno 10718 bound_to 10713
  154.2975  135.6241  153.5411 H   0  0  0  0  0  0  0  0  0  0  0  0  # atno 10763 bound_to 10752
  152.9844  135.5670  154.5321 H   0  0  0  0  0  0  0  0  0  0  0  0  # atno 10764 bound_to 10752
  154.4945  135.2869  155.1446 H   0  0  0  0  0  0  0  0  0  0  0  0  # atno 10765 bound_to 10752
  140.9860  133.7030  156.1767 H   0  0  0  0  0  0  0  0  0  0  0  0  # atno 11005 bound_to 11000
  146.2727  140.4768  142.8808 LP  0  0  0  0  0  0  0  0  0  0  0  0  # atno 17320 bound_to 7965
  144.8340  140.6752  143.6273 LP  0  0  0  0  0  0  0  0  0  0  0  0  # atno 17321 bound_to 7965
  140.0800  144.5708  150.7129 LP  0  0  0  0  0  0  0  0  0  0  0  0  # atno 17342 bound_to 10162
  140.7167  143.2551  151.4410 LP  0  0  0  0  0  0  0  0  0  0  0  0  # atno 17343 bound_to 10162
  157.5374  130.8098  149.7988 LP  0  0  0  0  0  0  0  0  0  0  0  0  # atno 17370 bound_to 10713
  156.0163  130.3812  150.2101 LP  0  0  0  0  0  0  0  0  0  0  0  0  # atno 17371 bound_to 10713
  140.7113  134.4458  157.5581 LP  0  0  0  0  0  0  0  0  0  0  0  0  # atno 17394 bound_to 11000
  139.8971  134.8645  156.2059 LP  0  0  0  0  0  0  0  0  0  0  0  0  # atno 17395 bound_to 11000

$$$$
