AV-unprocessed.smi:2474|AV-procd|sdf|9752|dock5
  -GOLD-   2272013393D 1   1.00000     0.00000
 Structure written by MMmdl.
 40 41  0  0  0  0  0  0  0  0  1 V2000
  146.8369  140.4958  155.9753 C   0  0  0  0  0  0  0  0  0  0  0  0
  148.2709  140.2104  155.6841 C   0  0  0  0  0  0  0  0  0  0  0  0
  149.3533  141.0230  155.9145 C   0  0  0  0  0  0  0  0  0  0  0  0
  150.5731  140.4604  155.5328 N   0  0  0  0  0  0  0  0  0  0  0  0
  150.4311  139.2393  155.0093 C   0  0  0  0  0  0  0  0  0  0  0  0
  151.5763  138.3962  154.5356 C   0  0  1  0  0  0  0  0  0  0  0  0
  152.9292  139.0977  154.7222 C   0  0  0  0  0  0  0  0  0  0  0  0
  151.5568  136.9618  155.1109 C   0  0  0  0  0  0  0  0  0  0  0  0
  150.6401  136.0720  154.4026 N   0  0  0  0  0  0  0  0  0  0  0  0
  150.5097  134.7586  154.6320 C   0  0  0  0  0  0  0  0  0  0  0  0
  151.1276  134.1455  155.5025 O   0  0  0  0  0  0  0  0  0  0  0  0
  149.6421  134.1911  153.7828 N   0  0  0  0  0  0  0  0  0  0  0  0
  149.3208  132.7680  153.7332 C   0  0  2  0  0  0  0  0  0  0  0  0
  150.6070  131.9424  153.5207 C   0  0  0  0  0  0  0  0  0  0  0  0
  150.3419  130.4281  153.5104 C   0  0  0  0  0  0  0  0  0  0  0  0
  149.3871  130.0074  152.3844 C   0  0  0  0  0  0  0  0  0  0  0  0
  147.7605  130.7850  152.5778 S   0  0  0  0  0  0  0  0  0  0  0  0
  148.2921  132.5189  152.6168 C   0  0  0  0  0  0  0  0  0  0  0  0
  148.7565  138.6976  154.9654 S   0  0  0  0  0  0  0  0  0  0  0  0
  146.7139  141.4868  156.4127 H   0  0  0  0  0  0  0  0  0  0  0  0
  146.4322  139.7656  156.6765 H   0  0  0  0  0  0  0  0  0  0  0  0
  146.2423  140.4548  155.0625 H   0  0  0  0  0  0  0  0  0  0  0  0
  149.3473  142.0124  156.3474 H   0  0  0  0  0  0  0  0  0  0  0  0
  151.4449  138.2977  153.4573 H   0  0  0  0  0  0  0  0  0  0  0  0
  152.9466  140.0595  154.2090 H   0  0  0  0  0  0  0  0  0  0  0  0
  153.7432  138.4939  154.3201 H   0  0  0  0  0  0  0  0  0  0  0  0
  153.1400  139.2786  155.7767 H   0  0  0  0  0  0  0  0  0  0  0  0
  152.5613  136.5360  155.1161 H   0  0  0  0  0  0  0  0  0  0  0  0
  151.2305  136.9925  156.1509 H   0  0  0  0  0  0  0  0  0  0  0  0
  150.0895  136.4835  153.6631 H   0  0  0  0  0  0  0  0  0  0  0  0
  149.1866  134.7829  153.1037 H   0  0  0  0  0  0  0  0  0  0  0  0
  148.8658  132.4773  154.6823 H   0  0  0  0  0  0  0  0  0  0  0  0
  151.0870  132.2364  152.5863 H   0  0  0  0  0  0  0  0  0  0  0  0
  151.3227  132.1666  154.3128 H   0  0  0  0  0  0  0  0  0  0  0  0
  151.2883  129.8993  153.3939 H   0  0  0  0  0  0  0  0  0  0  0  0
  149.9353  130.1180  154.4739 H   0  0  0  0  0  0  0  0  0  0  0  0
  149.7993  130.2816  151.4127 H   0  0  0  0  0  0  0  0  0  0  0  0
  149.2587  128.9249  152.3836 H   0  0  0  0  0  0  0  0  0  0  0  0
  147.4099  133.1422  152.7663 H   0  0  0  0  0  0  0  0  0  0  0  0
  148.7090  132.7820  151.6438 H   0  0  0  0  0  0  0  0  0  0  0  0
  1  2  1  0  0  0  0
  1 20  1  0  0  0  0
  1 21  1  0  0  0  0
  1 22  1  0  0  0  0
  2 19  1  0  0  0  0
  2  3  2  0  0  0  0
  3  4  1  0  0  0  0
  3 23  1  0  0  0  0
  4  5  2  0  0  0  0
  5  6  1  0  0  0  0
  5 19  1  0  0  0  0
  6  7  1  0  0  0  0
  6  8  1  0  0  0  0
  6 24  1  0  0  0  0
  7 25  1  0  0  0  0
  7 26  1  0  0  0  0
  7 27  1  0  0  0  0
  8  9  1  0  0  0  0
  8 28  1  0  0  0  0
  8 29  1  0  0  0  0
  9 10  1  0  0  0  0
  9 30  1  0  0  0  0
 10 11  2  0  0  0  0
 10 12  1  0  0  0  0
 12 13  1  0  0  0  0
 12 31  1  0  0  0  0
 13 18  1  0  0  0  0
 13 14  1  0  0  0  0
 13 32  1  0  0  0  0
 14 15  1  0  0  0  0
 14 33  1  0  0  0  0
 14 34  1  0  0  0  0
 15 16  1  0  0  0  0
 15 35  1  0  0  0  0
 15 36  1  0  0  0  0
 16 17  1  0  0  0  0
 16 37  1  0  0  0  0
 16 38  1  0  0  0  0
 17 18  1  0  0  0  0
 18 39  1  0  0  0  0
 18 40  1  0  0  0  0
M  END
> <s_m_source_file>
AV-unprocessed.smi

> <i_m_source_file_index>
2474

> <i_lp_mmshare_version>
43012

> <i_f3d_flags>
0

> <s_epik_input>
W0NIM11jMVtjSF1uYyhzMSlbQ0BIXShbQ0gzXSlbQ0gyXVtOSF1DKD1PKVtOSF1bQ0BASF0yW0NIMl1bQ0gyXVtDSDJdU1tDSDJdMg==

> <s_epik_cmdline>
J2VwaWtfcHl0aG9uJywgJy1waCcsICc3LjAnLCAnLXRuJywgJzgnLCAnLW1hJywgJzIwMCcsICctbWV0YWxfYmluZGluZycsICctaW1hZScsICc8aW5maWxlLm1hZT4nLCAnLW9tYWUnLCAnPG91dGZpbGUubWFlPic=

> <r_epik_Ionization_Penalty>
0.000644338

> <r_epik_Ionization_Penalty_Charging>
0

> <r_epik_Ionization_Penalty_Neutral>
0.000644338

> <r_epik_State_Penalty>
0.000374131

> <r_epik_Charging_Adjusted_Penalty>
0.000374131

> <i_epik_Tot_Q>
0

> <i_epik_Tot_abs_Q>
0

> <r_epik_Metal_State_Penalty>
-0

> <b_epik_Metal_Only>
0

> <s_lp_Force_Field>
OPLS_2005

> <r_lp_Energy>
-6.48006

> <b_lp_Chiralities_Consistent>
1

> <s_lp_Variant>
AV-unprocessed.smi:2474-2

> <Gold.Version>
5.8.1

> <Gold.Id.Protein>
6NUR|6NUR_protein|mol2

> <Gold.PLP.Fitness>
50.2713

> <Gold.PLP.PLP>
-39.0922

> <Gold.PLP.part.hbond>
-3.6607

> <Gold.PLP.part.metal>
0.0000

> <Gold.PLP.part.buried>
-2.4852

> <Gold.PLP.part.nonpolar>
-33.0124

> <Gold.PLP.part.repulsive>
0.1811

> <Gold.PLP.ligand.clash>
0.0000

> <Gold.PLP.ligand.torsion>
0.3999

> <Gold.PLP.Chemscore.Hbond>
2.9500

> <Gold.PLP.Chemscore.CHOScore>
1.0000

> <Gold.PLP.Chemscore.Metal>
0.0000

> <Gold.Chemscore.Hbonds>
donor molecule, donor type, donor heavy atom, donor atom, acceptor molecule, acceptor atom, score
      L1  H     9    30       P1  7948  0.64
      L1  H    12    31       P1  7948  0.50
      P1  H  7989  7998       L1     4  0.04
      L1  C     3    23       P1  8028  0.25

> <Gold.PLP.Chemscore.Internal.Correction>
0.1289

> <Gold.Rescore>
     Score         DG    S(hbond)    S(metal)    S(lipo)     H(rot)  DE(clash)    DE(int)     intcor
     17.75     -18.37       2.02        0.00      84.43       1.46       0.14       0.48       ----

> <Gold.Chemscore.Fitness>
17.7469

> <Gold.Chemscore.DG>
-18.3710

> <Gold.Chemscore.ZeroCoef>
-5.4800

> <Gold.Chemscore.Hbond>
2.0221

> <Gold.Chemscore.Metal>
0.0000

> <Gold.Chemscore.Lipo>
84.4333

> <Gold.Chemscore.Internal_Hbond>
0.0000

> <Gold.Chemscore.DEClash>
0.1444

> <Gold.Chemscore.DEInternal>
0.4797

> <Gold.Chemscore.Rot>
1.4616

> <Gold.Chemscore.Internal.Correction>
   9.000000E+99

> <Gold.Chemscore.Hbonds>
donor molecule, donor type, donor heavy atom, donor atom, acceptor molecule, acceptor atom, score
      L1  H     9    30       P1  7948  0.09
      L1  H    12    31       P1  7948  0.02

> <Gold.Chemscore.Hbond.Weighted>
-6.7539

> <Gold.Chemscore.Metal.Weighted>
-0.0000

> <Gold.Chemscore.Lipo.Weighted>
-9.8787

> <Gold.Chemscore.Internal_Hbond.Weighted>
0.0000

> <Gold.Chemscore.DEClash.Weighted>
0.1444

> <Gold.Chemscore.DEInternal.Weighted>
0.4797

> <Gold.Chemscore.Rot.Weighted>
3.7416

> <Gold.Chemscore.Internal.Correction.Weighted>
   9.000000E+99

> <Gold.Protein.RotatedTorsions>
[ 6907 6896 6895 6894 ] final -129.41 input  -60.11 | X-H torsion
[ 7974 7965 7964 7962 ] final  -46.15 input  175.53 | X-H torsion
[ 8008 7997 7996 7995 ] final  -20.29 input   59.86 | X-H torsion
[ 10167 10162 10161 10158 ] final  -66.24 input  -65.29 | X-H torsion
[ 10718 10713 10712 10709 ] final -125.75 input   66.30 | X-H torsion
[ 10763 10752 10751 10750 ] final   91.59 input  -60.55 | X-H torsion
[ 11005 11000 10999 10996 ] final  -88.30 input  -57.11 | X-H torsion

> <Gold.Protein.ActiveResidues>
 VAL166  LYS551  ARG553  GLY616  TRP617  ASP618  TYR619  PRO620  LYS621  CYS622 
 ASP623  PHE694  ASN695  SER759  ASP760  ASP761  ALA762  ILE779  LEU786  VAL792 
 PHE793  MET794  SER795  GLU796  ALA797  LYS798  CYS799  TRP800  GLU811  SER814 

> <Gold.Protein.RotatedAtoms>
  150.9284  133.6796  159.2816 H   0  0  0  0  0  0  0  0  0  0  0  0  # atno 6907 bound_to 6896
  151.4227  135.0998  159.9628 H   0  0  0  0  0  0  0  0  0  0  0  0  # atno 6908 bound_to 6896
  152.5014  133.8732  159.7364 H   0  0  0  0  0  0  0  0  0  0  0  0  # atno 6909 bound_to 6896
  145.9749  140.7345  142.9392 H   0  0  0  0  0  0  0  0  0  0  0  0  # atno 7974 bound_to 7965
  154.4780  140.2066  155.9832 H   0  0  0  0  0  0  0  0  0  0  0  0  # atno 8008 bound_to 7997
  156.1120  140.3227  155.8055 H   0  0  0  0  0  0  0  0  0  0  0  0  # atno 8009 bound_to 7997
  155.4619  140.0524  157.2980 H   0  0  0  0  0  0  0  0  0  0  0  0  # atno 8010 bound_to 7997
  140.5672  143.2315  151.6612 H   0  0  0  0  0  0  0  0  0  0  0  0  # atno 10167 bound_to 10162
  156.1703  130.6663  151.0171 H   0  0  0  0  0  0  0  0  0  0  0  0  # atno 10718 bound_to 10713
  153.2099  135.4392  155.0367 H   0  0  0  0  0  0  0  0  0  0  0  0  # atno 10763 bound_to 10752
  154.8194  135.3330  154.7085 H   0  0  0  0  0  0  0  0  0  0  0  0  # atno 10764 bound_to 10752
  153.7524  135.6997  153.4998 H   0  0  0  0  0  0  0  0  0  0  0  0  # atno 10765 bound_to 10752
  141.1604  133.7562  156.9431 H   0  0  0  0  0  0  0  0  0  0  0  0  # atno 11005 bound_to 11000
  144.6846  140.2810  143.7292 LP  0  0  0  0  0  0  0  0  0  0  0  0  # atno 17320 bound_to 7965
  145.7853  139.1906  143.2134 LP  0  0  0  0  0  0  0  0  0  0  0  0  # atno 17321 bound_to 7965
  139.5099  144.3562  152.0605 LP  0  0  0  0  0  0  0  0  0  0  0  0  # atno 17342 bound_to 10162
  140.2695  144.3979  150.6156 LP  0  0  0  0  0  0  0  0  0  0  0  0  # atno 17343 bound_to 10162
  157.6798  131.0841  150.7400 LP  0  0  0  0  0  0  0  0  0  0  0  0  # atno 17370 bound_to 10713
  156.7459  130.4753  149.5467 LP  0  0  0  0  0  0  0  0  0  0  0  0  # atno 17371 bound_to 10713
  140.1308  134.9357  157.2334 LP  0  0  0  0  0  0  0  0  0  0  0  0  # atno 17394 bound_to 11000
  140.2956  134.3190  155.7303 LP  0  0  0  0  0  0  0  0  0  0  0  0  # atno 17395 bound_to 11000

$$$$
