AV-unprocessed.smi:1239|AV-procd|sdf|5186|dock1
  -GOLD-   22720 4263D 1   1.00000     0.00000
 Structure written by MMmdl.
 48 49  0  0  0  0  0  0  0  0  2 V2000
  147.1418  142.1519  153.3557 C   0  0  0  0  0  0  0  0  0  0  0  0
  147.0466  141.4322  154.7255 C   0  0  1  0  0  0  0  0  0  0  0  0
  145.7809  140.5299  154.7363 C   0  0  0  0  0  0  0  0  0  0  0  0
  145.6183  139.7641  153.5020 N   0  0  0  0  0  0  0  0  0  0  0  0
  145.4597  138.4350  153.4235 C   0  0  0  0  0  0  0  0  0  0  0  0
  145.4470  137.6900  154.4029 O   0  0  0  0  0  0  0  0  0  0  0  0
  145.3392  138.0358  152.1453 N   0  0  0  0  0  0  0  0  0  0  0  0
  145.1102  136.7250  151.6447 C   0  0  0  0  0  0  0  0  0  0  0  0
  144.2358  135.8867  152.3673 C   0  0  0  0  0  0  0  0  0  0  0  0
  143.9918  134.5721  151.9190 C   0  0  0  0  0  0  0  0  0  0  0  0
  144.6336  134.0957  150.7495 C   0  0  0  0  0  0  0  0  0  0  0  0
  144.4438  132.7933  150.2389 N   0  0  0  0  0  0  0  0  0  0  0  0
  144.3304  132.5883  148.7991 C   0  0  0  0  0  0  0  0  0  0  0  0
  144.3592  131.6611  151.1520 C   0  0  0  0  0  0  0  0  0  0  0  0
  145.4737  134.9346  150.0957 N   0  3  0  0  0  0  0  0  0  0  0  0
  145.7345  136.2001  150.4883 C   0  0  0  0  0  0  0  0  0  0  0  0
  148.2873  140.7004  155.0742 N   0  0  0  0  0  0  0  0  0  0  0  0
  148.6664  139.7149  154.0547 C   0  0  0  0  0  0  0  0  0  0  0  0
  149.9667  138.9676  154.3984 C   0  0  0  0  0  0  0  0  0  0  0  0
  151.0198  139.9024  154.5857 O   0  0  0  0  0  0  0  0  0  0  0  0
  150.7292  140.8302  155.6214 C   0  0  0  0  0  0  0  0  0  0  0  0
  149.4338  141.5913  155.2897 C   0  0  0  0  0  0  0  0  0  0  0  0
  146.2192  142.6666  153.0909 H   0  0  0  0  0  0  0  0  0  0  0  0
  147.3640  141.4457  152.5551 H   0  0  0  0  0  0  0  0  0  0  0  0
  147.9071  142.9263  153.3446 H   0  0  0  0  0  0  0  0  0  0  0  0
  146.8912  142.2056  155.4795 H   0  0  0  0  0  0  0  0  0  0  0  0
  145.7959  139.8823  155.6147 H   0  0  0  0  0  0  0  0  0  0  0  0
  144.8725  141.1249  154.8095 H   0  0  0  0  0  0  0  0  0  0  0  0
  145.6234  140.2927  152.6421 H   0  0  0  0  0  0  0  0  0  0  0  0
  145.4539  138.7540  151.4450 H   0  0  0  0  0  0  0  0  0  0  0  0
  143.7482  136.2468  153.2615 H   0  0  0  0  0  0  0  0  0  0  0  0
  143.3150  133.9488  152.4841 H   0  0  0  0  0  0  0  0  0  0  0  0
  145.2359  132.9232  148.2917 H   0  0  0  0  0  0  0  0  0  0  0  0
  143.4819  133.1438  148.3985 H   0  0  0  0  0  0  0  0  0  0  0  0
  144.1838  131.5354  148.5577 H   0  0  0  0  0  0  0  0  0  0  0  0
  143.5231  131.7859  151.8408 H   0  0  0  0  0  0  0  0  0  0  0  0
  145.2781  131.5662  151.7311 H   0  0  0  0  0  0  0  0  0  0  0  0
  144.2086  130.7264  150.6118 H   0  0  0  0  0  0  0  0  0  0  0  0
  146.4409  136.7286  149.8660 H   0  0  0  0  0  0  0  0  0  0  0  0
  147.8896  138.9614  153.9394 H   0  0  0  0  0  0  0  0  0  0  0  0
  148.7775  140.2076  153.0876 H   0  0  0  0  0  0  0  0  0  0  0  0
  149.8399  138.3638  155.2985 H   0  0  0  0  0  0  0  0  0  0  0  0
  150.2361  138.2859  153.5918 H   0  0  0  0  0  0  0  0  0  0  0  0
  150.6368  140.3072  156.5746 H   0  0  0  0  0  0  0  0  0  0  0  0
  151.5626  141.5261  155.7184 H   0  0  0  0  0  0  0  0  0  0  0  0
  149.5929  142.2102  154.4053 H   0  0  0  0  0  0  0  0  0  0  0  0
  149.2459  142.2673  156.1214 H   0  0  0  0  0  0  0  0  0  0  0  0
  145.9410  134.5894  149.2571 H   0  0  0  0  0  0  0  0  0  0  0  0
  1  2  1  0  0  0  0
  1 23  1  0  0  0  0
  1 24  1  0  0  0  0
  1 25  1  0  0  0  0
  2  3  1  0  0  0  0
  2 17  1  0  0  0  0
  2 26  1  0  0  0  0
  3  4  1  0  0  0  0
  3 27  1  0  0  0  0
  3 28  1  0  0  0  0
  4  5  1  0  0  0  0
  4 29  1  0  0  0  0
  5  6  2  0  0  0  0
  5  7  1  0  0  0  0
  7  8  1  0  0  0  0
  7 30  1  0  0  0  0
  8 16  1  0  0  0  0
  8  9  2  0  0  0  0
  9 10  1  0  0  0  0
  9 31  1  0  0  0  0
 10 11  2  0  0  0  0
 10 32  1  0  0  0  0
 11 12  1  0  0  0  0
 11 15  1  0  0  0  0
 12 13  1  0  0  0  0
 12 14  1  0  0  0  0
 13 33  1  0  0  0  0
 13 34  1  0  0  0  0
 13 35  1  0  0  0  0
 14 36  1  0  0  0  0
 14 37  1  0  0  0  0
 14 38  1  0  0  0  0
 15 16  2  0  0  0  0
 15 48  1  0  0  0  0
 16 39  1  0  0  0  0
 17 22  1  0  0  0  0
 17 18  1  0  0  0  0
 18 19  1  0  0  0  0
 18 40  1  0  0  0  0
 18 41  1  0  0  0  0
 19 20  1  0  0  0  0
 19 42  1  0  0  0  0
 19 43  1  0  0  0  0
 20 21  1  0  0  0  0
 21 22  1  0  0  0  0
 21 44  1  0  0  0  0
 21 45  1  0  0  0  0
 22 46  1  0  0  0  0
 22 47  1  0  0  0  0
M  CHG  1  15   1
M  END
> <s_m_source_file>
AV-unprocessed.smi

> <i_m_source_file_index>
1239

> <i_lp_mmshare_version>
43012

> <i_f3d_flags>
0

> <s_epik_input>
W0NIMl0xW0NIMl1PW0NIMl1bQ0gyXU4xW0NASF0oW0NIM10pW0NIMl1bTkhdQyg9TylbTkhdYzJbY0hdW2NIXWMoTihbQ0gzXSlbQ0gzXSluW2NIXTI=

> <s_epik_cmdline>
J2VwaWtfcHl0aG9uJywgJy1waCcsICc3LjAnLCAnLXRuJywgJzgnLCAnLW1hJywgJzIwMCcsICctbWV0YWxfYmluZGluZycsICctaW1hZScsICc8aW5maWxlLm1hZT4nLCAnLW9tYWUnLCAnPG91dGZpbGUubWFlPic=

> <r_lp_tautomer_probability>
0.999994

> <r_epik_Ionization_Penalty>
0.528791

> <r_epik_Ionization_Penalty_Charging>
0.26278

> <r_epik_Ionization_Penalty_Neutral>
0.26601

> <r_epik_State_Penalty>
0.520375

> <r_epik_Charging_Adjusted_Penalty>
0.783156

> <i_epik_Tot_Q>
1

> <i_epik_Tot_abs_Q>
1

> <r_epik_Metal_State_Penalty>
0.806531

> <b_epik_Metal_Only>
0

> <s_lp_Force_Field>
OPLS_2005

> <r_lp_Energy>
38.5694

> <b_lp_Chiralities_Consistent>
1

> <s_lp_Variant>
AV-unprocessed.smi:1239-2

> <Gold.Version>
5.8.1

> <Gold.Id.Protein>
6NUR|6NUR_protein|mol2

> <Gold.PLP.Fitness>
45.0859

> <Gold.PLP.PLP>
-40.0210

> <Gold.PLP.part.hbond>
-4.6755

> <Gold.PLP.part.metal>
0.0000

> <Gold.PLP.part.buried>
-3.3402

> <Gold.PLP.part.nonpolar>
-32.3580

> <Gold.PLP.part.repulsive>
0.2894

> <Gold.PLP.ligand.clash>
0.0000

> <Gold.PLP.ligand.torsion>
1.1608

> <Gold.PLP.Chemscore.Hbond>
2.4480

> <Gold.PLP.Chemscore.CHOScore>
0.0000

> <Gold.PLP.Chemscore.Metal>
0.0000

> <Gold.Chemscore.Hbonds>
donor molecule, donor type, donor heavy atom, donor atom, acceptor molecule, acceptor atom, score
      L1  H     7    30       P1 10171  0.10
      L1  H    15    48       P1  7921  0.91
      P1  H  7989  7998       L1    20  1.00

> <Gold.PLP.Chemscore.Internal.Correction>
0.0425

> <Gold.Rescore>
     Score         DG    S(hbond)    S(metal)    S(lipo)     H(rot)  DE(clash)    DE(int)     intcor
     17.83     -20.07       2.59        0.00      82.86       1.46       0.38       1.87       ----

> <Gold.Chemscore.Fitness>
17.8272

> <Gold.Chemscore.DG>
-20.0745

> <Gold.Chemscore.ZeroCoef>
-5.4800

> <Gold.Chemscore.Hbond>
2.5865

> <Gold.Chemscore.Metal>
0.0000

> <Gold.Chemscore.Lipo>
82.8564

> <Gold.Chemscore.Internal_Hbond>
0.0000

> <Gold.Chemscore.DEClash>
0.3756

> <Gold.Chemscore.DEInternal>
1.8717

> <Gold.Chemscore.Rot>
1.4604

> <Gold.Chemscore.Internal.Correction>
   9.000000E+99

> <Gold.Chemscore.Hbonds>
donor molecule, donor type, donor heavy atom, donor atom, acceptor molecule, acceptor atom, score
      L1  H     4    29       P1 10175  0.03
      L1  H     7    30       P1 10171  0.10
      L1  H    15    48       P1  7921  0.57
      P1  H  7989  7998       L1    20  0.29

> <Gold.Chemscore.Hbond.Weighted>
-8.6388

> <Gold.Chemscore.Metal.Weighted>
-0.0000

> <Gold.Chemscore.Lipo.Weighted>
-9.6942

> <Gold.Chemscore.Internal_Hbond.Weighted>
0.0000

> <Gold.Chemscore.DEClash.Weighted>
0.3756

> <Gold.Chemscore.DEInternal.Weighted>
1.8717

> <Gold.Chemscore.Rot.Weighted>
3.7385

> <Gold.Chemscore.Internal.Correction.Weighted>
   9.000000E+99

> <Gold.Protein.RotatedTorsions>
[ 6907 6896 6895 6894 ] final  -50.44 input  -60.11 | X-H torsion
[ 7974 7965 7964 7962 ] final   12.38 input  175.53 | X-H torsion
[ 8008 7997 7996 7995 ] final   60.39 input   59.86 | X-H torsion
[ 10167 10162 10161 10158 ] final  -78.18 input  -65.29 | X-H torsion
[ 10718 10713 10712 10709 ] final  158.14 input   66.30 | X-H torsion
[ 10763 10752 10751 10750 ] final   59.97 input  -60.55 | X-H torsion
[ 11005 11000 10999 10996 ] final  103.71 input  -57.11 | X-H torsion

> <Gold.Protein.ActiveResidues>
 VAL166  LYS551  ARG553  GLY616  TRP617  ASP618  TYR619  PRO620  LYS621  CYS622 
 ASP623  PHE694  ASN695  SER759  ASP760  ASP761  ALA762  ILE779  LEU786  VAL792 
 PHE793  MET794  SER795  GLU796  ALA797  LYS798  CYS799  TRP800  GLU811  SER814 

> <Gold.Protein.RotatedAtoms>
  150.8707  134.8080  159.7152 H   0  0  0  0  0  0  0  0  0  0  0  0  # atno 6907 bound_to 6896
  152.4712  134.4952  159.9717 H   0  0  0  0  0  0  0  0  0  0  0  0  # atno 6908 bound_to 6896
  151.5041  133.3460  159.2909 H   0  0  0  0  0  0  0  0  0  0  0  0  # atno 6909 bound_to 6896
  146.2352  139.9345  142.8491 H   0  0  0  0  0  0  0  0  0  0  0  0  # atno 7974 bound_to 7965
  155.5815  140.3491  155.4541 H   0  0  0  0  0  0  0  0  0  0  0  0  # atno 8008 bound_to 7997
  156.0370  140.1287  157.0222 H   0  0  0  0  0  0  0  0  0  0  0  0  # atno 8009 bound_to 7997
  154.4375  140.1032  156.6167 H   0  0  0  0  0  0  0  0  0  0  0  0  # atno 8010 bound_to 7997
  140.4705  143.2428  151.8212 H   0  0  0  0  0  0  0  0  0  0  0  0  # atno 10167 bound_to 10162
  157.1819  131.0634  151.2127 H   0  0  0  0  0  0  0  0  0  0  0  0  # atno 10718 bound_to 10713
  152.9908  135.5553  154.5798 H   0  0  0  0  0  0  0  0  0  0  0  0  # atno 10763 bound_to 10752
  154.5182  135.2806  155.1287 H   0  0  0  0  0  0  0  0  0  0  0  0  # atno 10764 bound_to 10752
  154.2651  135.6373  153.5342 H   0  0  0  0  0  0  0  0  0  0  0  0  # atno 10765 bound_to 10752
  139.8786  134.9273  156.5251 H   0  0  0  0  0  0  0  0  0  0  0  0  # atno 11005 bound_to 11000
  145.2012  140.9855  143.4155 LP  0  0  0  0  0  0  0  0  0  0  0  0  # atno 17320 bound_to 7965
  144.9772  139.3820  143.6280 LP  0  0  0  0  0  0  0  0  0  0  0  0  # atno 17321 bound_to 7965
  139.4818  144.4897  151.9200 LP  0  0  0  0  0  0  0  0  0  0  0  0  # atno 17342 bound_to 10162
  140.3983  144.2527  150.5894 LP  0  0  0  0  0  0  0  0  0  0  0  0  # atno 17343 bound_to 10162
  157.3944  130.7299  149.6721 LP  0  0  0  0  0  0  0  0  0  0  0  0  # atno 17370 bound_to 10713
  155.9723  130.4137  150.4098 LP  0  0  0  0  0  0  0  0  0  0  0  0  # atno 17371 bound_to 10713
  140.8422  133.8196  155.9086 LP  0  0  0  0  0  0  0  0  0  0  0  0  # atno 17394 bound_to 11000
  140.9226  134.2122  157.4916 LP  0  0  0  0  0  0  0  0  0  0  0  0  # atno 17395 bound_to 11000

$$$$
