AV-unprocessed.smi:1539|AV-procd|sdf|6196|dock2
  -GOLD-   22720 6363D 1   1.00000     0.00000
 Structure written by MMmdl.
 42 43  0  0  0  0  0  0  0  0  2 V2000
  152.8622  141.5603  161.1480 C   0  0  0  0  0  0  0  0  0  0  0  0
  153.1305  142.1939  159.7808 C   0  0  0  0  0  0  0  0  0  0  0  0
  153.5233  141.4645  158.8700 O   0  0  0  0  0  0  0  0  0  0  0  0
  152.9422  143.5267  159.6188 N   0  0  0  0  0  0  0  0  0  0  0  0
  152.4281  144.3692  160.7092 C   0  0  0  0  0  0  0  0  0  0  0  0
  150.8848  144.3696  160.7426 C   0  0  0  0  0  0  0  0  0  0  0  0
  150.2386  144.8600  159.4277 C   0  0  0  0  0  0  0  0  0  0  0  0
  150.5982  143.9925  158.2895 N   0  0  0  0  0  0  0  0  0  0  0  0
  149.9658  142.8355  157.9619 C   0  0  0  0  0  0  0  0  0  0  0  0
  149.2547  142.2060  158.7466 O   0  0  0  0  0  0  0  0  0  0  0  0
  150.1577  142.4291  156.6945 N   0  0  0  0  0  0  0  0  0  0  0  0
  149.5587  141.2427  156.0959 C   0  0  0  0  0  0  0  0  0  0  0  0
  148.3677  141.6065  155.1944 C   0  0  0  0  0  0  0  0  0  0  0  0
  148.1307  140.5844  154.1745 N   0  0  0  0  0  0  0  0  0  0  0  0
  147.1963  140.6160  153.1716 C   0  0  0  0  0  0  0  0  0  0  0  0
  147.3448  139.4518  152.4628 C   0  0  0  0  0  0  0  0  0  0  0  0
  148.3628  138.7597  153.0627 N   0  3  0  0  0  0  0  0  0  0  0  0
  148.8408  139.4512  154.1028 C   0  0  0  0  0  0  0  0  0  0  0  0
  151.7941  144.4511  157.5588 C   0  0  0  0  0  0  0  0  0  0  0  0
  153.1185  144.2428  158.3426 C   0  0  0  0  0  0  0  0  0  0  0  0
  153.4183  142.0721  161.9336 H   0  0  0  0  0  0  0  0  0  0  0  0
  153.1697  140.5141  161.1530 H   0  0  0  0  0  0  0  0  0  0  0  0
  151.7991  141.5967  161.3863 H   0  0  0  0  0  0  0  0  0  0  0  0
  152.8188  144.0351  161.6718 H   0  0  0  0  0  0  0  0  0  0  0  0
  152.7869  145.3933  160.6007 H   0  0  0  0  0  0  0  0  0  0  0  0
  150.5236  143.3693  160.9841 H   0  0  0  0  0  0  0  0  0  0  0  0
  150.5518  145.0100  161.5598 H   0  0  0  0  0  0  0  0  0  0  0  0
  149.1559  144.9286  159.5421 H   0  0  0  0  0  0  0  0  0  0  0  0
  150.5602  145.8843  159.2347 H   0  0  0  0  0  0  0  0  0  0  0  0
  150.7444  142.9972  156.1004 H   0  0  0  0  0  0  0  0  0  0  0  0
  150.3130  140.6909  155.5321 H   0  0  0  0  0  0  0  0  0  0  0  0
  149.2310  140.5843  156.9009 H   0  0  0  0  0  0  0  0  0  0  0  0
  147.4563  141.7266  155.7822 H   0  0  0  0  0  0  0  0  0  0  0  0
  148.5430  142.5509  154.6772 H   0  0  0  0  0  0  0  0  0  0  0  0
  146.5138  141.4438  153.0408 H   0  0  0  0  0  0  0  0  0  0  0  0
  146.8163  139.0741  151.5994 H   0  0  0  0  0  0  0  0  0  0  0  0
  149.6421  139.1524  154.7553 H   0  0  0  0  0  0  0  0  0  0  0  0
  151.8806  143.9636  156.5869 H   0  0  0  0  0  0  0  0  0  0  0  0
  151.6797  145.5081  157.3148 H   0  0  0  0  0  0  0  0  0  0  0  0
  153.5614  145.2186  158.5454 H   0  0  0  0  0  0  0  0  0  0  0  0
  153.8541  143.7589  157.7007 H   0  0  0  0  0  0  0  0  0  0  0  0
  148.7060  137.8552  152.7642 H   0  0  0  0  0  0  0  0  0  0  0  0
  1  2  1  0  0  0  0
  1 21  1  0  0  0  0
  1 22  1  0  0  0  0
  1 23  1  0  0  0  0
  2  3  2  0  0  0  0
  2  4  1  0  0  0  0
  4 20  1  0  0  0  0
  4  5  1  0  0  0  0
  5  6  1  0  0  0  0
  5 24  1  0  0  0  0
  5 25  1  0  0  0  0
  6  7  1  0  0  0  0
  6 26  1  0  0  0  0
  6 27  1  0  0  0  0
  7  8  1  0  0  0  0
  7 28  1  0  0  0  0
  7 29  1  0  0  0  0
  8  9  1  0  0  0  0
  8 19  1  0  0  0  0
  9 10  2  0  0  0  0
  9 11  1  0  0  0  0
 11 12  1  0  0  0  0
 11 30  1  0  0  0  0
 12 13  1  0  0  0  0
 12 31  1  0  0  0  0
 12 32  1  0  0  0  0
 13 14  1  0  0  0  0
 13 33  1  0  0  0  0
 13 34  1  0  0  0  0
 14 18  1  0  0  0  0
 14 15  1  0  0  0  0
 15 16  2  0  0  0  0
 15 35  1  0  0  0  0
 16 17  1  0  0  0  0
 16 36  1  0  0  0  0
 17 18  2  0  0  0  0
 17 42  1  0  0  0  0
 18 37  1  0  0  0  0
 19 20  1  0  0  0  0
 19 38  1  0  0  0  0
 19 39  1  0  0  0  0
 20 40  1  0  0  0  0
 20 41  1  0  0  0  0
M  CHG  1  17   1
M  END
> <s_m_source_file>
AV-unprocessed.smi

> <i_m_source_file_index>
1539

> <i_lp_mmshare_version>
43012

> <i_f3d_flags>
0

> <s_epik_input>
W0NIM11DKD1PKU4xW0NIMl1bQ0gyXVtDSDJdTihbQ0gyXVtDSDJdMSlDKD1PKVtOSF1bQ0gyXVtDSDJdbjJbY0hdW2NIXW5bY0hdMg==

> <s_epik_cmdline>
J2VwaWtfcHl0aG9uJywgJy1waCcsICc3LjAnLCAnLXRuJywgJzgnLCAnLW1hJywgJzIwMCcsICctbWV0YWxfYmluZGluZycsICctaW1hZScsICc8aW5maWxlLm1hZT4nLCAnLW9tYWUnLCAnPG91dGZpbGUubWFlPic=

> <r_lp_tautomer_probability>
1

> <r_epik_Ionization_Penalty>
0.254079

> <r_epik_Ionization_Penalty_Charging>
0

> <r_epik_Ionization_Penalty_Neutral>
0.254079

> <r_epik_State_Penalty>
0.245493

> <r_epik_Charging_Adjusted_Penalty>
0.245493

> <i_epik_Tot_Q>
1

> <i_epik_Tot_abs_Q>
1

> <r_epik_Metal_State_Penalty>
0.535648

> <b_epik_Metal_Only>
0

> <s_lp_Force_Field>
OPLS_2005

> <r_lp_Energy>
43.2206

> <b_lp_Chiralities_Consistent>
1

> <s_lp_Variant>
AV-unprocessed.smi:1539-1

> <Gold.Version>
5.8.1

> <Gold.Id.Protein>
6NUR|6NUR_protein|mol2

> <Gold.PLP.Fitness>
45.3895

> <Gold.PLP.PLP>
-40.6392

> <Gold.PLP.part.hbond>
-4.6039

> <Gold.PLP.part.metal>
0.0000

> <Gold.PLP.part.buried>
0.8135

> <Gold.PLP.part.nonpolar>
-37.3470

> <Gold.PLP.part.repulsive>
0.1840

> <Gold.PLP.ligand.clash>
0.3255

> <Gold.PLP.ligand.torsion>
0.4725

> <Gold.PLP.Chemscore.Hbond>
2.0000

> <Gold.PLP.Chemscore.CHOScore>
0.0000

> <Gold.PLP.Chemscore.Metal>
0.0000

> <Gold.Chemscore.Hbonds>
donor molecule, donor type, donor heavy atom, donor atom, acceptor molecule, acceptor atom, score
      L1  H    17    42       P1  7948  2.00

> <Gold.PLP.Chemscore.Internal.Correction>
0.0209

> <Gold.Rescore>
     Score         DG    S(hbond)    S(metal)    S(lipo)     H(rot)  DE(clash)    DE(int)     intcor
     13.98     -16.29       1.24        0.00      94.18       1.70       1.80       0.51       ----

> <Gold.Chemscore.Fitness>
13.9820

> <Gold.Chemscore.DG>
-16.2943

> <Gold.Chemscore.ZeroCoef>
-5.4800

> <Gold.Chemscore.Hbond>
1.2443

> <Gold.Chemscore.Metal>
0.0000

> <Gold.Chemscore.Lipo>
94.1846

> <Gold.Chemscore.Internal_Hbond>
0.0000

> <Gold.Chemscore.DEClash>
1.8025

> <Gold.Chemscore.DEInternal>
0.5098

> <Gold.Chemscore.Rot>
1.7036

> <Gold.Chemscore.Internal.Correction>
   9.000000E+99

> <Gold.Chemscore.Hbonds>
donor molecule, donor type, donor heavy atom, donor atom, acceptor molecule, acceptor atom, score
      L1  H    17    42       P1  7948  1.00

> <Gold.Chemscore.Hbond.Weighted>
-4.1560

> <Gold.Chemscore.Metal.Weighted>
-0.0000

> <Gold.Chemscore.Lipo.Weighted>
-11.0196

> <Gold.Chemscore.Internal_Hbond.Weighted>
0.0000

> <Gold.Chemscore.DEClash.Weighted>
1.8025

> <Gold.Chemscore.DEInternal.Weighted>
0.5098

> <Gold.Chemscore.Rot.Weighted>
4.3613

> <Gold.Chemscore.Internal.Correction.Weighted>
   9.000000E+99

> <Gold.Protein.RotatedTorsions>
[ 6907 6896 6895 6894 ] final   79.58 input  -60.11 | X-H torsion
[ 7974 7965 7964 7962 ] final -149.48 input  175.53 | X-H torsion
[ 8008 7997 7996 7995 ] final  148.84 input   59.86 | X-H torsion
[ 10167 10162 10161 10158 ] final  -77.74 input  -65.29 | X-H torsion
[ 10718 10713 10712 10709 ] final  119.67 input   66.30 | X-H torsion
[ 10763 10752 10751 10750 ] final -101.69 input  -60.55 | X-H torsion
[ 11005 11000 10999 10996 ] final  159.16 input  -57.11 | X-H torsion

> <Gold.Protein.ActiveResidues>
 VAL166  LYS551  ARG553  GLY616  TRP617  ASP618  TYR619  PRO620  LYS621  CYS622 
 ASP623  PHE694  ASN695  SER759  ASP760  ASP761  ALA762  ILE779  LEU786  VAL792 
 PHE793  MET794  SER795  GLU796  ALA797  LYS798  CYS799  TRP800  GLU811  SER814 

> <Gold.Protein.RotatedAtoms>
  152.5204  134.3489  159.9243 H   0  0  0  0  0  0  0  0  0  0  0  0  # atno 6907 bound_to 6896
  151.3439  133.3945  159.2681 H   0  0  0  0  0  0  0  0  0  0  0  0  # atno 6908 bound_to 6896
  150.9781  134.9160  159.7886 H   0  0  0  0  0  0  0  0  0  0  0  0  # atno 6909 bound_to 6896
  144.7965  140.5058  143.5737 H   0  0  0  0  0  0  0  0  0  0  0  0  # atno 7974 bound_to 7965
  156.2777  140.2118  156.5762 H   0  0  0  0  0  0  0  0  0  0  0  0  # atno 8008 bound_to 7997
  154.7095  140.0513  157.0560 H   0  0  0  0  0  0  0  0  0  0  0  0  # atno 8009 bound_to 7997
  155.0624  140.3168  155.4659 H   0  0  0  0  0  0  0  0  0  0  0  0  # atno 8010 bound_to 7997
  140.4744  143.2418  151.8156 H   0  0  0  0  0  0  0  0  0  0  0  0  # atno 10167 bound_to 10162
  157.5945  131.1060  150.7929 H   0  0  0  0  0  0  0  0  0  0  0  0  # atno 10718 bound_to 10713
  154.7677  135.4888  153.9587 H   0  0  0  0  0  0  0  0  0  0  0  0  # atno 10763 bound_to 10752
  153.1329  135.6756  153.9157 H   0  0  0  0  0  0  0  0  0  0  0  0  # atno 10764 bound_to 10752
  153.8856  135.3127  155.3425 H   0  0  0  0  0  0  0  0  0  0  0  0  # atno 10765 bound_to 10752
  140.1935  134.8390  157.2938 H   0  0  0  0  0  0  0  0  0  0  0  0  # atno 11005 bound_to 11000
  145.5661  139.1481  143.3314 LP  0  0  0  0  0  0  0  0  0  0  0  0  # atno 17320 bound_to 7965
  146.2234  140.5796  142.9007 LP  0  0  0  0  0  0  0  0  0  0  0  0  # atno 17321 bound_to 7965
  139.4823  144.4852  151.9256 LP  0  0  0  0  0  0  0  0  0  0  0  0  # atno 17342 bound_to 10162
  140.3937  144.2582  150.5897 LP  0  0  0  0  0  0  0  0  0  0  0  0  # atno 17343 bound_to 10162
  156.8342  130.5026  149.5328 LP  0  0  0  0  0  0  0  0  0  0  0  0  # atno 17370 bound_to 10713
  156.1005  130.5965  150.9886 LP  0  0  0  0  0  0  0  0  0  0  0  0  # atno 17371 bound_to 10713
  140.2133  134.4111  155.7601 LP  0  0  0  0  0  0  0  0  0  0  0  0  # atno 17394 bound_to 11000
  141.2226  133.7129  156.8374 LP  0  0  0  0  0  0  0  0  0  0  0  0  # atno 17395 bound_to 11000

$$$$
