AV-unprocessed.smi:1873|AV-procd|sdf|7607|dock6
  -GOLD-   22720 9323D 1   1.00000     0.00000
 Structure written by MMmdl.
 36 38  0  0  0  0  0  0  0  0  1 V2000
  150.0408  142.4007  155.5761 O   0  0  0  0  0  0  0  0  0  0  0  0
  150.5417  141.5088  156.5540 C   0  0  2  0  0  0  0  0  0  0  0  0
  151.9047  142.0104  157.0686 C   0  0  0  0  0  0  0  0  0  0  0  0
  151.7825  142.8078  158.2754 N   0  0  0  0  0  0  0  0  0  0  0  0
  151.0894  143.9524  158.4295 C   0  0  0  0  0  0  0  0  0  0  0  0
  151.1127  144.5214  159.6317 N   0  0  0  0  0  0  0  0  0  0  0  0
  151.9148  143.6437  160.3408 C   0  0  0  0  0  0  0  0  0  0  0  0
  152.3363  143.6706  161.6896 C   0  0  0  0  0  0  0  0  0  0  0  0
  153.1657  142.6499  162.1995 C   0  0  0  0  0  0  0  0  0  0  0  0
  153.5864  141.5891  161.3710 C   0  0  0  0  0  0  0  0  0  0  0  0
  153.1797  141.5408  160.0237 C   0  0  0  0  0  0  0  0  0  0  0  0
  152.3517  142.5610  159.5194 C   0  0  0  0  0  0  0  0  0  0  0  0
  150.6378  140.0807  156.0403 C   0  0  0  0  0  0  0  0  0  0  0  0
  151.0469  139.0325  156.8921 C   0  0  0  0  0  0  0  0  0  0  0  0
  151.1201  137.7124  156.4081 C   0  0  0  0  0  0  0  0  0  0  0  0
  150.7914  137.4188  155.0694 C   0  0  0  0  0  0  0  0  0  0  0  0
  150.8674  136.1059  154.6624 O   0  0  0  0  0  0  0  0  0  0  0  0
  149.9458  135.2128  155.1116 C   0  0  0  0  0  0  0  0  0  0  0  0
  148.7067  135.5999  154.7240 F   0  0  0  0  0  0  0  0  0  0  0  0
  150.1759  133.9868  154.5802 F   0  0  0  0  0  0  0  0  0  0  0  0
  150.3678  138.4695  154.2205 C   0  0  0  0  0  0  0  0  0  0  0  0
  150.2944  139.7901  154.7036 C   0  0  0  0  0  0  0  0  0  0  0  0
  149.4215  142.9820  155.9902 H   0  0  0  0  0  0  0  0  0  0  0  0
  149.8285  141.5224  157.3791 H   0  0  0  0  0  0  0  0  0  0  0  0
  152.5579  141.1650  157.2890 H   0  0  0  0  0  0  0  0  0  0  0  0
  152.4089  142.6043  156.3046 H   0  0  0  0  0  0  0  0  0  0  0  0
  150.5337  144.3912  157.6134 H   0  0  0  0  0  0  0  0  0  0  0  0
  152.0199  144.4780  162.3334 H   0  0  0  0  0  0  0  0  0  0  0  0
  153.4808  142.6812  163.2322 H   0  0  0  0  0  0  0  0  0  0  0  0
  154.2215  140.8122  161.7707 H   0  0  0  0  0  0  0  0  0  0  0  0
  153.4988  140.7301  159.3857 H   0  0  0  0  0  0  0  0  0  0  0  0
  151.3020  139.2358  157.9219 H   0  0  0  0  0  0  0  0  0  0  0  0
  151.4320  136.9181  157.0702 H   0  0  0  0  0  0  0  0  0  0  0  0
  149.9473  135.1436  156.1996 H   0  0  0  0  0  0  0  0  0  0  0  0
  150.0873  138.2756  153.1960 H   0  0  0  0  0  0  0  0  0  0  0  0
  149.9669  140.5794  154.0427 H   0  0  0  0  0  0  0  0  0  0  0  0
  1  2  1  0  0  0  0
  1 23  1  0  0  0  0
  2  3  1  0  0  0  0
  2 13  1  0  0  0  0
  2 24  1  0  0  0  0
  3  4  1  0  0  0  0
  3 25  1  0  0  0  0
  3 26  1  0  0  0  0
  4 12  1  0  0  0  0
  4  5  1  0  0  0  0
  5  6  2  0  0  0  0
  5 27  1  0  0  0  0
  6  7  1  0  0  0  0
  7 12  2  0  0  0  0
  7  8  1  0  0  0  0
  8  9  2  0  0  0  0
  8 28  1  0  0  0  0
  9 10  1  0  0  0  0
  9 29  1  0  0  0  0
 10 11  2  0  0  0  0
 10 30  1  0  0  0  0
 11 12  1  0  0  0  0
 11 31  1  0  0  0  0
 13 22  1  0  0  0  0
 13 14  2  0  0  0  0
 14 15  1  0  0  0  0
 14 32  1  0  0  0  0
 15 16  2  0  0  0  0
 15 33  1  0  0  0  0
 16 17  1  0  0  0  0
 16 21  1  0  0  0  0
 17 18  1  0  0  0  0
 18 19  1  0  0  0  0
 18 20  1  0  0  0  0
 18 34  1  0  0  0  0
 21 22  2  0  0  0  0
 21 35  1  0  0  0  0
 22 36  1  0  0  0  0
M  END
> <s_m_source_file>
AV-unprocessed.smi

> <i_m_source_file_index>
1873

> <i_lp_mmshare_version>
43012

> <i_f3d_flags>
0

> <s_epik_input>
RltDSF0oRilPYyhbY0hdW2NIXTEpW2NIXVtjSF1jMVtDQEhdKFtPSF0pW0NIMl1uKFtjSF1uMiljKGMyMylbY0hdW2NIXVtjSF1bY0hdMw==

> <s_epik_cmdline>
J2VwaWtfcHl0aG9uJywgJy1waCcsICc3LjAnLCAnLXRuJywgJzgnLCAnLW1hJywgJzIwMCcsICctbWV0YWxfYmluZGluZycsICctaW1hZScsICc8aW5maWxlLm1hZT4nLCAnLW9tYWUnLCAnPG91dGZpbGUubWFlPic=

> <r_lp_tautomer_probability>
1

> <r_epik_Ionization_Penalty>
0.0696507

> <r_epik_Ionization_Penalty_Charging>
0

> <r_epik_Ionization_Penalty_Neutral>
0.0696507

> <r_epik_State_Penalty>
0.0610247

> <r_epik_Charging_Adjusted_Penalty>
0.0610247

> <i_epik_Tot_Q>
0

> <i_epik_Tot_abs_Q>
0

> <r_epik_Metal_State_Penalty>
6.42746e-05

> <b_epik_Metal_Only>
0

> <s_lp_Force_Field>
OPLS_2005

> <r_lp_Energy>
11.1273

> <b_lp_Chiralities_Consistent>
1

> <s_lp_Variant>
AV-unprocessed.smi:1873-1

> <Gold.Version>
5.8.1

> <Gold.Id.Protein>
6NUR|6NUR_protein|mol2

> <Gold.PLP.Fitness>
52.5610

> <Gold.PLP.PLP>
-45.5057

> <Gold.PLP.part.hbond>
-2.0000

> <Gold.PLP.part.metal>
0.0000

> <Gold.PLP.part.buried>
-5.0090

> <Gold.PLP.part.nonpolar>
-36.7420

> <Gold.PLP.part.repulsive>
0.2719

> <Gold.PLP.ligand.clash>
0.0000

> <Gold.PLP.ligand.torsion>
0.6487

> <Gold.PLP.Chemscore.Hbond>
1.7680

> <Gold.PLP.Chemscore.CHOScore>
1.0000

> <Gold.PLP.Chemscore.Metal>
0.0000

> <Gold.Chemscore.Hbonds>
donor molecule, donor type, donor heavy atom, donor atom, acceptor molecule, acceptor atom, score
      L1  H     1    23       P1  8028  0.67
      P1  H 10752 10763       L1    17  0.70
      L1  C     5    27       P1  8028  0.97

> <Gold.PLP.Chemscore.Internal.Correction>
0.0488

> <Gold.Rescore>
     Score         DG    S(hbond)    S(metal)    S(lipo)     H(rot)  DE(clash)    DE(int)     intcor
     16.24     -19.66       1.77        0.00     123.15       2.40       2.72       0.69       ----

> <Gold.Chemscore.Fitness>
16.2446

> <Gold.Chemscore.DG>
-19.6597

> <Gold.Chemscore.ZeroCoef>
-5.4800

> <Gold.Chemscore.Hbond>
1.7701

> <Gold.Chemscore.Metal>
0.0000

> <Gold.Chemscore.Lipo>
123.1456

> <Gold.Chemscore.Internal_Hbond>
0.0000

> <Gold.Chemscore.DEClash>
2.7233

> <Gold.Chemscore.DEInternal>
0.6919

> <Gold.Chemscore.Rot>
2.3986

> <Gold.Chemscore.Internal.Correction>
   9.000000E+99

> <Gold.Chemscore.Hbonds>
donor molecule, donor type, donor heavy atom, donor atom, acceptor molecule, acceptor atom, score
      L1  H     1    23       P1  8028  0.68
      P1  H 10752 10763       L1    17  0.40

> <Gold.Chemscore.Hbond.Weighted>
-5.9122

> <Gold.Chemscore.Metal.Weighted>
-0.0000

> <Gold.Chemscore.Lipo.Weighted>
-14.4080

> <Gold.Chemscore.Internal_Hbond.Weighted>
0.0000

> <Gold.Chemscore.DEClash.Weighted>
2.7233

> <Gold.Chemscore.DEInternal.Weighted>
0.6919

> <Gold.Chemscore.Rot.Weighted>
6.1405

> <Gold.Chemscore.Internal.Correction.Weighted>
   9.000000E+99

> <Gold.Protein.RotatedTorsions>
[ 6907 6896 6895 6894 ] final -171.75 input  -60.11 | X-H torsion
[ 7974 7965 7964 7962 ] final   84.08 input  175.53 | X-H torsion
[ 8008 7997 7996 7995 ] final -163.59 input   59.86 | X-H torsion
[ 10167 10162 10161 10158 ] final    3.38 input  -65.29 | X-H torsion
[ 10718 10713 10712 10709 ] final    3.05 input   66.30 | X-H torsion
[ 10763 10752 10751 10750 ] final   66.74 input  -60.55 | X-H torsion
[ 11005 11000 10999 10996 ] final  166.46 input  -57.11 | X-H torsion

> <Gold.Protein.ActiveResidues>
 VAL166  LYS551  ARG553  GLY616  TRP617  ASP618  TYR619  PRO620  LYS621  CYS622 
 ASP623  PHE694  ASN695  SER759  ASP760  ASP761  ALA762  ILE779  LEU786  VAL792 
 PHE793  MET794  SER795  GLU796  ALA797  LYS798  CYS799  TRP800  GLU811  SER814 

> <Gold.Protein.RotatedAtoms>
  151.5289  133.3452  159.2914 H   0  0  0  0  0  0  0  0  0  0  0  0  # atno 6907 bound_to 6896
  150.8606  134.7959  159.7090 H   0  0  0  0  0  0  0  0  0  0  0  0  # atno 6908 bound_to 6896
  152.4626  134.5157  159.9819 H   0  0  0  0  0  0  0  0  0  0  0  0  # atno 6909 bound_to 6896
  145.6035  139.2356  143.2232 H   0  0  0  0  0  0  0  0  0  0  0  0  # atno 7974 bound_to 7965
  155.8235  140.0923  157.1835 H   0  0  0  0  0  0  0  0  0  0  0  0  # atno 8008 bound_to 7997
  154.3979  140.1432  156.3588 H   0  0  0  0  0  0  0  0  0  0  0  0  # atno 8009 bound_to 7997
  155.8241  140.3445  155.5535 H   0  0  0  0  0  0  0  0  0  0  0  0  # atno 8010 bound_to 7997
  140.6588  143.7357  150.7702 H   0  0  0  0  0  0  0  0  0  0  0  0  # atno 10167 bound_to 10162
  156.8721  130.5624  149.5657 H   0  0  0  0  0  0  0  0  0  0  0  0  # atno 10718 bound_to 10713
  153.0153  135.5309  154.6870 H   0  0  0  0  0  0  0  0  0  0  0  0  # atno 10763 bound_to 10752
  154.6015  135.2869  155.0532 H   0  0  0  0  0  0  0  0  0  0  0  0  # atno 10764 bound_to 10752
  154.1588  135.6551  153.5033 H   0  0  0  0  0  0  0  0  0  0  0  0  # atno 10765 bound_to 10752
  140.2667  134.7859  157.3639 H   0  0  0  0  0  0  0  0  0  0  0  0  # atno 11005 bound_to 11000
  146.1558  140.6859  142.9300 LP  0  0  0  0  0  0  0  0  0  0  0  0  # atno 17320 bound_to 7965
  144.7300  140.4642  143.6945 LP  0  0  0  0  0  0  0  0  0  0  0  0  # atno 17321 bound_to 7965
  140.1022  143.4777  152.2419 LP  0  0  0  0  0  0  0  0  0  0  0  0  # atno 17342 bound_to 10162
  139.5817  144.7513  151.3623 LP  0  0  0  0  0  0  0  0  0  0  0  0  # atno 17343 bound_to 10162
  156.0721  130.5751  150.9403 LP  0  0  0  0  0  0  0  0  0  0  0  0  # atno 17370 bound_to 10713
  157.6189  131.0931  150.8658 LP  0  0  0  0  0  0  0  0  0  0  0  0  # atno 17371 bound_to 10713
  140.1412  134.4969  155.8030 LP  0  0  0  0  0  0  0  0  0  0  0  0  # atno 17394 bound_to 11000
  141.2183  133.6826  156.7214 LP  0  0  0  0  0  0  0  0  0  0  0  0  # atno 17395 bound_to 11000

$$$$
