AV-unprocessed.smi:284|AV-procd|sdf|2159|dock9
  -GOLD-   2262021513D 1   1.00000     0.00000
 Structure written by MMmdl.
 60 62  0  0  0  0  0  0  0  0  1 V2000
  151.6734  138.3782  157.3976 C   0  0  0  0  0  0  0  0  0  0  0  0
  152.4672  138.7673  158.6352 C   0  0  0  0  0  0  0  0  0  0  0  0
  152.6722  140.0588  158.9819 C   0  0  0  0  0  0  0  0  0  0  0  0
  153.3959  140.4488  160.0923 N   0  0  0  0  0  0  0  0  0  0  0  0
  153.5428  141.9233  160.4026 C   0  0  2  0  0  0  0  0  0  0  0  0
  152.9095  142.3356  161.7394 C   0  0  0  0  0  0  0  0  0  0  0  0
  152.4927  143.7611  161.4389 C   0  0  2  0  0  0  0  0  0  0  0  0
  151.4123  144.1558  162.2595 O   0  0  0  0  0  0  0  0  0  0  0  0
  152.0989  143.6675  159.9585 C   0  0  1  0  0  0  0  0  0  0  0  0
  152.1683  144.9665  159.1361 C   0  0  0  0  0  0  0  0  0  0  0  0
  151.3980  145.9997  159.7154 O   0  0  0  0  0  0  0  0  0  0  0  0
  152.9325  142.6627  159.3863 O   0  0  0  0  0  0  0  0  0  0  0  0
  153.9246  139.4663  160.9590 C   0  0  0  0  0  0  0  0  0  0  0  0
  154.5404  139.7809  161.9793 O   0  0  0  0  0  0  0  0  0  0  0  0
  153.7286  138.1071  160.6247 N   0  0  0  0  0  0  0  0  0  0  0  0
  154.3175  137.0669  161.4983 C   0  0  0  0  0  0  0  0  0  0  0  0
  155.3083  136.1441  160.7702 C   0  0  0  0  0  0  0  0  0  0  0  0
  154.9638  135.0177  160.4088 O   0  0  0  0  0  0  0  0  0  0  0  0
  156.5242  136.6745  160.5451 N   0  0  0  0  0  0  0  0  0  0  0  0
  157.6488  136.0712  159.9200 C   0  0  0  0  0  0  0  0  0  0  0  0
  157.4042  135.0275  159.0066 C   0  0  0  0  0  0  0  0  0  0  0  0
  158.4688  134.3926  158.3385 C   0  0  0  0  0  0  0  0  0  0  0  0
  159.8089  134.7955  158.5608 C   0  0  0  0  0  0  0  0  0  0  0  0
  161.0020  134.1230  157.8546 C   0  0  0  0  0  0  0  0  0  0  0  0
  160.8453  134.2632  156.3262 C   0  0  0  0  0  0  0  0  0  0  0  0
  161.1234  132.6166  158.1776 C   0  0  0  0  0  0  0  0  0  0  0  0
  162.3152  134.8027  158.2961 C   0  0  0  0  0  0  0  0  0  0  0  0
  160.0429  135.8594  159.4636 C   0  0  0  0  0  0  0  0  0  0  0  0
  158.9803  136.4956  160.1325 C   0  0  0  0  0  0  0  0  0  0  0  0
  153.0187  137.6974  159.4693 C   0  0  0  0  0  0  0  0  0  0  0  0
  152.8904  136.5009  159.2025 O   0  0  0  0  0  0  0  0  0  0  0  0
  151.3258  139.2526  156.8468 H   0  0  0  0  0  0  0  0  0  0  0  0
  150.7987  137.7889  157.6753 H   0  0  0  0  0  0  0  0  0  0  0  0
  152.2877  137.7824  156.7214 H   0  0  0  0  0  0  0  0  0  0  0  0
  152.2509  140.8258  158.3478 H   0  0  0  0  0  0  0  0  0  0  0  0
  154.6110  142.1408  160.3799 H   0  0  0  0  0  0  0  0  0  0  0  0
  152.0455  141.7154  161.9755 H   0  0  0  0  0  0  0  0  0  0  0  0
  153.6281  142.2524  162.5551 H   0  0  0  0  0  0  0  0  0  0  0  0
  153.3424  144.4274  161.5901 H   0  0  0  0  0  0  0  0  0  0  0  0
  151.5157  143.7506  163.1073 H   0  0  0  0  0  0  0  0  0  0  0  0
  151.0828  143.2755  159.8908 H   0  0  0  0  0  0  0  0  0  0  0  0
  153.2015  145.2976  159.0283 H   0  0  0  0  0  0  0  0  0  0  0  0
  151.7841  144.7858  158.1320 H   0  0  0  0  0  0  0  0  0  0  0  0
  150.4891  145.8523  159.5026 H   0  0  0  0  0  0  0  0  0  0  0  0
  154.8281  137.5093  162.3550 H   0  0  0  0  0  0  0  0  0  0  0  0
  153.5350  136.4541  161.9493 H   0  0  0  0  0  0  0  0  0  0  0  0
  156.6372  137.6453  160.7984 H   0  0  0  0  0  0  0  0  0  0  0  0
  156.3917  134.7009  158.8177 H   0  0  0  0  0  0  0  0  0  0  0  0
  158.2235  133.5935  157.6567 H   0  0  0  0  0  0  0  0  0  0  0  0
  161.6674  133.7794  155.7975 H   0  0  0  0  0  0  0  0  0  0  0  0
  160.8319  135.3057  156.0079 H   0  0  0  0  0  0  0  0  0  0  0  0
  159.9187  133.8030  155.9811 H   0  0  0  0  0  0  0  0  0  0  0  0
  160.2393  132.0630  157.8593 H   0  0  0  0  0  0  0  0  0  0  0  0
  161.2670  132.4427  159.2447 H   0  0  0  0  0  0  0  0  0  0  0  0
  161.9773  132.1710  157.6660 H   0  0  0  0  0  0  0  0  0  0  0  0
  163.1817  134.3337  157.8285 H   0  0  0  0  0  0  0  0  0  0  0  0
  162.4500  134.7353  159.3764 H   0  0  0  0  0  0  0  0  0  0  0  0
  162.3418  135.8588  158.0276 H   0  0  0  0  0  0  0  0  0  0  0  0
  161.0486  136.2042  159.6513 H   0  0  0  0  0  0  0  0  0  0  0  0
  159.2106  137.3161  160.7947 H   0  0  0  0  0  0  0  0  0  0  0  0
  1  2  1  0  0  0  0
  1 32  1  0  0  0  0
  1 33  1  0  0  0  0
  1 34  1  0  0  0  0
  2 30  1  0  0  0  0
  2  3  2  0  0  0  0
  3  4  1  0  0  0  0
  3 35  1  0  0  0  0
  4  5  1  0  0  0  0
  4 13  1  0  0  0  0
  5 12  1  0  0  0  0
  5  6  1  0  0  0  0
  5 36  1  0  0  0  0
  6  7  1  0  0  0  0
  6 37  1  0  0  0  0
  6 38  1  0  0  0  0
  7  8  1  0  0  0  0
  7  9  1  0  0  0  0
  7 39  1  0  0  0  0
  8 40  1  0  0  0  0
  9 10  1  0  0  0  0
  9 12  1  0  0  0  0
  9 41  1  0  0  0  0
 10 11  1  0  0  0  0
 10 42  1  0  0  0  0
 10 43  1  0  0  0  0
 11 44  1  0  0  0  0
 13 14  2  0  0  0  0
 13 15  1  0  0  0  0
 15 16  1  0  0  0  0
 15 30  1  0  0  0  0
 16 17  1  0  0  0  0
 16 45  1  0  0  0  0
 16 46  1  0  0  0  0
 17 18  2  0  0  0  0
 17 19  1  0  0  0  0
 19 20  1  0  0  0  0
 19 47  1  0  0  0  0
 20 29  1  0  0  0  0
 20 21  2  0  0  0  0
 21 22  1  0  0  0  0
 21 48  1  0  0  0  0
 22 23  2  0  0  0  0
 22 49  1  0  0  0  0
 23 24  1  0  0  0  0
 23 28  1  0  0  0  0
 24 25  1  0  0  0  0
 24 26  1  0  0  0  0
 24 27  1  0  0  0  0
 25 50  1  0  0  0  0
 25 51  1  0  0  0  0
 25 52  1  0  0  0  0
 26 53  1  0  0  0  0
 26 54  1  0  0  0  0
 26 55  1  0  0  0  0
 27 56  1  0  0  0  0
 27 57  1  0  0  0  0
 27 58  1  0  0  0  0
 28 29  2  0  0  0  0
 28 59  1  0  0  0  0
 29 60  1  0  0  0  0
 30 31  2  0  0  0  0
M  END
> <s_m_source_file>
AV-unprocessed.smi

> <i_m_source_file_index>
284

> <i_lp_mmshare_version>
43012

> <i_f3d_flags>
0

> <s_epik_input>
W09IXVtDSDJdW0NAQEhdKE8xKVtDQEhdKFtPSF0pW0NIMl1bQ0BIXTFuKFtjSF1jMltDSDNdKWMoPU8pbihjMj1PKVtDSDJdQyg9TylbTkhdYzNbY0hdW2NIXWMoQyhbQ0gzXSkoW0NIM10pW0NIM10pW2NIXVtjSF0z

> <s_epik_cmdline>
J2VwaWtfcHl0aG9uJywgJy1waCcsICc3LjAnLCAnLXRuJywgJzgnLCAnLW1hJywgJzIwMCcsICctbWV0YWxfYmluZGluZycsICctaW1hZScsICc8aW5maWxlLm1hZT4nLCAnLW9tYWUnLCAnPG91dGZpbGUubWFlPic=

> <r_lp_tautomer_probability>
1

> <r_epik_Ionization_Penalty>
4.92358e-06

> <r_epik_Ionization_Penalty_Charging>
1.29777e-07

> <r_epik_Ionization_Penalty_Neutral>
4.79381e-06

> <r_epik_State_Penalty>
-0

> <r_epik_Charging_Adjusted_Penalty>
1.29777e-07

> <i_epik_Tot_Q>
0

> <i_epik_Tot_abs_Q>
0

> <r_epik_Metal_State_Penalty>
-0

> <b_epik_Metal_Only>
0

> <s_epik_Chemistry_Notes>
This compound contains an acetal/aminal-like group ( X-CH(R)-Y where X, Y are N, S, or O) that may be acid/base labile, releasing an aldehyde.

> <s_lp_Force_Field>
OPLS_2005

> <r_lp_Energy>
37.3901

> <b_lp_Chiralities_Consistent>
1

> <s_lp_Variant>
AV-unprocessed.smi:284-3

> <Gold.Version>
5.8.1

> <Gold.Id.Protein>
6NUR|6NUR_protein|mol2

> <Gold.PLP.Fitness>
50.9272

> <Gold.PLP.PLP>
-48.6947

> <Gold.PLP.part.hbond>
-4.9463

> <Gold.PLP.part.metal>
0.0000

> <Gold.PLP.part.buried>
-8.4546

> <Gold.PLP.part.nonpolar>
-35.1515

> <Gold.PLP.part.repulsive>
0.0000

> <Gold.PLP.ligand.clash>
0.0000

> <Gold.PLP.ligand.torsion>
0.3894

> <Gold.PLP.Chemscore.Hbond>
0.9920

> <Gold.PLP.Chemscore.CHOScore>
0.0000

> <Gold.PLP.Chemscore.Metal>
0.0000

> <Gold.Chemscore.Hbonds>
donor molecule, donor type, donor heavy atom, donor atom, acceptor molecule, acceptor atom, score
      P1  H  6896  6907       L1    31  0.96

> <Gold.PLP.Chemscore.Internal.Correction>
0.0353

> <Gold.Rescore>
     Score         DG    S(hbond)    S(metal)    S(lipo)     H(rot)  DE(clash)    DE(int)     intcor
      5.10     -10.52       1.19        0.00      80.60       3.27       0.12       5.29       ----

> <Gold.Chemscore.Fitness>
5.1011

> <Gold.Chemscore.DG>
-10.5159

> <Gold.Chemscore.ZeroCoef>
-5.4800

> <Gold.Chemscore.Hbond>
1.1933

> <Gold.Chemscore.Metal>
0.0000

> <Gold.Chemscore.Lipo>
80.6017

> <Gold.Chemscore.Internal_Hbond>
0.0000

> <Gold.Chemscore.DEClash>
0.1214

> <Gold.Chemscore.DEInternal>
5.2934

> <Gold.Chemscore.Rot>
3.2735

> <Gold.Chemscore.Internal.Correction>
   9.000000E+99

> <Gold.Chemscore.Hbonds>
donor molecule, donor type, donor heavy atom, donor atom, acceptor molecule, acceptor atom, score
      P1  H  6896  6907       L1    31  0.92

> <Gold.Chemscore.Hbond.Weighted>
-3.9855

> <Gold.Chemscore.Metal.Weighted>
-0.0000

> <Gold.Chemscore.Lipo.Weighted>
-9.4304

> <Gold.Chemscore.Internal_Hbond.Weighted>
0.0000

> <Gold.Chemscore.DEClash.Weighted>
0.1214

> <Gold.Chemscore.DEInternal.Weighted>
5.2934

> <Gold.Chemscore.Rot.Weighted>
8.3801

> <Gold.Chemscore.Internal.Correction.Weighted>
   9.000000E+99

> <Gold.Protein.RotatedTorsions>
[ 6907 6896 6895 6894 ] final   35.74 input  -60.11 | X-H torsion
[ 7974 7965 7964 7962 ] final  110.01 input  175.53 | X-H torsion
[ 8008 7997 7996 7995 ] final -174.95 input   59.86 | X-H torsion
[ 10167 10162 10161 10158 ] final    3.50 input  -65.29 | X-H torsion
[ 10718 10713 10712 10709 ] final  140.72 input   66.30 | X-H torsion
[ 10763 10752 10751 10750 ] final  -39.66 input  -60.55 | X-H torsion
[ 11005 11000 10999 10996 ] final   44.88 input  -57.11 | X-H torsion

> <Gold.Protein.ActiveResidues>
 VAL166  LYS551  ARG553  GLY616  TRP617  ASP618  TYR619  PRO620  LYS621  CYS622 
 ASP623  PHE694  ASN695  SER759  ASP760  ASP761  ALA762  ILE779  LEU786  VAL792 
 PHE793  MET794  SER795  GLU796  ALA797  LYS798  CYS799  TRP800  GLU811  SER814 

> <Gold.Protein.RotatedAtoms>
  152.1202  134.9211  160.0563 H   0  0  0  0  0  0  0  0  0  0  0  0  # atno 6907 bound_to 6896
  152.0354  133.3950  159.4323 H   0  0  0  0  0  0  0  0  0  0  0  0  # atno 6908 bound_to 6896
  150.6848  134.3395  159.4905 H   0  0  0  0  0  0  0  0  0  0  0  0  # atno 6909 bound_to 6896
  145.2604  139.2704  143.4020 H   0  0  0  0  0  0  0  0  0  0  0  0  # atno 7974 bound_to 7965
  155.9765  140.1173  157.0765 H   0  0  0  0  0  0  0  0  0  0  0  0  # atno 8008 bound_to 7997
  154.4171  140.1153  156.5445 H   0  0  0  0  0  0  0  0  0  0  0  0  # atno 8009 bound_to 7997
  155.6527  140.3473  155.4756 H   0  0  0  0  0  0  0  0  0  0  0  0  # atno 8010 bound_to 7997
  140.6582  143.7372  150.7691 H   0  0  0  0  0  0  0  0  0  0  0  0  # atno 10167 bound_to 10162
  157.4001  131.1015  151.0560 H   0  0  0  0  0  0  0  0  0  0  0  0  # atno 10718 bound_to 10713
  153.9331  135.6769  153.4745 H   0  0  0  0  0  0  0  0  0  0  0  0  # atno 10763 bound_to 10752
  153.0969  135.4847  154.8793 H   0  0  0  0  0  0  0  0  0  0  0  0  # atno 10764 bound_to 10752
  154.7417  135.3162  154.8673 H   0  0  0  0  0  0  0  0  0  0  0  0  # atno 10765 bound_to 10752
  140.1511  134.4461  155.8381 H   0  0  0  0  0  0  0  0  0  0  0  0  # atno 11005 bound_to 11000
  146.3277  140.3020  142.8621 LP  0  0  0  0  0  0  0  0  0  0  0  0  # atno 17320 bound_to 7965
  144.9423  140.8091  143.5623 LP  0  0  0  0  0  0  0  0  0  0  0  0  # atno 17321 bound_to 7965
  140.1036  143.4765  152.2411 LP  0  0  0  0  0  0  0  0  0  0  0  0  # atno 17342 bound_to 10162
  139.5810  144.7510  151.3641 LP  0  0  0  0  0  0  0  0  0  0  0  0  # atno 17343 bound_to 10162
  157.1562  130.6205  149.5597 LP  0  0  0  0  0  0  0  0  0  0  0  0  # atno 17370 bound_to 10713
  155.9821  130.4832  150.6863 LP  0  0  0  0  0  0  0  0  0  0  0  0  # atno 17371 bound_to 10713
  141.2199  133.6872  156.7422 LP  0  0  0  0  0  0  0  0  0  0  0  0  # atno 17394 bound_to 11000
  140.2604  134.8471  157.3753 LP  0  0  0  0  0  0  0  0  0  0  0  0  # atno 17395 bound_to 11000

$$$$
