AV-unprocessed.smi:1279|AV-procd|sdf|5356|dock3
  -GOLD-   22720 4493D 1   1.00000     0.00000
 Structure written by MMmdl.
 46 47  0  0  0  0  0  0  0  0  2 V2000
  154.0862  141.2418  161.5109 C   0  0  0  0  0  0  0  0  0  0  0  0
  153.2629  142.0085  160.5187 C   0  0  0  0  0  0  0  0  0  0  0  0
  152.5815  141.5084  159.3711 C   0  0  0  0  0  0  0  0  0  0  0  0
  152.0058  142.6340  158.8484 C   0  0  0  0  0  0  0  0  0  0  0  0
  151.2229  142.7601  157.7441 N   0  0  0  0  0  0  0  0  0  0  0  0
  150.8151  141.8048  156.8903 C   0  0  0  0  0  0  0  0  0  0  0  0
  151.0933  140.6080  156.9683 O   0  0  0  0  0  0  0  0  0  0  0  0
  150.0563  142.3197  155.9121 N   0  0  0  0  0  0  0  0  0  0  0  0
  149.4596  141.5508  154.8257 C   0  0  0  0  0  0  0  0  0  0  0  0
  148.0176  141.1225  155.1611 C   0  0  0  0  0  0  0  0  0  0  0  0
  147.1005  142.2806  155.3114 N   0  3  2  0  0  0  0  0  0  0  0  0
  146.3254  142.2182  156.5777 C   0  0  0  0  0  0  0  0  0  0  0  0
  145.4776  143.4869  156.7808 C   0  0  0  0  0  0  0  0  0  0  0  0
  144.5422  143.7592  155.5893 C   0  0  2  0  0  0  0  0  0  0  0  0
  143.3430  142.7958  155.5421 C   0  0  0  0  0  0  0  0  0  0  0  0
  145.3626  143.7555  154.2868 C   0  0  0  0  0  0  0  0  0  0  0  0
  146.2121  142.4807  154.1355 C   0  0  0  0  0  0  0  0  0  0  0  0
  152.3322  143.7107  159.6428 N   0  0  0  0  0  0  0  0  0  0  0  0
  151.9591  145.1050  159.5041 C   0  0  0  0  0  0  0  0  0  0  0  0
  153.1104  143.3188  160.6748 N   0  0  0  0  0  0  0  0  0  0  0  0
  154.1226  140.1821  161.2578 H   0  0  0  0  0  0  0  0  0  0  0  0
  153.6714  141.3282  162.5155 H   0  0  0  0  0  0  0  0  0  0  0  0
  155.1116  141.6108  161.5389 H   0  0  0  0  0  0  0  0  0  0  0  0
  152.5348  140.4912  159.0126 H   0  0  0  0  0  0  0  0  0  0  0  0
  150.9214  143.7012  157.5381 H   0  0  0  0  0  0  0  0  0  0  0  0
  149.8740  143.3128  155.9230 H   0  0  0  0  0  0  0  0  0  0  0  0
  149.4809  142.1330  153.9027 H   0  0  0  0  0  0  0  0  0  0  0  0
  150.0961  140.6826  154.6598 H   0  0  0  0  0  0  0  0  0  0  0  0
  147.6294  140.4383  154.4048 H   0  0  0  0  0  0  0  0  0  0  0  0
  148.0360  140.5641  156.0979 H   0  0  0  0  0  0  0  0  0  0  0  0
  145.6930  141.3293  156.5776 H   0  0  0  0  0  0  0  0  0  0  0  0
  147.0095  142.1147  157.4211 H   0  0  0  0  0  0  0  0  0  0  0  0
  144.9018  143.4090  157.7037 H   0  0  0  0  0  0  0  0  0  0  0  0
  146.1446  144.3400  156.9133 H   0  0  0  0  0  0  0  0  0  0  0  0
  144.1286  144.7605  155.7163 H   0  0  0  0  0  0  0  0  0  0  0  0
  143.6513  141.7583  155.4173 H   0  0  0  0  0  0  0  0  0  0  0  0
  142.6762  143.0424  154.7153 H   0  0  0  0  0  0  0  0  0  0  0  0
  142.7582  142.8563  156.4605 H   0  0  0  0  0  0  0  0  0  0  0  0
  144.7042  143.8716  153.4251 H   0  0  0  0  0  0  0  0  0  0  0  0
  146.0244  144.6228  154.2793 H   0  0  0  0  0  0  0  0  0  0  0  0
  146.8041  142.5653  153.2251 H   0  0  0  0  0  0  0  0  0  0  0  0
  145.5700  141.6084  154.0080 H   0  0  0  0  0  0  0  0  0  0  0  0
  152.1749  145.4445  158.4908 H   0  0  0  0  0  0  0  0  0  0  0  0
  152.5171  145.7238  160.2085 H   0  0  0  0  0  0  0  0  0  0  0  0
  150.8925  145.2183  159.6995 H   0  0  0  0  0  0  0  0  0  0  0  0
  147.6856  143.1010  155.3831 H   0  0  0  0  0  0  0  0  0  0  0  0
  1  2  1  0  0  0  0
  1 21  1  0  0  0  0
  1 22  1  0  0  0  0
  1 23  1  0  0  0  0
  2 20  2  0  0  0  0
  2  3  1  0  0  0  0
  3  4  2  0  0  0  0
  3 24  1  0  0  0  0
  4  5  1  0  0  0  0
  4 18  1  0  0  0  0
  5  6  1  0  0  0  0
  5 25  1  0  0  0  0
  6  7  2  0  0  0  0
  6  8  1  0  0  0  0
  8  9  1  0  0  0  0
  8 26  1  0  0  0  0
  9 10  1  0  0  0  0
  9 27  1  0  0  0  0
  9 28  1  0  0  0  0
 10 11  1  0  0  0  0
 10 29  1  0  0  0  0
 10 30  1  0  0  0  0
 11 17  1  0  0  0  0
 11 12  1  0  0  0  0
 11 46  1  0  0  0  0
 12 13  1  0  0  0  0
 12 31  1  0  0  0  0
 12 32  1  0  0  0  0
 13 14  1  0  0  0  0
 13 33  1  0  0  0  0
 13 34  1  0  0  0  0
 14 15  1  0  0  0  0
 14 16  1  0  0  0  0
 14 35  1  0  0  0  0
 15 36  1  0  0  0  0
 15 37  1  0  0  0  0
 15 38  1  0  0  0  0
 16 17  1  0  0  0  0
 16 39  1  0  0  0  0
 16 40  1  0  0  0  0
 17 41  1  0  0  0  0
 17 42  1  0  0  0  0
 18 19  1  0  0  0  0
 18 20  1  0  0  0  0
 19 43  1  0  0  0  0
 19 44  1  0  0  0  0
 19 45  1  0  0  0  0
M  CHG  1  11   1
M  END
> <s_m_source_file>
AV-unprocessed.smi

> <i_m_source_file_index>
1279

> <i_lp_mmshare_version>
43012

> <i_f3d_flags>
0

> <s_epik_input>
W0NIM11jMVtjSF1jKG4objEpW0NIM10pW05IXUMoPU8pW05IXVtDSDJdW0NIMl1OMltDSDJdW0NIMl1bQ0hdKFtDSDNdKVtDSDJdW0NIMl0y

> <s_epik_cmdline>
J2VwaWtfcHl0aG9uJywgJy1waCcsICc3LjAnLCAnLXRuJywgJzgnLCAnLW1hJywgJzIwMCcsICctbWV0YWxfYmluZGluZycsICctaW1hZScsICc8aW5maWxlLm1hZT4nLCAnLW9tYWUnLCAnPG91dGZpbGUubWFlPic=

> <r_lp_tautomer_probability>
1

> <r_epik_Ionization_Penalty>
0.00166091

> <r_epik_Ionization_Penalty_Charging>
0.0015841

> <r_epik_Ionization_Penalty_Neutral>
7.68112e-05

> <r_epik_State_Penalty>
0.00106518

> <r_epik_Charging_Adjusted_Penalty>
0.00264928

> <i_epik_Tot_Q>
1

> <i_epik_Tot_abs_Q>
1

> <r_epik_Metal_State_Penalty>
-0

> <b_epik_Metal_Only>
0

> <s_lp_Force_Field>
OPLS_2005

> <r_lp_Energy>
19.8524

> <b_lp_Chiralities_Consistent>
1

> <s_lp_Variant>
AV-unprocessed.smi:1279-2

> <Gold.Version>
5.8.1

> <Gold.Id.Protein>
6NUR|6NUR_protein|mol2

> <Gold.PLP.Fitness>
49.9627

> <Gold.PLP.PLP>
-42.6231

> <Gold.PLP.part.hbond>
-2.0000

> <Gold.PLP.part.metal>
0.0000

> <Gold.PLP.part.buried>
-4.7727

> <Gold.PLP.part.nonpolar>
-35.8003

> <Gold.PLP.part.repulsive>
0.2716

> <Gold.PLP.ligand.clash>
0.0000

> <Gold.PLP.ligand.torsion>
0.8455

> <Gold.PLP.Chemscore.Hbond>
3.0000

> <Gold.PLP.Chemscore.CHOScore>
0.0000

> <Gold.PLP.Chemscore.Metal>
0.0000

> <Gold.Chemscore.Hbonds>
donor molecule, donor type, donor heavy atom, donor atom, acceptor molecule, acceptor atom, score
      L1  H     8    26       P1  8028  1.00
      L1  H    11    46       P1  8028  2.00

> <Gold.PLP.Chemscore.Internal.Correction>
0.0305

> <Gold.Rescore>
     Score         DG    S(hbond)    S(metal)    S(lipo)     H(rot)  DE(clash)    DE(int)     intcor
     14.49     -16.47       1.53        0.00      82.67       1.48       0.03       1.94       ----

> <Gold.Chemscore.Fitness>
14.4901

> <Gold.Chemscore.DG>
-16.4669

> <Gold.Chemscore.ZeroCoef>
-5.4800

> <Gold.Chemscore.Hbond>
1.5308

> <Gold.Chemscore.Metal>
0.0000

> <Gold.Chemscore.Lipo>
82.6710

> <Gold.Chemscore.Internal_Hbond>
0.0000

> <Gold.Chemscore.DEClash>
0.0339

> <Gold.Chemscore.DEInternal>
1.9429

> <Gold.Chemscore.Rot>
1.4838

> <Gold.Chemscore.Internal.Correction>
   9.000000E+99

> <Gold.Chemscore.Hbonds>
donor molecule, donor type, donor heavy atom, donor atom, acceptor molecule, acceptor atom, score
      L1  H     8    26       P1  8028  0.98
      L1  H    11    46       P1  8028  0.43

> <Gold.Chemscore.Hbond.Weighted>
-5.1129

> <Gold.Chemscore.Metal.Weighted>
-0.0000

> <Gold.Chemscore.Lipo.Weighted>
-9.6725

> <Gold.Chemscore.Internal_Hbond.Weighted>
0.0000

> <Gold.Chemscore.DEClash.Weighted>
0.0339

> <Gold.Chemscore.DEInternal.Weighted>
1.9429

> <Gold.Chemscore.Rot.Weighted>
3.7985

> <Gold.Chemscore.Internal.Correction.Weighted>
   9.000000E+99

> <Gold.Protein.RotatedTorsions>
[ 6907 6896 6895 6894 ] final  -57.97 input  -60.11 | X-H torsion
[ 7974 7965 7964 7962 ] final   90.73 input  175.53 | X-H torsion
[ 8008 7997 7996 7995 ] final -100.08 input   59.86 | X-H torsion
[ 10167 10162 10161 10158 ] final   76.19 input  -65.29 | X-H torsion
[ 10718 10713 10712 10709 ] final   25.44 input   66.30 | X-H torsion
[ 10763 10752 10751 10750 ] final   47.23 input  -60.55 | X-H torsion
[ 11005 11000 10999 10996 ] final   68.26 input  -57.11 | X-H torsion

> <Gold.Protein.ActiveResidues>
 VAL166  LYS551  ARG553  GLY616  TRP617  ASP618  TYR619  PRO620  LYS621  CYS622 
 ASP623  PHE694  ASN695  SER759  ASP760  ASP761  ALA762  ILE779  LEU786  VAL792 
 PHE793  MET794  SER795  GLU796  ALA797  LYS798  CYS799  TRP800  GLU811  SER814 

> <Gold.Protein.RotatedAtoms>
  150.8044  134.7159  159.6629 H   0  0  0  0  0  0  0  0  0  0  0  0  # atno 6907 bound_to 6896
  152.4162  134.6033  160.0016 H   0  0  0  0  0  0  0  0  0  0  0  0  # atno 6908 bound_to 6896
  151.6262  133.3298  159.3135 H   0  0  0  0  0  0  0  0  0  0  0  0  # atno 6909 bound_to 6896
  145.5150  139.2278  143.2703 H   0  0  0  0  0  0  0  0  0  0  0  0  # atno 7974 bound_to 7965
  154.8236  140.0443  157.1428 H   0  0  0  0  0  0  0  0  0  0  0  0  # atno 8008 bound_to 7997
  154.9231  140.3029  155.5186 H   0  0  0  0  0  0  0  0  0  0  0  0  # atno 8009 bound_to 7997
  156.2982  140.2337  156.4283 H   0  0  0  0  0  0  0  0  0  0  0  0  # atno 8010 bound_to 7997
  139.9948  144.5730  150.7787 H   0  0  0  0  0  0  0  0  0  0  0  0  # atno 10167 bound_to 10162
  157.1934  130.6856  149.6159 H   0  0  0  0  0  0  0  0  0  0  0  0  # atno 10718 bound_to 10713
  152.9802  135.5983  154.3729 H   0  0  0  0  0  0  0  0  0  0  0  0  # atno 10763 bound_to 10752
  154.3400  135.2768  155.2429 H   0  0  0  0  0  0  0  0  0  0  0  0  # atno 10764 bound_to 10752
  154.4515  135.5988  153.6250 H   0  0  0  0  0  0  0  0  0  0  0  0  # atno 10765 bound_to 10752
  139.9722  134.6882  156.0425 H   0  0  0  0  0  0  0  0  0  0  0  0  # atno 11005 bound_to 11000
  146.2142  140.5959  142.9046 LP  0  0  0  0  0  0  0  0  0  0  0  0  # atno 17320 bound_to 7965
  144.7706  140.5630  143.6672 LP  0  0  0  0  0  0  0  0  0  0  0  0  # atno 17321 bound_to 7965
  140.7441  143.2856  151.3474 LP  0  0  0  0  0  0  0  0  0  0  0  0  # atno 17342 bound_to 10162
  139.6314  144.0714  152.2479 LP  0  0  0  0  0  0  0  0  0  0  0  0  # atno 17343 bound_to 10162
  155.9709  130.4607  150.6082 LP  0  0  0  0  0  0  0  0  0  0  0  0  # atno 17370 bound_to 10713
  157.3839  131.0785  151.1453 LP  0  0  0  0  0  0  0  0  0  0  0  0  # atno 17371 bound_to 10713
  141.1401  133.6566  156.3704 LP  0  0  0  0  0  0  0  0  0  0  0  0  # atno 17394 bound_to 11000
  140.5270  134.6249  157.5337 LP  0  0  0  0  0  0  0  0  0  0  0  0  # atno 17395 bound_to 11000

$$$$
