AV-unprocessed.smi:249|AV-procd|sdf|1923|dock2
  -GOLD-   2262021 33D 1   1.00000     0.00000
 Structure written by MMmdl.
 64 67  0  0  0  0  0  0  0  0  2 V2000
  145.0250  139.3588  157.0924 C   0  0  0  0  0  0  0  0  0  0  0  0
  144.5495  139.7851  155.6935 C   0  0  0  0  0  0  0  0  0  0  0  0
  145.6587  140.1800  154.7769 N   0  3  1  0  0  0  0  0  0  0  0  0
  146.4191  141.3534  155.2973 C   0  0  0  0  0  0  0  0  0  0  0  0
  147.5110  141.8188  154.3208 C   0  0  0  0  0  0  0  0  0  0  0  0
  148.5094  140.6909  154.0111 C   0  0  1  0  0  0  0  0  0  0  0  0
  149.3258  140.3254  155.1806 N   0  0  0  0  0  0  0  0  0  0  0  0
  150.0603  141.3977  155.8445 C   0  0  0  0  0  0  0  0  0  0  0  0
  150.1208  139.2449  155.0132 C   0  0  0  0  0  0  0  0  0  0  0  0
  151.3201  139.4415  154.4125 N   0  0  0  0  0  0  0  0  0  0  0  0
  152.1522  138.4107  154.2334 C   0  0  0  0  0  0  0  0  0  0  0  0
  151.9813  137.1303  154.5715 N   0  0  0  0  0  0  0  0  0  0  0  0
  150.7710  136.9316  155.1687 C   0  0  0  0  0  0  0  0  0  0  0  0
  149.7858  137.9250  155.4259 C   0  0  0  0  0  0  0  0  0  0  0  0
  148.6825  137.3523  156.0469 N   0  0  0  0  0  0  0  0  0  0  0  0
  148.9985  136.0901  156.1527 C   0  0  0  0  0  0  0  0  0  0  0  0
  150.2336  135.7506  155.6479 N   0  0  0  0  0  0  0  0  0  0  0  0
  150.8352  134.4293  155.6344 C   0  0  0  0  0  0  0  0  0  0  0  0
  149.7856  133.2940  155.5101 C   0  0  2  0  0  0  0  0  0  0  0  0
  149.6367  132.4571  156.8022 C   0  0  0  0  0  0  0  0  0  0  0  0
  149.4996  133.2720  157.9482 O   0  0  0  0  0  0  0  0  0  0  0  0
  149.9439  132.4082  154.2450 C   0  0  1  0  0  0  0  0  0  0  0  0
  150.6511  131.0700  154.4700 C   0  0  0  0  0  0  0  0  0  0  0  0
  149.7613  130.0478  153.7613 C   0  0  0  0  0  0  0  0  0  0  0  0
  149.0145  130.8201  152.8359 O   0  0  0  0  0  0  0  0  0  0  0  0
  148.6564  132.0166  153.5063 C   0  0  0  0  0  0  0  0  0  0  0  0
  147.6793  139.5192  153.4435 C   0  0  0  0  0  0  0  0  0  0  0  0
  146.5695  139.0458  154.4116 C   0  0  2  0  0  0  0  0  0  0  0  0
  145.8305  137.8556  153.7663 C   0  0  0  0  0  0  0  0  0  0  0  0
  144.1737  139.2452  157.7642 H   0  0  0  0  0  0  0  0  0  0  0  0
  145.6908  140.1036  157.5294 H   0  0  0  0  0  0  0  0  0  0  0  0
  145.5429  138.4005  157.0803 H   0  0  0  0  0  0  0  0  0  0  0  0
  143.9552  138.9920  155.2375 H   0  0  0  0  0  0  0  0  0  0  0  0
  143.8774  140.6252  155.8530 H   0  0  0  0  0  0  0  0  0  0  0  0
  145.7521  142.1974  155.4641 H   0  0  0  0  0  0  0  0  0  0  0  0
  146.8576  141.1044  156.2648 H   0  0  0  0  0  0  0  0  0  0  0  0
  147.0405  142.1476  153.3929 H   0  0  0  0  0  0  0  0  0  0  0  0
  148.0188  142.6994  154.7140 H   0  0  0  0  0  0  0  0  0  0  0  0
  149.1877  141.0445  153.2339 H   0  0  0  0  0  0  0  0  0  0  0  0
  150.8375  141.0132  156.5075 H   0  0  0  0  0  0  0  0  0  0  0  0
  149.3834  141.9959  156.4543 H   0  0  0  0  0  0  0  0  0  0  0  0
  150.5329  142.0537  155.1125 H   0  0  0  0  0  0  0  0  0  0  0  0
  153.0895  138.6451  153.7503 H   0  0  0  0  0  0  0  0  0  0  0  0
  148.3332  135.3656  156.5999 H   0  0  0  0  0  0  0  0  0  0  0  0
  151.5474  134.3988  154.8104 H   0  0  0  0  0  0  0  0  0  0  0  0
  151.4204  134.3202  156.5470 H   0  0  0  0  0  0  0  0  0  0  0  0
  148.8206  133.7875  155.3856 H   0  0  0  0  0  0  0  0  0  0  0  0
  148.7674  131.8021  156.7396 H   0  0  0  0  0  0  0  0  0  0  0  0
  150.5004  131.8053  156.9363 H   0  0  0  0  0  0  0  0  0  0  0  0
  148.5808  133.4469  158.0845 H   0  0  0  0  0  0  0  0  0  0  0  0
  150.5605  132.9575  153.5318 H   0  0  0  0  0  0  0  0  0  0  0  0
  151.6414  131.0939  154.0135 H   0  0  0  0  0  0  0  0  0  0  0  0
  150.7887  130.8129  155.5200 H   0  0  0  0  0  0  0  0  0  0  0  0
  150.3323  129.2635  153.2642 H   0  0  0  0  0  0  0  0  0  0  0  0
  149.0781  129.5762  154.4695 H   0  0  0  0  0  0  0  0  0  0  0  0
  147.8319  131.8024  154.1858 H   0  0  0  0  0  0  0  0  0  0  0  0
  148.3272  132.7810  152.8022 H   0  0  0  0  0  0  0  0  0  0  0  0
  147.2186  139.8379  152.5071 H   0  0  0  0  0  0  0  0  0  0  0  0
  148.3255  138.6846  153.1691 H   0  0  0  0  0  0  0  0  0  0  0  0
  147.0390  138.6866  155.3287 H   0  0  0  0  0  0  0  0  0  0  0  0
  146.5395  137.1186  153.3874 H   0  0  0  0  0  0  0  0  0  0  0  0
  145.2119  138.1768  152.9276 H   0  0  0  0  0  0  0  0  0  0  0  0
  145.1984  137.3226  154.4755 H   0  0  0  0  0  0  0  0  0  0  0  0
  145.2240  140.4790  153.9155 H   0  0  0  0  0  0  0  0  0  0  0  0
  1  2  1  0  0  0  0
  1 30  1  0  0  0  0
  1 31  1  0  0  0  0
  1 32  1  0  0  0  0
  2  3  1  0  0  0  0
  2 33  1  0  0  0  0
  2 34  1  0  0  0  0
  3 28  1  0  0  0  0
  3  4  1  0  0  0  0
  3 64  1  0  0  0  0
  4  5  1  0  0  0  0
  4 35  1  0  0  0  0
  4 36  1  0  0  0  0
  5  6  1  0  0  0  0
  5 37  1  0  0  0  0
  5 38  1  0  0  0  0
  6  7  1  0  0  0  0
  6 27  1  0  0  0  0
  6 39  1  0  0  0  0
  7  8  1  0  0  0  0
  7  9  1  0  0  0  0
  8 40  1  0  0  0  0
  8 41  1  0  0  0  0
  8 42  1  0  0  0  0
  9 14  1  0  0  0  0
  9 10  2  0  0  0  0
 10 11  1  0  0  0  0
 11 12  2  0  0  0  0
 11 43  1  0  0  0  0
 12 13  1  0  0  0  0
 13 17  1  0  0  0  0
 13 14  2  0  0  0  0
 14 15  1  0  0  0  0
 15 16  2  0  0  0  0
 16 17  1  0  0  0  0
 16 44  1  0  0  0  0
 17 18  1  0  0  0  0
 18 19  1  0  0  0  0
 18 45  1  0  0  0  0
 18 46  1  0  0  0  0
 19 20  1  0  0  0  0
 19 22  1  0  0  0  0
 19 47  1  0  0  0  0
 20 21  1  0  0  0  0
 20 48  1  0  0  0  0
 20 49  1  0  0  0  0
 21 50  1  0  0  0  0
 22 26  1  0  0  0  0
 22 23  1  0  0  0  0
 22 51  1  0  0  0  0
 23 24  1  0  0  0  0
 23 52  1  0  0  0  0
 23 53  1  0  0  0  0
 24 25  1  0  0  0  0
 24 54  1  0  0  0  0
 24 55  1  0  0  0  0
 25 26  1  0  0  0  0
 26 56  1  0  0  0  0
 26 57  1  0  0  0  0
 27 28  1  0  0  0  0
 27 58  1  0  0  0  0
 27 59  1  0  0  0  0
 28 29  1  0  0  0  0
 28 60  1  0  0  0  0
 29 61  1  0  0  0  0
 29 62  1  0  0  0  0
 29 63  1  0  0  0  0
M  CHG  1   3   1
M  END
> <s_m_source_file>
AV-unprocessed.smi

> <i_m_source_file_index>
249

> <i_lp_mmshare_version>
43012

> <i_f3d_flags>
0

> <s_epik_input>
W0NIM11bQ0gyXU4xW0NIMl1bQ0gyXVtDQEhdKFtDSDJdW0NASF0xW0NIM10pTihbQ0gzXSljKG5bY0hdbjIpYyhjMjMpbltjSF1uM1tDSDJdW0NASF0oW0NIMl1bT0hdKVtDQEBIXTRbQ0gyXVtDSDJdT1tDSDJdNA==

> <s_epik_cmdline>
J2VwaWtfcHl0aG9uJywgJy1waCcsICc3LjAnLCAnLXRuJywgJzgnLCAnLW1hJywgJzIwMCcsICctbWV0YWxfYmluZGluZycsICctaW1hZScsICc8aW5maWxlLm1hZT4nLCAnLW9tYWUnLCAnPG91dGZpbGUubWFlPic=

> <r_lp_tautomer_probability>
1

> <r_epik_Ionization_Penalty>
0.00294688

> <r_epik_Ionization_Penalty_Charging>
0.00169971

> <r_epik_Ionization_Penalty_Neutral>
0.00124717

> <r_epik_State_Penalty>
-0

> <r_epik_Charging_Adjusted_Penalty>
0.00169971

> <i_epik_Tot_Q>
1

> <i_epik_Tot_abs_Q>
1

> <r_epik_Metal_State_Penalty>
-0

> <b_epik_Metal_Only>
0

> <s_lp_Force_Field>
OPLS_2005

> <r_lp_Energy>
58.1803

> <b_lp_Chiralities_Consistent>
1

> <s_lp_Variant>
AV-unprocessed.smi:249-26

> <Gold.Version>
5.8.1

> <Gold.Id.Protein>
6NUR|6NUR_protein|mol2

> <Gold.PLP.Fitness>
49.5026

> <Gold.PLP.PLP>
-38.7055

> <Gold.PLP.part.hbond>
-4.0000

> <Gold.PLP.part.metal>
0.0000

> <Gold.PLP.part.buried>
-5.4224

> <Gold.PLP.part.nonpolar>
-31.2639

> <Gold.PLP.part.repulsive>
1.7713

> <Gold.PLP.ligand.clash>
0.0000

> <Gold.PLP.ligand.torsion>
2.5151

> <Gold.PLP.Chemscore.Hbond>
5.0000

> <Gold.PLP.Chemscore.CHOScore>
0.0000

> <Gold.PLP.Chemscore.Metal>
0.0000

> <Gold.Chemscore.Hbonds>
donor molecule, donor type, donor heavy atom, donor atom, acceptor molecule, acceptor atom, score
      L1  H     3    64       P1 10175  1.62
      P1  H  6896  6908       L1    21  1.00
      P1  H  7989  7998       L1    10  1.00
      P1  H 10752 10764       L1    12  0.96

> <Gold.PLP.Chemscore.Internal.Correction>
0.8274

> <Gold.Rescore>
     Score         DG    S(hbond)    S(metal)    S(lipo)     H(rot)  DE(clash)    DE(int)     intcor
     16.18     -18.94       3.72        0.00      72.24       2.90       0.10       2.66       ----

> <Gold.Chemscore.Fitness>
16.1841

> <Gold.Chemscore.DG>
-18.9422

> <Gold.Chemscore.ZeroCoef>
-5.4800

> <Gold.Chemscore.Hbond>
3.7233

> <Gold.Chemscore.Metal>
0.0000

> <Gold.Chemscore.Lipo>
72.2389

> <Gold.Chemscore.Internal_Hbond>
0.0000

> <Gold.Chemscore.DEClash>
0.0973

> <Gold.Chemscore.DEInternal>
2.6608

> <Gold.Chemscore.Rot>
2.9006

> <Gold.Chemscore.Internal.Correction>
   9.000000E+99

> <Gold.Chemscore.Hbonds>
donor molecule, donor type, donor heavy atom, donor atom, acceptor molecule, acceptor atom, score
      L1  H     3    64       P1 10175  0.78
      P1  H  6896  6908       L1    21  0.99
      P1  H  7989  7998       L1    10  0.92
      P1  H 10752 10764       L1    12  0.79

> <Gold.Chemscore.Hbond.Weighted>
-12.4359

> <Gold.Chemscore.Metal.Weighted>
-0.0000

> <Gold.Chemscore.Lipo.Weighted>
-8.4519

> <Gold.Chemscore.Internal_Hbond.Weighted>
0.0000

> <Gold.Chemscore.DEClash.Weighted>
0.0973

> <Gold.Chemscore.DEInternal.Weighted>
2.6608

> <Gold.Chemscore.Rot.Weighted>
7.4256

> <Gold.Chemscore.Internal.Correction.Weighted>
   9.000000E+99

> <Gold.Protein.RotatedTorsions>
[ 6907 6896 6895 6894 ] final  111.99 input  -60.11 | X-H torsion
[ 7974 7965 7964 7962 ] final  -10.50 input  175.53 | X-H torsion
[ 8008 7997 7996 7995 ] final -161.96 input   59.86 | X-H torsion
[ 10167 10162 10161 10158 ] final   91.53 input  -65.29 | X-H torsion
[ 10718 10713 10712 10709 ] final  166.74 input   66.30 | X-H torsion
[ 10763 10752 10751 10750 ] final  -69.72 input  -60.55 | X-H torsion
[ 11005 11000 10999 10996 ] final   45.13 input  -57.11 | X-H torsion

> <Gold.Protein.ActiveResidues>
 VAL166  LYS551  ARG553  GLY616  TRP617  ASP618  TYR619  PRO620  LYS621  CYS622 
 ASP623  PHE694  ASN695  SER759  ASP760  ASP761  ALA762  ILE779  LEU786  VAL792 
 PHE793  MET794  SER795  GLU796  ALA797  LYS798  CYS799  TRP800  GLU811  SER814 

> <Gold.Protein.RotatedAtoms>
  152.4940  133.8580  159.7235 H   0  0  0  0  0  0  0  0  0  0  0  0  # atno 6907 bound_to 6896
  150.9099  133.7002  159.2864 H   0  0  0  0  0  0  0  0  0  0  0  0  # atno 6908 bound_to 6896
  151.4415  135.1025  159.9724 H   0  0  0  0  0  0  0  0  0  0  0  0  # atno 6909 bound_to 6896
  146.2218  140.2773  142.8360 H   0  0  0  0  0  0  0  0  0  0  0  0  # atno 7974 bound_to 7965
  155.7998  140.0890  157.1963 H   0  0  0  0  0  0  0  0  0  0  0  0  # atno 8008 bound_to 7997
  154.3982  140.1474  156.3320 H   0  0  0  0  0  0  0  0  0  0  0  0  # atno 8009 bound_to 7997
  155.8474  140.3436  155.5674 H   0  0  0  0  0  0  0  0  0  0  0  0  # atno 8010 bound_to 7997
  139.8366  144.6662  150.9335 H   0  0  0  0  0  0  0  0  0  0  0  0  # atno 10167 bound_to 10162
  157.0615  131.0341  151.2645 H   0  0  0  0  0  0  0  0  0  0  0  0  # atno 10718 bound_to 10713
  154.4074  135.6017  153.5932 H   0  0  0  0  0  0  0  0  0  0  0  0  # atno 10763 bound_to 10752
  152.9789  135.5921  154.4111 H   0  0  0  0  0  0  0  0  0  0  0  0  # atno 10764 bound_to 10752
  154.3918  135.2842  155.2128 H   0  0  0  0  0  0  0  0  0  0  0  0  # atno 10765 bound_to 10752
  140.1488  134.4488  155.8396 H   0  0  0  0  0  0  0  0  0  0  0  0  # atno 11005 bound_to 11000
  144.9223  140.7882  143.5740 LP  0  0  0  0  0  0  0  0  0  0  0  0  # atno 17320 bound_to 7965
  145.2710  139.1954  143.4841 LP  0  0  0  0  0  0  0  0  0  0  0  0  # atno 17321 bound_to 7965
  140.7802  143.3951  151.1243 LP  0  0  0  0  0  0  0  0  0  0  0  0  # atno 17342 bound_to 10162
  139.7601  143.8648  152.3098 LP  0  0  0  0  0  0  0  0  0  0  0  0  # atno 17343 bound_to 10162
  157.4951  130.7845  149.7547 LP  0  0  0  0  0  0  0  0  0  0  0  0  # atno 17370 bound_to 10713
  155.9977  130.3898  150.2730 LP  0  0  0  0  0  0  0  0  0  0  0  0  # atno 17371 bound_to 10713
  141.2196  133.6864  156.7384 LP  0  0  0  0  0  0  0  0  0  0  0  0  # atno 17394 bound_to 11000
  140.2630  134.8452  157.3776 LP  0  0  0  0  0  0  0  0  0  0  0  0  # atno 17395 bound_to 11000

$$$$
