AV-unprocessed.smi:2133|AV-procd|sdf|8693|dock8
  -GOLD-   2272011453D 1   1.00000     0.00000
 Structure written by MMmdl.
 45 47  0  0  0  0  0  0  0  0  1 V2000
  147.2727  134.8098  157.8983 C   0  0  0  0  0  0  0  0  0  0  0  0
  148.4313  135.2047  157.0758 N   0  0  0  0  0  0  0  0  0  0  0  0
  148.3403  136.3552  156.3373 C   0  0  0  0  0  0  0  0  0  0  0  0
  147.3642  137.1057  156.3175 O   0  0  0  0  0  0  0  0  0  0  0  0
  149.5346  136.6427  155.5379 C   0  0  0  0  0  0  0  0  0  0  0  0
  150.6445  135.8648  155.5598 C   0  0  0  0  0  0  0  0  0  0  0  0
  151.6295  136.3673  154.7167 N   0  0  0  0  0  0  0  0  0  0  0  0
  151.0410  137.4548  154.2184 C   0  0  0  0  0  0  0  0  0  0  0  0
  149.7823  137.6839  154.6458 N   0  0  0  0  0  0  0  0  0  0  0  0
  148.9210  138.7844  154.2384 C   0  0  0  0  0  0  0  0  0  0  0  0
  149.5076  140.1748  154.5695 C   0  0  1  0  0  0  0  0  0  0  0  0
  149.5584  140.9686  153.4026 O   0  0  0  0  0  0  0  0  0  0  0  0
  148.7899  140.9496  155.6907 C   0  0  0  0  0  0  0  0  0  0  0  0
  149.7183  141.7362  156.4199 O   0  0  0  0  0  0  0  0  0  0  0  0
  149.7711  141.3896  157.7930 C   0  0  0  0  0  0  0  0  0  0  0  0
  150.9135  142.0941  158.4947 C   0  0  0  0  0  0  0  0  0  0  0  0
  151.0562  143.4936  158.3915 C   0  0  0  0  0  0  0  0  0  0  0  0
  152.1193  144.1458  159.0460 C   0  0  0  0  0  0  0  0  0  0  0  0
  153.0402  143.4016  159.8088 C   0  0  0  0  0  0  0  0  0  0  0  0
  152.8992  142.0043  159.9152 C   0  0  0  0  0  0  0  0  0  0  0  0
  151.8380  141.3513  159.2585 C   0  0  0  0  0  0  0  0  0  0  0  0
  150.6454  134.7125  156.3874 N   0  0  0  0  0  0  0  0  0  0  0  0
  151.8409  133.8649  156.4183 C   0  0  0  0  0  0  0  0  0  0  0  0
  149.5378  134.3738  157.1246 C   0  0  0  0  0  0  0  0  0  0  0  0
  149.5364  133.3492  157.8133 O   0  0  0  0  0  0  0  0  0  0  0  0
  146.3887  135.4363  157.7751 H   0  0  0  0  0  0  0  0  0  0  0  0
  147.5352  134.8393  158.9569 H   0  0  0  0  0  0  0  0  0  0  0  0
  146.9585  133.7924  157.6589 H   0  0  0  0  0  0  0  0  0  0  0  0
  151.5369  138.1005  153.5084 H   0  0  0  0  0  0  0  0  0  0  0  0
  148.7134  138.6961  153.1717 H   0  0  0  0  0  0  0  0  0  0  0  0
  147.9622  138.6611  154.7446 H   0  0  0  0  0  0  0  0  0  0  0  0
  150.5436  140.0477  154.8827 H   0  0  0  0  0  0  0  0  0  0  0  0
  149.4039  140.4130  152.6540 H   0  0  0  0  0  0  0  0  0  0  0  0
  148.0421  141.6063  155.2427 H   0  0  0  0  0  0  0  0  0  0  0  0
  148.2550  140.2686  156.3548 H   0  0  0  0  0  0  0  0  0  0  0  0
  148.8363  141.6651  158.2844 H   0  0  0  0  0  0  0  0  0  0  0  0
  149.8847  140.3098  157.9016 H   0  0  0  0  0  0  0  0  0  0  0  0
  150.3513  144.0703  157.8107 H   0  0  0  0  0  0  0  0  0  0  0  0
  152.2275  145.2172  158.9636 H   0  0  0  0  0  0  0  0  0  0  0  0
  153.8544  143.9024  160.3117 H   0  0  0  0  0  0  0  0  0  0  0  0
  153.6053  141.4335  160.5003 H   0  0  0  0  0  0  0  0  0  0  0  0
  151.7356  140.2793  159.3424 H   0  0  0  0  0  0  0  0  0  0  0  0
  152.1017  133.5810  157.4391 H   0  0  0  0  0  0  0  0  0  0  0  0
  152.7145  134.3644  155.9999 H   0  0  0  0  0  0  0  0  0  0  0  0
  151.6716  132.9540  155.8431 H   0  0  0  0  0  0  0  0  0  0  0  0
  1  2  1  0  0  0  0
  1 26  1  0  0  0  0
  1 27  1  0  0  0  0
  1 28  1  0  0  0  0
  2 24  1  0  0  0  0
  2  3  1  0  0  0  0
  3  4  2  0  0  0  0
  3  5  1  0  0  0  0
  5  9  1  0  0  0  0
  5  6  2  0  0  0  0
  6  7  1  0  0  0  0
  6 22  1  0  0  0  0
  7  8  2  0  0  0  0
  8  9  1  0  0  0  0
  8 29  1  0  0  0  0
  9 10  1  0  0  0  0
 10 11  1  0  0  0  0
 10 30  1  0  0  0  0
 10 31  1  0  0  0  0
 11 12  1  0  0  0  0
 11 13  1  0  0  0  0
 11 32  1  0  0  0  0
 12 33  1  0  0  0  0
 13 14  1  0  0  0  0
 13 34  1  0  0  0  0
 13 35  1  0  0  0  0
 14 15  1  0  0  0  0
 15 16  1  0  0  0  0
 15 36  1  0  0  0  0
 15 37  1  0  0  0  0
 16 21  1  0  0  0  0
 16 17  2  0  0  0  0
 17 18  1  0  0  0  0
 17 38  1  0  0  0  0
 18 19  2  0  0  0  0
 18 39  1  0  0  0  0
 19 20  1  0  0  0  0
 19 40  1  0  0  0  0
 20 21  2  0  0  0  0
 20 41  1  0  0  0  0
 21 42  1  0  0  0  0
 22 23  1  0  0  0  0
 22 24  1  0  0  0  0
 23 43  1  0  0  0  0
 23 44  1  0  0  0  0
 23 45  1  0  0  0  0
 24 25  2  0  0  0  0
M  END
> <s_m_source_file>
AV-unprocessed.smi

> <i_m_source_file_index>
2133

> <i_lp_mmshare_version>
43012

> <i_f3d_flags>
0

> <s_epik_input>
Tz1jMW4oW0NIM10pYyg9TyluKFtDSDNdKWMoYzEyKW5bY0hdbjJbQ0gyXVtDQEhdKFtPSF0pW0NIMl1PW0NIMl1jM1tjSF1bY0hdW2NIXVtjSF1bY0hdMw==

> <s_epik_cmdline>
J2VwaWtfcHl0aG9uJywgJy1waCcsICc3LjAnLCAnLXRuJywgJzgnLCAnLW1hJywgJzIwMCcsICctbWV0YWxfYmluZGluZycsICctaW1hZScsICc8aW5maWxlLm1hZT4nLCAnLW9tYWUnLCAnPG91dGZpbGUubWFlPic=

> <r_lp_tautomer_probability>
1

> <r_epik_Ionization_Penalty>
1.52174e-06

> <r_epik_Ionization_Penalty_Charging>
3.83535e-09

> <r_epik_Ionization_Penalty_Neutral>
1.5179e-06

> <r_epik_State_Penalty>
-0

> <r_epik_Charging_Adjusted_Penalty>
3.83535e-09

> <i_epik_Tot_Q>
0

> <i_epik_Tot_abs_Q>
0

> <r_epik_Metal_State_Penalty>
-0

> <b_epik_Metal_Only>
0

> <s_lp_Force_Field>
OPLS_2005

> <r_lp_Energy>
39.5783

> <b_lp_Chiralities_Consistent>
1

> <s_lp_Variant>
AV-unprocessed.smi:2133-2

> <Gold.Version>
5.8.1

> <Gold.Id.Protein>
6NUR|6NUR_protein|mol2

> <Gold.PLP.Fitness>
46.9187

> <Gold.PLP.PLP>
-39.1190

> <Gold.PLP.part.hbond>
-4.7688

> <Gold.PLP.part.metal>
0.0000

> <Gold.PLP.part.buried>
-5.2460

> <Gold.PLP.part.nonpolar>
-30.7958

> <Gold.PLP.part.repulsive>
1.0006

> <Gold.PLP.ligand.clash>
0.0000

> <Gold.PLP.ligand.torsion>
1.5628

> <Gold.PLP.Chemscore.Hbond>
3.6180

> <Gold.PLP.Chemscore.CHOScore>
0.0000

> <Gold.PLP.Chemscore.Metal>
0.0000

> <Gold.Chemscore.Hbonds>
donor molecule, donor type, donor heavy atom, donor atom, acceptor molecule, acceptor atom, score
      L1  H    12    33       P1  7957  1.00
      P1  H  6896  6907       L1    25  1.00
      P1  H  7989  7998       L1    12  0.11
      P1  H  8011  8017       L1    12  0.55
      P1  H 10752 10765       L1     7  1.00

> <Gold.PLP.Chemscore.Internal.Correction>
0.0712

> <Gold.Rescore>
     Score         DG    S(hbond)    S(metal)    S(lipo)     H(rot)  DE(clash)    DE(int)     intcor
     16.65     -18.47       2.83        0.00      94.12       2.91       0.20       1.63       ----

> <Gold.Chemscore.Fitness>
16.6507

> <Gold.Chemscore.DG>
-18.4738

> <Gold.Chemscore.ZeroCoef>
-5.4800

> <Gold.Chemscore.Hbond>
2.8262

> <Gold.Chemscore.Metal>
0.0000

> <Gold.Chemscore.Lipo>
94.1208

> <Gold.Chemscore.Internal_Hbond>
0.0000

> <Gold.Chemscore.DEClash>
0.1955

> <Gold.Chemscore.DEInternal>
1.6276

> <Gold.Chemscore.Rot>
2.9132

> <Gold.Chemscore.Internal.Correction>
   9.000000E+99

> <Gold.Chemscore.Hbonds>
donor molecule, donor type, donor heavy atom, donor atom, acceptor molecule, acceptor atom, score
      L1  H    12    33       P1  7957  0.91
      P1  H  6896  6907       L1    25  0.34
      P1  H  8011  8017       L1    12  0.03
      P1  H 10752 10765       L1     7  0.95

> <Gold.Chemscore.Hbond.Weighted>
-9.4395

> <Gold.Chemscore.Metal.Weighted>
-0.0000

> <Gold.Chemscore.Lipo.Weighted>
-11.0121

> <Gold.Chemscore.Internal_Hbond.Weighted>
0.0000

> <Gold.Chemscore.DEClash.Weighted>
0.1955

> <Gold.Chemscore.DEInternal.Weighted>
1.6276

> <Gold.Chemscore.Rot.Weighted>
7.4578

> <Gold.Chemscore.Internal.Correction.Weighted>
   9.000000E+99

> <Gold.Protein.RotatedTorsions>
[ 6907 6896 6895 6894 ] final -117.80 input  -60.11 | X-H torsion
[ 7974 7965 7964 7962 ] final  -92.71 input  175.53 | X-H torsion
[ 8008 7997 7996 7995 ] final   69.66 input   59.86 | X-H torsion
[ 10167 10162 10161 10158 ] final -101.39 input  -65.29 | X-H torsion
[ 10718 10713 10712 10709 ] final  -57.74 input   66.30 | X-H torsion
[ 10763 10752 10751 10750 ] final  159.78 input  -60.55 | X-H torsion
[ 11005 11000 10999 10996 ] final   55.49 input  -57.11 | X-H torsion

> <Gold.Protein.ActiveResidues>
 VAL166  LYS551  ARG553  GLY616  TRP617  ASP618  TYR619  PRO620  LYS621  CYS622 
 ASP623  PHE694  ASN695  SER759  ASP760  ASP761  ALA762  ILE779  LEU786  VAL792 
 PHE793  MET794  SER795  GLU796  ALA797  LYS798  CYS799  TRP800  GLU811  SER814 

> <Gold.Protein.RotatedAtoms>
  150.8167  133.8325  159.3157 H   0  0  0  0  0  0  0  0  0  0  0  0  # atno 6907 bound_to 6896
  151.6095  135.1039  160.0087 H   0  0  0  0  0  0  0  0  0  0  0  0  # atno 6908 bound_to 6896
  152.4258  133.7152  159.6558 H   0  0  0  0  0  0  0  0  0  0  0  0  # atno 6909 bound_to 6896
  145.3962  140.9533  143.2312 H   0  0  0  0  0  0  0  0  0  0  0  0  # atno 7974 bound_to 7965
  155.7270  140.3492  155.5042 H   0  0  0  0  0  0  0  0  0  0  0  0  # atno 8008 bound_to 7997
  155.9217  140.1068  157.1223 H   0  0  0  0  0  0  0  0  0  0  0  0  # atno 8009 bound_to 7997
  154.4071  140.1248  156.4675 H   0  0  0  0  0  0  0  0  0  0  0  0  # atno 8010 bound_to 7997
  140.2418  143.3533  152.0794 H   0  0  0  0  0  0  0  0  0  0  0  0  # atno 10167 bound_to 10162
  156.1188  130.4168  150.0481 H   0  0  0  0  0  0  0  0  0  0  0  0  # atno 10718 bound_to 10713
  154.2371  135.2776  155.2868 H   0  0  0  0  0  0  0  0  0  0  0  0  # atno 10763 bound_to 10752
  154.5576  135.5656  153.6981 H   0  0  0  0  0  0  0  0  0  0  0  0  # atno 10764 bound_to 10752
  153.0008  135.6290  154.2514 H   0  0  0  0  0  0  0  0  0  0  0  0  # atno 10765 bound_to 10752
  140.0603  134.5612  155.9160 H   0  0  0  0  0  0  0  0  0  0  0  0  # atno 11005 bound_to 11000
  144.8405  139.5479  143.6902 LP  0  0  0  0  0  0  0  0  0  0  0  0  # atno 17320 bound_to 7965
  146.2774  139.6787  142.9253 LP  0  0  0  0  0  0  0  0  0  0  0  0  # atno 17321 bound_to 7965
  139.5075  144.6832  151.5954 LP  0  0  0  0  0  0  0  0  0  0  0  0  # atno 17342 bound_to 10162
  140.6107  143.9440  150.6451 LP  0  0  0  0  0  0  0  0  0  0  0  0  # atno 17343 bound_to 10162
  156.8425  130.9431  151.3631 LP  0  0  0  0  0  0  0  0  0  0  0  0  # atno 17370 bound_to 10713
  157.6371  130.8776  149.9380 LP  0  0  0  0  0  0  0  0  0  0  0  0  # atno 17371 bound_to 10713
  141.1970  133.6594  156.5719 LP  0  0  0  0  0  0  0  0  0  0  0  0  # atno 17394 bound_to 11000
  140.3781  134.7547  157.4643 LP  0  0  0  0  0  0  0  0  0  0  0  0  # atno 17395 bound_to 11000

$$$$
