AV-unprocessed.smi:1329|AV-procd|sdf|5483|dock9
  -GOLD-   22720 5 53D 1   1.00000     0.00000
 Structure written by MMmdl.
 42 43  0  0  0  0  0  0  0  0  1 V2000
  154.1613  137.5444  164.8937 C   0  0  0  0  0  0  0  0  0  0  0  0
  154.2147  136.6357  163.6951 C   0  0  0  0  0  0  0  0  0  0  0  0
  154.1580  137.2018  162.5345 N   0  0  0  0  0  0  0  0  0  0  0  0
  154.1998  136.4605  161.3708 N   0  0  0  0  0  0  0  0  0  0  0  0
  154.1239  137.2673  160.1476 C   0  0  0  0  0  0  0  0  0  0  0  0
  152.8146  138.0842  160.0748 C   0  0  2  0  0  0  0  0  0  0  0  0
  151.7370  137.1956  159.8573 O   0  0  0  0  0  0  0  0  0  0  0  0
  152.8220  139.0883  158.9128 C   0  0  0  0  0  0  0  0  0  0  0  0
  153.9355  139.9522  159.0683 O   0  0  0  0  0  0  0  0  0  0  0  0
  153.7395  140.9411  160.0656 C   0  0  0  0  0  0  0  0  0  0  0  0
  152.9466  142.1270  159.5473 C   0  0  0  0  0  0  0  0  0  0  0  0
  152.7936  143.2887  160.3350 C   0  0  0  0  0  0  0  0  0  0  0  0
  152.0420  144.3779  159.8527 C   0  0  0  0  0  0  0  0  0  0  0  0
  151.4339  144.3090  158.5844 C   0  0  0  0  0  0  0  0  0  0  0  0
  151.5758  143.1485  157.7993 C   0  0  0  0  0  0  0  0  0  0  0  0
  152.3280  142.0592  158.2810 C   0  0  0  0  0  0  0  0  0  0  0  0
  154.3115  135.1020  161.3171 C   0  0  0  0  0  0  0  0  0  0  0  0
  154.3608  134.4821  160.2536 O   0  0  0  0  0  0  0  0  0  0  0  0
  154.3716  134.4667  162.6355 C   0  0  0  0  0  0  0  0  0  0  0  0
  154.4853  133.0438  162.6261 C   0  0  0  0  0  0  0  0  0  0  0  0
  154.5564  131.8884  162.6180 N   0  0  0  0  0  0  0  0  0  0  0  0
  154.3241  135.1832  163.7865 C   0  0  0  0  0  0  0  0  0  0  0  0
  154.3846  134.5714  165.1796 C   0  0  0  0  0  0  0  0  0  0  0  0
  155.0262  137.3885  165.5388 H   0  0  0  0  0  0  0  0  0  0  0  0
  153.2624  137.3558  165.4809 H   0  0  0  0  0  0  0  0  0  0  0  0
  154.1521  138.5970  164.6065 H   0  0  0  0  0  0  0  0  0  0  0  0
  154.9846  137.9383  160.1253 H   0  0  0  0  0  0  0  0  0  0  0  0
  154.2396  136.6457  159.2572 H   0  0  0  0  0  0  0  0  0  0  0  0
  152.6339  138.6260  161.0039 H   0  0  0  0  0  0  0  0  0  0  0  0
  150.9307  137.6854  159.9108 H   0  0  0  0  0  0  0  0  0  0  0  0
  152.8687  138.5680  157.9544 H   0  0  0  0  0  0  0  0  0  0  0  0
  151.9051  139.6805  158.9225 H   0  0  0  0  0  0  0  0  0  0  0  0
  153.2147  140.5022  160.9157 H   0  0  0  0  0  0  0  0  0  0  0  0
  154.7032  141.3028  160.4270 H   0  0  0  0  0  0  0  0  0  0  0  0
  153.2510  143.3510  161.3117 H   0  0  0  0  0  0  0  0  0  0  0  0
  151.9305  145.2660  160.4571 H   0  0  0  0  0  0  0  0  0  0  0  0
  150.8569  145.1442  158.2154 H   0  0  0  0  0  0  0  0  0  0  0  0
  151.1063  143.0932  156.8282 H   0  0  0  0  0  0  0  0  0  0  0  0
  152.4293  141.1712  157.6741 H   0  0  0  0  0  0  0  0  0  0  0  0
  154.3704  133.4823  165.1524 H   0  0  0  0  0  0  0  0  0  0  0  0
  153.5317  134.8912  165.7791 H   0  0  0  0  0  0  0  0  0  0  0  0
  155.2984  134.8779  165.6899 H   0  0  0  0  0  0  0  0  0  0  0  0
  1  2  1  0  0  0  0
  1 24  1  0  0  0  0
  1 25  1  0  0  0  0
  1 26  1  0  0  0  0
  2 22  1  0  0  0  0
  2  3  2  0  0  0  0
  3  4  1  0  0  0  0
  4  5  1  0  0  0  0
  4 17  1  0  0  0  0
  5  6  1  0  0  0  0
  5 27  1  0  0  0  0
  5 28  1  0  0  0  0
  6  7  1  0  0  0  0
  6  8  1  0  0  0  0
  6 29  1  0  0  0  0
  7 30  1  0  0  0  0
  8  9  1  0  0  0  0
  8 31  1  0  0  0  0
  8 32  1  0  0  0  0
  9 10  1  0  0  0  0
 10 11  1  0  0  0  0
 10 33  1  0  0  0  0
 10 34  1  0  0  0  0
 11 16  1  0  0  0  0
 11 12  2  0  0  0  0
 12 13  1  0  0  0  0
 12 35  1  0  0  0  0
 13 14  2  0  0  0  0
 13 36  1  0  0  0  0
 14 15  1  0  0  0  0
 14 37  1  0  0  0  0
 15 16  2  0  0  0  0
 15 38  1  0  0  0  0
 16 39  1  0  0  0  0
 17 18  2  0  0  0  0
 17 19  1  0  0  0  0
 19 20  1  0  0  0  0
 19 22  2  0  0  0  0
 20 21  3  0  0  0  0
 22 23  1  0  0  0  0
 23 40  1  0  0  0  0
 23 41  1  0  0  0  0
 23 42  1  0  0  0  0
M  END
> <s_m_source_file>
AV-unprocessed.smi

> <i_m_source_file_index>
1329

> <i_lp_mmshare_version>
43012

> <i_f3d_flags>
0

> <s_epik_input>
TiNDYyhjMVtDSDNdKWMoPU8pbihuYzFbQ0gzXSlbQ0gyXVtDQEhdKFtPSF0pW0NIMl1PW0NIMl1jMltjSF1bY0hdW2NIXVtjSF1bY0hdMg==

> <s_epik_cmdline>
J2VwaWtfcHl0aG9uJywgJy1waCcsICc3LjAnLCAnLXRuJywgJzgnLCAnLW1hJywgJzIwMCcsICctbWV0YWxfYmluZGluZycsICctaW1hZScsICc8aW5maWxlLm1hZT4nLCAnLW9tYWUnLCAnPG91dGZpbGUubWFlPic=

> <r_lp_tautomer_probability>
1

> <r_epik_Ionization_Penalty>
6.13319e-08

> <r_epik_Ionization_Penalty_Charging>
2.19172e-10

> <r_epik_Ionization_Penalty_Neutral>
6.11128e-08

> <r_epik_State_Penalty>
-0

> <r_epik_Charging_Adjusted_Penalty>
2.19172e-10

> <i_epik_Tot_Q>
0

> <i_epik_Tot_abs_Q>
0

> <r_epik_Metal_State_Penalty>
-0

> <b_epik_Metal_Only>
0

> <s_lp_Force_Field>
OPLS_2005

> <r_lp_Energy>
29.8656

> <b_lp_Chiralities_Consistent>
1

> <s_lp_Variant>
AV-unprocessed.smi:1329-1

> <Gold.Version>
5.8.1

> <Gold.Id.Protein>
6NUR|6NUR_protein|mol2

> <Gold.PLP.Fitness>
52.3914

> <Gold.PLP.PLP>
-44.4023

> <Gold.PLP.part.hbond>
-3.0000

> <Gold.PLP.part.metal>
0.0000

> <Gold.PLP.part.buried>
-5.2488

> <Gold.PLP.part.nonpolar>
-37.4340

> <Gold.PLP.part.repulsive>
0.0000

> <Gold.PLP.ligand.clash>
0.0000

> <Gold.PLP.ligand.torsion>
0.3001

> <Gold.PLP.Chemscore.Hbond>
2.8520

> <Gold.PLP.Chemscore.CHOScore>
0.0000

> <Gold.PLP.Chemscore.Metal>
0.0000

> <Gold.Chemscore.Hbonds>
donor molecule, donor type, donor heavy atom, donor atom, acceptor molecule, acceptor atom, score
      P1  H  6896  6907       L1    18  0.91
      P1  H  6896  6909       L1     7  0.86
      P1  H  7997  8008       L1     9  0.84

> <Gold.PLP.Chemscore.Internal.Correction>
0.0333

> <Gold.Rescore>
     Score         DG    S(hbond)    S(metal)    S(lipo)     H(rot)  DE(clash)    DE(int)     intcor
     21.47     -21.78       2.44        0.00     123.81       2.48       0.03       0.28       ----

> <Gold.Chemscore.Fitness>
21.4700

> <Gold.Chemscore.DG>
-21.7798

> <Gold.Chemscore.ZeroCoef>
-5.4800

> <Gold.Chemscore.Hbond>
2.4421

> <Gold.Chemscore.Metal>
0.0000

> <Gold.Chemscore.Lipo>
123.8118

> <Gold.Chemscore.Internal_Hbond>
0.0000

> <Gold.Chemscore.DEClash>
0.0276

> <Gold.Chemscore.DEInternal>
0.2822

> <Gold.Chemscore.Rot>
2.4777

> <Gold.Chemscore.Internal.Correction>
   9.000000E+99

> <Gold.Chemscore.Hbonds>
donor molecule, donor type, donor heavy atom, donor atom, acceptor molecule, acceptor atom, score
      P1  H  6896  6907       L1    18  0.58
      P1  H  6896  6909       L1     7  0.62
      P1  H  7997  8008       L1     9  0.62

> <Gold.Chemscore.Hbond.Weighted>
-8.1567

> <Gold.Chemscore.Metal.Weighted>
-0.0000

> <Gold.Chemscore.Lipo.Weighted>
-14.4860

> <Gold.Chemscore.Internal_Hbond.Weighted>
0.0000

> <Gold.Chemscore.DEClash.Weighted>
0.0276

> <Gold.Chemscore.DEInternal.Weighted>
0.2822

> <Gold.Chemscore.Rot.Weighted>
6.3428

> <Gold.Chemscore.Internal.Correction.Weighted>
   9.000000E+99

> <Gold.Protein.RotatedTorsions>
[ 6907 6896 6895 6894 ] final  104.76 input  -60.11 | X-H torsion
[ 7974 7965 7964 7962 ] final  -69.63 input  175.53 | X-H torsion
[ 8008 7997 7996 7995 ] final -118.83 input   59.86 | X-H torsion
[ 10167 10162 10161 10158 ] final  -73.35 input  -65.29 | X-H torsion
[ 10718 10713 10712 10709 ] final  166.56 input   66.30 | X-H torsion
[ 10763 10752 10751 10750 ] final  -90.12 input  -60.55 | X-H torsion
[ 11005 11000 10999 10996 ] final -149.12 input  -57.11 | X-H torsion

> <Gold.Protein.ActiveResidues>
 VAL166  LYS551  ARG553  GLY616  TRP617  ASP618  TYR619  PRO620  LYS621  CYS622 
 ASP623  PHE694  ASN695  SER759  ASP760  ASP761  ALA762  ILE779  LEU786  VAL792 
 PHE793  MET794  SER795  GLU796  ALA797  LYS798  CYS799  TRP800  GLU811  SER814 

> <Gold.Protein.RotatedAtoms>
  152.5253  133.9629  159.7725 H   0  0  0  0  0  0  0  0  0  0  0  0  # atno 6907 bound_to 6896
  150.9916  133.6136  159.2714 H   0  0  0  0  0  0  0  0  0  0  0  0  # atno 6908 bound_to 6896
  151.3277  135.0840  159.9381 H   0  0  0  0  0  0  0  0  0  0  0  0  # atno 6909 bound_to 6896
  145.7013  140.9115  143.0729 H   0  0  0  0  0  0  0  0  0  0  0  0  # atno 7974 bound_to 7965
  155.1060  140.0396  157.2710 H   0  0  0  0  0  0  0  0  0  0  0  0  # atno 8008 bound_to 7997
  154.6722  140.2614  155.6970 H   0  0  0  0  0  0  0  0  0  0  0  0  # atno 8009 bound_to 7997
  156.2662  140.2795  156.1235 H   0  0  0  0  0  0  0  0  0  0  0  0  # atno 8010 bound_to 7997
  140.5117  143.2344  151.7582 H   0  0  0  0  0  0  0  0  0  0  0  0  # atno 10167 bound_to 10162
  157.0641  131.0348  151.2636 H   0  0  0  0  0  0  0  0  0  0  0  0  # atno 10718 bound_to 10713
  154.6625  135.5316  153.8035 H   0  0  0  0  0  0  0  0  0  0  0  0  # atno 10763 bound_to 10752
  153.0450  135.6509  154.0850 H   0  0  0  0  0  0  0  0  0  0  0  0  # atno 10764 bound_to 10752
  154.0758  135.2951  155.3279 H   0  0  0  0  0  0  0  0  0  0  0  0  # atno 10765 bound_to 10752
  140.7541  134.3373  157.5118 H   0  0  0  0  0  0  0  0  0  0  0  0  # atno 11005 bound_to 11000
  144.6968  139.8952  143.7455 LP  0  0  0  0  0  0  0  0  0  0  0  0  # atno 17320 bound_to 7965
  146.0795  139.3783  143.0473 LP  0  0  0  0  0  0  0  0  0  0  0  0  # atno 17321 bound_to 7965
  139.4898  144.4381  151.9796 LP  0  0  0  0  0  0  0  0  0  0  0  0  # atno 17342 bound_to 10162
  140.3473  144.3131  150.5955 LP  0  0  0  0  0  0  0  0  0  0  0  0  # atno 17343 bound_to 10162
  157.4931  130.7834  149.7527 LP  0  0  0  0  0  0  0  0  0  0  0  0  # atno 17370 bound_to 10713
  155.9969  130.3903  150.2759 LP  0  0  0  0  0  0  0  0  0  0  0  0  # atno 17371 bound_to 10713
  139.8782  134.9161  156.3146 LP  0  0  0  0  0  0  0  0  0  0  0  0  # atno 17394 bound_to 11000
  140.9724  133.7319  156.0553 LP  0  0  0  0  0  0  0  0  0  0  0  0  # atno 17395 bound_to 11000

$$$$
