AV-unprocessed.smi:2990|AV-procd|sdf|11396|dock1
  -GOLD-   2272016323D 1   1.00000     0.00000
 Structure written by MMmdl.
 40 42  0  0  0  0  0  0  0  0  2 V2000
  149.3913  141.0287  154.8662 C   0  0  0  0  0  0  0  0  0  0  0  0
  150.2408  141.4575  156.0155 C   0  0  0  0  0  0  0  0  0  0  0  0
  150.2861  142.7080  156.5558 N   0  3  0  0  0  0  0  0  0  0  0  0
  151.1983  142.7337  157.6122 C   0  0  0  0  0  0  0  0  0  0  0  0
  151.5851  143.7682  158.4585 C   0  0  0  0  0  0  0  0  0  0  0  0
  152.5481  143.4556  159.4407 C   0  0  0  0  0  0  0  0  0  0  0  0
  153.0887  142.1578  159.5526 C   0  0  0  0  0  0  0  0  0  0  0  0
  152.6901  141.1174  158.6874 C   0  0  0  0  0  0  0  0  0  0  0  0
  151.7360  141.4350  157.7212 C   0  0  0  0  0  0  0  0  0  0  0  0
  151.1138  140.6818  156.7200 N   0  0  0  0  0  0  0  0  0  0  0  0
  151.4665  139.2624  156.5669 C   0  0  0  0  0  0  0  0  0  0  0  0
  151.8243  138.8820  155.1158 C   0  0  1  0  0  0  0  0  0  0  0  0
  153.2283  138.8923  154.9511 O   0  0  0  0  0  0  0  0  0  0  0  0
  151.2955  137.4937  154.7295 C   0  0  0  0  0  0  0  0  0  0  0  0
  151.6262  136.5735  155.7615 O   0  0  0  0  0  0  0  0  0  0  0  0
  150.9412  135.3786  155.8144 C   0  0  0  0  0  0  0  0  0  0  0  0
  151.3761  134.4335  156.7665 C   0  0  0  0  0  0  0  0  0  0  0  0
  150.7348  133.1858  156.8892 C   0  0  0  0  0  0  0  0  0  0  0  0
  149.6450  132.8703  156.0569 C   0  0  0  0  0  0  0  0  0  0  0  0
  149.1991  133.8044  155.1037 C   0  0  0  0  0  0  0  0  0  0  0  0
  149.8412  135.0522  154.9807 C   0  0  0  0  0  0  0  0  0  0  0  0
  148.7011  141.8233  154.5821 H   0  0  0  0  0  0  0  0  0  0  0  0
  148.8110  140.1452  155.1331 H   0  0  0  0  0  0  0  0  0  0  0  0
  150.0172  140.7884  154.0067 H   0  0  0  0  0  0  0  0  0  0  0  0
  151.1733  144.7632  158.3740 H   0  0  0  0  0  0  0  0  0  0  0  0
  152.8787  144.2265  160.1216 H   0  0  0  0  0  0  0  0  0  0  0  0
  153.8246  141.9562  160.3175 H   0  0  0  0  0  0  0  0  0  0  0  0
  153.1099  140.1266  158.7800 H   0  0  0  0  0  0  0  0  0  0  0  0
  152.3067  139.0554  157.2308 H   0  0  0  0  0  0  0  0  0  0  0  0
  150.6331  138.6623  156.9343 H   0  0  0  0  0  0  0  0  0  0  0  0
  151.4114  139.6193  154.4270 H   0  0  0  0  0  0  0  0  0  0  0  0
  153.4220  138.7956  154.0315 H   0  0  0  0  0  0  0  0  0  0  0  0
  150.2110  137.5335  154.6123 H   0  0  0  0  0  0  0  0  0  0  0  0
  151.7287  137.1802  153.7781 H   0  0  0  0  0  0  0  0  0  0  0  0
  152.2124  134.6669  157.4091 H   0  0  0  0  0  0  0  0  0  0  0  0
  151.0794  132.4713  157.6222 H   0  0  0  0  0  0  0  0  0  0  0  0
  149.1519  131.9139  156.1497 H   0  0  0  0  0  0  0  0  0  0  0  0
  148.3621  133.5643  154.4647 H   0  0  0  0  0  0  0  0  0  0  0  0
  149.4691  135.7424  154.2392 H   0  0  0  0  0  0  0  0  0  0  0  0
  149.7329  143.4871  156.2227 H   0  0  0  0  0  0  0  0  0  0  0  0
  1  2  1  0  0  0  0
  1 22  1  0  0  0  0
  1 23  1  0  0  0  0
  1 24  1  0  0  0  0
  2 10  1  0  0  0  0
  2  3  2  0  0  0  0
  3  4  1  0  0  0  0
  3 40  1  0  0  0  0
  4  9  2  0  0  0  0
  4  5  1  0  0  0  0
  5  6  2  0  0  0  0
  5 25  1  0  0  0  0
  6  7  1  0  0  0  0
  6 26  1  0  0  0  0
  7  8  2  0  0  0  0
  7 27  1  0  0  0  0
  8  9  1  0  0  0  0
  8 28  1  0  0  0  0
  9 10  1  0  0  0  0
 10 11  1  0  0  0  0
 11 12  1  0  0  0  0
 11 29  1  0  0  0  0
 11 30  1  0  0  0  0
 12 13  1  0  0  0  0
 12 14  1  0  0  0  0
 12 31  1  0  0  0  0
 13 32  1  0  0  0  0
 14 15  1  0  0  0  0
 14 33  1  0  0  0  0
 14 34  1  0  0  0  0
 15 16  1  0  0  0  0
 16 21  1  0  0  0  0
 16 17  2  0  0  0  0
 17 18  1  0  0  0  0
 17 35  1  0  0  0  0
 18 19  2  0  0  0  0
 18 36  1  0  0  0  0
 19 20  1  0  0  0  0
 19 37  1  0  0  0  0
 20 21  2  0  0  0  0
 20 38  1  0  0  0  0
 21 39  1  0  0  0  0
M  CHG  1   3   1
M  END
> <s_m_source_file>
AV-unprocessed.smi

> <i_m_source_file_index>
2990

> <i_lp_mmshare_version>
43012

> <i_f3d_flags>
0

> <s_epik_input>
W2NIXTFbY0hdW2NIXVtjSF1jKGMxMiluKGMobjIpW0NIM10pW0NIMl1bQ0BIXShbT0hdKVtDSDJdT2MzW2NIXVtjSF1bY0hdW2NIXVtjSF0z

> <s_epik_cmdline>
J2VwaWtfcHl0aG9uJywgJy1waCcsICc3LjAnLCAnLXRuJywgJzgnLCAnLW1hJywgJzIwMCcsICctbWV0YWxfYmluZGluZycsICctaW1hZScsICc8aW5maWxlLm1hZT4nLCAnLW9tYWUnLCAnPG91dGZpbGUubWFlPic=

> <r_lp_tautomer_probability>
1

> <r_epik_Ionization_Penalty>
1.00673

> <r_epik_Ionization_Penalty_Charging>
1.00673

> <r_epik_Ionization_Penalty_Neutral>
2.3993e-06

> <r_epik_State_Penalty>
1.05579

> <r_epik_Charging_Adjusted_Penalty>
2.06252

> <i_epik_Tot_Q>
1

> <i_epik_Tot_abs_Q>
1

> <r_epik_Metal_State_Penalty>
5.03947

> <b_epik_Metal_Only>
0

> <s_lp_Force_Field>
OPLS_2005

> <r_lp_Energy>
17.9265

> <b_lp_Chiralities_Consistent>
1

> <s_lp_Variant>
AV-unprocessed.smi:2990-4

> <Gold.Version>
5.8.1

> <Gold.Id.Protein>
6NUR|6NUR_protein|mol2

> <Gold.PLP.Fitness>
54.3040

> <Gold.PLP.PLP>
-46.1250

> <Gold.PLP.part.hbond>
-3.0000

> <Gold.PLP.part.metal>
0.0000

> <Gold.PLP.part.buried>
-3.5701

> <Gold.PLP.part.nonpolar>
-39.3554

> <Gold.PLP.part.repulsive>
0.1313

> <Gold.PLP.ligand.clash>
0.0000

> <Gold.PLP.ligand.torsion>
0.8182

> <Gold.PLP.Chemscore.Hbond>
3.2000

> <Gold.PLP.Chemscore.CHOScore>
0.0000

> <Gold.PLP.Chemscore.Metal>
0.0000

> <Gold.Chemscore.Hbonds>
donor molecule, donor type, donor heavy atom, donor atom, acceptor molecule, acceptor atom, score
      L1  H     3    40       P1  8028  2.00
      P1  H  7997  8010       L1    13  0.98
      P1  H 10752 10763       L1    15  0.19

> <Gold.PLP.Chemscore.Internal.Correction>
0.2154

> <Gold.Rescore>
     Score         DG    S(hbond)    S(metal)    S(lipo)     H(rot)  DE(clash)    DE(int)     intcor
     19.86     -20.68       1.96        0.00     120.36       2.12       0.04       0.78       ----

> <Gold.Chemscore.Fitness>
19.8581

> <Gold.Chemscore.DG>
-20.6760

> <Gold.Chemscore.ZeroCoef>
-5.4800

> <Gold.Chemscore.Hbond>
1.9570

> <Gold.Chemscore.Metal>
0.0000

> <Gold.Chemscore.Lipo>
120.3641

> <Gold.Chemscore.Internal_Hbond>
0.0000

> <Gold.Chemscore.DEClash>
0.0407

> <Gold.Chemscore.DEInternal>
0.7772

> <Gold.Chemscore.Rot>
2.1184

> <Gold.Chemscore.Internal.Correction>
   9.000000E+99

> <Gold.Chemscore.Hbonds>
donor molecule, donor type, donor heavy atom, donor atom, acceptor molecule, acceptor atom, score
      L1  H     3    40       P1  8028  0.98
      P1  H  7997  8010       L1    13  0.54

> <Gold.Chemscore.Hbond.Weighted>
-6.5365

> <Gold.Chemscore.Metal.Weighted>
-0.0000

> <Gold.Chemscore.Lipo.Weighted>
-14.0826

> <Gold.Chemscore.Internal_Hbond.Weighted>
0.0000

> <Gold.Chemscore.DEClash.Weighted>
0.0407

> <Gold.Chemscore.DEInternal.Weighted>
0.7772

> <Gold.Chemscore.Rot.Weighted>
5.4231

> <Gold.Chemscore.Internal.Correction.Weighted>
   9.000000E+99

> <Gold.Protein.RotatedTorsions>
[ 6907 6896 6895 6894 ] final   76.38 input  -60.11 | X-H torsion
[ 7974 7965 7964 7962 ] final  178.55 input  175.53 | X-H torsion
[ 8008 7997 7996 7995 ] final  117.59 input   59.86 | X-H torsion
[ 10167 10162 10161 10158 ] final  -80.58 input  -65.29 | X-H torsion
[ 10718 10713 10712 10709 ] final    6.26 input   66.30 | X-H torsion
[ 10763 10752 10751 10750 ] final   63.81 input  -60.55 | X-H torsion
[ 11005 11000 10999 10996 ] final  -57.94 input  -57.11 | X-H torsion

> <Gold.Protein.ActiveResidues>
 VAL166  LYS551  ARG553  GLY616  TRP617  ASP618  TYR619  PRO620  LYS621  CYS622 
 ASP623  PHE694  ASN695  SER759  ASP760  ASP761  ALA762  ILE779  LEU786  VAL792 
 PHE793  MET794  SER795  GLU796  ALA797  LYS798  CYS799  TRP800  GLU811  SER814 

> <Gold.Protein.RotatedAtoms>
  152.5070  134.3977  159.9405 H   0  0  0  0  0  0  0  0  0  0  0  0  # atno 6907 bound_to 6896
  151.3940  133.3773  159.2732 H   0  0  0  0  0  0  0  0  0  0  0  0  # atno 6908 bound_to 6896
  150.9411  134.8841  159.7672 H   0  0  0  0  0  0  0  0  0  0  0  0  # atno 6909 bound_to 6896
  144.7155  140.0415  143.6437 H   0  0  0  0  0  0  0  0  0  0  0  0  # atno 7974 bound_to 7965
  156.2502  140.2893  156.0702 H   0  0  0  0  0  0  0  0  0  0  0  0  # atno 8008 bound_to 7997
  155.1679  140.0401  157.2874 H   0  0  0  0  0  0  0  0  0  0  0  0  # atno 8009 bound_to 7997
  154.6346  140.2508  155.7399 H   0  0  0  0  0  0  0  0  0  0  0  0  # atno 8010 bound_to 7997
  140.4490  143.2489  151.8516 H   0  0  0  0  0  0  0  0  0  0  0  0  # atno 10167 bound_to 10162
  156.9195  130.5786  149.5647 H   0  0  0  0  0  0  0  0  0  0  0  0  # atno 10718 bound_to 10713
  153.0032  135.5415  154.6411 H   0  0  0  0  0  0  0  0  0  0  0  0  # atno 10763 bound_to 10752
  154.5666  135.2838  155.0870 H   0  0  0  0  0  0  0  0  0  0  0  0  # atno 10764 bound_to 10752
  154.2052  135.6477  153.5151 H   0  0  0  0  0  0  0  0  0  0  0  0  # atno 10765 bound_to 10752
  141.1186  133.6611  156.4846 H   0  0  0  0  0  0  0  0  0  0  0  0  # atno 11005 bound_to 11000
  146.0020  139.3099  143.0922 LP  0  0  0  0  0  0  0  0  0  0  0  0  # atno 17320 bound_to 7965
  145.8782  140.9379  143.0615 LP  0  0  0  0  0  0  0  0  0  0  0  0  # atno 17321 bound_to 7965
  139.4795  144.5142  151.8891 LP  0  0  0  0  0  0  0  0  0  0  0  0  # atno 17342 bound_to 10162
  140.4229  144.2219  150.5887 LP  0  0  0  0  0  0  0  0  0  0  0  0  # atno 17343 bound_to 10162
  156.0497  130.5569  150.8962 LP  0  0  0  0  0  0  0  0  0  0  0  0  # atno 17370 bound_to 10713
  157.5916  131.0944  150.9109 LP  0  0  0  0  0  0  0  0  0  0  0  0  # atno 17371 bound_to 10713
  140.4573  134.6874  157.5068 LP  0  0  0  0  0  0  0  0  0  0  0  0  # atno 17394 bound_to 11000
  140.0127  134.6667  155.9357 LP  0  0  0  0  0  0  0  0  0  0  0  0  # atno 17395 bound_to 11000

$$$$
