AV-unprocessed.smi:467|AV-procd|sdf|2646|dock5
  -GOLD-   2262023 53D 1   1.00000     0.00000
 Structure written by MMmdl.
 45 47  0  0  0  0  0  0  0  0  2 V2000
  152.0304  143.5206  160.6678 C   0  0  0  0  0  0  0  0  0  0  0  0
  151.9444  142.4693  159.5754 C   0  0  0  0  0  0  0  0  0  0  0  0
  151.1426  142.7225  158.4397 C   0  0  0  0  0  0  0  0  0  0  0  0
  151.0335  141.7698  157.4033 C   0  0  0  0  0  0  0  0  0  0  0  0
  150.3141  141.8069  156.2210 N   0  0  0  0  0  0  0  0  0  0  0  0
  150.6167  140.6279  155.6860 C   0  0  0  0  0  0  0  0  0  0  0  0
  151.4520  139.8313  156.3800 N   0  0  0  0  0  0  0  0  0  0  0  0
  151.9195  138.5110  155.9958 C   0  0  0  0  0  0  0  0  0  0  0  0
  151.1249  137.9221  154.8142 C   0  0  1  0  0  0  0  0  0  0  0  0
  151.9066  136.9368  154.1645 O   0  0  0  0  0  0  0  0  0  0  0  0
  149.8032  137.2793  155.2782 C   0  0  0  0  0  0  0  0  0  0  0  0
  148.6755  137.5716  154.3568 N   0  3  0  0  0  0  0  0  0  0  0  0
  147.4060  136.9441  154.7945 C   0  0  0  0  0  0  0  0  0  0  0  0
  146.2872  137.2267  153.7777 C   0  0  0  0  0  0  0  0  0  0  0  0
  146.1383  138.6309  153.6100 O   0  0  0  0  0  0  0  0  0  0  0  0
  147.3228  139.2347  153.1055 C   0  0  0  0  0  0  0  0  0  0  0  0
  148.4756  139.0200  154.1010 C   0  0  0  0  0  0  0  0  0  0  0  0
  151.7558  140.5474  157.5337 C   0  0  0  0  0  0  0  0  0  0  0  0
  152.5595  140.2856  158.6575 C   0  0  0  0  0  0  0  0  0  0  0  0
  152.6556  141.2475  159.6850 C   0  0  0  0  0  0  0  0  0  0  0  0
  153.5225  140.9538  160.8967 C   0  0  0  0  0  0  0  0  0  0  0  0
  151.3881  144.3745  160.4505 H   0  0  0  0  0  0  0  0  0  0  0  0
  153.0529  143.8865  160.7651 H   0  0  0  0  0  0  0  0  0  0  0  0
  151.7183  143.1041  161.6259 H   0  0  0  0  0  0  0  0  0  0  0  0
  150.6013  143.6535  158.3555 H   0  0  0  0  0  0  0  0  0  0  0  0
  150.2088  140.3256  154.7325 H   0  0  0  0  0  0  0  0  0  0  0  0
  152.9805  138.5716  155.7508 H   0  0  0  0  0  0  0  0  0  0  0  0
  151.8397  137.8571  156.8654 H   0  0  0  0  0  0  0  0  0  0  0  0
  150.9267  138.7208  154.1001 H   0  0  0  0  0  0  0  0  0  0  0  0
  151.5582  136.7955  153.2971 H   0  0  0  0  0  0  0  0  0  0  0  0
  149.9499  136.2004  155.3530 H   0  0  0  0  0  0  0  0  0  0  0  0
  149.5420  137.6178  156.2823 H   0  0  0  0  0  0  0  0  0  0  0  0
  147.5413  135.8667  154.8980 H   0  0  0  0  0  0  0  0  0  0  0  0
  147.1260  137.3292  155.7764 H   0  0  0  0  0  0  0  0  0  0  0  0
  146.5025  136.7541  152.8180 H   0  0  0  0  0  0  0  0  0  0  0  0
  145.3439  136.8110  154.1325 H   0  0  0  0  0  0  0  0  0  0  0  0
  147.5700  138.8202  152.1269 H   0  0  0  0  0  0  0  0  0  0  0  0
  147.1426  140.3005  152.9631 H   0  0  0  0  0  0  0  0  0  0  0  0
  148.2543  139.5321  155.0389 H   0  0  0  0  0  0  0  0  0  0  0  0
  149.3845  139.4680  153.7007 H   0  0  0  0  0  0  0  0  0  0  0  0
  153.0970  139.3518  158.7303 H   0  0  0  0  0  0  0  0  0  0  0  0
  154.0152  139.9851  160.8086 H   0  0  0  0  0  0  0  0  0  0  0  0
  152.9171  140.9403  161.8034 H   0  0  0  0  0  0  0  0  0  0  0  0
  154.2964  141.7136  161.0076 H   0  0  0  0  0  0  0  0  0  0  0  0
  148.9126  137.1434  153.4727 H   0  0  0  0  0  0  0  0  0  0  0  0
  1  2  1  0  0  0  0
  1 22  1  0  0  0  0
  1 23  1  0  0  0  0
  1 24  1  0  0  0  0
  2 20  1  0  0  0  0
  2  3  2  0  0  0  0
  3  4  1  0  0  0  0
  3 25  1  0  0  0  0
  4 18  2  0  0  0  0
  4  5  1  0  0  0  0
  5  6  2  0  0  0  0
  6  7  1  0  0  0  0
  6 26  1  0  0  0  0
  7  8  1  0  0  0  0
  7 18  1  0  0  0  0
  8  9  1  0  0  0  0
  8 27  1  0  0  0  0
  8 28  1  0  0  0  0
  9 10  1  0  0  0  0
  9 11  1  0  0  0  0
  9 29  1  0  0  0  0
 10 30  1  0  0  0  0
 11 12  1  0  0  0  0
 11 31  1  0  0  0  0
 11 32  1  0  0  0  0
 12 17  1  0  0  0  0
 12 13  1  0  0  0  0
 12 45  1  0  0  0  0
 13 14  1  0  0  0  0
 13 33  1  0  0  0  0
 13 34  1  0  0  0  0
 14 15  1  0  0  0  0
 14 35  1  0  0  0  0
 14 36  1  0  0  0  0
 15 16  1  0  0  0  0
 16 17  1  0  0  0  0
 16 37  1  0  0  0  0
 16 38  1  0  0  0  0
 17 39  1  0  0  0  0
 17 40  1  0  0  0  0
 18 19  1  0  0  0  0
 19 20  2  0  0  0  0
 19 41  1  0  0  0  0
 20 21  1  0  0  0  0
 21 42  1  0  0  0  0
 21 43  1  0  0  0  0
 21 44  1  0  0  0  0
M  CHG  1  12   1
M  END
> <s_m_source_file>
AV-unprocessed.smi

> <i_m_source_file_index>
467

> <i_lp_mmshare_version>
43012

> <i_f3d_flags>
0

> <s_epik_input>
W0NIM11jKFtjSF0xKWMoW0NIM10pW2NIXWMoYzEyKW4oW2NIXW4yKVtDSDJdW0NASF0oW09IXSlbQ0gyXU4zW0NIMl1bQ0gyXU9bQ0gyXVtDSDJdMw==

> <s_epik_cmdline>
J2VwaWtfcHl0aG9uJywgJy1waCcsICc3LjAnLCAnLXRuJywgJzgnLCAnLW1hJywgJzIwMCcsICctbWV0YWxfYmluZGluZycsICctaW1hZScsICc8aW5maWxlLm1hZT4nLCAnLW9tYWUnLCAnPG91dGZpbGUubWFlPic=

> <r_epik_Ionization_Penalty>
0.695168

> <r_epik_Ionization_Penalty_Charging>
0.608065

> <r_epik_Ionization_Penalty_Neutral>
0.0871028

> <r_epik_State_Penalty>
0.731876

> <r_epik_Charging_Adjusted_Penalty>
1.33994

> <i_epik_Tot_Q>
1

> <i_epik_Tot_abs_Q>
1

> <r_epik_Metal_State_Penalty>
0.652189

> <b_epik_Metal_Only>
0

> <s_lp_Force_Field>
OPLS_2005

> <r_lp_Energy>
21.2169

> <b_lp_Chiralities_Consistent>
1

> <s_lp_Variant>
AV-unprocessed.smi:467-4

> <Gold.Version>
5.8.1

> <Gold.Id.Protein>
6NUR|6NUR_protein|mol2

> <Gold.PLP.Fitness>
50.6023

> <Gold.PLP.PLP>
-40.4621

> <Gold.PLP.part.hbond>
-3.0000

> <Gold.PLP.part.metal>
0.0000

> <Gold.PLP.part.buried>
-3.3624

> <Gold.PLP.part.nonpolar>
-33.4397

> <Gold.PLP.part.repulsive>
0.2891

> <Gold.PLP.ligand.clash>
0.0000

> <Gold.PLP.ligand.torsion>
0.9472

> <Gold.PLP.Chemscore.Hbond>
4.0000

> <Gold.PLP.Chemscore.CHOScore>
0.0000

> <Gold.PLP.Chemscore.Metal>
0.0000

> <Gold.Chemscore.Hbonds>
donor molecule, donor type, donor heavy atom, donor atom, acceptor molecule, acceptor atom, score
      L1  H    10    30       P1  7949  1.00
      L1  H    12    45       P1  7948  2.00
      P1  H 10752 10763       L1    10  0.75

> <Gold.PLP.Chemscore.Internal.Correction>
0.0346

> <Gold.Rescore>
     Score         DG    S(hbond)    S(metal)    S(lipo)     H(rot)  DE(clash)    DE(int)     intcor
     19.59     -20.79       2.60        0.00     102.68       2.10       0.08       1.12       ----

> <Gold.Chemscore.Fitness>
19.5884

> <Gold.Chemscore.DG>
-20.7926

> <Gold.Chemscore.ZeroCoef>
-5.4800

> <Gold.Chemscore.Hbond>
2.5984

> <Gold.Chemscore.Metal>
0.0000

> <Gold.Chemscore.Lipo>
102.6752

> <Gold.Chemscore.Internal_Hbond>
0.0000

> <Gold.Chemscore.DEClash>
0.0803

> <Gold.Chemscore.DEInternal>
1.1239

> <Gold.Chemscore.Rot>
2.1011

> <Gold.Chemscore.Internal.Correction>
   9.000000E+99

> <Gold.Chemscore.Hbonds>
donor molecule, donor type, donor heavy atom, donor atom, acceptor molecule, acceptor atom, score
      L1  H    10    30       P1  7949  0.87
      L1  H    12    45       P1  7948  1.00
      P1  H 10752 10763       L1    10  0.09

> <Gold.Chemscore.Hbond.Weighted>
-8.6785

> <Gold.Chemscore.Metal.Weighted>
-0.0000

> <Gold.Chemscore.Lipo.Weighted>
-12.0130

> <Gold.Chemscore.Internal_Hbond.Weighted>
0.0000

> <Gold.Chemscore.DEClash.Weighted>
0.0803

> <Gold.Chemscore.DEInternal.Weighted>
1.1239

> <Gold.Chemscore.Rot.Weighted>
5.3789

> <Gold.Chemscore.Internal.Correction.Weighted>
   9.000000E+99

> <Gold.Protein.RotatedTorsions>
[ 6907 6896 6895 6894 ] final   46.20 input  -60.11 | X-H torsion
[ 7974 7965 7964 7962 ] final -105.85 input  175.53 | X-H torsion
[ 8008 7997 7996 7995 ] final   37.28 input   59.86 | X-H torsion
[ 10167 10162 10161 10158 ] final  174.16 input  -65.29 | X-H torsion
[ 10718 10713 10712 10709 ] final -178.91 input   66.30 | X-H torsion
[ 10763 10752 10751 10750 ] final   27.87 input  -60.55 | X-H torsion
[ 11005 11000 10999 10996 ] final  143.67 input  -57.11 | X-H torsion

> <Gold.Protein.ActiveResidues>
 VAL166  LYS551  ARG553  GLY616  TRP617  ASP618  TYR619  PRO620  LYS621  CYS622 
 ASP623  PHE694  ASN695  SER759  ASP760  ASP761  ALA762  ILE779  LEU786  VAL792 
 PHE793  MET794  SER795  GLU796  ALA797  LYS798  CYS799  TRP800  GLU811  SER814 

> <Gold.Protein.RotatedAtoms>
  152.2536  134.8107  160.0441 H   0  0  0  0  0  0  0  0  0  0  0  0  # atno 6907 bound_to 6896
  151.8779  133.3484  159.3764 H   0  0  0  0  0  0  0  0  0  0  0  0  # atno 6908 bound_to 6896
  150.7092  134.4975  159.5589 H   0  0  0  0  0  0  0  0  0  0  0  0  # atno 6909 bound_to 6896
  145.2252  140.9149  143.3236 H   0  0  0  0  0  0  0  0  0  0  0  0  # atno 7974 bound_to 7965
  155.2012  140.3316  155.4343 H   0  0  0  0  0  0  0  0  0  0  0  0  # atno 8008 bound_to 7997
  156.2406  140.1893  156.7049 H   0  0  0  0  0  0  0  0  0  0  0  0  # atno 8009 bound_to 7997
  154.6140  140.0605  156.9516 H   0  0  0  0  0  0  0  0  0  0  0  0  # atno 8010 bound_to 7997
  139.5132  144.3179  152.0230 H   0  0  0  0  0  0  0  0  0  0  0  0  # atno 10167 bound_to 10162
  156.8513  130.9720  151.3092 H   0  0  0  0  0  0  0  0  0  0  0  0  # atno 10718 bound_to 10713
  153.0528  135.6527  154.0651 H   0  0  0  0  0  0  0  0  0  0  0  0  # atno 10763 bound_to 10752
  154.0336  135.2909  155.3366 H   0  0  0  0  0  0  0  0  0  0  0  0  # atno 10764 bound_to 10752
  154.6826  135.5314  153.8351 H   0  0  0  0  0  0  0  0  0  0  0  0  # atno 10765 bound_to 10752
  140.0572  134.9224  157.1121 H   0  0  0  0  0  0  0  0  0  0  0  0  # atno 11005 bound_to 11000
  144.9728  139.3863  143.6300 LP  0  0  0  0  0  0  0  0  0  0  0  0  # atno 17320 bound_to 7965
  146.3366  139.8833  142.8821 LP  0  0  0  0  0  0  0  0  0  0  0  0  # atno 17321 bound_to 7965
  140.2621  144.4055  150.6182 LP  0  0  0  0  0  0  0  0  0  0  0  0  # atno 17342 bound_to 10162
  140.6149  143.2172  151.6811 LP  0  0  0  0  0  0  0  0  0  0  0  0  # atno 17343 bound_to 10162
  157.6302  130.8723  149.9260 LP  0  0  0  0  0  0  0  0  0  0  0  0  # atno 17370 bound_to 10713
  156.0827  130.3671  150.0549 LP  0  0  0  0  0  0  0  0  0  0  0  0  # atno 17371 bound_to 10713
  140.3825  134.2271  155.7170 LP  0  0  0  0  0  0  0  0  0  0  0  0  # atno 17394 bound_to 11000
  141.1957  133.8099  157.0703 LP  0  0  0  0  0  0  0  0  0  0  0  0  # atno 17395 bound_to 11000

$$$$
