AV-unprocessed.smi:859|AV-procd|sdf|3963|dock9
  -GOLD-   22720 1433D 1   1.00000     0.00000
 Structure written by MMmdl.
 36 37  0  0  0  0  0  0  0  0  2 V2000
  152.8030  140.6952  156.8893 O   0  0  0  0  0  0  0  0  0  0  0  0
  151.9849  141.4929  157.3488 C   0  0  0  0  0  0  0  0  0  0  0  0
  150.7012  141.5371  156.9581 N   0  0  0  0  0  0  0  0  0  0  0  0
  150.1006  140.6894  155.9321 C   0  0  0  0  0  0  0  0  0  0  0  0
  149.6569  141.4983  154.6984 C   0  0  0  0  0  0  0  0  0  0  0  0
  148.2000  141.5296  154.5331 N   0  0  0  0  0  0  0  0  0  0  0  0
  147.2867  142.1605  155.3384 C   0  0  0  0  0  0  0  0  0  0  0  0
  146.0505  141.8991  154.8062 C   0  0  0  0  0  0  0  0  0  0  0  0
  146.2613  141.1246  153.6970 N   0  3  0  0  0  0  0  0  0  0  0  0
  147.5693  140.9052  153.5297 C   0  0  0  0  0  0  0  0  0  0  0  0
  152.4166  142.5235  158.3994 C   0  0  0  0  0  0  0  0  0  0  0  0
  152.4677  141.8848  159.8040 C   0  0  0  0  0  0  0  0  0  0  0  0
  152.8966  142.9092  160.8670 C   0  0  0  0  0  0  0  0  0  0  0  0
  151.9735  144.1380  160.8607 C   0  0  0  0  0  0  0  0  0  0  0  0
  151.9011  144.7744  159.4634 C   0  0  0  0  0  0  0  0  0  0  0  0
  151.4745  143.7460  158.4029 C   0  0  0  0  0  0  0  0  0  0  0  0
  150.0984  142.2203  157.3942 H   0  0  0  0  0  0  0  0  0  0  0  0
  150.7763  139.8824  155.6433 H   0  0  0  0  0  0  0  0  0  0  0  0
  149.2286  140.2087  156.3756 H   0  0  0  0  0  0  0  0  0  0  0  0
  149.9939  142.5313  154.7892 H   0  0  0  0  0  0  0  0  0  0  0  0
  150.1064  141.0979  153.7883 H   0  0  0  0  0  0  0  0  0  0  0  0
  147.5765  142.7260  156.2123 H   0  0  0  0  0  0  0  0  0  0  0  0
  145.0621  142.1960  155.1263 H   0  0  0  0  0  0  0  0  0  0  0  0
  148.0239  140.3253  152.7463 H   0  0  0  0  0  0  0  0  0  0  0  0
  153.4205  142.8704  158.1471 H   0  0  0  0  0  0  0  0  0  0  0  0
  151.4890  141.4817  160.0699 H   0  0  0  0  0  0  0  0  0  0  0  0
  153.1600  141.0418  159.8097 H   0  0  0  0  0  0  0  0  0  0  0  0
  152.8910  142.4457  161.8541 H   0  0  0  0  0  0  0  0  0  0  0  0
  153.9242  143.2226  160.6785 H   0  0  0  0  0  0  0  0  0  0  0  0
  150.9726  143.8444  161.1800 H   0  0  0  0  0  0  0  0  0  0  0  0
  152.3264  144.8718  161.5858 H   0  0  0  0  0  0  0  0  0  0  0  0
  151.2020  145.6112  159.4719 H   0  0  0  0  0  0  0  0  0  0  0  0
  152.8748  145.1888  159.1994 H   0  0  0  0  0  0  0  0  0  0  0  0
  151.4672  144.2190  157.4200 H   0  0  0  0  0  0  0  0  0  0  0  0
  150.4485  143.4315  158.6013 H   0  0  0  0  0  0  0  0  0  0  0  0
  145.5339  140.7653  153.0918 H   0  0  0  0  0  0  0  0  0  0  0  0
  1  2  2  0  0  0  0
  2  3  1  0  0  0  0
  2 11  1  0  0  0  0
  3  4  1  0  0  0  0
  3 17  1  0  0  0  0
  4  5  1  0  0  0  0
  4 18  1  0  0  0  0
  4 19  1  0  0  0  0
  5  6  1  0  0  0  0
  5 20  1  0  0  0  0
  5 21  1  0  0  0  0
  6 10  1  0  0  0  0
  6  7  1  0  0  0  0
  7  8  2  0  0  0  0
  7 22  1  0  0  0  0
  8  9  1  0  0  0  0
  8 23  1  0  0  0  0
  9 10  2  0  0  0  0
  9 36  1  0  0  0  0
 10 24  1  0  0  0  0
 11 16  1  0  0  0  0
 11 12  1  0  0  0  0
 11 25  1  0  0  0  0
 12 13  1  0  0  0  0
 12 26  1  0  0  0  0
 12 27  1  0  0  0  0
 13 14  1  0  0  0  0
 13 28  1  0  0  0  0
 13 29  1  0  0  0  0
 14 15  1  0  0  0  0
 14 30  1  0  0  0  0
 14 31  1  0  0  0  0
 15 16  1  0  0  0  0
 15 32  1  0  0  0  0
 15 33  1  0  0  0  0
 16 34  1  0  0  0  0
 16 35  1  0  0  0  0
M  CHG  1   9   1
M  END
> <s_m_source_file>
AV-unprocessed.smi

> <i_m_source_file_index>
859

> <i_lp_mmshare_version>
43012

> <i_f3d_flags>
0

> <s_epik_input>
W0NIMl0xW0NIMl1bQ0gyXVtDSDJdW0NIMl1bQ0hdMUMoPU8pW05IXVtDSDJdW0NIMl1uMltjSF1bY0hdbltjSF0y

> <s_epik_cmdline>
J2VwaWtfcHl0aG9uJywgJy1waCcsICc3LjAnLCAnLXRuJywgJzgnLCAnLW1hJywgJzIwMCcsICctbWV0YWxfYmluZGluZycsICctaW1hZScsICc8aW5maWxlLm1hZT4nLCAnLW9tYWUnLCAnPG91dGZpbGUubWFlPic=

> <r_lp_tautomer_probability>
1

> <r_epik_Ionization_Penalty>
0.267085

> <r_epik_Ionization_Penalty_Charging>
0

> <r_epik_Ionization_Penalty_Neutral>
0.267085

> <r_epik_State_Penalty>
0.259064

> <r_epik_Charging_Adjusted_Penalty>
0.259064

> <i_epik_Tot_Q>
1

> <i_epik_Tot_abs_Q>
1

> <r_epik_Metal_State_Penalty>
0.54496

> <b_epik_Metal_Only>
0

> <s_lp_Force_Field>
OPLS_2005

> <r_lp_Energy>
13.141

> <b_lp_Chiralities_Consistent>
1

> <s_lp_Variant>
AV-unprocessed.smi:859-1

> <Gold.Version>
5.8.1

> <Gold.Id.Protein>
6NUR|6NUR_protein|mol2

> <Gold.PLP.Fitness>
50.0998

> <Gold.PLP.PLP>
-37.3609

> <Gold.PLP.part.hbond>
-2.0000

> <Gold.PLP.part.metal>
0.0000

> <Gold.PLP.part.buried>
0.1602

> <Gold.PLP.part.nonpolar>
-34.6207

> <Gold.PLP.part.repulsive>
0.0628

> <Gold.PLP.ligand.clash>
0.0000

> <Gold.PLP.ligand.torsion>
1.0609

> <Gold.PLP.Chemscore.Hbond>
2.9760

> <Gold.PLP.Chemscore.CHOScore>
1.9700

> <Gold.PLP.Chemscore.Metal>
0.0000

> <Gold.Chemscore.Hbonds>
donor molecule, donor type, donor heavy atom, donor atom, acceptor molecule, acceptor atom, score
      L1  H     9    36       P1 10175  2.00
      P1  H  7997  8010       L1     1  0.69
      L1  C     7    22       P1  8028  0.65
      L1  C    10    24       P1  7957  1.00

> <Gold.PLP.Chemscore.Internal.Correction>
0.0227

> <Gold.Rescore>
     Score         DG    S(hbond)    S(metal)    S(lipo)     H(rot)  DE(clash)    DE(int)     intcor
     17.05     -17.62       1.89        0.00      90.35       1.86       0.11       0.46       ----

> <Gold.Chemscore.Fitness>
17.0547

> <Gold.Chemscore.DG>
-17.6246

> <Gold.Chemscore.ZeroCoef>
-5.4800

> <Gold.Chemscore.Hbond>
1.8941

> <Gold.Chemscore.Metal>
0.0000

> <Gold.Chemscore.Lipo>
90.3544

> <Gold.Chemscore.Internal_Hbond>
0.0000

> <Gold.Chemscore.DEClash>
0.1108

> <Gold.Chemscore.DEInternal>
0.4591

> <Gold.Chemscore.Rot>
1.8567

> <Gold.Chemscore.Internal.Correction>
   9.000000E+99

> <Gold.Chemscore.Hbonds>
donor molecule, donor type, donor heavy atom, donor atom, acceptor molecule, acceptor atom, score
      L1  H     9    36       P1 10175  0.63
      P1  H  7997  8010       L1     1  0.68

> <Gold.Chemscore.Hbond.Weighted>
-6.3262

> <Gold.Chemscore.Metal.Weighted>
-0.0000

> <Gold.Chemscore.Lipo.Weighted>
-10.5715

> <Gold.Chemscore.Internal_Hbond.Weighted>
0.0000

> <Gold.Chemscore.DEClash.Weighted>
0.1108

> <Gold.Chemscore.DEInternal.Weighted>
0.4591

> <Gold.Chemscore.Rot.Weighted>
4.7531

> <Gold.Chemscore.Internal.Correction.Weighted>
   9.000000E+99

> <Gold.Protein.RotatedTorsions>
[ 6907 6896 6895 6894 ] final  -53.95 input  -60.11 | X-H torsion
[ 7974 7965 7964 7962 ] final -106.90 input  175.53 | X-H torsion
[ 8008 7997 7996 7995 ] final   57.43 input   59.86 | X-H torsion
[ 10167 10162 10161 10158 ] final  -60.11 input  -65.29 | X-H torsion
[ 10718 10713 10712 10709 ] final  -57.17 input   66.30 | X-H torsion
[ 10763 10752 10751 10750 ] final  -40.70 input  -60.55 | X-H torsion
[ 11005 11000 10999 10996 ] final   69.86 input  -57.11 | X-H torsion

> <Gold.Protein.ActiveResidues>
 VAL166  LYS551  ARG553  GLY616  TRP617  ASP618  TYR619  PRO620  LYS621  CYS622 
 ASP623  PHE694  ASN695  SER759  ASP760  ASP761  ALA762  ILE779  LEU786  VAL792 
 PHE793  MET794  SER795  GLU796  ALA797  LYS798  CYS799  TRP800  GLU811  SER814 

> <Gold.Protein.RotatedAtoms>
  150.8381  134.7662  159.6909 H   0  0  0  0  0  0  0  0  0  0  0  0  # atno 6907 bound_to 6896
  152.4474  134.5463  159.9863 H   0  0  0  0  0  0  0  0  0  0  0  0  # atno 6908 bound_to 6896
  151.5609  133.3365  159.3007 H   0  0  0  0  0  0  0  0  0  0  0  0  # atno 6909 bound_to 6896
  145.2121  140.9100  143.3308 H   0  0  0  0  0  0  0  0  0  0  0  0  # atno 7974 bound_to 7965
  155.5336  140.3482  155.4431 H   0  0  0  0  0  0  0  0  0  0  0  0  # atno 8008 bound_to 7997
  156.0701  140.1361  156.9866 H   0  0  0  0  0  0  0  0  0  0  0  0  # atno 8009 bound_to 7997
  154.4523  140.0967  156.6630 H   0  0  0  0  0  0  0  0  0  0  0  0  # atno 8010 bound_to 7997
  140.6092  143.2382  151.5749 H   0  0  0  0  0  0  0  0  0  0  0  0  # atno 10167 bound_to 10162
  156.1231  130.4164  150.0404 H   0  0  0  0  0  0  0  0  0  0  0  0  # atno 10718 bound_to 10713
  153.9502  135.6751  153.4744 H   0  0  0  0  0  0  0  0  0  0  0  0  # atno 10763 bound_to 10752
  153.0888  135.4885  154.8646 H   0  0  0  0  0  0  0  0  0  0  0  0  # atno 10764 bound_to 10752
  154.7329  135.3142  154.8819 H   0  0  0  0  0  0  0  0  0  0  0  0  # atno 10765 bound_to 10752
  139.9630  134.7029  156.0606 H   0  0  0  0  0  0  0  0  0  0  0  0  # atno 11005 bound_to 11000
  144.9846  139.3749  143.6245 LP  0  0  0  0  0  0  0  0  0  0  0  0  # atno 17320 bound_to 7965
  146.3395  139.9002  142.8795 LP  0  0  0  0  0  0  0  0  0  0  0  0  # atno 17321 bound_to 7965
  139.5348  144.2812  152.1228 LP  0  0  0  0  0  0  0  0  0  0  0  0  # atno 17342 bound_to 10162
  140.2008  144.4660  150.6432 LP  0  0  0  0  0  0  0  0  0  0  0  0  # atno 17343 bound_to 10162
  156.8337  130.9401  151.3636 LP  0  0  0  0  0  0  0  0  0  0  0  0  # atno 17370 bound_to 10713
  157.6414  130.8809  149.9455 LP  0  0  0  0  0  0  0  0  0  0  0  0  # atno 17371 bound_to 10713
  141.1308  133.6587  156.3459 LP  0  0  0  0  0  0  0  0  0  0  0  0  # atno 17394 bound_to 11000
  140.5459  134.6075  157.5393 LP  0  0  0  0  0  0  0  0  0  0  0  0  # atno 17395 bound_to 11000

$$$$
