AV-unprocessed.smi:2561|AV-procd|sdf|10040|dock7
  -GOLD-   2272014 83D 1   1.00000     0.00000
 Structure written by MMmdl.
 32 33  0  0  0  0  0  0  0  0  1 V2000
  146.8067  138.9937  151.8491 C   0  0  0  0  0  0  0  0  0  0  0  0
  148.0440  138.9325  152.6122 N   0  0  0  0  0  0  0  0  0  0  0  0
  148.3382  139.7454  153.6352 C   0  0  0  0  0  0  0  0  0  0  0  0
  147.5847  140.6348  154.0305 O   0  0  0  0  0  0  0  0  0  0  0  0
  149.5517  139.4690  154.1430 N   0  0  0  0  0  0  0  0  0  0  0  0
  150.2248  140.1034  155.2219 C   0  0  0  0  0  0  0  0  0  0  0  0
  149.7195  141.2184  155.9319 C   0  0  0  0  0  0  0  0  0  0  0  0
  150.4761  141.7480  156.9949 C   0  0  0  0  0  0  0  0  0  0  0  0
  151.7071  141.1443  157.3237 C   0  0  0  0  0  0  0  0  0  0  0  0
  152.4593  141.6762  158.3822 N   0  0  0  0  0  0  0  0  0  0  0  0
  152.1566  143.0535  158.7359 C   0  0  0  0  0  0  0  0  0  0  0  0
  152.7906  143.2690  160.1123 C   0  0  0  0  0  0  0  0  0  0  0  0
  152.9341  141.8613  160.7036 C   0  0  0  0  0  0  0  0  0  0  0  0
  152.3891  140.9230  159.6233 C   0  0  0  0  0  0  0  0  0  0  0  0
  152.1899  140.0691  156.6562 N   0  0  0  0  0  0  0  0  0  0  0  0
  151.4604  139.5664  155.6381 C   0  0  0  0  0  0  0  0  0  0  0  0
  146.8104  138.2288  151.0726 H   0  0  0  0  0  0  0  0  0  0  0  0
  146.6935  139.9667  151.3691 H   0  0  0  0  0  0  0  0  0  0  0  0
  145.9441  138.8212  152.4941 H   0  0  0  0  0  0  0  0  0  0  0  0
  148.7175  138.2298  152.3435 H   0  0  0  0  0  0  0  0  0  0  0  0
  150.0829  138.7593  153.6600 H   0  0  0  0  0  0  0  0  0  0  0  0
  148.7675  141.6670  155.6948 H   0  0  0  0  0  0  0  0  0  0  0  0
  150.1123  142.6002  157.5506 H   0  0  0  0  0  0  0  0  0  0  0  0
  152.5580  143.7464  157.9957 H   0  0  0  0  0  0  0  0  0  0  0  0
  151.0784  143.2090  158.7939 H   0  0  0  0  0  0  0  0  0  0  0  0
  153.7738  143.7290  160.0078 H   0  0  0  0  0  0  0  0  0  0  0  0
  152.1819  143.9233  160.7371 H   0  0  0  0  0  0  0  0  0  0  0  0
  153.9853  141.6462  160.8989 H   0  0  0  0  0  0  0  0  0  0  0  0
  152.3923  141.7484  161.6431 H   0  0  0  0  0  0  0  0  0  0  0  0
  151.3563  140.6528  159.8484 H   0  0  0  0  0  0  0  0  0  0  0  0
  152.9720  140.0038  159.5592 H   0  0  0  0  0  0  0  0  0  0  0  0
  151.8822  138.7083  155.1354 H   0  0  0  0  0  0  0  0  0  0  0  0
  1  2  1  0  0  0  0
  1 17  1  0  0  0  0
  1 18  1  0  0  0  0
  1 19  1  0  0  0  0
  2  3  1  0  0  0  0
  2 20  1  0  0  0  0
  3  4  2  0  0  0  0
  3  5  1  0  0  0  0
  5  6  1  0  0  0  0
  5 21  1  0  0  0  0
  6 16  1  0  0  0  0
  6  7  2  0  0  0  0
  7  8  1  0  0  0  0
  7 22  1  0  0  0  0
  8  9  2  0  0  0  0
  8 23  1  0  0  0  0
  9 10  1  0  0  0  0
  9 15  1  0  0  0  0
 10 14  1  0  0  0  0
 10 11  1  0  0  0  0
 11 12  1  0  0  0  0
 11 24  1  0  0  0  0
 11 25  1  0  0  0  0
 12 13  1  0  0  0  0
 12 26  1  0  0  0  0
 12 27  1  0  0  0  0
 13 14  1  0  0  0  0
 13 28  1  0  0  0  0
 13 29  1  0  0  0  0
 14 30  1  0  0  0  0
 14 31  1  0  0  0  0
 15 16  2  0  0  0  0
 16 32  1  0  0  0  0
M  END
> <s_m_source_file>
AV-unprocessed.smi

> <i_m_source_file_index>
2561

> <i_lp_mmshare_version>
43012

> <i_f3d_flags>
0

> <s_epik_input>
W0NIM11bTkhdQyg9TylbTkhdYzFbY0hdW2NIXWMobltjSF0xKU4yW0NIMl1bQ0gyXVtDSDJdW0NIMl0y

> <s_epik_cmdline>
J2VwaWtfcHl0aG9uJywgJy1waCcsICc3LjAnLCAnLXRuJywgJzgnLCAnLW1hJywgJzIwMCcsICctbWV0YWxfYmluZGluZycsICctaW1hZScsICc8aW5maWxlLm1hZT4nLCAnLW9tYWUnLCAnPG91dGZpbGUubWFlPic=

> <r_lp_tautomer_probability>
1

> <r_epik_Ionization_Penalty>
0.281536

> <r_epik_Ionization_Penalty_Charging>
0

> <r_epik_Ionization_Penalty_Neutral>
0.281536

> <r_epik_State_Penalty>
0.27354

> <r_epik_Charging_Adjusted_Penalty>
0.27354

> <i_epik_Tot_Q>
0

> <i_epik_Tot_abs_Q>
0

> <r_epik_Metal_State_Penalty>
0.184484

> <b_epik_Metal_Only>
0

> <s_lp_Force_Field>
OPLS_2005

> <r_lp_Energy>
32.7589

> <b_lp_Chiralities_Consistent>
1

> <s_lp_Variant>
AV-unprocessed.smi:2561-1

> <Gold.Version>
5.8.1

> <Gold.Id.Protein>
6NUR|6NUR_protein|mol2

> <Gold.PLP.Fitness>
37.0826

> <Gold.PLP.PLP>
-33.0267

> <Gold.PLP.part.hbond>
-3.3096

> <Gold.PLP.part.metal>
0.0000

> <Gold.PLP.part.buried>
2.1243

> <Gold.PLP.part.nonpolar>
-30.0681

> <Gold.PLP.part.repulsive>
0.3334

> <Gold.PLP.ligand.clash>
0.0206

> <Gold.PLP.ligand.torsion>
0.5309

> <Gold.PLP.Chemscore.Hbond>
1.7078

> <Gold.PLP.Chemscore.CHOScore>
0.0000

> <Gold.PLP.Chemscore.Metal>
0.0000

> <Gold.Chemscore.Hbonds>
donor molecule, donor type, donor heavy atom, donor atom, acceptor molecule, acceptor atom, score
      L1  H     2    20       P1  7948  0.90
      P1  H  7997  8008       L1    15  0.68

> <Gold.PLP.Chemscore.Internal.Correction>
0.0152

> <Gold.Rescore>
     Score         DG    S(hbond)    S(metal)    S(lipo)     H(rot)  DE(clash)    DE(int)     intcor
     14.91     -17.51       1.59        0.00      79.39       1.00       1.26       1.33       ----

> <Gold.Chemscore.Fitness>
14.9129

> <Gold.Chemscore.DG>
-17.5094

> <Gold.Chemscore.ZeroCoef>
-5.4800

> <Gold.Chemscore.Hbond>
1.5872

> <Gold.Chemscore.Metal>
0.0000

> <Gold.Chemscore.Lipo>
79.3856

> <Gold.Chemscore.Internal_Hbond>
0.0000

> <Gold.Chemscore.DEClash>
1.2618

> <Gold.Chemscore.DEInternal>
1.3347

> <Gold.Chemscore.Rot>
1.0000

> <Gold.Chemscore.Internal.Correction>
   9.000000E+99

> <Gold.Chemscore.Hbonds>
donor molecule, donor type, donor heavy atom, donor atom, acceptor molecule, acceptor atom, score
      L1  H     2    20       P1  7948  0.81
      P1  H  7997  8008       L1    15  0.54

> <Gold.Chemscore.Hbond.Weighted>
-5.3013

> <Gold.Chemscore.Metal.Weighted>
-0.0000

> <Gold.Chemscore.Lipo.Weighted>
-9.2881

> <Gold.Chemscore.Internal_Hbond.Weighted>
0.0000

> <Gold.Chemscore.DEClash.Weighted>
1.2618

> <Gold.Chemscore.DEInternal.Weighted>
1.3347

> <Gold.Chemscore.Rot.Weighted>
2.5600

> <Gold.Chemscore.Internal.Correction.Weighted>
   9.000000E+99

> <Gold.Protein.RotatedTorsions>
[ 6907 6896 6895 6894 ] final  160.41 input  -60.11 | X-H torsion
[ 7974 7965 7964 7962 ] final  -25.91 input  175.53 | X-H torsion
[ 8008 7997 7996 7995 ] final  -48.66 input   59.86 | X-H torsion
[ 10167 10162 10161 10158 ] final  104.51 input  -65.29 | X-H torsion
[ 10718 10713 10712 10709 ] final   32.77 input   66.30 | X-H torsion
[ 10763 10752 10751 10750 ] final  176.81 input  -60.55 | X-H torsion
[ 11005 11000 10999 10996 ] final   91.13 input  -57.11 | X-H torsion

> <Gold.Protein.ActiveResidues>
 VAL166  LYS551  ARG553  GLY616  TRP617  ASP618  TYR619  PRO620  LYS621  CYS622 
 ASP623  PHE694  ASN695  SER759  ASP760  ASP761  ALA762  ILE779  LEU786  VAL792 
 PHE793  MET794  SER795  GLU796  ALA797  LYS798  CYS799  TRP800  GLU811  SER814 

> <Gold.Protein.RotatedAtoms>
  151.9710  133.3726  159.4070 H   0  0  0  0  0  0  0  0  0  0  0  0  # atno 6907 bound_to 6896
  150.6949  134.4140  159.5184 H   0  0  0  0  0  0  0  0  0  0  0  0  # atno 6908 bound_to 6896
  152.1844  134.8726  160.0574 H   0  0  0  0  0  0  0  0  0  0  0  0  # atno 6909 bound_to 6896
  146.1460  140.4949  142.8631 H   0  0  0  0  0  0  0  0  0  0  0  0  # atno 7974 bound_to 7965
  154.4032  140.1316  156.4375 H   0  0  0  0  0  0  0  0  0  0  0  0  # atno 8008 bound_to 7997
  155.7491  140.3488  155.5121 H   0  0  0  0  0  0  0  0  0  0  0  0  # atno 8009 bound_to 7997
  155.8967  140.1012  157.1370 H   0  0  0  0  0  0  0  0  0  0  0  0  # atno 8010 bound_to 7997
  139.7171  144.7066  151.0932 H   0  0  0  0  0  0  0  0  0  0  0  0  # atno 10167 bound_to 10162
  157.2894  130.7295  149.6602 H   0  0  0  0  0  0  0  0  0  0  0  0  # atno 10718 bound_to 10713
  154.4860  135.2777  155.1533 H   0  0  0  0  0  0  0  0  0  0  0  0  # atno 10763 bound_to 10752
  154.3224  135.6207  153.5517 H   0  0  0  0  0  0  0  0  0  0  0  0  # atno 10764 bound_to 10752
  152.9881  135.5746  154.5272 H   0  0  0  0  0  0  0  0  0  0  0  0  # atno 10765 bound_to 10752
  139.8844  134.8655  156.3384 H   0  0  0  0  0  0  0  0  0  0  0  0  # atno 11005 bound_to 11000
  144.7847  140.5912  143.6582 LP  0  0  0  0  0  0  0  0  0  0  0  0  # atno 17320 bound_to 7965
  145.4936  139.1487  143.3696 LP  0  0  0  0  0  0  0  0  0  0  0  0  # atno 17321 bound_to 7965
  140.7746  143.5215  150.9531 LP  0  0  0  0  0  0  0  0  0  0  0  0  # atno 17342 bound_to 10162
  139.8901  143.6963  152.3146 LP  0  0  0  0  0  0  0  0  0  0  0  0  # atno 17343 bound_to 10162
  155.9666  130.4313  150.4916 LP  0  0  0  0  0  0  0  0  0  0  0  0  # atno 17370 bound_to 10713
  157.2875  131.0619  151.2156 LP  0  0  0  0  0  0  0  0  0  0  0  0  # atno 17371 bound_to 10713
  140.9675  133.7348  156.0488 LP  0  0  0  0  0  0  0  0  0  0  0  0  # atno 17394 bound_to 11000
  140.7912  134.3615  157.5464 LP  0  0  0  0  0  0  0  0  0  0  0  0  # atno 17395 bound_to 11000

$$$$
