AV-unprocessed.smi:164|AV-procd|sdf|1384|dock6
  -GOLD-   2262019113D 1   1.00000     0.00000
 Structure written by MMmdl.
 53 55  0  0  0  0  0  0  0  0  1 V2000
  152.0910  144.2488  158.7722 C   0  0  0  0  0  0  0  0  0  0  0  0
  152.2188  142.8139  159.2542 C   0  0  0  0  0  0  0  0  0  0  0  0
  153.0512  142.5366  160.3577 C   0  0  0  0  0  0  0  0  0  0  0  0
  153.1968  141.2194  160.8266 C   0  0  0  0  0  0  0  0  0  0  0  0
  152.5019  140.1654  160.2027 C   0  0  0  0  0  0  0  0  0  0  0  0
  152.6749  138.7470  160.7132 C   0  0  0  0  0  0  0  0  0  0  0  0
  151.6500  140.4355  159.1071 C   0  0  0  0  0  0  0  0  0  0  0  0
  150.9674  139.4024  158.5183 O   0  0  0  0  0  0  0  0  0  0  0  0
  149.6074  139.3196  158.9217 C   0  0  0  0  0  0  0  0  0  0  0  0
  149.2866  137.8698  159.3120 C   0  0  2  0  0  0  0  0  0  0  0  0
  150.1539  137.0370  158.5695 O   0  0  0  0  0  0  0  0  0  0  0  0
  147.8238  137.4949  158.9847 C   0  0  0  0  0  0  0  0  0  0  0  0
  147.2932  136.4429  159.8360 N   0  0  0  0  0  0  0  0  0  0  0  0
  147.3322  135.1124  159.3536 C   0  0  0  0  0  0  0  0  0  0  0  0
  147.7713  134.8291  158.2377 O   0  0  0  0  0  0  0  0  0  0  0  0
  146.8289  134.1166  160.2920 C   0  0  0  0  0  0  0  0  0  0  0  0
  146.8498  132.8160  159.9546 F   0  0  0  0  0  0  0  0  0  0  0  0
  146.3568  134.4752  161.5054 C   0  0  0  0  0  0  0  0  0  0  0  0
  146.2970  135.7913  161.9413 N   0  0  0  0  0  0  0  0  0  0  0  0
  145.8441  136.1731  163.3429 C   0  0  1  0  0  0  0  0  0  0  0  0
  144.6881  137.1813  163.3818 C   0  0  0  0  0  0  0  0  0  0  0  0
  143.4551  136.2960  163.5430 C   0  0  0  0  0  0  0  0  0  0  0  0
  144.0057  134.8677  163.6169 C   0  0  0  0  0  0  0  0  0  0  0  0
  145.3698  135.0303  163.9800 O   0  0  0  0  0  0  0  0  0  0  0  0
  146.8178  136.8137  161.1164 C   0  0  0  0  0  0  0  0  0  0  0  0
  146.8584  137.9834  161.5062 O   0  0  0  0  0  0  0  0  0  0  0  0
  151.5212  141.7587  158.6146 C   0  0  0  0  0  0  0  0  0  0  0  0
  150.6388  142.0445  157.4067 C   0  0  0  0  0  0  0  0  0  0  0  0
  152.5594  144.9448  159.4689 H   0  0  0  0  0  0  0  0  0  0  0  0
  151.0426  144.5323  158.6753 H   0  0  0  0  0  0  0  0  0  0  0  0
  152.5748  144.3678  157.8026 H   0  0  0  0  0  0  0  0  0  0  0  0
  153.5883  143.3349  160.8484 H   0  0  0  0  0  0  0  0  0  0  0  0
  153.8445  141.0228  161.6684 H   0  0  0  0  0  0  0  0  0  0  0  0
  152.8957  138.0689  159.8887 H   0  0  0  0  0  0  0  0  0  0  0  0
  151.7646  138.4058  161.2059 H   0  0  0  0  0  0  0  0  0  0  0  0
  153.4941  138.6804  161.4295 H   0  0  0  0  0  0  0  0  0  0  0  0
  149.4057  139.9915  159.7577 H   0  0  0  0  0  0  0  0  0  0  0  0
  148.9690  139.6347  158.0948 H   0  0  0  0  0  0  0  0  0  0  0  0
  149.5001  137.7347  160.3730 H   0  0  0  0  0  0  0  0  0  0  0  0
  150.1542  136.1773  158.9617 H   0  0  0  0  0  0  0  0  0  0  0  0
  147.1576  138.3488  159.1172 H   0  0  0  0  0  0  0  0  0  0  0  0
  147.6887  137.2144  157.9390 H   0  0  0  0  0  0  0  0  0  0  0  0
  146.0292  133.6779  162.1531 H   0  0  0  0  0  0  0  0  0  0  0  0
  146.7331  136.5693  163.8364 H   0  0  0  0  0  0  0  0  0  0  0  0
  144.8098  137.8022  164.2701 H   0  0  0  0  0  0  0  0  0  0  0  0
  144.6753  137.8442  162.5168 H   0  0  0  0  0  0  0  0  0  0  0  0
  142.9287  136.5527  164.4631 H   0  0  0  0  0  0  0  0  0  0  0  0
  142.7532  136.4089  162.7164 H   0  0  0  0  0  0  0  0  0  0  0  0
  143.4738  134.2522  164.3422 H   0  0  0  0  0  0  0  0  0  0  0  0
  143.9399  134.3737  162.6467 H   0  0  0  0  0  0  0  0  0  0  0  0
  150.3901  141.1385  156.8547 H   0  0  0  0  0  0  0  0  0  0  0  0
  151.1397  142.7139  156.7074 H   0  0  0  0  0  0  0  0  0  0  0  0
  149.7078  142.5137  157.7251 H   0  0  0  0  0  0  0  0  0  0  0  0
  1  2  1  0  0  0  0
  1 29  1  0  0  0  0
  1 30  1  0  0  0  0
  1 31  1  0  0  0  0
  2 27  1  0  0  0  0
  2  3  2  0  0  0  0
  3  4  1  0  0  0  0
  3 32  1  0  0  0  0
  4  5  2  0  0  0  0
  4 33  1  0  0  0  0
  5  6  1  0  0  0  0
  5  7  1  0  0  0  0
  6 34  1  0  0  0  0
  6 35  1  0  0  0  0
  6 36  1  0  0  0  0
  7  8  1  0  0  0  0
  7 27  2  0  0  0  0
  8  9  1  0  0  0  0
  9 10  1  0  0  0  0
  9 37  1  0  0  0  0
  9 38  1  0  0  0  0
 10 11  1  0  0  0  0
 10 12  1  0  0  0  0
 10 39  1  0  0  0  0
 11 40  1  0  0  0  0
 12 13  1  0  0  0  0
 12 41  1  0  0  0  0
 12 42  1  0  0  0  0
 13 25  1  0  0  0  0
 13 14  1  0  0  0  0
 14 15  2  0  0  0  0
 14 16  1  0  0  0  0
 16 17  1  0  0  0  0
 16 18  2  0  0  0  0
 18 19  1  0  0  0  0
 18 43  1  0  0  0  0
 19 20  1  0  0  0  0
 19 25  1  0  0  0  0
 20 24  1  0  0  0  0
 20 21  1  0  0  0  0
 20 44  1  0  0  0  0
 21 22  1  0  0  0  0
 21 45  1  0  0  0  0
 21 46  1  0  0  0  0
 22 23  1  0  0  0  0
 22 47  1  0  0  0  0
 22 48  1  0  0  0  0
 23 24  1  0  0  0  0
 23 49  1  0  0  0  0
 23 50  1  0  0  0  0
 25 26  2  0  0  0  0
 27 28  1  0  0  0  0
 28 51  1  0  0  0  0
 28 52  1  0  0  0  0
 28 53  1  0  0  0  0
M  END
> <s_m_source_file>
AV-unprocessed.smi

> <i_m_source_file_index>
164

> <i_lp_mmshare_version>
43012

> <i_f3d_flags>
0

> <s_epik_input>
W0NIM11jMVtjSF1bY0hdYyhbQ0gzXSljKGMxW0NIM10pT1tDSDJdW0NASF0oW09IXSlbQ0gyXW4yYyg9TyljKEYpW2NIXW4oYzI9TylbQ0BASF0zW0NIMl1bQ0gyXVtDSDJdTzM=

> <s_epik_cmdline>
J2VwaWtfcHl0aG9uJywgJy1waCcsICc3LjAnLCAnLXRuJywgJzgnLCAnLW1hJywgJzIwMCcsICctbWV0YWxfYmluZGluZycsICctaW1hZScsICc8aW5maWxlLm1hZT4nLCAnLW9tYWUnLCAnPG91dGZpbGUubWFlPic=

> <r_lp_tautomer_probability>
1

> <r_epik_Ionization_Penalty>
1.45842e-07

> <r_epik_Ionization_Penalty_Charging>
2.86622e-08

> <r_epik_Ionization_Penalty_Neutral>
1.1718e-07

> <r_epik_State_Penalty>
-0

> <r_epik_Charging_Adjusted_Penalty>
2.86622e-08

> <i_epik_Tot_Q>
0

> <i_epik_Tot_abs_Q>
0

> <r_epik_Metal_State_Penalty>
-0

> <b_epik_Metal_Only>
0

> <s_epik_Chemistry_Notes>
This compound contains an acetal/aminal-like group ( X-CH(R)-Y where X, Y are N, S, or O) that may be acid/base labile, releasing an aldehyde.

> <s_lp_Force_Field>
OPLS_2005

> <r_lp_Energy>
42.2677

> <b_lp_Chiralities_Consistent>
1

> <s_lp_Variant>
AV-unprocessed.smi:164-3

> <Gold.Version>
5.8.1

> <Gold.Id.Protein>
6NUR|6NUR_protein|mol2

> <Gold.PLP.Fitness>
55.1306

> <Gold.PLP.PLP>
-53.2049

> <Gold.PLP.part.hbond>
-2.8140

> <Gold.PLP.part.metal>
0.0000

> <Gold.PLP.part.buried>
-7.1442

> <Gold.PLP.part.nonpolar>
-43.4873

> <Gold.PLP.part.repulsive>
0.0102

> <Gold.PLP.ligand.clash>
0.0000

> <Gold.PLP.ligand.torsion>
1.7266

> <Gold.PLP.Chemscore.Hbond>
1.7120

> <Gold.PLP.Chemscore.CHOScore>
0.0000

> <Gold.PLP.Chemscore.Metal>
0.0000

> <Gold.Chemscore.Hbonds>
donor molecule, donor type, donor heavy atom, donor atom, acceptor molecule, acceptor atom, score
      P1  H  6931  6943       L1    26  0.23
      P1  H  6934  6947       L1    26  0.21

> <Gold.PLP.Chemscore.Internal.Correction>
0.2429

> <Gold.Rescore>
     Score         DG    S(hbond)    S(metal)    S(lipo)     H(rot)  DE(clash)    DE(int)     intcor
     14.52     -17.39       1.35        0.00     122.92       2.73       0.00       2.87       ----

> <Gold.Chemscore.Fitness>
14.5190

> <Gold.Chemscore.DG>
-17.3944

> <Gold.Chemscore.ZeroCoef>
-5.4800

> <Gold.Chemscore.Hbond>
1.3549

> <Gold.Chemscore.Metal>
0.0000

> <Gold.Chemscore.Lipo>
122.9183

> <Gold.Chemscore.Internal_Hbond>
0.0000

> <Gold.Chemscore.DEClash>
0.0029

> <Gold.Chemscore.DEInternal>
2.8725

> <Gold.Chemscore.Rot>
2.7315

> <Gold.Chemscore.Internal.Correction>
   9.000000E+99

> <Gold.Chemscore.Hbonds>
donor molecule, donor type, donor heavy atom, donor atom, acceptor molecule, acceptor atom, score
      P1  H  6931  6943       L1    26  0.09
      P1  H  6934  6947       L1    26  0.21

> <Gold.Chemscore.Hbond.Weighted>
-4.5255

> <Gold.Chemscore.Metal.Weighted>
-0.0000

> <Gold.Chemscore.Lipo.Weighted>
-14.3814

> <Gold.Chemscore.Internal_Hbond.Weighted>
0.0000

> <Gold.Chemscore.DEClash.Weighted>
0.0029

> <Gold.Chemscore.DEInternal.Weighted>
2.8725

> <Gold.Chemscore.Rot.Weighted>
6.9925

> <Gold.Chemscore.Internal.Correction.Weighted>
   9.000000E+99

> <Gold.Protein.RotatedTorsions>
[ 6907 6896 6895 6894 ] final  163.74 input  -60.11 | X-H torsion
[ 7974 7965 7964 7962 ] final   68.88 input  175.53 | X-H torsion
[ 8008 7997 7996 7995 ] final  -61.97 input   59.86 | X-H torsion
[ 10167 10162 10161 10158 ] final -130.96 input  -65.29 | X-H torsion
[ 10718 10713 10712 10709 ] final   -3.81 input   66.30 | X-H torsion
[ 10763 10752 10751 10750 ] final -174.87 input  -60.55 | X-H torsion
[ 11005 11000 10999 10996 ] final   -8.75 input  -57.11 | X-H torsion

> <Gold.Protein.ActiveResidues>
 VAL166  LYS551  ARG553  GLY616  TRP617  ASP618  TYR619  PRO620  LYS621  CYS622 
 ASP623  PHE694  ASN695  SER759  ASP760  ASP761  ALA762  ILE779  LEU786  VAL792 
 PHE793  MET794  SER795  GLU796  ALA797  LYS798  CYS799  TRP800  GLU811  SER814 

> <Gold.Protein.RotatedAtoms>
  151.9206  133.3584  159.3895 H   0  0  0  0  0  0  0  0  0  0  0  0  # atno 6907 bound_to 6896
  150.7038  134.4639  159.5403 H   0  0  0  0  0  0  0  0  0  0  0  0  # atno 6908 bound_to 6896
  152.2261  134.8366  160.0530 H   0  0  0  0  0  0  0  0  0  0  0  0  # atno 6909 bound_to 6896
  145.7972  139.2963  143.1176 H   0  0  0  0  0  0  0  0  0  0  0  0  # atno 7974 bound_to 7965
  154.4475  140.1006  156.6514 H   0  0  0  0  0  0  0  0  0  0  0  0  # atno 8008 bound_to 7997
  155.5394  140.3483  155.4425 H   0  0  0  0  0  0  0  0  0  0  0  0  # atno 8009 bound_to 7997
  156.0608  140.1326  156.9932 H   0  0  0  0  0  0  0  0  0  0  0  0  # atno 8010 bound_to 7997
  139.9238  143.6351  152.2547 H   0  0  0  0  0  0  0  0  0  0  0  0  # atno 10167 bound_to 10162
  156.7706  130.5299  149.5768 H   0  0  0  0  0  0  0  0  0  0  0  0  # atno 10718 bound_to 10713
  154.5912  135.2845  155.0634 H   0  0  0  0  0  0  0  0  0  0  0  0  # atno 10763 bound_to 10752
  154.1934  135.6437  153.5070 H   0  0  0  0  0  0  0  0  0  0  0  0  # atno 10764 bound_to 10752
  153.0122  135.5451  154.6598 H   0  0  0  0  0  0  0  0  0  0  0  0  # atno 10765 bound_to 10752
  140.7268  133.8782  155.8862 H   0  0  0  0  0  0  0  0  0  0  0  0  # atno 11005 bound_to 11000
  145.9916  140.8598  143.0064 LP  0  0  0  0  0  0  0  0  0  0  0  0  # atno 17320 bound_to 7965
  144.6773  140.2223  143.7365 LP  0  0  0  0  0  0  0  0  0  0  0  0  # atno 17321 bound_to 7965
  139.6839  144.7653  151.1559 LP  0  0  0  0  0  0  0  0  0  0  0  0  # atno 17342 bound_to 10162
  140.7655  143.5685  150.9021 LP  0  0  0  0  0  0  0  0  0  0  0  0  # atno 17343 bound_to 10162
  156.1280  130.6158  151.0292 LP  0  0  0  0  0  0  0  0  0  0  0  0  # atno 17370 bound_to 10713
  157.6693  131.0865  150.7652 LP  0  0  0  0  0  0  0  0  0  0  0  0  # atno 17371 bound_to 10713
  140.9956  134.1220  157.4367 LP  0  0  0  0  0  0  0  0  0  0  0  0  # atno 17394 bound_to 11000
  139.8835  135.0053  156.6306 LP  0  0  0  0  0  0  0  0  0  0  0  0  # atno 17395 bound_to 11000

$$$$
