AV-unprocessed.smi:2225|AV-procd|sdf|8999|dock4
  -GOLD-   2272012203D 1   1.00000     0.00000
 Structure written by MMmdl.
 33 34  0  0  0  0  0  0  0  0  1 V2000
  149.7910  141.3009  153.8306 O   0  0  0  0  0  0  0  0  0  0  0  0
  149.6737  140.8803  154.9809 C   0  0  0  0  0  0  0  0  0  0  0  0
  150.9368  140.4630  155.7545 C   0  0  0  0  0  0  0  0  0  0  0  0
  151.2008  141.2322  156.9850 N   0  0  0  0  0  0  0  0  0  0  0  0
  150.4914  142.4359  157.1448 C   0  0  0  0  0  0  0  0  0  0  0  0
  150.6577  143.2155  158.2216 C   0  0  0  0  0  0  0  0  0  0  0  0
  151.5971  142.7923  159.2312 C   0  0  0  0  0  0  0  0  0  0  0  0
  152.2892  141.6361  159.1090 C   0  0  0  0  0  0  0  0  0  0  0  0
  153.2915  141.1764  160.1655 C   0  0  0  0  0  0  0  0  0  0  0  0
  153.0978  139.8912  160.4641 F   0  0  0  0  0  0  0  0  0  0  0  0
  154.5411  141.3176  159.7218 F   0  0  0  0  0  0  0  0  0  0  0  0
  153.1786  141.8789  161.2937 F   0  0  0  0  0  0  0  0  0  0  0  0
  152.0913  140.7797  157.9216 C   0  0  0  0  0  0  0  0  0  0  0  0
  152.6853  139.7106  157.7733 O   0  0  0  0  0  0  0  0  0  0  0  0
  148.4834  140.7709  155.5944 N   0  0  0  0  0  0  0  0  0  0  0  0
  147.1960  141.1157  154.9999 C   0  0  2  0  0  0  0  0  0  0  0  0
  147.2777  142.3781  154.1417 C   0  0  0  0  0  0  0  0  0  0  0  0
  146.1079  143.2253  154.6296 C   0  0  0  0  0  0  0  0  0  0  0  0
  146.0146  142.8819  156.0007 O   0  0  0  0  0  0  0  0  0  0  0  0
  146.1733  141.4736  156.0879 C   0  0  0  0  0  0  0  0  0  0  0  0
  150.8660  139.3976  155.9816 H   0  0  0  0  0  0  0  0  0  0  0  0
  151.7861  140.5446  155.0747 H   0  0  0  0  0  0  0  0  0  0  0  0
  149.8053  142.6774  156.3457 H   0  0  0  0  0  0  0  0  0  0  0  0
  150.1025  144.1355  158.3312 H   0  0  0  0  0  0  0  0  0  0  0  0
  151.7396  143.4240  160.0953 H   0  0  0  0  0  0  0  0  0  0  0  0
  148.4672  140.4211  156.5415 H   0  0  0  0  0  0  0  0  0  0  0  0
  146.8206  140.2722  154.4175 H   0  0  0  0  0  0  0  0  0  0  0  0
  148.2105  142.9143  154.3239 H   0  0  0  0  0  0  0  0  0  0  0  0
  147.2206  142.1662  153.0735 H   0  0  0  0  0  0  0  0  0  0  0  0
  146.2732  144.2937  154.4898 H   0  0  0  0  0  0  0  0  0  0  0  0
  145.1847  142.9478  154.1184 H   0  0  0  0  0  0  0  0  0  0  0  0
  145.2144  140.9982  155.8764 H   0  0  0  0  0  0  0  0  0  0  0  0
  146.4785  141.1729  157.0910 H   0  0  0  0  0  0  0  0  0  0  0  0
  1  2  2  0  0  0  0
  2  3  1  0  0  0  0
  2 15  1  0  0  0  0
  3  4  1  0  0  0  0
  3 21  1  0  0  0  0
  3 22  1  0  0  0  0
  4 13  1  0  0  0  0
  4  5  1  0  0  0  0
  5  6  2  0  0  0  0
  5 23  1  0  0  0  0
  6  7  1  0  0  0  0
  6 24  1  0  0  0  0
  7  8  2  0  0  0  0
  7 25  1  0  0  0  0
  8  9  1  0  0  0  0
  8 13  1  0  0  0  0
  9 10  1  0  0  0  0
  9 11  1  0  0  0  0
  9 12  1  0  0  0  0
 13 14  2  0  0  0  0
 15 16  1  0  0  0  0
 15 26  1  0  0  0  0
 16 20  1  0  0  0  0
 16 17  1  0  0  0  0
 16 27  1  0  0  0  0
 17 18  1  0  0  0  0
 17 28  1  0  0  0  0
 17 29  1  0  0  0  0
 18 19  1  0  0  0  0
 18 30  1  0  0  0  0
 18 31  1  0  0  0  0
 19 20  1  0  0  0  0
 20 32  1  0  0  0  0
 20 33  1  0  0  0  0
M  END
> <s_m_source_file>
AV-unprocessed.smi

> <i_m_source_file_index>
2225

> <i_lp_mmshare_version>
43012

> <i_f3d_flags>
0

> <s_epik_input>
W0NIMl0xT1tDSDJdW0NIMl1bQ0BIXTFbTkhdQyg9TylbQ0gyXW4yW2NIXVtjSF1bY0hdYyhDKEYpKEYpRiljMj1P

> <s_epik_cmdline>
J2VwaWtfcHl0aG9uJywgJy1waCcsICc3LjAnLCAnLXRuJywgJzgnLCAnLW1hJywgJzIwMCcsICctbWV0YWxfYmluZGluZycsICctaW1hZScsICc8aW5maWxlLm1hZT4nLCAnLW9tYWUnLCAnPG91dGZpbGUubWFlPic=

> <r_lp_tautomer_probability>
1

> <r_epik_Ionization_Penalty>
3.32109e-08

> <r_epik_Ionization_Penalty_Charging>
1.91399e-09

> <r_epik_Ionization_Penalty_Neutral>
3.1297e-08

> <r_epik_State_Penalty>
-0

> <r_epik_Charging_Adjusted_Penalty>
1.91399e-09

> <i_epik_Tot_Q>
0

> <i_epik_Tot_abs_Q>
0

> <r_epik_Metal_State_Penalty>
-0

> <b_epik_Metal_Only>
0

> <s_lp_Force_Field>
OPLS_2005

> <r_lp_Energy>
26.4099

> <b_lp_Chiralities_Consistent>
1

> <s_lp_Variant>
AV-unprocessed.smi:2225-1

> <Gold.Version>
5.8.1

> <Gold.Id.Protein>
6NUR|6NUR_protein|mol2

> <Gold.PLP.Fitness>
44.6203

> <Gold.PLP.PLP>
-36.7115

> <Gold.PLP.part.hbond>
-2.8391

> <Gold.PLP.part.metal>
0.0000

> <Gold.PLP.part.buried>
-3.2944

> <Gold.PLP.part.nonpolar>
-32.5205

> <Gold.PLP.part.repulsive>
1.6485

> <Gold.PLP.ligand.clash>
0.0000

> <Gold.PLP.ligand.torsion>
0.9553

> <Gold.PLP.Chemscore.Hbond>
2.2160

> <Gold.PLP.Chemscore.CHOScore>
0.9464

> <Gold.PLP.Chemscore.Metal>
0.0000

> <Gold.Chemscore.Hbonds>
donor molecule, donor type, donor heavy atom, donor atom, acceptor molecule, acceptor atom, score
      P1  H  7989  7998       L1     1  0.26
      P1  H  7997  8009       L1    14  0.99
      P1  H  8011  8017       L1     1  0.78
      L1  C     5    23       P1  8028  1.00

> <Gold.PLP.Chemscore.Internal.Correction>
0.3324

> <Gold.Rescore>
     Score         DG    S(hbond)    S(metal)    S(lipo)     H(rot)  DE(clash)    DE(int)     intcor
      9.29     -14.17       1.70        0.00      61.76       1.64       0.03       4.85       ----

> <Gold.Chemscore.Fitness>
9.2904

> <Gold.Chemscore.DG>
-14.1723

> <Gold.Chemscore.ZeroCoef>
-5.4800

> <Gold.Chemscore.Hbond>
1.6953

> <Gold.Chemscore.Metal>
0.0000

> <Gold.Chemscore.Lipo>
61.7569

> <Gold.Chemscore.Internal_Hbond>
0.0000

> <Gold.Chemscore.DEClash>
0.0329

> <Gold.Chemscore.DEInternal>
4.8490

> <Gold.Chemscore.Rot>
1.6389

> <Gold.Chemscore.Internal.Correction>
   9.000000E+99

> <Gold.Chemscore.Hbonds>
donor molecule, donor type, donor heavy atom, donor atom, acceptor molecule, acceptor atom, score
      P1  H  7989  7998       L1     1  0.08
      P1  H  7997  8009       L1    14  0.65
      P1  H  8011  8017       L1     1  0.78

> <Gold.Chemscore.Hbond.Weighted>
-5.6623

> <Gold.Chemscore.Metal.Weighted>
-0.0000

> <Gold.Chemscore.Lipo.Weighted>
-7.2256

> <Gold.Chemscore.Internal_Hbond.Weighted>
0.0000

> <Gold.Chemscore.DEClash.Weighted>
0.0329

> <Gold.Chemscore.DEInternal.Weighted>
4.8490

> <Gold.Chemscore.Rot.Weighted>
4.1956

> <Gold.Chemscore.Internal.Correction.Weighted>
   9.000000E+99

> <Gold.Protein.RotatedTorsions>
[ 6907 6896 6895 6894 ] final -102.76 input  -60.11 | X-H torsion
[ 7974 7965 7964 7962 ] final -123.52 input  175.53 | X-H torsion
[ 8008 7997 7996 7995 ] final  170.62 input   59.86 | X-H torsion
[ 10167 10162 10161 10158 ] final  172.02 input  -65.29 | X-H torsion
[ 10718 10713 10712 10709 ] final  137.50 input   66.30 | X-H torsion
[ 10763 10752 10751 10750 ] final    8.48 input  -60.55 | X-H torsion
[ 11005 11000 10999 10996 ] final   57.51 input  -57.11 | X-H torsion

> <Gold.Protein.ActiveResidues>
 VAL166  LYS551  ARG553  GLY616  TRP617  ASP618  TYR619  PRO620  LYS621  CYS622 
 ASP623  PHE694  ASN695  SER759  ASP760  ASP761  ALA762  ILE779  LEU786  VAL792 
 PHE793  MET794  SER795  GLU796  ALA797  LYS798  CYS799  TRP800  GLU811  SER814 

> <Gold.Protein.RotatedAtoms>
  150.7210  134.0532  159.3805 H   0  0  0  0  0  0  0  0  0  0  0  0  # atno 6907 bound_to 6896
  151.8509  135.0556  160.0468 H   0  0  0  0  0  0  0  0  0  0  0  0  # atno 6908 bound_to 6896
  152.2791  133.5417  159.5523 H   0  0  0  0  0  0  0  0  0  0  0  0  # atno 6909 bound_to 6896
  145.0178  140.7962  143.4399 H   0  0  0  0  0  0  0  0  0  0  0  0  # atno 7974 bound_to 7965
  156.1348  140.1533  156.9011 H   0  0  0  0  0  0  0  0  0  0  0  0  # atno 8008 bound_to 7997
  154.4938  140.0844  156.7692 H   0  0  0  0  0  0  0  0  0  0  0  0  # atno 8009 bound_to 7997
  155.4189  140.3422  155.4272 H   0  0  0  0  0  0  0  0  0  0  0  0  # atno 8010 bound_to 7997
  139.5064  144.3421  152.0007 H   0  0  0  0  0  0  0  0  0  0  0  0  # atno 10167 bound_to 10162
  157.4354  131.1052  151.0203 H   0  0  0  0  0  0  0  0  0  0  0  0  # atno 10718 bound_to 10713
  153.2246  135.6885  153.7960 H   0  0  0  0  0  0  0  0  0  0  0  0  # atno 10763 bound_to 10752
  153.7146  135.3277  155.3254 H   0  0  0  0  0  0  0  0  0  0  0  0  # atno 10764 bound_to 10752
  154.8286  135.4599  154.1107 H   0  0  0  0  0  0  0  0  0  0  0  0  # atno 10765 bound_to 10752
  140.0447  134.5823  155.9337 H   0  0  0  0  0  0  0  0  0  0  0  0  # atno 11005 bound_to 11000
  145.1937  139.2288  143.5229 LP  0  0  0  0  0  0  0  0  0  0  0  0  # atno 17320 bound_to 7965
  146.3480  140.1738  142.8589 LP  0  0  0  0  0  0  0  0  0  0  0  0  # atno 17321 bound_to 7965
  140.2859  144.3808  150.6104 LP  0  0  0  0  0  0  0  0  0  0  0  0  # atno 17342 bound_to 10162
  140.5983  143.2167  151.7121 LP  0  0  0  0  0  0  0  0  0  0  0  0  # atno 17343 bound_to 10162
  157.1085  130.6011  149.5476 LP  0  0  0  0  0  0  0  0  0  0  0  0  # atno 17370 bound_to 10713
  155.9928  130.4988  150.7357 LP  0  0  0  0  0  0  0  0  0  0  0  0  # atno 17371 bound_to 10713
  141.1901  133.6567  156.5396 LP  0  0  0  0  0  0  0  0  0  0  0  0  # atno 17394 bound_to 11000
  140.4012  134.7354  157.4781 LP  0  0  0  0  0  0  0  0  0  0  0  0  # atno 17395 bound_to 11000

$$$$
