AV-unprocessed.smi:2462|AV-procd|sdf|9718|dock4
  -GOLD-   2272013353D 1   1.00000     0.00000
 Structure written by MMmdl.
 40 41  0  0  0  0  0  0  0  0  1 V2000
  146.3058  135.5655  156.0715 C   0  0  0  0  0  0  0  0  0  0  0  0
  147.6696  136.1228  155.7033 C   0  0  0  0  0  0  0  0  0  0  0  0
  147.6660  137.3967  155.1294 N   0  0  0  0  0  0  0  0  0  0  0  0
  148.7830  137.9585  154.8012 C   0  0  0  0  0  0  0  0  0  0  0  0
  150.0213  137.3236  155.0072 N   0  0  0  0  0  0  0  0  0  0  0  0
  151.2271  138.0730  154.5977 C   0  0  0  0  0  0  0  0  0  0  0  0
  151.5736  139.3038  155.4891 C   0  0  1  0  0  0  0  0  0  0  0  0
  152.7692  139.8666  154.9811 O   0  0  0  0  0  0  0  0  0  0  0  0
  150.4757  140.3827  155.3226 C   0  0  0  0  0  0  0  0  0  0  0  0
  150.6947  141.6205  156.2116 C   0  0  0  0  0  0  0  0  0  0  0  0
  150.8391  141.2350  157.6938 C   0  0  2  0  0  0  0  0  0  0  0  0
  151.0471  142.4715  158.5794 C   0  0  0  0  0  0  0  0  0  0  0  0
  151.9812  140.2191  157.8655 C   0  0  0  0  0  0  0  0  0  0  0  0
  151.7701  138.9708  156.9902 C   0  0  0  0  0  0  0  0  0  0  0  0
  150.1089  136.0629  155.5230 C   0  0  0  0  0  0  0  0  0  0  0  0
  151.1909  135.4881  155.6527 O   0  0  0  0  0  0  0  0  0  0  0  0
  148.8308  135.4441  155.9103 C   0  0  0  0  0  0  0  0  0  0  0  0
  148.8954  134.0548  156.5327 C   0  0  0  0  0  0  0  0  0  0  0  0
  146.1257  134.6215  155.5564 H   0  0  0  0  0  0  0  0  0  0  0  0
  145.5067  136.2543  155.7944 H   0  0  0  0  0  0  0  0  0  0  0  0
  146.2420  135.3952  157.1465 H   0  0  0  0  0  0  0  0  0  0  0  0
  148.8323  138.9535  154.3557 H   0  0  0  0  0  0  0  0  0  0  0  0
  152.0861  137.4020  154.5330 H   0  0  0  0  0  0  0  0  0  0  0  0
  151.0972  138.4128  153.5683 H   0  0  0  0  0  0  0  0  0  0  0  0
  152.5459  140.6158  154.4501 H   0  0  0  0  0  0  0  0  0  0  0  0
  150.4040  140.6906  154.2784 H   0  0  0  0  0  0  0  0  0  0  0  0
  149.5057  139.9512  155.5743 H   0  0  0  0  0  0  0  0  0  0  0  0
  151.5823  142.1617  155.8807 H   0  0  0  0  0  0  0  0  0  0  0  0
  149.8567  142.3070  156.0868 H   0  0  0  0  0  0  0  0  0  0  0  0
  149.9112  140.7562  158.0104 H   0  0  0  0  0  0  0  0  0  0  0  0
  151.9616  143.0021  158.3124 H   0  0  0  0  0  0  0  0  0  0  0  0
  151.1186  142.1937  159.6315 H   0  0  0  0  0  0  0  0  0  0  0  0
  150.2159  143.1699  158.4796 H   0  0  0  0  0  0  0  0  0  0  0  0
  152.9343  140.6871  157.6155 H   0  0  0  0  0  0  0  0  0  0  0  0
  152.0555  139.9173  158.9108 H   0  0  0  0  0  0  0  0  0  0  0  0
  150.8931  138.4363  157.3569 H   0  0  0  0  0  0  0  0  0  0  0  0
  152.6179  138.2983  157.1263 H   0  0  0  0  0  0  0  0  0  0  0  0
  149.5235  134.0709  157.4243 H   0  0  0  0  0  0  0  0  0  0  0  0
  149.3293  133.3464  155.8260 H   0  0  0  0  0  0  0  0  0  0  0  0
  147.9207  133.6699  156.8282 H   0  0  0  0  0  0  0  0  0  0  0  0
  1  2  1  0  0  0  0
  1 19  1  0  0  0  0
  1 20  1  0  0  0  0
  1 21  1  0  0  0  0
  2 17  2  0  0  0  0
  2  3  1  0  0  0  0
  3  4  2  0  0  0  0
  4  5  1  0  0  0  0
  4 22  1  0  0  0  0
  5  6  1  0  0  0  0
  5 15  1  0  0  0  0
  6  7  1  0  0  0  0
  6 23  1  0  0  0  0
  6 24  1  0  0  0  0
  7 14  1  0  0  0  0
  7  8  1  0  0  0  0
  7  9  1  0  0  0  0
  8 25  1  0  0  0  0
  9 10  1  0  0  0  0
  9 26  1  0  0  0  0
  9 27  1  0  0  0  0
 10 11  1  0  0  0  0
 10 28  1  0  0  0  0
 10 29  1  0  0  0  0
 11 12  1  0  0  0  0
 11 13  1  0  0  0  0
 11 30  1  0  0  0  0
 12 31  1  0  0  0  0
 12 32  1  0  0  0  0
 12 33  1  0  0  0  0
 13 14  1  0  0  0  0
 13 34  1  0  0  0  0
 13 35  1  0  0  0  0
 14 36  1  0  0  0  0
 14 37  1  0  0  0  0
 15 16  2  0  0  0  0
 15 17  1  0  0  0  0
 17 18  1  0  0  0  0
 18 38  1  0  0  0  0
 18 39  1  0  0  0  0
 18 40  1  0  0  0  0
M  END
> <s_m_source_file>
AV-unprocessed.smi

> <i_m_source_file_index>
2462

> <i_lp_mmshare_version>
43012

> <i_f3d_flags>
0

> <s_epik_input>
W0NIM11jMW5bY0hdbihjKD1PKWMxW0NIM10pW0NIMl1bQ0BAXTIoW09IXSlbQ0gyXVtDSDJdW0NAQEhdKFtDSDNdKVtDSDJdW0NIMl0y

> <s_epik_cmdline>
J2VwaWtfcHl0aG9uJywgJy1waCcsICc3LjAnLCAnLXRuJywgJzgnLCAnLW1hJywgJzIwMCcsICctbWV0YWxfYmluZGluZycsICctaW1hZScsICc8aW5maWxlLm1hZT4nLCAnLW9tYWUnLCAnPG91dGZpbGUubWFlPic=

> <r_lp_tautomer_probability>
1

> <r_epik_Ionization_Penalty>
0.000179745

> <r_epik_Ionization_Penalty_Charging>
2.35483e-07

> <r_epik_Ionization_Penalty_Neutral>
0.00017951

> <r_epik_State_Penalty>
-0

> <r_epik_Charging_Adjusted_Penalty>
2.35483e-07

> <i_epik_Tot_Q>
0

> <i_epik_Tot_abs_Q>
0

> <r_epik_Metal_State_Penalty>
-0

> <b_epik_Metal_Only>
0

> <s_lp_Force_Field>
OPLS_2005

> <r_lp_Energy>
24.8563

> <b_lp_Chiralities_Consistent>
1

> <s_lp_Variant>
AV-unprocessed.smi:2462-2

> <Gold.Version>
5.8.1

> <Gold.Id.Protein>
6NUR|6NUR_protein|mol2

> <Gold.PLP.Fitness>
31.3704

> <Gold.PLP.PLP>
-25.5208

> <Gold.PLP.part.hbond>
-3.0000

> <Gold.PLP.part.metal>
0.0000

> <Gold.PLP.part.buried>
-1.9832

> <Gold.PLP.part.nonpolar>
-20.6911

> <Gold.PLP.part.repulsive>
0.1451

> <Gold.PLP.ligand.clash>
0.0000

> <Gold.PLP.ligand.torsion>
0.1069

> <Gold.PLP.Chemscore.Hbond>
2.0000

> <Gold.PLP.Chemscore.CHOScore>
0.0000

> <Gold.PLP.Chemscore.Metal>
0.0000

> <Gold.Chemscore.Hbonds>
donor molecule, donor type, donor heavy atom, donor atom, acceptor molecule, acceptor atom, score
      P1  H  7997  8009       L1     8  1.00
      P1  H 10752 10765       L1    16  1.00

> <Gold.PLP.Chemscore.Internal.Correction>
0.0636

> <Gold.Rescore>
     Score         DG    S(hbond)    S(metal)    S(lipo)     H(rot)  DE(clash)    DE(int)     intcor
     14.36     -14.85       1.91        0.00      62.22       1.68       0.26       0.24       ----

> <Gold.Chemscore.Fitness>
14.3561

> <Gold.Chemscore.DG>
-14.8533

> <Gold.Chemscore.ZeroCoef>
-5.4800

> <Gold.Chemscore.Hbond>
1.9112

> <Gold.Chemscore.Metal>
0.0000

> <Gold.Chemscore.Lipo>
62.2191

> <Gold.Chemscore.Internal_Hbond>
0.0000

> <Gold.Chemscore.DEClash>
0.2566

> <Gold.Chemscore.DEInternal>
0.2406

> <Gold.Chemscore.Rot>
1.6758

> <Gold.Chemscore.Internal.Correction>
   9.000000E+99

> <Gold.Chemscore.Hbonds>
donor molecule, donor type, donor heavy atom, donor atom, acceptor molecule, acceptor atom, score
      P1  H  7997  8009       L1     8  0.53
      P1  H 10752 10765       L1    16  0.96

> <Gold.Chemscore.Hbond.Weighted>
-6.3835

> <Gold.Chemscore.Metal.Weighted>
-0.0000

> <Gold.Chemscore.Lipo.Weighted>
-7.2796

> <Gold.Chemscore.Internal_Hbond.Weighted>
0.0000

> <Gold.Chemscore.DEClash.Weighted>
0.2566

> <Gold.Chemscore.DEInternal.Weighted>
0.2406

> <Gold.Chemscore.Rot.Weighted>
4.2899

> <Gold.Chemscore.Internal.Correction.Weighted>
   9.000000E+99

> <Gold.Protein.RotatedTorsions>
[ 6907 6896 6895 6894 ] final   85.07 input  -60.11 | X-H torsion
[ 7974 7965 7964 7962 ] final   -2.39 input  175.53 | X-H torsion
[ 8008 7997 7996 7995 ] final -120.97 input   59.86 | X-H torsion
[ 10167 10162 10161 10158 ] final   64.07 input  -65.29 | X-H torsion
[ 10718 10713 10712 10709 ] final -119.96 input   66.30 | X-H torsion
[ 10763 10752 10751 10750 ] final -160.97 input  -60.55 | X-H torsion
[ 11005 11000 10999 10996 ] final   16.84 input  -57.11 | X-H torsion

> <Gold.Protein.ActiveResidues>
 VAL166  LYS551  ARG553  GLY616  TRP617  ASP618  TYR619  PRO620  LYS621  CYS622 
 ASP623  PHE694  ASN695  SER759  ASP760  ASP761  ALA762  ILE779  LEU786  VAL792 
 PHE793  MET794  SER795  GLU796  ALA797  LYS798  CYS799  TRP800  GLU811  SER814 

> <Gold.Protein.RotatedAtoms>
  152.5367  134.2643  159.8946 H   0  0  0  0  0  0  0  0  0  0  0  0  # atno 6907 bound_to 6896
  151.2601  133.4299  159.2623 H   0  0  0  0  0  0  0  0  0  0  0  0  # atno 6908 bound_to 6896
  151.0460  134.9655  159.8243 H   0  0  0  0  0  0  0  0  0  0  0  0  # atno 6909 bound_to 6896
  146.2405  140.1564  142.8333 H   0  0  0  0  0  0  0  0  0  0  0  0  # atno 7974 bound_to 7965
  155.1404  140.0402  157.2797 H   0  0  0  0  0  0  0  0  0  0  0  0  # atno 8008 bound_to 7997
  154.6477  140.2562  155.7223 H   0  0  0  0  0  0  0  0  0  0  0  0  # atno 8009 bound_to 7997
  156.2562  140.2843  156.0897 H   0  0  0  0  0  0  0  0  0  0  0  0  # atno 8010 bound_to 7997
  140.1262  144.4685  150.6891 H   0  0  0  0  0  0  0  0  0  0  0  0  # atno 10167 bound_to 10162
  156.1221  130.6331  150.9481 H   0  0  0  0  0  0  0  0  0  0  0  0  # atno 10718 bound_to 10713
  154.7344  135.3054  154.8837 H   0  0  0  0  0  0  0  0  0  0  0  0  # atno 10763 bound_to 10752
  153.9670  135.6746  153.4750 H   0  0  0  0  0  0  0  0  0  0  0  0  # atno 10764 bound_to 10752
  153.0948  135.4941  154.8681 H   0  0  0  0  0  0  0  0  0  0  0  0  # atno 10765 bound_to 10752
  140.4426  134.1306  155.7692 H   0  0  0  0  0  0  0  0  0  0  0  0  # atno 11005 bound_to 11000
  145.0125  140.8726  143.5215 LP  0  0  0  0  0  0  0  0  0  0  0  0  # atno 17320 bound_to 7965
  145.1600  139.2464  143.5396 LP  0  0  0  0  0  0  0  0  0  0  0  0  # atno 17321 bound_to 7965
  140.6843  143.2342  151.5301 LP  0  0  0  0  0  0  0  0  0  0  0  0  # atno 17342 bound_to 10162
  139.5543  144.2316  152.1585 LP  0  0  0  0  0  0  0  0  0  0  0  0  # atno 17343 bound_to 10162
  157.6404  131.0911  150.8262 LP  0  0  0  0  0  0  0  0  0  0  0  0  # atno 17370 bound_to 10713
  156.8357  130.5031  149.5326 LP  0  0  0  0  0  0  0  0  0  0  0  0  # atno 17371 bound_to 10713
  141.1699  133.8629  157.1602 LP  0  0  0  0  0  0  0  0  0  0  0  0  # atno 17394 bound_to 11000
  140.0060  135.0008  157.0293 LP  0  0  0  0  0  0  0  0  0  0  0  0  # atno 17395 bound_to 11000

$$$$
