AV-unprocessed.smi:279|AV-procd|sdf|2096|dock6
  -GOLD-   2262021383D 1   1.00000     0.00000
 Structure written by MMmdl.
 50 54  0  0  0  0  0  0  0  0  1 V2000
  151.8219  131.8797  158.2552 O   0  0  0  0  0  0  0  0  0  0  0  0
  151.7510  130.8508  157.2068 S   0  0  0  0  0  0  0  0  0  0  0  0
  152.3815  131.0644  155.8950 O   0  0  0  0  0  0  0  0  0  0  0  0
  152.3145  129.2507  157.8842 C   0  0  0  0  0  0  0  0  0  0  0  0
  151.4275  128.2109  157.1932 C   0  0  0  0  0  0  0  0  0  0  0  0
  149.9907  128.7724  157.0896 C   0  0  2  0  0  0  0  0  0  0  0  0
  149.2072  128.2865  155.8598 C   0  0  0  0  0  0  0  0  0  0  0  0
  148.5873  129.4701  155.2806 N   0  0  0  0  0  0  0  0  0  0  0  0
  147.9863  129.3934  154.0613 C   0  0  0  0  0  0  0  0  0  0  0  0
  148.2177  128.2961  153.2908 N   0  0  0  0  0  0  0  0  0  0  0  0
  147.6485  128.1720  152.0892 C   0  0  0  0  0  0  0  0  0  0  0  0
  146.8302  129.0182  151.4640 N   0  0  0  0  0  0  0  0  0  0  0  0
  146.6037  130.1322  152.2162 C   0  0  0  0  0  0  0  0  0  0  0  0
  147.1321  130.3988  153.5137 C   0  0  0  0  0  0  0  0  0  0  0  0
  146.6668  131.6328  153.9563 N   0  0  0  0  0  0  0  0  0  0  0  0
  145.9037  132.0610  152.9890 C   0  0  0  0  0  0  0  0  0  0  0  0
  145.8300  131.2335  151.8931 N   0  0  0  0  0  0  0  0  0  0  0  0
  145.0343  131.4382  150.7183 C   0  0  0  0  0  0  0  0  0  0  0  0
  145.4305  132.4704  149.6575 C   0  0  0  0  0  0  0  0  0  0  0  0
  143.9338  132.7244  149.3650 C   0  0  0  0  0  0  0  0  0  0  0  0
  143.5205  134.1844  149.0940 C   0  0  0  0  0  0  0  0  0  0  0  0
  143.6996  134.5591  147.7427 O   0  0  0  0  0  0  0  0  0  0  0  0
  143.3650  131.8706  148.2155 C   0  0  0  0  0  0  0  0  0  0  0  0
  141.9934  132.1356  148.0017 O   0  0  0  0  0  0  0  0  0  0  0  0
  143.6905  132.1702  150.7881 C   0  0  0  0  0  0  0  0  0  0  0  0
  149.4187  130.6214  155.6033 C   0  0  0  0  0  0  0  0  0  0  0  0
  150.0097  130.3057  156.9794 C   0  0  2  0  0  0  0  0  0  0  0  0
  149.4442  128.5096  157.9966 H   0  0  0  0  0  0  0  0  0  0  0  0
  149.3987  130.7418  157.7706 H   0  0  0  0  0  0  0  0  0  0  0  0
  153.3788  129.1112  157.6953 H   0  0  0  0  0  0  0  0  0  0  0  0
  152.1418  129.2552  158.9606 H   0  0  0  0  0  0  0  0  0  0  0  0
  151.8284  128.0413  156.1931 H   0  0  0  0  0  0  0  0  0  0  0  0
  151.4499  127.2510  157.7096 H   0  0  0  0  0  0  0  0  0  0  0  0
  149.8596  127.8192  155.1208 H   0  0  0  0  0  0  0  0  0  0  0  0
  148.4561  127.5571  156.1620 H   0  0  0  0  0  0  0  0  0  0  0  0
  147.8839  127.2658  151.5508 H   0  0  0  0  0  0  0  0  0  0  0  0
  145.3751  133.0013  153.0489 H   0  0  0  0  0  0  0  0  0  0  0  0
  144.9104  130.4522  150.2676 H   0  0  0  0  0  0  0  0  0  0  0  0
  145.9490  133.3270  150.0908 H   0  0  0  0  0  0  0  0  0  0  0  0
  145.9975  132.0590  148.8218 H   0  0  0  0  0  0  0  0  0  0  0  0
  142.4722  134.3433  149.3483 H   0  0  0  0  0  0  0  0  0  0  0  0
  144.1005  134.8768  149.7047 H   0  0  0  0  0  0  0  0  0  0  0  0
  144.6226  134.5268  147.5421 H   0  0  0  0  0  0  0  0  0  0  0  0
  143.9058  132.0537  147.2864 H   0  0  0  0  0  0  0  0  0  0  0  0
  143.4697  130.8054  148.4220 H   0  0  0  0  0  0  0  0  0  0  0  0
  141.4876  131.4540  148.4174 H   0  0  0  0  0  0  0  0  0  0  0  0
  142.8268  131.5123  150.8877 H   0  0  0  0  0  0  0  0  0  0  0  0
  143.6788  132.9423  151.5592 H   0  0  0  0  0  0  0  0  0  0  0  0
  150.1914  130.7187  154.8408 H   0  0  0  0  0  0  0  0  0  0  0  0
  148.8413  131.5464  155.6258 H   0  0  0  0  0  0  0  0  0  0  0  0
  1  2  2  0  0  0  0
  2 27  1  0  0  0  0
  2  3  2  0  0  0  0
  2  4  1  0  0  0  0
  4  5  1  0  0  0  0
  4 30  1  0  0  0  0
  4 31  1  0  0  0  0
  5  6  1  0  0  0  0
  5 32  1  0  0  0  0
  5 33  1  0  0  0  0
  6 28  1  0  0  0  0
  6 27  1  0  0  0  0
  6  7  1  0  0  0  0
  7  8  1  0  0  0  0
  7 34  1  0  0  0  0
  7 35  1  0  0  0  0
  8  9  1  0  0  0  0
  8 26  1  0  0  0  0
  9 14  1  0  0  0  0
  9 10  2  0  0  0  0
 10 11  1  0  0  0  0
 11 12  2  0  0  0  0
 11 36  1  0  0  0  0
 12 13  1  0  0  0  0
 13 17  1  0  0  0  0
 13 14  2  0  0  0  0
 14 15  1  0  0  0  0
 15 16  2  0  0  0  0
 16 17  1  0  0  0  0
 16 37  1  0  0  0  0
 17 18  1  0  0  0  0
 18 25  1  0  0  0  0
 18 19  1  0  0  0  0
 18 38  1  0  0  0  0
 19 20  1  0  0  0  0
 19 39  1  0  0  0  0
 19 40  1  0  0  0  0
 20 21  1  0  0  0  0
 20 23  1  0  0  0  0
 20 25  1  0  0  0  0
 21 22  1  0  0  0  0
 21 41  1  0  0  0  0
 21 42  1  0  0  0  0
 22 43  1  0  0  0  0
 23 24  1  0  0  0  0
 23 44  1  0  0  0  0
 23 45  1  0  0  0  0
 24 46  1  0  0  0  0
 25 47  1  0  0  0  0
 25 48  1  0  0  0  0
 26 27  1  0  0  0  0
 26 49  1  0  0  0  0
 26 50  1  0  0  0  0
 27 29  1  0  0  0  0
M  END
> <s_m_source_file>
AV-unprocessed.smi

> <i_m_source_file_index>
279

> <i_lp_mmshare_version>
43012

> <i_f3d_flags>
0

> <s_epik_input>
W0NIMl0xW0NIMl1TKD1PKSg9TylbQ0BASF0oW0NAQEhdMTIpW0NIMl1OKFtDSDJdMiljKG5bY0hdbjMpYyhjMzQpbltjSF1uNFtDSF0oW0NIMl01KVtDSDJdQzUoW0NIMl1bT0hdKVtDSDJdW09IXQ==

> <s_epik_cmdline>
J2VwaWtfcHl0aG9uJywgJy1waCcsICc3LjAnLCAnLXRuJywgJzgnLCAnLW1hJywgJzIwMCcsICctbWV0YWxfYmluZGluZycsICctaW1hZScsICc8aW5maWxlLm1hZT4nLCAnLW9tYWUnLCAnPG91dGZpbGUubWFlPic=

> <r_lp_tautomer_probability>
1

> <r_epik_Ionization_Penalty>
0.000990948

> <r_epik_Ionization_Penalty_Charging>
0

> <r_epik_Ionization_Penalty_Neutral>
0.000990948

> <r_epik_State_Penalty>
0.000515994

> <r_epik_Charging_Adjusted_Penalty>
0.000515994

> <i_epik_Tot_Q>
0

> <i_epik_Tot_abs_Q>
0

> <r_epik_Metal_State_Penalty>
-0

> <b_epik_Metal_Only>
0

> <s_lp_Force_Field>
OPLS_2005

> <r_lp_Energy>
55.7342

> <b_lp_Chiralities_Consistent>
1

> <s_lp_Variant>
AV-unprocessed.smi:279-2

> <Gold.Version>
5.8.1

> <Gold.Id.Protein>
6NUR|6NUR_protein|mol2

> <Gold.PLP.Fitness>
43.1799

> <Gold.PLP.PLP>
-32.4353

> <Gold.PLP.part.hbond>
-6.8032

> <Gold.PLP.part.metal>
0.0000

> <Gold.PLP.part.buried>
2.9165

> <Gold.PLP.part.nonpolar>
-30.6412

> <Gold.PLP.part.repulsive>
1.0080

> <Gold.PLP.ligand.clash>
0.0000

> <Gold.PLP.ligand.torsion>
1.0096

> <Gold.PLP.Chemscore.Hbond>
4.0000

> <Gold.PLP.Chemscore.CHOScore>
0.0000

> <Gold.PLP.Chemscore.Metal>
0.0000

> <Gold.Chemscore.Hbonds>
donor molecule, donor type, donor heavy atom, donor atom, acceptor molecule, acceptor atom, score
      L1  H    22    43       P1  7921  0.94
      L1  H    24    46       P1 10952  1.00
      P1  H  6896  6909       L1     1  1.00
      P1  H 10192 10197       L1    22  1.00

> <Gold.PLP.Chemscore.Internal.Correction>
0.7637

> <Gold.Rescore>
     Score         DG    S(hbond)    S(metal)    S(lipo)     H(rot)  DE(clash)    DE(int)     intcor
     15.69     -19.93       3.98        0.00      82.07       3.29       3.15       1.09       ----

> <Gold.Chemscore.Fitness>
15.6896

> <Gold.Chemscore.DG>
-19.9340

> <Gold.Chemscore.ZeroCoef>
-5.4800

> <Gold.Chemscore.Hbond>
3.9776

> <Gold.Chemscore.Metal>
0.0000

> <Gold.Chemscore.Lipo>
82.0720

> <Gold.Chemscore.Internal_Hbond>
0.0000

> <Gold.Chemscore.DEClash>
3.1516

> <Gold.Chemscore.DEInternal>
1.0929

> <Gold.Chemscore.Rot>
3.2944

> <Gold.Chemscore.Internal.Correction>
   9.000000E+99

> <Gold.Chemscore.Hbonds>
donor molecule, donor type, donor heavy atom, donor atom, acceptor molecule, acceptor atom, score
      L1  H    22    43       P1  7921  0.90
      L1  H    24    46       P1 10952  1.00
      P1  H  6896  6909       L1     1  1.00
      P1  H 10192 10197       L1    22  0.55

> <Gold.Chemscore.Hbond.Weighted>
-13.2853

> <Gold.Chemscore.Metal.Weighted>
-0.0000

> <Gold.Chemscore.Lipo.Weighted>
-9.6024

> <Gold.Chemscore.Internal_Hbond.Weighted>
0.0000

> <Gold.Chemscore.DEClash.Weighted>
3.1516

> <Gold.Chemscore.DEInternal.Weighted>
1.0929

> <Gold.Chemscore.Rot.Weighted>
8.4337

> <Gold.Chemscore.Internal.Correction.Weighted>
   9.000000E+99

> <Gold.Protein.RotatedTorsions>
[ 6907 6896 6895 6894 ] final  -52.21 input  -60.11 | X-H torsion
[ 7974 7965 7964 7962 ] final  -92.14 input  175.53 | X-H torsion
[ 8008 7997 7996 7995 ] final  168.79 input   59.86 | X-H torsion
[ 10167 10162 10161 10158 ] final   25.12 input  -65.29 | X-H torsion
[ 10718 10713 10712 10709 ] final   56.61 input   66.30 | X-H torsion
[ 10763 10752 10751 10750 ] final  132.45 input  -60.55 | X-H torsion
[ 11005 11000 10999 10996 ] final  118.73 input  -57.11 | X-H torsion

> <Gold.Protein.ActiveResidues>
 VAL166  LYS551  ARG553  GLY616  TRP617  ASP618  TYR619  PRO620  LYS621  CYS622 
 ASP623  PHE694  ASN695  SER759  ASP760  ASP761  ALA762  ILE779  LEU786  VAL792 
 PHE793  MET794  SER795  GLU796  ALA797  LYS798  CYS799  TRP800  GLU811  SER814 

> <Gold.Protein.RotatedAtoms>
  150.8539  134.7872  159.7029 H   0  0  0  0  0  0  0  0  0  0  0  0  # atno 6907 bound_to 6896
  152.4596  134.5211  159.9792 H   0  0  0  0  0  0  0  0  0  0  0  0  # atno 6908 bound_to 6896
  151.5327  133.3408  159.2956 H   0  0  0  0  0  0  0  0  0  0  0  0  # atno 6909 bound_to 6896
  145.4037  140.9539  143.2273 H   0  0  0  0  0  0  0  0  0  0  0  0  # atno 7974 bound_to 7965
  156.1516  140.1581  156.8761 H   0  0  0  0  0  0  0  0  0  0  0  0  # atno 8008 bound_to 7997
  154.5076  140.0809  156.7962 H   0  0  0  0  0  0  0  0  0  0  0  0  # atno 8009 bound_to 7997
  155.3885  140.3408  155.4252 H   0  0  0  0  0  0  0  0  0  0  0  0  # atno 8010 bound_to 7997
  140.5132  144.0125  150.6382 H   0  0  0  0  0  0  0  0  0  0  0  0  # atno 10167 bound_to 10162
  157.5445  130.8721  149.8871 H   0  0  0  0  0  0  0  0  0  0  0  0  # atno 10718 bound_to 10713
  153.7909  135.3155  155.3378 H   0  0  0  0  0  0  0  0  0  0  0  0  # atno 10763 bound_to 10752
  154.8126  135.4657  154.0560 H   0  0  0  0  0  0  0  0  0  0  0  0  # atno 10764 bound_to 10752
  153.1878  135.6903  153.8479 H   0  0  0  0  0  0  0  0  0  0  0  0  # atno 10765 bound_to 10752
  139.9120  134.9623  156.7548 H   0  0  0  0  0  0  0  0  0  0  0  0  # atno 11005 bound_to 11000
  144.8356  139.5556  143.6924 LP  0  0  0  0  0  0  0  0  0  0  0  0  # atno 17320 bound_to 7965
  146.2739  139.6704  142.9277 LP  0  0  0  0  0  0  0  0  0  0  0  0  # atno 17321 bound_to 7965
  140.3453  143.2995  152.0544 LP  0  0  0  0  0  0  0  0  0  0  0  0  # atno 17342 bound_to 10162
  139.4902  144.6413  151.6871 LP  0  0  0  0  0  0  0  0  0  0  0  0  # atno 17343 bound_to 10162
  156.0524  130.3715  150.1169 LP  0  0  0  0  0  0  0  0  0  0  0  0  # atno 17370 bound_to 10713
  156.9346  130.9725  151.3527 LP  0  0  0  0  0  0  0  0  0  0  0  0  # atno 17371 bound_to 10713
  140.6745  133.9530  155.7875 LP  0  0  0  0  0  0  0  0  0  0  0  0  # atno 17394 bound_to 11000
  141.0554  134.0424  157.3729 LP  0  0  0  0  0  0  0  0  0  0  0  0  # atno 17395 bound_to 11000

$$$$
