AV-unprocessed.smi:2888|AV-procd|sdf|11102|dock6
  -GOLD-   2272015573D 1   1.00000     0.00000
 Structure written by MMmdl.
 33 35  0  0  0  0  0  0  0  0  1 V2000
  151.8954  145.0603  158.5862 C   0  0  0  0  0  0  0  0  0  0  0  0
  152.1814  143.6594  159.0830 C   0  0  0  0  0  0  0  0  0  0  0  0
  152.8007  143.4286  160.3291 C   0  0  0  0  0  0  0  0  0  0  0  0
  153.0116  142.0775  160.6756 C   0  0  0  0  0  0  0  0  0  0  0  0
  153.6680  141.6888  161.9832 C   0  0  0  0  0  0  0  0  0  0  0  0
  152.6433  141.0662  159.8578 N   0  0  0  0  0  0  0  0  0  0  0  0
  152.0682  141.4003  158.6998 C   0  0  0  0  0  0  0  0  0  0  0  0
  151.7146  140.3406  157.8851 N   0  0  0  0  0  0  0  0  0  0  0  0
  151.2949  140.4793  156.4953 C   0  0  2  0  0  0  0  0  0  0  0  0
  149.8825  139.9514  156.2342 C   0  0  0  0  0  0  0  0  0  0  0  0
  150.1208  138.9815  155.0678 C   0  0  2  0  0  0  0  0  0  0  0  0
  150.7862  137.6836  155.5429 C   0  0  0  0  0  0  0  0  0  0  0  0
  152.2074  138.1558  155.8427 C   0  0  0  0  0  0  0  0  0  0  0  0
  152.1263  139.6525  155.4949 C   0  0  1  0  0  0  0  0  0  0  0  0
  151.2125  139.6053  154.4119 O   0  0  0  0  0  0  0  0  0  0  0  0
  151.8168  142.6431  158.2710 N   0  0  0  0  0  0  0  0  0  0  0  0
  152.1275  145.8039  159.3489 H   0  0  0  0  0  0  0  0  0  0  0  0
  150.8428  145.1628  158.3209 H   0  0  0  0  0  0  0  0  0  0  0  0
  152.4961  145.2776  157.7028 H   0  0  0  0  0  0  0  0  0  0  0  0
  153.0964  144.2387  160.9796 H   0  0  0  0  0  0  0  0  0  0  0  0
  153.8009  142.5567  162.6298 H   0  0  0  0  0  0  0  0  0  0  0  0
  154.6474  141.2474  161.7975 H   0  0  0  0  0  0  0  0  0  0  0  0
  153.0567  140.9593  162.5150 H   0  0  0  0  0  0  0  0  0  0  0  0
  151.9502  139.4163  158.2153 H   0  0  0  0  0  0  0  0  0  0  0  0
  151.3320  141.5330  156.2148 H   0  0  0  0  0  0  0  0  0  0  0  0
  149.4327  139.4518  157.0934 H   0  0  0  0  0  0  0  0  0  0  0  0
  149.2235  140.7672  155.9351 H   0  0  0  0  0  0  0  0  0  0  0  0
  149.2461  138.8241  154.4363 H   0  0  0  0  0  0  0  0  0  0  0  0
  150.2886  137.2547  156.4134 H   0  0  0  0  0  0  0  0  0  0  0  0
  150.7918  136.9362  154.7488 H   0  0  0  0  0  0  0  0  0  0  0  0
  152.5083  137.9714  156.8742 H   0  0  0  0  0  0  0  0  0  0  0  0
  152.9200  137.6497  155.1907 H   0  0  0  0  0  0  0  0  0  0  0  0
  153.0890  140.0988  155.2446 H   0  0  0  0  0  0  0  0  0  0  0  0
  1  2  1  0  0  0  0
  1 17  1  0  0  0  0
  1 18  1  0  0  0  0
  1 19  1  0  0  0  0
  2 16  1  0  0  0  0
  2  3  2  0  0  0  0
  3  4  1  0  0  0  0
  3 20  1  0  0  0  0
  4  5  1  0  0  0  0
  4  6  2  0  0  0  0
  5 21  1  0  0  0  0
  5 22  1  0  0  0  0
  5 23  1  0  0  0  0
  6  7  1  0  0  0  0
  7  8  1  0  0  0  0
  7 16  2  0  0  0  0
  8  9  1  0  0  0  0
  8 24  1  0  0  0  0
  9 14  1  0  0  0  0
  9 10  1  0  0  0  0
  9 25  1  0  0  0  0
 10 11  1  0  0  0  0
 10 26  1  0  0  0  0
 10 27  1  0  0  0  0
 11 15  1  0  0  0  0
 11 12  1  0  0  0  0
 11 28  1  0  0  0  0
 12 13  1  0  0  0  0
 12 29  1  0  0  0  0
 12 30  1  0  0  0  0
 13 14  1  0  0  0  0
 13 31  1  0  0  0  0
 13 32  1  0  0  0  0
 14 15  1  0  0  0  0
 14 33  1  0  0  0  0
M  END
> <s_m_source_file>
AV-unprocessed.smi

> <i_m_source_file_index>
2888

> <i_lp_mmshare_version>
43012

> <i_f3d_flags>
0

> <s_epik_input>
W0NIM11jMVtjSF1jKFtDSDNdKW5jKG4xKVtOSF1bQ0BIXShbQ0gyXVtDQEBIXTIzKVtDQEBIXShPMylbQ0gyXVtDSDJdMg==

> <s_epik_cmdline>
J2VwaWtfcHl0aG9uJywgJy1waCcsICc3LjAnLCAnLXRuJywgJzgnLCAnLW1hJywgJzIwMCcsICctbWV0YWxfYmluZGluZycsICctaW1hZScsICc8aW5maWxlLm1hZT4nLCAnLW9tYWUnLCAnPG91dGZpbGUubWFlPic=

> <r_lp_tautomer_probability>
1

> <r_epik_Ionization_Penalty>
0.00890508

> <r_epik_Ionization_Penalty_Charging>
0

> <r_epik_Ionization_Penalty_Neutral>
0.00890508

> <r_epik_State_Penalty>
0.0067342

> <r_epik_Charging_Adjusted_Penalty>
0.0067342

> <i_epik_Tot_Q>
0

> <i_epik_Tot_abs_Q>
0

> <r_epik_Metal_State_Penalty>
0.00663442

> <b_epik_Metal_Only>
0

> <s_lp_Force_Field>
OPLS_2005

> <r_lp_Energy>
31.8735

> <b_lp_Chiralities_Consistent>
1

> <s_lp_Variant>
AV-unprocessed.smi:2888-3

> <Gold.Version>
5.8.1

> <Gold.Id.Protein>
6NUR|6NUR_protein|mol2

> <Gold.PLP.Fitness>
37.2815

> <Gold.PLP.PLP>
-34.3456

> <Gold.PLP.part.hbond>
-1.0000

> <Gold.PLP.part.metal>
0.0000

> <Gold.PLP.part.buried>
-3.5242

> <Gold.PLP.part.nonpolar>
-30.0055

> <Gold.PLP.part.repulsive>
0.2232

> <Gold.PLP.ligand.clash>
0.0000

> <Gold.PLP.ligand.torsion>
0.0365

> <Gold.PLP.Chemscore.Hbond>
1.0000

> <Gold.PLP.Chemscore.CHOScore>
0.0000

> <Gold.PLP.Chemscore.Metal>
0.0000

> <Gold.Chemscore.Hbonds>
donor molecule, donor type, donor heavy atom, donor atom, acceptor molecule, acceptor atom, score
      P1  H  7989  7998       L1    15  1.00

> <Gold.PLP.Chemscore.Internal.Correction>
0.0089

> <Gold.Rescore>
     Score         DG    S(hbond)    S(metal)    S(lipo)     H(rot)  DE(clash)    DE(int)     intcor
     17.37     -17.53       0.95        0.00      97.80       1.00       0.13       0.03       ----

> <Gold.Chemscore.Fitness>
17.3704

> <Gold.Chemscore.DG>
-17.5254

> <Gold.Chemscore.ZeroCoef>
-5.4800

> <Gold.Chemscore.Hbond>
0.9471

> <Gold.Chemscore.Metal>
0.0000

> <Gold.Chemscore.Lipo>
97.7953

> <Gold.Chemscore.Internal_Hbond>
0.0000

> <Gold.Chemscore.DEClash>
0.1290

> <Gold.Chemscore.DEInternal>
0.0260

> <Gold.Chemscore.Rot>
1.0000

> <Gold.Chemscore.Internal.Correction>
   9.000000E+99

> <Gold.Chemscore.Hbonds>
donor molecule, donor type, donor heavy atom, donor atom, acceptor molecule, acceptor atom, score
      P1  H  7989  7998       L1    15  0.44

> <Gold.Chemscore.Hbond.Weighted>
-3.1633

> <Gold.Chemscore.Metal.Weighted>
-0.0000

> <Gold.Chemscore.Lipo.Weighted>
-11.4420

> <Gold.Chemscore.Internal_Hbond.Weighted>
0.0000

> <Gold.Chemscore.DEClash.Weighted>
0.1290

> <Gold.Chemscore.DEInternal.Weighted>
0.0260

> <Gold.Chemscore.Rot.Weighted>
2.5600

> <Gold.Chemscore.Internal.Correction.Weighted>
   9.000000E+99

> <Gold.Protein.RotatedTorsions>
[ 6907 6896 6895 6894 ] final  139.69 input  -60.11 | X-H torsion
[ 7974 7965 7964 7962 ] final  158.51 input  175.53 | X-H torsion
[ 8008 7997 7996 7995 ] final   86.48 input   59.86 | X-H torsion
[ 10167 10162 10161 10158 ] final   -2.41 input  -65.29 | X-H torsion
[ 10718 10713 10712 10709 ] final -106.06 input   66.30 | X-H torsion
[ 10763 10752 10751 10750 ] final  -76.12 input  -60.55 | X-H torsion
[ 11005 11000 10999 10996 ] final   58.98 input  -57.11 | X-H torsion

> <Gold.Protein.ActiveResidues>
 VAL166  LYS551  ARG553  GLY616  TRP617  ASP618  TYR619  PRO620  LYS621  CYS622 
 ASP623  PHE694  ASN695  SER759  ASP760  ASP761  ALA762  ILE779  LEU786  VAL792 
 PHE793  MET794  SER795  GLU796  ALA797  LYS798  CYS799  TRP800  GLU811  SER814 

> <Gold.Protein.RotatedAtoms>
  152.2519  133.5222  159.5330 H   0  0  0  0  0  0  0  0  0  0  0  0  # atno 6907 bound_to 6896
  150.7096  134.0948  159.3953 H   0  0  0  0  0  0  0  0  0  0  0  0  # atno 6908 bound_to 6896
  151.8868  135.0432  160.0545 H   0  0  0  0  0  0  0  0  0  0  0  0  # atno 6909 bound_to 6896
  144.7842  139.7488  143.6247 H   0  0  0  0  0  0  0  0  0  0  0  0  # atno 7974 bound_to 7965
  155.9633  140.3391  155.6510 H   0  0  0  0  0  0  0  0  0  0  0  0  # atno 8008 bound_to 7997
  155.6770  140.0733  157.2517 H   0  0  0  0  0  0  0  0  0  0  0  0  # atno 8009 bound_to 7997
  154.4148  140.1681  156.1928 H   0  0  0  0  0  0  0  0  0  0  0  0  # atno 8010 bound_to 7997
  140.6850  143.6661  150.8225 H   0  0  0  0  0  0  0  0  0  0  0  0  # atno 10167 bound_to 10162
  156.0373  130.5594  150.7627 H   0  0  0  0  0  0  0  0  0  0  0  0  # atno 10718 bound_to 10713
  154.4957  135.5808  153.6492 H   0  0  0  0  0  0  0  0  0  0  0  0  # atno 10763 bound_to 10752
  152.9870  135.6123  154.3068 H   0  0  0  0  0  0  0  0  0  0  0  0  # atno 10764 bound_to 10752
  154.2971  135.2847  155.2607 H   0  0  0  0  0  0  0  0  0  0  0  0  # atno 10765 bound_to 10752
  140.0337  134.5974  155.9472 H   0  0  0  0  0  0  0  0  0  0  0  0  # atno 11005 bound_to 11000
  146.2065  139.5393  142.9709 LP  0  0  0  0  0  0  0  0  0  0  0  0  # atno 17320 bound_to 7965
  145.5967  141.0361  143.2040 LP  0  0  0  0  0  0  0  0  0  0  0  0  # atno 17321 bound_to 7965
  140.0366  143.5388  152.2736 LP  0  0  0  0  0  0  0  0  0  0  0  0  # atno 17342 bound_to 10162
  139.6201  144.7627  151.2760 LP  0  0  0  0  0  0  0  0  0  0  0  0  # atno 17343 bound_to 10162
  157.5142  131.0927  151.0160 LP  0  0  0  0  0  0  0  0  0  0  0  0  # atno 17370 bound_to 10713
  157.0507  130.5786  149.5370 LP  0  0  0  0  0  0  0  0  0  0  0  0  # atno 17371 bound_to 10713
  141.1845  133.6553  156.5161 LP  0  0  0  0  0  0  0  0  0  0  0  0  # atno 17394 bound_to 11000
  140.4183  134.7210  157.4875 LP  0  0  0  0  0  0  0  0  0  0  0  0  # atno 17395 bound_to 11000

$$$$
