AV-unprocessed.smi:189|AV-procd|sdf|1475|dock1
  -GOLD-   2262019293D 1   1.00000     0.00000
 Structure written by MMmdl.
 53 57  0  0  0  0  0  0  0  0  1 V2000
  151.3704  139.0033  155.6035 C   0  0  0  0  0  0  0  0  0  0  0  0
  151.5059  140.3052  156.4193 C   0  0  2  0  0  0  0  0  0  0  0  0
  152.4996  140.2079  157.5939 C   0  0  0  0  0  0  0  0  0  0  0  0
  151.7786  140.8675  158.7759 C   0  0  1  0  0  0  0  0  0  0  0  0
  152.6532  141.6582  159.7700 C   0  0  0  0  0  0  0  0  0  0  0  0
  153.0553  143.0468  159.2526 C   0  0  0  0  0  0  0  0  0  0  0  0
  151.8216  143.8395  158.8022 C   0  0  0  0  0  0  0  0  0  0  0  0
  151.0920  143.0917  157.6803 C   0  0  0  0  0  0  0  0  0  0  0  0
  150.6460  141.6771  158.1176 C   0  0  1  0  0  0  0  0  0  0  0  0
  150.2624  140.8744  156.9592 N   0  0  0  0  0  0  0  0  0  0  0  0
  149.1839  140.0618  157.0893 C   0  0  0  0  0  0  0  0  0  0  0  0
  148.0584  140.2756  156.3574 N   0  0  0  0  0  0  0  0  0  0  0  0
  146.9973  139.4775  156.5094 C   0  0  0  0  0  0  0  0  0  0  0  0
  146.8506  138.4297  157.3231 N   0  0  0  0  0  0  0  0  0  0  0  0
  147.9791  138.2122  158.0579 C   0  0  0  0  0  0  0  0  0  0  0  0
  149.1802  138.9724  158.0007 C   0  0  0  0  0  0  0  0  0  0  0  0
  150.1153  138.4542  158.8873 N   0  0  0  0  0  0  0  0  0  0  0  0
  149.4995  137.4456  159.4418 C   0  0  0  0  0  0  0  0  0  0  0  0
  148.2089  137.2347  159.0102 N   0  0  0  0  0  0  0  0  0  0  0  0
  147.2986  136.1910  159.4566 C   0  0  0  0  0  0  0  0  0  0  0  0
  146.8159  136.3580  160.9199 C   0  0  1  0  0  0  0  0  0  0  0  0
  146.1610  137.6063  161.0527 O   0  0  0  0  0  0  0  0  0  0  0  0
  145.8814  135.2474  161.4016 C   0  0  0  0  0  0  0  0  0  0  0  0
  146.8338  134.2909  162.1026 C   0  0  0  0  0  0  0  0  0  0  0  0
  147.7067  135.1774  162.7806 O   0  0  0  0  0  0  0  0  0  0  0  0
  147.9906  136.2727  161.9163 C   0  0  0  0  0  0  0  0  0  0  0  0
  152.3411  138.6919  155.2173 H   0  0  0  0  0  0  0  0  0  0  0  0
  150.7100  139.1357  154.7465 H   0  0  0  0  0  0  0  0  0  0  0  0
  150.9833  138.1828  156.2087 H   0  0  0  0  0  0  0  0  0  0  0  0
  151.8899  141.0552  155.7275 H   0  0  0  0  0  0  0  0  0  0  0  0
  152.7604  139.1757  157.8309 H   0  0  0  0  0  0  0  0  0  0  0  0
  153.4238  140.7293  157.3435 H   0  0  0  0  0  0  0  0  0  0  0  0
  151.3205  140.0560  159.3424 H   0  0  0  0  0  0  0  0  0  0  0  0
  152.0930  141.7873  160.6970 H   0  0  0  0  0  0  0  0  0  0  0  0
  153.5402  141.0807  160.0319 H   0  0  0  0  0  0  0  0  0  0  0  0
  153.5828  143.5930  160.0351 H   0  0  0  0  0  0  0  0  0  0  0  0
  153.7539  142.9471  158.4212 H   0  0  0  0  0  0  0  0  0  0  0  0
  151.1485  143.9981  159.6457 H   0  0  0  0  0  0  0  0  0  0  0  0
  152.1233  144.8275  158.4529 H   0  0  0  0  0  0  0  0  0  0  0  0
  150.2229  143.6645  157.3559 H   0  0  0  0  0  0  0  0  0  0  0  0
  151.7567  143.0400  156.8177 H   0  0  0  0  0  0  0  0  0  0  0  0
  149.8178  141.7829  158.8202 H   0  0  0  0  0  0  0  0  0  0  0  0
  146.1431  139.7139  155.8922 H   0  0  0  0  0  0  0  0  0  0  0  0
  149.9714  136.8255  160.1901 H   0  0  0  0  0  0  0  0  0  0  0  0
  146.4431  136.1739  158.7802 H   0  0  0  0  0  0  0  0  0  0  0  0
  147.8005  135.2301  159.3344 H   0  0  0  0  0  0  0  0  0  0  0  0
  145.4614  137.6453  160.4184 H   0  0  0  0  0  0  0  0  0  0  0  0
  145.1725  135.6319  162.1368 H   0  0  0  0  0  0  0  0  0  0  0  0
  145.3011  134.7667  160.6155 H   0  0  0  0  0  0  0  0  0  0  0  0
  146.3259  133.6179  162.7934 H   0  0  0  0  0  0  0  0  0  0  0  0
  147.3940  133.6934  161.3815 H   0  0  0  0  0  0  0  0  0  0  0  0
  148.9350  136.0816  161.4048 H   0  0  0  0  0  0  0  0  0  0  0  0
  148.1186  137.1819  162.5054 H   0  0  0  0  0  0  0  0  0  0  0  0
  1  2  1  0  0  0  0
  1 27  1  0  0  0  0
  1 28  1  0  0  0  0
  1 29  1  0  0  0  0
  2 10  1  0  0  0  0
  2  3  1  0  0  0  0
  2 30  1  0  0  0  0
  3  4  1  0  0  0  0
  3 31  1  0  0  0  0
  3 32  1  0  0  0  0
  4  9  1  0  0  0  0
  4  5  1  0  0  0  0
  4 33  1  0  0  0  0
  5  6  1  0  0  0  0
  5 34  1  0  0  0  0
  5 35  1  0  0  0  0
  6  7  1  0  0  0  0
  6 36  1  0  0  0  0
  6 37  1  0  0  0  0
  7  8  1  0  0  0  0
  7 38  1  0  0  0  0
  7 39  1  0  0  0  0
  8  9  1  0  0  0  0
  8 40  1  0  0  0  0
  8 41  1  0  0  0  0
  9 10  1  0  0  0  0
  9 42  1  0  0  0  0
 10 11  1  0  0  0  0
 11 16  1  0  0  0  0
 11 12  2  0  0  0  0
 12 13  1  0  0  0  0
 13 14  2  0  0  0  0
 13 43  1  0  0  0  0
 14 15  1  0  0  0  0
 15 19  1  0  0  0  0
 15 16  2  0  0  0  0
 16 17  1  0  0  0  0
 17 18  2  0  0  0  0
 18 19  1  0  0  0  0
 18 44  1  0  0  0  0
 19 20  1  0  0  0  0
 20 21  1  0  0  0  0
 20 45  1  0  0  0  0
 20 46  1  0  0  0  0
 21 26  1  0  0  0  0
 21 22  1  0  0  0  0
 21 23  1  0  0  0  0
 22 47  1  0  0  0  0
 23 24  1  0  0  0  0
 23 48  1  0  0  0  0
 23 49  1  0  0  0  0
 24 25  1  0  0  0  0
 24 50  1  0  0  0  0
 24 51  1  0  0  0  0
 25 26  1  0  0  0  0
 26 52  1  0  0  0  0
 26 53  1  0  0  0  0
M  END
> <s_m_source_file>
AV-unprocessed.smi

> <i_m_source_file_index>
189

> <i_lp_mmshare_version>
43012

> <i_f3d_flags>
0

> <s_epik_input>
W0NIMl0xW0NIMl1bQ0gyXVtDSDJdW0NASF0oW0NASF0xMilOKFtDQEhdKFtDSDNdKVtDSDJdMiljKG5bY0hdbjMpYyhjMzQpbltjSF1uNFtDSDJdW0NAQF01KFtPSF0pW0NIMl1bQ0gyXU9bQ0gyXTU=

> <s_epik_cmdline>
J2VwaWtfcHl0aG9uJywgJy1waCcsICc3LjAnLCAnLXRuJywgJzgnLCAnLW1hJywgJzIwMCcsICctbWV0YWxfYmluZGluZycsICctaW1hZScsICc8aW5maWxlLm1hZT4nLCAnLW9tYWUnLCAnPG91dGZpbGUubWFlPic=

> <r_lp_tautomer_probability>
1

> <r_epik_Ionization_Penalty>
0.00594261

> <r_epik_Ionization_Penalty_Charging>
0

> <r_epik_Ionization_Penalty_Neutral>
0.00594261

> <r_epik_State_Penalty>
0.00429776

> <r_epik_Charging_Adjusted_Penalty>
0.00429776

> <i_epik_Tot_Q>
0

> <i_epik_Tot_abs_Q>
0

> <r_epik_Metal_State_Penalty>
-0

> <b_epik_Metal_Only>
0

> <s_lp_Force_Field>
OPLS_2005

> <r_lp_Energy>
62.973

> <b_lp_Chiralities_Consistent>
1

> <s_lp_Variant>
AV-unprocessed.smi:189-1

> <Gold.Version>
5.8.1

> <Gold.Id.Protein>
6NUR|6NUR_protein|mol2

> <Gold.PLP.Fitness>
41.1794

> <Gold.PLP.PLP>
-38.3070

> <Gold.PLP.part.hbond>
-1.3947

> <Gold.PLP.part.metal>
0.0000

> <Gold.PLP.part.buried>
-2.3325

> <Gold.PLP.part.nonpolar>
-33.8186

> <Gold.PLP.part.repulsive>
0.0558

> <Gold.PLP.ligand.clash>
0.0000

> <Gold.PLP.ligand.torsion>
0.1190

> <Gold.PLP.Chemscore.Hbond>
1.0000

> <Gold.PLP.Chemscore.CHOScore>
0.0000

> <Gold.PLP.Chemscore.Metal>
0.0000

> <Gold.Chemscore.Hbonds>
donor molecule, donor type, donor heavy atom, donor atom, acceptor molecule, acceptor atom, score
      P1  H  6934  6947       L1    22  1.00

> <Gold.PLP.Chemscore.Internal.Correction>
0.1105

> <Gold.Rescore>
     Score         DG    S(hbond)    S(metal)    S(lipo)     H(rot)  DE(clash)    DE(int)     intcor
     14.34     -15.73       0.90        0.00     106.22       2.03       0.08       1.30       ----

> <Gold.Chemscore.Fitness>
14.3438

> <Gold.Chemscore.DG>
-15.7274

> <Gold.Chemscore.ZeroCoef>
-5.4800

> <Gold.Chemscore.Hbond>
0.9030

> <Gold.Chemscore.Metal>
0.0000

> <Gold.Chemscore.Lipo>
106.2168

> <Gold.Chemscore.Internal_Hbond>
0.0000

> <Gold.Chemscore.DEClash>
0.0824

> <Gold.Chemscore.DEInternal>
1.3012

> <Gold.Chemscore.Rot>
2.0297

> <Gold.Chemscore.Internal.Correction>
   9.000000E+99

> <Gold.Chemscore.Hbonds>
donor molecule, donor type, donor heavy atom, donor atom, acceptor molecule, acceptor atom, score
      P1  H  6934  6947       L1    22  0.70

> <Gold.Chemscore.Hbond.Weighted>
-3.0160

> <Gold.Chemscore.Metal.Weighted>
-0.0000

> <Gold.Chemscore.Lipo.Weighted>
-12.4274

> <Gold.Chemscore.Internal_Hbond.Weighted>
0.0000

> <Gold.Chemscore.DEClash.Weighted>
0.0824

> <Gold.Chemscore.DEInternal.Weighted>
1.3012

> <Gold.Chemscore.Rot.Weighted>
5.1960

> <Gold.Chemscore.Internal.Correction.Weighted>
   9.000000E+99

> <Gold.Protein.RotatedTorsions>
[ 6907 6896 6895 6894 ] final -154.59 input  -60.11 | X-H torsion
[ 7974 7965 7964 7962 ] final   66.50 input  175.53 | X-H torsion
[ 8008 7997 7996 7995 ] final   95.15 input   59.86 | X-H torsion
[ 10167 10162 10161 10158 ] final   18.15 input  -65.29 | X-H torsion
[ 10718 10713 10712 10709 ] final  -66.39 input   66.30 | X-H torsion
[ 10763 10752 10751 10750 ] final -122.43 input  -60.55 | X-H torsion
[ 11005 11000 10999 10996 ] final   43.33 input  -57.11 | X-H torsion

> <Gold.Protein.ActiveResidues>
 VAL166  LYS551  ARG553  GLY616  TRP617  ASP618  TYR619  PRO620  LYS621  CYS622 
 ASP623  PHE694  ASN695  SER759  ASP760  ASP761  ALA762  ILE779  LEU786  VAL792 
 PHE793  MET794  SER795  GLU796  ALA797  LYS798  CYS799  TRP800  GLU811  SER814 

> <Gold.Protein.RotatedAtoms>
  151.2598  133.4308  159.2615 H   0  0  0  0  0  0  0  0  0  0  0  0  # atno 6907 bound_to 6896
  151.0541  134.9693  159.8237 H   0  0  0  0  0  0  0  0  0  0  0  0  # atno 6908 bound_to 6896
  152.5387  134.2551  159.8966 H   0  0  0  0  0  0  0  0  0  0  0  0  # atno 6909 bound_to 6896
  145.8259  139.3111  143.1016 H   0  0  0  0  0  0  0  0  0  0  0  0  # atno 7974 bound_to 7965
  156.0658  140.3290  155.7515 H   0  0  0  0  0  0  0  0  0  0  0  0  # atno 8008 bound_to 7997
  155.5384  140.0599  157.2892 H   0  0  0  0  0  0  0  0  0  0  0  0  # atno 8009 bound_to 7997
  154.4504  140.1915  156.0554 H   0  0  0  0  0  0  0  0  0  0  0  0  # atno 8010 bound_to 7997
  140.5674  143.9225  150.6687 H   0  0  0  0  0  0  0  0  0  0  0  0  # atno 10167 bound_to 10162
  156.0615  130.4261  150.1703 H   0  0  0  0  0  0  0  0  0  0  0  0  # atno 10718 bound_to 10713
  154.8689  135.4133  154.2781 H   0  0  0  0  0  0  0  0  0  0  0  0  # atno 10763 bound_to 10752
  153.3678  135.7006  153.6667 H   0  0  0  0  0  0  0  0  0  0  0  0  # atno 10764 bound_to 10752
  153.5541  135.3623  155.2744 H   0  0  0  0  0  0  0  0  0  0  0  0  # atno 10765 bound_to 10752
  140.1655  134.4287  155.8290 H   0  0  0  0  0  0  0  0  0  0  0  0  # atno 11005 bound_to 11000
  145.9624  140.8825  143.0204 LP  0  0  0  0  0  0  0  0  0  0  0  0  # atno 17320 bound_to 7965
  144.6743  140.1831  143.7404 LP  0  0  0  0  0  0  0  0  0  0  0  0  # atno 17321 bound_to 7965
  140.2692  143.3468  152.1253 LP  0  0  0  0  0  0  0  0  0  0  0  0  # atno 17342 bound_to 10162
  139.5100  144.6876  151.5845 LP  0  0  0  0  0  0  0  0  0  0  0  0  # atno 17343 bound_to 10162
  156.9770  130.9852  151.3446 LP  0  0  0  0  0  0  0  0  0  0  0  0  # atno 17370 bound_to 10713
  157.5626  130.8256  149.8286 LP  0  0  0  0  0  0  0  0  0  0  0  0  # atno 17371 bound_to 10713
  141.2213  133.6932  156.7670 LP  0  0  0  0  0  0  0  0  0  0  0  0  # atno 17394 bound_to 11000
  140.2439  134.8592  157.3601 LP  0  0  0  0  0  0  0  0  0  0  0  0  # atno 17395 bound_to 11000

$$$$
