AV-unprocessed.smi:2089|AV-procd|sdf|8528|dock2
  -GOLD-   2272011243D 1   1.00000     0.00000
 Structure written by MMmdl.
 39 40  0  0  0  0  0  0  0  0  1 V2000
  144.5978  140.9146  157.4267 C   0  0  0  0  0  0  0  0  0  0  0  0
  146.3988  140.5450  157.4138 S   0  0  0  0  0  0  0  0  0  0  0  0
  146.9865  141.0741  158.6541 O   0  0  0  0  0  0  0  0  0  0  0  0
  146.6004  139.1338  157.0512 O   0  0  0  0  0  0  0  0  0  0  0  0
  146.9810  141.5160  156.1046 N   0  0  0  0  0  0  0  0  0  0  0  0
  146.0985  142.5513  155.5476 C   0  0  0  0  0  0  0  0  0  0  0  0
  146.5550  142.7535  154.1045 C   0  0  0  0  0  0  0  0  0  0  0  0
  147.0949  141.3828  153.7215 C   0  0  0  0  0  0  0  0  0  0  0  0
  147.7315  140.8595  155.0212 C   0  0  1  0  0  0  0  0  0  0  0  0
  149.2441  141.1112  155.1146 C   0  0  0  0  0  0  0  0  0  0  0  0
  150.0139  140.6750  154.2577 O   0  0  0  0  0  0  0  0  0  0  0  0
  149.6567  141.8325  156.1664 N   0  0  0  0  0  0  0  0  0  0  0  0
  151.0426  142.1936  156.4274 C   0  0  0  0  0  0  0  0  0  0  0  0
  151.4772  141.7032  157.8152 C   0  0  0  0  0  0  0  0  0  0  0  0
  151.7007  142.8490  158.7842 C   0  0  0  0  0  0  0  0  0  0  0  0
  152.3687  142.6361  160.0090 C   0  0  0  0  0  0  0  0  0  0  0  0
  152.5617  143.7355  160.8680 C   0  0  0  0  0  0  0  0  0  0  0  0
  152.0828  144.9989  160.4712 C   0  0  0  0  0  0  0  0  0  0  0  0
  151.4295  145.1071  159.2272 C   0  0  0  0  0  0  0  0  0  0  0  0
  151.2397  144.0596  158.3960 N   0  0  0  0  0  0  0  0  0  0  0  0
  144.1258  140.3841  158.2534 H   0  0  0  0  0  0  0  0  0  0  0  0
  144.1492  140.5904  156.4881 H   0  0  0  0  0  0  0  0  0  0  0  0
  144.4472  141.9867  157.5513 H   0  0  0  0  0  0  0  0  0  0  0  0
  145.0667  142.1988  155.5660 H   0  0  0  0  0  0  0  0  0  0  0  0
  146.1565  143.4676  156.1353 H   0  0  0  0  0  0  0  0  0  0  0  0
  145.7511  143.0909  153.4499 H   0  0  0  0  0  0  0  0  0  0  0  0
  147.3545  143.4944  154.0662 H   0  0  0  0  0  0  0  0  0  0  0  0
  146.2710  140.7299  153.4301 H   0  0  0  0  0  0  0  0  0  0  0  0
  147.7829  141.4289  152.8762 H   0  0  0  0  0  0  0  0  0  0  0  0
  147.5688  139.7813  155.0692 H   0  0  0  0  0  0  0  0  0  0  0  0
  148.9610  142.1681  156.8174 H   0  0  0  0  0  0  0  0  0  0  0  0
  151.6830  141.7558  155.6600 H   0  0  0  0  0  0  0  0  0  0  0  0
  151.1500  143.2774  156.3599 H   0  0  0  0  0  0  0  0  0  0  0  0
  150.7225  141.0319  158.2283 H   0  0  0  0  0  0  0  0  0  0  0  0
  152.3949  141.1191  157.7342 H   0  0  0  0  0  0  0  0  0  0  0  0
  152.7283  141.6555  160.2844 H   0  0  0  0  0  0  0  0  0  0  0  0
  153.0696  143.6121  161.8132 H   0  0  0  0  0  0  0  0  0  0  0  0
  152.2136  145.8638  161.1042 H   0  0  0  0  0  0  0  0  0  0  0  0
  151.0502  146.0606  158.8906 H   0  0  0  0  0  0  0  0  0  0  0  0
  1  2  1  0  0  0  0
  1 21  1  0  0  0  0
  1 22  1  0  0  0  0
  1 23  1  0  0  0  0
  2  3  2  0  0  0  0
  2  4  2  0  0  0  0
  2  5  1  0  0  0  0
  5  9  1  0  0  0  0
  5  6  1  0  0  0  0
  6  7  1  0  0  0  0
  6 24  1  0  0  0  0
  6 25  1  0  0  0  0
  7  8  1  0  0  0  0
  7 26  1  0  0  0  0
  7 27  1  0  0  0  0
  8  9  1  0  0  0  0
  8 28  1  0  0  0  0
  8 29  1  0  0  0  0
  9 10  1  0  0  0  0
  9 30  1  0  0  0  0
 10 11  2  0  0  0  0
 10 12  1  0  0  0  0
 12 13  1  0  0  0  0
 12 31  1  0  0  0  0
 13 14  1  0  0  0  0
 13 32  1  0  0  0  0
 13 33  1  0  0  0  0
 14 15  1  0  0  0  0
 14 34  1  0  0  0  0
 14 35  1  0  0  0  0
 15 20  1  0  0  0  0
 15 16  2  0  0  0  0
 16 17  1  0  0  0  0
 16 36  1  0  0  0  0
 17 18  2  0  0  0  0
 17 37  1  0  0  0  0
 18 19  1  0  0  0  0
 18 38  1  0  0  0  0
 19 20  2  0  0  0  0
 19 39  1  0  0  0  0
M  END
> <s_m_source_file>
AV-unprocessed.smi

> <i_m_source_file_index>
2089

> <i_lp_mmshare_version>
43012

> <i_f3d_flags>
0

> <s_epik_input>
W0NIM11TKD1PKSg9TylOMVtDSDJdW0NIMl1bQ0gyXVtDQEhdMUMoPU8pW05IXVtDSDJdW0NIMl1jMltjSF1bY0hdW2NIXVtjSF1uMg==

> <s_epik_cmdline>
J2VwaWtfcHl0aG9uJywgJy1waCcsICc3LjAnLCAnLXRuJywgJzgnLCAnLW1hJywgJzIwMCcsICctbWV0YWxfYmluZGluZycsICctaW1hZScsICc8aW5maWxlLm1hZT4nLCAnLW9tYWUnLCAnPG91dGZpbGUubWFlPic=

> <r_epik_Ionization_Penalty>
0.0244371

> <r_epik_Ionization_Penalty_Charging>
0

> <r_epik_Ionization_Penalty_Neutral>
0.0244371

> <r_epik_State_Penalty>
0.0198365

> <r_epik_Charging_Adjusted_Penalty>
0.0198365

> <i_epik_Tot_Q>
0

> <i_epik_Tot_abs_Q>
0

> <r_epik_Metal_State_Penalty>
0.0190441

> <b_epik_Metal_Only>
0

> <s_lp_Force_Field>
OPLS_2005

> <r_lp_Energy>
6.09758

> <b_lp_Chiralities_Consistent>
1

> <s_lp_Variant>
AV-unprocessed.smi:2089-1

> <Gold.Version>
5.8.1

> <Gold.Id.Protein>
6NUR|6NUR_protein|mol2

> <Gold.PLP.Fitness>
41.2365

> <Gold.PLP.PLP>
-39.2627

> <Gold.PLP.part.hbond>
-3.0000

> <Gold.PLP.part.metal>
0.0000

> <Gold.PLP.part.buried>
-7.1819

> <Gold.PLP.part.nonpolar>
-29.4270

> <Gold.PLP.part.repulsive>
0.4505

> <Gold.PLP.ligand.clash>
0.0000

> <Gold.PLP.ligand.torsion>
0.8145

> <Gold.PLP.Chemscore.Hbond>
1.0190

> <Gold.PLP.Chemscore.CHOScore>
0.0000

> <Gold.PLP.Chemscore.Metal>
0.0000

> <Gold.Chemscore.Hbonds>
donor molecule, donor type, donor heavy atom, donor atom, acceptor molecule, acceptor atom, score
      P1  H  6934  6946       L1     3  0.27
      P1  H  7989  7998       L1    11  0.72

> <Gold.PLP.Chemscore.Internal.Correction>
0.5458

> <Gold.Rescore>
     Score         DG    S(hbond)    S(metal)    S(lipo)     H(rot)  DE(clash)    DE(int)     intcor
     15.33     -16.36       1.39        0.00      94.87       1.90       0.06       0.97       ----

> <Gold.Chemscore.Fitness>
15.3305

> <Gold.Chemscore.DG>
-16.3636

> <Gold.Chemscore.ZeroCoef>
-5.4800

> <Gold.Chemscore.Hbond>
1.3908

> <Gold.Chemscore.Metal>
0.0000

> <Gold.Chemscore.Lipo>
94.8687

> <Gold.Chemscore.Internal_Hbond>
0.0000

> <Gold.Chemscore.DEClash>
0.0619

> <Gold.Chemscore.DEInternal>
0.9712

> <Gold.Chemscore.Rot>
1.8990

> <Gold.Chemscore.Internal.Correction>
   9.000000E+99

> <Gold.Chemscore.Hbonds>
donor molecule, donor type, donor heavy atom, donor atom, acceptor molecule, acceptor atom, score
      P1  H  6934  6946       L1     3  0.26
      P1  H  7989  7998       L1    11  0.72

> <Gold.Chemscore.Hbond.Weighted>
-4.6453

> <Gold.Chemscore.Metal.Weighted>
-0.0000

> <Gold.Chemscore.Lipo.Weighted>
-11.0996

> <Gold.Chemscore.Internal_Hbond.Weighted>
0.0000

> <Gold.Chemscore.DEClash.Weighted>
0.0619

> <Gold.Chemscore.DEInternal.Weighted>
0.9712

> <Gold.Chemscore.Rot.Weighted>
4.8613

> <Gold.Chemscore.Internal.Correction.Weighted>
   9.000000E+99

> <Gold.Protein.RotatedTorsions>
[ 6907 6896 6895 6894 ] final   30.14 input  -60.11 | X-H torsion
[ 7974 7965 7964 7962 ] final -114.07 input  175.53 | X-H torsion
[ 8008 7997 7996 7995 ] final  179.43 input   59.86 | X-H torsion
[ 10167 10162 10161 10158 ] final  173.39 input  -65.29 | X-H torsion
[ 10718 10713 10712 10709 ] final -158.25 input   66.30 | X-H torsion
[ 10763 10752 10751 10750 ] final  -79.47 input  -60.55 | X-H torsion
[ 11005 11000 10999 10996 ] final  -19.90 input  -57.11 | X-H torsion

> <Gold.Protein.ActiveResidues>
 VAL166  LYS551  ARG553  GLY616  TRP617  ASP618  TYR619  PRO620  LYS621  CYS622 
 ASP623  PHE694  ASN695  SER759  ASP760  ASP761  ALA762  ILE779  LEU786  VAL792 
 PHE793  MET794  SER795  GLU796  ALA797  LYS798  CYS799  TRP800  GLU811  SER814 

> <Gold.Protein.RotatedAtoms>
  152.0417  134.9707  160.0573 H   0  0  0  0  0  0  0  0  0  0  0  0  # atno 6907 bound_to 6896
  152.1144  133.4313  159.4654 H   0  0  0  0  0  0  0  0  0  0  0  0  # atno 6908 bound_to 6896
  150.6845  134.2529  159.4561 H   0  0  0  0  0  0  0  0  0  0  0  0  # atno 6909 bound_to 6896
  145.1245  140.8688  143.3794 H   0  0  0  0  0  0  0  0  0  0  0  0  # atno 7974 bound_to 7965
  156.0435  140.1309  157.0130 H   0  0  0  0  0  0  0  0  0  0  0  0  # atno 8008 bound_to 7997
  154.4402  140.1025  156.6342 H   0  0  0  0  0  0  0  0  0  0  0  0  # atno 8009 bound_to 7997
  155.5631  140.3465  155.4498 H   0  0  0  0  0  0  0  0  0  0  0  0  # atno 8010 bound_to 7997
  139.5107  144.3266  152.0151 H   0  0  0  0  0  0  0  0  0  0  0  0  # atno 10167 bound_to 10162
  156.5515  130.8607  151.2781 H   0  0  0  0  0  0  0  0  0  0  0  0  # atno 10718 bound_to 10713
  154.5391  135.5694  153.6823 H   0  0  0  0  0  0  0  0  0  0  0  0  # atno 10763 bound_to 10752
  152.9958  135.6223  154.2527 H   0  0  0  0  0  0  0  0  0  0  0  0  # atno 10764 bound_to 10752
  154.2457  135.2861  155.2816 H   0  0  0  0  0  0  0  0  0  0  0  0  # atno 10765 bound_to 10752
  140.8412  133.7925  155.9862 H   0  0  0  0  0  0  0  0  0  0  0  0  # atno 11005 bound_to 11000
  145.0704  139.3036  143.5835 LP  0  0  0  0  0  0  0  0  0  0  0  0  # atno 17320 bound_to 7965
  146.3518  140.0176  142.8661 LP  0  0  0  0  0  0  0  0  0  0  0  0  # atno 17321 bound_to 7965
  140.2707  144.3967  150.6152 LP  0  0  0  0  0  0  0  0  0  0  0  0  # atno 17342 bound_to 10162
  140.6090  143.2169  151.6923 LP  0  0  0  0  0  0  0  0  0  0  0  0  # atno 17343 bound_to 10162
  157.7386  130.9817  150.2265 LP  0  0  0  0  0  0  0  0  0  0  0  0  # atno 17370 bound_to 10713
  156.2880  130.3742  149.7869 LP  0  0  0  0  0  0  0  0  0  0  0  0  # atno 17371 bound_to 10713
  140.8893  134.2515  157.5103 LP  0  0  0  0  0  0  0  0  0  0  0  0  # atno 17394 bound_to 11000
  139.8703  134.9654  156.4526 LP  0  0  0  0  0  0  0  0  0  0  0  0  # atno 17395 bound_to 11000

$$$$
