AV-unprocessed.smi:2315|AV-procd|sdf|9268|dock2
  -GOLD-   2272012493D 1   1.00000     0.00000
 Structure written by MMmdl.
 40 41  0  0  0  0  0  0  0  0  1 V2000
  144.3893  136.6060  152.6225 O   0  0  0  0  0  0  0  0  0  0  0  0
  145.6100  136.4624  152.5559 C   0  0  0  0  0  0  0  0  0  0  0  0
  146.4849  137.3499  153.0507 N   0  0  0  0  0  0  0  0  0  0  0  0
  146.1280  138.5991  153.7143 C   0  0  0  0  0  0  0  0  0  0  0  0
  147.1202  138.9456  154.8437 C   0  0  0  0  0  0  0  0  0  0  0  0
  148.5099  138.3075  154.6693 C   0  0  0  0  0  0  0  0  0  0  0  0
  148.6122  137.0804  154.7125 O   0  0  0  0  0  0  0  0  0  0  0  0
  149.5817  139.1135  154.4690 N   0  0  0  0  0  0  0  0  0  0  0  0
  150.9754  138.6653  154.3387 C   0  0  0  0  0  0  0  0  0  0  0  0
  151.7510  139.0834  155.6013 C   0  0  0  0  0  0  0  0  0  0  0  0
  151.6536  140.6044  155.8265 C   0  0  0  0  0  0  0  0  0  0  0  0
  150.1950  141.0959  155.7677 C   0  0  0  0  0  0  0  0  0  0  0  0
  149.4881  140.5794  154.5005 C   0  0  0  0  0  0  0  0  0  0  0  0
  146.2438  135.4113  152.0076 N   0  0  0  0  0  0  0  0  0  0  0  0
  145.6922  134.2653  151.3711 C   0  0  0  0  0  0  0  0  0  0  0  0
  144.4575  134.2539  150.6776 C   0  0  0  0  0  0  0  0  0  0  0  0
  144.0331  133.0529  150.0737 C   0  0  0  0  0  0  0  0  0  0  0  0
  144.7453  131.9071  150.1144 N   0  0  0  0  0  0  0  0  0  0  0  0
  145.9272  131.9244  150.7657 C   0  0  0  0  0  0  0  0  0  0  0  0
  146.4437  133.0711  151.4019 C   0  0  0  0  0  0  0  0  0  0  0  0
  147.6411  133.0203  152.0344 F   0  0  0  0  0  0  0  0  0  0  0  0
  147.4703  137.1508  152.9576 H   0  0  0  0  0  0  0  0  0  0  0  0
  146.1285  139.3850  152.9580 H   0  0  0  0  0  0  0  0  0  0  0  0
  145.1084  138.5364  154.0993 H   0  0  0  0  0  0  0  0  0  0  0  0
  147.2397  140.0286  154.8953 H   0  0  0  0  0  0  0  0  0  0  0  0
  146.7049  138.6180  155.7976 H   0  0  0  0  0  0  0  0  0  0  0  0
  151.0805  137.5939  154.1764 H   0  0  0  0  0  0  0  0  0  0  0  0
  151.4196  139.1334  153.4589 H   0  0  0  0  0  0  0  0  0  0  0  0
  151.3475  138.5574  156.4677 H   0  0  0  0  0  0  0  0  0  0  0  0
  152.7963  138.7856  155.5166 H   0  0  0  0  0  0  0  0  0  0  0  0
  152.1052  140.8746  156.7814 H   0  0  0  0  0  0  0  0  0  0  0  0
  152.2322  141.1158  155.0562 H   0  0  0  0  0  0  0  0  0  0  0  0
  149.6566  140.7482  156.6505 H   0  0  0  0  0  0  0  0  0  0  0  0
  150.1673  142.1855  155.7969 H   0  0  0  0  0  0  0  0  0  0  0  0
  149.9648  140.9912  153.6100 H   0  0  0  0  0  0  0  0  0  0  0  0
  148.4591  140.9402  154.4781 H   0  0  0  0  0  0  0  0  0  0  0  0
  147.2492  135.4053  152.0992 H   0  0  0  0  0  0  0  0  0  0  0  0
  143.8382  135.1322  150.5847 H   0  0  0  0  0  0  0  0  0  0  0  0
  143.0965  133.0142  149.5375 H   0  0  0  0  0  0  0  0  0  0  0  0
  146.4799  130.9968  150.7783 H   0  0  0  0  0  0  0  0  0  0  0  0
  1  2  2  0  0  0  0
  2  3  1  0  0  0  0
  2 14  1  0  0  0  0
  3  4  1  0  0  0  0
  3 22  1  0  0  0  0
  4  5  1  0  0  0  0
  4 23  1  0  0  0  0
  4 24  1  0  0  0  0
  5  6  1  0  0  0  0
  5 25  1  0  0  0  0
  5 26  1  0  0  0  0
  6  7  2  0  0  0  0
  6  8  1  0  0  0  0
  8 13  1  0  0  0  0
  8  9  1  0  0  0  0
  9 10  1  0  0  0  0
  9 27  1  0  0  0  0
  9 28  1  0  0  0  0
 10 11  1  0  0  0  0
 10 29  1  0  0  0  0
 10 30  1  0  0  0  0
 11 12  1  0  0  0  0
 11 31  1  0  0  0  0
 11 32  1  0  0  0  0
 12 13  1  0  0  0  0
 12 33  1  0  0  0  0
 12 34  1  0  0  0  0
 13 35  1  0  0  0  0
 13 36  1  0  0  0  0
 14 15  1  0  0  0  0
 14 37  1  0  0  0  0
 15 20  1  0  0  0  0
 15 16  2  0  0  0  0
 16 17  1  0  0  0  0
 16 38  1  0  0  0  0
 17 18  2  0  0  0  0
 17 39  1  0  0  0  0
 18 19  1  0  0  0  0
 19 20  2  0  0  0  0
 19 40  1  0  0  0  0
 20 21  1  0  0  0  0
M  END
> <s_m_source_file>
AV-unprocessed.smi

> <i_m_source_file_index>
2315

> <i_lp_mmshare_version>
43012

> <i_f3d_flags>
0

> <s_epik_input>
RmMxW2NIXW5bY0hdW2NIXWMxW05IXUMoPU8pW05IXVtDSDJdW0NIMl1DKD1PKU4yW0NIMl1bQ0gyXVtDSDJdW0NIMl1bQ0gyXTI=

> <s_epik_cmdline>
J2VwaWtfcHl0aG9uJywgJy1waCcsICc3LjAnLCAnLXRuJywgJzgnLCAnLW1hJywgJzIwMCcsICctbWV0YWxfYmluZGluZycsICctaW1hZScsICc8aW5maWxlLm1hZT4nLCAnLW9tYWUnLCAnPG91dGZpbGUubWFlPic=

> <r_epik_Ionization_Penalty>
0.00291221

> <r_epik_Ionization_Penalty_Charging>
0

> <r_epik_Ionization_Penalty_Neutral>
0.00291221

> <r_epik_State_Penalty>
0.0020173

> <r_epik_Charging_Adjusted_Penalty>
0.0020173

> <i_epik_Tot_Q>
0

> <i_epik_Tot_abs_Q>
0

> <r_epik_Metal_State_Penalty>
-0

> <b_epik_Metal_Only>
0

> <s_lp_Force_Field>
OPLS_2005

> <r_lp_Energy>
31.5376

> <b_lp_Chiralities_Consistent>
1

> <s_lp_Variant>
AV-unprocessed.smi:2315-1

> <Gold.Version>
5.8.1

> <Gold.Id.Protein>
6NUR|6NUR_protein|mol2

> <Gold.PLP.Fitness>
46.0440

> <Gold.PLP.PLP>
-35.8752

> <Gold.PLP.part.hbond>
-2.0000

> <Gold.PLP.part.metal>
0.0000

> <Gold.PLP.part.buried>
-4.1879

> <Gold.PLP.part.nonpolar>
-30.6608

> <Gold.PLP.part.repulsive>
1.4264

> <Gold.PLP.ligand.clash>
0.0000

> <Gold.PLP.ligand.torsion>
0.6186

> <Gold.PLP.Chemscore.Hbond>
1.9199

> <Gold.PLP.Chemscore.CHOScore>
1.8711

> <Gold.PLP.Chemscore.Metal>
0.0000

> <Gold.Chemscore.Hbonds>
donor molecule, donor type, donor heavy atom, donor atom, acceptor molecule, acceptor atom, score
      L1  H     3    22       P1  7948  0.89
      L1  H    14    37       P1  7948  1.00
      L1  C    17    39       P1 10186  1.00
      L1  C    19    40       P1 10747  0.84

> <Gold.PLP.Chemscore.Internal.Correction>
0.0331

> <Gold.Rescore>
     Score         DG    S(hbond)    S(metal)    S(lipo)     H(rot)  DE(clash)    DE(int)     intcor
     14.89     -17.23       1.92        0.00      80.03       1.57       0.21       2.14       ----

> <Gold.Chemscore.Fitness>
14.8895

> <Gold.Chemscore.DG>
-17.2326

> <Gold.Chemscore.ZeroCoef>
-5.4800

> <Gold.Chemscore.Hbond>
1.9210

> <Gold.Chemscore.Metal>
0.0000

> <Gold.Chemscore.Lipo>
80.0316

> <Gold.Chemscore.Internal_Hbond>
0.0000

> <Gold.Chemscore.DEClash>
0.2055

> <Gold.Chemscore.DEInternal>
2.1377

> <Gold.Chemscore.Rot>
1.5731

> <Gold.Chemscore.Internal.Correction>
   9.000000E+99

> <Gold.Chemscore.Hbonds>
donor molecule, donor type, donor heavy atom, donor atom, acceptor molecule, acceptor atom, score
      L1  H     3    22       P1  7948  0.82
      L1  H    14    37       P1  7948  0.95

> <Gold.Chemscore.Hbond.Weighted>
-6.4160

> <Gold.Chemscore.Metal.Weighted>
-0.0000

> <Gold.Chemscore.Lipo.Weighted>
-9.3637

> <Gold.Chemscore.Internal_Hbond.Weighted>
0.0000

> <Gold.Chemscore.DEClash.Weighted>
0.2055

> <Gold.Chemscore.DEInternal.Weighted>
2.1377

> <Gold.Chemscore.Rot.Weighted>
4.0271

> <Gold.Chemscore.Internal.Correction.Weighted>
   9.000000E+99

> <Gold.Protein.RotatedTorsions>
[ 6907 6896 6895 6894 ] final   -3.45 input  -60.11 | X-H torsion
[ 7974 7965 7964 7962 ] final  100.66 input  175.53 | X-H torsion
[ 8008 7997 7996 7995 ] final    4.18 input   59.86 | X-H torsion
[ 10167 10162 10161 10158 ] final -165.78 input  -65.29 | X-H torsion
[ 10718 10713 10712 10709 ] final  173.33 input   66.30 | X-H torsion
[ 10763 10752 10751 10750 ] final -146.00 input  -60.55 | X-H torsion
[ 11005 11000 10999 10996 ] final  115.98 input  -57.11 | X-H torsion

> <Gold.Protein.ActiveResidues>
 VAL166  LYS551  ARG553  GLY616  TRP617  ASP618  TYR619  PRO620  LYS621  CYS622 
 ASP623  PHE694  ASN695  SER759  ASP760  ASP761  ALA762  ILE779  LEU786  VAL792 
 PHE793  MET794  SER795  GLU796  ALA797  LYS798  CYS799  TRP800  GLU811  SER814 

> <Gold.Protein.RotatedAtoms>
  151.5136  135.1065  159.9859 H   0  0  0  0  0  0  0  0  0  0  0  0  # atno 6907 bound_to 6896
  152.4651  133.7901  159.6908 H   0  0  0  0  0  0  0  0  0  0  0  0  # atno 6908 bound_to 6896
  150.8631  133.7551  159.3011 H   0  0  0  0  0  0  0  0  0  0  0  0  # atno 6909 bound_to 6896
  145.3826  139.2377  143.3395 H   0  0  0  0  0  0  0  0  0  0  0  0  # atno 7974 bound_to 7965
  154.7127  140.2696  155.6614 H   0  0  0  0  0  0  0  0  0  0  0  0  # atno 8008 bound_to 7997
  156.2800  140.2750  156.1698 H   0  0  0  0  0  0  0  0  0  0  0  0  # atno 8009 bound_to 7997
  155.0613  140.0371  157.2567 H   0  0  0  0  0  0  0  0  0  0  0  0  # atno 8010 bound_to 7997
  139.6159  144.0721  152.1887 H   0  0  0  0  0  0  0  0  0  0  0  0  # atno 10167 bound_to 10162
  156.9659  131.0075  151.2916 H   0  0  0  0  0  0  0  0  0  0  0  0  # atno 10718 bound_to 10713
  154.8357  135.3398  154.6593 H   0  0  0  0  0  0  0  0  0  0  0  0  # atno 10763 bound_to 10752
  153.7208  135.6958  153.5018 H   0  0  0  0  0  0  0  0  0  0  0  0  # atno 10764 bound_to 10752
  153.2383  135.4393  155.0623 H   0  0  0  0  0  0  0  0  0  0  0  0  # atno 10765 bound_to 10752
  139.9027  134.9591  156.7128 H   0  0  0  0  0  0  0  0  0  0  0  0  # atno 11005 bound_to 11000
  146.2835  140.4496  142.8767 LP  0  0  0  0  0  0  0  0  0  0  0  0  # atno 17320 bound_to 7965
  144.8497  140.6982  143.6176 LP  0  0  0  0  0  0  0  0  0  0  0  0  # atno 17321 bound_to 7965
  140.0351  144.6051  150.7456 LP  0  0  0  0  0  0  0  0  0  0  0  0  # atno 17342 bound_to 10162
  140.7350  143.2736  151.3812 LP  0  0  0  0  0  0  0  0  0  0  0  0  # atno 17343 bound_to 10162
  157.5626  130.8256  149.8285 LP  0  0  0  0  0  0  0  0  0  0  0  0  # atno 17370 bound_to 10713
  156.0303  130.3767  150.1707 LP  0  0  0  0  0  0  0  0  0  0  0  0  # atno 17371 bound_to 10713
  140.7062  133.9263  155.8055 LP  0  0  0  0  0  0  0  0  0  0  0  0  # atno 17394 bound_to 11000
  141.0334  134.0723  157.3987 LP  0  0  0  0  0  0  0  0  0  0  0  0  # atno 17395 bound_to 11000

$$$$
