AV-unprocessed.smi:1354|AV-procd|sdf|5535|dock5
  -GOLD-   22720 5123D 1   1.00000     0.00000
 Structure written by MMmdl.
 40 42  0  0  0  0  0  0  0  0  2 V2000
  153.7578  137.9716  155.8245 O   0  0  0  0  0  0  0  0  0  0  0  0
  152.3734  137.6996  155.8082 C   0  0  0  0  0  0  0  0  0  0  0  0
  151.8316  137.8519  154.3803 C   0  0  0  0  0  0  0  0  0  0  0  0
  150.6659  138.7859  154.3321 C   0  0  0  0  0  0  0  0  0  0  0  0
  149.5223  138.5983  153.6145 N   0  3  0  0  0  0  0  0  0  0  0  0
  148.6534  139.6705  153.8206 C   0  0  0  0  0  0  0  0  0  0  0  0
  147.3869  139.9284  153.3051 C   0  0  0  0  0  0  0  0  0  0  0  0
  146.7678  141.1267  153.7172 C   0  0  0  0  0  0  0  0  0  0  0  0
  147.4050  142.0127  154.6096 C   0  0  0  0  0  0  0  0  0  0  0  0
  148.6875  141.7386  155.1281 C   0  0  0  0  0  0  0  0  0  0  0  0
  149.2948  140.5532  154.7135 C   0  0  0  0  0  0  0  0  0  0  0  0
  150.5328  139.9666  155.0030 N   0  0  0  0  0  0  0  0  0  0  0  0
  151.4645  140.6499  155.9135 C   0  0  0  0  0  0  0  0  0  0  0  0
  150.8390  140.9254  157.2887 C   0  0  0  0  0  0  0  0  0  0  0  0
  151.8660  141.2021  158.2316 O   0  0  0  0  0  0  0  0  0  0  0  0
  151.9429  142.4691  158.7706 C   0  0  0  0  0  0  0  0  0  0  0  0
  151.3754  143.6204  158.1669 C   0  0  0  0  0  0  0  0  0  0  0  0
  151.4981  144.8825  158.7794 C   0  0  0  0  0  0  0  0  0  0  0  0
  152.1870  145.0122  159.9989 C   0  0  0  0  0  0  0  0  0  0  0  0
  152.7531  143.8770  160.6063 C   0  0  0  0  0  0  0  0  0  0  0  0
  152.6314  142.6130  159.9964 C   0  0  0  0  0  0  0  0  0  0  0  0
  153.3324  141.2351  160.7672 Cl  0  0  0  0  0  0  0  0  0  0  0  0
  154.1420  137.6292  155.0315 H   0  0  0  0  0  0  0  0  0  0  0  0
  152.2054  136.6880  156.1793 H   0  0  0  0  0  0  0  0  0  0  0  0
  151.8700  138.3857  156.4900 H   0  0  0  0  0  0  0  0  0  0  0  0
  152.6126  138.2217  153.7152 H   0  0  0  0  0  0  0  0  0  0  0  0
  151.5233  136.8813  153.9897 H   0  0  0  0  0  0  0  0  0  0  0  0
  146.8971  139.2514  152.6206 H   0  0  0  0  0  0  0  0  0  0  0  0
  145.7852  141.3717  153.3407 H   0  0  0  0  0  0  0  0  0  0  0  0
  146.9020  142.9239  154.8998 H   0  0  0  0  0  0  0  0  0  0  0  0
  149.1690  142.4298  155.8036 H   0  0  0  0  0  0  0  0  0  0  0  0
  152.3744  140.0572  156.0077 H   0  0  0  0  0  0  0  0  0  0  0  0
  151.7597  141.5891  155.4453 H   0  0  0  0  0  0  0  0  0  0  0  0
  150.1585  141.7744  157.2129 H   0  0  0  0  0  0  0  0  0  0  0  0
  150.2611  140.0560  157.6065 H   0  0  0  0  0  0  0  0  0  0  0  0
  150.8410  143.5631  157.2310 H   0  0  0  0  0  0  0  0  0  0  0  0
  151.0626  145.7534  158.3120 H   0  0  0  0  0  0  0  0  0  0  0  0
  152.2812  145.9807  160.4675 H   0  0  0  0  0  0  0  0  0  0  0  0
  153.2817  143.9772  161.5431 H   0  0  0  0  0  0  0  0  0  0  0  0
  149.3528  137.7948  153.0230 H   0  0  0  0  0  0  0  0  0  0  0  0
  1  2  1  0  0  0  0
  1 23  1  0  0  0  0
  2  3  1  0  0  0  0
  2 24  1  0  0  0  0
  2 25  1  0  0  0  0
  3  4  1  0  0  0  0
  3 26  1  0  0  0  0
  3 27  1  0  0  0  0
  4 12  1  0  0  0  0
  4  5  2  0  0  0  0
  5  6  1  0  0  0  0
  5 40  1  0  0  0  0
  6 11  2  0  0  0  0
  6  7  1  0  0  0  0
  7  8  2  0  0  0  0
  7 28  1  0  0  0  0
  8  9  1  0  0  0  0
  8 29  1  0  0  0  0
  9 10  2  0  0  0  0
  9 30  1  0  0  0  0
 10 11  1  0  0  0  0
 10 31  1  0  0  0  0
 11 12  1  0  0  0  0
 12 13  1  0  0  0  0
 13 14  1  0  0  0  0
 13 32  1  0  0  0  0
 13 33  1  0  0  0  0
 14 15  1  0  0  0  0
 14 34  1  0  0  0  0
 14 35  1  0  0  0  0
 15 16  1  0  0  0  0
 16 21  1  0  0  0  0
 16 17  2  0  0  0  0
 17 18  1  0  0  0  0
 17 36  1  0  0  0  0
 18 19  2  0  0  0  0
 18 37  1  0  0  0  0
 19 20  1  0  0  0  0
 19 38  1  0  0  0  0
 20 21  2  0  0  0  0
 20 39  1  0  0  0  0
 21 22  1  0  0  0  0
M  CHG  1   5   1
M  END
> <s_m_source_file>
AV-unprocessed.smi

> <i_m_source_file_index>
1354

> <i_lp_mmshare_version>
43012

> <i_f3d_flags>
0

> <s_epik_input>
W2NIXTFbY0hdW2NIXVtjSF1jKGMxMiluKGMobjIpW0NIMl1bQ0gyXVtPSF0pW0NIMl1bQ0gyXU9jM1tjSF1bY0hdW2NIXVtjSF1jM0Ns

> <s_epik_cmdline>
J2VwaWtfcHl0aG9uJywgJy1waCcsICc3LjAnLCAnLXRuJywgJzgnLCAnLW1hJywgJzIwMCcsICctbWV0YWxfYmluZGluZycsICctaW1hZScsICc8aW5maWxlLm1hZT4nLCAnLW9tYWUnLCAnPG91dGZpbGUubWFlPic=

> <r_lp_tautomer_probability>
1

> <r_epik_Ionization_Penalty>
0.752951

> <r_epik_Ionization_Penalty_Charging>
0.752951

> <r_epik_Ionization_Penalty_Neutral>
5.89567e-08

> <r_epik_State_Penalty>
0.780107

> <r_epik_Charging_Adjusted_Penalty>
1.53306

> <i_epik_Tot_Q>
1

> <i_epik_Tot_abs_Q>
1

> <r_epik_Metal_State_Penalty>
4.68821

> <b_epik_Metal_Only>
0

> <s_lp_Force_Field>
OPLS_2005

> <r_lp_Energy>
19.8379

> <b_lp_Chiralities_Consistent>
1

> <s_lp_Variant>
AV-unprocessed.smi:1354-2

> <Gold.Version>
5.8.1

> <Gold.Id.Protein>
6NUR|6NUR_protein|mol2

> <Gold.PLP.Fitness>
58.7808

> <Gold.PLP.PLP>
-53.5576

> <Gold.PLP.part.hbond>
-3.0000

> <Gold.PLP.part.metal>
0.0000

> <Gold.PLP.part.buried>
-0.3945

> <Gold.PLP.part.nonpolar>
-50.0358

> <Gold.PLP.part.repulsive>
0.0737

> <Gold.PLP.ligand.clash>
0.0000

> <Gold.PLP.ligand.torsion>
1.3622

> <Gold.PLP.Chemscore.Hbond>
2.6240

> <Gold.PLP.Chemscore.CHOScore>
0.0000

> <Gold.PLP.Chemscore.Metal>
0.0000

> <Gold.Chemscore.Hbonds>
donor molecule, donor type, donor heavy atom, donor atom, acceptor molecule, acceptor atom, score
      L1  H     5    40       P1  7948  2.00
      P1  H  7997  8009       L1     1  0.25

> <Gold.PLP.Chemscore.Internal.Correction>
0.0756

> <Gold.Rescore>
     Score         DG    S(hbond)    S(metal)    S(lipo)     H(rot)  DE(clash)    DE(int)     intcor
     18.90     -20.98       1.49        0.00     142.36       2.39       0.80       1.28       ----

> <Gold.Chemscore.Fitness>
18.9023

> <Gold.Chemscore.DG>
-20.9829

> <Gold.Chemscore.ZeroCoef>
-5.4800

> <Gold.Chemscore.Hbond>
1.4903

> <Gold.Chemscore.Metal>
0.0000

> <Gold.Chemscore.Lipo>
142.3597

> <Gold.Chemscore.Internal_Hbond>
0.0000

> <Gold.Chemscore.DEClash>
0.7965

> <Gold.Chemscore.DEInternal>
1.2841

> <Gold.Chemscore.Rot>
2.3948

> <Gold.Chemscore.Internal.Correction>
   9.000000E+99

> <Gold.Chemscore.Hbonds>
donor molecule, donor type, donor heavy atom, donor atom, acceptor molecule, acceptor atom, score
      L1  H     5    40       P1  7948  0.93
      P1  H  7997  8009       L1     1  0.20

> <Gold.Chemscore.Hbond.Weighted>
-4.9776

> <Gold.Chemscore.Metal.Weighted>
-0.0000

> <Gold.Chemscore.Lipo.Weighted>
-16.6561

> <Gold.Chemscore.Internal_Hbond.Weighted>
0.0000

> <Gold.Chemscore.DEClash.Weighted>
0.7965

> <Gold.Chemscore.DEInternal.Weighted>
1.2841

> <Gold.Chemscore.Rot.Weighted>
6.1308

> <Gold.Chemscore.Internal.Correction.Weighted>
   9.000000E+99

> <Gold.Protein.RotatedTorsions>
[ 6907 6896 6895 6894 ] final -125.24 input  -60.11 | X-H torsion
[ 7974 7965 7964 7962 ] final  160.18 input  175.53 | X-H torsion
[ 8008 7997 7996 7995 ] final -156.02 input   59.86 | X-H torsion
[ 10167 10162 10161 10158 ] final -115.12 input  -65.29 | X-H torsion
[ 10718 10713 10712 10709 ] final -152.77 input   66.30 | X-H torsion
[ 10763 10752 10751 10750 ] final -169.77 input  -60.55 | X-H torsion
[ 11005 11000 10999 10996 ] final    7.08 input  -57.11 | X-H torsion

> <Gold.Protein.ActiveResidues>
 VAL166  LYS551  ARG553  GLY616  TRP617  ASP618  TYR619  PRO620  LYS621  CYS622 
 ASP623  PHE694  ASN695  SER759  ASP760  ASP761  ALA762  ILE779  LEU786  VAL792 
 PHE793  MET794  SER795  GLU796  ALA797  LYS798  CYS799  TRP800  GLU811  SER814 

> <Gold.Protein.RotatedAtoms>
  150.8848  133.7323  159.2921 H   0  0  0  0  0  0  0  0  0  0  0  0  # atno 6907 bound_to 6896
  151.4893  135.1055  159.9808 H   0  0  0  0  0  0  0  0  0  0  0  0  # atno 6908 bound_to 6896
  152.4783  133.8145  159.7076 H   0  0  0  0  0  0  0  0  0  0  0  0  # atno 6909 bound_to 6896
  144.7750  139.7721  143.6282 H   0  0  0  0  0  0  0  0  0  0  0  0  # atno 7974 bound_to 7965
  155.7108  140.0778  157.2372 H   0  0  0  0  0  0  0  0  0  0  0  0  # atno 8008 bound_to 7997
  154.4059  140.1630  156.2347 H   0  0  0  0  0  0  0  0  0  0  0  0  # atno 8009 bound_to 7997
  155.9284  140.3393  155.6232 H   0  0  0  0  0  0  0  0  0  0  0  0  # atno 8010 bound_to 7997
  140.0935  143.4678  152.1855 H   0  0  0  0  0  0  0  0  0  0  0  0  # atno 10167 bound_to 10162
  156.4770  130.8285  151.2513 H   0  0  0  0  0  0  0  0  0  0  0  0  # atno 10718 bound_to 10713
  154.6487  135.2908  155.0013 H   0  0  0  0  0  0  0  0  0  0  0  0  # atno 10763 bound_to 10752
  154.1114  135.6562  153.4889 H   0  0  0  0  0  0  0  0  0  0  0  0  # atno 10764 bound_to 10752
  153.0365  135.5266  154.7386 H   0  0  0  0  0  0  0  0  0  0  0  0  # atno 10765 bound_to 10752
  140.5522  134.0272  155.7941 H   0  0  0  0  0  0  0  0  0  0  0  0  # atno 11005 bound_to 11000
  146.1924  139.5171  142.9796 LP  0  0  0  0  0  0  0  0  0  0  0  0  # atno 17320 bound_to 7965
  145.6211  141.0322  143.1914 LP  0  0  0  0  0  0  0  0  0  0  0  0  # atno 17321 bound_to 7965
  139.5711  144.7463  151.3888 LP  0  0  0  0  0  0  0  0  0  0  0  0  # atno 17342 bound_to 10162
  140.7016  143.7618  150.7412 LP  0  0  0  0  0  0  0  0  0  0  0  0  # atno 17343 bound_to 10162
  157.7486  131.0057  150.3126 LP  0  0  0  0  0  0  0  0  0  0  0  0  # atno 17370 bound_to 10713
  156.3561  130.3839  149.7289 LP  0  0  0  0  0  0  0  0  0  0  0  0  # atno 17371 bound_to 10713
  141.1165  133.9532  157.2813 LP  0  0  0  0  0  0  0  0  0  0  0  0  # atno 17394 bound_to 11000
  139.9449  135.0185  156.8823 LP  0  0  0  0  0  0  0  0  0  0  0  0  # atno 17395 bound_to 11000

$$$$
