AV-unprocessed.smi:3025|AV-procd|sdf|11511|dock7
  -GOLD-   2272016453D 1   1.00000     0.00000
 Structure written by MMmdl.
 41 42  0  0  0  0  0  0  0  0  3 V2000
  153.1107  143.6413  162.0069 C   0  0  0  0  0  0  0  0  0  0  0  0
  153.6819  142.2260  161.8654 C   0  0  0  0  0  0  0  0  0  0  0  0
  153.8417  141.8008  160.3958 C   0  0  0  0  0  0  0  0  0  0  0  0
  152.5255  141.7993  159.5911 C   0  0  2  0  0  0  0  0  0  0  0  0
  152.5137  140.7346  158.4731 C   0  0  0  0  0  0  0  0  0  0  0  0
  151.2065  140.7653  157.6644 C   0  0  0  0  0  0  0  0  0  0  0  0
  150.9395  142.1623  157.0680 C   0  0  1  0  0  0  0  0  0  0  0  0
  149.6526  142.2071  156.3386 N   0  3  0  0  0  0  0  0  0  0  0  0
  149.5703  141.3313  155.1521 C   0  0  0  0  0  0  0  0  0  0  0  0
  149.2022  139.8992  155.5534 C   0  0  0  0  0  0  0  0  0  0  0  0
  150.3541  138.9463  155.3321 C   0  0  0  0  0  0  0  0  0  0  0  0
  150.3086  137.6094  155.4994 N   0  5  0  0  0  0  0  0  0  0  0  0
  151.4713  137.0742  155.1816 N   0  0  0  0  0  0  0  0  0  0  0  0
  152.2208  138.1174  154.8060 C   0  0  0  0  0  0  0  0  0  0  0  0
  151.5600  139.2780  154.8798 N   0  0  0  0  0  0  0  0  0  0  0  0
  150.9428  143.2203  158.1856 C   0  0  0  0  0  0  0  0  0  0  0  0
  152.2537  143.1918  158.9873 C   0  0  0  0  0  0  0  0  0  0  0  0
  153.0032  143.9133  163.0572 H   0  0  0  0  0  0  0  0  0  0  0  0
  152.1274  143.7182  161.5416 H   0  0  0  0  0  0  0  0  0  0  0  0
  153.7633  144.3783  161.5377 H   0  0  0  0  0  0  0  0  0  0  0  0
  154.6431  142.1854  162.3770 H   0  0  0  0  0  0  0  0  0  0  0  0
  153.0261  141.5237  162.3812 H   0  0  0  0  0  0  0  0  0  0  0  0
  154.5433  142.4865  159.9187 H   0  0  0  0  0  0  0  0  0  0  0  0
  154.3055  140.8147  160.3463 H   0  0  0  0  0  0  0  0  0  0  0  0
  151.7113  141.5761  160.2826 H   0  0  0  0  0  0  0  0  0  0  0  0
  153.3591  140.8949  157.8023 H   0  0  0  0  0  0  0  0  0  0  0  0
  152.6403  139.7376  158.8942 H   0  0  0  0  0  0  0  0  0  0  0  0
  151.2644  140.0151  156.8759 H   0  0  0  0  0  0  0  0  0  0  0  0
  150.3755  140.4729  158.3080 H   0  0  0  0  0  0  0  0  0  0  0  0
  151.7377  142.4105  156.3665 H   0  0  0  0  0  0  0  0  0  0  0  0
  148.9049  141.9730  156.9758 H   0  0  0  0  0  0  0  0  0  0  0  0
  148.8223  141.7254  154.4629 H   0  0  0  0  0  0  0  0  0  0  0  0
  150.5248  141.3263  154.6256 H   0  0  0  0  0  0  0  0  0  0  0  0
  148.9131  139.8618  156.6044 H   0  0  0  0  0  0  0  0  0  0  0  0
  148.3449  139.5509  154.9760 H   0  0  0  0  0  0  0  0  0  0  0  0
  153.2482  138.0299  154.4745 H   0  0  0  0  0  0  0  0  0  0  0  0
  150.7994  144.2142  157.7596 H   0  0  0  0  0  0  0  0  0  0  0  0
  150.1030  143.0505  158.8611 H   0  0  0  0  0  0  0  0  0  0  0  0
  152.2076  143.9396  159.7801 H   0  0  0  0  0  0  0  0  0  0  0  0
  153.0826  143.4816  158.3399 H   0  0  0  0  0  0  0  0  0  0  0  0
  149.5150  143.1547  156.0176 H   0  0  0  0  0  0  0  0  0  0  0  0
  1  2  1  0  0  0  0
  1 18  1  0  0  0  0
  1 19  1  0  0  0  0
  1 20  1  0  0  0  0
  2  3  1  0  0  0  0
  2 21  1  0  0  0  0
  2 22  1  0  0  0  0
  3  4  1  0  0  0  0
  3 23  1  0  0  0  0
  3 24  1  0  0  0  0
  4 17  1  0  0  0  0
  4  5  1  0  0  0  0
  4 25  1  0  0  0  0
  5  6  1  0  0  0  0
  5 26  1  0  0  0  0
  5 27  1  0  0  0  0
  6  7  1  0  0  0  0
  6 28  1  0  0  0  0
  6 29  1  0  0  0  0
  7  8  1  0  0  0  0
  7 16  1  0  0  0  0
  7 30  1  0  0  0  0
  8  9  1  0  0  0  0
  8 31  1  0  0  0  0
  8 41  1  0  0  0  0
  9 10  1  0  0  0  0
  9 32  1  0  0  0  0
  9 33  1  0  0  0  0
 10 34  1  0  0  0  0
 10 35  1  0  0  0  0
 10 11  1  0  0  0  0
 11 15  2  0  0  0  0
 11 12  1  0  0  0  0
 12 13  1  0  0  0  0
 13 14  2  0  0  0  0
 14 15  1  0  0  0  0
 14 36  1  0  0  0  0
 16 17  1  0  0  0  0
 16 37  1  0  0  0  0
 16 38  1  0  0  0  0
 17 39  1  0  0  0  0
 17 40  1  0  0  0  0
M  CHG  1   8   1
M  CHG  1  12  -1
M  END
> <s_m_source_file>
AV-unprocessed.smi

> <i_m_source_file_index>
3025

> <i_lp_mmshare_version>
43012

> <i_f3d_flags>
0

> <s_epik_input>
W0NIM11bQ0gyXVtDSDJdW0NAQEhdMVtDSDJdW0NIMl1bQ0BIXShbQ0gyXVtDSDJdMSlbTkhdW0NIMl1bQ0gyXWMybm5bY0hdW25IXTI=

> <s_epik_cmdline>
J2VwaWtfcHl0aG9uJywgJy1waCcsICc3LjAnLCAnLXRuJywgJzgnLCAnLW1hJywgJzIwMCcsICctbWV0YWxfYmluZGluZycsICctaW1hZScsICc8aW5maWxlLm1hZT4nLCAnLW9tYWUnLCAnPG91dGZpbGUubWFlPic=

> <r_lp_tautomer_probability>
0.948284

> <r_epik_Ionization_Penalty>
6.65342

> <r_epik_Ionization_Penalty_Charging>
6.65342

> <r_epik_Ionization_Penalty_Neutral>
1.40767e-13

> <r_epik_State_Penalty>
2.88894

> <r_epik_Charging_Adjusted_Penalty>
9.54236

> <i_epik_Tot_Q>
0

> <i_epik_Tot_abs_Q>
2

> <r_epik_Metal_State_Penalty>
0.664188

> <b_epik_Metal_Only>
1

> <s_lp_Force_Field>
OPLS_2005

> <r_lp_Energy>
6.5819

> <b_lp_Chiralities_Consistent>
1

> <s_lp_Variant>
AV-unprocessed.smi:3025-7

> <Gold.Version>
5.8.1

> <Gold.Id.Protein>
6NUR|6NUR_protein|mol2

> <Gold.PLP.Fitness>
51.2850

> <Gold.PLP.PLP>
-41.2205

> <Gold.PLP.part.hbond>
-3.0000

> <Gold.PLP.part.metal>
0.0000

> <Gold.PLP.part.buried>
-5.3772

> <Gold.PLP.part.nonpolar>
-32.5235

> <Gold.PLP.part.repulsive>
0.3669

> <Gold.PLP.ligand.clash>
0.0000

> <Gold.PLP.ligand.torsion>
0.8608

> <Gold.PLP.Chemscore.Hbond>
3.9040

> <Gold.PLP.Chemscore.CHOScore>
0.0000

> <Gold.PLP.Chemscore.Metal>
0.0000

> <Gold.Chemscore.Hbonds>
donor molecule, donor type, donor heavy atom, donor atom, acceptor molecule, acceptor atom, score
      L1  H     8    41       P1  8028  2.00
      P1  H  7989  7998       L1    15  0.83
      P1  H 10752 10764       L1    13  0.47

> <Gold.PLP.Chemscore.Internal.Correction>
0.0741

> <Gold.Rescore>
     Score         DG    S(hbond)    S(metal)    S(lipo)     H(rot)  DE(clash)    DE(int)     intcor
     15.86     -17.10       1.93        0.00      98.97       2.50       0.21       1.04       ----

> <Gold.Chemscore.Fitness>
15.8564

> <Gold.Chemscore.DG>
-17.0992

> <Gold.Chemscore.ZeroCoef>
-5.4800

> <Gold.Chemscore.Hbond>
1.9295

> <Gold.Chemscore.Metal>
0.0000

> <Gold.Chemscore.Lipo>
98.9713

> <Gold.Chemscore.Internal_Hbond>
0.0000

> <Gold.Chemscore.DEClash>
0.2052

> <Gold.Chemscore.DEInternal>
1.0376

> <Gold.Chemscore.Rot>
2.5019

> <Gold.Chemscore.Internal.Correction>
   9.000000E+99

> <Gold.Chemscore.Hbonds>
donor molecule, donor type, donor heavy atom, donor atom, acceptor molecule, acceptor atom, score
      L1  H     8    41       P1  8028  1.00
      P1  H  7989  7998       L1    15  0.75
      P1  H 10752 10764       L1    13  0.05

> <Gold.Chemscore.Hbond.Weighted>
-6.4445

> <Gold.Chemscore.Metal.Weighted>
-0.0000

> <Gold.Chemscore.Lipo.Weighted>
-11.5796

> <Gold.Chemscore.Internal_Hbond.Weighted>
0.0000

> <Gold.Chemscore.DEClash.Weighted>
0.2052

> <Gold.Chemscore.DEInternal.Weighted>
1.0376

> <Gold.Chemscore.Rot.Weighted>
6.4049

> <Gold.Chemscore.Internal.Correction.Weighted>
   9.000000E+99

> <Gold.Protein.RotatedTorsions>
[ 6907 6896 6895 6894 ] final   63.91 input  -60.11 | X-H torsion
[ 7974 7965 7964 7962 ] final  128.84 input  175.53 | X-H torsion
[ 8008 7997 7996 7995 ] final   28.58 input   59.86 | X-H torsion
[ 10167 10162 10161 10158 ] final  159.63 input  -65.29 | X-H torsion
[ 10718 10713 10712 10709 ] final  -72.10 input   66.30 | X-H torsion
[ 10763 10752 10751 10750 ] final  -60.42 input  -60.55 | X-H torsion
[ 11005 11000 10999 10996 ] final   93.40 input  -57.11 | X-H torsion

> <Gold.Protein.ActiveResidues>
 VAL166  LYS551  ARG553  GLY616  TRP617  ASP618  TYR619  PRO620  LYS621  CYS622 
 ASP623  PHE694  ASN695  SER759  ASP760  ASP761  ALA762  ILE779  LEU786  VAL792 
 PHE793  MET794  SER795  GLU796  ALA797  LYS798  CYS799  TRP800  GLU811  SER814 

> <Gold.Protein.RotatedAtoms>
  152.4291  134.5813  159.9948 H   0  0  0  0  0  0  0  0  0  0  0  0  # atno 6907 bound_to 6896
  151.5941  133.3357  159.3042 H   0  0  0  0  0  0  0  0  0  0  0  0  # atno 6908 bound_to 6896
  150.8182  134.7412  159.6814 H   0  0  0  0  0  0  0  0  0  0  0  0  # atno 6909 bound_to 6896
  145.0351  139.4011  143.5130 H   0  0  0  0  0  0  0  0  0  0  0  0  # atno 7974 bound_to 7965
  155.0609  140.3190  155.4661 H   0  0  0  0  0  0  0  0  0  0  0  0  # atno 8008 bound_to 7997
  156.2813  140.2129  156.5680 H   0  0  0  0  0  0  0  0  0  0  0  0  # atno 8009 bound_to 7997
  154.7133  140.0496  157.0558 H   0  0  0  0  0  0  0  0  0  0  0  0  # atno 8010 bound_to 7997
  139.4834  144.4711  151.8575 H   0  0  0  0  0  0  0  0  0  0  0  0  # atno 10167 bound_to 10162
  156.0334  130.4365  150.2542 H   0  0  0  0  0  0  0  0  0  0  0  0  # atno 10718 bound_to 10713
  154.2690  135.6294  153.5303 H   0  0  0  0  0  0  0  0  0  0  0  0  # atno 10763 bound_to 10752
  152.9883  135.5605  154.5621 H   0  0  0  0  0  0  0  0  0  0  0  0  # atno 10764 bound_to 10752
  154.5187  135.2881  155.1256 H   0  0  0  0  0  0  0  0  0  0  0  0  # atno 10765 bound_to 10752
  139.8810  134.8788  156.3713 H   0  0  0  0  0  0  0  0  0  0  0  0  # atno 11005 bound_to 11000
  146.3503  139.9923  142.8684 LP  0  0  0  0  0  0  0  0  0  0  0  0  # atno 17320 bound_to 7965
  145.1719  140.9725  143.4316 LP  0  0  0  0  0  0  0  0  0  0  0  0  # atno 17321 bound_to 7965
  140.4180  144.2281  150.5887 LP  0  0  0  0  0  0  0  0  0  0  0  0  # atno 17342 bound_to 10162
  140.4902  143.2350  151.8830 LP  0  0  0  0  0  0  0  0  0  0  0  0  # atno 17343 bound_to 10162
  157.0643  131.0099  151.3212 LP  0  0  0  0  0  0  0  0  0  0  0  0  # atno 17370 bound_to 10713
  157.5047  130.7901  149.7641 LP  0  0  0  0  0  0  0  0  0  0  0  0  # atno 17371 bound_to 10713
  140.9462  133.7481  156.0212 LP  0  0  0  0  0  0  0  0  0  0  0  0  # atno 17394 bound_to 11000
  140.8160  134.3344  157.5397 LP  0  0  0  0  0  0  0  0  0  0  0  0  # atno 17395 bound_to 11000

$$$$
