AV-unprocessed.smi:2772|AV-procd|sdf|10673|dock9
  -GOLD-   2272015123D 1   1.00000     0.00000
 Structure written by MMmdl.
 56 58  0  0  0  0  0  0  0  0  4 V2000
  150.9632  142.7580  156.6848 C   0  0  0  0  0  0  0  0  0  0  0  0
  150.3130  141.6816  155.8418 C   0  0  0  0  0  0  0  0  0  0  0  0
  150.9428  140.4481  155.5748 C   0  0  0  0  0  0  0  0  0  0  0  0
  150.2755  139.4926  154.7811 C   0  0  0  0  0  0  0  0  0  0  0  0
  148.9885  139.7772  154.2740 C   0  0  0  0  0  0  0  0  0  0  0  0
  148.3604  138.7873  153.4696 N   0  0  0  0  0  0  0  0  0  0  0  0
  147.0660  138.4243  153.4487 C   0  0  0  0  0  0  0  0  0  0  0  0
  146.1839  138.9000  154.1623 O   0  0  0  0  0  0  0  0  0  0  0  0
  146.8518  137.4514  152.5512 N   0  0  0  0  0  0  0  0  0  0  0  0
  145.5678  136.8115  152.2753 C   0  0  2  0  0  0  0  0  0  0  0  0
  145.2974  135.7095  153.3169 C   0  0  0  0  0  0  0  0  0  0  0  0
  144.0443  134.8907  152.9504 C   0  0  0  0  0  0  0  0  0  0  0  0
  144.1500  134.2936  151.5877 N   0  3  2  0  0  0  0  0  0  0  0  0
  145.1290  133.1589  151.4558 C   0  0  2  0  0  0  0  0  0  0  0  0
  144.6471  132.0799  150.4526 C   0  0  0  0  0  0  0  0  0  0  0  0
  145.6031  130.8774  150.3732 C   0  0  0  0  0  0  0  0  0  0  0  0
  145.8038  130.2644  151.7058 N   0  3  1  0  0  0  0  0  0  0  0  0
  146.6180  129.0312  151.6440 C   0  0  0  0  0  0  0  0  0  0  0  0
  146.3387  131.2476  152.6749 C   0  0  0  0  0  0  0  0  0  0  0  0
  145.4010  132.4596  152.8122 C   0  0  0  0  0  0  0  0  0  0  0  0
  144.3034  135.3909  150.5893 C   0  0  0  0  0  0  0  0  0  0  0  0
  145.5701  136.2290  150.8499 C   0  0  0  0  0  0  0  0  0  0  0  0
  148.4138  141.0392  154.5670 C   0  0  0  0  0  0  0  0  0  0  0  0
  149.0869  141.9278  155.3301 N   0  3  0  0  0  0  0  0  0  0  0  0
  151.9375  142.4346  157.0522 H   0  0  0  0  0  0  0  0  0  0  0  0
  150.3379  142.9969  157.5457 H   0  0  0  0  0  0  0  0  0  0  0  0
  151.1046  143.6663  156.0986 H   0  0  0  0  0  0  0  0  0  0  0  0
  151.9249  140.2337  155.9707 H   0  0  0  0  0  0  0  0  0  0  0  0
  150.7505  138.5452  154.5699 H   0  0  0  0  0  0  0  0  0  0  0  0
  148.9792  138.2569  152.8739 H   0  0  0  0  0  0  0  0  0  0  0  0
  147.6430  137.1254  152.0154 H   0  0  0  0  0  0  0  0  0  0  0  0
  144.7551  137.5376  152.3379 H   0  0  0  0  0  0  0  0  0  0  0  0
  146.1611  135.0491  153.4031 H   0  0  0  0  0  0  0  0  0  0  0  0
  145.1638  136.1604  154.3010 H   0  0  0  0  0  0  0  0  0  0  0  0
  143.8279  134.1455  153.7126 H   0  0  0  0  0  0  0  0  0  0  0  0
  143.1764  135.5518  152.9632 H   0  0  0  0  0  0  0  0  0  0  0  0
  146.0766  133.5537  151.0888 H   0  0  0  0  0  0  0  0  0  0  0  0
  143.6499  131.7347  150.7299 H   0  0  0  0  0  0  0  0  0  0  0  0
  144.5701  132.4872  149.4457 H   0  0  0  0  0  0  0  0  0  0  0  0
  145.1945  130.1335  149.6877 H   0  0  0  0  0  0  0  0  0  0  0  0
  146.5659  131.1890  149.9645 H   0  0  0  0  0  0  0  0  0  0  0  0
  147.6268  129.2438  151.2873 H   0  0  0  0  0  0  0  0  0  0  0  0
  146.1634  128.3029  150.9714 H   0  0  0  0  0  0  0  0  0  0  0  0
  146.6932  128.5695  152.6292 H   0  0  0  0  0  0  0  0  0  0  0  0
  146.4603  130.7707  153.6484 H   0  0  0  0  0  0  0  0  0  0  0  0
  147.3302  131.5739  152.3565 H   0  0  0  0  0  0  0  0  0  0  0  0
  145.8703  133.1423  153.5189 H   0  0  0  0  0  0  0  0  0  0  0  0
  144.4587  132.1417  153.2609 H   0  0  0  0  0  0  0  0  0  0  0  0
  144.2803  135.0244  149.5652 H   0  0  0  0  0  0  0  0  0  0  0  0
  143.4301  136.0409  150.6638 H   0  0  0  0  0  0  0  0  0  0  0  0
  145.6272  137.0399  150.1225 H   0  0  0  0  0  0  0  0  0  0  0  0
  146.4595  135.6183  150.6908 H   0  0  0  0  0  0  0  0  0  0  0  0
  147.4525  141.3830  154.2170 H   0  0  0  0  0  0  0  0  0  0  0  0
  143.2453  133.8843  151.4011 H   0  0  0  0  0  0  0  0  0  0  0  0
  144.8923  129.9868  152.0418 H   0  0  0  0  0  0  0  0  0  0  0  0
  148.6487  142.8279  155.5268 H   0  0  0  0  0  0  0  0  0  0  0  0
  1  2  1  0  0  0  0
  1 25  1  0  0  0  0
  1 26  1  0  0  0  0
  1 27  1  0  0  0  0
  2 24  1  0  0  0  0
  2  3  2  0  0  0  0
  3  4  1  0  0  0  0
  3 28  1  0  0  0  0
  4  5  2  0  0  0  0
  4 29  1  0  0  0  0
  5  6  1  0  0  0  0
  5 23  1  0  0  0  0
  6  7  1  0  0  0  0
  6 30  1  0  0  0  0
  7  8  2  0  0  0  0
  7  9  1  0  0  0  0
  9 10  1  0  0  0  0
  9 31  1  0  0  0  0
 10 22  1  0  0  0  0
 10 11  1  0  0  0  0
 10 32  1  0  0  0  0
 11 12  1  0  0  0  0
 11 33  1  0  0  0  0
 11 34  1  0  0  0  0
 12 13  1  0  0  0  0
 12 35  1  0  0  0  0
 12 36  1  0  0  0  0
 13 14  1  0  0  0  0
 13 21  1  0  0  0  0
 13 54  1  0  0  0  0
 14 20  1  0  0  0  0
 14 15  1  0  0  0  0
 14 37  1  0  0  0  0
 15 16  1  0  0  0  0
 15 38  1  0  0  0  0
 15 39  1  0  0  0  0
 16 17  1  0  0  0  0
 16 40  1  0  0  0  0
 16 41  1  0  0  0  0
 17 18  1  0  0  0  0
 17 19  1  0  0  0  0
 17 55  1  0  0  0  0
 18 42  1  0  0  0  0
 18 43  1  0  0  0  0
 18 44  1  0  0  0  0
 19 20  1  0  0  0  0
 19 45  1  0  0  0  0
 19 46  1  0  0  0  0
 20 47  1  0  0  0  0
 20 48  1  0  0  0  0
 21 22  1  0  0  0  0
 21 49  1  0  0  0  0
 21 50  1  0  0  0  0
 22 51  1  0  0  0  0
 22 52  1  0  0  0  0
 23 24  2  0  0  0  0
 23 53  1  0  0  0  0
 24 56  1  0  0  0  0
M  CHG  1  13   1
M  CHG  1  17   1
M  CHG  1  24   1
M  END
> <s_m_source_file>
AV-unprocessed.smi

> <i_m_source_file_index>
2772

> <i_lp_mmshare_version>
43012

> <i_f3d_flags>
0

> <s_epik_input>
W0NIM11jMVtjSF1bY0hdYyhbY0hdbjEpW05IXUMoPU8pW05IXVtDSF0yW0NIMl1bQ0gyXU4oW0NIMl1bQ0gyXTIpW0NIXTNbQ0gyXVtDSDJdTihbQ0gzXSlbQ0gyXVtDSDJdMw==

> <s_epik_cmdline>
J2VwaWtfcHl0aG9uJywgJy1waCcsICc3LjAnLCAnLXRuJywgJzgnLCAnLW1hJywgJzIwMCcsICctbWV0YWxfYmluZGluZycsICctaW1hZScsICc8aW5maWxlLm1hZT4nLCAnLW9tYWUnLCAnPG91dGZpbGUubWFlPic=

> <r_epik_Ionization_Penalty>
2.34117

> <r_epik_Ionization_Penalty_Charging>
2.34115

> <r_epik_Ionization_Penalty_Neutral>
2.22786e-05

> <r_epik_State_Penalty>
2.43944

> <r_epik_Charging_Adjusted_Penalty>
4.78059

> <i_epik_Tot_Q>
3

> <i_epik_Tot_abs_Q>
3

> <r_epik_Metal_State_Penalty>
2.45906

> <b_epik_Metal_Only>
0

> <s_lp_Force_Field>
OPLS_2005

> <r_lp_Energy>
52.8488

> <b_lp_Chiralities_Consistent>
1

> <s_lp_Variant>
AV-unprocessed.smi:2772-10

> <Gold.Version>
5.8.1

> <Gold.Id.Protein>
6NUR|6NUR_protein|mol2

> <Gold.PLP.Fitness>
48.7533

> <Gold.PLP.PLP>
-41.2432

> <Gold.PLP.part.hbond>
-3.8296

> <Gold.PLP.part.metal>
0.0000

> <Gold.PLP.part.buried>
-4.9698

> <Gold.PLP.part.nonpolar>
-34.4757

> <Gold.PLP.part.repulsive>
0.4235

> <Gold.PLP.ligand.clash>
0.0000

> <Gold.PLP.ligand.torsion>
1.4457

> <Gold.PLP.Chemscore.Hbond>
3.4530

> <Gold.PLP.Chemscore.CHOScore>
0.0000

> <Gold.PLP.Chemscore.Metal>
0.0000

> <Gold.Chemscore.Hbonds>
donor molecule, donor type, donor heavy atom, donor atom, acceptor molecule, acceptor atom, score
      L1  H     6    30       P1  7948  0.37
      L1  H     9    31       P1  7948  1.00
      L1  H    24    56       P1  8028  1.89

> <Gold.PLP.Chemscore.Internal.Correction>
0.0425

> <Gold.Rescore>
     Score         DG    S(hbond)    S(metal)    S(lipo)     H(rot)  DE(clash)    DE(int)     intcor
     21.17     -24.89       2.53        0.00     120.35       1.22       1.65       2.06       ----

> <Gold.Chemscore.Fitness>
21.1729

> <Gold.Chemscore.DG>
-24.8882

> <Gold.Chemscore.ZeroCoef>
-5.4800

> <Gold.Chemscore.Hbond>
2.5317

> <Gold.Chemscore.Metal>
0.0000

> <Gold.Chemscore.Lipo>
120.3530

> <Gold.Chemscore.Internal_Hbond>
0.0000

> <Gold.Chemscore.DEClash>
1.6540

> <Gold.Chemscore.DEInternal>
2.0612

> <Gold.Chemscore.Rot>
1.2222

> <Gold.Chemscore.Internal.Correction>
   9.000000E+99

> <Gold.Chemscore.Hbonds>
donor molecule, donor type, donor heavy atom, donor atom, acceptor molecule, acceptor atom, score
      L1  H     6    30       P1  7948  0.38
      L1  H     9    31       P1  7948  0.94
      L1  H    24    56       P1  8028  0.91

> <Gold.Chemscore.Hbond.Weighted>
-8.4558

> <Gold.Chemscore.Metal.Weighted>
-0.0000

> <Gold.Chemscore.Lipo.Weighted>
-14.0813

> <Gold.Chemscore.Internal_Hbond.Weighted>
0.0000

> <Gold.Chemscore.DEClash.Weighted>
1.6540

> <Gold.Chemscore.DEInternal.Weighted>
2.0612

> <Gold.Chemscore.Rot.Weighted>
3.1289

> <Gold.Chemscore.Internal.Correction.Weighted>
   9.000000E+99

> <Gold.Protein.RotatedTorsions>
[ 6907 6896 6895 6894 ] final -151.42 input  -60.11 | X-H torsion
[ 7974 7965 7964 7962 ] final   71.74 input  175.53 | X-H torsion
[ 8008 7997 7996 7995 ] final  178.09 input   59.86 | X-H torsion
[ 10167 10162 10161 10158 ] final   57.36 input  -65.29 | X-H torsion
[ 10718 10713 10712 10709 ] final  125.89 input   66.30 | X-H torsion
[ 10763 10752 10751 10750 ] final   90.71 input  -60.55 | X-H torsion
[ 11005 11000 10999 10996 ] final  -42.89 input  -57.11 | X-H torsion

> <Gold.Protein.ActiveResidues>
 VAL166  LYS551  ARG553  GLY616  TRP617  ASP618  TYR619  PRO620  LYS621  CYS622 
 ASP623  PHE694  ASN695  SER759  ASP760  ASP761  ALA762  ILE779  LEU786  VAL792 
 PHE793  MET794  SER795  GLU796  ALA797  LYS798  CYS799  TRP800  GLU811  SER814 

> <Gold.Protein.RotatedAtoms>
  151.2129  133.4546  159.2598 H   0  0  0  0  0  0  0  0  0  0  0  0  # atno 6907 bound_to 6896
  151.0959  134.9944  159.8435 H   0  0  0  0  0  0  0  0  0  0  0  0  # atno 6908 bound_to 6896
  152.5439  134.2059  159.8783 H   0  0  0  0  0  0  0  0  0  0  0  0  # atno 6909 bound_to 6896
  145.7620  139.2805  143.1370 H   0  0  0  0  0  0  0  0  0  0  0  0  # atno 7974 bound_to 7965
  156.0585  140.1342  156.9969 H   0  0  0  0  0  0  0  0  0  0  0  0  # atno 8008 bound_to 7997
  154.4469  140.0996  156.6552 H   0  0  0  0  0  0  0  0  0  0  0  0  # atno 8009 bound_to 7997
  155.5415  140.3461  155.4450 H   0  0  0  0  0  0  0  0  0  0  0  0  # atno 8010 bound_to 7997
  140.1988  144.4009  150.6538 H   0  0  0  0  0  0  0  0  0  0  0  0  # atno 10167 bound_to 10162
  157.5465  131.1095  150.8773 H   0  0  0  0  0  0  0  0  0  0  0  0  # atno 10718 bound_to 10713
  153.2004  135.4424  155.0259 H   0  0  0  0  0  0  0  0  0  0  0  0  # atno 10763 bound_to 10752
  154.8143  135.3308  154.7221 H   0  0  0  0  0  0  0  0  0  0  0  0  # atno 10764 bound_to 10752
  153.7666  135.6987  153.4970 H   0  0  0  0  0  0  0  0  0  0  0  0  # atno 10765 bound_to 10752
  141.0346  133.6805  156.2657 H   0  0  0  0  0  0  0  0  0  0  0  0  # atno 11005 bound_to 11000
  146.0254  140.8308  142.9902 LP  0  0  0  0  0  0  0  0  0  0  0  0  # atno 17320 bound_to 7965
  144.6828  140.2690  143.7308 LP  0  0  0  0  0  0  0  0  0  0  0  0  # atno 17321 bound_to 7965
  140.6405  143.2202  151.6301 LP  0  0  0  0  0  0  0  0  0  0  0  0  # atno 17342 bound_to 10162
  139.5225  144.3159  152.0952 LP  0  0  0  0  0  0  0  0  0  0  0  0  # atno 17343 bound_to 10162
  156.9310  130.5349  149.5279 LP  0  0  0  0  0  0  0  0  0  0  0  0  # atno 17370 bound_to 10713
  156.0540  130.5605  150.9052 LP  0  0  0  0  0  0  0  0  0  0  0  0  # atno 17371 bound_to 10713
  140.6345  134.5230  157.5563 LP  0  0  0  0  0  0  0  0  0  0  0  0  # atno 17394 bound_to 11000
  139.9232  134.8108  156.1148 LP  0  0  0  0  0  0  0  0  0  0  0  0  # atno 17395 bound_to 11000

$$$$
