AV-unprocessed.smi:539|AV-procd|sdf|2868|dock6
  -GOLD-   2262023363D 1   1.00000     0.00000
 Structure written by MMmdl.
 39 41  0  0  0  0  0  0  0  0  2 V2000
  148.6815  141.2595  154.1255 C   0  0  0  0  0  0  0  0  0  0  0  0
  149.8620  140.4780  154.1085 O   0  0  0  0  0  0  0  0  0  0  0  0
  150.2081  139.9814  155.3908 C   0  0  0  0  0  0  0  0  0  0  0  0
  151.4560  140.7093  155.9138 C   0  0  0  0  0  0  0  0  0  0  0  0
  151.9788  140.0950  157.1347 N   0  0  0  0  0  0  0  0  0  0  0  0
  152.2591  140.6801  158.3382 C   0  0  0  0  0  0  0  0  0  0  0  0
  152.0611  142.0391  158.6284 N   0  0  0  0  0  0  0  0  0  0  0  0
  151.3843  143.0896  157.8660 C   0  0  0  0  0  0  0  0  0  0  0  0
  151.1495  144.2846  158.7871 C   0  0  0  0  0  0  0  0  0  0  0  0
  152.2934  144.1597  159.7689 C   0  0  0  0  0  0  0  0  0  0  0  0
  152.4057  142.6464  159.9129 C   0  0  0  0  0  0  0  0  0  0  0  0
  152.7774  139.8448  159.2416 N   0  0  0  0  0  0  0  0  0  0  0  0
  152.8251  138.6336  158.5755 C   0  0  0  0  0  0  0  0  0  0  0  0
  152.3603  138.7546  157.3038 C   0  0  0  0  0  0  0  0  0  0  0  0
  152.3257  137.6268  156.3398 C   0  0  0  0  0  0  0  0  0  0  0  0
  151.9328  137.7798  155.1855 O   0  0  0  0  0  0  0  0  0  0  0  0
  152.7746  136.4558  156.8927 N   0  5  0  0  0  0  0  0  0  0  0  0
  153.2399  136.2922  158.1785 C   0  0  0  0  0  0  0  0  0  0  0  0
  153.6207  135.1985  158.5982 O   0  0  0  0  0  0  0  0  0  0  0  0
  153.2850  137.3664  159.0262 N   0  0  0  0  0  0  0  0  0  0  0  0
  153.7837  137.2255  160.3975 C   0  0  0  0  0  0  0  0  0  0  0  0
  148.4623  141.6115  153.1175 H   0  0  0  0  0  0  0  0  0  0  0  0
  148.7960  142.1323  154.7696 H   0  0  0  0  0  0  0  0  0  0  0  0
  147.8274  140.6767  154.4721 H   0  0  0  0  0  0  0  0  0  0  0  0
  149.3723  140.1265  156.0763 H   0  0  0  0  0  0  0  0  0  0  0  0
  150.4025  138.9094  155.3357 H   0  0  0  0  0  0  0  0  0  0  0  0
  152.2300  140.7535  155.1548 H   0  0  0  0  0  0  0  0  0  0  0  0
  151.2271  141.7562  156.0924 H   0  0  0  0  0  0  0  0  0  0  0  0
  152.0190  143.3928  157.0340 H   0  0  0  0  0  0  0  0  0  0  0  0
  150.4360  142.7324  157.4639 H   0  0  0  0  0  0  0  0  0  0  0  0
  151.1393  145.2371  158.2565 H   0  0  0  0  0  0  0  0  0  0  0  0
  150.1976  144.1738  159.3087 H   0  0  0  0  0  0  0  0  0  0  0  0
  153.2079  144.5665  159.3346 H   0  0  0  0  0  0  0  0  0  0  0  0
  152.1062  144.6662  160.7160 H   0  0  0  0  0  0  0  0  0  0  0  0
  151.7048  142.2843  160.6663 H   0  0  0  0  0  0  0  0  0  0  0  0
  153.4085  142.3549  160.2272 H   0  0  0  0  0  0  0  0  0  0  0  0
  154.7851  136.7918  160.4010 H   0  0  0  0  0  0  0  0  0  0  0  0
  153.1270  136.5728  160.9741 H   0  0  0  0  0  0  0  0  0  0  0  0
  153.8447  138.1782  160.9234 H   0  0  0  0  0  0  0  0  0  0  0  0
  1  2  1  0  0  0  0
  1 22  1  0  0  0  0
  1 23  1  0  0  0  0
  1 24  1  0  0  0  0
  2  3  1  0  0  0  0
  3  4  1  0  0  0  0
  3 25  1  0  0  0  0
  3 26  1  0  0  0  0
  4  5  1  0  0  0  0
  4 27  1  0  0  0  0
  4 28  1  0  0  0  0
  5 14  1  0  0  0  0
  5  6  1  0  0  0  0
  6  7  1  0  0  0  0
  6 12  2  0  0  0  0
  7 11  1  0  0  0  0
  7  8  1  0  0  0  0
  8  9  1  0  0  0  0
  8 29  1  0  0  0  0
  8 30  1  0  0  0  0
  9 10  1  0  0  0  0
  9 31  1  0  0  0  0
  9 32  1  0  0  0  0
 10 11  1  0  0  0  0
 10 33  1  0  0  0  0
 10 34  1  0  0  0  0
 11 35  1  0  0  0  0
 11 36  1  0  0  0  0
 12 13  1  0  0  0  0
 13 20  1  0  0  0  0
 13 14  2  0  0  0  0
 14 15  1  0  0  0  0
 15 16  2  0  0  0  0
 15 17  1  0  0  0  0
 17 18  1  0  0  0  0
 18 19  2  0  0  0  0
 18 20  1  0  0  0  0
 20 21  1  0  0  0  0
 21 37  1  0  0  0  0
 21 38  1  0  0  0  0
 21 39  1  0  0  0  0
M  CHG  1  17  -1
M  END
> <s_m_source_file>
AV-unprocessed.smi

> <i_m_source_file_index>
539

> <i_lp_mmshare_version>
43012

> <i_f3d_flags>
0

> <s_epik_input>
W0NIM11uMWMoPU8pW25IXWMoPU8pYyhjMTIpbihbQ0gyXVtDSDJdT1tDSDNdKWMobjIpTjNbQ0gyXVtDSDJdW0NIMl1bQ0gyXTM=

> <s_epik_cmdline>
J2VwaWtfcHl0aG9uJywgJy1waCcsICc3LjAnLCAnLXRuJywgJzgnLCAnLW1hJywgJzIwMCcsICctbWV0YWxfYmluZGluZycsICctaW1hZScsICc8aW5maWxlLm1hZT4nLCAnLW9tYWUnLCAnPG91dGZpbGUubWFlPic=

> <r_lp_tautomer_probability>
1

> <r_epik_Ionization_Penalty>
6.13244

> <r_epik_Ionization_Penalty_Charging>
0.078064

> <r_epik_Ionization_Penalty_Neutral>
6.05438

> <r_epik_State_Penalty>
6.05106

> <r_epik_Charging_Adjusted_Penalty>
6.12912

> <i_epik_Tot_Q>
-1

> <i_epik_Tot_abs_Q>
1

> <r_epik_Metal_State_Penalty>
2.00027

> <b_epik_Metal_Only>
1

> <s_lp_Force_Field>
OPLS_2005

> <r_lp_Energy>
49.7723

> <b_lp_Chiralities_Consistent>
1

> <s_lp_Variant>
AV-unprocessed.smi:539-2

> <Gold.Version>
5.8.1

> <Gold.Id.Protein>
6NUR|6NUR_protein|mol2

> <Gold.PLP.Fitness>
46.9575

> <Gold.PLP.PLP>
-36.6203

> <Gold.PLP.part.hbond>
-3.6217

> <Gold.PLP.part.metal>
0.0000

> <Gold.PLP.part.buried>
-3.8496

> <Gold.PLP.part.nonpolar>
-29.7260

> <Gold.PLP.part.repulsive>
0.9582

> <Gold.PLP.ligand.clash>
0.0000

> <Gold.PLP.ligand.torsion>
0.4118

> <Gold.PLP.Chemscore.Hbond>
3.7120

> <Gold.PLP.Chemscore.CHOScore>
0.0000

> <Gold.PLP.Chemscore.Metal>
0.0000

> <Gold.Chemscore.Hbonds>
donor molecule, donor type, donor heavy atom, donor atom, acceptor molecule, acceptor atom, score
      P1  H  6896  6907       L1    19  0.67
      P1  H  7989  7998       L1     2  0.70
      P1  H 10752 10763       L1    17  2.00

> <Gold.PLP.Chemscore.Internal.Correction>
0.0247

> <Gold.Rescore>
     Score         DG    S(hbond)    S(metal)    S(lipo)     H(rot)  DE(clash)    DE(int)     intcor
     15.22     -15.90       1.58        0.00      76.75       1.50       0.10       0.58       ----

> <Gold.Chemscore.Fitness>
15.2180

> <Gold.Chemscore.DG>
-15.8969

> <Gold.Chemscore.ZeroCoef>
-5.4800

> <Gold.Chemscore.Hbond>
1.5768

> <Gold.Chemscore.Metal>
0.0000

> <Gold.Chemscore.Lipo>
76.7482

> <Gold.Chemscore.Internal_Hbond>
0.0000

> <Gold.Chemscore.DEClash>
0.0978

> <Gold.Chemscore.DEInternal>
0.5812

> <Gold.Chemscore.Rot>
1.4957

> <Gold.Chemscore.Internal.Correction>
   9.000000E+99

> <Gold.Chemscore.Hbonds>
donor molecule, donor type, donor heavy atom, donor atom, acceptor molecule, acceptor atom, score
      P1  H  6896  6907       L1    19  0.60
      P1  H  7989  7998       L1     2  0.16
      P1  H 10752 10763       L1    17  0.41

> <Gold.Chemscore.Hbond.Weighted>
-5.2664

> <Gold.Chemscore.Metal.Weighted>
-0.0000

> <Gold.Chemscore.Lipo.Weighted>
-8.9795

> <Gold.Chemscore.Internal_Hbond.Weighted>
0.0000

> <Gold.Chemscore.DEClash.Weighted>
0.0978

> <Gold.Chemscore.DEInternal.Weighted>
0.5812

> <Gold.Chemscore.Rot.Weighted>
3.8290

> <Gold.Chemscore.Internal.Correction.Weighted>
   9.000000E+99

> <Gold.Protein.RotatedTorsions>
[ 6907 6896 6895 6894 ] final   72.22 input  -60.11 | X-H torsion
[ 7974 7965 7964 7962 ] final  -76.65 input  175.53 | X-H torsion
[ 8008 7997 7996 7995 ] final   99.81 input   59.86 | X-H torsion
[ 10167 10162 10161 10158 ] final -105.46 input  -65.29 | X-H torsion
[ 10718 10713 10712 10709 ] final  -78.01 input   66.30 | X-H torsion
[ 10763 10752 10751 10750 ] final  112.62 input  -60.55 | X-H torsion
[ 11005 11000 10999 10996 ] final   12.72 input  -57.11 | X-H torsion

> <Gold.Protein.ActiveResidues>
 VAL166  LYS551  ARG553  GLY616  TRP617  ASP618  TYR619  PRO620  LYS621  CYS622 
 ASP623  PHE694  ASN695  SER759  ASP760  ASP761  ALA762  ILE779  LEU786  VAL792 
 PHE793  MET794  SER795  GLU796  ALA797  LYS798  CYS799  TRP800  GLU811  SER814 

> <Gold.Protein.RotatedAtoms>
  152.4855  134.4603  159.9602 H   0  0  0  0  0  0  0  0  0  0  0  0  # atno 6907 bound_to 6896
  151.4601  133.3589  159.2815 H   0  0  0  0  0  0  0  0  0  0  0  0  # atno 6908 bound_to 6896
  150.8963  134.8396  159.7389 H   0  0  0  0  0  0  0  0  0  0  0  0  # atno 6909 bound_to 6896
  145.6100  140.9389  143.1194 H   0  0  0  0  0  0  0  0  0  0  0  0  # atno 7974 bound_to 7965
  156.1142  140.3223  155.8115 H   0  0  0  0  0  0  0  0  0  0  0  0  # atno 8008 bound_to 7997
  155.4620  140.0540  157.3007 H   0  0  0  0  0  0  0  0  0  0  0  0  # atno 8009 bound_to 7997
  154.4781  140.2041  155.9844 H   0  0  0  0  0  0  0  0  0  0  0  0  # atno 8010 bound_to 7997
  140.1983  143.3838  152.1150 H   0  0  0  0  0  0  0  0  0  0  0  0  # atno 10167 bound_to 10162
  156.0129  130.4506  150.3432 H   0  0  0  0  0  0  0  0  0  0  0  0  # atno 10718 bound_to 10713
  153.4806  135.3680  155.2440 H   0  0  0  0  0  0  0  0  0  0  0  0  # atno 10763 bound_to 10752
  154.8755  135.3953  154.3705 H   0  0  0  0  0  0  0  0  0  0  0  0  # atno 10764 bound_to 10752
  153.4308  135.7082  153.6297 H   0  0  0  0  0  0  0  0  0  0  0  0  # atno 10765 bound_to 10752
  140.4888  134.0861  155.7766 H   0  0  0  0  0  0  0  0  0  0  0  0  # atno 11005 bound_to 11000
  144.7274  139.7833  143.7360 LP  0  0  0  0  0  0  0  0  0  0  0  0  # atno 17320 bound_to 7965
  146.1511  139.4595  143.0048 LP  0  0  0  0  0  0  0  0  0  0  0  0  # atno 17321 bound_to 7965
  139.5227  144.7063  151.5344 LP  0  0  0  0  0  0  0  0  0  0  0  0  # atno 17342 bound_to 10162
  140.6408  143.8892  150.6690 LP  0  0  0  0  0  0  0  0  0  0  0  0  # atno 17343 bound_to 10162
  157.1527  131.0325  151.2878 LP  0  0  0  0  0  0  0  0  0  0  0  0  # atno 17370 bound_to 10713
  157.4378  130.7527  149.7044 LP  0  0  0  0  0  0  0  0  0  0  0  0  # atno 17371 bound_to 10713
  141.1494  133.8996  157.2135 LP  0  0  0  0  0  0  0  0  0  0  0  0  # atno 17394 bound_to 11000
  139.9782  135.0107  156.9683 LP  0  0  0  0  0  0  0  0  0  0  0  0  # atno 17395 bound_to 11000

$$$$
