AV-unprocessed.smi:432|AV-procd|sdf|2549|dock3
  -GOLD-   2262022513D 1   1.00000     0.00000
 Structure written by MMmdl.
 31 32  0  0  0  0  0  0  0  0  1 V2000
  151.4225  141.5244  157.7695 O   0  0  0  0  0  0  0  0  0  0  0  0
  150.8962  142.2264  156.9046 C   0  0  0  0  0  0  0  0  0  0  0  0
  150.3056  141.6026  155.6310 C   0  0  0  0  0  0  0  0  0  0  0  0
  150.3207  140.1317  155.6319 N   0  0  0  0  0  0  0  0  0  0  0  0
  150.8102  139.5726  154.4644 N   0  0  0  0  0  0  0  0  0  0  0  0
  150.8817  138.2908  154.3563 C   0  0  0  0  0  0  0  0  0  0  0  0
  150.4639  137.4033  155.4191 C   0  0  0  0  0  0  0  0  0  0  0  0
  150.5860  135.6911  155.2170 Cl  0  0  0  0  0  0  0  0  0  0  0  0
  149.9796  137.9613  156.5570 C   0  0  0  0  0  0  0  0  0  0  0  0
  149.4597  136.9644  157.8725 Cl  0  0  0  0  0  0  0  0  0  0  0  0
  149.8795  139.4190  156.7142 C   0  0  0  0  0  0  0  0  0  0  0  0
  149.4395  139.9637  157.7278 O   0  0  0  0  0  0  0  0  0  0  0  0
  150.8066  143.5618  156.9968 N   0  0  0  0  0  0  0  0  0  0  0  0
  151.2826  144.3616  158.1226 C   0  0  0  0  0  0  0  0  0  0  0  0
  152.8082  144.2267  158.2982 C   0  0  0  0  0  0  0  0  0  0  0  0
  153.0135  143.3862  159.5588 C   0  0  0  0  0  0  0  0  0  0  0  0
  151.8114  143.7274  160.4333 C   0  0  0  0  0  0  0  0  0  0  0  0
  150.6544  143.8782  159.4441 C   0  0  0  0  0  0  0  0  0  0  0  0
  149.2836  141.9612  155.4933 H   0  0  0  0  0  0  0  0  0  0  0  0
  150.8668  141.9860  154.7769 H   0  0  0  0  0  0  0  0  0  0  0  0
  151.2611  137.8060  153.4567 H   0  0  0  0  0  0  0  0  0  0  0  0
  150.3633  144.0608  156.2393 H   0  0  0  0  0  0  0  0  0  0  0  0
  151.0273  145.4112  157.9649 H   0  0  0  0  0  0  0  0  0  0  0  0
  153.3097  143.7923  157.4319 H   0  0  0  0  0  0  0  0  0  0  0  0
  153.2399  145.2164  158.4526 H   0  0  0  0  0  0  0  0  0  0  0  0
  152.9917  142.3261  159.3021 H   0  0  0  0  0  0  0  0  0  0  0  0
  153.9646  143.5917  160.0507 H   0  0  0  0  0  0  0  0  0  0  0  0
  151.6169  142.9721  161.1951 H   0  0  0  0  0  0  0  0  0  0  0  0
  151.9864  144.6765  160.9417 H   0  0  0  0  0  0  0  0  0  0  0  0
  149.8923  144.5656  159.8125 H   0  0  0  0  0  0  0  0  0  0  0  0
  150.1735  142.9077  159.3107 H   0  0  0  0  0  0  0  0  0  0  0  0
  1  2  2  0  0  0  0
  2  3  1  0  0  0  0
  2 13  1  0  0  0  0
  3  4  1  0  0  0  0
  3 19  1  0  0  0  0
  3 20  1  0  0  0  0
  4 11  1  0  0  0  0
  4  5  1  0  0  0  0
  5  6  2  0  0  0  0
  6  7  1  0  0  0  0
  6 21  1  0  0  0  0
  7  8  1  0  0  0  0
  7  9  2  0  0  0  0
  9 10  1  0  0  0  0
  9 11  1  0  0  0  0
 11 12  2  0  0  0  0
 13 14  1  0  0  0  0
 13 22  1  0  0  0  0
 14 18  1  0  0  0  0
 14 15  1  0  0  0  0
 14 23  1  0  0  0  0
 15 16  1  0  0  0  0
 15 24  1  0  0  0  0
 15 25  1  0  0  0  0
 16 17  1  0  0  0  0
 16 26  1  0  0  0  0
 16 27  1  0  0  0  0
 17 18  1  0  0  0  0
 17 28  1  0  0  0  0
 17 29  1  0  0  0  0
 18 30  1  0  0  0  0
 18 31  1  0  0  0  0
M  END
> <s_m_source_file>
AV-unprocessed.smi

> <i_m_source_file_index>
432

> <i_lp_mmshare_version>
43012

> <i_f3d_flags>
0

> <s_epik_input>
W0NIMl0xW0NIMl1bQ0gyXVtDSDJdW0NIXTFbTkhdQyg9TylbQ0gyXW4ybltjSF1jKENsKWMoQ2wpYzI9Tw==

> <s_epik_cmdline>
J2VwaWtfcHl0aG9uJywgJy1waCcsICc3LjAnLCAnLXRuJywgJzgnLCAnLW1hJywgJzIwMCcsICctbWV0YWxfYmluZGluZycsICctaW1hZScsICc8aW5maWxlLm1hZT4nLCAnLW9tYWUnLCAnPG91dGZpbGUubWFlPic=

> <r_lp_tautomer_probability>
1

> <r_epik_Ionization_Penalty>
1.93318e-08

> <r_epik_Ionization_Penalty_Charging>
3.01013e-11

> <r_epik_Ionization_Penalty_Neutral>
1.93017e-08

> <r_epik_State_Penalty>
-0

> <r_epik_Charging_Adjusted_Penalty>
3.01013e-11

> <i_epik_Tot_Q>
0

> <i_epik_Tot_abs_Q>
0

> <r_epik_Metal_State_Penalty>
-0

> <b_epik_Metal_Only>
0

> <s_lp_Force_Field>
OPLS_2005

> <r_lp_Energy>
31.6968

> <b_lp_Chiralities_Consistent>
1

> <s_lp_Variant>
AV-unprocessed.smi:432-1

> <Gold.Version>
5.8.1

> <Gold.Id.Protein>
6NUR|6NUR_protein|mol2

> <Gold.PLP.Fitness>
43.5687

> <Gold.PLP.PLP>
-35.4533

> <Gold.PLP.part.hbond>
-2.0000

> <Gold.PLP.part.metal>
0.0000

> <Gold.PLP.part.buried>
-5.2856

> <Gold.PLP.part.nonpolar>
-27.7162

> <Gold.PLP.part.repulsive>
0.1689

> <Gold.PLP.ligand.clash>
0.0000

> <Gold.PLP.ligand.torsion>
0.1788

> <Gold.PLP.Chemscore.Hbond>
2.0000

> <Gold.PLP.Chemscore.CHOScore>
0.8232

> <Gold.PLP.Chemscore.Metal>
0.0000

> <Gold.Chemscore.Hbonds>
donor molecule, donor type, donor heavy atom, donor atom, acceptor molecule, acceptor atom, score
      L1  H    13    22       P1  8028  0.91
      P1  H  7989  7998       L1     5  1.00
      L1  C     6    21       P1  7949  0.63

> <Gold.PLP.Chemscore.Internal.Correction>
0.0035

> <Gold.Rescore>
     Score         DG    S(hbond)    S(metal)    S(lipo)     H(rot)  DE(clash)    DE(int)     intcor
     16.44     -18.96       1.95        0.00      93.14       1.53       0.04       2.48       ----

> <Gold.Chemscore.Fitness>
16.4443

> <Gold.Chemscore.DG>
-18.9625

> <Gold.Chemscore.ZeroCoef>
-5.4800

> <Gold.Chemscore.Hbond>
1.9469

> <Gold.Chemscore.Metal>
0.0000

> <Gold.Chemscore.Lipo>
93.1404

> <Gold.Chemscore.Internal_Hbond>
0.0000

> <Gold.Chemscore.DEClash>
0.0402

> <Gold.Chemscore.DEInternal>
2.4780

> <Gold.Chemscore.Rot>
1.5303

> <Gold.Chemscore.Internal.Correction>
   9.000000E+99

> <Gold.Chemscore.Hbonds>
donor molecule, donor type, donor heavy atom, donor atom, acceptor molecule, acceptor atom, score
      L1  H    13    22       P1  8028  0.90
      P1  H  7989  7998       L1     5  0.70

> <Gold.Chemscore.Hbond.Weighted>
-6.5027

> <Gold.Chemscore.Metal.Weighted>
-0.0000

> <Gold.Chemscore.Lipo.Weighted>
-10.8974

> <Gold.Chemscore.Internal_Hbond.Weighted>
0.0000

> <Gold.Chemscore.DEClash.Weighted>
0.0402

> <Gold.Chemscore.DEInternal.Weighted>
2.4780

> <Gold.Chemscore.Rot.Weighted>
3.9176

> <Gold.Chemscore.Internal.Correction.Weighted>
   9.000000E+99

> <Gold.Protein.RotatedTorsions>
[ 6907 6896 6895 6894 ] final  -81.46 input  -60.11 | X-H torsion
[ 7974 7965 7964 7962 ] final   22.79 input  175.53 | X-H torsion
[ 8008 7997 7996 7995 ] final  -61.47 input   59.86 | X-H torsion
[ 10167 10162 10161 10158 ] final  -76.61 input  -65.29 | X-H torsion
[ 10718 10713 10712 10709 ] final  121.63 input   66.30 | X-H torsion
[ 10763 10752 10751 10750 ] final -108.64 input  -60.55 | X-H torsion
[ 11005 11000 10999 10996 ] final  101.55 input  -57.11 | X-H torsion

> <Gold.Protein.ActiveResidues>
 VAL166  LYS551  ARG553  GLY616  TRP617  ASP618  TYR619  PRO620  LYS621  CYS622 
 ASP623  PHE694  ASN695  SER759  ASP760  ASP761  ALA762  ILE779  LEU786  VAL792 
 PHE793  MET794  SER795  GLU796  ALA797  LYS798  CYS799  TRP800  GLU811  SER814 

> <Gold.Protein.RotatedAtoms>
  150.6912  134.3814  159.5035 H   0  0  0  0  0  0  0  0  0  0  0  0  # atno 6907 bound_to 6896
  152.1615  134.8905  160.0550 H   0  0  0  0  0  0  0  0  0  0  0  0  # atno 6908 bound_to 6896
  151.9965  133.3775  159.4202 H   0  0  0  0  0  0  0  0  0  0  0  0  # atno 6909 bound_to 6896
  146.2013  139.7835  142.8759 H   0  0  0  0  0  0  0  0  0  0  0  0  # atno 7974 bound_to 7965
  154.4449  140.1017  156.6436 H   0  0  0  0  0  0  0  0  0  0  0  0  # atno 8008 bound_to 7997
  155.5475  140.3485  155.4442 H   0  0  0  0  0  0  0  0  0  0  0  0  # atno 8009 bound_to 7997
  156.0553  140.1313  156.9993 H   0  0  0  0  0  0  0  0  0  0  0  0  # atno 8010 bound_to 7997
  140.4842  143.2395  151.8010 H   0  0  0  0  0  0  0  0  0  0  0  0  # atno 10167 bound_to 10162
  157.5803  131.1075  150.8200 H   0  0  0  0  0  0  0  0  0  0  0  0  # atno 10718 bound_to 10713
  154.8147  135.4630  154.0611 H   0  0  0  0  0  0  0  0  0  0  0  0  # atno 10763 bound_to 10752
  153.2013  135.6869  153.8234 H   0  0  0  0  0  0  0  0  0  0  0  0  # atno 10764 bound_to 10752
  153.7717  135.3269  155.3330 H   0  0  0  0  0  0  0  0  0  0  0  0  # atno 10765 bound_to 10752
  139.8774  134.9187  156.4923 H   0  0  0  0  0  0  0  0  0  0  0  0  # atno 11005 bound_to 11000
  145.3473  141.0300  143.3358 LP  0  0  0  0  0  0  0  0  0  0  0  0  # atno 17320 bound_to 7965
  144.8690  139.5065  143.6776 LP  0  0  0  0  0  0  0  0  0  0  0  0  # atno 17321 bound_to 7965
  139.4839  144.4733  151.9397 LP  0  0  0  0  0  0  0  0  0  0  0  0  # atno 17342 bound_to 10162
  140.3819  144.2725  150.5908 LP  0  0  0  0  0  0  0  0  0  0  0  0  # atno 17343 bound_to 10162
  156.8648  130.5126  149.5301 LP  0  0  0  0  0  0  0  0  0  0  0  0  # atno 17370 bound_to 10713
  156.0848  130.5850  150.9629 LP  0  0  0  0  0  0  0  0  0  0  0  0  # atno 17371 bound_to 10713
  140.8649  133.8032  155.9304 LP  0  0  0  0  0  0  0  0  0  0  0  0  # atno 17394 bound_to 11000
  140.9011  134.2377  157.5041 LP  0  0  0  0  0  0  0  0  0  0  0  0  # atno 17395 bound_to 11000

$$$$
