AV-unprocessed.smi:506|AV-procd|sdf|2750|dock4
  -GOLD-   2262023213D 1   1.00000     0.00000
 Structure written by MMmdl.
 40 42  0  0  0  0  0  0  0  0  1 V2000
  144.8324  141.5464  155.1170 C   0  0  0  0  0  0  0  0  0  0  0  0
  145.9273  141.1512  154.3036 O   0  0  0  0  0  0  0  0  0  0  0  0
  147.1497  140.9580  154.9106 C   0  0  0  0  0  0  0  0  0  0  0  0
  148.2530  140.7167  154.0688 C   0  0  0  0  0  0  0  0  0  0  0  0
  149.5372  140.5092  154.6060 C   0  0  0  0  0  0  0  0  0  0  0  0
  149.7488  140.5360  155.9981 C   0  0  0  0  0  0  0  0  0  0  0  0
  151.0362  140.3216  156.4388 O   0  0  0  0  0  0  0  0  0  0  0  0
  151.2772  140.2973  157.8394 C   0  0  0  0  0  0  0  0  0  0  0  0
  152.7187  140.7499  158.1129 C   0  0  0  0  0  0  0  0  0  0  0  0
  152.7956  141.6928  159.2198 N   0  0  0  0  0  0  0  0  0  0  0  0
  153.5815  141.6282  160.3238 C   0  0  0  0  0  0  0  0  0  0  0  0
  154.5324  140.4958  160.5628 C   0  0  0  0  0  0  0  0  0  0  0  0
  155.4557  140.3282  159.5084 O   0  0  0  0  0  0  0  0  0  0  0  0
  153.4541  142.6369  161.1868 N   0  0  0  0  0  0  0  0  0  0  0  0
  152.4987  143.4325  160.5850 C   0  0  0  0  0  0  0  0  0  0  0  0
  151.9289  144.6570  161.0013 C   0  0  0  0  0  0  0  0  0  0  0  0
  150.9574  145.2994  160.2059 C   0  0  0  0  0  0  0  0  0  0  0  0
  150.5422  144.7278  158.9858 C   0  0  0  0  0  0  0  0  0  0  0  0
  151.0957  143.5074  158.5535 C   0  0  0  0  0  0  0  0  0  0  0  0
  152.0654  142.8701  159.3510 C   0  0  0  0  0  0  0  0  0  0  0  0
  148.6435  140.7795  156.8494 C   0  0  0  0  0  0  0  0  0  0  0  0
  147.3582  140.9880  156.3116 C   0  0  0  0  0  0  0  0  0  0  0  0
  143.9443  141.6579  154.4949 H   0  0  0  0  0  0  0  0  0  0  0  0
  145.0201  142.5068  155.5990 H   0  0  0  0  0  0  0  0  0  0  0  0
  144.6098  140.7972  155.8780 H   0  0  0  0  0  0  0  0  0  0  0  0
  148.1139  140.6904  152.9981 H   0  0  0  0  0  0  0  0  0  0  0  0
  150.3692  140.3254  153.9418 H   0  0  0  0  0  0  0  0  0  0  0  0
  150.5836  140.9647  158.3527 H   0  0  0  0  0  0  0  0  0  0  0  0
  151.1276  139.2898  158.2302 H   0  0  0  0  0  0  0  0  0  0  0  0
  153.3410  139.8864  158.3497 H   0  0  0  0  0  0  0  0  0  0  0  0
  153.1522  141.2010  157.2207 H   0  0  0  0  0  0  0  0  0  0  0  0
  155.0719  140.6546  161.4961 H   0  0  0  0  0  0  0  0  0  0  0  0
  153.9678  139.5703  160.6818 H   0  0  0  0  0  0  0  0  0  0  0  0
  156.2043  139.8552  159.8378 H   0  0  0  0  0  0  0  0  0  0  0  0
  152.2408  145.1037  161.9337 H   0  0  0  0  0  0  0  0  0  0  0  0
  150.5297  146.2357  160.5331 H   0  0  0  0  0  0  0  0  0  0  0  0
  149.7994  145.2272  158.3811 H   0  0  0  0  0  0  0  0  0  0  0  0
  150.7827  143.0689  157.6176 H   0  0  0  0  0  0  0  0  0  0  0  0
  148.7548  140.8132  157.9224 H   0  0  0  0  0  0  0  0  0  0  0  0
  146.5459  141.1698  156.9988 H   0  0  0  0  0  0  0  0  0  0  0  0
  1  2  1  0  0  0  0
  1 23  1  0  0  0  0
  1 24  1  0  0  0  0
  1 25  1  0  0  0  0
  2  3  1  0  0  0  0
  3 22  1  0  0  0  0
  3  4  2  0  0  0  0
  4  5  1  0  0  0  0
  4 26  1  0  0  0  0
  5  6  2  0  0  0  0
  5 27  1  0  0  0  0
  6  7  1  0  0  0  0
  6 21  1  0  0  0  0
  7  8  1  0  0  0  0
  8  9  1  0  0  0  0
  8 28  1  0  0  0  0
  8 29  1  0  0  0  0
  9 10  1  0  0  0  0
  9 30  1  0  0  0  0
  9 31  1  0  0  0  0
 10 20  1  0  0  0  0
 10 11  1  0  0  0  0
 11 12  1  0  0  0  0
 11 14  2  0  0  0  0
 12 13  1  0  0  0  0
 12 32  1  0  0  0  0
 12 33  1  0  0  0  0
 13 34  1  0  0  0  0
 14 15  1  0  0  0  0
 15 20  2  0  0  0  0
 15 16  1  0  0  0  0
 16 17  2  0  0  0  0
 16 35  1  0  0  0  0
 17 18  1  0  0  0  0
 17 36  1  0  0  0  0
 18 19  2  0  0  0  0
 18 37  1  0  0  0  0
 19 20  1  0  0  0  0
 19 38  1  0  0  0  0
 21 22  2  0  0  0  0
 21 39  1  0  0  0  0
 22 40  1  0  0  0  0
M  END
> <s_m_source_file>
AV-unprocessed.smi

> <i_m_source_file_index>
506

> <i_lp_mmshare_version>
43012

> <i_f3d_flags>
0

> <s_epik_input>
W0NIM11PYzFbY0hdW2NIXWMoW2NIXVtjSF0xKU9bQ0gyXVtDSDJdbihjKG4yKVtDSDJdW09IXSljKGMyMylbY0hdW2NIXVtjSF1bY0hdMw==

> <s_epik_cmdline>
J2VwaWtfcHl0aG9uJywgJy1waCcsICc3LjAnLCAnLXRuJywgJzgnLCAnLW1hJywgJzIwMCcsICctbWV0YWxfYmluZGluZycsICctaW1hZScsICc8aW5maWxlLm1hZT4nLCAnLW9tYWUnLCAnPG91dGZpbGUubWFlPic=

> <r_lp_tautomer_probability>
1

> <r_epik_Ionization_Penalty>
0.0483634

> <r_epik_Ionization_Penalty_Charging>
0

> <r_epik_Ionization_Penalty_Neutral>
0.0483634

> <r_epik_State_Penalty>
0.0411758

> <r_epik_Charging_Adjusted_Penalty>
0.0411758

> <i_epik_Tot_Q>
0

> <i_epik_Tot_abs_Q>
0

> <r_epik_Metal_State_Penalty>
4.26388e-05

> <b_epik_Metal_Only>
0

> <s_lp_Force_Field>
OPLS_2005

> <r_lp_Energy>
17.7354

> <b_lp_Chiralities_Consistent>
1

> <s_lp_Variant>
AV-unprocessed.smi:506-1

> <Gold.Version>
5.8.1

> <Gold.Id.Protein>
6NUR|6NUR_protein|mol2

> <Gold.PLP.Fitness>
50.6054

> <Gold.PLP.PLP>
-48.7193

> <Gold.PLP.part.hbond>
-1.0000

> <Gold.PLP.part.metal>
0.0000

> <Gold.PLP.part.buried>
-7.7913

> <Gold.PLP.part.nonpolar>
-40.4902

> <Gold.PLP.part.repulsive>
0.2561

> <Gold.PLP.ligand.clash>
0.0000

> <Gold.PLP.ligand.torsion>
0.6036

> <Gold.PLP.Chemscore.Hbond>
1.0000

> <Gold.PLP.Chemscore.CHOScore>
0.0000

> <Gold.PLP.Chemscore.Metal>
0.0000

> <Gold.Chemscore.Hbonds>
donor molecule, donor type, donor heavy atom, donor atom, acceptor molecule, acceptor atom, score
      P1  H  7997  8009       L1    13  0.44

> <Gold.PLP.Chemscore.Internal.Correction>
0.0933

> <Gold.Rescore>
     Score         DG    S(hbond)    S(metal)    S(lipo)     H(rot)  DE(clash)    DE(int)     intcor
     15.78     -16.47       0.99        0.00     119.34       2.46       0.01       0.68       ----

> <Gold.Chemscore.Fitness>
15.7835

> <Gold.Chemscore.DG>
-16.4736

> <Gold.Chemscore.ZeroCoef>
-5.4800

> <Gold.Chemscore.Hbond>
0.9936

> <Gold.Chemscore.Metal>
0.0000

> <Gold.Chemscore.Lipo>
119.3427

> <Gold.Chemscore.Internal_Hbond>
0.0000

> <Gold.Chemscore.DEClash>
0.0069

> <Gold.Chemscore.DEInternal>
0.6832

> <Gold.Chemscore.Rot>
2.4562

> <Gold.Chemscore.Internal.Correction>
   9.000000E+99

> <Gold.Chemscore.Hbonds>
donor molecule, donor type, donor heavy atom, donor atom, acceptor molecule, acceptor atom, score
      P1  H  7997  8009       L1    13  0.36

> <Gold.Chemscore.Hbond.Weighted>
-3.3185

> <Gold.Chemscore.Metal.Weighted>
-0.0000

> <Gold.Chemscore.Lipo.Weighted>
-13.9631

> <Gold.Chemscore.Internal_Hbond.Weighted>
0.0000

> <Gold.Chemscore.DEClash.Weighted>
0.0069

> <Gold.Chemscore.DEInternal.Weighted>
0.6832

> <Gold.Chemscore.Rot.Weighted>
6.2880

> <Gold.Chemscore.Internal.Correction.Weighted>
   9.000000E+99

> <Gold.Protein.RotatedTorsions>
[ 6907 6896 6895 6894 ] final -123.51 input  -60.11 | X-H torsion
[ 7974 7965 7964 7962 ] final  124.87 input  175.53 | X-H torsion
[ 8008 7997 7996 7995 ] final  120.13 input   59.86 | X-H torsion
[ 10167 10162 10161 10158 ] final   62.84 input  -65.29 | X-H torsion
[ 10718 10713 10712 10709 ] final -141.98 input   66.30 | X-H torsion
[ 10763 10752 10751 10750 ] final    1.05 input  -60.55 | X-H torsion
[ 11005 11000 10999 10996 ] final  141.73 input  -57.11 | X-H torsion

> <Gold.Protein.ActiveResidues>
 VAL166  LYS551  ARG553  GLY616  TRP617  ASP618  TYR619  PRO620  LYS621  CYS622 
 ASP623  PHE694  ASN695  SER759  ASP760  ASP761  ALA762  ILE779  LEU786  VAL792 
 PHE793  MET794  SER795  GLU796  ALA797  LYS798  CYS799  TRP800  GLU811  SER814 

> <Gold.Protein.RotatedAtoms>
  150.8678  133.7549  159.2970 H   0  0  0  0  0  0  0  0  0  0  0  0  # atno 6907 bound_to 6896
  151.5171  135.1065  159.9878 H   0  0  0  0  0  0  0  0  0  0  0  0  # atno 6908 bound_to 6896
  152.4673  133.7907  159.6956 H   0  0  0  0  0  0  0  0  0  0  0  0  # atno 6909 bound_to 6896
  145.0795  139.3668  143.4916 H   0  0  0  0  0  0  0  0  0  0  0  0  # atno 7974 bound_to 7965
  156.2628  140.2837  156.1100 H   0  0  0  0  0  0  0  0  0  0  0  0  # atno 8008 bound_to 7997
  155.1267  140.0393  157.2782 H   0  0  0  0  0  0  0  0  0  0  0  0  # atno 8009 bound_to 7997
  154.6630  140.2571  155.7095 H   0  0  0  0  0  0  0  0  0  0  0  0  # atno 8010 bound_to 7997
  140.1395  144.4567  150.6819 H   0  0  0  0  0  0  0  0  0  0  0  0  # atno 10167 bound_to 10162
  156.3405  130.7635  151.1770 H   0  0  0  0  0  0  0  0  0  0  0  0  # atno 10718 bound_to 10713
  153.3129  135.6964  153.7100 H   0  0  0  0  0  0  0  0  0  0  0  0  # atno 10763 bound_to 10752
  153.5970  135.3469  155.2932 H   0  0  0  0  0  0  0  0  0  0  0  0  # atno 10764 bound_to 10752
  154.8579  135.4331  154.2272 H   0  0  0  0  0  0  0  0  0  0  0  0  # atno 10765 bound_to 10752
  140.0423  134.9298  157.0866 H   0  0  0  0  0  0  0  0  0  0  0  0  # atno 11005 bound_to 11000
  146.3530  140.0578  142.8631 LP  0  0  0  0  0  0  0  0  0  0  0  0  # atno 17320 bound_to 7965
  145.1196  140.9454  143.4608 LP  0  0  0  0  0  0  0  0  0  0  0  0  # atno 17321 bound_to 7965
  140.6769  143.2309  151.5485 LP  0  0  0  0  0  0  0  0  0  0  0  0  # atno 17342 bound_to 10162
  139.5479  144.2473  152.1476 LP  0  0  0  0  0  0  0  0  0  0  0  0  # atno 17343 bound_to 10162
  157.7446  131.0456  150.4850 LP  0  0  0  0  0  0  0  0  0  0  0  0  # atno 17370 bound_to 10713
  156.5030  130.4121  149.6343 LP  0  0  0  0  0  0  0  0  0  0  0  0  # atno 17371 bound_to 10713
  140.4049  134.2043  155.7163 LP  0  0  0  0  0  0  0  0  0  0  0  0  # atno 17394 bound_to 11000
  141.1889  133.8249  157.0976 LP  0  0  0  0  0  0  0  0  0  0  0  0  # atno 17395 bound_to 11000

$$$$
