AV-unprocessed.smi:193|AV-procd|sdf|1496|dock8
  -GOLD-   2262019323D 1   1.00000     0.00000
 Structure written by MMmdl.
 62 66  0  0  0  0  0  0  0  0  2 V2000
  142.2430  136.5034  153.9194 C   0  0  0  0  0  0  0  0  0  0  0  0
  143.2759  135.3660  153.8698 C   0  0  2  0  0  0  0  0  0  0  0  0
  144.6815  135.9419  154.1377 C   0  0  0  0  0  0  0  0  0  0  0  0
  145.6643  134.9565  154.5851 N   0  0  0  0  0  0  0  0  0  0  0  0
  146.9177  135.4206  154.7785 C   0  0  0  0  0  0  0  0  0  0  0  0
  147.8423  134.5445  155.2434 N   0  0  0  0  0  0  0  0  0  0  0  0
  149.0985  134.9496  155.4548 C   0  0  0  0  0  0  0  0  0  0  0  0
  149.6292  136.1589  155.2615 N   0  0  0  0  0  0  0  0  0  0  0  0
  148.7047  137.0358  154.7747 C   0  0  0  0  0  0  0  0  0  0  0  0
  147.3367  136.7525  154.5038 C   0  0  0  0  0  0  0  0  0  0  0  0
  146.7084  137.8860  154.0017 N   0  0  0  0  0  0  0  0  0  0  0  0
  147.6488  138.7912  153.9885 C   0  0  0  0  0  0  0  0  0  0  0  0
  148.8802  138.3651  154.4325 N   0  0  0  0  0  0  0  0  0  0  0  0
  150.0948  139.1605  154.5236 C   0  0  0  0  0  0  0  0  0  0  0  0
  149.8957  140.5392  155.2003 C   0  0  0  0  0  0  0  0  0  0  0  0
  149.5090  141.4610  154.1951 O   0  0  0  0  0  0  0  0  0  0  0  0
  148.7693  140.4623  156.2504 C   0  0  0  0  0  0  0  0  0  0  0  0
  148.6485  141.7596  157.0692 C   0  0  0  0  0  0  0  0  0  0  0  0
  149.8977  142.0711  157.6736 O   0  0  0  0  0  0  0  0  0  0  0  0
  150.9228  142.3228  156.7202 C   0  0  0  0  0  0  0  0  0  0  0  0
  151.1824  141.0628  155.8755 C   0  0  0  0  0  0  0  0  0  0  0  0
  145.5831  133.5448  154.2230 C   0  0  0  0  0  0  0  0  0  0  0  0
  145.2816  133.3199  152.7354 C   0  0  0  0  0  0  0  0  0  0  0  0
  143.8214  133.3091  152.4793 N   0  3  2  0  0  0  0  0  0  0  0  0
  143.4954  132.5819  151.2317 C   0  0  2  0  0  0  0  0  0  0  0  0
  144.4276  131.4285  150.9398 C   0  0  0  0  0  0  0  0  0  0  0  0
  144.5492  132.7163  150.1541 C   0  0  1  0  0  0  0  0  0  0  0  0
  144.1565  132.7588  148.6937 C   0  0  0  0  0  0  0  0  0  0  0  0
  143.2011  134.6576  152.4974 C   0  0  0  0  0  0  0  0  0  0  0  0
  142.4398  137.2524  153.1514 H   0  0  0  0  0  0  0  0  0  0  0  0
  142.2564  137.0076  154.8863 H   0  0  0  0  0  0  0  0  0  0  0  0
  141.2311  136.1270  153.7660 H   0  0  0  0  0  0  0  0  0  0  0  0
  143.0072  134.6647  154.6612 H   0  0  0  0  0  0  0  0  0  0  0  0
  145.0318  136.4714  153.2526 H   0  0  0  0  0  0  0  0  0  0  0  0
  144.6154  136.6908  154.9284 H   0  0  0  0  0  0  0  0  0  0  0  0
  149.7759  134.1975  155.8318 H   0  0  0  0  0  0  0  0  0  0  0  0
  147.4717  139.8011  153.6474 H   0  0  0  0  0  0  0  0  0  0  0  0
  150.8422  138.5782  155.0646 H   0  0  0  0  0  0  0  0  0  0  0  0
  150.4879  139.2929  153.5147 H   0  0  0  0  0  0  0  0  0  0  0  0
  148.7457  141.9296  154.4967 H   0  0  0  0  0  0  0  0  0  0  0  0
  147.8159  140.2299  155.7737 H   0  0  0  0  0  0  0  0  0  0  0  0
  148.9740  139.6407  156.9381 H   0  0  0  0  0  0  0  0  0  0  0  0
  148.3154  142.5902  156.4453 H   0  0  0  0  0  0  0  0  0  0  0  0
  147.9013  141.6361  157.8534 H   0  0  0  0  0  0  0  0  0  0  0  0
  150.6486  143.1696  156.0893 H   0  0  0  0  0  0  0  0  0  0  0  0
  151.8314  142.6081  157.2509 H   0  0  0  0  0  0  0  0  0  0  0  0
  151.5859  140.2873  156.5277 H   0  0  0  0  0  0  0  0  0  0  0  0
  151.9548  141.2723  155.1347 H   0  0  0  0  0  0  0  0  0  0  0  0
  146.5325  133.0608  154.4596 H   0  0  0  0  0  0  0  0  0  0  0  0
  144.8395  133.0490  154.8479 H   0  0  0  0  0  0  0  0  0  0  0  0
  145.7965  134.0368  152.0940 H   0  0  0  0  0  0  0  0  0  0  0  0
  145.6779  132.3385  152.4714 H   0  0  0  0  0  0  0  0  0  0  0  0
  142.4395  132.5156  150.9735 H   0  0  0  0  0  0  0  0  0  0  0  0
  145.2143  131.2047  151.6579 H   0  0  0  0  0  0  0  0  0  0  0  0
  144.0076  130.5640  150.4293 H   0  0  0  0  0  0  0  0  0  0  0  0
  145.4139  133.3351  150.3888 H   0  0  0  0  0  0  0  0  0  0  0  0
  143.2878  132.1265  148.5074 H   0  0  0  0  0  0  0  0  0  0  0  0
  144.9815  132.4078  148.0735 H   0  0  0  0  0  0  0  0  0  0  0  0
  143.9116  133.7803  148.4020 H   0  0  0  0  0  0  0  0  0  0  0  0
  142.1508  134.5360  152.2289 H   0  0  0  0  0  0  0  0  0  0  0  0
  143.6409  135.2802  151.7163 H   0  0  0  0  0  0  0  0  0  0  0  0
  143.3992  132.7797  153.2287 H   0  0  0  0  0  0  0  0  0  0  0  0
  1  2  1  0  0  0  0
  1 30  1  0  0  0  0
  1 31  1  0  0  0  0
  1 32  1  0  0  0  0
  2 29  1  0  0  0  0
  2  3  1  0  0  0  0
  2 33  1  0  0  0  0
  3  4  1  0  0  0  0
  3 34  1  0  0  0  0
  3 35  1  0  0  0  0
  4  5  1  0  0  0  0
  4 22  1  0  0  0  0
  5 10  1  0  0  0  0
  5  6  2  0  0  0  0
  6  7  1  0  0  0  0
  7  8  2  0  0  0  0
  7 36  1  0  0  0  0
  8  9  1  0  0  0  0
  9 13  1  0  0  0  0
  9 10  2  0  0  0  0
 10 11  1  0  0  0  0
 11 12  2  0  0  0  0
 12 13  1  0  0  0  0
 12 37  1  0  0  0  0
 13 14  1  0  0  0  0
 14 15  1  0  0  0  0
 14 38  1  0  0  0  0
 14 39  1  0  0  0  0
 15 21  1  0  0  0  0
 15 16  1  0  0  0  0
 15 17  1  0  0  0  0
 16 40  1  0  0  0  0
 17 18  1  0  0  0  0
 17 41  1  0  0  0  0
 17 42  1  0  0  0  0
 18 19  1  0  0  0  0
 18 43  1  0  0  0  0
 18 44  1  0  0  0  0
 19 20  1  0  0  0  0
 20 21  1  0  0  0  0
 20 45  1  0  0  0  0
 20 46  1  0  0  0  0
 21 47  1  0  0  0  0
 21 48  1  0  0  0  0
 22 23  1  0  0  0  0
 22 49  1  0  0  0  0
 22 50  1  0  0  0  0
 23 24  1  0  0  0  0
 23 51  1  0  0  0  0
 23 52  1  0  0  0  0
 24 25  1  0  0  0  0
 24 29  1  0  0  0  0
 24 62  1  0  0  0  0
 25 27  1  0  0  0  0
 25 26  1  0  0  0  0
 25 53  1  0  0  0  0
 26 27  1  0  0  0  0
 26 54  1  0  0  0  0
 26 55  1  0  0  0  0
 27 28  1  0  0  0  0
 27 56  1  0  0  0  0
 28 57  1  0  0  0  0
 28 58  1  0  0  0  0
 28 59  1  0  0  0  0
 29 60  1  0  0  0  0
 29 61  1  0  0  0  0
M  CHG  1  24   1
M  END
> <s_m_source_file>
AV-unprocessed.smi

> <i_m_source_file_index>
193

> <i_lp_mmshare_version>
43012

> <i_f3d_flags>
0

> <s_epik_input>
W0NIM11bQ0BASF0xW0NIMl1bQ0BIXTFOKFtDSDJdMilbQ0gyXVtDSDJdTihbQ0gyXVtDQEhdMltDSDNdKWMobltjSF1uMyljKGMzNCluW2NIXW40W0NIMl1DNShbT0hdKVtDSDJdW0NIMl1PW0NIMl1bQ0gyXTU=

> <s_epik_cmdline>
J2VwaWtfcHl0aG9uJywgJy1waCcsICc3LjAnLCAnLXRuJywgJzgnLCAnLW1hJywgJzIwMCcsICctbWV0YWxfYmluZGluZycsICctaW1hZScsICc8aW5maWxlLm1hZT4nLCAnLW9tYWUnLCAnPG91dGZpbGUubWFlPic=

> <r_lp_tautomer_probability>
1

> <r_epik_Ionization_Penalty>
0.0540825

> <r_epik_Ionization_Penalty_Charging>
0.0538476

> <r_epik_Ionization_Penalty_Neutral>
0.000234891

> <r_epik_State_Penalty>
0.0200719

> <r_epik_Charging_Adjusted_Penalty>
0.0739194

> <i_epik_Tot_Q>
1

> <i_epik_Tot_abs_Q>
1

> <r_epik_Metal_State_Penalty>
0.0199414

> <b_epik_Metal_Only>
0

> <s_lp_Force_Field>
OPLS_2005

> <r_lp_Energy>
53.912

> <b_lp_Chiralities_Consistent>
1

> <s_lp_Variant>
AV-unprocessed.smi:193-1

> <Gold.Version>
5.8.1

> <Gold.Id.Protein>
6NUR|6NUR_protein|mol2

> <Gold.PLP.Fitness>
43.5861

> <Gold.PLP.PLP>
-37.8279

> <Gold.PLP.part.hbond>
-2.9700

> <Gold.PLP.part.metal>
0.0000

> <Gold.PLP.part.buried>
-2.1542

> <Gold.PLP.part.nonpolar>
-31.0205

> <Gold.PLP.part.repulsive>
0.4397

> <Gold.PLP.ligand.clash>
0.2083

> <Gold.PLP.ligand.torsion>
1.4653

> <Gold.PLP.Chemscore.Hbond>
2.4766

> <Gold.PLP.Chemscore.CHOScore>
0.0000

> <Gold.PLP.Chemscore.Metal>
0.0000

> <Gold.Chemscore.Hbonds>
donor molecule, donor type, donor heavy atom, donor atom, acceptor molecule, acceptor atom, score
      L1  H    24    62       P1 10957  2.00
      P1  H  8011  8017       L1    16  0.52

> <Gold.PLP.Chemscore.Internal.Correction>
1.4674

> <Gold.Rescore>
     Score         DG    S(hbond)    S(metal)    S(lipo)     H(rot)  DE(clash)    DE(int)     intcor
     13.34     -16.23       1.23        0.00      98.86       1.93       0.22       2.67       ----

> <Gold.Chemscore.Fitness>
13.3410

> <Gold.Chemscore.DG>
-16.2252

> <Gold.Chemscore.ZeroCoef>
-5.4800

> <Gold.Chemscore.Hbond>
1.2326

> <Gold.Chemscore.Metal>
0.0000

> <Gold.Chemscore.Lipo>
98.8592

> <Gold.Chemscore.Internal_Hbond>
0.0000

> <Gold.Chemscore.DEClash>
0.2173

> <Gold.Chemscore.DEInternal>
2.6670

> <Gold.Chemscore.Rot>
1.9290

> <Gold.Chemscore.Internal.Correction>
   9.000000E+99

> <Gold.Chemscore.Hbonds>
donor molecule, donor type, donor heavy atom, donor atom, acceptor molecule, acceptor atom, score
      L1  H    24    62       P1 10957  0.44
      P1  H  8011  8017       L1    16  0.13

> <Gold.Chemscore.Hbond.Weighted>
-4.1170

> <Gold.Chemscore.Metal.Weighted>
-0.0000

> <Gold.Chemscore.Lipo.Weighted>
-11.5665

> <Gold.Chemscore.Internal_Hbond.Weighted>
0.0000

> <Gold.Chemscore.DEClash.Weighted>
0.2173

> <Gold.Chemscore.DEInternal.Weighted>
2.6670

> <Gold.Chemscore.Rot.Weighted>
4.9383

> <Gold.Chemscore.Internal.Correction.Weighted>
   9.000000E+99

> <Gold.Protein.RotatedTorsions>
[ 6907 6896 6895 6894 ] final -118.17 input  -60.11 | X-H torsion
[ 7974 7965 7964 7962 ] final  152.41 input  175.53 | X-H torsion
[ 8008 7997 7996 7995 ] final   86.27 input   59.86 | X-H torsion
[ 10167 10162 10161 10158 ] final -168.48 input  -65.29 | X-H torsion
[ 10718 10713 10712 10709 ] final  141.62 input   66.30 | X-H torsion
[ 10763 10752 10751 10750 ] final  -53.07 input  -60.55 | X-H torsion
[ 11005 11000 10999 10996 ] final  142.42 input  -57.11 | X-H torsion

> <Gold.Protein.ActiveResidues>
 VAL166  LYS551  ARG553  GLY616  TRP617  ASP618  TYR619  PRO620  LYS621  CYS622 
 ASP623  PHE694  ASN695  SER759  ASP760  ASP761  ALA762  ILE779  LEU786  VAL792 
 PHE793  MET794  SER795  GLU796  ALA797  LYS798  CYS799  TRP800  GLU811  SER814 

> <Gold.Protein.RotatedAtoms>
  150.8197  133.8274  159.3144 H   0  0  0  0  0  0  0  0  0  0  0  0  # atno 6907 bound_to 6896
  151.6035  135.1044  160.0075 H   0  0  0  0  0  0  0  0  0  0  0  0  # atno 6908 bound_to 6896
  152.4287  133.7199  159.6584 H   0  0  0  0  0  0  0  0  0  0  0  0  # atno 6909 bound_to 6896
  144.8224  139.6665  143.6094 H   0  0  0  0  0  0  0  0  0  0  0  0  # atno 7974 bound_to 7965
  155.9607  140.3393  155.6488 H   0  0  0  0  0  0  0  0  0  0  0  0  # atno 8008 bound_to 7997
  155.6802  140.0737  157.2506 H   0  0  0  0  0  0  0  0  0  0  0  0  # atno 8009 bound_to 7997
  154.4142  140.1675  156.1962 H   0  0  0  0  0  0  0  0  0  0  0  0  # atno 8010 bound_to 7997
  139.5983  144.1066  152.1714 H   0  0  0  0  0  0  0  0  0  0  0  0  # atno 10167 bound_to 10162
  157.3899  131.1003  151.0656 H   0  0  0  0  0  0  0  0  0  0  0  0  # atno 10718 bound_to 10713
  154.1529  135.6487  153.4967 H   0  0  0  0  0  0  0  0  0  0  0  0  # atno 10763 bound_to 10752
  153.0132  135.5342  154.6790 H   0  0  0  0  0  0  0  0  0  0  0  0  # atno 10764 bound_to 10752
  154.6082  135.2951  155.0432 H   0  0  0  0  0  0  0  0  0  0  0  0  # atno 10765 bound_to 10752
  140.0476  134.9273  157.0958 H   0  0  0  0  0  0  0  0  0  0  0  0  # atno 11005 bound_to 11000
  146.2530  139.6240  142.9414 LP  0  0  0  0  0  0  0  0  0  0  0  0  # atno 17320 bound_to 7965
  145.5075  141.0436  143.2506 LP  0  0  0  0  0  0  0  0  0  0  0  0  # atno 17321 bound_to 7965
  140.0656  144.5821  150.7230 LP  0  0  0  0  0  0  0  0  0  0  0  0  # atno 17342 bound_to 10162
  140.7229  143.2607  151.4218 LP  0  0  0  0  0  0  0  0  0  0  0  0  # atno 17343 bound_to 10162
  157.1694  130.6260  149.5635 LP  0  0  0  0  0  0  0  0  0  0  0  0  # atno 17370 bound_to 10713
  155.9796  130.4790  150.6723 LP  0  0  0  0  0  0  0  0  0  0  0  0  # atno 17371 bound_to 10713
  140.3969  134.2124  155.7164 LP  0  0  0  0  0  0  0  0  0  0  0  0  # atno 17394 bound_to 11000
  141.1914  133.8195  157.0879 LP  0  0  0  0  0  0  0  0  0  0  0  0  # atno 17395 bound_to 11000

$$$$
