AV-unprocessed.smi:1290|AV-procd|sdf|5390|dock1
  -GOLD-   22720 4543D 1   1.00000     0.00000
 Structure written by MMmdl.
 38 40  0  0  0  0  0  0  0  0  1 V2000
  150.5229  138.6699  154.6842 C   0  0  0  0  0  0  0  0  0  0  0  0
  150.7684  138.1792  156.0534 N   0  0  0  0  0  0  0  0  0  0  0  0
  151.7787  138.7549  156.7782 C   0  0  0  0  0  0  0  0  0  0  0  0
  152.5059  139.6622  156.3718 O   0  0  0  0  0  0  0  0  0  0  0  0
  151.9420  138.1905  158.1231 C   0  0  0  0  0  0  0  0  0  0  0  0
  151.1635  137.1893  158.6029 C   0  0  0  0  0  0  0  0  0  0  0  0
  151.5338  136.8385  159.8967 N   0  0  0  0  0  0  0  0  0  0  0  0
  152.5469  137.6719  160.1336 C   0  0  0  0  0  0  0  0  0  0  0  0
  152.8566  138.5127  159.1262 N   0  0  0  0  0  0  0  0  0  0  0  0
  153.9193  139.5075  159.1393 C   0  0  0  0  0  0  0  0  0  0  0  0
  154.0562  140.2171  160.5021 C   0  0  1  0  0  0  0  0  0  0  0  0
  155.4192  140.3488  160.8567 O   0  0  0  0  0  0  0  0  0  0  0  0
  153.3374  141.5569  160.5013 C   0  0  0  0  0  0  0  0  0  0  0  0
  153.1256  142.2558  161.7102 C   0  0  0  0  0  0  0  0  0  0  0  0
  152.4629  143.4984  161.7055 C   0  0  0  0  0  0  0  0  0  0  0  0
  152.0090  144.0505  160.4919 C   0  0  0  0  0  0  0  0  0  0  0  0
  151.1964  145.5727  160.4853 Cl  0  0  0  0  0  0  0  0  0  0  0  0
  152.2204  143.3592  159.2831 C   0  0  0  0  0  0  0  0  0  0  0  0
  152.8837  142.1166  159.2876 C   0  0  0  0  0  0  0  0  0  0  0  0
  150.1429  136.6668  157.7670 N   0  0  0  0  0  0  0  0  0  0  0  0
  149.2922  135.5849  158.2708 C   0  0  0  0  0  0  0  0  0  0  0  0
  149.9513  137.1543  156.4985 C   0  0  0  0  0  0  0  0  0  0  0  0
  149.0680  136.6825  155.7765 O   0  0  0  0  0  0  0  0  0  0  0  0
  151.1403  139.5165  154.3820 H   0  0  0  0  0  0  0  0  0  0  0  0
  149.4866  138.9930  154.5718 H   0  0  0  0  0  0  0  0  0  0  0  0
  150.7066  137.8743  153.9605 H   0  0  0  0  0  0  0  0  0  0  0  0
  153.0836  137.6700  161.0711 H   0  0  0  0  0  0  0  0  0  0  0  0
  154.8570  139.0405  158.8417 H   0  0  0  0  0  0  0  0  0  0  0  0
  153.6977  140.2441  158.3656 H   0  0  0  0  0  0  0  0  0  0  0  0
  153.6010  139.5857  161.2665 H   0  0  0  0  0  0  0  0  0  0  0  0
  155.6009  139.7588  161.5722 H   0  0  0  0  0  0  0  0  0  0  0  0
  153.4730  141.8405  162.6451 H   0  0  0  0  0  0  0  0  0  0  0  0
  152.3040  144.0268  162.6341 H   0  0  0  0  0  0  0  0  0  0  0  0
  151.8744  143.7811  158.3509 H   0  0  0  0  0  0  0  0  0  0  0  0
  153.0420  141.5960  158.3546 H   0  0  0  0  0  0  0  0  0  0  0  0
  148.2406  135.8726  158.2313 H   0  0  0  0  0  0  0  0  0  0  0  0
  149.5134  135.3191  159.3043 H   0  0  0  0  0  0  0  0  0  0  0  0
  149.4225  134.6857  157.6672 H   0  0  0  0  0  0  0  0  0  0  0  0
  1  2  1  0  0  0  0
  1 24  1  0  0  0  0
  1 25  1  0  0  0  0
  1 26  1  0  0  0  0
  2 22  1  0  0  0  0
  2  3  1  0  0  0  0
  3  4  2  0  0  0  0
  3  5  1  0  0  0  0
  5  9  1  0  0  0  0
  5  6  2  0  0  0  0
  6  7  1  0  0  0  0
  6 20  1  0  0  0  0
  7  8  2  0  0  0  0
  8  9  1  0  0  0  0
  8 27  1  0  0  0  0
  9 10  1  0  0  0  0
 10 11  1  0  0  0  0
 10 28  1  0  0  0  0
 10 29  1  0  0  0  0
 11 12  1  0  0  0  0
 11 13  1  0  0  0  0
 11 30  1  0  0  0  0
 12 31  1  0  0  0  0
 13 19  1  0  0  0  0
 13 14  2  0  0  0  0
 14 15  1  0  0  0  0
 14 32  1  0  0  0  0
 15 16  2  0  0  0  0
 15 33  1  0  0  0  0
 16 17  1  0  0  0  0
 16 18  1  0  0  0  0
 18 19  2  0  0  0  0
 18 34  1  0  0  0  0
 19 35  1  0  0  0  0
 20 21  1  0  0  0  0
 20 22  1  0  0  0  0
 21 36  1  0  0  0  0
 21 37  1  0  0  0  0
 21 38  1  0  0  0  0
 22 23  2  0  0  0  0
M  END
> <s_m_source_file>
AV-unprocessed.smi

> <i_m_source_file_index>
1290

> <i_lp_mmshare_version>
43012

> <i_f3d_flags>
0

> <s_epik_input>
Tz1jMW4oW0NIM10pYyg9TyluKFtDSDNdKWMoYzEyKW5bY0hdbjJbQ0gyXVtDQEhdKFtPSF0pYzNbY0hdW2NIXWMoQ2wpW2NIXVtjSF0z

> <s_epik_cmdline>
J2VwaWtfcHl0aG9uJywgJy1waCcsICc3LjAnLCAnLXRuJywgJzgnLCAnLW1hJywgJzIwMCcsICctbWV0YWxfYmluZGluZycsICctaW1hZScsICc8aW5maWxlLm1hZT4nLCAnLW9tYWUnLCAnPG91dGZpbGUubWFlPic=

> <r_lp_tautomer_probability>
1

> <r_epik_Ionization_Penalty>
1.48293e-06

> <r_epik_Ionization_Penalty_Charging>
3.74189e-09

> <r_epik_Ionization_Penalty_Neutral>
1.47919e-06

> <r_epik_State_Penalty>
-0

> <r_epik_Charging_Adjusted_Penalty>
3.74189e-09

> <i_epik_Tot_Q>
0

> <i_epik_Tot_abs_Q>
0

> <r_epik_Metal_State_Penalty>
-0

> <b_epik_Metal_Only>
0

> <s_lp_Force_Field>
OPLS_2005

> <r_lp_Energy>
35.8921

> <b_lp_Chiralities_Consistent>
1

> <s_lp_Variant>
AV-unprocessed.smi:1290-2

> <Gold.Version>
5.8.1

> <Gold.Id.Protein>
6NUR|6NUR_protein|mol2

> <Gold.PLP.Fitness>
48.3014

> <Gold.PLP.PLP>
-44.3734

> <Gold.PLP.part.hbond>
-2.0000

> <Gold.PLP.part.metal>
0.0000

> <Gold.PLP.part.buried>
-5.8474

> <Gold.PLP.part.nonpolar>
-36.8582

> <Gold.PLP.part.repulsive>
0.1091

> <Gold.PLP.ligand.clash>
0.0000

> <Gold.PLP.ligand.torsion>
1.0523

> <Gold.PLP.Chemscore.Hbond>
2.0000

> <Gold.PLP.Chemscore.CHOScore>
0.0000

> <Gold.PLP.Chemscore.Metal>
0.0000

> <Gold.Chemscore.Hbonds>
donor molecule, donor type, donor heavy atom, donor atom, acceptor molecule, acceptor atom, score
      P1  H  6896  6908       L1     7  0.93
      P1  H  7997  8008       L1     4  1.00

> <Gold.PLP.Chemscore.Internal.Correction>
0.0326

> <Gold.Rescore>
     Score         DG    S(hbond)    S(metal)    S(lipo)     H(rot)  DE(clash)    DE(int)     intcor
     18.06     -18.90       1.92        0.00     106.77       2.15       0.00       0.83       ----

> <Gold.Chemscore.Fitness>
18.0594

> <Gold.Chemscore.DG>
-18.8963

> <Gold.Chemscore.ZeroCoef>
-5.4800

> <Gold.Chemscore.Hbond>
1.9227

> <Gold.Chemscore.Metal>
0.0000

> <Gold.Chemscore.Lipo>
106.7672

> <Gold.Chemscore.Internal_Hbond>
0.0000

> <Gold.Chemscore.DEClash>
0.0044

> <Gold.Chemscore.DEInternal>
0.8325

> <Gold.Chemscore.Rot>
2.1474

> <Gold.Chemscore.Internal.Correction>
   9.000000E+99

> <Gold.Chemscore.Hbonds>
donor molecule, donor type, donor heavy atom, donor atom, acceptor molecule, acceptor atom, score
      P1  H  6896  6908       L1     7  0.27
      P1  H  7997  8008       L1     4  0.98

> <Gold.Chemscore.Hbond.Weighted>
-6.4219

> <Gold.Chemscore.Metal.Weighted>
-0.0000

> <Gold.Chemscore.Lipo.Weighted>
-12.4918

> <Gold.Chemscore.Internal_Hbond.Weighted>
0.0000

> <Gold.Chemscore.DEClash.Weighted>
0.0044

> <Gold.Chemscore.DEInternal.Weighted>
0.8325

> <Gold.Chemscore.Rot.Weighted>
5.4974

> <Gold.Chemscore.Internal.Correction.Weighted>
   9.000000E+99

> <Gold.Protein.RotatedTorsions>
[ 6907 6896 6895 6894 ] final -145.98 input  -60.11 | X-H torsion
[ 7974 7965 7964 7962 ] final  -63.96 input  175.53 | X-H torsion
[ 8008 7997 7996 7995 ] final  -30.40 input   59.86 | X-H torsion
[ 10167 10162 10161 10158 ] final  -33.73 input  -65.29 | X-H torsion
[ 10718 10713 10712 10709 ] final  -27.83 input   66.30 | X-H torsion
[ 10763 10752 10751 10750 ] final  -79.61 input  -60.55 | X-H torsion
[ 11005 11000 10999 10996 ] final  -45.65 input  -57.11 | X-H torsion

> <Gold.Protein.ActiveResidues>
 VAL166  LYS551  ARG553  GLY616  TRP617  ASP618  TYR619  PRO620  LYS621  CYS622 
 ASP623  PHE694  ASN695  SER759  ASP760  ASP761  ALA762  ILE779  LEU786  VAL792 
 PHE793  MET794  SER795  GLU796  ALA797  LYS798  CYS799  TRP800  GLU811  SER814 

> <Gold.Protein.RotatedAtoms>
  151.1353  133.5008  159.2597 H   0  0  0  0  0  0  0  0  0  0  0  0  # atno 6907 bound_to 6896
  151.1713  135.0319  159.8763 H   0  0  0  0  0  0  0  0  0  0  0  0  # atno 6908 bound_to 6896
  152.5461  134.1216  159.8454 H   0  0  0  0  0  0  0  0  0  0  0  0  # atno 6909 bound_to 6896
  145.7726  140.8804  143.0372 H   0  0  0  0  0  0  0  0  0  0  0  0  # atno 7974 bound_to 7965
  154.4252  140.1792  156.1401 H   0  0  0  0  0  0  0  0  0  0  0  0  # atno 8008 bound_to 7997
  155.9998  140.3361  155.6810 H   0  0  0  0  0  0  0  0  0  0  0  0  # atno 8009 bound_to 7997
  155.6258  140.0664  157.2655 H   0  0  0  0  0  0  0  0  0  0  0  0  # atno 8010 bound_to 7997
  140.7199  143.3599  151.1984 H   0  0  0  0  0  0  0  0  0  0  0  0  # atno 10167 bound_to 10162
  156.4331  130.4449  149.7103 H   0  0  0  0  0  0  0  0  0  0  0  0  # atno 10718 bound_to 10713
  154.5408  135.5689  153.6838 H   0  0  0  0  0  0  0  0  0  0  0  0  # atno 10763 bound_to 10752
  152.9963  135.6227  154.2505 H   0  0  0  0  0  0  0  0  0  0  0  0  # atno 10764 bound_to 10752
  154.2435  135.2861  155.2824 H   0  0  0  0  0  0  0  0  0  0  0  0  # atno 10765 bound_to 10752
  141.0529  133.6736  156.3043 H   0  0  0  0  0  0  0  0  0  0  0  0  # atno 11005 bound_to 11000
  144.6810  139.9877  143.7484 LP  0  0  0  0  0  0  0  0  0  0  0  0  # atno 17320 bound_to 7965
  146.0154  139.3205  143.0845 LP  0  0  0  0  0  0  0  0  0  0  0  0  # atno 17321 bound_to 7965
  139.7149  143.9317  152.2962 LP  0  0  0  0  0  0  0  0  0  0  0  0  # atno 17342 bound_to 10162
  139.9054  144.6887  150.8619 LP  0  0  0  0  0  0  0  0  0  0  0  0  # atno 17343 bound_to 10162
  156.3998  130.7669  151.2676 LP  0  0  0  0  0  0  0  0  0  0  0  0  # atno 17370 bound_to 10713
  157.7508  131.0243  150.3871 LP  0  0  0  0  0  0  0  0  0  0  0  0  # atno 17371 bound_to 10713
  140.6021  134.5544  157.5519 LP  0  0  0  0  0  0  0  0  0  0  0  0  # atno 17394 bound_to 11000
  139.9365  134.7865  156.0789 LP  0  0  0  0  0  0  0  0  0  0  0  0  # atno 17395 bound_to 11000

$$$$
