AV-unprocessed.smi:39|AV-procd|sdf|365|dock4
  -GOLD-   2262016203D 1   1.00000     0.00000
 Structure written by MMmdl.
 31 32  0  0  0  0  0  0  0  0  4 V2000
  150.9713  144.8643  158.4922 C   0  0  0  0  0  0  0  0  0  0  0  0
  151.5307  143.4554  158.3988 C   0  0  0  0  0  0  0  0  0  0  0  0
  151.2380  142.6297  157.3694 C   0  0  0  0  0  0  0  0  0  0  0  0
  151.7476  141.3439  157.2905 N   0  0  0  0  0  0  0  0  0  0  0  0
  151.4112  140.4180  156.1375 C   0  0  1  0  0  0  0  0  0  0  0  0
  150.7354  139.1362  156.6533 C   0  0  0  0  0  0  0  0  0  0  0  0
  149.4894  139.0455  155.7870 C   0  0  1  0  0  0  0  0  0  0  0  0
  148.3786  138.3613  156.4531 N   0  0  0  0  0  0  0  0  0  0  0  0
  147.8898  138.9340  157.4355 N   0  3  0  0  0  0  0  0  0  0  0  0
  147.3405  139.3867  158.3233 N   0  5  0  0  0  0  0  0  0  0  0  0
  149.1912  140.5207  155.5189 C   0  0  2  0  0  0  0  0  0  0  0  0
  148.3009  140.7569  154.2893 C   0  0  0  0  0  0  0  0  0  0  0  0
  149.0743  141.2580  153.2200 O   0  0  0  0  0  0  0  0  0  0  0  0
  150.4966  141.0351  155.2773 O   0  0  0  0  0  0  0  0  0  0  0  0
  152.6201  140.8747  158.3073 C   0  0  0  0  0  0  0  0  0  0  0  0
  153.0685  139.7325  158.2014 O   0  0  0  0  0  0  0  0  0  0  0  0
  152.9200  141.6999  159.3500 N   0  5  0  0  0  0  0  0  0  0  0  0
  152.4203  142.9642  159.4576 C   0  0  0  0  0  0  0  0  0  0  0  0
  152.6936  143.6963  160.4085 O   0  0  0  0  0  0  0  0  0  0  0  0
  152.3508  140.2500  155.6083 H   0  0  0  0  0  0  0  0  0  0  0  0
  149.7438  138.5587  154.8429 H   0  0  0  0  0  0  0  0  0  0  0  0
  148.7612  140.9792  156.4119 H   0  0  0  0  0  0  0  0  0  0  0  0
  150.3429  145.0997  157.6328 H   0  0  0  0  0  0  0  0  0  0  0  0
  151.7806  145.5941  158.5288 H   0  0  0  0  0  0  0  0  0  0  0  0
  150.3668  144.9744  159.3931 H   0  0  0  0  0  0  0  0  0  0  0  0
  150.5861  142.9992  156.5931 H   0  0  0  0  0  0  0  0  0  0  0  0
  151.3973  138.2765  156.5454 H   0  0  0  0  0  0  0  0  0  0  0  0
  150.4734  139.2493  157.7070 H   0  0  0  0  0  0  0  0  0  0  0  0
  147.7848  139.8438  153.9915 H   0  0  0  0  0  0  0  0  0  0  0  0
  147.5372  141.5014  154.5158 H   0  0  0  0  0  0  0  0  0  0  0  0
  149.2503  140.5504  152.6192 H   0  0  0  0  0  0  0  0  0  0  0  0
  1  2  1  0  0  0  0
  1 23  1  0  0  0  0
  1 24  1  0  0  0  0
  1 25  1  0  0  0  0
  2 18  1  0  0  0  0
  2  3  2  0  0  0  0
  3  4  1  0  0  0  0
  3 26  1  0  0  0  0
  4  5  1  0  0  0  0
  4 15  1  0  0  0  0
  5 20  1  0  0  0  0
  5 14  1  0  0  0  0
  5  6  1  0  0  0  0
  6  7  1  0  0  0  0
  6 27  1  0  0  0  0
  6 28  1  0  0  0  0
  7 21  1  0  0  0  0
  7  8  1  0  0  0  0
  7 11  1  0  0  0  0
  8  9  2  0  0  0  0
  9 10  2  0  0  0  0
 11 22  1  0  0  0  0
 11 12  1  0  0  0  0
 11 14  1  0  0  0  0
 12 13  1  0  0  0  0
 12 29  1  0  0  0  0
 12 30  1  0  0  0  0
 13 31  1  0  0  0  0
 15 16  2  0  0  0  0
 15 17  1  0  0  0  0
 17 18  1  0  0  0  0
 18 19  2  0  0  0  0
M  CHG  1   9   1
M  CHG  1  10  -1
M  CHG  1  17  -1
M  END
> <s_m_source_file>
AV-unprocessed.smi

> <i_m_source_file_index>
39

> <i_lp_mmshare_version>
43012

> <i_f3d_flags>
0

> <s_epik_input>
Tz1jMVtuSF1jKD1PKW4oW2NIXWMxW0NIM10pW0NASF0yW0NIMl1bQ0BIXShOPVtOK109W04tXSlbQ0BIXShPMilbQ0gyXVtPSF0=

> <s_epik_cmdline>
J2VwaWtfcHl0aG9uJywgJy1waCcsICc3LjAnLCAnLXRuJywgJzgnLCAnLW1hJywgJzIwMCcsICctbWV0YWxfYmluZGluZycsICctaW1hZScsICc8aW5maWxlLm1hZT4nLCAnLW9tYWUnLCAnPG91dGZpbGUubWFlPic=

> <r_lp_tautomer_probability>
0.999537

> <r_epik_Ionization_Penalty>
3.6393

> <r_epik_Ionization_Penalty_Charging>
9.76484e-08

> <r_epik_Ionization_Penalty_Neutral>
3.6393

> <r_epik_State_Penalty>
3.63887

> <r_epik_Charging_Adjusted_Penalty>
3.63887

> <i_epik_Tot_Q>
-1

> <i_epik_Tot_abs_Q>
3

> <r_epik_Metal_State_Penalty>
0.225911

> <b_epik_Metal_Only>
1

> <s_epik_Chemistry_Notes>
This compound contains an acetal/aminal-like group ( X-CH(R)-Y where X, Y are N, S, or O) that may be acid/base labile, releasing an aldehyde.

> <s_lp_Force_Field>
OPLS_2005

> <r_lp_Energy>
32.9978

> <b_lp_Chiralities_Consistent>
1

> <s_lp_Variant>
AV-unprocessed.smi:39-15

> <Gold.Version>
5.8.1

> <Gold.Id.Protein>
6NUR|6NUR_protein|mol2

> <Gold.PLP.Fitness>
40.5152

> <Gold.PLP.PLP>
-29.2132

> <Gold.PLP.part.hbond>
-5.5019

> <Gold.PLP.part.metal>
0.0000

> <Gold.PLP.part.buried>
-4.2340

> <Gold.PLP.part.nonpolar>
-17.8694

> <Gold.PLP.part.repulsive>
0.1130

> <Gold.PLP.ligand.clash>
0.0000

> <Gold.PLP.ligand.torsion>
0.7799

> <Gold.PLP.Chemscore.Hbond>
3.5529

> <Gold.PLP.Chemscore.CHOScore>
0.7224

> <Gold.PLP.Chemscore.Metal>
0.0000

> <Gold.Chemscore.Hbonds>
donor molecule, donor type, donor heavy atom, donor atom, acceptor molecule, acceptor atom, score
      L1  H    13    31       P1  7957  0.99
      P1  H  7989  7998       L1    14  0.51
      P1  H  7997  8010       L1    16  0.96
      P1  H  8011  8017       L1    13  0.80
      L1  C     3    26       P1  8028  0.86

> <Gold.PLP.Chemscore.Internal.Correction>
0.0359

> <Gold.Rescore>
     Score         DG    S(hbond)    S(metal)    S(lipo)     H(rot)  DE(clash)    DE(int)     intcor
     11.41     -13.35       2.73        0.00      48.69       2.72       0.39       1.55       ----

> <Gold.Chemscore.Fitness>
11.4102

> <Gold.Chemscore.DG>
-13.3461

> <Gold.Chemscore.ZeroCoef>
-5.4800

> <Gold.Chemscore.Hbond>
2.7308

> <Gold.Chemscore.Metal>
0.0000

> <Gold.Chemscore.Lipo>
48.6884

> <Gold.Chemscore.Internal_Hbond>
0.0000

> <Gold.Chemscore.DEClash>
0.3853

> <Gold.Chemscore.DEInternal>
1.5505

> <Gold.Chemscore.Rot>
2.7153

> <Gold.Chemscore.Internal.Correction>
   9.000000E+99

> <Gold.Chemscore.Hbonds>
donor molecule, donor type, donor heavy atom, donor atom, acceptor molecule, acceptor atom, score
      L1  H    13    31       P1  7957  0.91
      P1  H  7989  7998       L1    14  0.10
      P1  H  7997  8010       L1    16  0.35
      P1  H  8011  8017       L1    13  0.11

> <Gold.Chemscore.Hbond.Weighted>
-9.1207

> <Gold.Chemscore.Metal.Weighted>
-0.0000

> <Gold.Chemscore.Lipo.Weighted>
-5.6965

> <Gold.Chemscore.Internal_Hbond.Weighted>
0.0000

> <Gold.Chemscore.DEClash.Weighted>
0.3853

> <Gold.Chemscore.DEInternal.Weighted>
1.5505

> <Gold.Chemscore.Rot.Weighted>
6.9512

> <Gold.Chemscore.Internal.Correction.Weighted>
   9.000000E+99

> <Gold.Protein.RotatedTorsions>
[ 6907 6896 6895 6894 ] final   40.34 input  -60.11 | X-H torsion
[ 7974 7965 7964 7962 ] final  -14.41 input  175.53 | X-H torsion
[ 8008 7997 7996 7995 ] final   18.22 input   59.86 | X-H torsion
[ 10167 10162 10161 10158 ] final   13.16 input  -65.29 | X-H torsion
[ 10718 10713 10712 10709 ] final   58.16 input   66.30 | X-H torsion
[ 10763 10752 10751 10750 ] final  124.35 input  -60.55 | X-H torsion
[ 11005 11000 10999 10996 ] final    0.08 input  -57.11 | X-H torsion

> <Gold.Protein.ActiveResidues>
 VAL166  LYS551  ARG553  GLY616  TRP617  ASP618  TYR619  PRO620  LYS621  CYS622 
 ASP623  PHE694  ASN695  SER759  ASP760  ASP761  ALA762  ILE779  LEU786  VAL792 
 PHE793  MET794  SER795  GLU796  ALA797  LYS798  CYS799  TRP800  GLU811  SER814 

> <Gold.Protein.RotatedAtoms>
  152.1812  134.8752  160.0525 H   0  0  0  0  0  0  0  0  0  0  0  0  # atno 6907 bound_to 6896
  151.9676  133.3710  159.4067 H   0  0  0  0  0  0  0  0  0  0  0  0  # atno 6908 bound_to 6896
  150.6918  134.4098  159.5200 H   0  0  0  0  0  0  0  0  0  0  0  0  # atno 6909 bound_to 6896
  146.2075  140.3344  142.8402 H   0  0  0  0  0  0  0  0  0  0  0  0  # atno 7974 bound_to 7965
  154.9028  140.3003  155.5308 H   0  0  0  0  0  0  0  0  0  0  0  0  # atno 8008 bound_to 7997
  156.3018  140.2403  156.3993 H   0  0  0  0  0  0  0  0  0  0  0  0  # atno 8009 bound_to 7997
  154.8504  140.0409  157.1589 H   0  0  0  0  0  0  0  0  0  0  0  0  # atno 8010 bound_to 7997
  140.6021  143.8583  150.6976 H   0  0  0  0  0  0  0  0  0  0  0  0  # atno 10167 bound_to 10162
  157.5574  130.8810  149.9057 H   0  0  0  0  0  0  0  0  0  0  0  0  # atno 10718 bound_to 10713
  153.6599  135.3348  155.3124 H   0  0  0  0  0  0  0  0  0  0  0  0  # atno 10763 bound_to 10752
  154.8517  135.4361  154.1815 H   0  0  0  0  0  0  0  0  0  0  0  0  # atno 10764 bound_to 10752
  153.2779  135.7006  153.7490 H   0  0  0  0  0  0  0  0  0  0  0  0  # atno 10765 bound_to 10752
  140.6306  133.9579  155.8272 H   0  0  0  0  0  0  0  0  0  0  0  0  # atno 11005 bound_to 11000
  144.8829  140.7424  143.5975 LP  0  0  0  0  0  0  0  0  0  0  0  0  # atno 17320 bound_to 7965
  145.3265  139.1772  143.4560 LP  0  0  0  0  0  0  0  0  0  0  0  0  # atno 17321 bound_to 7965
  140.2132  143.3867  152.1702 LP  0  0  0  0  0  0  0  0  0  0  0  0  # atno 17342 bound_to 10162
  139.5298  144.7146  151.5096 LP  0  0  0  0  0  0  0  0  0  0  0  0  # atno 17343 bound_to 10162
  156.0631  130.3696  150.0938 LP  0  0  0  0  0  0  0  0  0  0  0  0  # atno 17370 bound_to 10713
  156.9105  130.9650  151.3563 LP  0  0  0  0  0  0  0  0  0  0  0  0  # atno 17371 bound_to 10713
  141.0678  134.0250  157.3569 LP  0  0  0  0  0  0  0  0  0  0  0  0  # atno 17394 bound_to 11000
  139.9118  135.0191  156.7721 LP  0  0  0  0  0  0  0  0  0  0  0  0  # atno 17395 bound_to 11000

$$$$
