AV-unprocessed.smi:1762|AV-procd|sdf|7111|dock3
  -GOLD-   22720 8333D 1   1.00000     0.00000
 Structure written by MMmdl.
 53 54  0  0  0  0  0  0  0  0  2 V2000
  151.7975  134.7457  154.5909 C   0  0  0  0  0  0  0  0  0  0  0  0
  150.4620  135.3106  154.0936 C   0  0  2  0  0  0  0  0  0  0  0  0
  150.3753  136.8365  154.2832 C   0  0  0  0  0  0  0  0  0  0  0  0
  149.0406  137.3511  153.8711 N   0  3  2  0  0  0  0  0  0  0  0  0
  148.8825  138.8455  153.9240 C   0  0  2  0  0  0  0  0  0  0  0  0
  149.3957  139.4080  155.2672 C   0  0  0  0  0  0  0  0  0  0  0  0
  148.8484  139.0868  156.3228 O   0  0  0  0  0  0  0  0  0  0  0  0
  150.4466  140.2399  155.2119 N   0  0  0  0  0  0  0  0  0  0  0  0
  151.0693  140.8558  156.3755 C   0  0  0  0  0  0  0  0  0  0  0  0
  150.9242  142.3830  156.3246 C   0  0  0  0  0  0  0  0  0  0  0  0
  151.5162  143.0549  157.5491 C   0  0  0  0  0  0  0  0  0  0  0  0
  151.4465  144.4554  157.7082 C   0  0  0  0  0  0  0  0  0  0  0  0
  152.0028  145.0268  158.8689 C   0  0  0  0  0  0  0  0  0  0  0  0
  152.6028  144.1803  159.8211 C   0  0  0  0  0  0  0  0  0  0  0  0
  152.6212  142.7944  159.5686 C   0  0  0  0  0  0  0  0  0  0  0  0
  152.0913  142.2363  158.4587 N   0  0  0  0  0  0  0  0  0  0  0  0
  147.4285  139.3513  153.6343 C   0  0  0  0  0  0  0  0  0  0  0  0
  146.8536  138.8224  152.3053 C   0  0  0  0  0  0  0  0  0  0  0  0
  147.2700  140.8848  153.7052 C   0  0  0  0  0  0  0  0  0  0  0  0
  147.9888  136.6266  154.6419 C   0  0  0  0  0  0  0  0  0  0  0  0
  148.1070  135.1011  154.4736 C   0  0  1  0  0  0  0  0  0  0  0  0
  147.6720  134.6008  153.0846 C   0  0  0  0  0  0  0  0  0  0  0  0
  149.4202  134.6727  154.8231 O   0  0  0  0  0  0  0  0  0  0  0  0
  152.6370  135.1920  154.0570 H   0  0  0  0  0  0  0  0  0  0  0  0
  151.8451  133.6670  154.4396 H   0  0  0  0  0  0  0  0  0  0  0  0
  151.9369  134.9384  155.6548 H   0  0  0  0  0  0  0  0  0  0  0  0
  150.3708  135.0695  153.0344 H   0  0  0  0  0  0  0  0  0  0  0  0
  150.5648  137.1063  155.3235 H   0  0  0  0  0  0  0  0  0  0  0  0
  151.1733  137.2733  153.6865 H   0  0  0  0  0  0  0  0  0  0  0  0
  149.5203  139.2458  153.1330 H   0  0  0  0  0  0  0  0  0  0  0  0
  150.8406  140.4601  154.3085 H   0  0  0  0  0  0  0  0  0  0  0  0
  150.6037  140.4641  157.2813 H   0  0  0  0  0  0  0  0  0  0  0  0
  152.1259  140.5839  156.4117 H   0  0  0  0  0  0  0  0  0  0  0  0
  151.4173  142.7770  155.4346 H   0  0  0  0  0  0  0  0  0  0  0  0
  149.8714  142.6562  156.2393 H   0  0  0  0  0  0  0  0  0  0  0  0
  150.9766  145.0783  156.9613 H   0  0  0  0  0  0  0  0  0  0  0  0
  151.9689  146.0944  159.0263 H   0  0  0  0  0  0  0  0  0  0  0  0
  153.0374  144.5835  160.7239 H   0  0  0  0  0  0  0  0  0  0  0  0
  153.0724  142.1159  160.2775 H   0  0  0  0  0  0  0  0  0  0  0  0
  146.7711  138.9202  154.3879 H   0  0  0  0  0  0  0  0  0  0  0  0
  147.3478  139.2632  151.4390 H   0  0  0  0  0  0  0  0  0  0  0  0
  145.7916  139.0560  152.2225 H   0  0  0  0  0  0  0  0  0  0  0  0
  146.9551  137.7391  152.2344 H   0  0  0  0  0  0  0  0  0  0  0  0
  147.8016  141.3830  152.8942 H   0  0  0  0  0  0  0  0  0  0  0  0
  147.6442  141.2934  154.6433 H   0  0  0  0  0  0  0  0  0  0  0  0
  146.2205  141.1695  153.6254 H   0  0  0  0  0  0  0  0  0  0  0  0
  148.0862  136.8839  155.6979 H   0  0  0  0  0  0  0  0  0  0  0  0
  146.9845  136.9271  154.3447 H   0  0  0  0  0  0  0  0  0  0  0  0
  147.4383  134.6358  155.1984 H   0  0  0  0  0  0  0  0  0  0  0  0
  146.6197  134.8239  152.9071 H   0  0  0  0  0  0  0  0  0  0  0  0
  147.7970  133.5209  153.0035 H   0  0  0  0  0  0  0  0  0  0  0  0
  148.2395  135.0659  152.2790 H   0  0  0  0  0  0  0  0  0  0  0  0
  148.9218  137.0937  152.9014 H   0  0  0  0  0  0  0  0  0  0  0  0
  1  2  1  0  0  0  0
  1 24  1  0  0  0  0
  1 25  1  0  0  0  0
  1 26  1  0  0  0  0
  2 23  1  0  0  0  0
  2  3  1  0  0  0  0
  2 27  1  0  0  0  0
  3  4  1  0  0  0  0
  3 28  1  0  0  0  0
  3 29  1  0  0  0  0
  4  5  1  0  0  0  0
  4 20  1  0  0  0  0
  4 53  1  0  0  0  0
  5  6  1  0  0  0  0
  5 17  1  0  0  0  0
  5 30  1  0  0  0  0
  6  7  2  0  0  0  0
  6  8  1  0  0  0  0
  8  9  1  0  0  0  0
  8 31  1  0  0  0  0
  9 10  1  0  0  0  0
  9 32  1  0  0  0  0
  9 33  1  0  0  0  0
 10 11  1  0  0  0  0
 10 34  1  0  0  0  0
 10 35  1  0  0  0  0
 11 16  1  0  0  0  0
 11 12  2  0  0  0  0
 12 13  1  0  0  0  0
 12 36  1  0  0  0  0
 13 14  2  0  0  0  0
 13 37  1  0  0  0  0
 14 15  1  0  0  0  0
 14 38  1  0  0  0  0
 15 16  2  0  0  0  0
 15 39  1  0  0  0  0
 17 18  1  0  0  0  0
 17 19  1  0  0  0  0
 17 40  1  0  0  0  0
 18 41  1  0  0  0  0
 18 42  1  0  0  0  0
 18 43  1  0  0  0  0
 19 44  1  0  0  0  0
 19 45  1  0  0  0  0
 19 46  1  0  0  0  0
 20 21  1  0  0  0  0
 20 47  1  0  0  0  0
 20 48  1  0  0  0  0
 21 22  1  0  0  0  0
 21 23  1  0  0  0  0
 21 49  1  0  0  0  0
 22 50  1  0  0  0  0
 22 51  1  0  0  0  0
 22 52  1  0  0  0  0
M  CHG  1   4   1
M  END
> <s_m_source_file>
AV-unprocessed.smi

> <i_m_source_file_index>
1762

> <i_lp_mmshare_version>
43012

> <i_f3d_flags>
0

> <s_epik_input>
W0NIM11bQ0BASF0xW0NIMl1OKFtDSDJdW0NASF0oTzEpW0NIM10pW0NAQEhdKFtDSF0oW0NIM10pW0NIM10pQyg9TylbTkhdW0NIMl1bQ0gyXWMyW2NIXVtjSF1bY0hdW2NIXW4y

> <s_epik_cmdline>
J2VwaWtfcHl0aG9uJywgJy1waCcsICc3LjAnLCAnLXRuJywgJzgnLCAnLW1hJywgJzIwMCcsICctbWV0YWxfYmluZGluZycsICctaW1hZScsICc8aW5maWxlLm1hZT4nLCAnLW9tYWUnLCAnPG91dGZpbGUubWFlPic=

> <r_epik_Ionization_Penalty>
2.27005

> <r_epik_Ionization_Penalty_Charging>
2.24983

> <r_epik_Ionization_Penalty_Neutral>
0.0202209

> <r_epik_State_Penalty>
2.40228

> <r_epik_Charging_Adjusted_Penalty>
4.65211

> <i_epik_Tot_Q>
1

> <i_epik_Tot_abs_Q>
1

> <r_epik_Metal_State_Penalty>
2.40762

> <b_epik_Metal_Only>
0

> <s_lp_Force_Field>
OPLS_2005

> <r_lp_Energy>
24.4928

> <b_lp_Chiralities_Consistent>
1

> <s_lp_Variant>
AV-unprocessed.smi:1762-13

> <Gold.Version>
5.8.1

> <Gold.Id.Protein>
6NUR|6NUR_protein|mol2

> <Gold.PLP.Fitness>
45.7012

> <Gold.PLP.PLP>
-39.9234

> <Gold.PLP.part.hbond>
-1.0000

> <Gold.PLP.part.metal>
0.0000

> <Gold.PLP.part.buried>
-4.9918

> <Gold.PLP.part.nonpolar>
-35.8551

> <Gold.PLP.part.repulsive>
0.1170

> <Gold.PLP.ligand.clash>
0.0000

> <Gold.PLP.ligand.torsion>
0.2261

> <Gold.PLP.Chemscore.Hbond>
2.0000

> <Gold.PLP.Chemscore.CHOScore>
0.0000

> <Gold.PLP.Chemscore.Metal>
0.0000

> <Gold.Chemscore.Hbonds>
donor molecule, donor type, donor heavy atom, donor atom, acceptor molecule, acceptor atom, score
      L1  H     4    53       P1  7948  1.01

> <Gold.PLP.Chemscore.Internal.Correction>
0.2301

> <Gold.Rescore>
     Score         DG    S(hbond)    S(metal)    S(lipo)     H(rot)  DE(clash)    DE(int)     intcor
     17.63     -18.03       0.99        0.00     115.37       1.66       0.00       0.39       ----

> <Gold.Chemscore.Fitness>
17.6304

> <Gold.Chemscore.DG>
-18.0256

> <Gold.Chemscore.ZeroCoef>
-5.4800

> <Gold.Chemscore.Hbond>
0.9898

> <Gold.Chemscore.Metal>
0.0000

> <Gold.Chemscore.Lipo>
115.3711

> <Gold.Chemscore.Internal_Hbond>
0.0000

> <Gold.Chemscore.DEClash>
0.0023

> <Gold.Chemscore.DEInternal>
0.3929

> <Gold.Chemscore.Rot>
1.6635

> <Gold.Chemscore.Internal.Correction>
   9.000000E+99

> <Gold.Chemscore.Hbonds>
donor molecule, donor type, donor heavy atom, donor atom, acceptor molecule, acceptor atom, score
      L1  H     4    53       P1  7948  0.49

> <Gold.Chemscore.Hbond.Weighted>
-3.3058

> <Gold.Chemscore.Metal.Weighted>
-0.0000

> <Gold.Chemscore.Lipo.Weighted>
-13.4984

> <Gold.Chemscore.Internal_Hbond.Weighted>
0.0000

> <Gold.Chemscore.DEClash.Weighted>
0.0023

> <Gold.Chemscore.DEInternal.Weighted>
0.3929

> <Gold.Chemscore.Rot.Weighted>
4.2586

> <Gold.Chemscore.Internal.Correction.Weighted>
   9.000000E+99

> <Gold.Protein.RotatedTorsions>
[ 6907 6896 6895 6894 ] final  179.57 input  -60.11 | X-H torsion
[ 7974 7965 7964 7962 ] final   78.34 input  175.53 | X-H torsion
[ 8008 7997 7996 7995 ] final -134.33 input   59.86 | X-H torsion
[ 10167 10162 10161 10158 ] final -163.84 input  -65.29 | X-H torsion
[ 10718 10713 10712 10709 ] final -157.48 input   66.30 | X-H torsion
[ 10763 10752 10751 10750 ] final  112.83 input  -60.55 | X-H torsion
[ 11005 11000 10999 10996 ] final   50.72 input  -57.11 | X-H torsion

> <Gold.Protein.ActiveResidues>
 VAL166  LYS551  ARG553  GLY616  TRP617  ASP618  TYR619  PRO620  LYS621  CYS622 
 ASP623  PHE694  ASN695  SER759  ASP760  ASP761  ALA762  ILE779  LEU786  VAL792 
 PHE793  MET794  SER795  GLU796  ALA797  LYS798  CYS799  TRP800  GLU811  SER814 

> <Gold.Protein.RotatedAtoms>
  151.6696  133.3314  159.3193 H   0  0  0  0  0  0  0  0  0  0  0  0  # atno 6907 bound_to 6896
  150.7874  134.6874  159.6487 H   0  0  0  0  0  0  0  0  0  0  0  0  # atno 6908 bound_to 6896
  152.3947  134.6389  160.0146 H   0  0  0  0  0  0  0  0  0  0  0  0  # atno 6909 bound_to 6896
  145.6784  139.2516  143.1828 H   0  0  0  0  0  0  0  0  0  0  0  0  # atno 7974 bound_to 7965
  155.3602  140.0482  157.3046 H   0  0  0  0  0  0  0  0  0  0  0  0  # atno 8008 bound_to 7997
  154.5182  140.2215  155.8990 H   0  0  0  0  0  0  0  0  0  0  0  0  # atno 8009 bound_to 7997
  156.1660  140.3106  155.8895 H   0  0  0  0  0  0  0  0  0  0  0  0  # atno 8010 bound_to 7997
  139.6292  144.0472  152.2001 H   0  0  0  0  0  0  0  0  0  0  0  0  # atno 10167 bound_to 10162
  156.5409  130.8563  151.2748 H   0  0  0  0  0  0  0  0  0  0  0  0  # atno 10718 bound_to 10713
  153.4835  135.3674  155.2454 H   0  0  0  0  0  0  0  0  0  0  0  0  # atno 10763 bound_to 10752
  154.8754  135.3960  154.3672 H   0  0  0  0  0  0  0  0  0  0  0  0  # atno 10764 bound_to 10752
  153.4280  135.7082  153.6315 H   0  0  0  0  0  0  0  0  0  0  0  0  # atno 10765 bound_to 10752
  140.0993  134.5103  155.8777 H   0  0  0  0  0  0  0  0  0  0  0  0  # atno 11005 bound_to 11000
  146.0985  140.7571  142.9560 LP  0  0  0  0  0  0  0  0  0  0  0  0  # atno 17320 bound_to 7965
  144.7034  140.3750  143.7137 LP  0  0  0  0  0  0  0  0  0  0  0  0  # atno 17321 bound_to 7965
  140.0134  144.6207  150.7628 LP  0  0  0  0  0  0  0  0  0  0  0  0  # atno 17342 bound_to 10162
  140.7429  143.2838  151.3520 LP  0  0  0  0  0  0  0  0  0  0  0  0  # atno 17343 bound_to 10162
  157.7405  130.9852  150.2384 LP  0  0  0  0  0  0  0  0  0  0  0  0  # atno 17370 bound_to 10713
  156.2972  130.3753  149.7784 LP  0  0  0  0  0  0  0  0  0  0  0  0  # atno 17371 bound_to 10713
  141.2101  133.6691  156.6486 LP  0  0  0  0  0  0  0  0  0  0  0  0  # atno 17394 bound_to 11000
  140.3242  134.7982  157.4276 LP  0  0  0  0  0  0  0  0  0  0  0  0  # atno 17395 bound_to 11000

$$$$
