AV-unprocessed.smi:2106|AV-procd|sdf|8596|dock8
  -GOLD-   2272011333D 1   1.00000     0.00000
 Structure written by MMmdl.
 48 49  0  0  0  0  0  0  0  0  2 V2000
  153.9496  141.7759  160.9877 C   0  0  0  0  0  0  0  0  0  0  0  0
  152.9821  142.4928  160.0930 C   0  0  0  0  0  0  0  0  0  0  0  0
  152.4183  143.7877  160.2643 C   0  0  0  0  0  0  0  0  0  0  0  0
  151.6122  143.9525  159.1736 C   0  0  0  0  0  0  0  0  0  0  0  0
  150.7498  145.1066  158.7810 C   0  0  0  0  0  0  0  0  0  0  0  0
  151.7180  142.7975  158.4184 N   0  0  0  0  0  0  0  0  0  0  0  0
  151.0762  142.4631  157.1569 C   0  0  0  0  0  0  0  0  0  0  0  0
  150.5134  141.0413  157.1869 C   0  0  0  0  0  0  0  0  0  0  0  0
  149.5732  140.7661  157.9321 O   0  0  0  0  0  0  0  0  0  0  0  0
  151.0938  140.1486  156.3697 N   0  0  0  0  0  0  0  0  0  0  0  0
  150.6787  138.7590  156.2167 C   0  0  0  0  0  0  0  0  0  0  0  0
  150.5409  138.3620  154.7334 C   0  0  0  0  0  0  0  0  0  0  0  0
  149.7536  137.1179  154.5427 N   0  3  1  0  0  0  0  0  0  0  0  0
  150.5199  135.9076  154.9246 C   0  0  0  0  0  0  0  0  0  0  0  0
  149.6946  134.6340  154.6609 C   0  0  1  0  0  0  0  0  0  0  0  0
  150.4229  133.3667  155.1220 C   0  0  0  0  0  0  0  0  0  0  0  0
  148.4666  134.7213  155.3745 O   0  0  0  0  0  0  0  0  0  0  0  0
  147.6704  135.8256  154.9605 C   0  0  1  0  0  0  0  0  0  0  0  0
  146.3419  135.7687  155.7231 C   0  0  0  0  0  0  0  0  0  0  0  0
  148.4396  137.1323  155.2324 C   0  0  0  0  0  0  0  0  0  0  0  0
  152.5590  141.9048  158.9860 N   0  0  0  0  0  0  0  0  0  0  0  0
  154.1734  142.3652  161.8772 H   0  0  0  0  0  0  0  0  0  0  0  0
  154.8908  141.5826  160.4730 H   0  0  0  0  0  0  0  0  0  0  0  0
  153.5454  140.8185  161.3176 H   0  0  0  0  0  0  0  0  0  0  0  0
  152.5818  144.4911  161.0674 H   0  0  0  0  0  0  0  0  0  0  0  0
  150.8335  145.9177  159.5043 H   0  0  0  0  0  0  0  0  0  0  0  0
  149.7020  144.8100  158.7305 H   0  0  0  0  0  0  0  0  0  0  0  0
  151.0405  145.4969  157.8059 H   0  0  0  0  0  0  0  0  0  0  0  0
  150.2806  143.1820  156.9529 H   0  0  0  0  0  0  0  0  0  0  0  0
  151.8012  142.5596  156.3481 H   0  0  0  0  0  0  0  0  0  0  0  0
  151.8570  140.4665  155.7892 H   0  0  0  0  0  0  0  0  0  0  0  0
  151.3942  138.1223  156.7375 H   0  0  0  0  0  0  0  0  0  0  0  0
  149.7225  138.6343  156.7255 H   0  0  0  0  0  0  0  0  0  0  0  0
  150.0442  139.1796  154.2084 H   0  0  0  0  0  0  0  0  0  0  0  0
  151.5193  138.2445  154.2652 H   0  0  0  0  0  0  0  0  0  0  0  0
  151.4497  135.8660  154.3560 H   0  0  0  0  0  0  0  0  0  0  0  0
  150.7918  135.9687  155.9799 H   0  0  0  0  0  0  0  0  0  0  0  0
  149.4848  134.5452  153.5934 H   0  0  0  0  0  0  0  0  0  0  0  0
  151.3729  133.2473  154.6006 H   0  0  0  0  0  0  0  0  0  0  0  0
  149.8221  132.4787  154.9242 H   0  0  0  0  0  0  0  0  0  0  0  0
  150.6298  133.3967  156.1923 H   0  0  0  0  0  0  0  0  0  0  0  0
  147.4608  135.7371  153.8929 H   0  0  0  0  0  0  0  0  0  0  0  0
  145.6878  136.5918  155.4347 H   0  0  0  0  0  0  0  0  0  0  0  0
  146.5011  135.8296  156.8001 H   0  0  0  0  0  0  0  0  0  0  0  0
  145.8138  134.8374  155.5167 H   0  0  0  0  0  0  0  0  0  0  0  0
  148.5933  137.2621  156.3050 H   0  0  0  0  0  0  0  0  0  0  0  0
  147.8392  137.9750  154.8917 H   0  0  0  0  0  0  0  0  0  0  0  0
  149.5695  137.0382  153.5527 H   0  0  0  0  0  0  0  0  0  0  0  0
  1  2  1  0  0  0  0
  1 22  1  0  0  0  0
  1 23  1  0  0  0  0
  1 24  1  0  0  0  0
  2 21  2  0  0  0  0
  2  3  1  0  0  0  0
  3  4  2  0  0  0  0
  3 25  1  0  0  0  0
  4  5  1  0  0  0  0
  4  6  1  0  0  0  0
  5 26  1  0  0  0  0
  5 27  1  0  0  0  0
  5 28  1  0  0  0  0
  6  7  1  0  0  0  0
  6 21  1  0  0  0  0
  7  8  1  0  0  0  0
  7 29  1  0  0  0  0
  7 30  1  0  0  0  0
  8  9  2  0  0  0  0
  8 10  1  0  0  0  0
 10 11  1  0  0  0  0
 10 31  1  0  0  0  0
 11 12  1  0  0  0  0
 11 32  1  0  0  0  0
 11 33  1  0  0  0  0
 12 13  1  0  0  0  0
 12 34  1  0  0  0  0
 12 35  1  0  0  0  0
 13 20  1  0  0  0  0
 13 14  1  0  0  0  0
 13 48  1  0  0  0  0
 14 15  1  0  0  0  0
 14 36  1  0  0  0  0
 14 37  1  0  0  0  0
 15 16  1  0  0  0  0
 15 17  1  0  0  0  0
 15 38  1  0  0  0  0
 16 39  1  0  0  0  0
 16 40  1  0  0  0  0
 16 41  1  0  0  0  0
 17 18  1  0  0  0  0
 18 19  1  0  0  0  0
 18 20  1  0  0  0  0
 18 42  1  0  0  0  0
 19 43  1  0  0  0  0
 19 44  1  0  0  0  0
 19 45  1  0  0  0  0
 20 46  1  0  0  0  0
 20 47  1  0  0  0  0
M  CHG  1  13   1
M  END
> <s_m_source_file>
AV-unprocessed.smi

> <i_m_source_file_index>
2106

> <i_lp_mmshare_version>
43012

> <i_f3d_flags>
0

> <s_epik_input>
W0NIM11jMVtjSF1jKFtDSDNdKW4objEpW0NIMl1DKD1PKVtOSF1bQ0gyXVtDSDJdTjJbQ0gyXVtDQEBIXShbQ0gzXSlPW0NAQEhdKFtDSDNdKVtDSDJdMg==

> <s_epik_cmdline>
J2VwaWtfcHl0aG9uJywgJy1waCcsICc3LjAnLCAnLXRuJywgJzgnLCAnLW1hJywgJzIwMCcsICctbWV0YWxfYmluZGluZycsICctaW1hZScsICc8aW5maWxlLm1hZT4nLCAnLW9tYWUnLCAnPG91dGZpbGUubWFlPic=

> <r_lp_tautomer_probability>
1

> <r_epik_Ionization_Penalty>
0.748586

> <r_epik_Ionization_Penalty_Charging>
0.748396

> <r_epik_Ionization_Penalty_Neutral>
0.000189656

> <r_epik_State_Penalty>
0.775162

> <r_epik_Charging_Adjusted_Penalty>
1.52356

> <i_epik_Tot_Q>
1

> <i_epik_Tot_abs_Q>
1

> <r_epik_Metal_State_Penalty>
0.775295

> <b_epik_Metal_Only>
0

> <s_lp_Force_Field>
OPLS_2005

> <r_lp_Energy>
12.4658

> <b_lp_Chiralities_Consistent>
1

> <s_lp_Variant>
AV-unprocessed.smi:2106-4

> <Gold.Version>
5.8.1

> <Gold.Id.Protein>
6NUR|6NUR_protein|mol2

> <Gold.PLP.Fitness>
41.8398

> <Gold.PLP.PLP>
-36.6608

> <Gold.PLP.part.hbond>
-1.0000

> <Gold.PLP.part.metal>
0.0000

> <Gold.PLP.part.buried>
-6.0256

> <Gold.PLP.part.nonpolar>
-30.3773

> <Gold.PLP.part.repulsive>
0.2208

> <Gold.PLP.ligand.clash>
0.0000

> <Gold.PLP.ligand.torsion>
0.4225

> <Gold.PLP.Chemscore.Hbond>
2.0000

> <Gold.PLP.Chemscore.CHOScore>
0.0000

> <Gold.PLP.Chemscore.Metal>
0.0000

> <Gold.Chemscore.Hbonds>
donor molecule, donor type, donor heavy atom, donor atom, acceptor molecule, acceptor atom, score
      L1  H    13    48       P1  7948  2.00

> <Gold.PLP.Chemscore.Internal.Correction>
0.0240

> <Gold.Rescore>
     Score         DG    S(hbond)    S(metal)    S(lipo)     H(rot)  DE(clash)    DE(int)     intcor
     14.92     -15.46       0.98        0.00      95.16       1.73       0.06       0.48       ----

> <Gold.Chemscore.Fitness>
14.9206

> <Gold.Chemscore.DG>
-15.4593

> <Gold.Chemscore.ZeroCoef>
-5.4800

> <Gold.Chemscore.Hbond>
0.9818

> <Gold.Chemscore.Metal>
0.0000

> <Gold.Chemscore.Lipo>
95.1552

> <Gold.Chemscore.Internal_Hbond>
0.0000

> <Gold.Chemscore.DEClash>
0.0621

> <Gold.Chemscore.DEInternal>
0.4766

> <Gold.Chemscore.Rot>
1.7316

> <Gold.Chemscore.Internal.Correction>
   9.000000E+99

> <Gold.Chemscore.Hbonds>
donor molecule, donor type, donor heavy atom, donor atom, acceptor molecule, acceptor atom, score
      L1  H    13    48       P1  7948  0.81

> <Gold.Chemscore.Hbond.Weighted>
-3.2791

> <Gold.Chemscore.Metal.Weighted>
-0.0000

> <Gold.Chemscore.Lipo.Weighted>
-11.1332

> <Gold.Chemscore.Internal_Hbond.Weighted>
0.0000

> <Gold.Chemscore.DEClash.Weighted>
0.0621

> <Gold.Chemscore.DEInternal.Weighted>
0.4766

> <Gold.Chemscore.Rot.Weighted>
4.4330

> <Gold.Chemscore.Internal.Correction.Weighted>
   9.000000E+99

> <Gold.Protein.RotatedTorsions>
[ 6907 6896 6895 6894 ] final  142.43 input  -60.11 | X-H torsion
[ 7974 7965 7964 7962 ] final -167.85 input  175.53 | X-H torsion
[ 8008 7997 7996 7995 ] final  -67.32 input   59.86 | X-H torsion
[ 10167 10162 10161 10158 ] final  -89.34 input  -65.29 | X-H torsion
[ 10718 10713 10712 10709 ] final -135.50 input   66.30 | X-H torsion
[ 10763 10752 10751 10750 ] final  -32.54 input  -60.55 | X-H torsion
[ 11005 11000 10999 10996 ] final   42.50 input  -57.11 | X-H torsion

> <Gold.Protein.ActiveResidues>
 VAL166  LYS551  ARG553  GLY616  TRP617  ASP618  TYR619  PRO620  LYS621  CYS622 
 ASP623  PHE694  ASN695  SER759  ASP760  ASP761  ALA762  ILE779  LEU786  VAL792 
 PHE793  MET794  SER795  GLU796  ALA797  LYS798  CYS799  TRP800  GLU811  SER814 

> <Gold.Protein.RotatedAtoms>
  152.2188  133.4967  159.5150 H   0  0  0  0  0  0  0  0  0  0  0  0  # atno 6907 bound_to 6896
  150.7007  134.1370  159.4100 H   0  0  0  0  0  0  0  0  0  0  0  0  # atno 6908 bound_to 6896
  151.9291  135.0264  160.0578 H   0  0  0  0  0  0  0  0  0  0  0  0  # atno 6909 bound_to 6896
  144.7214  140.2457  143.6285 H   0  0  0  0  0  0  0  0  0  0  0  0  # atno 7974 bound_to 7965
  154.4792  140.0895  156.7337 H   0  0  0  0  0  0  0  0  0  0  0  0  # atno 8008 bound_to 7997
  155.4514  140.3457  155.4283 H   0  0  0  0  0  0  0  0  0  0  0  0  # atno 8009 bound_to 7997
  156.1165  140.1462  156.9253 H   0  0  0  0  0  0  0  0  0  0  0  0  # atno 8010 bound_to 7997
  140.3658  143.2819  151.9560 H   0  0  0  0  0  0  0  0  0  0  0  0  # atno 10167 bound_to 10162
  156.2668  130.7242  151.1196 H   0  0  0  0  0  0  0  0  0  0  0  0  # atno 10718 bound_to 10713
  153.8154  135.6879  153.4834 H   0  0  0  0  0  0  0  0  0  0  0  0  # atno 10763 bound_to 10752
  153.1602  135.4583  154.9759 H   0  0  0  0  0  0  0  0  0  0  0  0  # atno 10764 bound_to 10752
  154.7950  135.3315  154.7631 H   0  0  0  0  0  0  0  0  0  0  0  0  # atno 10765 bound_to 10752
  140.1733  134.4194  155.8243 H   0  0  0  0  0  0  0  0  0  0  0  0  # atno 11005 bound_to 11000
  145.8276  139.2071  143.1901 LP  0  0  0  0  0  0  0  0  0  0  0  0  # atno 17320 bound_to 7965
  146.0459  140.8118  142.9806 LP  0  0  0  0  0  0  0  0  0  0  0  0  # atno 17321 bound_to 7965
  139.4809  144.5952  151.7703 LP  0  0  0  0  0  0  0  0  0  0  0  0  # atno 17342 bound_to 10162
  140.5082  144.1065  150.5988 LP  0  0  0  0  0  0  0  0  0  0  0  0  # atno 17343 bound_to 10162
  157.7270  131.0642  150.5884 LP  0  0  0  0  0  0  0  0  0  0  0  0  # atno 17370 bound_to 10713
  156.5977  130.4346  149.5910 LP  0  0  0  0  0  0  0  0  0  0  0  0  # atno 17371 bound_to 10713
  141.2219  133.6966  156.7803 LP  0  0  0  0  0  0  0  0  0  0  0  0  # atno 17394 bound_to 11000
  140.2351  134.8656  157.3517 LP  0  0  0  0  0  0  0  0  0  0  0  0  # atno 17395 bound_to 11000

$$$$
