AV-unprocessed.smi:1648|AV-procd|sdf|6627|dock2
  -GOLD-   22720 7323D 1   1.00000     0.00000
 Structure written by MMmdl.
 42 42  0  0  0  0  0  0  0  0  2 V2000
  151.0161  129.0693  156.3583 C   0  0  0  0  0  0  0  0  0  0  0  0
  150.3672  129.6490  155.1000 C   0  0  0  0  0  0  0  0  0  0  0  0
  150.5962  130.8148  154.7869 O   0  0  0  0  0  0  0  0  0  0  0  0
  149.5556  128.8740  154.3601 N   0  0  0  0  0  0  0  0  0  0  0  0
  148.8481  129.2467  153.1324 C   0  0  2  0  0  0  0  0  0  0  0  0
  148.0224  130.5072  153.4471 C   0  0  0  0  0  0  0  0  0  0  0  0
  147.4004  130.5960  154.5068 O   0  0  0  0  0  0  0  0  0  0  0  0
  148.0406  131.4794  152.5213 N   0  0  0  0  0  0  0  0  0  0  0  0
  147.3731  132.7757  152.6337 C   0  0  2  0  0  0  0  0  0  0  0  0
  147.9567  133.5306  153.8355 C   0  0  0  0  0  0  0  0  0  0  0  0
  145.8436  132.6026  152.7696 C   0  0  0  0  0  0  0  0  0  0  0  0
  145.1413  132.6534  151.4816 N   0  0  0  0  0  0  0  0  0  0  0  0
  145.5646  132.1367  150.2836 C   0  0  0  0  0  0  0  0  0  0  0  0
  144.5785  132.4074  149.3704 C   0  0  0  0  0  0  0  0  0  0  0  0
  143.6006  133.0873  150.0454 N   0  3  0  0  0  0  0  0  0  0  0  0
  143.9497  133.2458  151.3259 C   0  0  0  0  0  0  0  0  0  0  0  0
  147.9043  128.0798  152.7185 C   0  0  0  0  0  0  0  0  0  0  0  0
  148.6930  126.7999  152.3787 C   0  0  0  0  0  0  0  0  0  0  0  0
  146.9913  128.4408  151.5281 C   0  0  0  0  0  0  0  0  0  0  0  0
  150.2586  128.8610  157.1143 H   0  0  0  0  0  0  0  0  0  0  0  0
  151.7296  129.7764  156.7829 H   0  0  0  0  0  0  0  0  0  0  0  0
  151.5516  128.1462  156.1389 H   0  0  0  0  0  0  0  0  0  0  0  0
  149.3679  127.9454  154.7098 H   0  0  0  0  0  0  0  0  0  0  0  0
  149.5497  129.4426  152.3196 H   0  0  0  0  0  0  0  0  0  0  0  0
  148.5694  131.3141  151.6769 H   0  0  0  0  0  0  0  0  0  0  0  0
  147.5836  133.3752  151.7461 H   0  0  0  0  0  0  0  0  0  0  0  0
  147.5076  134.5193  153.9333 H   0  0  0  0  0  0  0  0  0  0  0  0
  149.0330  133.6689  153.7276 H   0  0  0  0  0  0  0  0  0  0  0  0
  147.7814  132.9924  154.7677 H   0  0  0  0  0  0  0  0  0  0  0  0
  145.6017  131.6602  153.2644 H   0  0  0  0  0  0  0  0  0  0  0  0
  145.4280  133.3988  153.3884 H   0  0  0  0  0  0  0  0  0  0  0  0
  146.5062  131.6181  150.1758 H   0  0  0  0  0  0  0  0  0  0  0  0
  144.5012  132.1729  148.3187 H   0  0  0  0  0  0  0  0  0  0  0  0
  143.3741  133.7438  152.0852 H   0  0  0  0  0  0  0  0  0  0  0  0
  147.2551  127.8376  153.5619 H   0  0  0  0  0  0  0  0  0  0  0  0
  149.3908  126.9723  151.5586 H   0  0  0  0  0  0  0  0  0  0  0  0
  148.0227  125.9937  152.0785 H   0  0  0  0  0  0  0  0  0  0  0  0
  149.2655  126.4342  153.2311 H   0  0  0  0  0  0  0  0  0  0  0  0
  147.5769  128.7351  150.6564 H   0  0  0  0  0  0  0  0  0  0  0  0
  146.3102  129.2587  151.7639 H   0  0  0  0  0  0  0  0  0  0  0  0
  146.3723  127.5912  151.2380 H   0  0  0  0  0  0  0  0  0  0  0  0
  142.7375  133.4234  149.6364 H   0  0  0  0  0  0  0  0  0  0  0  0
  1  2  1  0  0  0  0
  1 20  1  0  0  0  0
  1 21  1  0  0  0  0
  1 22  1  0  0  0  0
  2  3  2  0  0  0  0
  2  4  1  0  0  0  0
  4  5  1  0  0  0  0
  4 23  1  0  0  0  0
  5  6  1  0  0  0  0
  5 17  1  0  0  0  0
  5 24  1  0  0  0  0
  6  7  2  0  0  0  0
  6  8  1  0  0  0  0
  8  9  1  0  0  0  0
  8 25  1  0  0  0  0
  9 10  1  0  0  0  0
  9 11  1  0  0  0  0
  9 26  1  0  0  0  0
 10 27  1  0  0  0  0
 10 28  1  0  0  0  0
 10 29  1  0  0  0  0
 11 12  1  0  0  0  0
 11 30  1  0  0  0  0
 11 31  1  0  0  0  0
 12 16  1  0  0  0  0
 12 13  1  0  0  0  0
 13 14  2  0  0  0  0
 13 32  1  0  0  0  0
 14 15  1  0  0  0  0
 14 33  1  0  0  0  0
 15 16  2  0  0  0  0
 15 42  1  0  0  0  0
 16 34  1  0  0  0  0
 17 18  1  0  0  0  0
 17 19  1  0  0  0  0
 17 35  1  0  0  0  0
 18 36  1  0  0  0  0
 18 37  1  0  0  0  0
 18 38  1  0  0  0  0
 19 39  1  0  0  0  0
 19 40  1  0  0  0  0
 19 41  1  0  0  0  0
M  CHG  1  15   1
M  END
> <s_m_source_file>
AV-unprocessed.smi

> <i_m_source_file_index>
1648

> <i_lp_mmshare_version>
43012

> <i_f3d_flags>
0

> <s_epik_input>
W0NIM11DKD1PKVtOSF1bQ0BASF0oW0NIXShbQ0gzXSlbQ0gzXSlDKD1PKVtOSF1bQ0BIXShbQ0gzXSlbQ0gyXW4xW2NIXVtjSF1uW2NIXTE=

> <s_epik_cmdline>
J2VwaWtfcHl0aG9uJywgJy1waCcsICc3LjAnLCAnLXRuJywgJzgnLCAnLW1hJywgJzIwMCcsICctbWV0YWxfYmluZGluZycsICctaW1hZScsICc8aW5maWxlLm1hZT4nLCAnLW9tYWUnLCAnPG91dGZpbGUubWFlPic=

> <r_lp_tautomer_probability>
1

> <r_epik_Ionization_Penalty>
0.251562

> <r_epik_Ionization_Penalty_Charging>
0

> <r_epik_Ionization_Penalty_Neutral>
0.251562

> <r_epik_State_Penalty>
0.242926

> <r_epik_Charging_Adjusted_Penalty>
0.242926

> <i_epik_Tot_Q>
1

> <i_epik_Tot_abs_Q>
1

> <r_epik_Metal_State_Penalty>
0.53388

> <b_epik_Metal_Only>
0

> <s_lp_Force_Field>
OPLS_2005

> <r_lp_Energy>
9.98337

> <b_lp_Chiralities_Consistent>
1

> <s_lp_Variant>
AV-unprocessed.smi:1648-1

> <Gold.Version>
5.8.1

> <Gold.Id.Protein>
6NUR|6NUR_protein|mol2

> <Gold.PLP.Fitness>
42.0928

> <Gold.PLP.PLP>
-32.6366

> <Gold.PLP.part.hbond>
-1.9952

> <Gold.PLP.part.metal>
0.0000

> <Gold.PLP.part.buried>
-5.9905

> <Gold.PLP.part.nonpolar>
-25.3557

> <Gold.PLP.part.repulsive>
0.1726

> <Gold.PLP.ligand.clash>
0.0000

> <Gold.PLP.ligand.torsion>
1.2402

> <Gold.PLP.Chemscore.Hbond>
2.9825

> <Gold.PLP.Chemscore.CHOScore>
0.9669

> <Gold.PLP.Chemscore.Metal>
0.0000

> <Gold.Chemscore.Hbonds>
donor molecule, donor type, donor heavy atom, donor atom, acceptor molecule, acceptor atom, score
      L1  H     8    25       P1 10747  0.96
      L1  H    15    42       P1 10186  2.00
      L1  C    13    32       P1 10747  0.88

> <Gold.PLP.Chemscore.Internal.Correction>
0.0883

> <Gold.Rescore>
     Score         DG    S(hbond)    S(metal)    S(lipo)     H(rot)  DE(clash)    DE(int)     intcor
     10.47     -13.42       1.98        0.00      68.54       2.61       0.04       2.91       ----

> <Gold.Chemscore.Fitness>
10.4660

> <Gold.Chemscore.DG>
-13.4217

> <Gold.Chemscore.ZeroCoef>
-5.4800

> <Gold.Chemscore.Hbond>
1.9801

> <Gold.Chemscore.Metal>
0.0000

> <Gold.Chemscore.Lipo>
68.5386

> <Gold.Chemscore.Internal_Hbond>
0.0000

> <Gold.Chemscore.DEClash>
0.0448

> <Gold.Chemscore.DEInternal>
2.9109

> <Gold.Chemscore.Rot>
2.6135

> <Gold.Chemscore.Internal.Correction>
   9.000000E+99

> <Gold.Chemscore.Hbonds>
donor molecule, donor type, donor heavy atom, donor atom, acceptor molecule, acceptor atom, score
      L1  H     8    25       P1 10747  0.91
      L1  H    15    42       P1 10186  0.95

> <Gold.Chemscore.Hbond.Weighted>
-6.6134

> <Gold.Chemscore.Metal.Weighted>
-0.0000

> <Gold.Chemscore.Lipo.Weighted>
-8.0190

> <Gold.Chemscore.Internal_Hbond.Weighted>
0.0000

> <Gold.Chemscore.DEClash.Weighted>
0.0448

> <Gold.Chemscore.DEInternal.Weighted>
2.9109

> <Gold.Chemscore.Rot.Weighted>
6.6906

> <Gold.Chemscore.Internal.Correction.Weighted>
   9.000000E+99

> <Gold.Protein.RotatedTorsions>
[ 6907 6896 6895 6894 ] final   12.16 input  -60.11 | X-H torsion
[ 7974 7965 7964 7962 ] final   30.93 input  175.53 | X-H torsion
[ 8008 7997 7996 7995 ] final  102.64 input   59.86 | X-H torsion
[ 10167 10162 10161 10158 ] final  -48.45 input  -65.29 | X-H torsion
[ 10718 10713 10712 10709 ] final  174.49 input   66.30 | X-H torsion
[ 10763 10752 10751 10750 ] final -115.41 input  -60.55 | X-H torsion
[ 11005 11000 10999 10996 ] final -131.29 input  -57.11 | X-H torsion

> <Gold.Protein.ActiveResidues>
 VAL166  LYS551  ARG553  GLY616  TRP617  ASP618  TYR619  PRO620  LYS621  CYS622 
 ASP623  PHE694  ASN695  SER759  ASP760  ASP761  ALA762  ILE779  LEU786  VAL792 
 PHE793  MET794  SER795  GLU796  ALA797  LYS798  CYS799  TRP800  GLU811  SER814 

> <Gold.Protein.RotatedAtoms>
  151.7659  135.0798  160.0352 H   0  0  0  0  0  0  0  0  0  0  0  0  # atno 6907 bound_to 6896
  152.3321  133.5966  159.5825 H   0  0  0  0  0  0  0  0  0  0  0  0  # atno 6908 bound_to 6896
  150.7429  133.9767  159.3605 H   0  0  0  0  0  0  0  0  0  0  0  0  # atno 6909 bound_to 6896
  146.1581  139.6723  142.9052 H   0  0  0  0  0  0  0  0  0  0  0  0  # atno 7974 bound_to 7965
  156.1411  140.3178  155.8497 H   0  0  0  0  0  0  0  0  0  0  0  0  # atno 8008 bound_to 7997
  155.4152  140.0508  157.3046 H   0  0  0  0  0  0  0  0  0  0  0  0  # atno 8009 bound_to 7997
  154.4977  140.2117  155.9424 H   0  0  0  0  0  0  0  0  0  0  0  0  # atno 8010 bound_to 7997
  140.6730  143.2740  151.4072 H   0  0  0  0  0  0  0  0  0  0  0  0  # atno 10167 bound_to 10162
  156.9488  131.0024  151.2953 H   0  0  0  0  0  0  0  0  0  0  0  0  # atno 10718 bound_to 10713
  154.8480  135.4382  154.1659 H   0  0  0  0  0  0  0  0  0  0  0  0  # atno 10763 bound_to 10752
  153.2785  135.6951  153.7415 H   0  0  0  0  0  0  0  0  0  0  0  0  # atno 10764 bound_to 10752
  153.6629  135.3432  155.3107 H   0  0  0  0  0  0  0  0  0  0  0  0  # atno 10765 bound_to 10752
  140.9271  134.1368  157.4266 H   0  0  0  0  0  0  0  0  0  0  0  0  # atno 11005 bound_to 11000
  145.4657  141.0434  143.2727 LP  0  0  0  0  0  0  0  0  0  0  0  0  # atno 17320 bound_to 7965
  144.7990  139.6177  143.7080 LP  0  0  0  0  0  0  0  0  0  0  0  0  # atno 17321 bound_to 7965
  139.6008  144.1299  152.2196 LP  0  0  0  0  0  0  0  0  0  0  0  0  # atno 17342 bound_to 10162
  140.0683  144.5800  150.7211 LP  0  0  0  0  0  0  0  0  0  0  0  0  # atno 17343 bound_to 10162
  157.5736  130.8327  149.8425 LP  0  0  0  0  0  0  0  0  0  0  0  0  # atno 17370 bound_to 10713
  156.0372  130.3748  150.1530 LP  0  0  0  0  0  0  0  0  0  0  0  0  # atno 17371 bound_to 10713
  139.8788  134.9992  156.5942 LP  0  0  0  0  0  0  0  0  0  0  0  0  # atno 17394 bound_to 11000
  140.7911  133.8581  155.8647 LP  0  0  0  0  0  0  0  0  0  0  0  0  # atno 17395 bound_to 11000

$$$$
