AV-unprocessed.smi:3303|AV-procd|sdf|12678|dock1
  -GOLD-   2272019 13D 1   1.00000     0.00000
 Structure written by MMmdl.
 44 45  0  0  0  0  0  0  0  0  2 V2000
  147.2031  141.4964  153.7831 C   0  0  0  0  0  0  0  0  0  0  0  0
  148.5817  140.8199  153.8681 C   0  0  1  0  0  0  0  0  0  0  0  0
  149.3313  141.3130  155.1232 C   0  0  0  0  0  0  0  0  0  0  0  0
  150.6460  140.6798  155.2256 N   0  0  0  0  0  0  0  0  0  0  0  0
  151.4234  141.2901  156.2969 C   0  0  0  0  0  0  0  0  0  0  0  0
  150.5721  139.2156  155.3381 C   0  0  1  0  0  0  0  0  0  0  0  0
  149.9348  138.7010  156.6492 C   0  0  0  0  0  0  0  0  0  0  0  0
  149.8693  138.6624  154.0818 C   0  0  0  0  0  0  0  0  0  0  0  0
  148.4757  139.2793  153.8630 C   0  0  2  0  0  0  0  0  0  0  0  0
  147.9172  138.7974  152.5800 N   0  3  0  0  0  0  0  0  0  0  0  0
  146.4661  138.5269  152.5972 C   0  0  0  0  0  0  0  0  0  0  0  0
  146.1301  137.3917  153.5736 C   0  0  0  0  0  0  0  0  0  0  0  0
  145.2718  136.3185  152.9314 C   0  0  0  0  0  0  0  0  0  0  0  0
  145.2427  136.1621  151.5291 C   0  0  0  0  0  0  0  0  0  0  0  0
  144.4226  135.1552  150.9838 C   0  0  0  0  0  0  0  0  0  0  0  0
  143.6681  134.3483  151.8571 C   0  0  0  0  0  0  0  0  0  0  0  0
  143.7653  134.5864  153.2426 C   0  0  0  0  0  0  0  0  0  0  0  0
  144.5469  135.5508  153.7758 N   0  0  0  0  0  0  0  0  0  0  0  0
  146.5704  141.2118  154.6245 H   0  0  0  0  0  0  0  0  0  0  0  0
  146.6782  141.2290  152.8659 H   0  0  0  0  0  0  0  0  0  0  0  0
  147.3002  142.5825  153.7953 H   0  0  0  0  0  0  0  0  0  0  0  0
  149.1594  141.1279  152.9948 H   0  0  0  0  0  0  0  0  0  0  0  0
  149.4644  142.3936  155.0552 H   0  0  0  0  0  0  0  0  0  0  0  0
  148.7455  141.1294  156.0241 H   0  0  0  0  0  0  0  0  0  0  0  0
  152.4053  140.8227  156.3757 H   0  0  0  0  0  0  0  0  0  0  0  0
  150.9212  141.2066  157.2610 H   0  0  0  0  0  0  0  0  0  0  0  0
  151.5781  142.3502  156.0934 H   0  0  0  0  0  0  0  0  0  0  0  0
  151.5982  138.8457  155.3187 H   0  0  0  0  0  0  0  0  0  0  0  0
  149.9098  137.6111  156.6573 H   0  0  0  0  0  0  0  0  0  0  0  0
  148.9104  139.0456  156.7863 H   0  0  0  0  0  0  0  0  0  0  0  0
  150.5077  139.0041  157.5250 H   0  0  0  0  0  0  0  0  0  0  0  0
  150.4958  138.8676  153.2120 H   0  0  0  0  0  0  0  0  0  0  0  0
  149.7922  137.5762  154.1471 H   0  0  0  0  0  0  0  0  0  0  0  0
  147.8243  138.9719  154.6825 H   0  0  0  0  0  0  0  0  0  0  0  0
  148.0976  139.5009  151.8780 H   0  0  0  0  0  0  0  0  0  0  0  0
  145.9357  139.4381  152.8780 H   0  0  0  0  0  0  0  0  0  0  0  0
  146.1394  138.2571  151.5920 H   0  0  0  0  0  0  0  0  0  0  0  0
  147.0485  136.9379  153.9488 H   0  0  0  0  0  0  0  0  0  0  0  0
  145.6063  137.7888  154.4447 H   0  0  0  0  0  0  0  0  0  0  0  0
  145.8325  136.7970  150.8840 H   0  0  0  0  0  0  0  0  0  0  0  0
  144.3724  135.0052  149.9152 H   0  0  0  0  0  0  0  0  0  0  0  0
  143.0298  133.5659  151.4739 H   0  0  0  0  0  0  0  0  0  0  0  0
  143.1993  133.9874  153.9409 H   0  0  0  0  0  0  0  0  0  0  0  0
  148.4020  137.9514  152.3160 H   0  0  0  0  0  0  0  0  0  0  0  0
  1  2  1  0  0  0  0
  1 19  1  0  0  0  0
  1 20  1  0  0  0  0
  1 21  1  0  0  0  0
  2  9  1  0  0  0  0
  2  3  1  0  0  0  0
  2 22  1  0  0  0  0
  3  4  1  0  0  0  0
  3 23  1  0  0  0  0
  3 24  1  0  0  0  0
  4  5  1  0  0  0  0
  4  6  1  0  0  0  0
  5 25  1  0  0  0  0
  5 26  1  0  0  0  0
  5 27  1  0  0  0  0
  6  7  1  0  0  0  0
  6  8  1  0  0  0  0
  6 28  1  0  0  0  0
  7 29  1  0  0  0  0
  7 30  1  0  0  0  0
  7 31  1  0  0  0  0
  8  9  1  0  0  0  0
  8 32  1  0  0  0  0
  8 33  1  0  0  0  0
  9 10  1  0  0  0  0
  9 34  1  0  0  0  0
 10 11  1  0  0  0  0
 10 35  1  0  0  0  0
 10 44  1  0  0  0  0
 11 12  1  0  0  0  0
 11 36  1  0  0  0  0
 11 37  1  0  0  0  0
 12 13  1  0  0  0  0
 12 38  1  0  0  0  0
 12 39  1  0  0  0  0
 13 18  1  0  0  0  0
 13 14  2  0  0  0  0
 14 15  1  0  0  0  0
 14 40  1  0  0  0  0
 15 16  2  0  0  0  0
 15 41  1  0  0  0  0
 16 17  1  0  0  0  0
 16 42  1  0  0  0  0
 17 18  2  0  0  0  0
 17 43  1  0  0  0  0
M  CHG  1  10   1
M  END
> <s_m_source_file>
AV-unprocessed.smi

> <i_m_source_file_index>
3303

> <i_lp_mmshare_version>
43012

> <i_f3d_flags>
0

> <s_epik_input>
W0NIM11bQ0BASF0xW0NIMl1OKFtDSDNdKVtDQEBIXShbQ0gzXSlbQ0gyXVtDQEhdMVtOSF1bQ0gyXVtDSDJdYzJbY0hdW2NIXVtjSF1bY0hdbjI=

> <s_epik_cmdline>
J2VwaWtfcHl0aG9uJywgJy1waCcsICc3LjAnLCAnLXRuJywgJzgnLCAnLW1hJywgJzIwMCcsICctbWV0YWxfYmluZGluZycsICctaW1hZScsICc8aW5maWxlLm1hZT4nLCAnLW9tYWUnLCAnPG91dGZpbGUubWFlPic=

> <r_epik_Ionization_Penalty>
1.37325

> <r_epik_Ionization_Penalty_Charging>
0.000251572

> <r_epik_Ionization_Penalty_Neutral>
1.373

> <r_epik_State_Penalty>
1.46343

> <r_epik_Charging_Adjusted_Penalty>
1.46368

> <i_epik_Tot_Q>
1

> <i_epik_Tot_abs_Q>
1

> <r_epik_Metal_State_Penalty>
1.46331

> <b_epik_Metal_Only>
0

> <s_lp_Force_Field>
OPLS_2005

> <r_lp_Energy>
23.1884

> <b_lp_Chiralities_Consistent>
1

> <s_lp_Variant>
AV-unprocessed.smi:3303-22

> <Gold.Version>
5.8.1

> <Gold.Id.Protein>
6NUR|6NUR_protein|mol2

> <Gold.PLP.Fitness>
43.8339

> <Gold.PLP.PLP>
-32.6060

> <Gold.PLP.part.hbond>
-2.6204

> <Gold.PLP.part.metal>
0.0000

> <Gold.PLP.part.buried>
-1.5928

> <Gold.PLP.part.nonpolar>
-28.6229

> <Gold.PLP.part.repulsive>
0.1908

> <Gold.PLP.ligand.clash>
0.0000

> <Gold.PLP.ligand.torsion>
1.1897

> <Gold.PLP.Chemscore.Hbond>
3.5165

> <Gold.PLP.Chemscore.CHOScore>
1.0000

> <Gold.PLP.Chemscore.Metal>
0.0000

> <Gold.Chemscore.Hbonds>
donor molecule, donor type, donor heavy atom, donor atom, acceptor molecule, acceptor atom, score
      L1  H    10    35       P1  7957  0.64
      L1  H    10    44       P1  7948  2.00
      P1  H  7989  7998       L1     4  0.90
      L1  C    17    43       P1 10957  1.00

> <Gold.PLP.Chemscore.Internal.Correction>
0.0577

> <Gold.Rescore>
     Score         DG    S(hbond)    S(metal)    S(lipo)     H(rot)  DE(clash)    DE(int)     intcor
     17.13     -18.50       1.99        0.00      83.65       1.33       0.25       1.11       ----

> <Gold.Chemscore.Fitness>
17.1345

> <Gold.Chemscore.DG>
-18.4953

> <Gold.Chemscore.ZeroCoef>
-5.4800

> <Gold.Chemscore.Hbond>
1.9858

> <Gold.Chemscore.Metal>
0.0000

> <Gold.Chemscore.Lipo>
83.6496

> <Gold.Chemscore.Internal_Hbond>
0.0000

> <Gold.Chemscore.DEClash>
0.2506

> <Gold.Chemscore.DEInternal>
1.1102

> <Gold.Chemscore.Rot>
1.3298

> <Gold.Chemscore.Internal.Correction>
   9.000000E+99

> <Gold.Chemscore.Hbonds>
donor molecule, donor type, donor heavy atom, donor atom, acceptor molecule, acceptor atom, score
      L1  H    10    35       P1  7957  0.64
      L1  H    10    44       P1  7948  1.00
      P1  H  7989  7998       L1     4  0.13

> <Gold.Chemscore.Hbond.Weighted>
-6.6326

> <Gold.Chemscore.Metal.Weighted>
-0.0000

> <Gold.Chemscore.Lipo.Weighted>
-9.7870

> <Gold.Chemscore.Internal_Hbond.Weighted>
0.0000

> <Gold.Chemscore.DEClash.Weighted>
0.2506

> <Gold.Chemscore.DEInternal.Weighted>
1.1102

> <Gold.Chemscore.Rot.Weighted>
3.4043

> <Gold.Chemscore.Internal.Correction.Weighted>
   9.000000E+99

> <Gold.Protein.RotatedTorsions>
[ 6907 6896 6895 6894 ] final  -48.42 input  -60.11 | X-H torsion
[ 7974 7965 7964 7962 ] final  174.67 input  175.53 | X-H torsion
[ 8008 7997 7996 7995 ] final   88.53 input   59.86 | X-H torsion
[ 10167 10162 10161 10158 ] final  176.73 input  -65.29 | X-H torsion
[ 10718 10713 10712 10709 ] final   -4.90 input   66.30 | X-H torsion
[ 10763 10752 10751 10750 ] final  -32.69 input  -60.55 | X-H torsion
[ 11005 11000 10999 10996 ] final -141.83 input  -57.11 | X-H torsion

> <Gold.Protein.ActiveResidues>
 VAL166  LYS551  ARG553  GLY616  TRP617  ASP618  TYR619  PRO620  LYS621  CYS622 
 ASP623  PHE694  ASN695  SER759  ASP760  ASP761  ALA762  ILE779  LEU786  VAL792 
 PHE793  MET794  SER795  GLU796  ALA797  LYS798  CYS799  TRP800  GLU811  SER814 

> <Gold.Protein.RotatedAtoms>
  150.8907  134.8310  159.7291 H   0  0  0  0  0  0  0  0  0  0  0  0  # atno 6907 bound_to 6896
  152.4835  134.4652  159.9628 H   0  0  0  0  0  0  0  0  0  0  0  0  # atno 6908 bound_to 6896
  151.4715  133.3529  159.2859 H   0  0  0  0  0  0  0  0  0  0  0  0  # atno 6909 bound_to 6896
  144.7217  139.9832  143.6439 H   0  0  0  0  0  0  0  0  0  0  0  0  # atno 7974 bound_to 7965
  155.9889  140.3370  155.6734 H   0  0  0  0  0  0  0  0  0  0  0  0  # atno 8008 bound_to 7997
  155.6448  140.0699  157.2624 H   0  0  0  0  0  0  0  0  0  0  0  0  # atno 8009 bound_to 7997
  154.4213  140.1736  156.1599 H   0  0  0  0  0  0  0  0  0  0  0  0  # atno 8010 bound_to 7997
  139.5225  144.2881  152.0487 H   0  0  0  0  0  0  0  0  0  0  0  0  # atno 10167 bound_to 10162
  156.7545  130.5250  149.5797 H   0  0  0  0  0  0  0  0  0  0  0  0  # atno 10718 bound_to 10713
  153.8179  135.6877  153.4831 H   0  0  0  0  0  0  0  0  0  0  0  0  # atno 10763 bound_to 10752
  153.1587  135.4588  154.9740 H   0  0  0  0  0  0  0  0  0  0  0  0  # atno 10764 bound_to 10752
  154.7940  135.3312  154.7654 H   0  0  0  0  0  0  0  0  0  0  0  0  # atno 10765 bound_to 10752
  140.8285  134.2545  157.4868 H   0  0  0  0  0  0  0  0  0  0  0  0  # atno 11005 bound_to 11000
  146.0471  139.3476  143.0662 LP  0  0  0  0  0  0  0  0  0  0  0  0  # atno 17320 bound_to 7965
  145.8262  140.9654  143.0873 LP  0  0  0  0  0  0  0  0  0  0  0  0  # atno 17321 bound_to 7965
  140.2334  144.4345  150.6290 LP  0  0  0  0  0  0  0  0  0  0  0  0  # atno 17342 bound_to 10162
  140.6340  143.2192  151.6435 LP  0  0  0  0  0  0  0  0  0  0  0  0  # atno 17343 bound_to 10162
  156.1379  130.6224  151.0426 LP  0  0  0  0  0  0  0  0  0  0  0  0  # atno 17370 bound_to 10713
  157.6762  131.0849  150.7488 LP  0  0  0  0  0  0  0  0  0  0  0  0  # atno 17371 bound_to 10713
  139.8705  134.9573  156.4266 LP  0  0  0  0  0  0  0  0  0  0  0  0  # atno 17394 bound_to 11000
  140.9023  133.7770  155.9695 LP  0  0  0  0  0  0  0  0  0  0  0  0  # atno 17395 bound_to 11000

$$$$
