AV-unprocessed.smi:1945|AV-procd|sdf|7857|dock10
  -GOLD-   2272010 03D 1   1.00000     0.00000
 Structure written by MMmdl.
 47 48  0  0  0  0  0  0  0  0  1 V2000
  151.2030  141.9473  157.5659 C   0  0  0  0  0  0  0  0  0  0  0  0
  150.8700  140.9934  156.4571 C   0  0  0  0  0  0  0  0  0  0  0  0
  149.7140  140.9866  155.6235 C   0  0  0  0  0  0  0  0  0  0  0  0
  149.9406  139.9152  154.8034 C   0  0  0  0  0  0  0  0  0  0  0  0
  149.1694  139.4373  153.7908 N   0  0  0  0  0  0  0  0  0  0  0  0
  148.0232  138.7396  153.8684 C   0  0  0  0  0  0  0  0  0  0  0  0
  147.5121  138.3228  154.9079 O   0  0  0  0  0  0  0  0  0  0  0  0
  147.4929  138.5448  152.6522 N   0  0  0  0  0  0  0  0  0  0  0  0
  146.2204  137.8817  152.3861 C   0  0  0  0  0  0  0  0  0  0  0  0
  146.3888  136.7213  151.3940 C   0  0  0  0  0  0  0  0  0  0  0  0
  145.5441  135.6507  151.7874 O   0  0  0  0  0  0  0  0  0  0  0  0
  145.6015  134.5042  150.9511 C   0  0  2  0  0  0  0  0  0  0  0  0
  144.2274  134.3017  150.2774 C   0  0  0  0  0  0  0  0  0  0  0  0
  144.1755  132.9905  149.4796 C   0  0  0  0  0  0  0  0  0  0  0  0
  144.5284  131.7907  150.3695 C   0  0  0  0  0  0  0  0  0  0  0  0
  145.9005  131.9821  151.0326 C   0  0  0  0  0  0  0  0  0  0  0  0
  145.9668  133.2939  151.8403 C   0  0  1  0  0  0  0  0  0  0  0  0
  147.3499  133.4622  152.4895 C   0  0  0  0  0  0  0  0  0  0  0  0
  151.1498  139.3470  155.1371 N   0  0  0  0  0  0  0  0  0  0  0  0
  151.8221  138.2004  154.5580 C   0  0  0  0  0  0  0  0  0  0  0  0
  151.7181  140.0136  156.1651 N   0  0  0  0  0  0  0  0  0  0  0  0
  150.4700  142.7519  157.6267 H   0  0  0  0  0  0  0  0  0  0  0  0
  152.1817  142.4027  157.4123 H   0  0  0  0  0  0  0  0  0  0  0  0
  151.2180  141.4382  158.5297 H   0  0  0  0  0  0  0  0  0  0  0  0
  148.8747  141.6655  155.6387 H   0  0  0  0  0  0  0  0  0  0  0  0
  149.4906  139.6642  152.8613 H   0  0  0  0  0  0  0  0  0  0  0  0
  147.9877  138.9131  151.8532 H   0  0  0  0  0  0  0  0  0  0  0  0
  145.8488  137.4946  153.3350 H   0  0  0  0  0  0  0  0  0  0  0  0
  145.4740  138.5931  152.0285 H   0  0  0  0  0  0  0  0  0  0  0  0
  146.1657  137.0606  150.3821 H   0  0  0  0  0  0  0  0  0  0  0  0
  147.4235  136.3761  151.3985 H   0  0  0  0  0  0  0  0  0  0  0  0
  146.3752  134.6273  150.1904 H   0  0  0  0  0  0  0  0  0  0  0  0
  143.4467  134.2922  151.0395 H   0  0  0  0  0  0  0  0  0  0  0  0
  143.9968  135.1345  149.6138 H   0  0  0  0  0  0  0  0  0  0  0  0
  143.1823  132.8561  149.0503 H   0  0  0  0  0  0  0  0  0  0  0  0
  144.8717  133.0436  148.6416 H   0  0  0  0  0  0  0  0  0  0  0  0
  143.7641  131.6667  151.1379 H   0  0  0  0  0  0  0  0  0  0  0  0
  144.5251  130.8744  149.7785 H   0  0  0  0  0  0  0  0  0  0  0  0
  146.1102  131.1328  151.6839 H   0  0  0  0  0  0  0  0  0  0  0  0
  146.6767  131.9813  150.2662 H   0  0  0  0  0  0  0  0  0  0  0  0
  145.2301  133.2291  152.6428 H   0  0  0  0  0  0  0  0  0  0  0  0
  148.1336  133.5469  151.7360 H   0  0  0  0  0  0  0  0  0  0  0  0
  147.5903  132.6103  153.1262 H   0  0  0  0  0  0  0  0  0  0  0  0
  147.3900  134.3559  153.1128 H   0  0  0  0  0  0  0  0  0  0  0  0
  151.7562  138.2426  153.4704 H   0  0  0  0  0  0  0  0  0  0  0  0
  151.3473  137.2844  154.9096 H   0  0  0  0  0  0  0  0  0  0  0  0
  152.8747  138.1895  154.8444 H   0  0  0  0  0  0  0  0  0  0  0  0
  1  2  1  0  0  0  0
  1 22  1  0  0  0  0
  1 23  1  0  0  0  0
  1 24  1  0  0  0  0
  2 21  2  0  0  0  0
  2  3  1  0  0  0  0
  3  4  2  0  0  0  0
  3 25  1  0  0  0  0
  4  5  1  0  0  0  0
  4 19  1  0  0  0  0
  5  6  1  0  0  0  0
  5 26  1  0  0  0  0
  6  7  2  0  0  0  0
  6  8  1  0  0  0  0
  8  9  1  0  0  0  0
  8 27  1  0  0  0  0
  9 10  1  0  0  0  0
  9 28  1  0  0  0  0
  9 29  1  0  0  0  0
 10 11  1  0  0  0  0
 10 30  1  0  0  0  0
 10 31  1  0  0  0  0
 11 12  1  0  0  0  0
 12 17  1  0  0  0  0
 12 13  1  0  0  0  0
 12 32  1  0  0  0  0
 13 14  1  0  0  0  0
 13 33  1  0  0  0  0
 13 34  1  0  0  0  0
 14 15  1  0  0  0  0
 14 35  1  0  0  0  0
 14 36  1  0  0  0  0
 15 16  1  0  0  0  0
 15 37  1  0  0  0  0
 15 38  1  0  0  0  0
 16 17  1  0  0  0  0
 16 39  1  0  0  0  0
 16 40  1  0  0  0  0
 17 18  1  0  0  0  0
 17 41  1  0  0  0  0
 18 42  1  0  0  0  0
 18 43  1  0  0  0  0
 18 44  1  0  0  0  0
 19 20  1  0  0  0  0
 19 21  1  0  0  0  0
 20 45  1  0  0  0  0
 20 46  1  0  0  0  0
 20 47  1  0  0  0  0
M  END
> <s_m_source_file>
AV-unprocessed.smi

> <i_m_source_file_index>
1945

> <i_lp_mmshare_version>
43012

> <i_f3d_flags>
0

> <s_epik_input>
W0NIM11jMVtjSF1jKG4objEpW0NIM10pW05IXUMoPU8pW05IXVtDSDJdW0NIMl1PW0NAQEhdMltDSDJdW0NIMl1bQ0gyXVtDSDJdW0NASF0yW0NIM10=

> <s_epik_cmdline>
J2VwaWtfcHl0aG9uJywgJy1waCcsICc3LjAnLCAnLXRuJywgJzgnLCAnLW1hJywgJzIwMCcsICctbWV0YWxfYmluZGluZycsICctaW1hZScsICc8aW5maWxlLm1hZT4nLCAnLW9tYWUnLCAnPG91dGZpbGUubWFlPic=

> <r_lp_tautomer_probability>
1

> <r_epik_Ionization_Penalty>
9.47735e-05

> <r_epik_Ionization_Penalty_Charging>
0

> <r_epik_Ionization_Penalty_Neutral>
9.47735e-05

> <r_epik_State_Penalty>
-0

> <r_epik_Charging_Adjusted_Penalty>
0

> <i_epik_Tot_Q>
0

> <i_epik_Tot_abs_Q>
0

> <r_epik_Metal_State_Penalty>
-0

> <b_epik_Metal_Only>
0

> <s_lp_Force_Field>
OPLS_2005

> <r_lp_Energy>
11.707

> <b_lp_Chiralities_Consistent>
1

> <s_lp_Variant>
AV-unprocessed.smi:1945-1

> <Gold.Version>
5.8.1

> <Gold.Id.Protein>
6NUR|6NUR_protein|mol2

> <Gold.PLP.Fitness>
44.6391

> <Gold.PLP.PLP>
-42.3921

> <Gold.PLP.part.hbond>
-2.9423

> <Gold.PLP.part.metal>
0.0000

> <Gold.PLP.part.buried>
-0.4853

> <Gold.PLP.part.nonpolar>
-39.8734

> <Gold.PLP.part.repulsive>
0.4851

> <Gold.PLP.ligand.clash>
0.0000

> <Gold.PLP.ligand.torsion>
1.7151

> <Gold.PLP.Chemscore.Hbond>
1.8800

> <Gold.PLP.Chemscore.CHOScore>
0.0000

> <Gold.PLP.Chemscore.Metal>
0.0000

> <Gold.Chemscore.Hbonds>
donor molecule, donor type, donor heavy atom, donor atom, acceptor molecule, acceptor atom, score
      L1  H     5    26       P1  7957  1.00
      L1  H     8    27       P1  7957  0.90

> <Gold.PLP.Chemscore.Internal.Correction>
0.0372

> <Gold.Rescore>
     Score         DG    S(hbond)    S(metal)    S(lipo)     H(rot)  DE(clash)    DE(int)     intcor
     15.57     -18.43       1.91        0.00      92.02       1.63       1.22       1.65       ----

> <Gold.Chemscore.Fitness>
15.5682

> <Gold.Chemscore.DG>
-18.4348

> <Gold.Chemscore.ZeroCoef>
-5.4800

> <Gold.Chemscore.Hbond>
1.9059

> <Gold.Chemscore.Metal>
0.0000

> <Gold.Chemscore.Lipo>
92.0152

> <Gold.Chemscore.Internal_Hbond>
0.0000

> <Gold.Chemscore.DEClash>
1.2191

> <Gold.Chemscore.DEInternal>
1.6475

> <Gold.Chemscore.Rot>
1.6316

> <Gold.Chemscore.Internal.Correction>
   9.000000E+99

> <Gold.Chemscore.Hbonds>
donor molecule, donor type, donor heavy atom, donor atom, acceptor molecule, acceptor atom, score
      L1  H     5    26       P1  7957  1.00
      L1  H     8    27       P1  7957  0.78

> <Gold.Chemscore.Hbond.Weighted>
-6.3658

> <Gold.Chemscore.Metal.Weighted>
-0.0000

> <Gold.Chemscore.Lipo.Weighted>
-10.7658

> <Gold.Chemscore.Internal_Hbond.Weighted>
0.0000

> <Gold.Chemscore.DEClash.Weighted>
1.2191

> <Gold.Chemscore.DEInternal.Weighted>
1.6475

> <Gold.Chemscore.Rot.Weighted>
4.1768

> <Gold.Chemscore.Internal.Correction.Weighted>
   9.000000E+99

> <Gold.Protein.RotatedTorsions>
[ 6907 6896 6895 6894 ] final  -53.36 input  -60.11 | X-H torsion
[ 7974 7965 7964 7962 ] final  147.40 input  175.53 | X-H torsion
[ 8008 7997 7996 7995 ] final -132.01 input   59.86 | X-H torsion
[ 10167 10162 10161 10158 ] final -100.72 input  -65.29 | X-H torsion
[ 10718 10713 10712 10709 ] final -121.64 input   66.30 | X-H torsion
[ 10763 10752 10751 10750 ] final -133.65 input  -60.55 | X-H torsion
[ 11005 11000 10999 10996 ] final  105.03 input  -57.11 | X-H torsion

> <Gold.Protein.ActiveResidues>
 VAL166  LYS551  ARG553  GLY616  TRP617  ASP618  TYR619  PRO620  LYS621  CYS622 
 ASP623  PHE694  ASN695  SER759  ASP760  ASP761  ALA762  ILE779  LEU786  VAL792 
 PHE793  MET794  SER795  GLU796  ALA797  LYS798  CYS799  TRP800  GLU811  SER814 

> <Gold.Protein.RotatedAtoms>
  150.8434  134.7734  159.6950 H   0  0  0  0  0  0  0  0  0  0  0  0  # atno 6907 bound_to 6896
  152.4516  134.5378  159.9840 H   0  0  0  0  0  0  0  0  0  0  0  0  # atno 6908 bound_to 6896
  151.5513  133.3379  159.2989 H   0  0  0  0  0  0  0  0  0  0  0  0  # atno 6909 bound_to 6896
  144.8594  139.6024  143.5937 H   0  0  0  0  0  0  0  0  0  0  0  0  # atno 7974 bound_to 7965
  155.3218  140.0462  157.3039 H   0  0  0  0  0  0  0  0  0  0  0  0  # atno 8008 bound_to 7997
  154.5376  140.2277  155.8662 H   0  0  0  0  0  0  0  0  0  0  0  0  # atno 8009 bound_to 7997
  156.1850  140.3065  155.9227 H   0  0  0  0  0  0  0  0  0  0  0  0  # atno 8010 bound_to 7997
  140.2489  143.3486  152.0733 H   0  0  0  0  0  0  0  0  0  0  0  0  # atno 10167 bound_to 10162
  156.1354  130.6426  150.9687 H   0  0  0  0  0  0  0  0  0  0  0  0  # atno 10718 bound_to 10713
  154.8730  135.3759  154.4608 H   0  0  0  0  0  0  0  0  0  0  0  0  # atno 10763 bound_to 10752
  153.5276  135.7028  153.5704 H   0  0  0  0  0  0  0  0  0  0  0  0  # atno 10764 bound_to 10752
  153.3923  135.3969  155.1897 H   0  0  0  0  0  0  0  0  0  0  0  0  # atno 10765 bound_to 10752
  139.8798  134.9321  156.5452 H   0  0  0  0  0  0  0  0  0  0  0  0  # atno 11005 bound_to 11000
  146.2849  139.6976  142.9203 LP  0  0  0  0  0  0  0  0  0  0  0  0  # atno 17320 bound_to 7965
  145.4341  141.0417  143.2894 LP  0  0  0  0  0  0  0  0  0  0  0  0  # atno 17321 bound_to 7965
  139.5052  144.6791  151.6054 LP  0  0  0  0  0  0  0  0  0  0  0  0  # atno 17342 bound_to 10162
  140.6056  143.9531  150.6416 LP  0  0  0  0  0  0  0  0  0  0  0  0  # atno 17343 bound_to 10162
  157.6527  131.0894  150.8016 LP  0  0  0  0  0  0  0  0  0  0  0  0  # atno 17370 bound_to 10713
  156.8096  130.4948  149.5358 LP  0  0  0  0  0  0  0  0  0  0  0  0  # atno 17371 bound_to 10713
  140.8281  133.8301  155.8958 LP  0  0  0  0  0  0  0  0  0  0  0  0  # atno 17394 bound_to 11000
  140.9355  134.1967  157.4834 LP  0  0  0  0  0  0  0  0  0  0  0  0  # atno 17395 bound_to 11000

$$$$
