AV-unprocessed.smi:20|AV-procd|sdf|114|dock3
  -GOLD-   2262015283D 1   1.00000     0.00000
 Structure written by MMmdl.
 57 61  0  0  0  0  0  0  0  0  1 V2000
  146.9610  131.5890  153.6092 O   0  0  0  0  0  0  0  0  0  0  0  0
  146.5901  132.4109  152.7748 C   0  0  0  0  0  0  0  0  0  0  0  0
  145.3168  133.2297  152.9032 C   0  0  0  0  0  0  0  0  0  0  0  0
  145.5076  134.3480  151.8515 C   0  0  1  0  0  0  0  0  0  0  0  0
  144.1937  134.7537  151.1446 C   0  0  0  0  0  0  0  0  0  0  0  0
  143.2469  135.5014  152.0984 C   0  0  0  0  0  0  0  0  0  0  0  0
  143.9479  136.7080  152.7412 C   0  0  0  0  0  0  0  0  0  0  0  0
  145.1988  136.2941  153.3748 N   0  0  0  0  0  0  0  0  0  0  0  0
  145.7570  137.1152  154.2989 C   0  0  0  0  0  0  0  0  0  0  0  0
  145.6936  136.7935  155.6187 N   0  0  0  0  0  0  0  0  0  0  0  0
  146.2303  137.6028  156.5369 C   0  0  0  0  0  0  0  0  0  0  0  0
  146.8669  138.7619  156.3583 N   0  0  0  0  0  0  0  0  0  0  0  0
  146.9415  139.0847  155.0358 C   0  0  0  0  0  0  0  0  0  0  0  0
  146.4210  138.3254  153.9505 C   0  0  0  0  0  0  0  0  0  0  0  0
  146.7033  138.9648  152.7484 N   0  0  0  0  0  0  0  0  0  0  0  0
  147.3424  140.0459  153.1037 C   0  0  0  0  0  0  0  0  0  0  0  0
  147.5217  140.2001  154.4597 N   0  0  0  0  0  0  0  0  0  0  0  0
  148.1860  141.3013  155.1331 C   0  0  0  0  0  0  0  0  0  0  0  0
  149.3321  140.8383  156.0668 C   0  0  2  0  0  0  0  0  0  0  0  0
  149.6797  141.8887  157.1497 C   0  0  0  0  0  0  0  0  0  0  0  0
  148.5470  142.6515  157.5127 O   0  0  0  0  0  0  0  0  0  0  0  0
  150.5774  140.3846  155.2639 C   0  0  2  0  0  0  0  0  0  0  0  0
  150.5116  138.9602  154.7405 C   0  0  0  0  0  0  0  0  0  0  0  0
  151.9761  138.6575  154.4450 C   0  0  0  0  0  0  0  0  0  0  0  0
  152.7201  139.3819  155.4174 O   0  0  0  0  0  0  0  0  0  0  0  0
  151.8760  140.3215  156.0758 C   0  0  0  0  0  0  0  0  0  0  0  0
  146.1443  135.6051  152.4964 C   0  0  0  0  0  0  0  0  0  0  0  0
  146.5132  133.7143  150.8626 C   0  0  0  0  0  0  0  0  0  0  0  0
  147.2213  132.7178  151.6435 N   0  0  0  0  0  0  0  0  0  0  0  0
  144.4672  132.5891  152.6637 H   0  0  0  0  0  0  0  0  0  0  0  0
  145.1838  133.6069  153.9176 H   0  0  0  0  0  0  0  0  0  0  0  0
  144.4233  135.3983  150.2949 H   0  0  0  0  0  0  0  0  0  0  0  0
  143.6921  133.8763  150.7351 H   0  0  0  0  0  0  0  0  0  0  0  0
  142.3577  135.8309  151.5607 H   0  0  0  0  0  0  0  0  0  0  0  0
  142.9011  134.8228  152.8792 H   0  0  0  0  0  0  0  0  0  0  0  0
  144.1619  137.4638  151.9845 H   0  0  0  0  0  0  0  0  0  0  0  0
  143.2830  137.1639  153.4761 H   0  0  0  0  0  0  0  0  0  0  0  0
  146.1347  137.2752  157.5615 H   0  0  0  0  0  0  0  0  0  0  0  0
  147.6965  140.7686  152.3827 H   0  0  0  0  0  0  0  0  0  0  0  0
  148.5629  141.9762  154.3646 H   0  0  0  0  0  0  0  0  0  0  0  0
  147.4405  141.8624  155.6979 H   0  0  0  0  0  0  0  0  0  0  0  0
  148.9654  139.9620  156.6033 H   0  0  0  0  0  0  0  0  0  0  0  0
  150.0803  141.4109  158.0440 H   0  0  0  0  0  0  0  0  0  0  0  0
  150.4593  142.5651  156.8001 H   0  0  0  0  0  0  0  0  0  0  0  0
  148.3403  143.2391  156.8019 H   0  0  0  0  0  0  0  0  0  0  0  0
  150.7305  141.0539  154.4156 H   0  0  0  0  0  0  0  0  0  0  0  0
  150.1393  138.2858  155.5131 H   0  0  0  0  0  0  0  0  0  0  0  0
  149.8794  138.8521  153.8588 H   0  0  0  0  0  0  0  0  0  0  0  0
  152.1984  137.5911  154.4838 H   0  0  0  0  0  0  0  0  0  0  0  0
  152.2482  139.0252  153.4549 H   0  0  0  0  0  0  0  0  0  0  0  0
  152.3633  141.2934  156.1569 H   0  0  0  0  0  0  0  0  0  0  0  0
  151.6845  139.9561  157.0855 H   0  0  0  0  0  0  0  0  0  0  0  0
  147.0579  135.3320  153.0233 H   0  0  0  0  0  0  0  0  0  0  0  0
  146.4455  136.3069  151.7174 H   0  0  0  0  0  0  0  0  0  0  0  0
  146.0032  133.2078  150.0417 H   0  0  0  0  0  0  0  0  0  0  0  0
  147.2007  134.4417  150.4298 H   0  0  0  0  0  0  0  0  0  0  0  0
  148.0906  132.3006  151.3436 H   0  0  0  0  0  0  0  0  0  0  0  0
  1  2  2  0  0  0  0
  2 29  1  0  0  0  0
  2  3  1  0  0  0  0
  3  4  1  0  0  0  0
  3 30  1  0  0  0  0
  3 31  1  0  0  0  0
  4 27  1  0  0  0  0
  4  5  1  0  0  0  0
  4 28  1  0  0  0  0
  5  6  1  0  0  0  0
  5 32  1  0  0  0  0
  5 33  1  0  0  0  0
  6  7  1  0  0  0  0
  6 34  1  0  0  0  0
  6 35  1  0  0  0  0
  7  8  1  0  0  0  0
  7 36  1  0  0  0  0
  7 37  1  0  0  0  0
  8  9  1  0  0  0  0
  8 27  1  0  0  0  0
  9 14  1  0  0  0  0
  9 10  2  0  0  0  0
 10 11  1  0  0  0  0
 11 12  2  0  0  0  0
 11 38  1  0  0  0  0
 12 13  1  0  0  0  0
 13 17  1  0  0  0  0
 13 14  2  0  0  0  0
 14 15  1  0  0  0  0
 15 16  2  0  0  0  0
 16 17  1  0  0  0  0
 16 39  1  0  0  0  0
 17 18  1  0  0  0  0
 18 19  1  0  0  0  0
 18 40  1  0  0  0  0
 18 41  1  0  0  0  0
 19 20  1  0  0  0  0
 19 22  1  0  0  0  0
 19 42  1  0  0  0  0
 20 21  1  0  0  0  0
 20 43  1  0  0  0  0
 20 44  1  0  0  0  0
 21 45  1  0  0  0  0
 22 26  1  0  0  0  0
 22 23  1  0  0  0  0
 22 46  1  0  0  0  0
 23 24  1  0  0  0  0
 23 47  1  0  0  0  0
 23 48  1  0  0  0  0
 24 25  1  0  0  0  0
 24 49  1  0  0  0  0
 24 50  1  0  0  0  0
 25 26  1  0  0  0  0
 26 51  1  0  0  0  0
 26 52  1  0  0  0  0
 27 53  1  0  0  0  0
 27 54  1  0  0  0  0
 28 29  1  0  0  0  0
 28 55  1  0  0  0  0
 28 56  1  0  0  0  0
 29 57  1  0  0  0  0
M  END
> <s_m_source_file>
AV-unprocessed.smi

> <i_m_source_file_index>
20

> <i_lp_mmshare_version>
43012

> <i_f3d_flags>
0

> <s_epik_input>
W0NIMl0xW05IXUMoPU8pW0NIMl1bQ0BAXTEyW0NIMl1bQ0gyXVtDSDJdTihbQ0gyXTIpYyhuW2NIXW4zKWMoYzM0KW5bY0hdbjRbQ0gyXVtDQEhdKFtDSDJdW09IXSlbQ0BASF01W0NIMl1bQ0gyXU9bQ0gyXTU=

> <s_epik_cmdline>
J2VwaWtfcHl0aG9uJywgJy1waCcsICc3LjAnLCAnLXRuJywgJzgnLCAnLW1hJywgJzIwMCcsICctbWV0YWxfYmluZGluZycsICctaW1hZScsICc8aW5maWxlLm1hZT4nLCAnLW9tYWUnLCAnPG91dGZpbGUubWFlPic=

> <r_lp_tautomer_probability>
1

> <r_epik_Ionization_Penalty>
0.0019697

> <r_epik_Ionization_Penalty_Charging>
0

> <r_epik_Ionization_Penalty_Neutral>
0.0019697

> <r_epik_State_Penalty>
0.00113613

> <r_epik_Charging_Adjusted_Penalty>
0.00113613

> <i_epik_Tot_Q>
0

> <i_epik_Tot_abs_Q>
0

> <r_epik_Metal_State_Penalty>
-0

> <b_epik_Metal_Only>
0

> <s_lp_Force_Field>
OPLS_2005

> <r_lp_Energy>
58.2949

> <b_lp_Chiralities_Consistent>
1

> <s_lp_Variant>
AV-unprocessed.smi:20-2

> <Gold.Version>
5.8.1

> <Gold.Id.Protein>
6NUR|6NUR_protein|mol2

> <Gold.PLP.Fitness>
43.9180

> <Gold.PLP.PLP>
-34.8811

> <Gold.PLP.part.hbond>
-3.0000

> <Gold.PLP.part.metal>
0.0000

> <Gold.PLP.part.buried>
-3.2674

> <Gold.PLP.part.nonpolar>
-28.1263

> <Gold.PLP.part.repulsive>
0.5387

> <Gold.PLP.ligand.clash>
0.0000

> <Gold.PLP.ligand.torsion>
1.2335

> <Gold.PLP.Chemscore.Hbond>
2.9520

> <Gold.PLP.Chemscore.CHOScore>
0.6906

> <Gold.PLP.Chemscore.Metal>
0.0000

> <Gold.Chemscore.Hbonds>
donor molecule, donor type, donor heavy atom, donor atom, acceptor molecule, acceptor atom, score
      L1  H    21    45       P1  8028  0.98
      L1  H    29    57       P1 10747  0.96
      P1  H  7997  8008       L1    25  1.00
      L1  C    16    39       P1  7957  0.69

> <Gold.PLP.Chemscore.Internal.Correction>
0.5763

> <Gold.Rescore>
     Score         DG    S(hbond)    S(metal)    S(lipo)     H(rot)  DE(clash)    DE(int)     intcor
     11.26     -12.56       1.61        0.00      74.54       2.74       0.24       1.05       ----

> <Gold.Chemscore.Fitness>
11.2631

> <Gold.Chemscore.DG>
-12.5604

> <Gold.Chemscore.ZeroCoef>
-5.4800

> <Gold.Chemscore.Hbond>
1.6101

> <Gold.Chemscore.Metal>
0.0000

> <Gold.Chemscore.Lipo>
74.5381

> <Gold.Chemscore.Internal_Hbond>
0.0000

> <Gold.Chemscore.DEClash>
0.2434

> <Gold.Chemscore.DEInternal>
1.0540

> <Gold.Chemscore.Rot>
2.7415

> <Gold.Chemscore.Internal.Correction>
   9.000000E+99

> <Gold.Chemscore.Hbonds>
donor molecule, donor type, donor heavy atom, donor atom, acceptor molecule, acceptor atom, score
      L1  H    21    45       P1  8028  0.28
      L1  H    29    57       P1 10747  0.89
      P1  H  7997  8008       L1    25  0.24

> <Gold.Chemscore.Hbond.Weighted>
-5.3777

> <Gold.Chemscore.Metal.Weighted>
-0.0000

> <Gold.Chemscore.Lipo.Weighted>
-8.7210

> <Gold.Chemscore.Internal_Hbond.Weighted>
0.0000

> <Gold.Chemscore.DEClash.Weighted>
0.2434

> <Gold.Chemscore.DEInternal.Weighted>
1.0540

> <Gold.Chemscore.Rot.Weighted>
7.0182

> <Gold.Chemscore.Internal.Correction.Weighted>
   9.000000E+99

> <Gold.Protein.RotatedTorsions>
[ 6907 6896 6895 6894 ] final   21.73 input  -60.11 | X-H torsion
[ 7974 7965 7964 7962 ] final -145.66 input  175.53 | X-H torsion
[ 8008 7997 7996 7995 ] final   -8.08 input   59.86 | X-H torsion
[ 10167 10162 10161 10158 ] final   30.79 input  -65.29 | X-H torsion
[ 10718 10713 10712 10709 ] final -123.81 input   66.30 | X-H torsion
[ 10763 10752 10751 10750 ] final  -59.66 input  -60.55 | X-H torsion
[ 11005 11000 10999 10996 ] final -178.58 input  -57.11 | X-H torsion

> <Gold.Protein.ActiveResidues>
 VAL166  LYS551  ARG553  GLY616  TRP617  ASP618  TYR619  PRO620  LYS621  CYS622 
 ASP623  PHE694  ASN695  SER759  ASP760  ASP761  ALA762  ILE779  LEU786  VAL792 
 PHE793  MET794  SER795  GLU796  ALA797  LYS798  CYS799  TRP800  GLU811  SER814 

> <Gold.Protein.RotatedAtoms>
  151.9162  135.0318  160.0518 H   0  0  0  0  0  0  0  0  0  0  0  0  # atno 6907 bound_to 6896
  152.2238  133.4999  159.5185 H   0  0  0  0  0  0  0  0  0  0  0  0  # atno 6908 bound_to 6896
  150.7007  134.1224  159.4082 H   0  0  0  0  0  0  0  0  0  0  0  0  # atno 6909 bound_to 6896
  144.8212  140.5555  143.5577 H   0  0  0  0  0  0  0  0  0  0  0  0  # atno 7974 bound_to 7965
  154.5775  140.2390  155.8101 H   0  0  0  0  0  0  0  0  0  0  0  0  # atno 8008 bound_to 7997
  156.2154  140.3013  155.9785 H   0  0  0  0  0  0  0  0  0  0  0  0  # atno 8009 bound_to 7997
  155.2600  140.0414  157.2987 H   0  0  0  0  0  0  0  0  0  0  0  0  # atno 8010 bound_to 7997
  140.4647  144.0854  150.6221 H   0  0  0  0  0  0  0  0  0  0  0  0  # atno 10167 bound_to 10162
  156.1534  130.6550  150.9946 H   0  0  0  0  0  0  0  0  0  0  0  0  # atno 10718 bound_to 10713
  154.2572  135.6315  153.5261 H   0  0  0  0  0  0  0  0  0  0  0  0  # atno 10763 bound_to 10752
  152.9902  135.5579  154.5743 H   0  0  0  0  0  0  0  0  0  0  0  0  # atno 10764 bound_to 10752
  154.5284  135.2887  155.1177 H   0  0  0  0  0  0  0  0  0  0  0  0  # atno 10765 bound_to 10752
  140.4281  134.6544  157.4698 H   0  0  0  0  0  0  0  0  0  0  0  0  # atno 11005 bound_to 11000
  145.5101  139.1479  143.3609 LP  0  0  0  0  0  0  0  0  0  0  0  0  # atno 17320 bound_to 7965
  146.2517  140.5242  142.8890 LP  0  0  0  0  0  0  0  0  0  0  0  0  # atno 17321 bound_to 7965
  140.4051  143.2684  151.9901 LP  0  0  0  0  0  0  0  0  0  0  0  0  # atno 17342 bound_to 10162
  139.4810  144.5964  151.7683 LP  0  0  0  0  0  0  0  0  0  0  0  0  # atno 17343 bound_to 10162
  157.6675  131.0868  150.7693 LP  0  0  0  0  0  0  0  0  0  0  0  0  # atno 17370 bound_to 10713
  156.7760  130.4844  149.5409 LP  0  0  0  0  0  0  0  0  0  0  0  0  # atno 17371 bound_to 10713
  140.0153  134.6628  155.9319 LP  0  0  0  0  0  0  0  0  0  0  0  0  # atno 17394 bound_to 11000
  141.1757  133.6540  156.4818 LP  0  0  0  0  0  0  0  0  0  0  0  0  # atno 17395 bound_to 11000

$$$$
