AV-unprocessed.smi:148|AV-procd|sdf|1213|dock2
  -GOLD-   2262018393D 1   1.00000     0.00000
 Structure written by MMmdl.
 63 67  0  0  0  0  0  0  0  0  1 V2000
  151.5536  132.3819  157.6694 O   0  0  0  0  0  0  0  0  0  0  0  0
  150.6720  132.1945  156.5823 C   0  0  0  0  0  0  0  0  0  0  0  0
  149.9882  133.5236  156.1834 C   0  0  1  0  0  0  0  0  0  0  0  0
  151.0031  134.5753  155.6556 C   0  0  0  0  0  0  0  0  0  0  0  0
  150.8381  135.9071  156.2207 N   0  0  0  0  0  0  0  0  0  0  0  0
  149.9672  136.2802  157.2209 C   0  0  0  0  0  0  0  0  0  0  0  0
  150.0035  137.5417  157.5521 N   0  0  0  0  0  0  0  0  0  0  0  0
  150.9877  138.0772  156.7317 C   0  0  0  0  0  0  0  0  0  0  0  0
  151.5450  139.3766  156.5649 C   0  0  0  0  0  0  0  0  0  0  0  0
  151.1570  140.4728  157.2523 N   0  0  0  0  0  0  0  0  0  0  0  0
  152.2922  140.9584  158.0411 C   0  0  0  0  0  0  0  0  0  0  0  0
  151.8651  142.0353  159.0419 C   0  0  0  0  0  0  0  0  0  0  0  0
  151.1679  143.1762  158.3016 C   0  0  0  0  0  0  0  0  0  0  0  0
  149.9807  142.6239  157.5039 C   0  0  0  0  0  0  0  0  0  0  0  0
  150.3912  141.4997  156.5126 C   0  0  2  0  0  0  0  0  0  0  0  0
  149.1220  140.9404  155.7794 C   0  0  2  0  0  0  0  0  0  0  0  0
  149.3562  139.9683  154.6020 C   0  0  0  0  0  0  0  0  0  0  0  0
  148.1124  140.0386  153.7045 C   0  0  0  0  0  0  0  0  0  0  0  0
  147.2564  141.1849  154.2494 C   0  0  0  0  0  0  0  0  0  0  0  0
  148.1938  141.9975  155.1433 C   0  0  2  0  0  0  0  0  0  0  0  0
  148.9203  142.9020  154.3296 O   0  0  0  0  0  0  0  0  0  0  0  0
  152.5166  139.5397  155.6333 N   0  0  0  0  0  0  0  0  0  0  0  0
  152.9398  138.4903  154.9219 C   0  0  0  0  0  0  0  0  0  0  0  0
  152.5249  137.2225  154.9762 N   0  0  0  0  0  0  0  0  0  0  0  0
  151.5318  137.0613  155.8973 C   0  0  0  0  0  0  0  0  0  0  0  0
  148.8200  133.2751  155.1929 C   0  0  2  0  0  0  0  0  0  0  0  0
  149.2386  132.6986  153.8505 C   0  0  0  0  0  0  0  0  0  0  0  0
  148.0273  133.0000  152.9754 C   0  0  0  0  0  0  0  0  0  0  0  0
  147.4891  134.2186  153.4746 O   0  0  0  0  0  0  0  0  0  0  0  0
  148.0907  134.5399  154.7246 C   0  0  0  0  0  0  0  0  0  0  0  0
  152.2490  131.7446  157.6040 H   0  0  0  0  0  0  0  0  0  0  0  0
  151.2118  131.7550  155.7435 H   0  0  0  0  0  0  0  0  0  0  0  0
  149.9349  131.4580  156.9001 H   0  0  0  0  0  0  0  0  0  0  0  0
  149.5500  133.9397  157.0921 H   0  0  0  0  0  0  0  0  0  0  0  0
  152.0250  134.2490  155.8483 H   0  0  0  0  0  0  0  0  0  0  0  0
  150.9281  134.6559  154.5708 H   0  0  0  0  0  0  0  0  0  0  0  0
  149.2922  135.5868  157.6994 H   0  0  0  0  0  0  0  0  0  0  0  0
  152.7555  140.1303  158.5807 H   0  0  0  0  0  0  0  0  0  0  0  0
  153.0529  141.3670  157.3745 H   0  0  0  0  0  0  0  0  0  0  0  0
  151.1921  141.6063  159.7855 H   0  0  0  0  0  0  0  0  0  0  0  0
  152.7335  142.4111  159.5836 H   0  0  0  0  0  0  0  0  0  0  0  0
  150.8291  143.9331  159.0096 H   0  0  0  0  0  0  0  0  0  0  0  0
  151.8706  143.6673  157.6269 H   0  0  0  0  0  0  0  0  0  0  0  0
  149.2303  142.2419  158.1977 H   0  0  0  0  0  0  0  0  0  0  0  0
  149.5173  143.4594  156.9812 H   0  0  0  0  0  0  0  0  0  0  0  0
  151.0553  141.9417  155.7689 H   0  0  0  0  0  0  0  0  0  0  0  0
  148.5229  140.4101  156.5221 H   0  0  0  0  0  0  0  0  0  0  0  0
  150.2295  140.2787  154.0272 H   0  0  0  0  0  0  0  0  0  0  0  0
  149.5258  138.9444  154.9316 H   0  0  0  0  0  0  0  0  0  0  0  0
  148.4069  140.2332  152.6725 H   0  0  0  0  0  0  0  0  0  0  0  0
  147.5561  139.1006  153.7139 H   0  0  0  0  0  0  0  0  0  0  0  0
  146.7917  141.7784  153.4608 H   0  0  0  0  0  0  0  0  0  0  0  0
  146.4518  140.7711  154.8590 H   0  0  0  0  0  0  0  0  0  0  0  0
  147.6310  142.5597  155.8891 H   0  0  0  0  0  0  0  0  0  0  0  0
  149.5338  142.4091  153.8064 H   0  0  0  0  0  0  0  0  0  0  0  0
  153.7227  138.6956  154.2069 H   0  0  0  0  0  0  0  0  0  0  0  0
  148.0833  132.6107  155.6470 H   0  0  0  0  0  0  0  0  0  0  0  0
  150.1145  133.2239  153.4668 H   0  0  0  0  0  0  0  0  0  0  0  0
  149.4708  131.6348  153.8827 H   0  0  0  0  0  0  0  0  0  0  0  0
  148.2846  133.0796  151.9190 H   0  0  0  0  0  0  0  0  0  0  0  0
  147.2747  132.2178  153.0841 H   0  0  0  0  0  0  0  0  0  0  0  0
  147.3397  134.8777  155.4391 H   0  0  0  0  0  0  0  0  0  0  0  0
  148.7954  135.3570  154.5639 H   0  0  0  0  0  0  0  0  0  0  0  0
  1  2  1  0  0  0  0
  1 31  1  0  0  0  0
  2  3  1  0  0  0  0
  2 32  1  0  0  0  0
  2 33  1  0  0  0  0
  3  4  1  0  0  0  0
  3 26  1  0  0  0  0
  3 34  1  0  0  0  0
  4  5  1  0  0  0  0
  4 35  1  0  0  0  0
  4 36  1  0  0  0  0
  5 25  1  0  0  0  0
  5  6  1  0  0  0  0
  6  7  2  0  0  0  0
  6 37  1  0  0  0  0
  7  8  1  0  0  0  0
  8 25  2  0  0  0  0
  8  9  1  0  0  0  0
  9 10  1  0  0  0  0
  9 22  2  0  0  0  0
 10 15  1  0  0  0  0
 10 11  1  0  0  0  0
 11 12  1  0  0  0  0
 11 38  1  0  0  0  0
 11 39  1  0  0  0  0
 12 13  1  0  0  0  0
 12 40  1  0  0  0  0
 12 41  1  0  0  0  0
 13 14  1  0  0  0  0
 13 42  1  0  0  0  0
 13 43  1  0  0  0  0
 14 15  1  0  0  0  0
 14 44  1  0  0  0  0
 14 45  1  0  0  0  0
 15 16  1  0  0  0  0
 15 46  1  0  0  0  0
 16 20  1  0  0  0  0
 16 17  1  0  0  0  0
 16 47  1  0  0  0  0
 17 18  1  0  0  0  0
 17 48  1  0  0  0  0
 17 49  1  0  0  0  0
 18 19  1  0  0  0  0
 18 50  1  0  0  0  0
 18 51  1  0  0  0  0
 19 20  1  0  0  0  0
 19 52  1  0  0  0  0
 19 53  1  0  0  0  0
 20 21  1  0  0  0  0
 20 54  1  0  0  0  0
 21 55  1  0  0  0  0
 22 23  1  0  0  0  0
 23 24  2  0  0  0  0
 23 56  1  0  0  0  0
 24 25  1  0  0  0  0
 26 30  1  0  0  0  0
 26 27  1  0  0  0  0
 26 57  1  0  0  0  0
 27 28  1  0  0  0  0
 27 58  1  0  0  0  0
 27 59  1  0  0  0  0
 28 29  1  0  0  0  0
 28 60  1  0  0  0  0
 28 61  1  0  0  0  0
 29 30  1  0  0  0  0
 30 62  1  0  0  0  0
 30 63  1  0  0  0  0
M  END
> <s_m_source_file>
AV-unprocessed.smi

> <i_m_source_file_index>
148

> <i_lp_mmshare_version>
43012

> <i_f3d_flags>
0

> <s_epik_input>
W0NIMl0xT1tDSDJdW0NIMl1bQ0BIXTFbQ0BIXShbQ0gyXVtPSF0pW0NIMl1uKFtjSF1uMiljKGMyMyluW2NIXW5jM040W0NIMl1bQ0gyXVtDSDJdW0NIMl1bQ0BIXTRbQ0BASF01W0NIMl1bQ0gyXVtDSDJdW0NASF01W09IXQ==

> <s_epik_cmdline>
J2VwaWtfcHl0aG9uJywgJy1waCcsICc3LjAnLCAnLXRuJywgJzgnLCAnLW1hJywgJzIwMCcsICctbWV0YWxfYmluZGluZycsICctaW1hZScsICc8aW5maWxlLm1hZT4nLCAnLW9tYWUnLCAnPG91dGZpbGUubWFlPic=

> <r_lp_tautomer_probability>
1

> <r_epik_Ionization_Penalty>
0.00556303

> <r_epik_Ionization_Penalty_Charging>
0

> <r_epik_Ionization_Penalty_Neutral>
0.00556303

> <r_epik_State_Penalty>
0.00401767

> <r_epik_Charging_Adjusted_Penalty>
0.00401767

> <i_epik_Tot_Q>
0

> <i_epik_Tot_abs_Q>
0

> <r_epik_Metal_State_Penalty>
-0

> <b_epik_Metal_Only>
0

> <s_lp_Force_Field>
OPLS_2005

> <r_lp_Energy>
69.1671

> <b_lp_Chiralities_Consistent>
1

> <s_lp_Variant>
AV-unprocessed.smi:148-12

> <Gold.Version>
5.8.1

> <Gold.Id.Protein>
6NUR|6NUR_protein|mol2

> <Gold.PLP.Fitness>
49.4031

> <Gold.PLP.PLP>
-40.3407

> <Gold.PLP.part.hbond>
-4.8140

> <Gold.PLP.part.metal>
0.0000

> <Gold.PLP.part.buried>
-0.0188

> <Gold.PLP.part.nonpolar>
-35.9668

> <Gold.PLP.part.repulsive>
1.1472

> <Gold.PLP.ligand.clash>
0.0361

> <Gold.PLP.ligand.torsion>
0.8897

> <Gold.PLP.Chemscore.Hbond>
3.3959

> <Gold.PLP.Chemscore.CHOScore>
0.0000

> <Gold.PLP.Chemscore.Metal>
0.0000

> <Gold.Chemscore.Hbonds>
donor molecule, donor type, donor heavy atom, donor atom, acceptor molecule, acceptor atom, score
      P1  H  6896  6907       L1     1  0.99
      P1  H  7997  8010       L1    22  0.78
      P1  H  8022  8030       L1    21  1.00
      P1  H 10752 10764       L1    24  0.61

> <Gold.PLP.Chemscore.Internal.Correction>
0.6904

> <Gold.Rescore>
     Score         DG    S(hbond)    S(metal)    S(lipo)     H(rot)  DE(clash)    DE(int)     intcor
     13.45     -16.00       2.21        0.00      99.45       3.32       0.80       1.75       ----

> <Gold.Chemscore.Fitness>
13.4462

> <Gold.Chemscore.DG>
-15.9980

> <Gold.Chemscore.ZeroCoef>
-5.4800

> <Gold.Chemscore.Hbond>
2.2105

> <Gold.Chemscore.Metal>
0.0000

> <Gold.Chemscore.Lipo>
99.4453

> <Gold.Chemscore.Internal_Hbond>
0.0000

> <Gold.Chemscore.DEClash>
0.8048

> <Gold.Chemscore.DEInternal>
1.7470

> <Gold.Chemscore.Rot>
3.3203

> <Gold.Chemscore.Internal.Correction>
   9.000000E+99

> <Gold.Chemscore.Hbonds>
donor molecule, donor type, donor heavy atom, donor atom, acceptor molecule, acceptor atom, score
      P1  H  6896  6907       L1     1  0.57
      P1  H  7997  8010       L1    22  0.12
      P1  H  8022  8030       L1    21  0.81
      P1  H 10752 10764       L1    24  0.25

> <Gold.Chemscore.Hbond.Weighted>
-7.3829

> <Gold.Chemscore.Metal.Weighted>
-0.0000

> <Gold.Chemscore.Lipo.Weighted>
-11.6351

> <Gold.Chemscore.Internal_Hbond.Weighted>
0.0000

> <Gold.Chemscore.DEClash.Weighted>
0.8048

> <Gold.Chemscore.DEInternal.Weighted>
1.7470

> <Gold.Chemscore.Rot.Weighted>
8.5000

> <Gold.Chemscore.Internal.Correction.Weighted>
   9.000000E+99

> <Gold.Protein.RotatedTorsions>
[ 6907 6896 6895 6894 ] final  171.59 input  -60.11 | X-H torsion
[ 7974 7965 7964 7962 ] final   43.79 input  175.53 | X-H torsion
[ 8008 7997 7996 7995 ] final   68.49 input   59.86 | X-H torsion
[ 10167 10162 10161 10158 ] final   51.92 input  -65.29 | X-H torsion
[ 10718 10713 10712 10709 ] final -156.53 input   66.30 | X-H torsion
[ 10763 10752 10751 10750 ] final  -59.50 input  -60.55 | X-H torsion
[ 11005 11000 10999 10996 ] final   19.96 input  -57.11 | X-H torsion

> <Gold.Protein.ActiveResidues>
 VAL166  LYS551  ARG553  GLY616  TRP617  ASP618  TYR619  PRO620  LYS621  CYS622 
 ASP623  PHE694  ASN695  SER759  ASP760  ASP761  ALA762  ILE779  LEU786  VAL792 
 PHE793  MET794  SER795  GLU796  ALA797  LYS798  CYS799  TRP800  GLU811  SER814 

> <Gold.Protein.RotatedAtoms>
  151.7979  133.3366  159.3517 H   0  0  0  0  0  0  0  0  0  0  0  0  # atno 6907 bound_to 6896
  150.7369  134.5781  159.5934 H   0  0  0  0  0  0  0  0  0  0  0  0  # atno 6908 bound_to 6896
  152.3164  134.7436  160.0375 H   0  0  0  0  0  0  0  0  0  0  0  0  # atno 6909 bound_to 6896
  146.0625  139.5147  142.9649 H   0  0  0  0  0  0  0  0  0  0  0  0  # atno 7974 bound_to 7965
  155.7090  140.3494  155.4966 H   0  0  0  0  0  0  0  0  0  0  0  0  # atno 8008 bound_to 7997
  155.9372  140.1095  157.1107 H   0  0  0  0  0  0  0  0  0  0  0  0  # atno 8009 bound_to 7997
  154.4096  140.1219  156.4866 H   0  0  0  0  0  0  0  0  0  0  0  0  # atno 8010 bound_to 7997
  140.2568  144.3418  150.6330 H   0  0  0  0  0  0  0  0  0  0  0  0  # atno 10167 bound_to 10162
  156.5278  130.8507  151.2705 H   0  0  0  0  0  0  0  0  0  0  0  0  # atno 10718 bound_to 10713
  154.2547  135.6319  153.5253 H   0  0  0  0  0  0  0  0  0  0  0  0  # atno 10763 bound_to 10752
  152.9906  135.5573  154.5769 H   0  0  0  0  0  0  0  0  0  0  0  0  # atno 10764 bound_to 10752
  154.5305  135.2888  155.1159 H   0  0  0  0  0  0  0  0  0  0  0  0  # atno 10765 bound_to 10752
  140.4079  134.1649  155.7666 H   0  0  0  0  0  0  0  0  0  0  0  0  # atno 11005 bound_to 11000
  145.6535  141.0257  143.1747 LP  0  0  0  0  0  0  0  0  0  0  0  0  # atno 17320 bound_to 7965
  144.7183  139.8118  143.7391 LP  0  0  0  0  0  0  0  0  0  0  0  0  # atno 17321 bound_to 7965
  140.5997  143.2167  151.7095 LP  0  0  0  0  0  0  0  0  0  0  0  0  # atno 17342 bound_to 10162
  139.5029  144.3812  152.0374 LP  0  0  0  0  0  0  0  0  0  0  0  0  # atno 17343 bound_to 10162
  157.7426  130.9895  150.2533 LP  0  0  0  0  0  0  0  0  0  0  0  0  # atno 17370 bound_to 10713
  156.3088  130.3769  149.7681 LP  0  0  0  0  0  0  0  0  0  0  0  0  # atno 17371 bound_to 10713
  141.1832  133.8369  157.1183 LP  0  0  0  0  0  0  0  0  0  0  0  0  # atno 17394 bound_to 11000
  140.0288  134.9911  157.0740 LP  0  0  0  0  0  0  0  0  0  0  0  0  # atno 17395 bound_to 11000

$$$$
