AV-unprocessed.smi:2706|AV-procd|sdf|10452|dock5
  -GOLD-   2272014493D 1   1.00000     0.00000
 Structure written by MMmdl.
 43 46  0  0  0  0  0  0  0  0  1 V2000
  150.6178  145.3221  160.1450 C   0  0  0  0  0  0  0  0  0  0  0  0
  151.1286  144.0104  159.7600 N   0  0  0  0  0  0  0  0  0  0  0  0
  150.7508  143.5834  158.4176 C   0  0  0  0  0  0  0  0  0  0  0  0
  151.8809  143.1915  160.6041 C   0  0  0  0  0  0  0  0  0  0  0  0
  152.1843  143.5803  161.8629 C   0  0  0  0  0  0  0  0  0  0  0  0
  152.9598  142.7126  162.7253 C   0  0  0  0  0  0  0  0  0  0  0  0
  153.4010  141.5142  162.2955 C   0  0  0  0  0  0  0  0  0  0  0  0
  153.1178  141.0583  160.9475 C   0  0  0  0  0  0  0  0  0  0  0  0
  153.5413  139.8922  160.5475 N   0  0  0  0  0  0  0  0  0  0  0  0
  153.4043  139.4361  159.2365 C   0  0  0  0  0  0  0  0  0  0  0  0
  154.3543  139.3662  158.4575 O   0  0  0  0  0  0  0  0  0  0  0  0
  152.1447  139.1792  158.8265 N   0  0  0  0  0  0  0  0  0  0  0  0
  151.7611  138.7311  157.5272 C   0  0  2  0  0  0  0  0  0  0  0  0
  151.7105  139.7670  156.4238 C   0  0  1  0  0  0  0  0  0  0  0  0
  151.5518  139.5079  154.9274 C   0  0  1  0  0  0  0  0  0  0  0  0
  151.6584  138.0025  154.6050 C   0  0  0  0  0  0  0  0  0  0  0  0
  150.3468  137.4408  155.1980 C   0  0  0  0  0  0  0  0  0  0  0  0
  149.6760  138.7035  155.7770 C   0  0  2  0  0  0  0  0  0  0  0  0
  150.0578  139.7397  154.7243 C   0  0  0  0  0  0  0  0  0  0  0  0
  150.4220  139.2132  157.0079 C   0  0  1  0  0  0  0  0  0  0  0  0
  152.3417  141.9436  160.1748 N   0  0  0  0  0  0  0  0  0  0  0  0
  151.4386  146.0329  160.2441 H   0  0  0  0  0  0  0  0  0  0  0  0
  150.0954  145.2630  161.1002 H   0  0  0  0  0  0  0  0  0  0  0  0
  149.9136  145.7207  159.4142 H   0  0  0  0  0  0  0  0  0  0  0  0
  149.8906  142.9151  158.4636 H   0  0  0  0  0  0  0  0  0  0  0  0
  151.5705  143.0533  157.9334 H   0  0  0  0  0  0  0  0  0  0  0  0
  150.4935  144.4290  157.7792 H   0  0  0  0  0  0  0  0  0  0  0  0
  151.8631  144.5338  162.2545 H   0  0  0  0  0  0  0  0  0  0  0  0
  153.1844  143.0310  163.7325 H   0  0  0  0  0  0  0  0  0  0  0  0
  153.9728  140.9105  162.9856 H   0  0  0  0  0  0  0  0  0  0  0  0
  151.4001  139.3107  159.4958 H   0  0  0  0  0  0  0  0  0  0  0  0
  152.0646  137.7215  157.2617 H   0  0  0  0  0  0  0  0  0  0  0  0
  151.9409  140.7984  156.6862 H   0  0  0  0  0  0  0  0  0  0  0  0
  152.2022  140.1435  154.3260 H   0  0  0  0  0  0  0  0  0  0  0  0
  151.6885  137.8402  153.5268 H   0  0  0  0  0  0  0  0  0  0  0  0
  152.5517  137.5441  155.0301 H   0  0  0  0  0  0  0  0  0  0  0  0
  149.7308  137.0035  154.4113 H   0  0  0  0  0  0  0  0  0  0  0  0
  150.5117  136.6701  155.9514 H   0  0  0  0  0  0  0  0  0  0  0  0
  148.6053  138.6010  155.9559 H   0  0  0  0  0  0  0  0  0  0  0  0
  149.7393  140.7515  154.9815 H   0  0  0  0  0  0  0  0  0  0  0  0
  149.7069  139.4971  153.7195 H   0  0  0  0  0  0  0  0  0  0  0  0
  149.8559  139.9067  157.6272 H   0  0  0  0  0  0  0  0  0  0  0  0
  152.0777  141.6897  159.2339 H   0  0  0  0  0  0  0  0  0  0  0  0
  1  2  1  0  0  0  0
  1 22  1  0  0  0  0
  1 23  1  0  0  0  0
  1 24  1  0  0  0  0
  2  3  1  0  0  0  0
  2  4  1  0  0  0  0
  3 25  1  0  0  0  0
  3 26  1  0  0  0  0
  3 27  1  0  0  0  0
  4 21  1  0  0  0  0
  4  5  2  0  0  0  0
  5  6  1  0  0  0  0
  5 28  1  0  0  0  0
  6  7  2  0  0  0  0
  6 29  1  0  0  0  0
  7  8  1  0  0  0  0
  7 30  1  0  0  0  0
  8  9  2  0  0  0  0
  8 21  1  0  0  0  0
  9 10  1  0  0  0  0
 10 11  2  0  0  0  0
 10 12  1  0  0  0  0
 12 13  1  0  0  0  0
 12 31  1  0  0  0  0
 13 20  1  0  0  0  0
 13 14  1  0  0  0  0
 13 32  1  0  0  0  0
 14 20  1  0  0  0  0
 14 15  1  0  0  0  0
 14 33  1  0  0  0  0
 15 19  1  0  0  0  0
 15 16  1  0  0  0  0
 15 34  1  0  0  0  0
 16 17  1  0  0  0  0
 16 35  1  0  0  0  0
 16 36  1  0  0  0  0
 17 18  1  0  0  0  0
 17 37  1  0  0  0  0
 17 38  1  0  0  0  0
 18 19  1  0  0  0  0
 18 20  1  0  0  0  0
 18 39  1  0  0  0  0
 19 40  1  0  0  0  0
 19 41  1  0  0  0  0
 20 42  1  0  0  0  0
 21 43  1  0  0  0  0
M  END
> <s_m_source_file>
AV-unprocessed.smi

> <i_m_source_file_index>
2706

> <i_lp_mmshare_version>
43012

> <i_f3d_flags>
0

> <s_epik_input>
W0NIM11OKFtDSDNdKWMxW2NIXVtjSF1bY0hdYyhuMSlbTkhdQyg9TylbTkhdW0NASF0yW0NAQEhdM1tDQEBIXShbQ0gyXTQpW0NIMl1bQ0gyXVtDQEBIXTRbQ0BIXTIz

> <s_epik_cmdline>
J2VwaWtfcHl0aG9uJywgJy1waCcsICc3LjAnLCAnLXRuJywgJzgnLCAnLW1hJywgJzIwMCcsICctbWV0YWxfYmluZGluZycsICctaW1hZScsICc8aW5maWxlLm1hZT4nLCAnLW9tYWUnLCAnPG91dGZpbGUubWFlPic=

> <r_lp_tautomer_probability>
0.999994

> <r_epik_Ionization_Penalty>
2.07242

> <r_epik_Ionization_Penalty_Charging>
2.07242

> <r_epik_Ionization_Penalty_Neutral>
9.73808e-07

> <r_epik_State_Penalty>
3.96009

> <r_epik_Charging_Adjusted_Penalty>
6.03251

> <i_epik_Tot_Q>
0

> <i_epik_Tot_abs_Q>
0

> <r_epik_Metal_State_Penalty>
3.98849

> <b_epik_Metal_Only>
1

> <s_lp_Force_Field>
OPLS_2005

> <r_lp_Energy>
91.2091

> <b_lp_Chiralities_Consistent>
1

> <s_lp_Variant>
AV-unprocessed.smi:2706-9

> <Gold.Version>
5.8.1

> <Gold.Id.Protein>
6NUR|6NUR_protein|mol2

> <Gold.PLP.Fitness>
45.0580

> <Gold.PLP.PLP>
-43.9663

> <Gold.PLP.part.hbond>
-0.9782

> <Gold.PLP.part.metal>
0.0000

> <Gold.PLP.part.buried>
-3.2317

> <Gold.PLP.part.nonpolar>
-38.4390

> <Gold.PLP.part.repulsive>
0.1793

> <Gold.PLP.ligand.clash>
0.0000

> <Gold.PLP.ligand.torsion>
0.9753

> <Gold.PLP.Chemscore.Hbond>
1.0000

> <Gold.PLP.Chemscore.CHOScore>
0.0000

> <Gold.PLP.Chemscore.Metal>
0.0000

> <Gold.Chemscore.Hbonds>
donor molecule, donor type, donor heavy atom, donor atom, acceptor molecule, acceptor atom, score
      P1  H  7997  8010       L1    11  0.91

> <Gold.PLP.Chemscore.Internal.Correction>
0.0423

> <Gold.Rescore>
     Score         DG    S(hbond)    S(metal)    S(lipo)     H(rot)  DE(clash)    DE(int)     intcor
     15.82     -18.09       0.98        0.00     101.78       1.00       0.18       2.09       ----

> <Gold.Chemscore.Fitness>
15.8151

> <Gold.Chemscore.DG>
-18.0924

> <Gold.Chemscore.ZeroCoef>
-5.4800

> <Gold.Chemscore.Hbond>
0.9774

> <Gold.Chemscore.Metal>
0.0000

> <Gold.Chemscore.Lipo>
101.7779

> <Gold.Chemscore.Internal_Hbond>
0.0000

> <Gold.Chemscore.DEClash>
0.1849

> <Gold.Chemscore.DEInternal>
2.0924

> <Gold.Chemscore.Rot>
1.0000

> <Gold.Chemscore.Internal.Correction>
   9.000000E+99

> <Gold.Chemscore.Hbonds>
donor molecule, donor type, donor heavy atom, donor atom, acceptor molecule, acceptor atom, score
      P1  H  7997  8010       L1    11  0.88

> <Gold.Chemscore.Hbond.Weighted>
-3.2644

> <Gold.Chemscore.Metal.Weighted>
-0.0000

> <Gold.Chemscore.Lipo.Weighted>
-11.9080

> <Gold.Chemscore.Internal_Hbond.Weighted>
0.0000

> <Gold.Chemscore.DEClash.Weighted>
0.1849

> <Gold.Chemscore.DEInternal.Weighted>
2.0924

> <Gold.Chemscore.Rot.Weighted>
2.5600

> <Gold.Chemscore.Internal.Correction.Weighted>
   9.000000E+99

> <Gold.Protein.RotatedTorsions>
[ 6907 6896 6895 6894 ] final   41.60 input  -60.11 | X-H torsion
[ 7974 7965 7964 7962 ] final  -59.45 input  175.53 | X-H torsion
[ 8008 7997 7996 7995 ] final   23.38 input   59.86 | X-H torsion
[ 10167 10162 10161 10158 ] final -103.18 input  -65.29 | X-H torsion
[ 10718 10713 10712 10709 ] final   18.13 input   66.30 | X-H torsion
[ 10763 10752 10751 10750 ] final -115.77 input  -60.55 | X-H torsion
[ 11005 11000 10999 10996 ] final -119.03 input  -57.11 | X-H torsion

> <Gold.Protein.ActiveResidues>
 VAL166  LYS551  ARG553  GLY616  TRP617  ASP618  TYR619  PRO620  LYS621  CYS622 
 ASP623  PHE694  ASN695  SER759  ASP760  ASP761  ALA762  ILE779  LEU786  VAL792 
 PHE793  MET794  SER795  GLU796  ALA797  LYS798  CYS799  TRP800  GLU811  SER814 

> <Gold.Protein.RotatedAtoms>
  152.1973  134.8619  160.0511 H   0  0  0  0  0  0  0  0  0  0  0  0  # atno 6907 bound_to 6896
  151.9486  133.3654  159.3999 H   0  0  0  0  0  0  0  0  0  0  0  0  # atno 6908 bound_to 6896
  150.6947  134.4288  159.5283 H   0  0  0  0  0  0  0  0  0  0  0  0  # atno 6909 bound_to 6896
  145.8273  140.8502  143.0102 H   0  0  0  0  0  0  0  0  0  0  0  0  # atno 7974 bound_to 7965
  154.9800  140.3101  155.4950 H   0  0  0  0  0  0  0  0  0  0  0  0  # atno 8008 bound_to 7997
  156.2954  140.2268  156.4838 H   0  0  0  0  0  0  0  0  0  0  0  0  # atno 8009 bound_to 7997
  154.7798  140.0446  157.1106 H   0  0  0  0  0  0  0  0  0  0  0  0  # atno 8010 bound_to 7997
  140.2227  143.3664  152.0955 H   0  0  0  0  0  0  0  0  0  0  0  0  # atno 10167 bound_to 10162
  157.0919  130.6431  149.5851 H   0  0  0  0  0  0  0  0  0  0  0  0  # atno 10718 bound_to 10713
  154.8494  135.4369  154.1716 H   0  0  0  0  0  0  0  0  0  0  0  0  # atno 10763 bound_to 10752
  153.2828  135.6955  153.7375 H   0  0  0  0  0  0  0  0  0  0  0  0  # atno 10764 bound_to 10752
  153.6572  135.3441  155.3092 H   0  0  0  0  0  0  0  0  0  0  0  0  # atno 10765 bound_to 10752
  141.0244  134.0075  157.3235 H   0  0  0  0  0  0  0  0  0  0  0  0  # atno 11005 bound_to 11000
  144.6742  140.0620  143.7476 LP  0  0  0  0  0  0  0  0  0  0  0  0  # atno 17320 bound_to 7965
  145.9610  139.2800  143.1156 LP  0  0  0  0  0  0  0  0  0  0  0  0  # atno 17321 bound_to 7965
  139.5138  144.6938  151.5687 LP  0  0  0  0  0  0  0  0  0  0  0  0  # atno 17342 bound_to 10162
  140.6243  143.9199  150.6551 LP  0  0  0  0  0  0  0  0  0  0  0  0  # atno 17343 bound_to 10162
  155.9896  130.4943  150.7219 LP  0  0  0  0  0  0  0  0  0  0  0  0  # atno 17370 bound_to 10713
  157.4713  131.0893  151.0639 LP  0  0  0  0  0  0  0  0  0  0  0  0  # atno 17371 bound_to 10713
  139.9167  135.0197  156.7907 LP  0  0  0  0  0  0  0  0  0  0  0  0  # atno 17394 bound_to 11000
  140.6516  133.9726  155.7758 LP  0  0  0  0  0  0  0  0  0  0  0  0  # atno 17395 bound_to 11000

$$$$
