AV-unprocessed.smi:2514|AV-procd|sdf|9895|dock2
  -GOLD-   2272013533D 1   1.00000     0.00000
 Structure written by MMmdl.
 24 25  0  0  0  0  0  0  0  0  1 V2000
  152.5511  144.0519  159.3040 C   0  0  0  0  0  0  0  0  0  0  0  0
  151.8322  144.0424  157.9492 C   0  0  2  0  0  0  0  0  0  0  0  0
  150.6319  144.7825  158.0431 O   0  0  0  0  0  0  0  0  0  0  0  0
  151.4639  142.6564  157.4988 C   0  0  0  0  0  0  0  0  0  0  0  0
  150.7323  142.2807  156.4078 C   0  0  0  0  0  0  0  0  0  0  0  0
  150.7325  140.9036  156.4798 N   0  0  0  0  0  0  0  0  0  0  0  0
  150.0484  139.9824  155.6211 C   0  0  0  0  0  0  0  0  0  0  0  0
  150.8152  139.0978  154.6343 C   0  0  0  0  0  0  0  0  0  0  0  0
  149.6906  139.2689  153.7305 N   0  0  0  0  0  0  0  0  0  0  0  0
  149.2765  140.4893  154.4018 C   0  0  0  0  0  0  0  0  0  0  0  0
  151.3863  140.4615  157.5794 N   0  0  0  0  0  0  0  0  0  0  0  0
  151.8518  141.5054  158.1899 N   0  0  0  0  0  0  0  0  0  0  0  0
  153.4827  143.4879  159.2547 H   0  0  0  0  0  0  0  0  0  0  0  0
  151.9341  143.6079  160.0859 H   0  0  0  0  0  0  0  0  0  0  0  0
  152.7963  145.0691  159.6105 H   0  0  0  0  0  0  0  0  0  0  0  0
  152.4660  144.5235  157.2035 H   0  0  0  0  0  0  0  0  0  0  0  0
  150.0610  144.5162  157.3388 H   0  0  0  0  0  0  0  0  0  0  0  0
  150.2401  142.8421  155.6276 H   0  0  0  0  0  0  0  0  0  0  0  0
  149.4070  139.3805  156.2690 H   0  0  0  0  0  0  0  0  0  0  0  0
  151.7292  139.5447  154.2403 H   0  0  0  0  0  0  0  0  0  0  0  0
  150.9614  138.0712  154.9712 H   0  0  0  0  0  0  0  0  0  0  0  0
  149.9839  139.4337  152.7780 H   0  0  0  0  0  0  0  0  0  0  0  0
  148.2000  140.5696  154.5539 H   0  0  0  0  0  0  0  0  0  0  0  0
  149.7022  141.3795  153.9361 H   0  0  0  0  0  0  0  0  0  0  0  0
  1  2  1  0  0  0  0
  1 13  1  0  0  0  0
  1 14  1  0  0  0  0
  1 15  1  0  0  0  0
  2  3  1  0  0  0  0
  2  4  1  0  0  0  0
  2 16  1  0  0  0  0
  3 17  1  0  0  0  0
  4 12  1  0  0  0  0
  4  5  2  0  0  0  0
  5  6  1  0  0  0  0
  5 18  1  0  0  0  0
  6  7  1  0  0  0  0
  6 11  1  0  0  0  0
  7 10  1  0  0  0  0
  7  8  1  0  0  0  0
  7 19  1  0  0  0  0
  8  9  1  0  0  0  0
  8 20  1  0  0  0  0
  8 21  1  0  0  0  0
  9 10  1  0  0  0  0
  9 22  1  0  0  0  0
 10 23  1  0  0  0  0
 10 24  1  0  0  0  0
 11 12  2  0  0  0  0
M  END
> <s_m_source_file>
AV-unprocessed.smi

> <i_m_source_file_index>
2514

> <i_lp_mmshare_version>
43012

> <i_f3d_flags>
0

> <s_epik_input>
W0NIM11bQ0BIXShbT0hdKWMxW2NIXW4obm4xKVtDSF0yW0NIMl1bTkhdW0NIMl0y

> <s_epik_cmdline>
J2VwaWtfcHl0aG9uJywgJy1waCcsICc3LjAnLCAnLXRuJywgJzgnLCAnLW1hJywgJzIwMCcsICctbWV0YWxfYmluZGluZycsICctaW1hZScsICc8aW5maWxlLm1hZT4nLCAnLW9tYWUnLCAnPG91dGZpbGUubWFlPic=

> <r_lp_tautomer_probability>
1

> <r_epik_Ionization_Penalty>
0.704859

> <r_epik_Ionization_Penalty_Charging>
0

> <r_epik_Ionization_Penalty_Neutral>
0.704859

> <r_epik_State_Penalty>
0.727806

> <r_epik_Charging_Adjusted_Penalty>
0.727806

> <i_epik_Tot_Q>
0

> <i_epik_Tot_abs_Q>
0

> <r_epik_Metal_State_Penalty>
0.727738

> <b_epik_Metal_Only>
0

> <s_lp_Force_Field>
OPLS_2005

> <r_lp_Energy>
11.6004

> <b_lp_Chiralities_Consistent>
1

> <s_lp_Variant>
AV-unprocessed.smi:2514-3

> <Gold.Version>
5.8.1

> <Gold.Id.Protein>
6NUR|6NUR_protein|mol2

> <Gold.PLP.Fitness>
35.4352

> <Gold.PLP.PLP>
-26.6719

> <Gold.PLP.part.hbond>
-2.9120

> <Gold.PLP.part.metal>
0.0000

> <Gold.PLP.part.buried>
-2.8588

> <Gold.PLP.part.nonpolar>
-21.6242

> <Gold.PLP.part.repulsive>
0.0000

> <Gold.PLP.ligand.clash>
0.0000

> <Gold.PLP.ligand.torsion>
0.2408

> <Gold.PLP.Chemscore.Hbond>
2.0000

> <Gold.PLP.Chemscore.CHOScore>
1.0000

> <Gold.PLP.Chemscore.Metal>
0.0000

> <Gold.Chemscore.Hbonds>
donor molecule, donor type, donor heavy atom, donor atom, acceptor molecule, acceptor atom, score
      L1  H     3    17       P1  8028  1.00
      L1  H     9    22       P1  7957  1.00
      L1  C     5    18       P1  8028  1.00

> <Gold.PLP.Chemscore.Internal.Correction>
0.2448

> <Gold.Rescore>
     Score         DG    S(hbond)    S(metal)    S(lipo)     H(rot)  DE(clash)    DE(int)     intcor
     13.79     -14.27       1.66        0.00      66.61       1.78       0.05       0.43       ----

> <Gold.Chemscore.Fitness>
13.7875

> <Gold.Chemscore.DG>
-14.2684

> <Gold.Chemscore.ZeroCoef>
-5.4800

> <Gold.Chemscore.Hbond>
1.6642

> <Gold.Chemscore.Metal>
0.0000

> <Gold.Chemscore.Lipo>
66.6058

> <Gold.Chemscore.Internal_Hbond>
0.0000

> <Gold.Chemscore.DEClash>
0.0526

> <Gold.Chemscore.DEInternal>
0.4283

> <Gold.Chemscore.Rot>
1.7823

> <Gold.Chemscore.Internal.Correction>
   9.000000E+99

> <Gold.Chemscore.Hbonds>
donor molecule, donor type, donor heavy atom, donor atom, acceptor molecule, acceptor atom, score
      L1  H     3    17       P1  8028  0.32
      L1  H     9    22       P1  7957  0.91

> <Gold.Chemscore.Hbond.Weighted>
-5.5583

> <Gold.Chemscore.Metal.Weighted>
-0.0000

> <Gold.Chemscore.Lipo.Weighted>
-7.7929

> <Gold.Chemscore.Internal_Hbond.Weighted>
0.0000

> <Gold.Chemscore.DEClash.Weighted>
0.0526

> <Gold.Chemscore.DEInternal.Weighted>
0.4283

> <Gold.Chemscore.Rot.Weighted>
4.5627

> <Gold.Chemscore.Internal.Correction.Weighted>
   9.000000E+99

> <Gold.Protein.RotatedTorsions>
[ 6907 6896 6895 6894 ] final -128.24 input  -60.11 | X-H torsion
[ 7974 7965 7964 7962 ] final   45.64 input  175.53 | X-H torsion
[ 8008 7997 7996 7995 ] final -160.79 input   59.86 | X-H torsion
[ 10167 10162 10161 10158 ] final -171.15 input  -65.29 | X-H torsion
[ 10718 10713 10712 10709 ] final    9.46 input   66.30 | X-H torsion
[ 10763 10752 10751 10750 ] final  -89.59 input  -60.55 | X-H torsion
[ 11005 11000 10999 10996 ] final   -5.43 input  -57.11 | X-H torsion

> <Gold.Protein.ActiveResidues>
 VAL166  LYS551  ARG553  GLY616  TRP617  ASP618  TYR619  PRO620  LYS621  CYS622 
 ASP623  PHE694  ASN695  SER759  ASP760  ASP761  ALA762  ILE779  LEU786  VAL792 
 PHE793  MET794  SER795  GLU796  ALA797  LYS798  CYS799  TRP800  GLU811  SER814 

> <Gold.Protein.RotatedAtoms>
  150.9158  133.6941  159.2843 H   0  0  0  0  0  0  0  0  0  0  0  0  # atno 6907 bound_to 6896
  151.4412  135.1019  159.9680 H   0  0  0  0  0  0  0  0  0  0  0  0  # atno 6908 bound_to 6896
  152.4954  133.8566  159.7284 H   0  0  0  0  0  0  0  0  0  0  0  0  # atno 6909 bound_to 6896
  146.0461  139.4942  142.9747 H   0  0  0  0  0  0  0  0  0  0  0  0  # atno 7974 bound_to 7965
  155.7826  140.0867  157.2051 H   0  0  0  0  0  0  0  0  0  0  0  0  # atno 8008 bound_to 7997
  154.3989  140.1505  156.3127 H   0  0  0  0  0  0  0  0  0  0  0  0  # atno 8009 bound_to 7997
  155.8638  140.3429  155.5777 H   0  0  0  0  0  0  0  0  0  0  0  0  # atno 8010 bound_to 7997
  139.5819  144.1403  152.1526 H   0  0  0  0  0  0  0  0  0  0  0  0  # atno 10167 bound_to 10162
  156.9667  130.5953  149.5666 H   0  0  0  0  0  0  0  0  0  0  0  0  # atno 10718 bound_to 10713
  154.6568  135.5335  153.7969 H   0  0  0  0  0  0  0  0  0  0  0  0  # atno 10763 bound_to 10752
  153.0418  135.6496  154.0932 H   0  0  0  0  0  0  0  0  0  0  0  0  # atno 10764 bound_to 10752
  154.0845  135.2944  155.3264 H   0  0  0  0  0  0  0  0  0  0  0  0  # atno 10765 bound_to 10752
  140.6911  133.9070  155.8619 H   0  0  0  0  0  0  0  0  0  0  0  0  # atno 11005 bound_to 11000
  145.6803  141.0193  143.1610 LP  0  0  0  0  0  0  0  0  0  0  0  0  # atno 17320 bound_to 7965
  144.7099  139.8413  143.7418 LP  0  0  0  0  0  0  0  0  0  0  0  0  # atno 17321 bound_to 7965
  140.0958  144.5581  150.7023 LP  0  0  0  0  0  0  0  0  0  0  0  0  # atno 17342 bound_to 10162
  140.7096  143.2495  151.4620 LP  0  0  0  0  0  0  0  0  0  0  0  0  # atno 17343 bound_to 10162
  156.0300  130.5391  150.8508 LP  0  0  0  0  0  0  0  0  0  0  0  0  # atno 17370 bound_to 10713
  157.5621  131.0946  150.9544 LP  0  0  0  0  0  0  0  0  0  0  0  0  # atno 17371 bound_to 10713
  141.0241  134.0848  157.4088 LP  0  0  0  0  0  0  0  0  0  0  0  0  # atno 17394 bound_to 11000
  139.8923  135.0124  156.6839 LP  0  0  0  0  0  0  0  0  0  0  0  0  # atno 17395 bound_to 11000

$$$$
