AV-unprocessed.smi:11|AV-procd|sdf|55|dock2
  -GOLD-   2262015173D 1   1.00000     0.00000
 Structure written by MMmdl.
 33 35  0  0  0  0  0  0  0  0  1 V2000
  153.8215  141.5810  160.3942 C   0  0  0  0  0  0  0  0  0  0  0  0
  153.4964  142.7410  159.4382 C   0  0  0  0  0  0  0  0  0  0  0  0
  151.9963  143.1116  159.3315 C   0  0  1  0  0  0  0  0  0  0  0  0
  151.5070  143.3915  160.6287 O   0  0  0  0  0  0  0  0  0  0  0  0
  151.7073  144.2715  158.3660 C   0  0  0  0  0  0  0  0  0  0  0  0
  151.6108  143.5791  157.0081 C   0  0  0  0  0  0  0  0  0  0  0  0
  151.0414  142.2716  157.3008 N   0  0  0  0  0  0  0  0  0  0  0  0
  151.0122  141.2510  156.3291 C   0  0  0  0  0  0  0  0  0  0  0  0
  152.0695  140.4008  156.2663 N   0  0  0  0  0  0  0  0  0  0  0  0
  152.0822  139.4160  155.3637 C   0  0  0  0  0  0  0  0  0  0  0  0
  151.1621  139.1136  154.4453 N   0  0  0  0  0  0  0  0  0  0  0  0
  150.1082  139.9758  154.4971 C   0  0  0  0  0  0  0  0  0  0  0  0
  148.9888  139.9680  153.6917 N   0  0  0  0  0  0  0  0  0  0  0  0
  148.1419  141.0065  154.0361 C   0  0  0  0  0  0  0  0  0  0  0  0
  148.6973  141.7095  155.0747 C   0  0  0  0  0  0  0  0  0  0  0  0
  149.9486  141.0694  155.3970 C   0  0  0  0  0  0  0  0  0  0  0  0
  151.1862  141.9560  158.7155 C   0  0  0  0  0  0  0  0  0  0  0  0
  148.7942  139.3132  152.9479 H   0  0  0  0  0  0  0  0  0  0  0  0
  154.8869  141.3523  160.3664 H   0  0  0  0  0  0  0  0  0  0  0  0
  153.2859  140.6722  160.1194 H   0  0  0  0  0  0  0  0  0  0  0  0
  153.5705  141.8211  161.4265 H   0  0  0  0  0  0  0  0  0  0  0  0
  154.0700  143.6165  159.7445 H   0  0  0  0  0  0  0  0  0  0  0  0
  153.8676  142.4794  158.4464 H   0  0  0  0  0  0  0  0  0  0  0  0
  150.5624  143.3876  160.5998 H   0  0  0  0  0  0  0  0  0  0  0  0
  150.7405  144.7195  158.6016 H   0  0  0  0  0  0  0  0  0  0  0  0
  152.4464  145.0712  158.3830 H   0  0  0  0  0  0  0  0  0  0  0  0
  150.9875  144.1402  156.3115 H   0  0  0  0  0  0  0  0  0  0  0  0
  152.6025  143.4644  156.5687 H   0  0  0  0  0  0  0  0  0  0  0  0
  152.9543  138.7795  155.3788 H   0  0  0  0  0  0  0  0  0  0  0  0
  147.2115  141.1630  153.5102 H   0  0  0  0  0  0  0  0  0  0  0  0
  148.2777  142.5778  155.5597 H   0  0  0  0  0  0  0  0  0  0  0  0
  151.6761  140.9955  158.8784 H   0  0  0  0  0  0  0  0  0  0  0  0
  150.1870  141.9030  159.1496 H   0  0  0  0  0  0  0  0  0  0  0  0
  1  2  1  0  0  0  0
  1 19  1  0  0  0  0
  1 20  1  0  0  0  0
  1 21  1  0  0  0  0
  2  3  1  0  0  0  0
  2 22  1  0  0  0  0
  2 23  1  0  0  0  0
  3 17  1  0  0  0  0
  3  4  1  0  0  0  0
  3  5  1  0  0  0  0
  4 24  1  0  0  0  0
  5  6  1  0  0  0  0
  5 25  1  0  0  0  0
  5 26  1  0  0  0  0
  6  7  1  0  0  0  0
  6 27  1  0  0  0  0
  6 28  1  0  0  0  0
  7  8  1  0  0  0  0
  7 17  1  0  0  0  0
  8 16  1  0  0  0  0
  8  9  2  0  0  0  0
  9 10  1  0  0  0  0
 10 11  2  0  0  0  0
 10 29  1  0  0  0  0
 11 12  1  0  0  0  0
 12 16  2  0  0  0  0
 12 13  1  0  0  0  0
 13 18  1  0  0  0  0
 13 14  1  0  0  0  0
 14 15  2  0  0  0  0
 14 30  1  0  0  0  0
 15 16  1  0  0  0  0
 15 31  1  0  0  0  0
 17 32  1  0  0  0  0
 17 33  1  0  0  0  0
M  END
> <s_m_source_file>
AV-unprocessed.smi

> <i_m_source_file_index>
11

> <i_lp_mmshare_version>
43012

> <i_f3d_flags>
0

> <s_epik_input>
W0NIM11bQ0gyXVtDQEBdMShbT0hdKVtDSDJdW0NIMl1OKFtDSDJdMSljKG5bY0hdbjIpYyhjMjMpW2NIXVtjSF1bbkhdMw==

> <s_epik_cmdline>
J2VwaWtfcHl0aG9uJywgJy1waCcsICc3LjAnLCAnLXRuJywgJzgnLCAnLW1hJywgJzIwMCcsICctbWV0YWxfYmluZGluZycsICctaW1hZScsICc8aW5maWxlLm1hZT4nLCAnLW9tYWUnLCAnPG91dGZpbGUubWFlPic=

> <r_lp_tautomer_probability>
0.999998

> <r_epik_Ionization_Penalty>
0.0511253

> <r_epik_Ionization_Penalty_Charging>
0

> <r_epik_Ionization_Penalty_Neutral>
0.0511253

> <r_epik_State_Penalty>
0.0394181

> <r_epik_Charging_Adjusted_Penalty>
0.0394181

> <i_epik_Tot_Q>
0

> <i_epik_Tot_abs_Q>
0

> <r_epik_Metal_State_Penalty>
0.0367127

> <b_epik_Metal_Only>
0

> <s_lp_Force_Field>
OPLS_2005

> <r_lp_Energy>
27.4132

> <b_lp_Chiralities_Consistent>
1

> <s_lp_Variant>
AV-unprocessed.smi:11-1

> <Gold.Version>
5.8.1

> <Gold.Id.Protein>
6NUR|6NUR_protein|mol2

> <Gold.PLP.Fitness>
38.3588

> <Gold.PLP.PLP>
-39.6797

> <Gold.PLP.part.hbond>
-2.9574

> <Gold.PLP.part.metal>
0.0000

> <Gold.PLP.part.buried>
0.3521

> <Gold.PLP.part.nonpolar>
-36.6809

> <Gold.PLP.part.repulsive>
0.2821

> <Gold.PLP.ligand.clash>
0.0000

> <Gold.PLP.ligand.torsion>
1.2862

> <Gold.PLP.Chemscore.Hbond>
0.3367

> <Gold.PLP.Chemscore.CHOScore>
0.0000

> <Gold.PLP.Chemscore.Metal>
0.0000

> <Gold.Chemscore.Hbonds>
donor molecule, donor type, donor heavy atom, donor atom, acceptor molecule, acceptor atom, score
      L1  H    13    18       P1  7957  0.16
      P1  H  7997  8008       L1     9  0.13

> <Gold.PLP.Chemscore.Internal.Correction>
0.2415

> <Gold.Rescore>
     Score         DG    S(hbond)    S(metal)    S(lipo)     H(rot)  DE(clash)    DE(int)     intcor
     10.17     -11.63       0.01        0.00      83.57       1.43       0.12       1.34       ----

> <Gold.Chemscore.Fitness>
10.1694

> <Gold.Chemscore.DG>
-11.6298

> <Gold.Chemscore.ZeroCoef>
-5.4800

> <Gold.Chemscore.Hbond>
0.0086

> <Gold.Chemscore.Metal>
0.0000

> <Gold.Chemscore.Lipo>
83.5692

> <Gold.Chemscore.Internal_Hbond>
0.0000

> <Gold.Chemscore.DEClash>
0.1239

> <Gold.Chemscore.DEInternal>
1.3365

> <Gold.Chemscore.Rot>
1.4283

> <Gold.Chemscore.Internal.Correction>
   9.000000E+99

> <Gold.Chemscore.Hbonds>
donor molecule, donor type, donor heavy atom, donor atom, acceptor molecule, acceptor atom, score
      L1  H    13    18       P1  7957  0.17

> <Gold.Chemscore.Hbond.Weighted>
-0.0288

> <Gold.Chemscore.Metal.Weighted>
-0.0000

> <Gold.Chemscore.Lipo.Weighted>
-9.7776

> <Gold.Chemscore.Internal_Hbond.Weighted>
0.0000

> <Gold.Chemscore.DEClash.Weighted>
0.1239

> <Gold.Chemscore.DEInternal.Weighted>
1.3365

> <Gold.Chemscore.Rot.Weighted>
3.6566

> <Gold.Chemscore.Internal.Correction.Weighted>
   9.000000E+99

> <Gold.Protein.RotatedTorsions>
[ 6907 6896 6895 6894 ] final -164.59 input  -60.11 | X-H torsion
[ 7974 7965 7964 7962 ] final -109.78 input  175.53 | X-H torsion
[ 8008 7997 7996 7995 ] final  -48.07 input   59.86 | X-H torsion
[ 10167 10162 10161 10158 ] final   36.33 input  -65.29 | X-H torsion
[ 10718 10713 10712 10709 ] final  103.64 input   66.30 | X-H torsion
[ 10763 10752 10751 10750 ] final  154.76 input  -60.55 | X-H torsion
[ 11005 11000 10999 10996 ] final  -72.76 input  -57.11 | X-H torsion

> <Gold.Protein.ActiveResidues>
 VAL166  LYS551  ARG553  GLY616  TRP617  ASP618  TYR619  PRO620  LYS621  CYS622 
 ASP623  PHE694  ASN695  SER759  ASP760  ASP761  ALA762  ILE779  LEU786  VAL792 
 PHE793  MET794  SER795  GLU796  ALA797  LYS798  CYS799  TRP800  GLU811  SER814 

> <Gold.Protein.RotatedAtoms>
  151.4142  133.3718  159.2747 H   0  0  0  0  0  0  0  0  0  0  0  0  # atno 6907 bound_to 6896
  150.9341  134.8755  159.7581 H   0  0  0  0  0  0  0  0  0  0  0  0  # atno 6908 bound_to 6896
  152.5041  134.4088  159.9494 H   0  0  0  0  0  0  0  0  0  0  0  0  # atno 6909 bound_to 6896
  145.1763  140.8950  143.3506 H   0  0  0  0  0  0  0  0  0  0  0  0  # atno 7974 bound_to 7965
  154.4024  140.1330  156.4279 H   0  0  0  0  0  0  0  0  0  0  0  0  # atno 8008 bound_to 7997
  155.7579  140.3486  155.5163 H   0  0  0  0  0  0  0  0  0  0  0  0  # atno 8009 bound_to 7997
  155.8887  140.0999  157.1424 H   0  0  0  0  0  0  0  0  0  0  0  0  # atno 8010 bound_to 7997
  140.4138  144.1556  150.6141 H   0  0  0  0  0  0  0  0  0  0  0  0  # atno 10167 bound_to 10162
  157.6766  131.0784  150.5585 H   0  0  0  0  0  0  0  0  0  0  0  0  # atno 10718 bound_to 10713
  154.1575  135.2811  155.3118 H   0  0  0  0  0  0  0  0  0  0  0  0  # atno 10763 bound_to 10752
  154.6172  135.5479  153.7539 H   0  0  0  0  0  0  0  0  0  0  0  0  # atno 10764 bound_to 10752
  153.0202  135.6430  154.1717 H   0  0  0  0  0  0  0  0  0  0  0  0  # atno 10765 bound_to 10752
  141.1613  133.6857  156.7108 H   0  0  0  0  0  0  0  0  0  0  0  0  # atno 11005 bound_to 11000
  145.0181  139.3448  143.6086 LP  0  0  0  0  0  0  0  0  0  0  0  0  # atno 17320 bound_to 7965
  146.3460  139.9471  142.8733 LP  0  0  0  0  0  0  0  0  0  0  0  0  # atno 17321 bound_to 7965
  140.4609  143.2449  151.9221 LP  0  0  0  0  0  0  0  0  0  0  0  0  # atno 17342 bound_to 10162
  139.4782  144.5468  151.8446 LP  0  0  0  0  0  0  0  0  0  0  0  0  # atno 17343 bound_to 10162
  156.5888  130.4324  149.5945 LP  0  0  0  0  0  0  0  0  0  0  0  0  # atno 17370 bound_to 10713
  156.2600  130.6957  151.1722 LP  0  0  0  0  0  0  0  0  0  0  0  0  # atno 17371 bound_to 10713
  140.2888  134.8257  157.3999 LP  0  0  0  0  0  0  0  0  0  0  0  0  # atno 17394 bound_to 11000
  140.1365  134.5027  155.8064 LP  0  0  0  0  0  0  0  0  0  0  0  0  # atno 17395 bound_to 11000

$$$$
