AV-unprocessed.smi:713|AV-procd|sdf|3474|dock1
  -GOLD-   22720 0463D 1   1.00000     0.00000
 Structure written by MMmdl.
 41 42  0  0  0  0  0  0  0  0  1 V2000
  147.6163  134.4058  158.9068 C   0  0  0  0  0  0  0  0  0  0  0  0
  147.8659  135.7966  159.5251 C   0  0  2  0  0  0  0  0  0  0  0  0
  149.1136  136.4960  158.9566 C   0  0  0  0  0  0  0  0  0  0  0  0
  150.2304  135.9902  159.0754 O   0  0  0  0  0  0  0  0  0  0  0  0
  148.9043  137.6623  158.3239 N   0  0  0  0  0  0  0  0  0  0  0  0
  149.9408  138.4927  157.7202 C   0  0  2  0  0  0  0  0  0  0  0  0
  149.5461  139.9755  157.8406 C   0  0  0  0  0  0  0  0  0  0  0  0
  150.5854  140.8946  157.1796 C   0  0  0  0  0  0  0  0  0  0  0  0
  150.8483  140.4946  155.7161 C   0  0  0  0  0  0  0  0  0  0  0  0
  151.1862  138.9973  155.5315 C   0  0  1  0  0  0  0  0  0  0  0  0
  152.9160  138.5534  156.0548 S   0  0  0  0  0  0  0  0  0  0  0  0
  153.8935  138.9068  154.5356 C   0  0  0  0  0  0  0  0  0  0  0  0
  153.3773  139.4751  157.1033 O   0  0  0  0  0  0  0  0  0  0  0  0
  152.9601  137.1042  156.3002 O   0  0  0  0  0  0  0  0  0  0  0  0
  150.1457  138.1078  156.2405 C   0  0  0  0  0  0  0  0  0  0  0  0
  147.9215  135.7381  160.9820 N   0  0  0  0  0  0  0  0  0  0  0  0
  147.8615  134.6200  161.7893 C   0  0  0  0  0  0  0  0  0  0  0  0
  147.9170  135.0456  163.0854 C   0  0  0  0  0  0  0  0  0  0  0  0
  148.0039  136.4611  162.9727 C   0  0  0  0  0  0  0  0  0  0  0  0
  148.0006  136.8729  161.7158 N   0  0  0  0  0  0  0  0  0  0  0  0
  147.4933  134.4714  157.8253 H   0  0  0  0  0  0  0  0  0  0  0  0
  146.7076  133.9589  159.3107 H   0  0  0  0  0  0  0  0  0  0  0  0
  148.4388  133.7172  159.1054 H   0  0  0  0  0  0  0  0  0  0  0  0
  147.0123  136.4232  159.2621 H   0  0  0  0  0  0  0  0  0  0  0  0
  147.9569  138.0067  158.2689 H   0  0  0  0  0  0  0  0  0  0  0  0
  150.8701  138.3406  158.2705 H   0  0  0  0  0  0  0  0  0  0  0  0
  148.5740  140.1376  157.3723 H   0  0  0  0  0  0  0  0  0  0  0  0
  149.4321  140.2486  158.8904 H   0  0  0  0  0  0  0  0  0  0  0  0
  150.2349  141.9264  157.2172 H   0  0  0  0  0  0  0  0  0  0  0  0
  151.5095  140.8786  157.7543 H   0  0  0  0  0  0  0  0  0  0  0  0
  149.9502  140.7154  155.1379 H   0  0  0  0  0  0  0  0  0  0  0  0
  151.6300  141.1237  155.2928 H   0  0  0  0  0  0  0  0  0  0  0  0
  151.1443  138.7690  154.4662 H   0  0  0  0  0  0  0  0  0  0  0  0
  154.9212  138.5770  154.6867 H   0  0  0  0  0  0  0  0  0  0  0  0
  153.8922  139.9765  154.3300 H   0  0  0  0  0  0  0  0  0  0  0  0
  153.4643  138.3690  153.6907 H   0  0  0  0  0  0  0  0  0  0  0  0
  150.4368  137.0602  156.1578 H   0  0  0  0  0  0  0  0  0  0  0  0
  149.1938  138.1954  155.7146 H   0  0  0  0  0  0  0  0  0  0  0  0
  147.7846  133.6242  161.3780 H   0  0  0  0  0  0  0  0  0  0  0  0
  147.8961  134.4386  163.9782 H   0  0  0  0  0  0  0  0  0  0  0  0
  148.0660  137.1967  163.7611 H   0  0  0  0  0  0  0  0  0  0  0  0
  1  2  1  0  0  0  0
  1 21  1  0  0  0  0
  1 22  1  0  0  0  0
  1 23  1  0  0  0  0
  2  3  1  0  0  0  0
  2 16  1  0  0  0  0
  2 24  1  0  0  0  0
  3  4  2  0  0  0  0
  3  5  1  0  0  0  0
  5  6  1  0  0  0  0
  5 25  1  0  0  0  0
  6 15  1  0  0  0  0
  6  7  1  0  0  0  0
  6 26  1  0  0  0  0
  7  8  1  0  0  0  0
  7 27  1  0  0  0  0
  7 28  1  0  0  0  0
  8  9  1  0  0  0  0
  8 29  1  0  0  0  0
  8 30  1  0  0  0  0
  9 10  1  0  0  0  0
  9 31  1  0  0  0  0
  9 32  1  0  0  0  0
 10 11  1  0  0  0  0
 10 15  1  0  0  0  0
 10 33  1  0  0  0  0
 11 12  1  0  0  0  0
 11 13  2  0  0  0  0
 11 14  2  0  0  0  0
 12 34  1  0  0  0  0
 12 35  1  0  0  0  0
 12 36  1  0  0  0  0
 15 37  1  0  0  0  0
 15 38  1  0  0  0  0
 16 20  1  0  0  0  0
 16 17  1  0  0  0  0
 17 18  2  0  0  0  0
 17 39  1  0  0  0  0
 18 19  1  0  0  0  0
 18 40  1  0  0  0  0
 19 20  2  0  0  0  0
 19 41  1  0  0  0  0
M  END
> <s_m_source_file>
AV-unprocessed.smi

> <i_m_source_file_index>
713

> <i_lp_mmshare_version>
43012

> <i_f3d_flags>
0

> <s_epik_input>
bjFbY0hdW2NIXVtjSF1uMVtDQEhdKFtDSDNdKUMoPU8pW05IXVtDQEBIXTJbQ0gyXVtDSDJdW0NIMl1bQ0BIXShbQ0gyXTIpUyg9TykoPU8pW0NIM10=

> <s_epik_cmdline>
J2VwaWtfcHl0aG9uJywgJy1waCcsICc3LjAnLCAnLXRuJywgJzgnLCAnLW1hJywgJzIwMCcsICctbWV0YWxfYmluZGluZycsICctaW1hZScsICc8aW5maWxlLm1hZT4nLCAnLW9tYWUnLCAnPG91dGZpbGUubWFlPic=

> <r_lp_tautomer_probability>
1

> <r_epik_Ionization_Penalty>
4.07816e-05

> <r_epik_Ionization_Penalty_Charging>
0

> <r_epik_Ionization_Penalty_Neutral>
4.07816e-05

> <r_epik_State_Penalty>
-0

> <r_epik_Charging_Adjusted_Penalty>
0

> <i_epik_Tot_Q>
0

> <i_epik_Tot_abs_Q>
0

> <r_epik_Metal_State_Penalty>
-0

> <b_epik_Metal_Only>
0

> <s_lp_Force_Field>
OPLS_2005

> <r_lp_Energy>
4.10812

> <b_lp_Chiralities_Consistent>
1

> <s_lp_Variant>
AV-unprocessed.smi:713-1

> <Gold.Version>
5.8.1

> <Gold.Id.Protein>
6NUR|6NUR_protein|mol2

> <Gold.PLP.Fitness>
45.9830

> <Gold.PLP.PLP>
-35.3914

> <Gold.PLP.part.hbond>
-5.0000

> <Gold.PLP.part.metal>
0.0000

> <Gold.PLP.part.buried>
-3.1986

> <Gold.PLP.part.nonpolar>
-26.1652

> <Gold.PLP.part.repulsive>
0.1295

> <Gold.PLP.ligand.clash>
0.0000

> <Gold.PLP.ligand.torsion>
1.4671

> <Gold.PLP.Chemscore.Hbond>
4.4080

> <Gold.PLP.Chemscore.CHOScore>
0.0000

> <Gold.PLP.Chemscore.Metal>
0.0000

> <Gold.Chemscore.Hbonds>
donor molecule, donor type, donor heavy atom, donor atom, acceptor molecule, acceptor atom, score
      P1  H  6896  6909       L1     4  0.71
      P1  H  6931  6943       L1    20  0.90
      P1  H  6934  6947       L1    20  0.01
      P1  H  7997  8008       L1    13  0.34
      P1  H 10752 10763       L1    14  0.67

> <Gold.PLP.Chemscore.Internal.Correction>
0.3019

> <Gold.Rescore>
     Score         DG    S(hbond)    S(metal)    S(lipo)     H(rot)  DE(clash)    DE(int)     intcor
     18.10     -20.24       3.35        0.00      68.36       1.72       0.03       2.11       ----

> <Gold.Chemscore.Fitness>
18.1022

> <Gold.Chemscore.DG>
-20.2399

> <Gold.Chemscore.ZeroCoef>
-5.4800

> <Gold.Chemscore.Hbond>
3.3464

> <Gold.Chemscore.Metal>
0.0000

> <Gold.Chemscore.Lipo>
68.3642

> <Gold.Chemscore.Internal_Hbond>
0.0000

> <Gold.Chemscore.DEClash>
0.0277

> <Gold.Chemscore.DEInternal>
2.1100

> <Gold.Chemscore.Rot>
1.7249

> <Gold.Chemscore.Internal.Correction>
   9.000000E+99

> <Gold.Chemscore.Hbonds>
donor molecule, donor type, donor heavy atom, donor atom, acceptor molecule, acceptor atom, score
      P1  H  6896  6909       L1     4  0.71
      P1  H  6931  6943       L1    20  0.18
      P1  H  6934  6947       L1    20  0.06
      P1  H  7997  8008       L1    13  0.30
      P1  H 10752 10763       L1    14  0.62

> <Gold.Chemscore.Hbond.Weighted>
-11.1771

> <Gold.Chemscore.Metal.Weighted>
-0.0000

> <Gold.Chemscore.Lipo.Weighted>
-7.9986

> <Gold.Chemscore.Internal_Hbond.Weighted>
0.0000

> <Gold.Chemscore.DEClash.Weighted>
0.0277

> <Gold.Chemscore.DEInternal.Weighted>
2.1100

> <Gold.Chemscore.Rot.Weighted>
4.4157

> <Gold.Chemscore.Internal.Correction.Weighted>
   9.000000E+99

> <Gold.Protein.RotatedTorsions>
[ 6907 6896 6895 6894 ] final   71.85 input  -60.11 | X-H torsion
[ 7974 7965 7964 7962 ] final   38.61 input  175.53 | X-H torsion
[ 8008 7997 7996 7995 ] final  -75.57 input   59.86 | X-H torsion
[ 10167 10162 10161 10158 ] final  172.03 input  -65.29 | X-H torsion
[ 10718 10713 10712 10709 ] final -106.04 input   66.30 | X-H torsion
[ 10763 10752 10751 10750 ] final   89.84 input  -60.55 | X-H torsion
[ 11005 11000 10999 10996 ] final -135.00 input  -57.11 | X-H torsion

> <Gold.Protein.ActiveResidues>
 VAL166  LYS551  ARG553  GLY616  TRP617  ASP618  TYR619  PRO620  LYS621  CYS622 
 ASP623  PHE694  ASN695  SER759  ASP760  ASP761  ALA762  ILE779  LEU786  VAL792 
 PHE793  MET794  SER795  GLU796  ALA797  LYS798  CYS799  TRP800  GLU811  SER814 

> <Gold.Protein.RotatedAtoms>
  152.4834  134.4658  159.9619 H   0  0  0  0  0  0  0  0  0  0  0  0  # atno 6907 bound_to 6896
  151.4659  133.3575  159.2824 H   0  0  0  0  0  0  0  0  0  0  0  0  # atno 6908 bound_to 6896
  150.8925  134.8355  159.7364 H   0  0  0  0  0  0  0  0  0  0  0  0  # atno 6909 bound_to 6896
  146.1049  139.5751  142.9390 H   0  0  0  0  0  0  0  0  0  0  0  0  # atno 7974 bound_to 7965
  154.5428  140.0742  156.8539 H   0  0  0  0  0  0  0  0  0  0  0  0  # atno 8008 bound_to 7997
  155.3146  140.3392  155.4224 H   0  0  0  0  0  0  0  0  0  0  0  0  # atno 8009 bound_to 7997
  156.1891  140.1679  156.8114 H   0  0  0  0  0  0  0  0  0  0  0  0  # atno 8010 bound_to 7997
  139.5064  144.3419  152.0009 H   0  0  0  0  0  0  0  0  0  0  0  0  # atno 10167 bound_to 10162
  156.0372  130.5593  150.7625 H   0  0  0  0  0  0  0  0  0  0  0  0  # atno 10718 bound_to 10713
  153.1913  135.4456  155.0152 H   0  0  0  0  0  0  0  0  0  0  0  0  # atno 10763 bound_to 10752
  154.8092  135.3287  154.7354 H   0  0  0  0  0  0  0  0  0  0  0  0  # atno 10764 bound_to 10752
  153.7808  135.6977  153.4944 H   0  0  0  0  0  0  0  0  0  0  0  0  # atno 10765 bound_to 10752
  140.8938  134.1777  157.4509 H   0  0  0  0  0  0  0  0  0  0  0  0  # atno 11005 bound_to 11000
  145.5782  141.0386  143.2137 LP  0  0  0  0  0  0  0  0  0  0  0  0  # atno 17320 bound_to 7965
  144.7462  139.7313  143.7291 LP  0  0  0  0  0  0  0  0  0  0  0  0  # atno 17321 bound_to 7965
  140.2857  144.3810  150.6104 LP  0  0  0  0  0  0  0  0  0  0  0  0  # atno 17342 bound_to 10162
  140.5984  143.2167  151.7119 LP  0  0  0  0  0  0  0  0  0  0  0  0  # atno 17343 bound_to 10162
  157.5141  131.0927  151.0162 LP  0  0  0  0  0  0  0  0  0  0  0  0  # atno 17370 bound_to 10713
  157.0510  130.5787  149.5370 LP  0  0  0  0  0  0  0  0  0  0  0  0  # atno 17371 bound_to 10713
  139.8733  134.9870  156.5348 LP  0  0  0  0  0  0  0  0  0  0  0  0  # atno 17394 bound_to 11000
  140.8314  133.8276  155.8987 LP  0  0  0  0  0  0  0  0  0  0  0  0  # atno 17395 bound_to 11000

$$$$
