AV-unprocessed.smi:3075|AV-procd|sdf|11723|dock2
  -GOLD-   2272017123D 1   1.00000     0.00000
 Structure written by MMmdl.
 30 31  0  0  0  0  0  0  0  0  2 V2000
  147.4372  138.2876  151.9312 N   0  3  0  0  0  0  0  0  0  0  0  0
  147.2167  138.4331  153.3796 C   0  0  0  0  0  0  0  0  0  0  0  0
  147.8556  139.7115  153.9021 C   0  0  0  0  0  0  0  0  0  0  0  0
  147.1454  140.9280  153.8133 C   0  0  0  0  0  0  0  0  0  0  0  0
  147.7320  142.1044  154.3131 C   0  0  0  0  0  0  0  0  0  0  0  0
  149.0133  142.0188  154.8874 C   0  0  0  0  0  0  0  0  0  0  0  0
  149.7039  140.8636  154.9801 N   0  0  0  0  0  0  0  0  0  0  0  0
  149.1443  139.7272  154.4986 C   0  0  0  0  0  0  0  0  0  0  0  0
  149.8958  138.5429  154.5949 N   0  0  0  0  0  0  0  0  0  0  0  0
  151.2804  138.7832  154.9816 C   0  0  0  0  0  0  0  0  0  0  0  0
  152.0906  137.4802  154.8688 C   0  0  0  0  0  0  0  0  0  0  0  0
  151.4745  136.4626  155.6533 O   0  0  0  0  0  0  0  0  0  0  0  0
  150.1435  136.1852  155.2268 C   0  0  0  0  0  0  0  0  0  0  0  0
  149.2873  137.4565  155.3562 C   0  0  0  0  0  0  0  0  0  0  0  0
  146.5500  138.3195  151.4495 H   0  0  0  0  0  0  0  0  0  0  0  0
  147.8899  137.4040  151.7459 H   0  0  0  0  0  0  0  0  0  0  0  0
  146.1473  138.4178  153.5879 H   0  0  0  0  0  0  0  0  0  0  0  0
  147.6449  137.5689  153.8886 H   0  0  0  0  0  0  0  0  0  0  0  0
  146.1608  140.9619  153.3700 H   0  0  0  0  0  0  0  0  0  0  0  0
  147.2127  143.0500  154.2587 H   0  0  0  0  0  0  0  0  0  0  0  0
  149.4962  142.8999  155.2828 H   0  0  0  0  0  0  0  0  0  0  0  0
  151.7242  139.5556  154.3531 H   0  0  0  0  0  0  0  0  0  0  0  0
  151.3091  139.1520  156.0080 H   0  0  0  0  0  0  0  0  0  0  0  0
  152.1639  137.1570  153.8292 H   0  0  0  0  0  0  0  0  0  0  0  0
  153.1081  137.6376  155.2264 H   0  0  0  0  0  0  0  0  0  0  0  0
  150.1482  135.8218  154.1980 H   0  0  0  0  0  0  0  0  0  0  0  0
  149.7306  135.3882  155.8452 H   0  0  0  0  0  0  0  0  0  0  0  0
  149.2072  137.7368  156.4076 H   0  0  0  0  0  0  0  0  0  0  0  0
  148.2768  137.2689  154.9915 H   0  0  0  0  0  0  0  0  0  0  0  0
  148.0248  139.0414  151.6044 H   0  0  0  0  0  0  0  0  0  0  0  0
  1  2  1  0  0  0  0
  1 15  1  0  0  0  0
  1 16  1  0  0  0  0
  1 30  1  0  0  0  0
  2  3  1  0  0  0  0
  2 17  1  0  0  0  0
  2 18  1  0  0  0  0
  3  8  1  0  0  0  0
  3  4  2  0  0  0  0
  4  5  1  0  0  0  0
  4 19  1  0  0  0  0
  5  6  2  0  0  0  0
  5 20  1  0  0  0  0
  6  7  1  0  0  0  0
  6 21  1  0  0  0  0
  7  8  2  0  0  0  0
  8  9  1  0  0  0  0
  9 14  1  0  0  0  0
  9 10  1  0  0  0  0
 10 11  1  0  0  0  0
 10 22  1  0  0  0  0
 10 23  1  0  0  0  0
 11 12  1  0  0  0  0
 11 24  1  0  0  0  0
 11 25  1  0  0  0  0
 12 13  1  0  0  0  0
 13 14  1  0  0  0  0
 13 26  1  0  0  0  0
 13 27  1  0  0  0  0
 14 28  1  0  0  0  0
 14 29  1  0  0  0  0
M  CHG  1   1   1
M  END
> <s_m_source_file>
AV-unprocessed.smi

> <i_m_source_file_index>
3075

> <i_lp_mmshare_version>
43012

> <i_f3d_flags>
0

> <s_epik_input>
W05IMl1bQ0gyXWMxW2NIXVtjSF1bY0hdbmMxTjJbQ0gyXVtDSDJdT1tDSDJdW0NIMl0y

> <s_epik_cmdline>
J2VwaWtfcHl0aG9uJywgJy1waCcsICc3LjAnLCAnLXRuJywgJzgnLCAnLW1hJywgJzIwMCcsICctbWV0YWxfYmluZGluZycsICctaW1hZScsICc8aW5maWxlLm1hZT4nLCAnLW9tYWUnLCAnPG91dGZpbGUubWFlPic=

> <r_lp_tautomer_probability>
1

> <r_epik_Ionization_Penalty>
0.0619672

> <r_epik_Ionization_Penalty_Charging>
0.0611992

> <r_epik_Ionization_Penalty_Neutral>
0.000768062

> <r_epik_State_Penalty>
0.0535001

> <r_epik_Charging_Adjusted_Penalty>
0.114699

> <i_epik_Tot_Q>
1

> <i_epik_Tot_abs_Q>
1

> <r_epik_Metal_State_Penalty>
0.053574

> <b_epik_Metal_Only>
0

> <s_lp_Force_Field>
OPLS_2005

> <r_lp_Energy>
18.0321

> <b_lp_Chiralities_Consistent>
1

> <s_lp_Variant>
AV-unprocessed.smi:3075-1

> <Gold.Version>
5.8.1

> <Gold.Id.Protein>
6NUR|6NUR_protein|mol2

> <Gold.PLP.Fitness>
34.9524

> <Gold.PLP.PLP>
-20.9248

> <Gold.PLP.part.hbond>
-4.0000

> <Gold.PLP.part.metal>
0.0000

> <Gold.PLP.part.buried>
5.6439

> <Gold.PLP.part.nonpolar>
-22.5900

> <Gold.PLP.part.repulsive>
0.5228

> <Gold.PLP.ligand.clash>
0.0000

> <Gold.PLP.ligand.torsion>
0.4573

> <Gold.PLP.Chemscore.Hbond>
4.2518

> <Gold.PLP.Chemscore.CHOScore>
0.6829

> <Gold.PLP.Chemscore.Metal>
0.0000

> <Gold.Chemscore.Hbonds>
donor molecule, donor type, donor heavy atom, donor atom, acceptor molecule, acceptor atom, score
      L1  H     1    16       P1  7948  2.00
      L1  H     1    30       P1  7957  1.00
      P1  H  7989  7998       L1     7  0.02
      L1  C     6    21       P1  8028  0.80

> <Gold.PLP.Chemscore.Internal.Correction>
0.1380

> <Gold.Rescore>
     Score         DG    S(hbond)    S(metal)    S(lipo)     H(rot)  DE(clash)    DE(int)     intcor
     13.67     -17.43       2.45        0.00      61.08       1.32       2.45       1.32       ----

> <Gold.Chemscore.Fitness>
13.6665

> <Gold.Chemscore.DG>
-17.4341

> <Gold.Chemscore.ZeroCoef>
-5.4800

> <Gold.Chemscore.Hbond>
2.4479

> <Gold.Chemscore.Metal>
0.0000

> <Gold.Chemscore.Lipo>
61.0802

> <Gold.Chemscore.Internal_Hbond>
0.0000

> <Gold.Chemscore.DEClash>
2.4452

> <Gold.Chemscore.DEInternal>
1.3224

> <Gold.Chemscore.Rot>
1.3158

> <Gold.Chemscore.Internal.Correction>
   9.000000E+99

> <Gold.Chemscore.Hbonds>
donor molecule, donor type, donor heavy atom, donor atom, acceptor molecule, acceptor atom, score
      L1  H     1    16       P1  7948  0.95
      L1  H     1    30       P1  7957  0.88
      P1  H  7989  7998       L1     7  0.01

> <Gold.Chemscore.Hbond.Weighted>
-8.1761

> <Gold.Chemscore.Metal.Weighted>
-0.0000

> <Gold.Chemscore.Lipo.Weighted>
-7.1464

> <Gold.Chemscore.Internal_Hbond.Weighted>
0.0000

> <Gold.Chemscore.DEClash.Weighted>
2.4452

> <Gold.Chemscore.DEInternal.Weighted>
1.3224

> <Gold.Chemscore.Rot.Weighted>
3.3684

> <Gold.Chemscore.Internal.Correction.Weighted>
   9.000000E+99

> <Gold.Protein.RotatedTorsions>
[ 6907 6896 6895 6894 ] final  -55.05 input  -60.11 | X-H torsion
[ 7974 7965 7964 7962 ] final    7.77 input  175.53 | X-H torsion
[ 8008 7997 7996 7995 ] final   68.20 input   59.86 | X-H torsion
[ 10167 10162 10161 10158 ] final  -38.75 input  -65.29 | X-H torsion
[ 10718 10713 10712 10709 ] final   65.56 input   66.30 | X-H torsion
[ 10763 10752 10751 10750 ] final  -38.62 input  -60.55 | X-H torsion
[ 11005 11000 10999 10996 ] final   85.29 input  -57.11 | X-H torsion

> <Gold.Protein.ActiveResidues>
 VAL166  LYS551  ARG553  GLY616  TRP617  ASP618  TYR619  PRO620  LYS621  CYS622 
 ASP623  PHE694  ASN695  SER759  ASP760  ASP761  ALA762  ILE779  LEU786  VAL792 
 PHE793  MET794  SER795  GLU796  ALA797  LYS798  CYS799  TRP800  GLU811  SER814 

> <Gold.Protein.RotatedAtoms>
  150.8285  134.7527  159.6832 H   0  0  0  0  0  0  0  0  0  0  0  0  # atno 6907 bound_to 6896
  152.4393  134.5621  159.9907 H   0  0  0  0  0  0  0  0  0  0  0  0  # atno 6908 bound_to 6896
  151.5787  133.3343  159.3040 H   0  0  0  0  0  0  0  0  0  0  0  0  # atno 6909 bound_to 6896
  146.2423  140.0034  142.8413 H   0  0  0  0  0  0  0  0  0  0  0  0  # atno 7974 bound_to 7965
  155.7047  140.3495  155.4948 H   0  0  0  0  0  0  0  0  0  0  0  0  # atno 8008 bound_to 7997
  155.9409  140.1101  157.1078 H   0  0  0  0  0  0  0  0  0  0  0  0  # atno 8009 bound_to 7997
  154.4102  140.1213  156.4913 H   0  0  0  0  0  0  0  0  0  0  0  0  # atno 8010 bound_to 7997
  140.7083  143.3257  151.2685 H   0  0  0  0  0  0  0  0  0  0  0  0  # atno 10167 bound_to 10162
  157.6113  130.9220  149.9993 H   0  0  0  0  0  0  0  0  0  0  0  0  # atno 10718 bound_to 10713
  153.9159  135.6787  153.4749 H   0  0  0  0  0  0  0  0  0  0  0  0  # atno 10763 bound_to 10752
  153.1054  135.4808  154.8939 H   0  0  0  0  0  0  0  0  0  0  0  0  # atno 10764 bound_to 10752
  154.7503  135.3183  154.8525 H   0  0  0  0  0  0  0  0  0  0  0  0  # atno 10765 bound_to 10752
  139.8976  134.8276  156.2562 H   0  0  0  0  0  0  0  0  0  0  0  0  # atno 11005 bound_to 11000
  145.1395  140.9563  143.4497 LP  0  0  0  0  0  0  0  0  0  0  0  0  # atno 17320 bound_to 7965
  145.0310  139.3341  143.6024 LP  0  0  0  0  0  0  0  0  0  0  0  0  # atno 17321 bound_to 7965
  139.6725  143.9996  152.2761 LP  0  0  0  0  0  0  0  0  0  0  0  0  # atno 17342 bound_to 10162
  139.9599  144.6565  150.8090 LP  0  0  0  0  0  0  0  0  0  0  0  0  # atno 17343 bound_to 10162
  156.1217  130.3645  149.9876 LP  0  0  0  0  0  0  0  0  0  0  0  0  # atno 17370 bound_to 10713
  156.7955  130.9271  151.3646 LP  0  0  0  0  0  0  0  0  0  0  0  0  # atno 17371 bound_to 10713
  141.0192  133.7051  156.1240 LP  0  0  0  0  0  0  0  0  0  0  0  0  # atno 17394 bound_to 11000
  140.7258  134.4309  157.5571 LP  0  0  0  0  0  0  0  0  0  0  0  0  # atno 17395 bound_to 11000

$$$$
