AV-unprocessed.smi:2664|AV-procd|sdf|10326|dock3
  -GOLD-   2272014343D 1   1.00000     0.00000
 Structure written by MMmdl.
 43 44  0  0  0  0  0  0  0  0  1 V2000
  144.4106  136.2635  152.7410 O   0  0  0  0  0  0  0  0  0  0  0  0
  145.6120  136.1916  152.4844 C   0  0  0  0  0  0  0  0  0  0  0  0
  146.2041  135.1939  151.8054 N   0  0  0  0  0  0  0  0  0  0  0  0
  145.6089  134.0598  151.1885 C   0  0  0  0  0  0  0  0  0  0  0  0
  146.4679  133.0554  150.6963 C   0  0  0  0  0  0  0  0  0  0  0  0
  145.9050  131.9292  150.0633 C   0  0  0  0  0  0  0  0  0  0  0  0
  144.5769  131.7612  149.8928 N   0  0  0  0  0  0  0  0  0  0  0  0
  143.7564  132.7295  150.3527 C   0  0  0  0  0  0  0  0  0  0  0  0
  144.2154  133.8942  150.9998 C   0  0  0  0  0  0  0  0  0  0  0  0
  146.5119  137.1080  152.8735 N   0  0  0  0  0  0  0  0  0  0  0  0
  146.2268  138.3307  153.6296 C   0  0  2  0  0  0  0  0  0  0  0  0
  147.0568  139.4952  153.0311 C   0  0  0  0  0  0  0  0  0  0  0  0
  146.7807  139.8016  151.5468 C   0  0  0  0  0  0  0  0  0  0  0  0
  146.6243  138.6053  150.8135 O   0  0  0  0  0  0  0  0  0  0  0  0
  146.4896  138.0927  155.1454 C   0  0  0  0  0  0  0  0  0  0  0  0
  145.6192  136.9440  155.7185 C   0  0  0  0  0  0  0  0  0  0  0  0
  145.8694  136.7081  157.2164 C   0  0  0  0  0  0  0  0  0  0  0  0
  145.6402  137.9893  158.0268 C   0  0  0  0  0  0  0  0  0  0  0  0
  146.5128  139.1309  157.4916 C   0  0  0  0  0  0  0  0  0  0  0  0
  146.2676  139.3699  155.9928 C   0  0  0  0  0  0  0  0  0  0  0  0
  147.2113  135.2332  151.7528 H   0  0  0  0  0  0  0  0  0  0  0  0
  147.5395  133.1397  150.8034 H   0  0  0  0  0  0  0  0  0  0  0  0
  146.5397  131.1434  149.6813 H   0  0  0  0  0  0  0  0  0  0  0  0
  142.6994  132.5752  150.1936 H   0  0  0  0  0  0  0  0  0  0  0  0
  143.4965  134.6317  151.3214 H   0  0  0  0  0  0  0  0  0  0  0  0
  147.4774  136.9537  152.6223 H   0  0  0  0  0  0  0  0  0  0  0  0
  145.1723  138.5909  153.5225 H   0  0  0  0  0  0  0  0  0  0  0  0
  146.8804  140.4132  153.5896 H   0  0  0  0  0  0  0  0  0  0  0  0
  148.1177  139.2716  153.1488 H   0  0  0  0  0  0  0  0  0  0  0  0
  145.8619  140.3811  151.4543 H   0  0  0  0  0  0  0  0  0  0  0  0
  147.5749  140.4016  151.1027 H   0  0  0  0  0  0  0  0  0  0  0  0
  145.7453  138.5763  150.4673 H   0  0  0  0  0  0  0  0  0  0  0  0
  147.5343  137.7986  155.2587 H   0  0  0  0  0  0  0  0  0  0  0  0
  144.5640  137.1702  155.5577 H   0  0  0  0  0  0  0  0  0  0  0  0
  145.8144  136.0091  155.1937 H   0  0  0  0  0  0  0  0  0  0  0  0
  145.2142  135.9169  157.5816 H   0  0  0  0  0  0  0  0  0  0  0  0
  146.8910  136.3565  157.3657 H   0  0  0  0  0  0  0  0  0  0  0  0
  144.5888  138.2745  157.9744 H   0  0  0  0  0  0  0  0  0  0  0  0
  145.8624  137.8109  159.0793 H   0  0  0  0  0  0  0  0  0  0  0  0
  146.3094  140.0449  158.0502 H   0  0  0  0  0  0  0  0  0  0  0  0
  147.5651  138.8961  157.6566 H   0  0  0  0  0  0  0  0  0  0  0  0
  146.9336  140.1691  155.6721 H   0  0  0  0  0  0  0  0  0  0  0  0
  145.2507  139.7359  155.8455 H   0  0  0  0  0  0  0  0  0  0  0  0
  1  2  2  0  0  0  0
  2  3  1  0  0  0  0
  2 10  1  0  0  0  0
  3  4  1  0  0  0  0
  3 21  1  0  0  0  0
  4  9  1  0  0  0  0
  4  5  2  0  0  0  0
  5  6  1  0  0  0  0
  5 22  1  0  0  0  0
  6  7  2  0  0  0  0
  6 23  1  0  0  0  0
  7  8  1  0  0  0  0
  8  9  2  0  0  0  0
  8 24  1  0  0  0  0
  9 25  1  0  0  0  0
 10 11  1  0  0  0  0
 10 26  1  0  0  0  0
 11 12  1  0  0  0  0
 11 15  1  0  0  0  0
 11 27  1  0  0  0  0
 12 13  1  0  0  0  0
 12 28  1  0  0  0  0
 12 29  1  0  0  0  0
 13 14  1  0  0  0  0
 13 30  1  0  0  0  0
 13 31  1  0  0  0  0
 14 32  1  0  0  0  0
 15 20  1  0  0  0  0
 15 16  1  0  0  0  0
 15 33  1  0  0  0  0
 16 17  1  0  0  0  0
 16 34  1  0  0  0  0
 16 35  1  0  0  0  0
 17 18  1  0  0  0  0
 17 36  1  0  0  0  0
 17 37  1  0  0  0  0
 18 19  1  0  0  0  0
 18 38  1  0  0  0  0
 18 39  1  0  0  0  0
 19 20  1  0  0  0  0
 19 40  1  0  0  0  0
 19 41  1  0  0  0  0
 20 42  1  0  0  0  0
 20 43  1  0  0  0  0
M  END
> <s_m_source_file>
AV-unprocessed.smi

> <i_m_source_file_index>
2664

> <i_lp_mmshare_version>
43012

> <i_f3d_flags>
0

> <s_epik_input>
W2NIXTFbY0hdbltjSF1bY0hdYzFbTkhdQyg9TylbTkhdW0NASF0oW0NIMl1bQ0gyXVtPSF0pW0NIXTJbQ0gyXVtDSDJdW0NIMl1bQ0gyXVtDSDJdMg==

> <s_epik_cmdline>
J2VwaWtfcHl0aG9uJywgJy1waCcsICc3LjAnLCAnLXRuJywgJzgnLCAnLW1hJywgJzIwMCcsICctbWV0YWxfYmluZGluZycsICctaW1hZScsICc8aW5maWxlLm1hZT4nLCAnLW9tYWUnLCAnPG91dGZpbGUubWFlPic=

> <r_epik_Ionization_Penalty>
0.119281

> <r_epik_Ionization_Penalty_Charging>
0

> <r_epik_Ionization_Penalty_Neutral>
0.119281

> <r_epik_State_Penalty>
0.108806

> <r_epik_Charging_Adjusted_Penalty>
0.108806

> <i_epik_Tot_Q>
0

> <i_epik_Tot_abs_Q>
0

> <r_epik_Metal_State_Penalty>
0.0904205

> <b_epik_Metal_Only>
0

> <s_lp_Force_Field>
OPLS_2005

> <r_lp_Energy>
21.6864

> <b_lp_Chiralities_Consistent>
1

> <s_lp_Variant>
AV-unprocessed.smi:2664-1

> <Gold.Version>
5.8.1

> <Gold.Id.Protein>
6NUR|6NUR_protein|mol2

> <Gold.PLP.Fitness>
44.9660

> <Gold.PLP.PLP>
-28.2623

> <Gold.PLP.part.hbond>
-5.1966

> <Gold.PLP.part.metal>
0.0000

> <Gold.PLP.part.buried>
-1.8687

> <Gold.PLP.part.nonpolar>
-21.4895

> <Gold.PLP.part.repulsive>
0.3458

> <Gold.PLP.ligand.clash>
0.0000

> <Gold.PLP.ligand.torsion>
0.4103

> <Gold.PLP.Chemscore.Hbond>
3.9536

> <Gold.PLP.Chemscore.CHOScore>
1.8636

> <Gold.PLP.Chemscore.Metal>
0.0000

> <Gold.Chemscore.Hbonds>
donor molecule, donor type, donor heavy atom, donor atom, acceptor molecule, acceptor atom, score
      L1  H     3    21       P1  7948  1.00
      L1  H    10    26       P1  7948  1.00
      L1  H    14    32       P1 10171  1.00
      P1  H  7954  7966       L1    14  0.91
      P1  H 10785 10796       L1     7  0.03
      L1  C     6    23       P1 10747  0.91
      L1  C     8    24       P1 10186  0.80

> <Gold.PLP.Chemscore.Internal.Correction>
0.0727

> <Gold.Rescore>
     Score         DG    S(hbond)    S(metal)    S(lipo)     H(rot)  DE(clash)    DE(int)     intcor
     15.91     -20.03       3.78        0.00      65.18       2.23       0.88       3.25       ----

> <Gold.Chemscore.Fitness>
15.9057

> <Gold.Chemscore.DG>
-20.0309

> <Gold.Chemscore.ZeroCoef>
-5.4800

> <Gold.Chemscore.Hbond>
3.7789

> <Gold.Chemscore.Metal>
0.0000

> <Gold.Chemscore.Lipo>
65.1752

> <Gold.Chemscore.Internal_Hbond>
0.0000

> <Gold.Chemscore.DEClash>
0.8758

> <Gold.Chemscore.DEInternal>
3.2493

> <Gold.Chemscore.Rot>
2.2251

> <Gold.Chemscore.Internal.Correction>
   9.000000E+99

> <Gold.Chemscore.Hbonds>
donor molecule, donor type, donor heavy atom, donor atom, acceptor molecule, acceptor atom, score
      L1  H     3    21       P1  7948  0.92
      L1  H    10    26       P1  7948  1.00
      L1  H    14    32       P1 10171  0.98
      P1  H  7954  7966       L1    14  0.83
      P1  H 10785 10796       L1     7  0.04

> <Gold.Chemscore.Hbond.Weighted>
-12.6215

> <Gold.Chemscore.Metal.Weighted>
-0.0000

> <Gold.Chemscore.Lipo.Weighted>
-7.6255

> <Gold.Chemscore.Internal_Hbond.Weighted>
0.0000

> <Gold.Chemscore.DEClash.Weighted>
0.8758

> <Gold.Chemscore.DEInternal.Weighted>
3.2493

> <Gold.Chemscore.Rot.Weighted>
5.6962

> <Gold.Chemscore.Internal.Correction.Weighted>
   9.000000E+99

> <Gold.Protein.RotatedTorsions>
[ 6907 6896 6895 6894 ] final    5.45 input  -60.11 | X-H torsion
[ 7974 7965 7964 7962 ] final  -82.90 input  175.53 | X-H torsion
[ 8008 7997 7996 7995 ] final   -0.42 input   59.86 | X-H torsion
[ 10167 10162 10161 10158 ] final  -55.79 input  -65.29 | X-H torsion
[ 10718 10713 10712 10709 ] final  136.57 input   66.30 | X-H torsion
[ 10763 10752 10751 10750 ] final  138.42 input  -60.55 | X-H torsion
[ 11005 11000 10999 10996 ] final -117.32 input  -57.11 | X-H torsion

> <Gold.Protein.ActiveResidues>
 VAL166  LYS551  ARG553  GLY616  TRP617  ASP618  TYR619  PRO620  LYS621  CYS622 
 ASP623  PHE694  ASN695  SER759  ASP760  ASP761  ALA762  ILE779  LEU786  VAL792 
 PHE793  MET794  SER795  GLU796  ALA797  LYS798  CYS799  TRP800  GLU811  SER814 

> <Gold.Protein.RotatedAtoms>
  151.6577  135.0993  160.0173 H   0  0  0  0  0  0  0  0  0  0  0  0  # atno 6907 bound_to 6896
  152.3964  133.6749  159.6288 H   0  0  0  0  0  0  0  0  0  0  0  0  # atno 6908 bound_to 6896
  150.7871  133.8783  159.3319 H   0  0  0  0  0  0  0  0  0  0  0  0  # atno 6909 bound_to 6896
  145.5271  140.9525  143.1623 H   0  0  0  0  0  0  0  0  0  0  0  0  # atno 7974 bound_to 7965
  154.6583  140.2584  155.7137 H   0  0  0  0  0  0  0  0  0  0  0  0  # atno 8008 bound_to 7997
  156.2607  140.2854  156.0966 H   0  0  0  0  0  0  0  0  0  0  0  0  # atno 8009 bound_to 7997
  155.1347  140.0379  157.2774 H   0  0  0  0  0  0  0  0  0  0  0  0  # atno 8010 bound_to 7997
  140.6354  143.2480  151.5131 H   0  0  0  0  0  0  0  0  0  0  0  0  # atno 10167 bound_to 10162
  157.4453  131.1061  151.0096 H   0  0  0  0  0  0  0  0  0  0  0  0  # atno 10718 bound_to 10713
  153.8893  135.3035  155.3447 H   0  0  0  0  0  0  0  0  0  0  0  0  # atno 10763 bound_to 10752
  154.7724  135.4879  153.9678 H   0  0  0  0  0  0  0  0  0  0  0  0  # atno 10764 bound_to 10752
  153.1306  135.6803  153.9282 H   0  0  0  0  0  0  0  0  0  0  0  0  # atno 10765 bound_to 10752
  141.0363  133.9905  157.3066 H   0  0  0  0  0  0  0  0  0  0  0  0  # atno 11005 bound_to 11000
  144.7645  139.6877  143.7220 LP  0  0  0  0  0  0  0  0  0  0  0  0  # atno 17320 bound_to 7965
  146.2068  139.5398  142.9707 LP  0  0  0  0  0  0  0  0  0  0  0  0  # atno 17321 bound_to 7965
  139.5565  144.2263  152.1621 LP  0  0  0  0  0  0  0  0  0  0  0  0  # atno 17342 bound_to 10162
  140.1518  144.5108  150.6683 LP  0  0  0  0  0  0  0  0  0  0  0  0  # atno 17343 bound_to 10162
  157.0945  130.5956  149.5447 LP  0  0  0  0  0  0  0  0  0  0  0  0  # atno 17370 bound_to 10713
  155.9965  130.5034  150.7498 LP  0  0  0  0  0  0  0  0  0  0  0  0  # atno 17371 bound_to 10713
  139.9243  135.0201  156.8178 LP  0  0  0  0  0  0  0  0  0  0  0  0  # atno 17394 bound_to 11000
  140.6316  133.9900  155.7665 LP  0  0  0  0  0  0  0  0  0  0  0  0  # atno 17395 bound_to 11000

$$$$
