AV-unprocessed.smi:823|AV-procd|sdf|3846|dock2
  -GOLD-   22720 1293D 1   1.00000     0.00000
 Structure written by MMmdl.
 46 47  0  0  0  0  0  0  0  0  1 V2000
  151.1083  145.0945  159.4010 C   0  0  0  0  0  0  0  0  0  0  0  0
  151.9770  143.8354  159.3120 C   0  0  2  0  0  0  0  0  0  0  0  0
  151.4462  142.8392  158.2624 C   0  0  0  0  0  0  0  0  0  0  0  0
  152.2267  141.6046  158.2873 N   0  0  0  0  0  0  0  0  0  0  0  0
  152.0177  140.7297  157.1990 C   0  0  0  0  0  0  0  0  0  0  0  0
  150.8910  140.8944  156.3587 C   0  0  0  0  0  0  0  0  0  0  0  0
  150.7002  140.0072  155.2824 C   0  0  0  0  0  0  0  0  0  0  0  0
  151.6370  138.9728  155.0715 C   0  0  0  0  0  0  0  0  0  0  0  0
  151.5054  137.9736  153.9293 C   0  0  0  0  0  0  0  0  0  0  0  0
  150.6967  136.8003  154.2428 N   0  0  0  0  0  0  0  0  0  0  0  0
  150.9136  135.9718  155.2752 C   0  0  0  0  0  0  0  0  0  0  0  0
  151.8611  136.0953  156.0531 O   0  0  0  0  0  0  0  0  0  0  0  0
  149.8982  134.8328  155.4553 C   0  0  1  0  0  0  0  0  0  0  0  0
  148.8790  135.2488  156.5293 C   0  0  0  0  0  0  0  0  0  0  0  0
  149.1748  134.5969  154.2069 N   0  0  0  0  0  0  0  0  0  0  0  0
  148.8487  133.3890  153.7221 C   0  0  0  0  0  0  0  0  0  0  0  0
  148.2122  133.4667  152.5532 N   0  0  0  0  0  0  0  0  0  0  0  0
  149.1031  132.3221  154.2779 O   0  0  0  0  0  0  0  0  0  0  0  0
  152.7341  138.8944  155.9520 C   0  0  0  0  0  0  0  0  0  0  0  0
  152.9235  139.7438  156.9834 N   0  0  0  0  0  0  0  0  0  0  0  0
  152.3411  141.0203  159.6220 C   0  0  0  0  0  0  0  0  0  0  0  0
  152.8425  142.0712  160.6255 C   0  0  0  0  0  0  0  0  0  0  0  0
  151.9886  143.2099  160.5923 O   0  0  0  0  0  0  0  0  0  0  0  0
  151.0784  145.6189  158.4456 H   0  0  0  0  0  0  0  0  0  0  0  0
  151.4999  145.7861  160.1472 H   0  0  0  0  0  0  0  0  0  0  0  0
  150.0835  144.8480  159.6804 H   0  0  0  0  0  0  0  0  0  0  0  0
  152.9940  144.1342  159.0514 H   0  0  0  0  0  0  0  0  0  0  0  0
  150.4029  142.5962  158.4686 H   0  0  0  0  0  0  0  0  0  0  0  0
  151.4724  143.3112  157.2812 H   0  0  0  0  0  0  0  0  0  0  0  0
  150.1828  141.6939  156.5162 H   0  0  0  0  0  0  0  0  0  0  0  0
  149.8457  140.1297  154.6333 H   0  0  0  0  0  0  0  0  0  0  0  0
  151.0477  138.4842  153.0821 H   0  0  0  0  0  0  0  0  0  0  0  0
  152.4972  137.6583  153.6008 H   0  0  0  0  0  0  0  0  0  0  0  0
  149.8967  136.6245  153.6521 H   0  0  0  0  0  0  0  0  0  0  0  0
  150.4046  133.9173  155.7680 H   0  0  0  0  0  0  0  0  0  0  0  0
  149.3682  135.4489  157.4835 H   0  0  0  0  0  0  0  0  0  0  0  0
  148.1495  134.4566  156.7000 H   0  0  0  0  0  0  0  0  0  0  0  0
  148.3285  136.1466  156.2430 H   0  0  0  0  0  0  0  0  0  0  0  0
  148.9247  135.4121  153.6667 H   0  0  0  0  0  0  0  0  0  0  0  0
  147.9060  132.6269  152.0843 H   0  0  0  0  0  0  0  0  0  0  0  0
  148.0330  134.3720  152.1434 H   0  0  0  0  0  0  0  0  0  0  0  0
  153.4836  138.1266  155.8278 H   0  0  0  0  0  0  0  0  0  0  0  0
  151.3675  140.6407  159.9351 H   0  0  0  0  0  0  0  0  0  0  0  0
  153.0323  140.1765  159.6075 H   0  0  0  0  0  0  0  0  0  0  0  0
  152.8427  141.6570  161.6336 H   0  0  0  0  0  0  0  0  0  0  0  0
  153.8694  142.3647  160.4018 H   0  0  0  0  0  0  0  0  0  0  0  0
  1  2  1  0  0  0  0
  1 24  1  0  0  0  0
  1 25  1  0  0  0  0
  1 26  1  0  0  0  0
  2 23  1  0  0  0  0
  2  3  1  0  0  0  0
  2 27  1  0  0  0  0
  3  4  1  0  0  0  0
  3 28  1  0  0  0  0
  3 29  1  0  0  0  0
  4  5  1  0  0  0  0
  4 21  1  0  0  0  0
  5 20  1  0  0  0  0
  5  6  2  0  0  0  0
  6  7  1  0  0  0  0
  6 30  1  0  0  0  0
  7  8  2  0  0  0  0
  7 31  1  0  0  0  0
  8  9  1  0  0  0  0
  8 19  1  0  0  0  0
  9 10  1  0  0  0  0
  9 32  1  0  0  0  0
  9 33  1  0  0  0  0
 10 11  1  0  0  0  0
 10 34  1  0  0  0  0
 11 12  2  0  0  0  0
 11 13  1  0  0  0  0
 13 14  1  0  0  0  0
 13 15  1  0  0  0  0
 13 35  1  0  0  0  0
 14 36  1  0  0  0  0
 14 37  1  0  0  0  0
 14 38  1  0  0  0  0
 15 16  1  0  0  0  0
 15 39  1  0  0  0  0
 16 17  1  0  0  0  0
 16 18  2  0  0  0  0
 17 40  1  0  0  0  0
 17 41  1  0  0  0  0
 19 20  2  0  0  0  0
 19 42  1  0  0  0  0
 21 22  1  0  0  0  0
 21 43  1  0  0  0  0
 21 44  1  0  0  0  0
 22 23  1  0  0  0  0
 22 45  1  0  0  0  0
 22 46  1  0  0  0  0
M  END
> <s_m_source_file>
AV-unprocessed.smi

> <i_m_source_file_index>
823

> <i_lp_mmshare_version>
43012

> <i_f3d_flags>
0

> <s_epik_input>
W0NIM11bQ0BASF0xW0NIMl1OKFtDSDJdW0NIMl1PMSljMltjSF1bY0hdYyhbY0hdbjIpW0NIMl1bTkhdQyg9TylbQ0BIXShbQ0gzXSlbTkhdQyg9TylbTkgyXQ==

> <s_epik_cmdline>
J2VwaWtfcHl0aG9uJywgJy1waCcsICc3LjAnLCAnLXRuJywgJzgnLCAnLW1hJywgJzIwMCcsICctbWV0YWxfYmluZGluZycsICctaW1hZScsICc8aW5maWxlLm1hZT4nLCAnLW9tYWUnLCAnPG91dGZpbGUubWFlPic=

> <r_lp_tautomer_probability>
1

> <r_epik_Ionization_Penalty>
0.00555043

> <r_epik_Ionization_Penalty_Charging>
0

> <r_epik_Ionization_Penalty_Neutral>
0.00555043

> <r_epik_State_Penalty>
0.00402575

> <r_epik_Charging_Adjusted_Penalty>
0.00402575

> <i_epik_Tot_Q>
0

> <i_epik_Tot_abs_Q>
0

> <r_epik_Metal_State_Penalty>
-0

> <b_epik_Metal_Only>
0

> <s_lp_Force_Field>
OPLS_2005

> <r_lp_Energy>
9.55746

> <b_lp_Chiralities_Consistent>
1

> <s_lp_Variant>
AV-unprocessed.smi:823-3

> <Gold.Version>
5.8.1

> <Gold.Id.Protein>
6NUR|6NUR_protein|mol2

> <Gold.PLP.Fitness>
54.7302

> <Gold.PLP.PLP>
-43.2739

> <Gold.PLP.part.hbond>
-6.0000

> <Gold.PLP.part.metal>
0.0000

> <Gold.PLP.part.buried>
-3.8974

> <Gold.PLP.part.nonpolar>
-33.6231

> <Gold.PLP.part.repulsive>
0.2104

> <Gold.PLP.ligand.clash>
0.0000

> <Gold.PLP.ligand.torsion>
1.4372

> <Gold.PLP.Chemscore.Hbond>
4.6649

> <Gold.PLP.Chemscore.CHOScore>
0.0000

> <Gold.PLP.Chemscore.Metal>
0.0000

> <Gold.Chemscore.Hbonds>
donor molecule, donor type, donor heavy atom, donor atom, acceptor molecule, acceptor atom, score
      L1  H    10    34       P1  7948  1.00
      L1  H    15    39       P1  7948  0.86
      L1  H    17    41       P1  7948  0.66
      P1  H  7997  8009       L1    20  0.88
      P1  H 10752 10763       L1    12  1.00

> <Gold.PLP.Chemscore.Internal.Correction>
0.3360

> <Gold.Rescore>
     Score         DG    S(hbond)    S(metal)    S(lipo)     H(rot)  DE(clash)    DE(int)     intcor
     17.19     -20.77       3.17        0.00      97.29       2.62       0.18       3.40       ----

> <Gold.Chemscore.Fitness>
17.1897

> <Gold.Chemscore.DG>
-20.7663

> <Gold.Chemscore.ZeroCoef>
-5.4800

> <Gold.Chemscore.Hbond>
3.1740

> <Gold.Chemscore.Metal>
0.0000

> <Gold.Chemscore.Lipo>
97.2896

> <Gold.Chemscore.Internal_Hbond>
0.0000

> <Gold.Chemscore.DEClash>
0.1814

> <Gold.Chemscore.DEInternal>
3.3951

> <Gold.Chemscore.Rot>
2.6163

> <Gold.Chemscore.Internal.Correction>
   9.000000E+99

> <Gold.Chemscore.Hbonds>
donor molecule, donor type, donor heavy atom, donor atom, acceptor molecule, acceptor atom, score
      L1  H    10    34       P1  7948  0.27
      L1  H    15    39       P1  7948  0.66
      L1  H    17    41       P1  7948  0.11
      P1  H  7997  8009       L1    20  0.38
      P1  H 10752 10763       L1    12  0.45

> <Gold.Chemscore.Hbond.Weighted>
-10.6012

> <Gold.Chemscore.Metal.Weighted>
-0.0000

> <Gold.Chemscore.Lipo.Weighted>
-11.3829

> <Gold.Chemscore.Internal_Hbond.Weighted>
0.0000

> <Gold.Chemscore.DEClash.Weighted>
0.1814

> <Gold.Chemscore.DEInternal.Weighted>
3.3951

> <Gold.Chemscore.Rot.Weighted>
6.6978

> <Gold.Chemscore.Internal.Correction.Weighted>
   9.000000E+99

> <Gold.Protein.RotatedTorsions>
[ 6907 6896 6895 6894 ] final  140.76 input  -60.11 | X-H torsion
[ 7974 7965 7964 7962 ] final  125.85 input  175.53 | X-H torsion
[ 8008 7997 7996 7995 ] final  158.57 input   59.86 | X-H torsion
[ 10167 10162 10161 10158 ] final  165.25 input  -65.29 | X-H torsion
[ 10718 10713 10712 10709 ] final   12.44 input   66.30 | X-H torsion
[ 10763 10752 10751 10750 ] final   98.29 input  -60.55 | X-H torsion
[ 11005 11000 10999 10996 ] final -115.23 input  -57.11 | X-H torsion

> <Gold.Protein.ActiveResidues>
 VAL166  LYS551  ARG553  GLY616  TRP617  ASP618  TYR619  PRO620  LYS621  CYS622 
 ASP623  PHE694  ASN695  SER759  ASP760  ASP761  ALA762  ILE779  LEU786  VAL792 
 PHE793  MET794  SER795  GLU796  ALA797  LYS798  CYS799  TRP800  GLU811  SER814 

> <Gold.Protein.RotatedAtoms>
  152.2391  133.5121  159.5259 H   0  0  0  0  0  0  0  0  0  0  0  0  # atno 6907 bound_to 6896
  150.7059  134.1113  159.4010 H   0  0  0  0  0  0  0  0  0  0  0  0  # atno 6908 bound_to 6896
  151.9034  135.0369  160.0559 H   0  0  0  0  0  0  0  0  0  0  0  0  # atno 6909 bound_to 6896
  145.0683  139.3750  143.4970 H   0  0  0  0  0  0  0  0  0  0  0  0  # atno 7974 bound_to 7965
  156.2294  140.1854  156.7281 H   0  0  0  0  0  0  0  0  0  0  0  0  # atno 8008 bound_to 7997
  154.5996  140.0638  156.9378 H   0  0  0  0  0  0  0  0  0  0  0  0  # atno 8009 bound_to 7997
  155.2197  140.3306  155.4320 H   0  0  0  0  0  0  0  0  0  0  0  0  # atno 8010 bound_to 7997
  139.4902  144.4151  151.9253 H   0  0  0  0  0  0  0  0  0  0  0  0  # atno 10167 bound_to 10162
  157.0101  130.6114  149.5707 H   0  0  0  0  0  0  0  0  0  0  0  0  # atno 10718 bound_to 10713
  153.2872  135.4153  155.1134 H   0  0  0  0  0  0  0  0  0  0  0  0  # atno 10763 bound_to 10752
  154.8509  135.3509  154.6030 H   0  0  0  0  0  0  0  0  0  0  0  0  # atno 10764 bound_to 10752
  153.6452  135.7055  153.5285 H   0  0  0  0  0  0  0  0  0  0  0  0  # atno 10765 bound_to 10752
  141.0501  133.9701  157.2851 H   0  0  0  0  0  0  0  0  0  0  0  0  # atno 11005 bound_to 11000
  146.3527  140.0416  142.8642 LP  0  0  0  0  0  0  0  0  0  0  0  0  # atno 17320 bound_to 7965
  145.1323  140.9525  143.4537 LP  0  0  0  0  0  0  0  0  0  0  0  0  # atno 17321 bound_to 7965
  140.3594  144.2992  150.5936 LP  0  0  0  0  0  0  0  0  0  0  0  0  # atno 17342 bound_to 10162
  140.5416  143.2222  151.8075 LP  0  0  0  0  0  0  0  0  0  0  0  0  # atno 17343 bound_to 10162
  156.0139  130.5232  150.8075 LP  0  0  0  0  0  0  0  0  0  0  0  0  # atno 17370 bound_to 10713
  157.5326  131.0937  150.9934 LP  0  0  0  0  0  0  0  0  0  0  0  0  # atno 17371 bound_to 10713
  139.9343  135.0198  156.8505 LP  0  0  0  0  0  0  0  0  0  0  0  0  # atno 17394 bound_to 11000
  140.6072  134.0116  155.7561 LP  0  0  0  0  0  0  0  0  0  0  0  0  # atno 17395 bound_to 11000

$$$$
