AV-unprocessed.smi:91|AV-procd|sdf|836|dock1
  -GOLD-   2262017263D 1   1.00000     0.00000
 Structure written by MMmdl.
 60 63  0  0  0  0  0  0  0  0  1 V2000
  144.6039  135.2049  163.8617 C   0  0  0  0  0  0  0  0  0  0  0  0
  145.5594  134.1624  163.7761 O   0  0  0  0  0  0  0  0  0  0  0  0
  146.7955  134.6007  163.2360 C   0  0  0  0  0  0  0  0  0  0  0  0
  146.6877  134.6670  161.7071 C   0  0  1  0  0  0  0  0  0  0  0  0
  147.6196  135.7335  161.1063 C   0  0  0  0  0  0  0  0  0  0  0  0
  147.5989  135.6591  159.6491 N   0  0  0  0  0  0  0  0  0  0  0  0
  148.0563  136.7547  158.9879 C   0  0  0  0  0  0  0  0  0  0  0  0
  147.2115  137.3368  158.0964 N   0  0  0  0  0  0  0  0  0  0  0  0
  147.5877  138.4153  157.4046 C   0  0  0  0  0  0  0  0  0  0  0  0
  148.7477  139.0708  157.4491 N   0  0  0  0  0  0  0  0  0  0  0  0
  149.6036  138.4969  158.3412 C   0  0  0  0  0  0  0  0  0  0  0  0
  149.3475  137.3469  159.1439 C   0  0  0  0  0  0  0  0  0  0  0  0
  150.4635  137.0770  159.9309 N   0  0  0  0  0  0  0  0  0  0  0  0
  151.3237  138.0033  159.6094 C   0  0  0  0  0  0  0  0  0  0  0  0
  150.8843  138.9040  158.6681 N   0  0  0  0  0  0  0  0  0  0  0  0
  151.6197  140.0384  158.1379 C   0  0  0  0  0  0  0  0  0  0  0  0
  152.2133  140.9503  159.2407 C   0  0  1  0  0  0  0  0  0  0  0  0
  153.4456  140.3240  159.9382 C   0  0  0  0  0  0  0  0  0  0  0  0
  154.2723  139.6449  159.0148 O   0  0  0  0  0  0  0  0  0  0  0  0
  152.4991  142.3753  158.7038 C   0  0  2  0  0  0  0  0  0  0  0  0
  152.7653  143.4227  159.7708 C   0  0  0  0  0  0  0  0  0  0  0  0
  152.5376  144.7234  159.0089 C   0  0  0  0  0  0  0  0  0  0  0  0
  151.5326  144.4329  158.0440 O   0  0  0  0  0  0  0  0  0  0  0  0
  151.3242  143.0261  157.9661 C   0  0  0  0  0  0  0  0  0  0  0  0
  147.9076  134.3317  159.1312 C   0  0  0  0  0  0  0  0  0  0  0  0
  146.9938  133.2576  159.7614 C   0  0  0  0  0  0  0  0  0  0  0  0
  145.5472  133.3482  159.2309 C   0  0  0  0  0  0  0  0  0  0  0  0
  147.5542  131.8593  159.4587 C   0  0  0  0  0  0  0  0  0  0  0  0
  147.0313  133.3820  161.1874 O   0  0  0  0  0  0  0  0  0  0  0  0
  143.6769  134.8180  164.2849 H   0  0  0  0  0  0  0  0  0  0  0  0
  144.3786  135.6147  162.8763 H   0  0  0  0  0  0  0  0  0  0  0  0
  144.9565  136.0121  164.5049 H   0  0  0  0  0  0  0  0  0  0  0  0
  147.0724  135.5750  163.6421 H   0  0  0  0  0  0  0  0  0  0  0  0
  147.5792  133.8954  163.5174 H   0  0  0  0  0  0  0  0  0  0  0  0
  145.6524  134.8941  161.4530 H   0  0  0  0  0  0  0  0  0  0  0  0
  147.3167  136.7177  161.4645 H   0  0  0  0  0  0  0  0  0  0  0  0
  148.6432  135.5743  161.4477 H   0  0  0  0  0  0  0  0  0  0  0  0
  146.8530  138.8103  156.7188 H   0  0  0  0  0  0  0  0  0  0  0  0
  152.3031  138.0628  160.0615 H   0  0  0  0  0  0  0  0  0  0  0  0
  152.4138  139.6625  157.4916 H   0  0  0  0  0  0  0  0  0  0  0  0
  150.9415  140.6014  157.4963 H   0  0  0  0  0  0  0  0  0  0  0  0
  151.4481  141.0486  160.0124 H   0  0  0  0  0  0  0  0  0  0  0  0
  154.0374  141.0879  160.4417 H   0  0  0  0  0  0  0  0  0  0  0  0
  153.1416  139.6244  160.7170 H   0  0  0  0  0  0  0  0  0  0  0  0
  154.2634  138.7237  159.2251 H   0  0  0  0  0  0  0  0  0  0  0  0
  153.3559  142.3465  158.0284 H   0  0  0  0  0  0  0  0  0  0  0  0
  152.0423  143.3329  160.5831 H   0  0  0  0  0  0  0  0  0  0  0  0
  153.7674  143.3610  160.1958 H   0  0  0  0  0  0  0  0  0  0  0  0
  152.2403  145.5437  159.6624 H   0  0  0  0  0  0  0  0  0  0  0  0
  153.4464  145.0202  158.4840 H   0  0  0  0  0  0  0  0  0  0  0  0
  151.2500  142.6997  156.9286 H   0  0  0  0  0  0  0  0  0  0  0  0
  150.3798  142.7937  158.4604 H   0  0  0  0  0  0  0  0  0  0  0  0
  147.7979  134.3123  158.0461 H   0  0  0  0  0  0  0  0  0  0  0  0
  148.9510  134.1081  159.3578 H   0  0  0  0  0  0  0  0  0  0  0  0
  145.5093  133.1245  158.1641 H   0  0  0  0  0  0  0  0  0  0  0  0
  145.1168  134.3409  159.3591 H   0  0  0  0  0  0  0  0  0  0  0  0
  144.8965  132.6367  159.7398 H   0  0  0  0  0  0  0  0  0  0  0  0
  147.5857  131.6678  158.3856 H   0  0  0  0  0  0  0  0  0  0  0  0
  146.9428  131.0814  159.9171 H   0  0  0  0  0  0  0  0  0  0  0  0
  148.5684  131.7481  159.8440 H   0  0  0  0  0  0  0  0  0  0  0  0
  1  2  1  0  0  0  0
  1 30  1  0  0  0  0
  1 31  1  0  0  0  0
  1 32  1  0  0  0  0
  2  3  1  0  0  0  0
  3  4  1  0  0  0  0
  3 33  1  0  0  0  0
  3 34  1  0  0  0  0
  4 29  1  0  0  0  0
  4  5  1  0  0  0  0
  4 35  1  0  0  0  0
  5  6  1  0  0  0  0
  5 36  1  0  0  0  0
  5 37  1  0  0  0  0
  6  7  1  0  0  0  0
  6 25  1  0  0  0  0
  7 12  1  0  0  0  0
  7  8  2  0  0  0  0
  8  9  1  0  0  0  0
  9 10  2  0  0  0  0
  9 38  1  0  0  0  0
 10 11  1  0  0  0  0
 11 15  1  0  0  0  0
 11 12  2  0  0  0  0
 12 13  1  0  0  0  0
 13 14  2  0  0  0  0
 14 15  1  0  0  0  0
 14 39  1  0  0  0  0
 15 16  1  0  0  0  0
 16 17  1  0  0  0  0
 16 40  1  0  0  0  0
 16 41  1  0  0  0  0
 17 18  1  0  0  0  0
 17 20  1  0  0  0  0
 17 42  1  0  0  0  0
 18 19  1  0  0  0  0
 18 43  1  0  0  0  0
 18 44  1  0  0  0  0
 19 45  1  0  0  0  0
 20 24  1  0  0  0  0
 20 21  1  0  0  0  0
 20 46  1  0  0  0  0
 21 22  1  0  0  0  0
 21 47  1  0  0  0  0
 21 48  1  0  0  0  0
 22 23  1  0  0  0  0
 22 49  1  0  0  0  0
 22 50  1  0  0  0  0
 23 24  1  0  0  0  0
 24 51  1  0  0  0  0
 24 52  1  0  0  0  0
 25 26  1  0  0  0  0
 25 53  1  0  0  0  0
 25 54  1  0  0  0  0
 26 27  1  0  0  0  0
 26 28  1  0  0  0  0
 26 29  1  0  0  0  0
 27 55  1  0  0  0  0
 27 56  1  0  0  0  0
 27 57  1  0  0  0  0
 28 58  1  0  0  0  0
 28 59  1  0  0  0  0
 28 60  1  0  0  0  0
M  END
> <s_m_source_file>
AV-unprocessed.smi

> <i_m_source_file_index>
91

> <i_lp_mmshare_version>
43012

> <i_f3d_flags>
0

> <s_epik_input>
W0NIM11PW0NIMl1bQ0BASF0oTzEpW0NIMl1OKFtDSDJdQzEoW0NIM10pW0NIM10pYyhuW2NIXW4yKWMoYzIzKW5bY0hdbjNbQ0gyXVtDQEhdKFtDSDJdW09IXSlbQ0BASF00W0NIMl1bQ0gyXU9bQ0gyXTQ=

> <s_epik_cmdline>
J2VwaWtfcHl0aG9uJywgJy1waCcsICc3LjAnLCAnLXRuJywgJzgnLCAnLW1hJywgJzIwMCcsICctbWV0YWxfYmluZGluZycsICctaW1hZScsICc8aW5maWxlLm1hZT4nLCAnLW9tYWUnLCAnPG91dGZpbGUubWFlPic=

> <r_lp_tautomer_probability>
1

> <r_epik_Ionization_Penalty>
8.63591e-05

> <r_epik_Ionization_Penalty_Charging>
0

> <r_epik_Ionization_Penalty_Neutral>
8.63591e-05

> <r_epik_State_Penalty>
-0

> <r_epik_Charging_Adjusted_Penalty>
0

> <i_epik_Tot_Q>
0

> <i_epik_Tot_abs_Q>
0

> <r_epik_Metal_State_Penalty>
-0

> <b_epik_Metal_Only>
0

> <s_lp_Force_Field>
OPLS_2005

> <r_lp_Energy>
46.7978

> <b_lp_Chiralities_Consistent>
1

> <s_lp_Variant>
AV-unprocessed.smi:91-4

> <Gold.Version>
5.8.1

> <Gold.Id.Protein>
6NUR|6NUR_protein|mol2

> <Gold.PLP.Fitness>
48.6698

> <Gold.PLP.PLP>
-44.2178

> <Gold.PLP.part.hbond>
-2.7801

> <Gold.PLP.part.metal>
0.0000

> <Gold.PLP.part.buried>
-7.2473

> <Gold.PLP.part.nonpolar>
-34.3289

> <Gold.PLP.part.repulsive>
0.2039

> <Gold.PLP.ligand.clash>
0.0000

> <Gold.PLP.ligand.torsion>
1.3813

> <Gold.PLP.Chemscore.Hbond>
2.0000

> <Gold.PLP.Chemscore.CHOScore>
0.0000

> <Gold.PLP.Chemscore.Metal>
0.0000

> <Gold.Chemscore.Hbonds>
donor molecule, donor type, donor heavy atom, donor atom, acceptor molecule, acceptor atom, score
      P1  H  6896  6909       L1    13  0.70
      P1  H  7997  8008       L1    19  1.00

> <Gold.PLP.Chemscore.Internal.Correction>
1.2147

> <Gold.Rescore>
     Score         DG    S(hbond)    S(metal)    S(lipo)     H(rot)  DE(clash)    DE(int)     intcor
     14.94     -16.56       1.95        0.00     105.42       3.03       0.04       1.59       ----

> <Gold.Chemscore.Fitness>
14.9360

> <Gold.Chemscore.DG>
-16.5647

> <Gold.Chemscore.ZeroCoef>
-5.4800

> <Gold.Chemscore.Hbond>
1.9473

> <Gold.Chemscore.Metal>
0.0000

> <Gold.Chemscore.Lipo>
105.4159

> <Gold.Chemscore.Internal_Hbond>
0.0000

> <Gold.Chemscore.DEClash>
0.0407

> <Gold.Chemscore.DEInternal>
1.5880

> <Gold.Chemscore.Rot>
3.0284

> <Gold.Chemscore.Internal.Correction>
   9.000000E+99

> <Gold.Chemscore.Hbonds>
donor molecule, donor type, donor heavy atom, donor atom, acceptor molecule, acceptor atom, score
      P1  H  6896  6909       L1    13  0.49
      P1  H  7997  8008       L1    19  0.85

> <Gold.Chemscore.Hbond.Weighted>
-6.5038

> <Gold.Chemscore.Metal.Weighted>
-0.0000

> <Gold.Chemscore.Lipo.Weighted>
-12.3337

> <Gold.Chemscore.Internal_Hbond.Weighted>
0.0000

> <Gold.Chemscore.DEClash.Weighted>
0.0407

> <Gold.Chemscore.DEInternal.Weighted>
1.5880

> <Gold.Chemscore.Rot.Weighted>
7.7528

> <Gold.Chemscore.Internal.Correction.Weighted>
   9.000000E+99

> <Gold.Protein.RotatedTorsions>
[ 6907 6896 6895 6894 ] final   80.06 input  -60.11 | X-H torsion
[ 7974 7965 7964 7962 ] final   86.74 input  175.53 | X-H torsion
[ 8008 7997 7996 7995 ] final -117.93 input   59.86 | X-H torsion
[ 10167 10162 10161 10158 ] final   53.94 input  -65.29 | X-H torsion
[ 10718 10713 10712 10709 ] final   24.42 input   66.30 | X-H torsion
[ 10763 10752 10751 10750 ] final    9.85 input  -60.55 | X-H torsion
[ 11005 11000 10999 10996 ] final  -23.62 input  -57.11 | X-H torsion

> <Gold.Protein.ActiveResidues>
 VAL166  LYS551  ARG553  GLY616  TRP617  ASP618  TYR619  PRO620  LYS621  CYS622 
 ASP623  PHE694  ASN695  SER759  ASP760  ASP761  ALA762  ILE779  LEU786  VAL792 
 PHE793  MET794  SER795  GLU796  ALA797  LYS798  CYS799  TRP800  GLU811  SER814 

> <Gold.Protein.RotatedAtoms>
  152.5221  134.3416  159.9218 H   0  0  0  0  0  0  0  0  0  0  0  0  # atno 6907 bound_to 6896
  151.3366  133.3973  159.2675 H   0  0  0  0  0  0  0  0  0  0  0  0  # atno 6908 bound_to 6896
  150.9837  134.9205  159.7917 H   0  0  0  0  0  0  0  0  0  0  0  0  # atno 6909 bound_to 6896
  145.5683  139.2311  143.2420 H   0  0  0  0  0  0  0  0  0  0  0  0  # atno 7974 bound_to 7965
  155.0915  140.0395  157.2670 H   0  0  0  0  0  0  0  0  0  0  0  0  # atno 8008 bound_to 7997
  154.6828  140.2636  155.6866 H   0  0  0  0  0  0  0  0  0  0  0  0  # atno 8009 bound_to 7997
  156.2701  140.2775  156.1378 H   0  0  0  0  0  0  0  0  0  0  0  0  # atno 8010 bound_to 7997
  140.2355  144.3641  150.6399 H   0  0  0  0  0  0  0  0  0  0  0  0  # atno 10167 bound_to 10162
  157.1795  130.6796  149.6108 H   0  0  0  0  0  0  0  0  0  0  0  0  # atno 10718 bound_to 10713
  153.2095  135.6867  153.8131 H   0  0  0  0  0  0  0  0  0  0  0  0  # atno 10763 bound_to 10752
  153.7368  135.3244  155.3297 H   0  0  0  0  0  0  0  0  0  0  0  0  # atno 10764 bound_to 10752
  154.8215  135.4649  154.0897 H   0  0  0  0  0  0  0  0  0  0  0  0  # atno 10765 bound_to 10752
  140.8769  133.7681  156.0254 H   0  0  0  0  0  0  0  0  0  0  0  0  # atno 11005 bound_to 11000
  146.1802  140.6509  142.9192 LP  0  0  0  0  0  0  0  0  0  0  0  0  # atno 17320 bound_to 7965
  144.7450  140.5043  143.6842 LP  0  0  0  0  0  0  0  0  0  0  0  0  # atno 17321 bound_to 7965
  140.6153  143.2172  151.6803 LP  0  0  0  0  0  0  0  0  0  0  0  0  # atno 17342 bound_to 10162
  139.5095  144.3574  152.0595 LP  0  0  0  0  0  0  0  0  0  0  0  0  # atno 17343 bound_to 10162
  155.9726  130.4651  150.6243 LP  0  0  0  0  0  0  0  0  0  0  0  0  # atno 17370 bound_to 10713
  157.3966  131.0803  151.1346 LP  0  0  0  0  0  0  0  0  0  0  0  0  # atno 17371 bound_to 10713
  140.8508  134.2957  157.5276 LP  0  0  0  0  0  0  0  0  0  0  0  0  # atno 17394 bound_to 11000
  139.8716  134.9466  156.3944 LP  0  0  0  0  0  0  0  0  0  0  0  0  # atno 17395 bound_to 11000

$$$$
