AV-unprocessed.smi:2166|AV-procd|sdf|8814|dock7
  -GOLD-   2272012 03D 1   1.00000     0.00000
 Structure written by MMmdl.
 38 39  0  0  0  0  0  0  0  0  1 V2000
  154.7622  134.2230  164.2823 C   0  0  0  0  0  0  0  0  0  0  0  0
  154.2602  135.8669  163.7018 S   0  0  0  0  0  0  0  0  0  0  0  0
  154.6522  135.7463  161.9304 C   0  0  2  0  0  0  0  0  0  0  0  0
  156.1752  135.7226  161.7226 C   0  0  0  0  0  0  0  0  0  0  0  0
  153.9979  136.8733  161.1205 C   0  0  0  0  0  0  0  0  0  0  0  0
  153.2413  136.5980  160.1885 O   0  0  0  0  0  0  0  0  0  0  0  0
  154.3195  138.1252  161.4985 N   0  0  0  0  0  0  0  0  0  0  0  0
  153.8921  139.3554  160.9332 C   0  0  0  0  0  0  0  0  0  0  0  0
  154.3504  140.5103  161.6047 C   0  0  0  0  0  0  0  0  0  0  0  0
  153.9891  141.7824  161.1217 C   0  0  0  0  0  0  0  0  0  0  0  0
  153.1761  141.8732  159.9759 C   0  0  0  0  0  0  0  0  0  0  0  0
  152.8099  143.1323  159.4796 N   0  0  0  0  0  0  0  0  0  0  0  0
  152.0633  143.0701  158.2291 C   0  0  0  0  0  0  0  0  0  0  0  0
  151.8072  144.4914  157.6975 C   0  0  0  0  0  0  0  0  0  0  0  0
  151.1358  145.2601  158.6918 O   0  0  0  0  0  0  0  0  0  0  0  0
  151.9047  145.3778  159.8858 C   0  0  0  0  0  0  0  0  0  0  0  0
  152.1633  143.9793  160.4738 C   0  0  0  0  0  0  0  0  0  0  0  0
  152.7599  140.6669  159.3698 C   0  0  0  0  0  0  0  0  0  0  0  0
  153.1059  139.4471  159.8324 N   0  0  0  0  0  0  0  0  0  0  0  0
  154.6303  134.1523  165.3620 H   0  0  0  0  0  0  0  0  0  0  0  0
  155.8111  134.0392  164.0503 H   0  0  0  0  0  0  0  0  0  0  0  0
  154.1585  133.4459  163.8139 H   0  0  0  0  0  0  0  0  0  0  0  0
  154.2604  134.7903  161.5797 H   0  0  0  0  0  0  0  0  0  0  0  0
  156.4306  135.6583  160.6641 H   0  0  0  0  0  0  0  0  0  0  0  0
  156.6209  134.8602  162.2188 H   0  0  0  0  0  0  0  0  0  0  0  0
  156.6512  136.6168  162.1273 H   0  0  0  0  0  0  0  0  0  0  0  0
  154.9549  138.2036  162.2788 H   0  0  0  0  0  0  0  0  0  0  0  0
  154.9760  140.4280  162.4816 H   0  0  0  0  0  0  0  0  0  0  0  0
  154.3344  142.6738  161.6246 H   0  0  0  0  0  0  0  0  0  0  0  0
  152.6226  142.4908  157.4934 H   0  0  0  0  0  0  0  0  0  0  0  0
  151.1123  142.5603  158.3884 H   0  0  0  0  0  0  0  0  0  0  0  0
  152.7435  144.9774  157.4182 H   0  0  0  0  0  0  0  0  0  0  0  0
  151.1890  144.4518  156.8005 H   0  0  0  0  0  0  0  0  0  0  0  0
  152.8443  145.8916  159.6761 H   0  0  0  0  0  0  0  0  0  0  0  0
  151.3587  145.9921  160.6018 H   0  0  0  0  0  0  0  0  0  0  0  0
  151.2195  143.5304  160.7864 H   0  0  0  0  0  0  0  0  0  0  0  0
  152.7943  144.0572  161.3601 H   0  0  0  0  0  0  0  0  0  0  0  0
  152.1332  140.6758  158.4902 H   0  0  0  0  0  0  0  0  0  0  0  0
  1  2  1  0  0  0  0
  1 20  1  0  0  0  0
  1 21  1  0  0  0  0
  1 22  1  0  0  0  0
  2  3  1  0  0  0  0
  3  4  1  0  0  0  0
  3  5  1  0  0  0  0
  3 23  1  0  0  0  0
  4 24  1  0  0  0  0
  4 25  1  0  0  0  0
  4 26  1  0  0  0  0
  5  6  2  0  0  0  0
  5  7  1  0  0  0  0
  7  8  1  0  0  0  0
  7 27  1  0  0  0  0
  8 19  1  0  0  0  0
  8  9  2  0  0  0  0
  9 10  1  0  0  0  0
  9 28  1  0  0  0  0
 10 11  2  0  0  0  0
 10 29  1  0  0  0  0
 11 12  1  0  0  0  0
 11 18  1  0  0  0  0
 12 17  1  0  0  0  0
 12 13  1  0  0  0  0
 13 14  1  0  0  0  0
 13 30  1  0  0  0  0
 13 31  1  0  0  0  0
 14 15  1  0  0  0  0
 14 32  1  0  0  0  0
 14 33  1  0  0  0  0
 15 16  1  0  0  0  0
 16 17  1  0  0  0  0
 16 34  1  0  0  0  0
 16 35  1  0  0  0  0
 17 36  1  0  0  0  0
 17 37  1  0  0  0  0
 18 19  2  0  0  0  0
 18 38  1  0  0  0  0
M  END
> <s_m_source_file>
AV-unprocessed.smi

> <i_m_source_file_index>
2166

> <i_lp_mmshare_version>
43012

> <i_f3d_flags>
0

> <s_epik_input>
W0NIM11TW0NASF0oW0NIM10pQyg9TylbTkhdYzFbY0hdW2NIXWMoW2NIXW4xKU4yW0NIMl1bQ0gyXU9bQ0gyXVtDSDJdMg==

> <s_epik_cmdline>
J2VwaWtfcHl0aG9uJywgJy1waCcsICc3LjAnLCAnLXRuJywgJzgnLCAnLW1hJywgJzIwMCcsICctbWV0YWxfYmluZGluZycsICctaW1hZScsICc8aW5maWxlLm1hZT4nLCAnLW9tYWUnLCAnPG91dGZpbGUubWFlPic=

> <r_lp_tautomer_probability>
1

> <r_epik_Ionization_Penalty>
0.0038652

> <r_epik_Ionization_Penalty_Charging>
0

> <r_epik_Ionization_Penalty_Neutral>
0.0038652

> <r_epik_State_Penalty>
0.00681294

> <r_epik_Charging_Adjusted_Penalty>
0.00681294

> <i_epik_Tot_Q>
0

> <i_epik_Tot_abs_Q>
0

> <r_epik_Metal_State_Penalty>
-0

> <b_epik_Metal_Only>
0

> <s_lp_Force_Field>
OPLS_2005

> <r_lp_Energy>
27.7309

> <b_lp_Chiralities_Consistent>
1

> <s_lp_Variant>
AV-unprocessed.smi:2166-1

> <Gold.Version>
5.8.1

> <Gold.Id.Protein>
6NUR|6NUR_protein|mol2

> <Gold.PLP.Fitness>
43.4800

> <Gold.PLP.PLP>
-40.7011

> <Gold.PLP.part.hbond>
-1.2708

> <Gold.PLP.part.metal>
0.0000

> <Gold.PLP.part.buried>
-5.4832

> <Gold.PLP.part.nonpolar>
-33.5747

> <Gold.PLP.part.repulsive>
0.1467

> <Gold.PLP.ligand.clash>
0.0040

> <Gold.PLP.ligand.torsion>
0.1741

> <Gold.PLP.Chemscore.Hbond>
1.0000

> <Gold.PLP.Chemscore.CHOScore>
0.0000

> <Gold.PLP.Chemscore.Metal>
0.0000

> <Gold.Chemscore.Hbonds>
donor molecule, donor type, donor heavy atom, donor atom, acceptor molecule, acceptor atom, score
      P1  H  6896  6908       L1     6  0.99

> <Gold.PLP.Chemscore.Internal.Correction>
0.1311

> <Gold.Rescore>
     Score         DG    S(hbond)    S(metal)    S(lipo)     H(rot)  DE(clash)    DE(int)     intcor
     17.37     -18.99       1.00        0.00     115.62       1.31       0.15       1.46       ----

> <Gold.Chemscore.Fitness>
17.3709

> <Gold.Chemscore.DG>
-18.9879

> <Gold.Chemscore.ZeroCoef>
-5.4800

> <Gold.Chemscore.Hbond>
0.9986

> <Gold.Chemscore.Metal>
0.0000

> <Gold.Chemscore.Lipo>
115.6201

> <Gold.Chemscore.Internal_Hbond>
0.0000

> <Gold.Chemscore.DEClash>
0.1538

> <Gold.Chemscore.DEInternal>
1.4632

> <Gold.Chemscore.Rot>
1.3105

> <Gold.Chemscore.Internal.Correction>
   9.000000E+99

> <Gold.Chemscore.Hbonds>
donor molecule, donor type, donor heavy atom, donor atom, acceptor molecule, acceptor atom, score
      P1  H  6896  6908       L1     6  0.89

> <Gold.Chemscore.Hbond.Weighted>
-3.3353

> <Gold.Chemscore.Metal.Weighted>
-0.0000

> <Gold.Chemscore.Lipo.Weighted>
-13.5275

> <Gold.Chemscore.Internal_Hbond.Weighted>
0.0000

> <Gold.Chemscore.DEClash.Weighted>
0.1538

> <Gold.Chemscore.DEInternal.Weighted>
1.4632

> <Gold.Chemscore.Rot.Weighted>
3.3549

> <Gold.Chemscore.Internal.Correction.Weighted>
   9.000000E+99

> <Gold.Protein.RotatedTorsions>
[ 6907 6896 6895 6894 ] final -105.45 input  -60.11 | X-H torsion
[ 7974 7965 7964 7962 ] final -154.68 input  175.53 | X-H torsion
[ 8008 7997 7996 7995 ] final  -70.80 input   59.86 | X-H torsion
[ 10167 10162 10161 10158 ] final  171.13 input  -65.29 | X-H torsion
[ 10718 10713 10712 10709 ] final  175.17 input   66.30 | X-H torsion
[ 10763 10752 10751 10750 ] final   11.38 input  -60.55 | X-H torsion
[ 11005 11000 10999 10996 ] final   33.37 input  -57.11 | X-H torsion

> <Gold.Protein.ActiveResidues>
 VAL166  LYS551  ARG553  GLY616  TRP617  ASP618  TYR619  PRO620  LYS621  CYS622 
 ASP623  PHE694  ASN695  SER759  ASP760  ASP761  ALA762  ILE779  LEU786  VAL792 
 PHE793  MET794  SER795  GLU796  ALA797  LYS798  CYS799  TRP800  GLU811  SER814 

> <Gold.Protein.RotatedAtoms>
  150.7337  134.0125  159.3674 H   0  0  0  0  0  0  0  0  0  0  0  0  # atno 6907 bound_to 6896
  151.8086  135.0685  160.0419 H   0  0  0  0  0  0  0  0  0  0  0  0  # atno 6908 bound_to 6896
  152.3089  133.5696  159.5704 H   0  0  0  0  0  0  0  0  0  0  0  0  # atno 6909 bound_to 6896
  144.7677  140.4354  143.5930 H   0  0  0  0  0  0  0  0  0  0  0  0  # atno 7974 bound_to 7965
  154.5039  140.0827  156.7855 H   0  0  0  0  0  0  0  0  0  0  0  0  # atno 8008 bound_to 7997
  155.3938  140.3434  155.4234 H   0  0  0  0  0  0  0  0  0  0  0  0  # atno 8009 bound_to 7997
  156.1491  140.1553  156.8786 H   0  0  0  0  0  0  0  0  0  0  0  0  # atno 8010 bound_to 7997
  139.5038  144.3519  151.9913 H   0  0  0  0  0  0  0  0  0  0  0  0  # atno 10167 bound_to 10162
  156.9388  130.9994  151.2973 H   0  0  0  0  0  0  0  0  0  0  0  0  # atno 10718 bound_to 10713
  153.1932  135.6845  153.8325 H   0  0  0  0  0  0  0  0  0  0  0  0  # atno 10763 bound_to 10752
  153.7617  135.3209  155.3339 H   0  0  0  0  0  0  0  0  0  0  0  0  # atno 10764 bound_to 10752
  154.8129  135.4705  154.0665 H   0  0  0  0  0  0  0  0  0  0  0  0  # atno 10765 bound_to 10752
  140.2638  134.3161  155.7849 H   0  0  0  0  0  0  0  0  0  0  0  0  # atno 11005 bound_to 11000
  145.6419  139.1551  143.2911 LP  0  0  0  0  0  0  0  0  0  0  0  0  # atno 17320 bound_to 7965
  146.1798  140.6515  142.9194 LP  0  0  0  0  0  0  0  0  0  0  0  0  # atno 17321 bound_to 7965
  140.2956  144.3704  150.6075 LP  0  0  0  0  0  0  0  0  0  0  0  0  # atno 17342 bound_to 10162
  140.5913  143.2168  151.7248 LP  0  0  0  0  0  0  0  0  0  0  0  0  # atno 17343 bound_to 10162
  157.5799  130.8369  149.8507 LP  0  0  0  0  0  0  0  0  0  0  0  0  # atno 17370 bound_to 10713
  156.0414  130.3738  150.1426 LP  0  0  0  0  0  0  0  0  0  0  0  0  # atno 17371 bound_to 10713
  141.2187  133.7425  156.9228 LP  0  0  0  0  0  0  0  0  0  0  0  0  # atno 17394 bound_to 11000
  140.1439  134.9275  157.2503 LP  0  0  0  0  0  0  0  0  0  0  0  0  # atno 17395 bound_to 11000

$$$$
