AV-unprocessed.smi:3188|AV-procd|sdf|12186|dock8
  -GOLD-   2272018 33D 1   1.00000     0.00000
 Structure written by MMmdl.
 40 41  0  0  0  0  0  0  0  0  2 V2000
  154.5190  140.2986  159.2322 C   0  0  0  0  0  0  0  0  0  0  0  0
  153.7744  141.4243  159.9307 C   0  0  0  0  0  0  0  0  0  0  0  0
  153.9056  141.6162  161.2583 C   0  0  0  0  0  0  0  0  0  0  0  0
  153.2429  142.7353  162.0418 C   0  0  0  0  0  0  0  0  0  0  0  0
  152.2266  143.5337  161.2093 C   0  0  0  0  0  0  0  0  0  0  0  0
  152.7103  143.7181  159.7610 C   0  0  2  0  0  0  0  0  0  0  0  0
  151.8348  144.7146  158.9815 C   0  0  0  0  0  0  0  0  0  0  0  0
  152.9063  142.3436  159.0598 C   0  0  2  0  0  0  0  0  0  0  0  0
  151.5684  141.6698  158.6568 C   0  0  0  0  0  0  0  0  0  0  0  0
  151.0222  142.2011  157.3932 N   0  3  0  0  0  0  0  0  0  0  0  0
  151.5131  141.5153  156.1807 C   0  0  0  0  0  0  0  0  0  0  0  0
  150.9178  140.1046  156.0486 C   0  0  0  0  0  0  0  0  0  0  0  0
  151.6925  139.2680  155.1499 N   0  0  0  0  0  0  0  0  0  0  0  0
  151.2403  138.4264  154.1553 C   0  0  0  0  0  0  0  0  0  0  0  0
  152.3881  137.8818  153.6545 C   0  0  0  0  0  0  0  0  0  0  0  0
  153.4734  138.4065  154.3540 N   0  0  0  0  0  0  0  0  0  0  0  0
  153.0435  139.2429  155.2451 N   0  0  0  0  0  0  0  0  0  0  0  0
  155.0026  140.6600  158.3246 H   0  0  0  0  0  0  0  0  0  0  0  0
  153.8480  139.4822  158.9720 H   0  0  0  0  0  0  0  0  0  0  0  0
  155.2943  139.8832  159.8769 H   0  0  0  0  0  0  0  0  0  0  0  0
  154.5434  140.9594  161.8322 H   0  0  0  0  0  0  0  0  0  0  0  0
  152.7613  142.3238  162.9291 H   0  0  0  0  0  0  0  0  0  0  0  0
  154.0329  143.4003  162.3923 H   0  0  0  0  0  0  0  0  0  0  0  0
  151.2642  143.0216  161.2141 H   0  0  0  0  0  0  0  0  0  0  0  0
  152.0550  144.5014  161.6822 H   0  0  0  0  0  0  0  0  0  0  0  0
  153.6977  144.1801  159.8173 H   0  0  0  0  0  0  0  0  0  0  0  0
  150.7829  144.4298  158.9896 H   0  0  0  0  0  0  0  0  0  0  0  0
  152.1571  144.7975  157.9432 H   0  0  0  0  0  0  0  0  0  0  0  0
  151.8988  145.7093  159.4232 H   0  0  0  0  0  0  0  0  0  0  0  0
  153.4676  142.5421  158.1454 H   0  0  0  0  0  0  0  0  0  0  0  0
  151.7074  140.5924  158.5607 H   0  0  0  0  0  0  0  0  0  0  0  0
  150.8060  141.8261  159.4184 H   0  0  0  0  0  0  0  0  0  0  0  0
  150.0148  142.1326  157.4222 H   0  0  0  0  0  0  0  0  0  0  0  0
  151.2635  142.1092  155.3002 H   0  0  0  0  0  0  0  0  0  0  0  0
  152.6007  141.4510  156.2251 H   0  0  0  0  0  0  0  0  0  0  0  0
  150.8928  139.6192  157.0249 H   0  0  0  0  0  0  0  0  0  0  0  0
  149.8853  140.1536  155.6983 H   0  0  0  0  0  0  0  0  0  0  0  0
  150.1980  138.2931  153.9052 H   0  0  0  0  0  0  0  0  0  0  0  0
  152.5221  137.1630  152.8594 H   0  0  0  0  0  0  0  0  0  0  0  0
  151.2759  143.1768  157.3274 H   0  0  0  0  0  0  0  0  0  0  0  0
  1  2  1  0  0  0  0
  1 18  1  0  0  0  0
  1 19  1  0  0  0  0
  1 20  1  0  0  0  0
  2  8  1  0  0  0  0
  2  3  2  0  0  0  0
  3  4  1  0  0  0  0
  3 21  1  0  0  0  0
  4  5  1  0  0  0  0
  4 22  1  0  0  0  0
  4 23  1  0  0  0  0
  5  6  1  0  0  0  0
  5 24  1  0  0  0  0
  5 25  1  0  0  0  0
  6  7  1  0  0  0  0
  6  8  1  0  0  0  0
  6 26  1  0  0  0  0
  7 27  1  0  0  0  0
  7 28  1  0  0  0  0
  7 29  1  0  0  0  0
  8  9  1  0  0  0  0
  8 30  1  0  0  0  0
  9 10  1  0  0  0  0
  9 31  1  0  0  0  0
  9 32  1  0  0  0  0
 10 11  1  0  0  0  0
 10 33  1  0  0  0  0
 10 40  1  0  0  0  0
 11 12  1  0  0  0  0
 11 34  1  0  0  0  0
 11 35  1  0  0  0  0
 12 13  1  0  0  0  0
 12 36  1  0  0  0  0
 12 37  1  0  0  0  0
 13 17  1  0  0  0  0
 13 14  1  0  0  0  0
 14 15  2  0  0  0  0
 14 38  1  0  0  0  0
 15 16  1  0  0  0  0
 15 39  1  0  0  0  0
 16 17  2  0  0  0  0
M  CHG  1  10   1
M  END
> <s_m_source_file>
AV-unprocessed.smi

> <i_m_source_file_index>
3188

> <i_lp_mmshare_version>
43012

> <i_f3d_flags>
0

> <s_epik_input>
W0NIM11DMT1bQ0hdW0NIMl1bQ0gyXVtDQEBIXShbQ0gzXSlbQ0BIXTFbQ0gyXVtOSF1bQ0gyXVtDSDJdbjJbY0hdW2NIXW5uMg==

> <s_epik_cmdline>
J2VwaWtfcHl0aG9uJywgJy1waCcsICc3LjAnLCAnLXRuJywgJzgnLCAnLW1hJywgJzIwMCcsICctbWV0YWxfYmluZGluZycsICctaW1hZScsICc8aW5maWxlLm1hZT4nLCAnLW9tYWUnLCAnPG91dGZpbGUubWFlPic=

> <r_lp_tautomer_probability>
1

> <r_epik_Ionization_Penalty>
0.007268

> <r_epik_Ionization_Penalty_Charging>
0.00726786

> <r_epik_Ionization_Penalty_Neutral>
1.34882e-07

> <r_epik_State_Penalty>
0.00542069

> <r_epik_Charging_Adjusted_Penalty>
0.0126886

> <i_epik_Tot_Q>
1

> <i_epik_Tot_abs_Q>
1

> <r_epik_Metal_State_Penalty>
-0

> <b_epik_Metal_Only>
0

> <s_lp_Force_Field>
OPLS_2005

> <r_lp_Energy>
14.4229

> <b_lp_Chiralities_Consistent>
1

> <s_lp_Variant>
AV-unprocessed.smi:3188-4

> <Gold.Version>
5.8.1

> <Gold.Id.Protein>
6NUR|6NUR_protein|mol2

> <Gold.PLP.Fitness>
50.6471

> <Gold.PLP.PLP>
-46.0656

> <Gold.PLP.part.hbond>
-1.5028

> <Gold.PLP.part.metal>
0.0000

> <Gold.PLP.part.buried>
-6.7346

> <Gold.PLP.part.nonpolar>
-37.2666

> <Gold.PLP.part.repulsive>
0.0487

> <Gold.PLP.ligand.clash>
0.0000

> <Gold.PLP.ligand.torsion>
0.7268

> <Gold.PLP.Chemscore.Hbond>
1.0000

> <Gold.PLP.Chemscore.CHOScore>
1.0000

> <Gold.PLP.Chemscore.Metal>
0.0000

> <Gold.Chemscore.Hbonds>
donor molecule, donor type, donor heavy atom, donor atom, acceptor molecule, acceptor atom, score
      P1  H  7997  8008       L1    17  1.00
      L1  C    15    39       P1  7949  1.00

> <Gold.PLP.Chemscore.Internal.Correction>
0.0350

> <Gold.Rescore>
     Score         DG    S(hbond)    S(metal)    S(lipo)     H(rot)  DE(clash)    DE(int)     intcor
     16.54     -19.01       0.87        0.00     129.71       1.78       1.55       0.92       ----

> <Gold.Chemscore.Fitness>
16.5435

> <Gold.Chemscore.DG>
-19.0104

> <Gold.Chemscore.ZeroCoef>
-5.4800

> <Gold.Chemscore.Hbond>
0.8723

> <Gold.Chemscore.Metal>
0.0000

> <Gold.Chemscore.Lipo>
129.7097

> <Gold.Chemscore.Internal_Hbond>
0.0000

> <Gold.Chemscore.DEClash>
1.5510

> <Gold.Chemscore.DEInternal>
0.9159

> <Gold.Chemscore.Rot>
1.7809

> <Gold.Chemscore.Internal.Correction>
   9.000000E+99

> <Gold.Chemscore.Hbonds>
donor molecule, donor type, donor heavy atom, donor atom, acceptor molecule, acceptor atom, score
      P1  H  7997  8008       L1    17  0.60

> <Gold.Chemscore.Hbond.Weighted>
-2.9134

> <Gold.Chemscore.Metal.Weighted>
-0.0000

> <Gold.Chemscore.Lipo.Weighted>
-15.1760

> <Gold.Chemscore.Internal_Hbond.Weighted>
0.0000

> <Gold.Chemscore.DEClash.Weighted>
1.5510

> <Gold.Chemscore.DEInternal.Weighted>
0.9159

> <Gold.Chemscore.Rot.Weighted>
4.5590

> <Gold.Chemscore.Internal.Correction.Weighted>
   9.000000E+99

> <Gold.Protein.RotatedTorsions>
[ 6907 6896 6895 6894 ] final   55.96 input  -60.11 | X-H torsion
[ 7974 7965 7964 7962 ] final -176.91 input  175.53 | X-H torsion
[ 8008 7997 7996 7995 ] final  -11.67 input   59.86 | X-H torsion
[ 10167 10162 10161 10158 ] final   22.53 input  -65.29 | X-H torsion
[ 10718 10713 10712 10709 ] final   11.76 input   66.30 | X-H torsion
[ 10763 10752 10751 10750 ] final   68.41 input  -60.55 | X-H torsion
[ 11005 11000 10999 10996 ] final  -79.08 input  -57.11 | X-H torsion

> <Gold.Protein.ActiveResidues>
 VAL166  LYS551  ARG553  GLY616  TRP617  ASP618  TYR619  PRO620  LYS621  CYS622 
 ASP623  PHE694  ASN695  SER759  ASP760  ASP761  ALA762  ILE779  LEU786  VAL792 
 PHE793  MET794  SER795  GLU796  ALA797  LYS798  CYS799  TRP800  GLU811  SER814 

> <Gold.Protein.RotatedAtoms>
  152.3589  134.6900  160.0212 H   0  0  0  0  0  0  0  0  0  0  0  0  # atno 6907 bound_to 6896
  151.7229  133.3309  159.3328 H   0  0  0  0  0  0  0  0  0  0  0  0  # atno 6908 bound_to 6896
  150.7591  134.6366  159.6259 H   0  0  0  0  0  0  0  0  0  0  0  0  # atno 6909 bound_to 6896
  144.7127  140.1099  143.6411 H   0  0  0  0  0  0  0  0  0  0  0  0  # atno 7974 bound_to 7965
  154.5444  140.2296  155.8588 H   0  0  0  0  0  0  0  0  0  0  0  0  # atno 8008 bound_to 7997
  156.1889  140.3082  155.9254 H   0  0  0  0  0  0  0  0  0  0  0  0  # atno 8009 bound_to 7997
  155.3194  140.0439  157.3029 H   0  0  0  0  0  0  0  0  0  0  0  0  # atno 8010 bound_to 7997
  140.5341  143.9791  150.6482 H   0  0  0  0  0  0  0  0  0  0  0  0  # atno 10167 bound_to 10162
  157.0002  130.6076  149.5695 H   0  0  0  0  0  0  0  0  0  0  0  0  # atno 10718 bound_to 10713
  153.0234  135.5248  154.7130 H   0  0  0  0  0  0  0  0  0  0  0  0  # atno 10763 bound_to 10752
  154.6207  135.2888  155.0331 H   0  0  0  0  0  0  0  0  0  0  0  0  # atno 10764 bound_to 10752
  154.1319  135.6591  153.4976 H   0  0  0  0  0  0  0  0  0  0  0  0  # atno 10765 bound_to 10752
  141.1666  133.7090  156.8069 H   0  0  0  0  0  0  0  0  0  0  0  0  # atno 11005 bound_to 11000
  145.9464  139.2703  143.1238 LP  0  0  0  0  0  0  0  0  0  0  0  0  # atno 17320 bound_to 7965
  145.9370  140.9007  143.0327 LP  0  0  0  0  0  0  0  0  0  0  0  0  # atno 17321 bound_to 7965
  140.3174  143.3159  152.0819 LP  0  0  0  0  0  0  0  0  0  0  0  0  # atno 17342 bound_to 10162
  139.4964  144.6596  151.6494 LP  0  0  0  0  0  0  0  0  0  0  0  0  # atno 17343 bound_to 10162
  156.0174  130.5268  150.8175 LP  0  0  0  0  0  0  0  0  0  0  0  0  # atno 17370 bound_to 10713
  157.5395  131.0940  150.9846 LP  0  0  0  0  0  0  0  0  0  0  0  0  # atno 17371 bound_to 10713
  140.2216  134.8753  157.3383 LP  0  0  0  0  0  0  0  0  0  0  0  0  # atno 17394 bound_to 11000
  140.1982  134.4287  155.7677 LP  0  0  0  0  0  0  0  0  0  0  0  0  # atno 17395 bound_to 11000

$$$$
