AV-unprocessed.smi:1786|AV-procd|sdf|7205|dock5
  -GOLD-   22720 8443D 1   1.00000     0.00000
 Structure written by MMmdl.
 44 45  0  0  0  0  0  0  0  0  2 V2000
  145.6613  137.1419  152.4654 C   0  0  0  0  0  0  0  0  0  0  0  0
  145.6434  135.6056  152.3416 C   0  0  1  0  0  0  0  0  0  0  0  0
  145.6072  135.2210  150.8461 C   0  0  0  0  0  0  0  0  0  0  0  0
  145.6023  133.7029  150.6429 C   0  0  0  0  0  0  0  0  0  0  0  0
  146.8095  133.0897  151.3551 C   0  0  0  0  0  0  0  0  0  0  0  0
  146.8095  133.4763  152.8408 C   0  0  0  0  0  0  0  0  0  0  0  0
  146.8016  134.9527  153.0326 N   0  3  2  0  0  0  0  0  0  0  0  0
  146.9325  135.3089  154.4721 C   0  0  0  0  0  0  0  0  0  0  0  0
  148.3228  134.9434  155.0273 C   0  0  0  0  0  0  0  0  0  0  0  0
  149.3396  135.8869  154.5788 N   0  0  0  0  0  0  0  0  0  0  0  0
  150.1351  136.5968  155.3935 C   0  0  0  0  0  0  0  0  0  0  0  0
  150.0550  136.5482  156.6215 O   0  0  0  0  0  0  0  0  0  0  0  0
  151.1687  137.5063  154.7164 C   0  0  0  0  0  0  0  0  0  0  0  0
  150.8975  138.9351  154.9454 N   0  0  0  0  0  0  0  0  0  0  0  0
  149.8114  139.5053  154.2517 C   0  0  0  0  0  0  0  0  0  0  0  0
  149.4765  140.7972  154.3967 C   0  0  0  0  0  0  0  0  0  0  0  0
  150.2650  141.6112  155.2913 C   0  0  0  0  0  0  0  0  0  0  0  0
  151.3040  141.0749  155.9619 C   0  0  0  0  0  0  0  0  0  0  0  0
  151.6696  139.6619  155.8118 C   0  0  0  0  0  0  0  0  0  0  0  0
  152.6104  139.1609  156.4290 O   0  0  0  0  0  0  0  0  0  0  0  0
  144.8359  137.5853  151.9078 H   0  0  0  0  0  0  0  0  0  0  0  0
  146.5855  137.5620  152.0671 H   0  0  0  0  0  0  0  0  0  0  0  0
  145.5534  137.4773  153.4966 H   0  0  0  0  0  0  0  0  0  0  0  0
  144.7277  135.2396  152.8094 H   0  0  0  0  0  0  0  0  0  0  0  0
  144.7239  135.6505  150.3716 H   0  0  0  0  0  0  0  0  0  0  0  0
  146.4693  135.6503  150.3337 H   0  0  0  0  0  0  0  0  0  0  0  0
  144.6794  133.2770  151.0386 H   0  0  0  0  0  0  0  0  0  0  0  0
  145.6285  133.4639  149.5793 H   0  0  0  0  0  0  0  0  0  0  0  0
  146.7911  132.0043  151.2520 H   0  0  0  0  0  0  0  0  0  0  0  0
  147.7323  133.4311  150.8838 H   0  0  0  0  0  0  0  0  0  0  0  0
  145.9425  133.0406  153.3404 H   0  0  0  0  0  0  0  0  0  0  0  0
  147.6958  133.0509  153.3139 H   0  0  0  0  0  0  0  0  0  0  0  0
  146.7050  136.3652  154.6218 H   0  0  0  0  0  0  0  0  0  0  0  0
  146.1886  134.7749  155.0658 H   0  0  0  0  0  0  0  0  0  0  0  0
  148.3014  134.9616  156.1174 H   0  0  0  0  0  0  0  0  0  0  0  0
  148.6171  133.9329  154.7439 H   0  0  0  0  0  0  0  0  0  0  0  0
  149.4612  135.9937  153.5817 H   0  0  0  0  0  0  0  0  0  0  0  0
  152.1727  137.2571  155.0662 H   0  0  0  0  0  0  0  0  0  0  0  0
  151.1727  137.2791  153.6494 H   0  0  0  0  0  0  0  0  0  0  0  0
  149.2686  138.8286  153.6076 H   0  0  0  0  0  0  0  0  0  0  0  0
  148.6372  141.2157  153.8608 H   0  0  0  0  0  0  0  0  0  0  0  0
  150.0209  142.6550  155.4238 H   0  0  0  0  0  0  0  0  0  0  0  0
  151.8829  141.6994  156.6267 H   0  0  0  0  0  0  0  0  0  0  0  0
  147.6378  135.2936  152.5802 H   0  0  0  0  0  0  0  0  0  0  0  0
  1  2  1  0  0  0  0
  1 21  1  0  0  0  0
  1 22  1  0  0  0  0
  1 23  1  0  0  0  0
  2  7  1  0  0  0  0
  2  3  1  0  0  0  0
  2 24  1  0  0  0  0
  3  4  1  0  0  0  0
  3 25  1  0  0  0  0
  3 26  1  0  0  0  0
  4  5  1  0  0  0  0
  4 27  1  0  0  0  0
  4 28  1  0  0  0  0
  5  6  1  0  0  0  0
  5 29  1  0  0  0  0
  5 30  1  0  0  0  0
  6  7  1  0  0  0  0
  6 31  1  0  0  0  0
  6 32  1  0  0  0  0
  7  8  1  0  0  0  0
  7 44  1  0  0  0  0
  8  9  1  0  0  0  0
  8 33  1  0  0  0  0
  8 34  1  0  0  0  0
  9 10  1  0  0  0  0
  9 35  1  0  0  0  0
  9 36  1  0  0  0  0
 10 11  1  0  0  0  0
 10 37  1  0  0  0  0
 11 12  2  0  0  0  0
 11 13  1  0  0  0  0
 13 14  1  0  0  0  0
 13 38  1  0  0  0  0
 13 39  1  0  0  0  0
 14 19  1  0  0  0  0
 14 15  1  0  0  0  0
 15 16  2  0  0  0  0
 15 40  1  0  0  0  0
 16 17  1  0  0  0  0
 16 41  1  0  0  0  0
 17 18  2  0  0  0  0
 17 42  1  0  0  0  0
 18 19  1  0  0  0  0
 18 43  1  0  0  0  0
 19 20  2  0  0  0  0
M  CHG  1   7   1
M  END
> <s_m_source_file>
AV-unprocessed.smi

> <i_m_source_file_index>
1786

> <i_lp_mmshare_version>
43012

> <i_f3d_flags>
0

> <s_epik_input>
W0NIM11bQ0BASF0xW0NIMl1bQ0gyXVtDSDJdW0NIMl1OMVtDSDJdW0NIMl1bTkhdQyg9TylbQ0gyXW4yW2NIXVtjSF1bY0hdW2NIXWMyPU8=

> <s_epik_cmdline>
J2VwaWtfcHl0aG9uJywgJy1waCcsICc3LjAnLCAnLXRuJywgJzgnLCAnLW1hJywgJzIwMCcsICctbWV0YWxfYmluZGluZycsICctaW1hZScsICc8aW5maWxlLm1hZT4nLCAnLW9tYWUnLCAnPG91dGZpbGUubWFlPic=

> <r_lp_tautomer_probability>
1

> <r_epik_Ionization_Penalty>
0.00237247

> <r_epik_Ionization_Penalty_Charging>
0.00237238

> <r_epik_Ionization_Penalty_Neutral>
8.2065e-08

> <r_epik_State_Penalty>
0.00163922

> <r_epik_Charging_Adjusted_Penalty>
0.0040116

> <i_epik_Tot_Q>
1

> <i_epik_Tot_abs_Q>
1

> <r_epik_Metal_State_Penalty>
-0

> <b_epik_Metal_Only>
0

> <s_lp_Force_Field>
OPLS_2005

> <r_lp_Energy>
27.3139

> <b_lp_Chiralities_Consistent>
1

> <s_lp_Variant>
AV-unprocessed.smi:1786-4

> <Gold.Version>
5.8.1

> <Gold.Id.Protein>
6NUR|6NUR_protein|mol2

> <Gold.PLP.Fitness>
49.5661

> <Gold.PLP.PLP>
-37.8625

> <Gold.PLP.part.hbond>
-3.2840

> <Gold.PLP.part.metal>
0.0000

> <Gold.PLP.part.buried>
-2.2117

> <Gold.PLP.part.nonpolar>
-31.2066

> <Gold.PLP.part.repulsive>
0.0494

> <Gold.PLP.ligand.clash>
0.0000

> <Gold.PLP.ligand.torsion>
0.3418

> <Gold.PLP.Chemscore.Hbond>
4.0000

> <Gold.PLP.Chemscore.CHOScore>
0.1112

> <Gold.PLP.Chemscore.Metal>
0.0000

> <Gold.Chemscore.Hbonds>
donor molecule, donor type, donor heavy atom, donor atom, acceptor molecule, acceptor atom, score
      L1  H     7    44       P1  7948  2.00
      L1  H    10    37       P1  7948  1.00
      P1  H  7997  8009       L1    20  1.00
      L1  C    15    40       P1  7957  0.20

> <Gold.PLP.Chemscore.Internal.Correction>
0.0536

> <Gold.Rescore>
     Score         DG    S(hbond)    S(metal)    S(lipo)     H(rot)  DE(clash)    DE(int)     intcor
     15.87     -16.08       2.02        0.00      73.74       1.86       0.03       0.18       ----

> <Gold.Chemscore.Fitness>
15.8689

> <Gold.Chemscore.DG>
-16.0810

> <Gold.Chemscore.ZeroCoef>
-5.4800

> <Gold.Chemscore.Hbond>
2.0156

> <Gold.Chemscore.Metal>
0.0000

> <Gold.Chemscore.Lipo>
73.7350

> <Gold.Chemscore.Internal_Hbond>
0.0000

> <Gold.Chemscore.DEClash>
0.0343

> <Gold.Chemscore.DEInternal>
0.1777

> <Gold.Chemscore.Rot>
1.8586

> <Gold.Chemscore.Internal.Correction>
   9.000000E+99

> <Gold.Chemscore.Hbonds>
donor molecule, donor type, donor heavy atom, donor atom, acceptor molecule, acceptor atom, score
      L1  H     7    44       P1  7948  1.00
      L1  H    10    37       P1  7948  0.50
      P1  H  7997  8009       L1    20  0.84

> <Gold.Chemscore.Hbond.Weighted>
-6.7321

> <Gold.Chemscore.Metal.Weighted>
-0.0000

> <Gold.Chemscore.Lipo.Weighted>
-8.6270

> <Gold.Chemscore.Internal_Hbond.Weighted>
0.0000

> <Gold.Chemscore.DEClash.Weighted>
0.0343

> <Gold.Chemscore.DEInternal.Weighted>
0.1777

> <Gold.Chemscore.Rot.Weighted>
4.7581

> <Gold.Chemscore.Internal.Correction.Weighted>
   9.000000E+99

> <Gold.Protein.RotatedTorsions>
[ 6907 6896 6895 6894 ] final  -15.78 input  -60.11 | X-H torsion
[ 7974 7965 7964 7962 ] final  176.88 input  175.53 | X-H torsion
[ 8008 7997 7996 7995 ] final -153.71 input   59.86 | X-H torsion
[ 10167 10162 10161 10158 ] final -121.51 input  -65.29 | X-H torsion
[ 10718 10713 10712 10709 ] final  -58.55 input   66.30 | X-H torsion
[ 10763 10752 10751 10750 ] final  -54.35 input  -60.55 | X-H torsion
[ 11005 11000 10999 10996 ] final -134.14 input  -57.11 | X-H torsion

> <Gold.Protein.ActiveResidues>
 VAL166  LYS551  ARG553  GLY616  TRP617  ASP618  TYR619  PRO620  LYS621  CYS622 
 ASP623  PHE694  ASN695  SER759  ASP760  ASP761  ALA762  ILE779  LEU786  VAL792 
 PHE793  MET794  SER795  GLU796  ALA797  LYS798  CYS799  TRP800  GLU811  SER814 

> <Gold.Protein.RotatedAtoms>
  151.3187  135.0813  159.9297 H   0  0  0  0  0  0  0  0  0  0  0  0  # atno 6907 bound_to 6896
  152.5261  133.9661  159.7750 H   0  0  0  0  0  0  0  0  0  0  0  0  # atno 6908 bound_to 6896
  150.9978  133.6034  159.2729 H   0  0  0  0  0  0  0  0  0  0  0  0  # atno 6909 bound_to 6896
  144.7177  140.0163  143.6440 H   0  0  0  0  0  0  0  0  0  0  0  0  # atno 7974 bound_to 7965
  155.6751  140.0738  157.2505 H   0  0  0  0  0  0  0  0  0  0  0  0  # atno 8008 bound_to 7997
  154.4116  140.1692  156.1973 H   0  0  0  0  0  0  0  0  0  0  0  0  # atno 8009 bound_to 7997
  155.9583  140.3372  155.6471 H   0  0  0  0  0  0  0  0  0  0  0  0  # atno 8010 bound_to 7997
  140.0242  143.5313  152.2206 H   0  0  0  0  0  0  0  0  0  0  0  0  # atno 10167 bound_to 10162
  156.1127  130.4173  150.0593 H   0  0  0  0  0  0  0  0  0  0  0  0  # atno 10718 bound_to 10713
  154.1734  135.6455  153.5015 H   0  0  0  0  0  0  0  0  0  0  0  0  # atno 10763 bound_to 10752
  153.0078  135.5389  154.6589 H   0  0  0  0  0  0  0  0  0  0  0  0  # atno 10764 bound_to 10752
  154.5934  135.2936  155.0584 H   0  0  0  0  0  0  0  0  0  0  0  0  # atno 10765 bound_to 10752
  140.9017  134.1681  157.4455 H   0  0  0  0  0  0  0  0  0  0  0  0  # atno 11005 bound_to 11000
  146.0217  139.3257  143.0809 LP  0  0  0  0  0  0  0  0  0  0  0  0  # atno 17320 bound_to 7965
  145.8560  140.9502  143.0725 LP  0  0  0  0  0  0  0  0  0  0  0  0  # atno 17321 bound_to 7965
  139.6119  144.7610  151.2933 LP  0  0  0  0  0  0  0  0  0  0  0  0  # atno 17342 bound_to 10162
  140.7329  143.6809  150.8002 LP  0  0  0  0  0  0  0  0  0  0  0  0  # atno 17343 bound_to 10162
  156.8552  130.9473  151.3622 LP  0  0  0  0  0  0  0  0  0  0  0  0  # atno 17370 bound_to 10713
  157.6309  130.8728  149.9271 LP  0  0  0  0  0  0  0  0  0  0  0  0  # atno 17371 bound_to 10713
  139.8743  134.9901  156.5486 LP  0  0  0  0  0  0  0  0  0  0  0  0  # atno 17394 bound_to 11000
  140.8221  133.8345  155.8905 LP  0  0  0  0  0  0  0  0  0  0  0  0  # atno 17395 bound_to 11000

$$$$
