AV-unprocessed.smi:171|AV-procd|sdf|1419|dock1
  -GOLD-   2262019183D 1   1.00000     0.00000
 Structure written by MMmdl.
 56 59  0  0  0  0  0  0  0  0  1 V2000
  152.9317  138.8347  154.4620 C   0  0  0  0  0  0  0  0  0  0  0  0
  151.5852  138.6175  155.1731 C   0  0  0  0  0  0  0  0  0  0  0  0
  151.4897  137.1837  155.7160 C   0  0  0  0  0  0  0  0  0  0  0  0
  150.3740  138.9353  154.2646 C   0  0  0  0  0  0  0  0  0  0  0  0
  148.9842  138.6598  154.8894 C   0  0  1  0  0  0  0  0  0  0  0  0
  148.7005  139.6647  156.0289 C   0  0  0  0  0  0  0  0  0  0  0  0
  149.3530  139.6016  157.0687 O   0  0  0  0  0  0  0  0  0  0  0  0
  147.7401  140.5924  155.8633 N   0  0  0  0  0  0  0  0  0  0  0  0
  146.8918  140.7446  154.6817 C   0  0  0  0  0  0  0  0  0  0  0  0
  147.4493  140.0082  153.4520 C   0  0  0  0  0  0  0  0  0  0  0  0
  147.9518  138.6946  153.8423 N   0  0  0  0  0  0  0  0  0  0  0  0
  147.0414  137.6910  153.7803 C   0  0  0  0  0  0  0  0  0  0  0  0
  146.6702  137.0315  154.9096 N   0  0  0  0  0  0  0  0  0  0  0  0
  145.7648  136.0506  154.8485 C   0  0  0  0  0  0  0  0  0  0  0  0
  145.1149  135.5793  153.7820 N   0  0  0  0  0  0  0  0  0  0  0  0
  145.4835  136.2399  152.6470 C   0  0  0  0  0  0  0  0  0  0  0  0
  146.4312  137.2973  152.5582 C   0  0  0  0  0  0  0  0  0  0  0  0
  146.5563  137.7148  151.2388 N   0  0  0  0  0  0  0  0  0  0  0  0
  145.7237  136.9516  150.5851 C   0  0  0  0  0  0  0  0  0  0  0  0
  145.0320  136.0425  151.3539 N   0  0  0  0  0  0  0  0  0  0  0  0
  144.0447  135.0809  150.8898 C   0  0  0  0  0  0  0  0  0  0  0  0
  144.6489  133.6988  150.5465 C   0  0  1  0  0  0  0  0  0  0  0  0
  145.8607  133.8982  149.8350 O   0  0  0  0  0  0  0  0  0  0  0  0
  144.9514  132.8357  151.7634 C   0  0  0  0  0  0  0  0  0  0  0  0
  144.9074  131.4274  151.1858 C   0  0  0  0  0  0  0  0  0  0  0  0
  143.8419  131.4683  150.2471 O   0  0  0  0  0  0  0  0  0  0  0  0
  143.6790  132.7956  149.7483 C   0  0  2  0  0  0  0  0  0  0  0  0
  143.8175  132.8200  148.2172 C   0  0  0  0  0  0  0  0  0  0  0  0
  153.0018  138.2358  153.5533 H   0  0  0  0  0  0  0  0  0  0  0  0
  153.7649  138.5570  155.1081 H   0  0  0  0  0  0  0  0  0  0  0  0
  153.0774  139.8794  154.1880 H   0  0  0  0  0  0  0  0  0  0  0  0
  151.5569  139.2823  156.0373 H   0  0  0  0  0  0  0  0  0  0  0  0
  151.5139  136.4514  154.9083 H   0  0  0  0  0  0  0  0  0  0  0  0
  150.5648  137.0342  156.2737 H   0  0  0  0  0  0  0  0  0  0  0  0
  152.3173  136.9619  156.3906 H   0  0  0  0  0  0  0  0  0  0  0  0
  150.4304  139.9829  153.9642 H   0  0  0  0  0  0  0  0  0  0  0  0
  150.4710  138.3628  153.3409 H   0  0  0  0  0  0  0  0  0  0  0  0
  149.0263  137.6741  155.3537 H   0  0  0  0  0  0  0  0  0  0  0  0
  147.5775  141.2368  156.6235 H   0  0  0  0  0  0  0  0  0  0  0  0
  145.9081  140.3452  154.9314 H   0  0  0  0  0  0  0  0  0  0  0  0
  146.7552  141.8038  154.4631 H   0  0  0  0  0  0  0  0  0  0  0  0
  146.6879  139.9484  152.6735 H   0  0  0  0  0  0  0  0  0  0  0  0
  148.2737  140.5775  153.0215 H   0  0  0  0  0  0  0  0  0  0  0  0
  145.5264  135.5759  155.7888 H   0  0  0  0  0  0  0  0  0  0  0  0
  145.5867  137.0347  149.5167 H   0  0  0  0  0  0  0  0  0  0  0  0
  143.2854  134.9794  151.6665 H   0  0  0  0  0  0  0  0  0  0  0  0
  143.5360  135.4982  150.0198 H   0  0  0  0  0  0  0  0  0  0  0  0
  145.6775  134.4266  149.0731 H   0  0  0  0  0  0  0  0  0  0  0  0
  145.9006  133.0720  152.2462 H   0  0  0  0  0  0  0  0  0  0  0  0
  144.1610  132.9418  152.5080 H   0  0  0  0  0  0  0  0  0  0  0  0
  145.8361  131.1965  150.6621 H   0  0  0  0  0  0  0  0  0  0  0  0
  144.7441  130.6631  151.9456 H   0  0  0  0  0  0  0  0  0  0  0  0
  142.6543  133.0733  149.9984 H   0  0  0  0  0  0  0  0  0  0  0  0
  143.7049  133.8326  147.8288 H   0  0  0  0  0  0  0  0  0  0  0  0
  143.0513  132.1995  147.7520 H   0  0  0  0  0  0  0  0  0  0  0  0
  144.7865  132.4380  147.8940 H   0  0  0  0  0  0  0  0  0  0  0  0
  1  2  1  0  0  0  0
  1 29  1  0  0  0  0
  1 30  1  0  0  0  0
  1 31  1  0  0  0  0
  2  3  1  0  0  0  0
  2  4  1  0  0  0  0
  2 32  1  0  0  0  0
  3 33  1  0  0  0  0
  3 34  1  0  0  0  0
  3 35  1  0  0  0  0
  4  5  1  0  0  0  0
  4 36  1  0  0  0  0
  4 37  1  0  0  0  0
  5 11  1  0  0  0  0
  5  6  1  0  0  0  0
  5 38  1  0  0  0  0
  6  7  2  0  0  0  0
  6  8  1  0  0  0  0
  8  9  1  0  0  0  0
  8 39  1  0  0  0  0
  9 10  1  0  0  0  0
  9 40  1  0  0  0  0
  9 41  1  0  0  0  0
 10 11  1  0  0  0  0
 10 42  1  0  0  0  0
 10 43  1  0  0  0  0
 11 12  1  0  0  0  0
 12 17  1  0  0  0  0
 12 13  2  0  0  0  0
 13 14  1  0  0  0  0
 14 15  2  0  0  0  0
 14 44  1  0  0  0  0
 15 16  1  0  0  0  0
 16 20  1  0  0  0  0
 16 17  2  0  0  0  0
 17 18  1  0  0  0  0
 18 19  2  0  0  0  0
 19 20  1  0  0  0  0
 19 45  1  0  0  0  0
 20 21  1  0  0  0  0
 21 22  1  0  0  0  0
 21 46  1  0  0  0  0
 21 47  1  0  0  0  0
 22 27  1  0  0  0  0
 22 23  1  0  0  0  0
 22 24  1  0  0  0  0
 23 48  1  0  0  0  0
 24 25  1  0  0  0  0
 24 49  1  0  0  0  0
 24 50  1  0  0  0  0
 25 26  1  0  0  0  0
 25 51  1  0  0  0  0
 25 52  1  0  0  0  0
 26 27  1  0  0  0  0
 27 28  1  0  0  0  0
 27 53  1  0  0  0  0
 28 54  1  0  0  0  0
 28 55  1  0  0  0  0
 28 56  1  0  0  0  0
M  END
> <s_m_source_file>
AV-unprocessed.smi

> <i_m_source_file_index>
171

> <i_lp_mmshare_version>
43012

> <i_f3d_flags>
0

> <s_epik_input>
W0NIM11bQ0hdKFtDSDNdKVtDSDJdW0NAQEhdMUMoPU8pW05IXVtDSDJdW0NIMl1OMWMobltjSF1uMiljKGMyMyluW2NIXW4zW0NIMl1bQ0BAXTQoW09IXSlbQ0gyXVtDSDJdT1tDQEhdNFtDSDNd

> <s_epik_cmdline>
J2VwaWtfcHl0aG9uJywgJy1waCcsICc3LjAnLCAnLXRuJywgJzgnLCAnLW1hJywgJzIwMCcsICctbWV0YWxfYmluZGluZycsICctaW1hZScsICc8aW5maWxlLm1hZT4nLCAnLW9tYWUnLCAnPG91dGZpbGUubWFlPic=

> <r_lp_tautomer_probability>
1

> <r_epik_Ionization_Penalty>
0.000670584

> <r_epik_Ionization_Penalty_Charging>
0

> <r_epik_Ionization_Penalty_Neutral>
0.000670584

> <r_epik_State_Penalty>
0.000304767

> <r_epik_Charging_Adjusted_Penalty>
0.000304767

> <i_epik_Tot_Q>
0

> <i_epik_Tot_abs_Q>
0

> <r_epik_Metal_State_Penalty>
-0

> <b_epik_Metal_Only>
0

> <s_lp_Force_Field>
OPLS_2005

> <r_lp_Energy>
42.7998

> <b_lp_Chiralities_Consistent>
1

> <s_lp_Variant>
AV-unprocessed.smi:171-6

> <Gold.Version>
5.8.1

> <Gold.Id.Protein>
6NUR|6NUR_protein|mol2

> <Gold.PLP.Fitness>
41.9786

> <Gold.PLP.PLP>
-34.6968

> <Gold.PLP.part.hbond>
-3.1649

> <Gold.PLP.part.metal>
0.0000

> <Gold.PLP.part.buried>
6.1003

> <Gold.PLP.part.nonpolar>
-39.9393

> <Gold.PLP.part.repulsive>
2.8247

> <Gold.PLP.ligand.clash>
0.0000

> <Gold.PLP.ligand.torsion>
1.4167

> <Gold.PLP.Chemscore.Hbond>
2.6739

> <Gold.PLP.Chemscore.CHOScore>
0.5440

> <Gold.PLP.Chemscore.Metal>
0.0000

> <Gold.Chemscore.Hbonds>
donor molecule, donor type, donor heavy atom, donor atom, acceptor molecule, acceptor atom, score
      L1  H    23    48       P1  7921  0.90
      P1  H  7954  7966       L1    18  0.83
      P1  H 10785 10796       L1    26  0.62
      L1  C    19    45       P1 10171  0.25

> <Gold.PLP.Chemscore.Internal.Correction>
0.4616

> <Gold.Rescore>
     Score         DG    S(hbond)    S(metal)    S(lipo)     H(rot)  DE(clash)    DE(int)     intcor
      9.78     -15.85       1.20        0.00     104.43       2.29       4.61       1.46       ----

> <Gold.Chemscore.Fitness>
9.7809

> <Gold.Chemscore.DG>
-15.8521

> <Gold.Chemscore.ZeroCoef>
-5.4800

> <Gold.Chemscore.Hbond>
1.2047

> <Gold.Chemscore.Metal>
0.0000

> <Gold.Chemscore.Lipo>
104.4284

> <Gold.Chemscore.Internal_Hbond>
0.0000

> <Gold.Chemscore.DEClash>
4.6138

> <Gold.Chemscore.DEInternal>
1.4574

> <Gold.Chemscore.Rot>
2.2928

> <Gold.Chemscore.Internal.Correction>
   9.000000E+99

> <Gold.Chemscore.Hbonds>
donor molecule, donor type, donor heavy atom, donor atom, acceptor molecule, acceptor atom, score
      L1  H    23    48       P1  7921  0.75
      P1  H  7954  7966       L1    18  0.28
      P1  H 10785 10796       L1    26  0.41

> <Gold.Chemscore.Hbond.Weighted>
-4.0236

> <Gold.Chemscore.Metal.Weighted>
-0.0000

> <Gold.Chemscore.Lipo.Weighted>
-12.2181

> <Gold.Chemscore.Internal_Hbond.Weighted>
0.0000

> <Gold.Chemscore.DEClash.Weighted>
4.6138

> <Gold.Chemscore.DEInternal.Weighted>
1.4574

> <Gold.Chemscore.Rot.Weighted>
5.8696

> <Gold.Chemscore.Internal.Correction.Weighted>
   9.000000E+99

> <Gold.Protein.RotatedTorsions>
[ 6907 6896 6895 6894 ] final   83.72 input  -60.11 | X-H torsion
[ 7974 7965 7964 7962 ] final  -79.85 input  175.53 | X-H torsion
[ 8008 7997 7996 7995 ] final  -86.84 input   59.86 | X-H torsion
[ 10167 10162 10161 10158 ] final -174.29 input  -65.29 | X-H torsion
[ 10718 10713 10712 10709 ] final  153.75 input   66.30 | X-H torsion
[ 10763 10752 10751 10750 ] final -117.25 input  -60.55 | X-H torsion
[ 11005 11000 10999 10996 ] final   52.97 input  -57.11 | X-H torsion

> <Gold.Protein.ActiveResidues>
 VAL166  LYS551  ARG553  GLY616  TRP617  ASP618  TYR619  PRO620  LYS621  CYS622 
 ASP623  PHE694  ASN695  SER759  ASP760  ASP761  ALA762  ILE779  LEU786  VAL792 
 PHE793  MET794  SER795  GLU796  ALA797  LYS798  CYS799  TRP800  GLU811  SER814 

> <Gold.Protein.RotatedAtoms>
  152.5334  134.2852  159.9022 H   0  0  0  0  0  0  0  0  0  0  0  0  # atno 6907 bound_to 6896
  151.2806  133.4205  159.2634 H   0  0  0  0  0  0  0  0  0  0  0  0  # atno 6908 bound_to 6896
  151.0287  134.9539  159.8156 H   0  0  0  0  0  0  0  0  0  0  0  0  # atno 6909 bound_to 6896
  145.5678  140.9471  143.1412 H   0  0  0  0  0  0  0  0  0  0  0  0  # atno 7974 bound_to 7965
  154.6564  140.0573  157.0014 H   0  0  0  0  0  0  0  0  0  0  0  0  # atno 8008 bound_to 7997
  155.1294  140.3255  155.4459 H   0  0  0  0  0  0  0  0  0  0  0  0  # atno 8009 bound_to 7997
  156.2599  140.1983  156.6413 H   0  0  0  0  0  0  0  0  0  0  0  0  # atno 8010 bound_to 7997
  139.5642  144.1797  152.1286 H   0  0  0  0  0  0  0  0  0  0  0  0  # atno 10167 bound_to 10162
  157.2407  131.0758  151.1794 H   0  0  0  0  0  0  0  0  0  0  0  0  # atno 10718 bound_to 10713
  154.8548  135.4316  154.1951 H   0  0  0  0  0  0  0  0  0  0  0  0  # atno 10763 bound_to 10752
  153.3010  135.6969  153.7209 H   0  0  0  0  0  0  0  0  0  0  0  0  # atno 10764 bound_to 10752
  153.6339  135.3480  155.3024 H   0  0  0  0  0  0  0  0  0  0  0  0  # atno 10765 bound_to 10752
  140.0805  134.5344  155.8951 H   0  0  0  0  0  0  0  0  0  0  0  0  # atno 11005 bound_to 11000
  144.7452  139.7339  143.7295 LP  0  0  0  0  0  0  0  0  0  0  0  0  # atno 17320 bound_to 7965
  146.1806  139.4996  142.9869 LP  0  0  0  0  0  0  0  0  0  0  0  0  # atno 17321 bound_to 7965
  140.1316  144.5283  150.6799 LP  0  0  0  0  0  0  0  0  0  0  0  0  # atno 17342 bound_to 10162
  140.6924  143.2383  151.5095 LP  0  0  0  0  0  0  0  0  0  0  0  0  # atno 17343 bound_to 10162
  157.3382  130.7020  149.6365 LP  0  0  0  0  0  0  0  0  0  0  0  0  # atno 17370 bound_to 10713
  155.9670  130.4287  150.4802 LP  0  0  0  0  0  0  0  0  0  0  0  0  # atno 17371 bound_to 10713
  141.2045  133.6640  156.6125 LP  0  0  0  0  0  0  0  0  0  0  0  0  # atno 17394 bound_to 11000
  140.3494  134.7781  157.4456 LP  0  0  0  0  0  0  0  0  0  0  0  0  # atno 17395 bound_to 11000

$$$$
