AV-unprocessed.smi:1485|AV-procd|sdf|6001|dock2
  -GOLD-   22720 6 93D 1   1.00000     0.00000
 Structure written by MMmdl.
 44 45  0  0  0  0  0  0  0  0  1 V2000
  152.1309  144.3656  158.8442 C   0  0  0  0  0  0  0  0  0  0  0  0
  151.3533  143.4644  158.0770 O   0  0  0  0  0  0  0  0  0  0  0  0
  151.5660  142.1101  158.4426 C   0  0  0  0  0  0  0  0  0  0  0  0
  150.9398  141.1914  157.3814 C   0  0  0  0  0  0  0  0  0  0  0  0
  150.8805  139.7980  157.8371 N   0  0  0  0  0  0  0  0  0  0  0  0
  149.5948  139.2933  157.9248 N   0  0  0  0  0  0  0  0  0  0  0  0
  149.3966  138.0791  158.3240 C   0  0  0  0  0  0  0  0  0  0  0  0
  148.0258  137.5152  158.4610 C   0  0  0  0  0  0  0  0  0  0  0  0
  147.0913  137.8912  157.7517 O   0  0  0  0  0  0  0  0  0  0  0  0
  147.8942  136.5693  159.4077 N   0  0  0  0  0  0  0  0  0  0  0  0
  146.6691  135.8477  159.7431 C   0  0  2  0  0  0  0  0  0  0  0  0
  146.2959  136.0509  161.2256 C   0  0  0  0  0  0  0  0  0  0  0  0
  147.2835  135.3462  162.1720 C   0  0  0  0  0  0  0  0  0  0  0  0
  147.4224  133.8542  161.8289 C   0  0  0  0  0  0  0  0  0  0  0  0
  147.8321  133.6455  160.3585 C   0  0  1  0  0  0  0  0  0  0  0  0
  147.9662  132.1549  160.0178 C   0  0  0  0  0  0  0  0  0  0  0  0
  146.8333  134.3501  159.4165 C   0  0  0  0  0  0  0  0  0  0  0  0
  150.5149  137.2169  158.6661 C   0  0  0  0  0  0  0  0  0  0  0  0
  151.7636  137.7285  158.5937 C   0  0  0  0  0  0  0  0  0  0  0  0
  152.0125  139.1093  158.1745 C   0  0  0  0  0  0  0  0  0  0  0  0
  153.1371  139.6074  158.1332 O   0  0  0  0  0  0  0  0  0  0  0  0
  151.9377  145.3864  158.5149 H   0  0  0  0  0  0  0  0  0  0  0  0
  153.1969  144.1690  158.7229 H   0  0  0  0  0  0  0  0  0  0  0  0
  151.8801  144.2996  159.9034 H   0  0  0  0  0  0  0  0  0  0  0  0
  152.6378  141.9169  158.5034 H   0  0  0  0  0  0  0  0  0  0  0  0
  151.1424  141.9050  159.4271 H   0  0  0  0  0  0  0  0  0  0  0  0
  149.9389  141.5470  157.1301 H   0  0  0  0  0  0  0  0  0  0  0  0
  151.5090  141.2650  156.4532 H   0  0  0  0  0  0  0  0  0  0  0  0
  148.7186  136.3246  159.9374 H   0  0  0  0  0  0  0  0  0  0  0  0
  145.8578  136.2344  159.1242 H   0  0  0  0  0  0  0  0  0  0  0  0
  146.2438  137.1143  161.4629 H   0  0  0  0  0  0  0  0  0  0  0  0
  145.2948  135.6540  161.3980 H   0  0  0  0  0  0  0  0  0  0  0  0
  148.2602  135.8282  162.1125 H   0  0  0  0  0  0  0  0  0  0  0  0
  146.9495  135.4581  163.2038 H   0  0  0  0  0  0  0  0  0  0  0  0
  148.1588  133.3956  162.4897 H   0  0  0  0  0  0  0  0  0  0  0  0
  146.4761  133.3476  162.0232 H   0  0  0  0  0  0  0  0  0  0  0  0
  148.8143  134.0980  160.2156 H   0  0  0  0  0  0  0  0  0  0  0  0
  147.0161  131.6333  160.1366 H   0  0  0  0  0  0  0  0  0  0  0  0
  148.6966  131.6685  160.6646 H   0  0  0  0  0  0  0  0  0  0  0  0
  148.2960  132.0169  158.9876 H   0  0  0  0  0  0  0  0  0  0  0  0
  145.8605  133.8624  159.4961 H   0  0  0  0  0  0  0  0  0  0  0  0
  147.1468  134.2294  158.3786 H   0  0  0  0  0  0  0  0  0  0  0  0
  150.3592  136.1946  158.9783 H   0  0  0  0  0  0  0  0  0  0  0  0
  152.6041  137.1006  158.8505 H   0  0  0  0  0  0  0  0  0  0  0  0
  1  2  1  0  0  0  0
  1 22  1  0  0  0  0
  1 23  1  0  0  0  0
  1 24  1  0  0  0  0
  2  3  1  0  0  0  0
  3  4  1  0  0  0  0
  3 25  1  0  0  0  0
  3 26  1  0  0  0  0
  4  5  1  0  0  0  0
  4 27  1  0  0  0  0
  4 28  1  0  0  0  0
  5 20  1  0  0  0  0
  5  6  1  0  0  0  0
  6  7  2  0  0  0  0
  7  8  1  0  0  0  0
  7 18  1  0  0  0  0
  8  9  2  0  0  0  0
  8 10  1  0  0  0  0
 10 11  1  0  0  0  0
 10 29  1  0  0  0  0
 11 17  1  0  0  0  0
 11 12  1  0  0  0  0
 11 30  1  0  0  0  0
 12 13  1  0  0  0  0
 12 31  1  0  0  0  0
 12 32  1  0  0  0  0
 13 14  1  0  0  0  0
 13 33  1  0  0  0  0
 13 34  1  0  0  0  0
 14 15  1  0  0  0  0
 14 35  1  0  0  0  0
 14 36  1  0  0  0  0
 15 16  1  0  0  0  0
 15 17  1  0  0  0  0
 15 37  1  0  0  0  0
 16 38  1  0  0  0  0
 16 39  1  0  0  0  0
 16 40  1  0  0  0  0
 17 41  1  0  0  0  0
 17 42  1  0  0  0  0
 18 19  2  0  0  0  0
 18 43  1  0  0  0  0
 19 20  1  0  0  0  0
 19 44  1  0  0  0  0
 20 21  2  0  0  0  0
M  END
> <s_m_source_file>
AV-unprocessed.smi

> <i_m_source_file_index>
1485

> <i_lp_mmshare_version>
43012

> <i_f3d_flags>
0

> <s_epik_input>
W0NIM11PW0NIMl1bQ0gyXW4xbmMoW2NIXVtjSF1jMT1PKUMoPU8pW05IXVtDQEBIXTJbQ0gyXVtDSDJdW0NIMl1bQ0BASF0oW0NIM10pW0NIMl0y

> <s_epik_cmdline>
J2VwaWtfcHl0aG9uJywgJy1waCcsICc3LjAnLCAnLXRuJywgJzgnLCAnLW1hJywgJzIwMCcsICctbWV0YWxfYmluZGluZycsICctaW1hZScsICc8aW5maWxlLm1hZT4nLCAnLW9tYWUnLCAnPG91dGZpbGUubWFlPic=

> <r_lp_tautomer_probability>
1

> <r_epik_Ionization_Penalty>
6.4688e-07

> <r_epik_Ionization_Penalty_Charging>
6.63567e-09

> <r_epik_Ionization_Penalty_Neutral>
6.40245e-07

> <r_epik_State_Penalty>
-0

> <r_epik_Charging_Adjusted_Penalty>
6.63567e-09

> <i_epik_Tot_Q>
0

> <i_epik_Tot_abs_Q>
0

> <r_epik_Metal_State_Penalty>
-0

> <b_epik_Metal_Only>
0

> <s_lp_Force_Field>
OPLS_2005

> <r_lp_Energy>
29.3151

> <b_lp_Chiralities_Consistent>
1

> <s_lp_Variant>
AV-unprocessed.smi:1485-1

> <Gold.Version>
5.8.1

> <Gold.Id.Protein>
6NUR|6NUR_protein|mol2

> <Gold.PLP.Fitness>
37.4037

> <Gold.PLP.PLP>
-35.2799

> <Gold.PLP.part.hbond>
-1.0000

> <Gold.PLP.part.metal>
0.0000

> <Gold.PLP.part.buried>
-6.1525

> <Gold.PLP.part.nonpolar>
-29.2519

> <Gold.PLP.part.repulsive>
0.3209

> <Gold.PLP.ligand.clash>
0.0000

> <Gold.PLP.ligand.torsion>
0.4518

> <Gold.PLP.Chemscore.Hbond>
1.0000

> <Gold.PLP.Chemscore.CHOScore>
0.0000

> <Gold.PLP.Chemscore.Metal>
0.0000

> <Gold.Chemscore.Hbonds>
donor molecule, donor type, donor heavy atom, donor atom, acceptor molecule, acceptor atom, score
      P1  H  7997  8008       L1    21  1.00

> <Gold.PLP.Chemscore.Internal.Correction>
0.0274

> <Gold.Rescore>
     Score         DG    S(hbond)    S(metal)    S(lipo)     H(rot)  DE(clash)    DE(int)     intcor
     14.91     -15.63       0.99        0.00      92.32       1.55       0.01       0.71       ----

> <Gold.Chemscore.Fitness>
14.9138

> <Gold.Chemscore.DG>
-15.6349

> <Gold.Chemscore.ZeroCoef>
-5.4800

> <Gold.Chemscore.Hbond>
0.9926

> <Gold.Chemscore.Metal>
0.0000

> <Gold.Chemscore.Lipo>
92.3247

> <Gold.Chemscore.Internal_Hbond>
0.0000

> <Gold.Chemscore.DEClash>
0.0073

> <Gold.Chemscore.DEInternal>
0.7137

> <Gold.Chemscore.Rot>
1.5478

> <Gold.Chemscore.Internal.Correction>
   9.000000E+99

> <Gold.Chemscore.Hbonds>
donor molecule, donor type, donor heavy atom, donor atom, acceptor molecule, acceptor atom, score
      P1  H  7997  8008       L1    21  0.96

> <Gold.Chemscore.Hbond.Weighted>
-3.3151

> <Gold.Chemscore.Metal.Weighted>
-0.0000

> <Gold.Chemscore.Lipo.Weighted>
-10.8020

> <Gold.Chemscore.Internal_Hbond.Weighted>
0.0000

> <Gold.Chemscore.DEClash.Weighted>
0.0073

> <Gold.Chemscore.DEInternal.Weighted>
0.7137

> <Gold.Chemscore.Rot.Weighted>
3.9623

> <Gold.Chemscore.Internal.Correction.Weighted>
   9.000000E+99

> <Gold.Protein.RotatedTorsions>
[ 6907 6896 6895 6894 ] final   86.57 input  -60.11 | X-H torsion
[ 7974 7965 7964 7962 ] final -138.38 input  175.53 | X-H torsion
[ 8008 7997 7996 7995 ] final  -98.94 input   59.86 | X-H torsion
[ 10167 10162 10161 10158 ] final -115.16 input  -65.29 | X-H torsion
[ 10718 10713 10712 10709 ] final -118.90 input   66.30 | X-H torsion
[ 10763 10752 10751 10750 ] final  -96.85 input  -60.55 | X-H torsion
[ 11005 11000 10999 10996 ] final   38.60 input  -57.11 | X-H torsion

> <Gold.Protein.ActiveResidues>
 VAL166  LYS551  ARG553  GLY616  TRP617  ASP618  TYR619  PRO620  LYS621  CYS622 
 ASP623  PHE694  ASN695  SER759  ASP760  ASP761  ALA762  ILE779  LEU786  VAL792 
 PHE793  MET794  SER795  GLU796  ALA797  LYS798  CYS799  TRP800  GLU811  SER814 

> <Gold.Protein.RotatedAtoms>
  152.5396  134.2411  159.8862 H   0  0  0  0  0  0  0  0  0  0  0  0  # atno 6907 bound_to 6896
  151.2379  133.4408  159.2614 H   0  0  0  0  0  0  0  0  0  0  0  0  # atno 6908 bound_to 6896
  151.0654  134.9778  159.8338 H   0  0  0  0  0  0  0  0  0  0  0  0  # atno 6909 bound_to 6896
  144.8763  140.6442  143.5234 H   0  0  0  0  0  0  0  0  0  0  0  0  # atno 7974 bound_to 7965
  154.8081  140.0451  157.1322 H   0  0  0  0  0  0  0  0  0  0  0  0  # atno 8008 bound_to 7997
  154.9401  140.3051  155.5105 H   0  0  0  0  0  0  0  0  0  0  0  0  # atno 8009 bound_to 7997
  156.2969  140.2307  156.4469 H   0  0  0  0  0  0  0  0  0  0  0  0  # atno 8010 bound_to 7997
  140.0931  143.4681  152.1857 H   0  0  0  0  0  0  0  0  0  0  0  0  # atno 10167 bound_to 10162
  156.1141  130.6272  150.9350 H   0  0  0  0  0  0  0  0  0  0  0  0  # atno 10718 bound_to 10713
  154.7276  135.5068  153.8912 H   0  0  0  0  0  0  0  0  0  0  0  0  # atno 10763 bound_to 10752
  153.0920  135.6662  153.9845 H   0  0  0  0  0  0  0  0  0  0  0  0  # atno 10764 bound_to 10752
  153.9653  135.3044  155.3410 H   0  0  0  0  0  0  0  0  0  0  0  0  # atno 10765 bound_to 10752
  140.2111  134.3754  155.8049 H   0  0  0  0  0  0  0  0  0  0  0  0  # atno 11005 bound_to 11000
  145.4036  139.1593  143.4164 LP  0  0  0  0  0  0  0  0  0  0  0  0  # atno 17320 bound_to 7965
  146.2965  140.4135  142.8720 LP  0  0  0  0  0  0  0  0  0  0  0  0  # atno 17321 bound_to 7965
  139.5713  144.7464  151.3883 LP  0  0  0  0  0  0  0  0  0  0  0  0  # atno 17342 bound_to 10162
  140.7018  143.7613  150.7415 LP  0  0  0  0  0  0  0  0  0  0  0  0  # atno 17343 bound_to 10162
  157.6324  131.0919  150.8416 LP  0  0  0  0  0  0  0  0  0  0  0  0  # atno 17370 bound_to 10713
  156.8522  130.5084  149.5311 LP  0  0  0  0  0  0  0  0  0  0  0  0  # atno 17371 bound_to 10713
  141.2226  133.7143  156.8419 LP  0  0  0  0  0  0  0  0  0  0  0  0  # atno 17394 bound_to 11000
  140.1950  134.8938  157.3104 LP  0  0  0  0  0  0  0  0  0  0  0  0  # atno 17395 bound_to 11000

$$$$
