AV-unprocessed.smi:3212|AV-procd|sdf|12278|dock3
  -GOLD-   2272018113D 1   1.00000     0.00000
 Structure written by MMmdl.
 40 40  0  0  0  0  0  0  0  0  2 V2000
  146.5383  139.0520  151.0372 C   0  0  0  0  0  0  0  0  0  0  0  0
  146.7423  138.8569  152.5472 C   0  0  2  0  0  0  0  0  0  0  0  0
  148.1827  138.6679  152.8344 N   0  3  0  0  0  0  0  0  0  0  0  0
  148.6064  139.0185  154.2083 C   0  0  0  0  0  0  0  0  0  0  0  0
  148.9199  140.5177  154.3377 C   0  0  0  0  0  0  0  0  0  0  0  0
  149.8950  140.7892  155.3790 N   0  0  0  0  0  0  0  0  0  0  0  0
  149.7678  141.6136  156.4773 C   0  0  0  0  0  0  0  0  0  0  0  0
  150.9442  141.5544  157.1680 C   0  0  0  0  0  0  0  0  0  0  0  0
  151.7398  140.6547  156.4054 C   0  0  0  0  0  0  0  0  0  0  0  0
  151.1093  140.1991  155.3345 N   0  0  0  0  0  0  0  0  0  0  0  0
  145.8962  137.6761  153.0436 C   0  0  0  0  0  0  0  0  0  0  0  0
  146.4439  136.6804  153.5175 O   0  0  0  0  0  0  0  0  0  0  0  0
  144.5641  137.8087  152.9124 N   0  0  0  0  0  0  0  0  0  0  0  0
  143.5103  136.8596  153.2909 C   0  0  0  0  0  0  0  0  0  0  0  0
  142.1660  137.5775  153.0776 C   0  0  0  0  0  0  0  0  0  0  0  0
  143.6381  136.4660  154.7776 C   0  0  0  0  0  0  0  0  0  0  0  0
  143.5578  135.6066  152.3915 C   0  0  0  0  0  0  0  0  0  0  0  0
  145.4883  139.2222  150.7954 H   0  0  0  0  0  0  0  0  0  0  0  0
  146.8727  138.1810  150.4717 H   0  0  0  0  0  0  0  0  0  0  0  0
  147.0984  139.9152  150.6763 H   0  0  0  0  0  0  0  0  0  0  0  0
  146.4122  139.7665  153.0522 H   0  0  0  0  0  0  0  0  0  0  0  0
  148.4251  137.7051  152.6483 H   0  0  0  0  0  0  0  0  0  0  0  0
  147.8278  138.7394  154.9196 H   0  0  0  0  0  0  0  0  0  0  0  0
  149.4948  138.4415  154.4670 H   0  0  0  0  0  0  0  0  0  0  0  0
  149.3203  140.8914  153.3944 H   0  0  0  0  0  0  0  0  0  0  0  0
  148.0127  141.0897  154.5382 H   0  0  0  0  0  0  0  0  0  0  0  0
  148.8619  142.1682  156.6740 H   0  0  0  0  0  0  0  0  0  0  0  0
  151.1978  142.0740  158.0802 H   0  0  0  0  0  0  0  0  0  0  0  0
  152.7497  140.3226  156.5959 H   0  0  0  0  0  0  0  0  0  0  0  0
  144.2365  138.6693  152.4978 H   0  0  0  0  0  0  0  0  0  0  0  0
  141.3255  136.9337  153.3396 H   0  0  0  0  0  0  0  0  0  0  0  0
  142.0353  137.8781  152.0372 H   0  0  0  0  0  0  0  0  0  0  0  0
  142.0923  138.4763  153.6912 H   0  0  0  0  0  0  0  0  0  0  0  0
  143.6487  137.3454  155.4227 H   0  0  0  0  0  0  0  0  0  0  0  0
  144.5477  135.8999  154.9766 H   0  0  0  0  0  0  0  0  0  0  0  0
  142.8005  135.8415  155.0904 H   0  0  0  0  0  0  0  0  0  0  0  0
  142.7208  134.9405  152.6036 H   0  0  0  0  0  0  0  0  0  0  0  0
  144.4698  135.0283  152.5400 H   0  0  0  0  0  0  0  0  0  0  0  0
  143.5042  135.8730  151.3352 H   0  0  0  0  0  0  0  0  0  0  0  0
  148.7049  139.2567  152.2009 H   0  0  0  0  0  0  0  0  0  0  0  0
  1  2  1  0  0  0  0
  1 18  1  0  0  0  0
  1 19  1  0  0  0  0
  1 20  1  0  0  0  0
  2  3  1  0  0  0  0
  2 11  1  0  0  0  0
  2 21  1  0  0  0  0
  3  4  1  0  0  0  0
  3 22  1  0  0  0  0
  3 40  1  0  0  0  0
  4  5  1  0  0  0  0
  4 23  1  0  0  0  0
  4 24  1  0  0  0  0
  5  6  1  0  0  0  0
  5 25  1  0  0  0  0
  5 26  1  0  0  0  0
  6 10  1  0  0  0  0
  6  7  1  0  0  0  0
  7  8  2  0  0  0  0
  7 27  1  0  0  0  0
  8  9  1  0  0  0  0
  8 28  1  0  0  0  0
  9 10  2  0  0  0  0
  9 29  1  0  0  0  0
 11 12  2  0  0  0  0
 11 13  1  0  0  0  0
 13 14  1  0  0  0  0
 13 30  1  0  0  0  0
 14 15  1  0  0  0  0
 14 16  1  0  0  0  0
 14 17  1  0  0  0  0
 15 31  1  0  0  0  0
 15 32  1  0  0  0  0
 15 33  1  0  0  0  0
 16 34  1  0  0  0  0
 16 35  1  0  0  0  0
 16 36  1  0  0  0  0
 17 37  1  0  0  0  0
 17 38  1  0  0  0  0
 17 39  1  0  0  0  0
M  CHG  1   3   1
M  END
> <s_m_source_file>
AV-unprocessed.smi

> <i_m_source_file_index>
3212

> <i_lp_mmshare_version>
43012

> <i_f3d_flags>
0

> <s_epik_input>
W0NIM11DKFtDSDNdKShbQ0gzXSlbTkhdQyg9TylbQ0BIXShbQ0gzXSlbTkhdW0NIMl1bQ0gyXW4xW2NIXVtjSF1bY0hdbjE=

> <s_epik_cmdline>
J2VwaWtfcHl0aG9uJywgJy1waCcsICc3LjAnLCAnLXRuJywgJzgnLCAnLW1hJywgJzIwMCcsICctbWV0YWxfYmluZGluZycsICctaW1hZScsICc8aW5maWxlLm1hZT4nLCAnLW9tYWUnLCAnPG91dGZpbGUubWFlPic=

> <r_lp_tautomer_probability>
1

> <r_epik_Ionization_Penalty>
0.198377

> <r_epik_Ionization_Penalty_Charging>
0.198374

> <r_epik_Ionization_Penalty_Neutral>
3.0924e-06

> <r_epik_State_Penalty>
0.188176

> <r_epik_Charging_Adjusted_Penalty>
0.38655

> <i_epik_Tot_Q>
1

> <i_epik_Tot_abs_Q>
1

> <r_epik_Metal_State_Penalty>
0.188456

> <b_epik_Metal_Only>
0

> <s_lp_Force_Field>
OPLS_2005

> <r_lp_Energy>
6.00749

> <b_lp_Chiralities_Consistent>
1

> <s_lp_Variant>
AV-unprocessed.smi:3212-1

> <Gold.Version>
5.8.1

> <Gold.Id.Protein>
6NUR|6NUR_protein|mol2

> <Gold.PLP.Fitness>
45.7053

> <Gold.PLP.PLP>
-29.9854

> <Gold.PLP.part.hbond>
-4.0000

> <Gold.PLP.part.metal>
0.0000

> <Gold.PLP.part.buried>
0.3217

> <Gold.PLP.part.nonpolar>
-25.4431

> <Gold.PLP.part.repulsive>
0.6507

> <Gold.PLP.ligand.clash>
0.0000

> <Gold.PLP.ligand.torsion>
0.6570

> <Gold.PLP.Chemscore.Hbond>
4.9500

> <Gold.PLP.Chemscore.CHOScore>
0.6992

> <Gold.PLP.Chemscore.Metal>
0.0000

> <Gold.Chemscore.Hbonds>
donor molecule, donor type, donor heavy atom, donor atom, acceptor molecule, acceptor atom, score
      L1  H     3    22       P1  7948  2.00
      L1  H     3    40       P1  7957  1.00
      L1  H    13    30       P1 10175  1.00
      P1  H  7989  7998       L1    10  0.85
      L1  C     7    27       P1  8028  0.32

> <Gold.PLP.Chemscore.Internal.Correction>
0.0863

> <Gold.Rescore>
     Score         DG    S(hbond)    S(metal)    S(lipo)     H(rot)  DE(clash)    DE(int)     intcor
     16.75     -17.45       2.97        0.00      62.63       2.07       0.09       0.61       ----

> <Gold.Chemscore.Fitness>
16.7484

> <Gold.Chemscore.DG>
-17.4465

> <Gold.Chemscore.ZeroCoef>
-5.4800

> <Gold.Chemscore.Hbond>
2.9722

> <Gold.Chemscore.Metal>
0.0000

> <Gold.Chemscore.Lipo>
62.6330

> <Gold.Chemscore.Internal_Hbond>
0.0000

> <Gold.Chemscore.DEClash>
0.0874

> <Gold.Chemscore.DEInternal>
0.6107

> <Gold.Chemscore.Rot>
2.0659

> <Gold.Chemscore.Internal.Correction>
   9.000000E+99

> <Gold.Chemscore.Hbonds>
donor molecule, donor type, donor heavy atom, donor atom, acceptor molecule, acceptor atom, score
      L1  H     3    22       P1  7948  1.00
      L1  H     3    40       P1  7957  0.97
      L1  H    13    30       P1 10175  0.99
      P1  H  7989  7998       L1    10  0.13

> <Gold.Chemscore.Hbond.Weighted>
-9.9271

> <Gold.Chemscore.Metal.Weighted>
-0.0000

> <Gold.Chemscore.Lipo.Weighted>
-7.3281

> <Gold.Chemscore.Internal_Hbond.Weighted>
0.0000

> <Gold.Chemscore.DEClash.Weighted>
0.0874

> <Gold.Chemscore.DEInternal.Weighted>
0.6107

> <Gold.Chemscore.Rot.Weighted>
5.2886

> <Gold.Chemscore.Internal.Correction.Weighted>
   9.000000E+99

> <Gold.Protein.RotatedTorsions>
[ 6907 6896 6895 6894 ] final   97.09 input  -60.11 | X-H torsion
[ 7974 7965 7964 7962 ] final  -83.83 input  175.53 | X-H torsion
[ 8008 7997 7996 7995 ] final  132.55 input   59.86 | X-H torsion
[ 10167 10162 10161 10158 ] final   70.59 input  -65.29 | X-H torsion
[ 10718 10713 10712 10709 ] final   51.71 input   66.30 | X-H torsion
[ 10763 10752 10751 10750 ] final  -38.33 input  -60.55 | X-H torsion
[ 11005 11000 10999 10996 ] final -175.42 input  -57.11 | X-H torsion

> <Gold.Protein.ActiveResidues>
 VAL166  LYS551  ARG553  GLY616  TRP617  ASP618  TYR619  PRO620  LYS621  CYS622 
 ASP623  PHE694  ASN695  SER759  ASP760  ASP761  ALA762  ILE779  LEU786  VAL792 
 PHE793  MET794  SER795  GLU796  ALA797  LYS798  CYS799  TRP800  GLU811  SER814 

> <Gold.Protein.RotatedAtoms>
  152.5427  134.0786  159.8225 H   0  0  0  0  0  0  0  0  0  0  0  0  # atno 6907 bound_to 6896
  151.0891  133.5323  159.2623 H   0  0  0  0  0  0  0  0  0  0  0  0  # atno 6908 bound_to 6896
  151.2121  135.0494  159.8969 H   0  0  0  0  0  0  0  0  0  0  0  0  # atno 6909 bound_to 6896
  145.5148  140.9537  143.1687 H   0  0  0  0  0  0  0  0  0  0  0  0  # atno 7974 bound_to 7965
  156.2983  140.2543  156.3107 H   0  0  0  0  0  0  0  0  0  0  0  0  # atno 8008 bound_to 7997
  154.9329  140.0398  157.2076 H   0  0  0  0  0  0  0  0  0  0  0  0  # atno 8009 bound_to 7997
  154.8201  140.2858  155.5797 H   0  0  0  0  0  0  0  0  0  0  0  0  # atno 8010 bound_to 7997
  140.0553  144.5278  150.7333 H   0  0  0  0  0  0  0  0  0  0  0  0  # atno 10167 bound_to 10162
  157.5006  130.8435  149.8312 H   0  0  0  0  0  0  0  0  0  0  0  0  # atno 10718 bound_to 10713
  153.9111  135.6792  153.4751 H   0  0  0  0  0  0  0  0  0  0  0  0  # atno 10763 bound_to 10752
  153.1078  135.4797  154.8979 H   0  0  0  0  0  0  0  0  0  0  0  0  # atno 10764 bound_to 10752
  154.7526  135.3189  154.8484 H   0  0  0  0  0  0  0  0  0  0  0  0  # atno 10765 bound_to 10752
  140.4635  134.6233  157.4852 H   0  0  0  0  0  0  0  0  0  0  0  0  # atno 11005 bound_to 11000
  144.7708  139.6740  143.7195 LP  0  0  0  0  0  0  0  0  0  0  0  0  # atno 17320 bound_to 7965
  146.2144  139.5522  142.9660 LP  0  0  0  0  0  0  0  0  0  0  0  0  # atno 17321 bound_to 7965
  140.7197  143.2577  151.4318 LP  0  0  0  0  0  0  0  0  0  0  0  0  # atno 17342 bound_to 10162
  139.5927  144.1464  152.2107 LP  0  0  0  0  0  0  0  0  0  0  0  0  # atno 17343 bound_to 10162
  156.0227  130.3790  150.1914 LP  0  0  0  0  0  0  0  0  0  0  0  0  # atno 17370 bound_to 10713
  157.0103  130.9949  151.3367 LP  0  0  0  0  0  0  0  0  0  0  0  0  # atno 17371 bound_to 10713
  139.9930  134.6955  155.9657 LP  0  0  0  0  0  0  0  0  0  0  0  0  # atno 17394 bound_to 11000
  141.1610  133.6539  156.4320 LP  0  0  0  0  0  0  0  0  0  0  0  0  # atno 17395 bound_to 11000

$$$$
