AV-unprocessed.smi:1978|AV-procd|sdf|7999|dock7
  -GOLD-   2272010183D 1   1.00000     0.00000
 Structure written by MMmdl.
 45 46  0  0  0  0  0  0  0  0  2 V2000
  153.8548  141.9152  161.1161 C   0  0  0  0  0  0  0  0  0  0  0  0
  153.4182  141.0074  160.0178 C   0  0  0  0  0  0  0  0  0  0  0  0
  152.2977  140.9635  159.2366 C   0  0  0  0  0  0  0  0  0  0  0  0
  152.5382  139.8449  158.3954 C   0  0  0  0  0  0  0  0  0  0  0  0
  151.5892  139.4528  157.4171 N   0  0  0  0  0  0  0  0  0  0  0  0
  151.5082  138.2706  156.7837 C   0  0  0  0  0  0  0  0  0  0  0  0
  152.2701  137.3183  156.9539 O   0  0  0  0  0  0  0  0  0  0  0  0
  150.4783  138.2452  155.9252 N   0  0  0  0  0  0  0  0  0  0  0  0
  150.1278  137.1083  155.0778 C   0  0  0  0  0  0  0  0  0  0  0  0
  148.6937  136.5585  155.3380 C   0  0  1  0  0  0  0  0  0  0  0  0
  147.6708  137.7198  155.2658 C   0  0  0  0  0  0  0  0  0  0  0  0
  148.3229  135.4360  154.4057 N   0  3  2  0  0  0  0  0  0  0  0  0
  146.8729  135.0714  154.4482 C   0  0  0  0  0  0  0  0  0  0  0  0
  146.4945  134.0688  153.3454 C   0  0  0  0  0  0  0  0  0  0  0  0
  147.3542  132.8067  153.4196 C   0  0  0  0  0  0  0  0  0  0  0  0
  148.8331  133.2009  153.3743 C   0  0  0  0  0  0  0  0  0  0  0  0
  149.2004  134.2182  154.4753 C   0  0  2  0  0  0  0  0  0  0  0  0
  149.2385  133.5674  155.8765 C   0  0  0  0  0  0  0  0  0  0  0  0
  153.6991  139.2575  158.6415 N   0  0  0  0  0  0  0  0  0  0  0  0
  154.2695  139.9999  159.6824 O   0  0  0  0  0  0  0  0  0  0  0  0
  153.0730  142.6342  161.3615 H   0  0  0  0  0  0  0  0  0  0  0  0
  154.7464  142.4710  160.8257 H   0  0  0  0  0  0  0  0  0  0  0  0
  154.0873  141.3483  162.0178 H   0  0  0  0  0  0  0  0  0  0  0  0
  151.4461  141.6271  159.2644 H   0  0  0  0  0  0  0  0  0  0  0  0
  150.8997  140.1484  157.1734 H   0  0  0  0  0  0  0  0  0  0  0  0
  149.9028  139.0710  155.8441 H   0  0  0  0  0  0  0  0  0  0  0  0
  150.2236  137.4199  154.0373 H   0  0  0  0  0  0  0  0  0  0  0  0
  150.8953  136.3544  155.2481 H   0  0  0  0  0  0  0  0  0  0  0  0
  148.6608  136.1618  156.3534 H   0  0  0  0  0  0  0  0  0  0  0  0
  147.9809  138.5800  155.8578 H   0  0  0  0  0  0  0  0  0  0  0  0
  146.6969  137.4437  155.6663 H   0  0  0  0  0  0  0  0  0  0  0  0
  147.5339  138.0643  154.2404 H   0  0  0  0  0  0  0  0  0  0  0  0
  146.6164  134.6728  155.4303 H   0  0  0  0  0  0  0  0  0  0  0  0
  146.2410  135.9426  154.2946 H   0  0  0  0  0  0  0  0  0  0  0  0
  145.4399  133.8046  153.4290 H   0  0  0  0  0  0  0  0  0  0  0  0
  146.6176  134.5374  152.3677 H   0  0  0  0  0  0  0  0  0  0  0  0
  147.1350  132.2556  154.3346 H   0  0  0  0  0  0  0  0  0  0  0  0
  147.1162  132.1394  152.5907 H   0  0  0  0  0  0  0  0  0  0  0  0
  149.4586  132.3113  153.4573 H   0  0  0  0  0  0  0  0  0  0  0  0
  149.0552  133.6336  152.3977 H   0  0  0  0  0  0  0  0  0  0  0  0
  150.2178  134.5138  154.2265 H   0  0  0  0  0  0  0  0  0  0  0  0
  149.8899  132.6931  155.8768 H   0  0  0  0  0  0  0  0  0  0  0  0
  148.2548  133.2362  156.2075 H   0  0  0  0  0  0  0  0  0  0  0  0
  149.6273  134.2478  156.6333 H   0  0  0  0  0  0  0  0  0  0  0  0
  148.4737  135.8084  153.4791 H   0  0  0  0  0  0  0  0  0  0  0  0
  1  2  1  0  0  0  0
  1 21  1  0  0  0  0
  1 22  1  0  0  0  0
  1 23  1  0  0  0  0
  2 20  1  0  0  0  0
  2  3  2  0  0  0  0
  3  4  1  0  0  0  0
  3 24  1  0  0  0  0
  4  5  1  0  0  0  0
  4 19  2  0  0  0  0
  5  6  1  0  0  0  0
  5 25  1  0  0  0  0
  6  7  2  0  0  0  0
  6  8  1  0  0  0  0
  8  9  1  0  0  0  0
  8 26  1  0  0  0  0
  9 10  1  0  0  0  0
  9 27  1  0  0  0  0
  9 28  1  0  0  0  0
 10 11  1  0  0  0  0
 10 12  1  0  0  0  0
 10 29  1  0  0  0  0
 11 30  1  0  0  0  0
 11 31  1  0  0  0  0
 11 32  1  0  0  0  0
 12 17  1  0  0  0  0
 12 13  1  0  0  0  0
 12 45  1  0  0  0  0
 13 14  1  0  0  0  0
 13 33  1  0  0  0  0
 13 34  1  0  0  0  0
 14 15  1  0  0  0  0
 14 35  1  0  0  0  0
 14 36  1  0  0  0  0
 15 16  1  0  0  0  0
 15 37  1  0  0  0  0
 15 38  1  0  0  0  0
 16 17  1  0  0  0  0
 16 39  1  0  0  0  0
 16 40  1  0  0  0  0
 17 18  1  0  0  0  0
 17 41  1  0  0  0  0
 18 42  1  0  0  0  0
 18 43  1  0  0  0  0
 18 44  1  0  0  0  0
 19 20  1  0  0  0  0
M  CHG  1  12   1
M  END
> <s_m_source_file>
AV-unprocessed.smi

> <i_m_source_file_index>
1978

> <i_lp_mmshare_version>
43012

> <i_f3d_flags>
0

> <s_epik_input>
W0NIM11jMVtjSF1jKG5vMSlbTkhdQyg9TylbTkhdW0NIMl1bQ0BIXShbQ0gzXSlOMltDSDJdW0NIMl1bQ0gyXVtDSDJdW0NASF0yW0NIM10=

> <s_epik_cmdline>
J2VwaWtfcHl0aG9uJywgJy1waCcsICc3LjAnLCAnLXRuJywgJzgnLCAnLW1hJywgJzIwMCcsICctbWV0YWxfYmluZGluZycsICctaW1hZScsICc8aW5maWxlLm1hZT4nLCAnLW9tYWUnLCAnPG91dGZpbGUubWFlPic=

> <r_epik_Ionization_Penalty>
0.00265971

> <r_epik_Ionization_Penalty_Charging>
0.00262393

> <r_epik_Ionization_Penalty_Neutral>
3.57846e-05

> <r_epik_State_Penalty>
0.00182566

> <r_epik_Charging_Adjusted_Penalty>
0.00444959

> <i_epik_Tot_Q>
1

> <i_epik_Tot_abs_Q>
1

> <r_epik_Metal_State_Penalty>
0.0216344

> <b_epik_Metal_Only>
0

> <s_lp_Force_Field>
OPLS_2005

> <r_lp_Energy>
22.4222

> <b_lp_Chiralities_Consistent>
1

> <s_lp_Variant>
AV-unprocessed.smi:1978-8

> <Gold.Version>
5.8.1

> <Gold.Id.Protein>
6NUR|6NUR_protein|mol2

> <Gold.PLP.Fitness>
36.2592

> <Gold.PLP.PLP>
-27.5332

> <Gold.PLP.part.hbond>
-2.0000

> <Gold.PLP.part.metal>
0.0000

> <Gold.PLP.part.buried>
-4.2918

> <Gold.PLP.part.nonpolar>
-21.6754

> <Gold.PLP.part.repulsive>
0.0655

> <Gold.PLP.ligand.clash>
0.0000

> <Gold.PLP.ligand.torsion>
0.1777

> <Gold.PLP.Chemscore.Hbond>
3.0000

> <Gold.PLP.Chemscore.CHOScore>
0.0000

> <Gold.PLP.Chemscore.Metal>
0.0000

> <Gold.Chemscore.Hbonds>
donor molecule, donor type, donor heavy atom, donor atom, acceptor molecule, acceptor atom, score
      L1  H    12    45       P1  7948  2.00
      P1  H  7997  8008       L1    19  0.58

> <Gold.PLP.Chemscore.Internal.Correction>
0.0814

> <Gold.Rescore>
     Score         DG    S(hbond)    S(metal)    S(lipo)     H(rot)  DE(clash)    DE(int)     intcor
     13.73     -15.17       1.74        0.00      67.04       1.55       0.10       1.33       ----

> <Gold.Chemscore.Fitness>
13.7341

> <Gold.Chemscore.DG>
-15.1690

> <Gold.Chemscore.ZeroCoef>
-5.4800

> <Gold.Chemscore.Hbond>
1.7385

> <Gold.Chemscore.Metal>
0.0000

> <Gold.Chemscore.Lipo>
67.0412

> <Gold.Chemscore.Internal_Hbond>
0.0000

> <Gold.Chemscore.DEClash>
0.1035

> <Gold.Chemscore.DEInternal>
1.3315

> <Gold.Chemscore.Rot>
1.5474

> <Gold.Chemscore.Internal.Correction>
   9.000000E+99

> <Gold.Chemscore.Hbonds>
donor molecule, donor type, donor heavy atom, donor atom, acceptor molecule, acceptor atom, score
      L1  H    12    45       P1  7948  1.00
      P1  H  7997  8008       L1    19  0.02

> <Gold.Chemscore.Hbond.Weighted>
-5.8064

> <Gold.Chemscore.Metal.Weighted>
-0.0000

> <Gold.Chemscore.Lipo.Weighted>
-7.8438

> <Gold.Chemscore.Internal_Hbond.Weighted>
0.0000

> <Gold.Chemscore.DEClash.Weighted>
0.1035

> <Gold.Chemscore.DEInternal.Weighted>
1.3315

> <Gold.Chemscore.Rot.Weighted>
3.9612

> <Gold.Chemscore.Internal.Correction.Weighted>
   9.000000E+99

> <Gold.Protein.RotatedTorsions>
[ 6907 6896 6895 6894 ] final -128.31 input  -60.11 | X-H torsion
[ 7974 7965 7964 7962 ] final  105.53 input  175.53 | X-H torsion
[ 8008 7997 7996 7995 ] final  -78.54 input   59.86 | X-H torsion
[ 10167 10162 10161 10158 ] final  -31.54 input  -65.29 | X-H torsion
[ 10718 10713 10712 10709 ] final -124.19 input   66.30 | X-H torsion
[ 10763 10752 10751 10750 ] final  -72.61 input  -60.55 | X-H torsion
[ 11005 11000 10999 10996 ] final  -11.08 input  -57.11 | X-H torsion

> <Gold.Protein.ActiveResidues>
 VAL166  LYS551  ARG553  GLY616  TRP617  ASP618  TYR619  PRO620  LYS621  CYS622 
 ASP623  PHE694  ASN695  SER759  ASP760  ASP761  ALA762  ILE779  LEU786  VAL792 
 PHE793  MET794  SER795  GLU796  ALA797  LYS798  CYS799  TRP800  GLU811  SER814 

> <Gold.Protein.RotatedAtoms>
  150.9166  133.6932  159.2841 H   0  0  0  0  0  0  0  0  0  0  0  0  # atno 6907 bound_to 6896
  151.4401  135.1018  159.9677 H   0  0  0  0  0  0  0  0  0  0  0  0  # atno 6908 bound_to 6896
  152.4958  133.8576  159.7289 H   0  0  0  0  0  0  0  0  0  0  0  0  # atno 6909 bound_to 6896
  145.3184  139.2520  143.3725 H   0  0  0  0  0  0  0  0  0  0  0  0  # atno 7974 bound_to 7965
  154.5699  140.0692  156.8949 H   0  0  0  0  0  0  0  0  0  0  0  0  # atno 8008 bound_to 7997
  155.2653  140.3361  155.4251 H   0  0  0  0  0  0  0  0  0  0  0  0  # atno 8009 bound_to 7997
  156.2110  140.1759  156.7680 H   0  0  0  0  0  0  0  0  0  0  0  0  # atno 8010 bound_to 7997
  140.7234  143.3763  151.1684 H   0  0  0  0  0  0  0  0  0  0  0  0  # atno 10167 bound_to 10162
  156.1566  130.6572  150.9990 H   0  0  0  0  0  0  0  0  0  0  0  0  # atno 10718 bound_to 10713
  154.4481  135.5924  153.6173 H   0  0  0  0  0  0  0  0  0  0  0  0  # atno 10763 bound_to 10752
  152.9811  135.6014  154.3639 H   0  0  0  0  0  0  0  0  0  0  0  0  # atno 10764 bound_to 10752
  154.3497  135.2841  155.2357 H   0  0  0  0  0  0  0  0  0  0  0  0  # atno 10765 bound_to 10752
  140.7515  133.8588  155.9049 H   0  0  0  0  0  0  0  0  0  0  0  0  # atno 11005 bound_to 11000
  146.3091  140.3736  142.8676 LP  0  0  0  0  0  0  0  0  0  0  0  0  # atno 17320 bound_to 7965
  144.8959  140.7582  143.5897 LP  0  0  0  0  0  0  0  0  0  0  0  0  # atno 17321 bound_to 7965
  139.7343  143.9023  152.3030 LP  0  0  0  0  0  0  0  0  0  0  0  0  # atno 17342 bound_to 10162
  139.8823  144.7011  150.8864 LP  0  0  0  0  0  0  0  0  0  0  0  0  # atno 17343 bound_to 10162
  157.6700  131.0863  150.7636 LP  0  0  0  0  0  0  0  0  0  0  0  0  # atno 17370 bound_to 10713
  156.7701  130.4826  149.5420 LP  0  0  0  0  0  0  0  0  0  0  0  0  # atno 17371 bound_to 10713
  140.9746  134.1486  157.4547 LP  0  0  0  0  0  0  0  0  0  0  0  0  # atno 17394 bound_to 11000
  139.8787  134.9990  156.5932 LP  0  0  0  0  0  0  0  0  0  0  0  0  # atno 17395 bound_to 11000

$$$$
