AV-unprocessed.smi:415|AV-procd|sdf|2519|dock5
  -GOLD-   2262022473D 1   1.00000     0.00000
 Structure written by MMmdl.
 53 54  0  0  0  0  0  0  0  0  1 V2000
  149.2371  134.2030  154.4063 C   0  0  0  0  0  0  0  0  0  0  0  0
  147.8424  133.9809  154.5201 O   0  0  0  0  0  0  0  0  0  0  0  0
  147.0862  135.1654  154.3358 C   0  0  0  0  0  0  0  0  0  0  0  0
  147.3575  136.1127  155.5136 C   0  0  0  0  0  0  0  0  0  0  0  0
  148.5042  136.9710  155.2879 N   0  0  0  0  0  0  0  0  0  0  0  0
  148.5451  137.9401  154.2895 C   0  0  0  0  0  0  0  0  0  0  0  0
  147.4443  138.1278  153.4731 N   0  0  0  0  0  0  0  0  0  0  0  0
  149.6357  138.7171  154.1064 C   0  0  0  0  0  0  0  0  0  0  0  0
  150.8207  138.5879  154.9422 C   0  0  0  0  0  0  0  0  0  0  0  0
  151.8335  139.2683  154.7749 O   0  0  0  0  0  0  0  0  0  0  0  0
  150.7457  137.6197  155.9701 N   0  0  0  0  0  0  0  0  0  0  0  0
  151.9243  137.4326  156.8457 C   0  0  0  0  0  0  0  0  0  0  0  0
  152.4266  138.7395  157.4787 C   0  0  0  0  0  0  0  0  0  0  0  0
  153.3343  139.3894  156.9579 O   0  0  0  0  0  0  0  0  0  0  0  0
  151.8260  139.1026  158.6221 N   0  0  0  0  0  0  0  0  0  0  0  0
  152.1436  140.2948  159.4050 C   0  0  1  0  0  0  0  0  0  0  0  0
  153.6723  140.4501  159.5219 C   0  0  0  0  0  0  0  0  0  0  0  0
  154.0450  141.6782  160.3655 C   0  0  0  0  0  0  0  0  0  0  0  0
  153.3887  142.9572  159.8225 C   0  0  0  0  0  0  0  0  0  0  0  0
  151.8594  142.7983  159.7012 C   0  0  1  0  0  0  0  0  0  0  0  0
  151.1818  144.1063  159.2596 C   0  0  0  0  0  0  0  0  0  0  0  0
  151.4788  141.5742  158.8257 C   0  0  1  0  0  0  0  0  0  0  0  0
  151.7651  141.7787  157.3195 C   0  0  0  0  0  0  0  0  0  0  0  0
  149.6045  136.8088  156.1687 C   0  0  0  0  0  0  0  0  0  0  0  0
  149.5790  135.9824  157.0850 O   0  0  0  0  0  0  0  0  0  0  0  0
  149.7706  133.2645  154.5569 H   0  0  0  0  0  0  0  0  0  0  0  0
  149.5870  134.9122  155.1575 H   0  0  0  0  0  0  0  0  0  0  0  0
  149.4971  134.5831  153.4175 H   0  0  0  0  0  0  0  0  0  0  0  0
  147.3695  135.6439  153.3969 H   0  0  0  0  0  0  0  0  0  0  0  0
  146.0235  134.9251  154.2770 H   0  0  0  0  0  0  0  0  0  0  0  0
  146.4964  136.7420  155.7450 H   0  0  0  0  0  0  0  0  0  0  0  0
  147.5529  135.5570  156.4303 H   0  0  0  0  0  0  0  0  0  0  0  0
  146.6026  137.5797  153.5779 H   0  0  0  0  0  0  0  0  0  0  0  0
  147.4259  138.8428  152.7601 H   0  0  0  0  0  0  0  0  0  0  0  0
  149.6381  139.4582  153.3200 H   0  0  0  0  0  0  0  0  0  0  0  0
  151.7023  136.7174  157.6397 H   0  0  0  0  0  0  0  0  0  0  0  0
  152.7552  136.9754  156.3068 H   0  0  0  0  0  0  0  0  0  0  0  0
  151.0934  138.5076  158.9805 H   0  0  0  0  0  0  0  0  0  0  0  0
  151.7611  140.1418  160.4165 H   0  0  0  0  0  0  0  0  0  0  0  0
  154.1030  139.5565  159.9754 H   0  0  0  0  0  0  0  0  0  0  0  0
  154.1212  140.5357  158.5317 H   0  0  0  0  0  0  0  0  0  0  0  0
  153.7291  141.5185  161.3972 H   0  0  0  0  0  0  0  0  0  0  0  0
  155.1284  141.7977  160.3906 H   0  0  0  0  0  0  0  0  0  0  0  0
  153.6238  143.7907  160.4854 H   0  0  0  0  0  0  0  0  0  0  0  0
  153.8203  143.2096  158.8533 H   0  0  0  0  0  0  0  0  0  0  0  0
  151.4838  142.5919  160.7048 H   0  0  0  0  0  0  0  0  0  0  0  0
  151.5605  144.4573  158.2997 H   0  0  0  0  0  0  0  0  0  0  0  0
  151.3601  144.8995  159.9860 H   0  0  0  0  0  0  0  0  0  0  0  0
  150.1026  143.9797  159.1708 H   0  0  0  0  0  0  0  0  0  0  0  0
  150.3993  141.4436  158.9150 H   0  0  0  0  0  0  0  0  0  0  0  0
  152.8243  141.9383  157.1213 H   0  0  0  0  0  0  0  0  0  0  0  0
  151.2230  142.6354  156.9213 H   0  0  0  0  0  0  0  0  0  0  0  0
  151.4482  140.9177  156.7313 H   0  0  0  0  0  0  0  0  0  0  0  0
  1  2  1  0  0  0  0
  1 26  1  0  0  0  0
  1 27  1  0  0  0  0
  1 28  1  0  0  0  0
  2  3  1  0  0  0  0
  3  4  1  0  0  0  0
  3 29  1  0  0  0  0
  3 30  1  0  0  0  0
  4  5  1  0  0  0  0
  4 31  1  0  0  0  0
  4 32  1  0  0  0  0
  5 24  1  0  0  0  0
  5  6  1  0  0  0  0
  6  7  1  0  0  0  0
  6  8  2  0  0  0  0
  7 33  1  0  0  0  0
  7 34  1  0  0  0  0
  8  9  1  0  0  0  0
  8 35  1  0  0  0  0
  9 10  2  0  0  0  0
  9 11  1  0  0  0  0
 11 12  1  0  0  0  0
 11 24  1  0  0  0  0
 12 13  1  0  0  0  0
 12 36  1  0  0  0  0
 12 37  1  0  0  0  0
 13 14  2  0  0  0  0
 13 15  1  0  0  0  0
 15 16  1  0  0  0  0
 15 38  1  0  0  0  0
 16 22  1  0  0  0  0
 16 17  1  0  0  0  0
 16 39  1  0  0  0  0
 17 18  1  0  0  0  0
 17 40  1  0  0  0  0
 17 41  1  0  0  0  0
 18 19  1  0  0  0  0
 18 42  1  0  0  0  0
 18 43  1  0  0  0  0
 19 20  1  0  0  0  0
 19 44  1  0  0  0  0
 19 45  1  0  0  0  0
 20 21  1  0  0  0  0
 20 22  1  0  0  0  0
 20 46  1  0  0  0  0
 21 47  1  0  0  0  0
 21 48  1  0  0  0  0
 21 49  1  0  0  0  0
 22 23  1  0  0  0  0
 22 50  1  0  0  0  0
 23 51  1  0  0  0  0
 23 52  1  0  0  0  0
 23 53  1  0  0  0  0
 24 25  2  0  0  0  0
M  END
> <s_m_source_file>
AV-unprocessed.smi

> <i_m_source_file_index>
415

> <i_lp_mmshare_version>
43012

> <i_f3d_flags>
0

> <s_epik_input>
W0NIM11PW0NIMl1bQ0gyXW4xYyhbTkgyXSlbY0hdYyg9TyluKGMxPU8pW0NIMl1DKD1PKVtOSF1bQ0BASF0yW0NIMl1bQ0gyXVtDSDJdW0NAQEhdKFtDSDNdKVtDQEhdMltDSDNd

> <s_epik_cmdline>
J2VwaWtfcHl0aG9uJywgJy1waCcsICc3LjAnLCAnLXRuJywgJzgnLCAnLW1hJywgJzIwMCcsICctbWV0YWxfYmluZGluZycsICctaW1hZScsICc8aW5maWxlLm1hZT4nLCAnLW9tYWUnLCAnPG91dGZpbGUubWFlPic=

> <r_lp_tautomer_probability>
1

> <r_epik_Ionization_Penalty>
8.6647e-06

> <r_epik_Ionization_Penalty_Charging>
1.81162e-08

> <r_epik_Ionization_Penalty_Neutral>
8.64658e-06

> <r_epik_State_Penalty>
-0

> <r_epik_Charging_Adjusted_Penalty>
1.81162e-08

> <i_epik_Tot_Q>
0

> <i_epik_Tot_abs_Q>
0

> <r_epik_Metal_State_Penalty>
-0

> <b_epik_Metal_Only>
0

> <s_lp_Force_Field>
OPLS_2005

> <r_lp_Energy>
22.062

> <b_lp_Chiralities_Consistent>
1

> <s_lp_Variant>
AV-unprocessed.smi:415-2

> <Gold.Version>
5.8.1

> <Gold.Id.Protein>
6NUR|6NUR_protein|mol2

> <Gold.PLP.Fitness>
35.9124

> <Gold.PLP.PLP>
-32.8315

> <Gold.PLP.part.hbond>
-2.2329

> <Gold.PLP.part.metal>
0.0000

> <Gold.PLP.part.buried>
-2.6193

> <Gold.PLP.part.nonpolar>
-27.4055

> <Gold.PLP.part.repulsive>
0.2392

> <Gold.PLP.ligand.clash>
0.0000

> <Gold.PLP.ligand.torsion>
0.8614

> <Gold.PLP.Chemscore.Hbond>
1.5868

> <Gold.PLP.Chemscore.CHOScore>
0.0000

> <Gold.PLP.Chemscore.Metal>
0.0000

> <Gold.Chemscore.Hbonds>
donor molecule, donor type, donor heavy atom, donor atom, acceptor molecule, acceptor atom, score
      P1  H  7989  7998       L1    10  0.96
      P1  H  7997  8008       L1    14  0.57

> <Gold.PLP.Chemscore.Internal.Correction>
0.0433

> <Gold.Rescore>
     Score         DG    S(hbond)    S(metal)    S(lipo)     H(rot)  DE(clash)    DE(int)     intcor
      9.72     -15.88       1.87        0.00      85.21       2.26       0.02       6.15       ----

> <Gold.Chemscore.Fitness>
9.7207

> <Gold.Chemscore.DG>
-15.8840

> <Gold.Chemscore.ZeroCoef>
-5.4800

> <Gold.Chemscore.Hbond>
1.8659

> <Gold.Chemscore.Metal>
0.0000

> <Gold.Chemscore.Lipo>
85.2057

> <Gold.Chemscore.Internal_Hbond>
0.0000

> <Gold.Chemscore.DEClash>
0.0182

> <Gold.Chemscore.DEInternal>
6.1452

> <Gold.Chemscore.Rot>
2.2645

> <Gold.Chemscore.Internal.Correction>
   9.000000E+99

> <Gold.Chemscore.Hbonds>
donor molecule, donor type, donor heavy atom, donor atom, acceptor molecule, acceptor atom, score
      P1  H  7989  7998       L1    10  0.82
      P1  H  7997  8008       L1    14  0.54

> <Gold.Chemscore.Hbond.Weighted>
-6.2321

> <Gold.Chemscore.Metal.Weighted>
-0.0000

> <Gold.Chemscore.Lipo.Weighted>
-9.9691

> <Gold.Chemscore.Internal_Hbond.Weighted>
0.0000

> <Gold.Chemscore.DEClash.Weighted>
0.0182

> <Gold.Chemscore.DEInternal.Weighted>
6.1452

> <Gold.Chemscore.Rot.Weighted>
5.7972

> <Gold.Chemscore.Internal.Correction.Weighted>
   9.000000E+99

> <Gold.Protein.RotatedTorsions>
[ 6907 6896 6895 6894 ] final   -3.15 input  -60.11 | X-H torsion
[ 7974 7965 7964 7962 ] final    3.57 input  175.53 | X-H torsion
[ 8008 7997 7996 7995 ] final  -95.60 input   59.86 | X-H torsion
[ 10167 10162 10161 10158 ] final  -59.04 input  -65.29 | X-H torsion
[ 10718 10713 10712 10709 ] final -121.07 input   66.30 | X-H torsion
[ 10763 10752 10751 10750 ] final  170.72 input  -60.55 | X-H torsion
[ 11005 11000 10999 10996 ] final -151.29 input  -57.11 | X-H torsion

> <Gold.Protein.ActiveResidues>
 VAL166  LYS551  ARG553  GLY616  TRP617  ASP618  TYR619  PRO620  LYS621  CYS622 
 ASP623  PHE694  ASN695  SER759  ASP760  ASP761  ALA762  ILE779  LEU786  VAL792 
 PHE793  MET794  SER795  GLU796  ALA797  LYS798  CYS799  TRP800  GLU811  SER814 

> <Gold.Protein.RotatedAtoms>
  151.5184  135.1066  159.9871 H   0  0  0  0  0  0  0  0  0  0  0  0  # atno 6907 bound_to 6896
  152.4631  133.7861  159.6887 H   0  0  0  0  0  0  0  0  0  0  0  0  # atno 6908 bound_to 6896
  150.8602  133.7590  159.3020 H   0  0  0  0  0  0  0  0  0  0  0  0  # atno 6909 bound_to 6896
  146.2445  140.0666  142.8365 H   0  0  0  0  0  0  0  0  0  0  0  0  # atno 7974 bound_to 7965
  154.7635  140.0478  157.0993 H   0  0  0  0  0  0  0  0  0  0  0  0  # atno 8008 bound_to 7997
  154.9909  140.3113  155.4887 H   0  0  0  0  0  0  0  0  0  0  0  0  # atno 8009 bound_to 7997
  156.2908  140.2219  156.5013 H   0  0  0  0  0  0  0  0  0  0  0  0  # atno 8010 bound_to 7997
  140.6160  143.2402  151.5597 H   0  0  0  0  0  0  0  0  0  0  0  0  # atno 10167 bound_to 10162
  156.1308  130.6394  150.9618 H   0  0  0  0  0  0  0  0  0  0  0  0  # atno 10718 bound_to 10713
  154.4017  135.2755  155.2092 H   0  0  0  0  0  0  0  0  0  0  0  0  # atno 10763 bound_to 10752
  154.4115  135.6021  153.5959 H   0  0  0  0  0  0  0  0  0  0  0  0  # atno 10764 bound_to 10752
  152.9831  135.5950  154.4286 H   0  0  0  0  0  0  0  0  0  0  0  0  # atno 10765 bound_to 10752
  140.7312  134.3619  157.5166 H   0  0  0  0  0  0  0  0  0  0  0  0  # atno 11005 bound_to 11000
  145.0853  140.9248  143.4801 LP  0  0  0  0  0  0  0  0  0  0  0  0  # atno 17320 bound_to 7965
  145.0827  139.2948  143.5775 LP  0  0  0  0  0  0  0  0  0  0  0  0  # atno 17321 bound_to 7965
  139.5399  144.2678  152.1328 LP  0  0  0  0  0  0  0  0  0  0  0  0  # atno 17342 bound_to 10162
  140.1887  144.4773  150.6490 LP  0  0  0  0  0  0  0  0  0  0  0  0  # atno 17343 bound_to 10162
  157.6486  131.0900  150.8100 LP  0  0  0  0  0  0  0  0  0  0  0  0  # atno 17370 bound_to 10713
  156.8185  130.4976  149.5346 LP  0  0  0  0  0  0  0  0  0  0  0  0  # atno 17371 bound_to 10713
  139.8826  134.9019  156.2821 LP  0  0  0  0  0  0  0  0  0  0  0  0  # atno 17394 bound_to 11000
  140.9919  133.7203  156.0828 LP  0  0  0  0  0  0  0  0  0  0  0  0  # atno 17395 bound_to 11000

$$$$
