AV-unprocessed.smi:1385|AV-procd|sdf|5631|dock8
  -GOLD-   22720 5243D 1   1.00000     0.00000
 Structure written by MMmdl.
 37 38  0  0  0  0  0  0  0  0  2 V2000
  147.2035  142.7418  153.8768 C   0  0  0  0  0  0  0  0  0  0  0  0
  147.6990  141.3539  154.0993 C   0  0  0  0  0  0  0  0  0  0  0  0
  148.9937  141.0319  154.0464 N   0  0  0  0  0  0  0  0  0  0  0  0
  149.2066  139.6820  154.2855 N   0  0  0  0  0  0  0  0  0  0  0  0
  148.0722  139.0011  154.5032 C   0  0  0  0  0  0  0  0  0  0  0  0
  148.0593  137.6819  154.7557 N   0  5  0  0  0  0  0  0  0  0  0  0
  146.9170  136.9756  154.5964 C   0  0  0  0  0  0  0  0  0  0  0  0
  145.9698  136.9314  155.3851 O   0  0  0  0  0  0  0  0  0  0  0  0
  146.8692  136.2780  153.4524 N   0  0  0  0  0  0  0  0  0  0  0  0
  145.7627  135.4355  153.0072 C   0  0  0  0  0  0  0  0  0  0  0  0
  146.1988  133.9645  152.9835 C   0  0  0  0  0  0  0  0  0  0  0  0
  145.0879  133.0689  152.4083 C   0  0  0  0  0  0  0  0  0  0  0  0
  144.7322  133.4926  151.0497 N   0  0  0  0  0  0  0  0  0  0  0  0
  143.7552  132.5368  150.4808 C   0  0  0  0  0  0  0  0  0  0  0  0
  143.8117  132.4087  148.9540 C   0  0  0  0  0  0  0  0  0  0  0  0
  142.7129  132.7409  148.2718 N   0  0  0  0  0  0  0  0  0  0  0  0
  144.8375  132.0208  148.3993 O   0  0  0  0  0  0  0  0  0  0  0  0
  144.2285  134.8742  151.0633 C   0  0  0  0  0  0  0  0  0  0  0  0
  145.3004  135.8396  151.5982 C   0  0  0  0  0  0  0  0  0  0  0  0
  146.6261  140.0089  154.4478 S   0  0  0  0  0  0  0  0  0  0  0  0
  147.1558  142.9530  152.8085 H   0  0  0  0  0  0  0  0  0  0  0  0
  147.8717  143.4627  154.3489 H   0  0  0  0  0  0  0  0  0  0  0  0
  146.2070  142.8602  154.3024 H   0  0  0  0  0  0  0  0  0  0  0  0
  147.6662  136.3455  152.8367 H   0  0  0  0  0  0  0  0  0  0  0  0
  144.9269  135.5343  153.7024 H   0  0  0  0  0  0  0  0  0  0  0  0
  147.1034  133.8512  152.3833 H   0  0  0  0  0  0  0  0  0  0  0  0
  146.4532  133.6351  153.9915 H   0  0  0  0  0  0  0  0  0  0  0  0
  145.4420  132.0372  152.3933 H   0  0  0  0  0  0  0  0  0  0  0  0
  144.2100  133.0932  153.0564 H   0  0  0  0  0  0  0  0  0  0  0  0
  143.9421  131.5425  150.8892 H   0  0  0  0  0  0  0  0  0  0  0  0
  142.7455  132.8125  150.7916 H   0  0  0  0  0  0  0  0  0  0  0  0
  142.7027  132.6691  147.2647 H   0  0  0  0  0  0  0  0  0  0  0  0
  141.8938  133.0600  148.7682 H   0  0  0  0  0  0  0  0  0  0  0  0
  143.9562  135.2000  150.0596 H   0  0  0  0  0  0  0  0  0  0  0  0
  143.3253  134.9390  151.6725 H   0  0  0  0  0  0  0  0  0  0  0  0
  144.9044  136.8557  151.6104 H   0  0  0  0  0  0  0  0  0  0  0  0
  146.1518  135.8491  150.9155 H   0  0  0  0  0  0  0  0  0  0  0  0
  1  2  1  0  0  0  0
  1 21  1  0  0  0  0
  1 22  1  0  0  0  0
  1 23  1  0  0  0  0
  2 20  1  0  0  0  0
  2  3  2  0  0  0  0
  3  4  1  0  0  0  0
  4  5  2  0  0  0  0
  5  6  1  0  0  0  0
  5 20  1  0  0  0  0
  6  7  1  0  0  0  0
  7  8  2  0  0  0  0
  7  9  1  0  0  0  0
  9 10  1  0  0  0  0
  9 24  1  0  0  0  0
 10 19  1  0  0  0  0
 10 11  1  0  0  0  0
 10 25  1  0  0  0  0
 11 12  1  0  0  0  0
 11 26  1  0  0  0  0
 11 27  1  0  0  0  0
 12 13  1  0  0  0  0
 12 28  1  0  0  0  0
 12 29  1  0  0  0  0
 13 14  1  0  0  0  0
 13 18  1  0  0  0  0
 14 15  1  0  0  0  0
 14 30  1  0  0  0  0
 14 31  1  0  0  0  0
 15 16  1  0  0  0  0
 15 17  2  0  0  0  0
 16 32  1  0  0  0  0
 16 33  1  0  0  0  0
 18 19  1  0  0  0  0
 18 34  1  0  0  0  0
 18 35  1  0  0  0  0
 19 36  1  0  0  0  0
 19 37  1  0  0  0  0
M  CHG  1   6  -1
M  END
> <s_m_source_file>
AV-unprocessed.smi

> <i_m_source_file_index>
1385

> <i_lp_mmshare_version>
43012

> <i_f3d_flags>
0

> <s_epik_input>
W0NIM11jMW5uYyhzMSlbTkhdQyg9TylbTkhdW0NIXTJbQ0gyXVtDSDJdTihbQ0gyXVtDSDJdMilbQ0gyXUMoPU8pW05IMl0=

> <s_epik_cmdline>
J2VwaWtfcHl0aG9uJywgJy1waCcsICc3LjAnLCAnLXRuJywgJzgnLCAnLW1hJywgJzIwMCcsICctbWV0YWxfYmluZGluZycsICctaW1hZScsICc8aW5maWxlLm1hZT4nLCAnLW9tYWUnLCAnPG91dGZpbGUubWFlPic=

> <r_lp_tautomer_probability>
1

> <r_epik_Ionization_Penalty>
3.72698

> <r_epik_Ionization_Penalty_Charging>
3.38897

> <r_epik_Ionization_Penalty_Neutral>
0.338006

> <r_epik_State_Penalty>
3.53372

> <r_epik_Charging_Adjusted_Penalty>
6.92269

> <i_epik_Tot_Q>
-1

> <i_epik_Tot_abs_Q>
1

> <r_epik_Metal_State_Penalty>
0.657042

> <b_epik_Metal_Only>
1

> <s_lp_Force_Field>
OPLS_2005

> <r_lp_Energy>
7.29134

> <b_lp_Chiralities_Consistent>
1

> <s_lp_Variant>
AV-unprocessed.smi:1385-4

> <Gold.Version>
5.8.1

> <Gold.Id.Protein>
6NUR|6NUR_protein|mol2

> <Gold.PLP.Fitness>
39.3695

> <Gold.PLP.PLP>
-31.7149

> <Gold.PLP.part.hbond>
-6.3174

> <Gold.PLP.part.metal>
0.0000

> <Gold.PLP.part.buried>
-6.6742

> <Gold.PLP.part.nonpolar>
-20.5462

> <Gold.PLP.part.repulsive>
2.1922

> <Gold.PLP.ligand.clash>
0.0000

> <Gold.PLP.ligand.torsion>
1.1704

> <Gold.PLP.Chemscore.Hbond>
3.3066

> <Gold.PLP.Chemscore.CHOScore>
0.0000

> <Gold.PLP.Chemscore.Metal>
0.0000

> <Gold.Chemscore.Hbonds>
donor molecule, donor type, donor heavy atom, donor atom, acceptor molecule, acceptor atom, score
      L1  H     9    24       P1  7948  1.00
      L1  H    16    32       P1 10195  0.93
      L1  H    16    33       P1 10186  0.98
      P1  H  8011  8017       L1     3  0.18

> <Gold.PLP.Chemscore.Internal.Correction>
0.0756

> <Gold.Rescore>
     Score         DG    S(hbond)    S(metal)    S(lipo)     H(rot)  DE(clash)    DE(int)     intcor
     14.52     -15.83       2.91        0.00      49.64       2.02       0.42       0.89       ----

> <Gold.Chemscore.Fitness>
14.5192

> <Gold.Chemscore.DG>
-15.8330

> <Gold.Chemscore.ZeroCoef>
-5.4800

> <Gold.Chemscore.Hbond>
2.9063

> <Gold.Chemscore.Metal>
0.0000

> <Gold.Chemscore.Lipo>
49.6387

> <Gold.Chemscore.Internal_Hbond>
0.0000

> <Gold.Chemscore.DEClash>
0.4214

> <Gold.Chemscore.DEInternal>
0.8924

> <Gold.Chemscore.Rot>
2.0163

> <Gold.Chemscore.Internal.Correction>
   9.000000E+99

> <Gold.Chemscore.Hbonds>
donor molecule, donor type, donor heavy atom, donor atom, acceptor molecule, acceptor atom, score
      L1  H     9    24       P1  7948  0.99
      L1  H    16    32       P1 10195  0.86
      L1  H    16    33       P1 10186  0.93
      P1  H  8011  8017       L1     3  0.08

> <Gold.Chemscore.Hbond.Weighted>
-9.7070

> <Gold.Chemscore.Metal.Weighted>
-0.0000

> <Gold.Chemscore.Lipo.Weighted>
-5.8077

> <Gold.Chemscore.Internal_Hbond.Weighted>
0.0000

> <Gold.Chemscore.DEClash.Weighted>
0.4214

> <Gold.Chemscore.DEInternal.Weighted>
0.8924

> <Gold.Chemscore.Rot.Weighted>
5.1617

> <Gold.Chemscore.Internal.Correction.Weighted>
   9.000000E+99

> <Gold.Protein.RotatedTorsions>
[ 6907 6896 6895 6894 ] final  -52.41 input  -60.11 | X-H torsion
[ 7974 7965 7964 7962 ] final   82.57 input  175.53 | X-H torsion
[ 8008 7997 7996 7995 ] final  -52.28 input   59.86 | X-H torsion
[ 10167 10162 10161 10158 ] final   -6.48 input  -65.29 | X-H torsion
[ 10718 10713 10712 10709 ] final -151.23 input   66.30 | X-H torsion
[ 10763 10752 10751 10750 ] final  161.28 input  -60.55 | X-H torsion
[ 11005 11000 10999 10996 ] final  155.95 input  -57.11 | X-H torsion

> <Gold.Protein.ActiveResidues>
 VAL166  LYS551  ARG553  GLY616  TRP617  ASP618  TYR619  PRO620  LYS621  CYS622 
 ASP623  PHE694  ASN695  SER759  ASP760  ASP761  ALA762  ILE779  LEU786  VAL792 
 PHE793  MET794  SER795  GLU796  ALA797  LYS798  CYS799  TRP800  GLU811  SER814 

> <Gold.Protein.RotatedAtoms>
  150.8520  134.7848  159.7015 H   0  0  0  0  0  0  0  0  0  0  0  0  # atno 6907 bound_to 6896
  152.4582  134.5241  159.9801 H   0  0  0  0  0  0  0  0  0  0  0  0  # atno 6908 bound_to 6896
  151.5360  133.3403  159.2962 H   0  0  0  0  0  0  0  0  0  0  0  0  # atno 6909 bound_to 6896
  145.6233  139.2390  143.2126 H   0  0  0  0  0  0  0  0  0  0  0  0  # atno 7974 bound_to 7965
  154.4103  140.1228  156.4965 H   0  0  0  0  0  0  0  0  0  0  0  0  # atno 8008 bound_to 7997
  155.6937  140.3495  155.4885 H   0  0  0  0  0  0  0  0  0  0  0  0  # atno 8009 bound_to 7997
  155.9446  140.1093  157.1017 H   0  0  0  0  0  0  0  0  0  0  0  0  # atno 8010 bound_to 7997
  140.6998  143.6190  150.8631 H   0  0  0  0  0  0  0  0  0  0  0  0  # atno 10167 bound_to 10162
  156.4565  130.8193  151.2424 H   0  0  0  0  0  0  0  0  0  0  0  0  # atno 10718 bound_to 10713
  154.2605  135.2768  155.2780 H   0  0  0  0  0  0  0  0  0  0  0  0  # atno 10763 bound_to 10752
  154.5388  135.5708  153.6825 H   0  0  0  0  0  0  0  0  0  0  0  0  # atno 10764 bound_to 10752
  152.9963  135.6246  154.2755 H   0  0  0  0  0  0  0  0  0  0  0  0  # atno 10765 bound_to 10752
  140.1629  134.8597  157.2597 H   0  0  0  0  0  0  0  0  0  0  0  0  # atno 11005 bound_to 11000
  146.1414  140.7052  142.9365 LP  0  0  0  0  0  0  0  0  0  0  0  0  # atno 17320 bound_to 7965
  144.7222  140.4411  143.6999 LP  0  0  0  0  0  0  0  0  0  0  0  0  # atno 17321 bound_to 7965
  139.9911  143.5846  152.2910 LP  0  0  0  0  0  0  0  0  0  0  0  0  # atno 17342 bound_to 10162
  139.6502  144.7660  151.2164 LP  0  0  0  0  0  0  0  0  0  0  0  0  # atno 17343 bound_to 10162
  157.7500  131.0121  150.3371 LP  0  0  0  0  0  0  0  0  0  0  0  0  # atno 17370 bound_to 10713
  156.3761  130.3872  149.7137 LP  0  0  0  0  0  0  0  0  0  0  0  0  # atno 17371 bound_to 10713
  140.2468  134.3730  155.7458 LP  0  0  0  0  0  0  0  0  0  0  0  0  # atno 17394 bound_to 11000
  141.2211  133.7295  156.8874 LP  0  0  0  0  0  0  0  0  0  0  0  0  # atno 17395 bound_to 11000

$$$$
