AV-unprocessed.smi:2359|AV-procd|sdf|9408|dock9
  -GOLD-   2272013 43D 1   1.00000     0.00000
 Structure written by MMmdl.
 40 41  0  0  0  0  0  0  0  0  1 V2000
  150.9977  142.1498  156.4344 C   0  0  0  0  0  0  0  0  0  0  0  0
  150.2364  141.1450  155.5955 C   0  0  0  0  0  0  0  0  0  0  0  0
  150.8187  139.9134  155.2434 C   0  0  0  0  0  0  0  0  0  0  0  0
  150.0738  139.0085  154.4631 C   0  0  0  0  0  0  0  0  0  0  0  0
  148.7661  139.3547  154.0544 C   0  0  0  0  0  0  0  0  0  0  0  0
  148.1026  138.3746  153.2691 N   0  0  0  0  0  0  0  0  0  0  0  0
  146.7797  138.1854  153.1184 C   0  0  0  0  0  0  0  0  0  0  0  0
  145.8967  138.8465  153.6664 O   0  0  0  0  0  0  0  0  0  0  0  0
  146.5275  137.1679  152.2840 N   0  0  0  0  0  0  0  0  0  0  0  0
  145.1919  136.7147  151.9202 C   0  0  0  0  0  0  0  0  0  0  0  0
  145.2549  135.7453  150.7310 C   0  0  0  0  0  0  0  0  0  0  0  0
  144.6667  134.3629  151.0555 C   0  0  1  0  0  0  0  0  0  0  0  0
  144.2928  133.5808  149.7812 C   0  0  0  0  0  0  0  0  0  0  0  0
  143.7791  132.1816  150.1392 C   0  0  0  0  0  0  0  0  0  0  0  0
  144.7984  131.4705  151.0354 C   0  0  0  0  0  0  0  0  0  0  0  0
  145.1592  132.3541  152.2401 C   0  0  0  0  0  0  0  0  0  0  0  0
  145.6371  133.6177  151.7889 O   0  0  0  0  0  0  0  0  0  0  0  0
  148.2130  140.5439  154.3999 N   0  0  0  0  0  0  0  0  0  0  0  0
  148.9275  141.4106  155.1479 C   0  0  0  0  0  0  0  0  0  0  0  0
  151.9939  142.3124  156.0222 H   0  0  0  0  0  0  0  0  0  0  0  0
  151.1028  141.7847  157.4560 H   0  0  0  0  0  0  0  0  0  0  0  0
  150.4820  143.1100  156.4649 H   0  0  0  0  0  0  0  0  0  0  0  0
  151.8194  139.6637  155.5645 H   0  0  0  0  0  0  0  0  0  0  0  0
  150.5063  138.0587  154.1839 H   0  0  0  0  0  0  0  0  0  0  0  0
  148.7057  137.7460  152.7598 H   0  0  0  0  0  0  0  0  0  0  0  0
  147.3075  136.6743  151.8751 H   0  0  0  0  0  0  0  0  0  0  0  0
  144.7327  136.2281  152.7818 H   0  0  0  0  0  0  0  0  0  0  0  0
  144.5718  137.5763  151.6672 H   0  0  0  0  0  0  0  0  0  0  0  0
  144.7072  136.1785  149.8930 H   0  0  0  0  0  0  0  0  0  0  0  0
  146.2880  135.6340  150.3987 H   0  0  0  0  0  0  0  0  0  0  0  0
  143.7754  134.4966  151.6713 H   0  0  0  0  0  0  0  0  0  0  0  0
  143.5345  134.1205  149.2131 H   0  0  0  0  0  0  0  0  0  0  0  0
  145.1656  133.4932  149.1329 H   0  0  0  0  0  0  0  0  0  0  0  0
  142.8245  132.2629  150.6609 H   0  0  0  0  0  0  0  0  0  0  0  0
  143.5950  131.6002  149.2355 H   0  0  0  0  0  0  0  0  0  0  0  0
  144.4011  130.5131  151.3739 H   0  0  0  0  0  0  0  0  0  0  0  0
  145.7000  131.2511  150.4624 H   0  0  0  0  0  0  0  0  0  0  0  0
  144.2974  132.4919  152.8949 H   0  0  0  0  0  0  0  0  0  0  0  0
  145.9373  131.8763  152.8352 H   0  0  0  0  0  0  0  0  0  0  0  0
  148.4376  142.3411  155.3941 H   0  0  0  0  0  0  0  0  0  0  0  0
  1  2  1  0  0  0  0
  1 20  1  0  0  0  0
  1 21  1  0  0  0  0
  1 22  1  0  0  0  0
  2 19  1  0  0  0  0
  2  3  2  0  0  0  0
  3  4  1  0  0  0  0
  3 23  1  0  0  0  0
  4  5  2  0  0  0  0
  4 24  1  0  0  0  0
  5  6  1  0  0  0  0
  5 18  1  0  0  0  0
  6  7  1  0  0  0  0
  6 25  1  0  0  0  0
  7  8  2  0  0  0  0
  7  9  1  0  0  0  0
  9 10  1  0  0  0  0
  9 26  1  0  0  0  0
 10 11  1  0  0  0  0
 10 27  1  0  0  0  0
 10 28  1  0  0  0  0
 11 12  1  0  0  0  0
 11 29  1  0  0  0  0
 11 30  1  0  0  0  0
 12 17  1  0  0  0  0
 12 13  1  0  0  0  0
 12 31  1  0  0  0  0
 13 14  1  0  0  0  0
 13 32  1  0  0  0  0
 13 33  1  0  0  0  0
 14 15  1  0  0  0  0
 14 34  1  0  0  0  0
 14 35  1  0  0  0  0
 15 16  1  0  0  0  0
 15 36  1  0  0  0  0
 15 37  1  0  0  0  0
 16 17  1  0  0  0  0
 16 38  1  0  0  0  0
 16 39  1  0  0  0  0
 18 19  2  0  0  0  0
 19 40  1  0  0  0  0
M  END
> <s_m_source_file>
AV-unprocessed.smi

> <i_m_source_file_index>
2359

> <i_lp_mmshare_version>
43012

> <i_f3d_flags>
0

> <s_epik_input>
W0NIM11jMVtjSF1bY0hdYyhuW2NIXTEpW05IXUMoPU8pW05IXVtDSDJdW0NIMl1bQ0BASF0yW0NIMl1bQ0gyXVtDSDJdW0NIMl1PMg==

> <s_epik_cmdline>
J2VwaWtfcHl0aG9uJywgJy1waCcsICc3LjAnLCAnLXRuJywgJzgnLCAnLW1hJywgJzIwMCcsICctbWV0YWxfYmluZGluZycsICctaW1hZScsICc8aW5maWxlLm1hZT4nLCAnLW9tYWUnLCAnPG91dGZpbGUubWFlPic=

> <r_lp_tautomer_probability>
1

> <r_epik_Ionization_Penalty>
5.73679e-05

> <r_epik_Ionization_Penalty_Charging>
0

> <r_epik_Ionization_Penalty_Neutral>
5.73679e-05

> <r_epik_State_Penalty>
-0

> <r_epik_Charging_Adjusted_Penalty>
0

> <i_epik_Tot_Q>
0

> <i_epik_Tot_abs_Q>
0

> <r_epik_Metal_State_Penalty>
-0

> <b_epik_Metal_Only>
0

> <s_lp_Force_Field>
OPLS_2005

> <r_lp_Energy>
11.4199

> <b_lp_Chiralities_Consistent>
1

> <s_lp_Variant>
AV-unprocessed.smi:2359-2

> <Gold.Version>
5.8.1

> <Gold.Id.Protein>
6NUR|6NUR_protein|mol2

> <Gold.PLP.Fitness>
44.4470

> <Gold.PLP.PLP>
-36.9631

> <Gold.PLP.part.hbond>
-2.7856

> <Gold.PLP.part.metal>
0.0000

> <Gold.PLP.part.buried>
-2.7284

> <Gold.PLP.part.nonpolar>
-31.5516

> <Gold.PLP.part.repulsive>
0.5819

> <Gold.PLP.ligand.clash>
0.0000

> <Gold.PLP.ligand.torsion>
0.7495

> <Gold.PLP.Chemscore.Hbond>
1.9920

> <Gold.PLP.Chemscore.CHOScore>
1.0000

> <Gold.PLP.Chemscore.Metal>
0.0000

> <Gold.Chemscore.Hbonds>
donor molecule, donor type, donor heavy atom, donor atom, acceptor molecule, acceptor atom, score
      L1  H     6    25       P1  7948  1.00
      L1  H     9    26       P1  7948  1.00
      L1  C    19    40       P1  8028  1.00

> <Gold.PLP.Chemscore.Internal.Correction>
0.0068

> <Gold.Rescore>
     Score         DG    S(hbond)    S(metal)    S(lipo)     H(rot)  DE(clash)    DE(int)     intcor
     16.66     -18.83       1.94        0.00      89.83       1.42       0.12       2.05       ----

> <Gold.Chemscore.Fitness>
16.6621

> <Gold.Chemscore.DG>
-18.8311

> <Gold.Chemscore.ZeroCoef>
-5.4800

> <Gold.Chemscore.Hbond>
1.9427

> <Gold.Chemscore.Metal>
0.0000

> <Gold.Chemscore.Lipo>
89.8288

> <Gold.Chemscore.Internal_Hbond>
0.0000

> <Gold.Chemscore.DEClash>
0.1210

> <Gold.Chemscore.DEInternal>
2.0480

> <Gold.Chemscore.Rot>
1.4248

> <Gold.Chemscore.Internal.Correction>
   9.000000E+99

> <Gold.Chemscore.Hbonds>
donor molecule, donor type, donor heavy atom, donor atom, acceptor molecule, acceptor atom, score
      L1  H     6    25       P1  7948  0.96
      L1  H     9    26       P1  7948  0.97

> <Gold.Chemscore.Hbond.Weighted>
-6.4887

> <Gold.Chemscore.Metal.Weighted>
-0.0000

> <Gold.Chemscore.Lipo.Weighted>
-10.5100

> <Gold.Chemscore.Internal_Hbond.Weighted>
0.0000

> <Gold.Chemscore.DEClash.Weighted>
0.1210

> <Gold.Chemscore.DEInternal.Weighted>
2.0480

> <Gold.Chemscore.Rot.Weighted>
3.6476

> <Gold.Chemscore.Internal.Correction.Weighted>
   9.000000E+99

> <Gold.Protein.RotatedTorsions>
[ 6907 6896 6895 6894 ] final   -6.51 input  -60.11 | X-H torsion
[ 7974 7965 7964 7962 ] final   71.97 input  175.53 | X-H torsion
[ 8008 7997 7996 7995 ] final -127.14 input   59.86 | X-H torsion
[ 10167 10162 10161 10158 ] final   12.79 input  -65.29 | X-H torsion
[ 10718 10713 10712 10709 ] final  -86.72 input   66.30 | X-H torsion
[ 10763 10752 10751 10750 ] final   74.96 input  -60.55 | X-H torsion
[ 11005 11000 10999 10996 ] final  -78.79 input  -57.11 | X-H torsion

> <Gold.Protein.ActiveResidues>
 VAL166  LYS551  ARG553  GLY616  TRP617  ASP618  TYR619  PRO620  LYS621  CYS622 
 ASP623  PHE694  ASN695  SER759  ASP760  ASP761  ALA762  ILE779  LEU786  VAL792 
 PHE793  MET794  SER795  GLU796  ALA797  LYS798  CYS799  TRP800  GLU811  SER814 

> <Gold.Protein.RotatedAtoms>
  151.4644  135.1041  159.9733 H   0  0  0  0  0  0  0  0  0  0  0  0  # atno 6907 bound_to 6896
  152.4840  133.8323  159.7120 H   0  0  0  0  0  0  0  0  0  0  0  0  # atno 6908 bound_to 6896
  150.8935  133.7151  159.2925 H   0  0  0  0  0  0  0  0  0  0  0  0  # atno 6909 bound_to 6896
  145.7591  139.2793  143.1386 H   0  0  0  0  0  0  0  0  0  0  0  0  # atno 7974 bound_to 7965
  155.2413  140.0429  157.2975 H   0  0  0  0  0  0  0  0  0  0  0  0  # atno 8008 bound_to 7997
  154.5827  140.2405  155.8001 H   0  0  0  0  0  0  0  0  0  0  0  0  # atno 8009 bound_to 7997
  156.2204  140.2971  155.9947 H   0  0  0  0  0  0  0  0  0  0  0  0  # atno 8010 bound_to 7997
  140.6045  143.8536  150.6999 H   0  0  0  0  0  0  0  0  0  0  0  0  # atno 10167 bound_to 10162
  155.9988  130.4775  150.4757 H   0  0  0  0  0  0  0  0  0  0  0  0  # atno 10718 bound_to 10713
  153.0622  135.5006  154.8119 H   0  0  0  0  0  0  0  0  0  0  0  0  # atno 10763 bound_to 10752
  154.6899  135.2983  154.9496 H   0  0  0  0  0  0  0  0  0  0  0  0  # atno 10764 bound_to 10752
  154.0254  135.6736  153.4829 H   0  0  0  0  0  0  0  0  0  0  0  0  # atno 10765 bound_to 10752
  141.1666  133.7078  156.8025 H   0  0  0  0  0  0  0  0  0  0  0  0  # atno 11005 bound_to 11000
  146.0281  140.8284  142.9889 LP  0  0  0  0  0  0  0  0  0  0  0  0  # atno 17320 bound_to 7965
  144.6834  140.2728  143.7303 LP  0  0  0  0  0  0  0  0  0  0  0  0  # atno 17321 bound_to 7965
  140.2090  143.3898  152.1733 LP  0  0  0  0  0  0  0  0  0  0  0  0  # atno 17342 bound_to 10162
  139.5315  144.7164  151.5040 LP  0  0  0  0  0  0  0  0  0  0  0  0  # atno 17343 bound_to 10162
  157.2767  131.0598  151.2224 LP  0  0  0  0  0  0  0  0  0  0  0  0  # atno 17370 bound_to 10713
  157.3285  130.6973  149.6310 LP  0  0  0  0  0  0  0  0  0  0  0  0  # atno 17371 bound_to 10713
  140.2246  134.8731  157.3413 LP  0  0  0  0  0  0  0  0  0  0  0  0  # atno 17394 bound_to 11000
  140.1953  134.4321  155.7693 LP  0  0  0  0  0  0  0  0  0  0  0  0  # atno 17395 bound_to 11000

$$$$
