AV-unprocessed.smi:770|AV-procd|sdf|3680|dock2
  -GOLD-   22720 1 93D 1   1.00000     0.00000
 Structure written by MMmdl.
 38 39  0  0  0  0  0  0  0  0  2 V2000
  144.9122  135.3301  151.7961 C   0  0  0  0  0  0  0  0  0  0  0  0
  145.6536  136.2635  151.5309 C   0  0  0  0  0  0  0  0  0  0  0  0
  146.5298  137.3955  151.1937 C   0  0  0  0  0  0  0  0  0  0  0  0
  146.2030  138.5784  151.9778 N   0  0  0  0  0  0  0  0  0  0  0  0
  147.0206  139.1616  152.8644 C   0  0  0  0  0  0  0  0  0  0  0  0
  148.1697  138.7876  153.0975 O   0  0  0  0  0  0  0  0  0  0  0  0
  146.4172  140.1761  153.4993 N   0  0  0  0  0  0  0  0  0  0  0  0
  146.9884  140.9456  154.6030 C   0  0  0  0  0  0  0  0  0  0  0  0
  148.2452  141.7554  154.2114 C   0  0  0  0  0  0  0  0  0  0  0  0
  149.4366  141.4823  155.0841 C   0  0  0  0  0  0  0  0  0  0  0  0
  150.2548  140.3877  154.9530 C   0  0  0  0  0  0  0  0  0  0  0  0
  151.5714  140.4057  156.0908 S   0  0  0  0  0  0  0  0  0  0  0  0
  151.0024  141.9181  156.7351 C   0  0  0  0  0  0  0  0  0  0  0  0
  151.5583  142.6404  157.7237 N   0  0  0  0  0  0  0  0  0  0  0  0
  151.8168  142.0345  159.0219 C   0  0  0  0  0  0  0  0  0  0  0  0
  152.1142  143.2098  159.9510 C   0  0  0  0  0  0  0  0  0  0  0  0
  151.2462  144.3282  159.3763 C   0  0  0  0  0  0  0  0  0  0  0  0
  151.2374  144.0539  157.8679 C   0  0  0  0  0  0  0  0  0  0  0  0
  149.8793  142.3063  156.1142 N   0  3  0  0  0  0  0  0  0  0  0  0
  144.2616  134.5174  152.0303 H   0  0  0  0  0  0  0  0  0  0  0  0
  147.5598  137.0766  151.3616 H   0  0  0  0  0  0  0  0  0  0  0  0
  146.4179  137.6165  150.1319 H   0  0  0  0  0  0  0  0  0  0  0  0
  145.2771  138.9622  151.8568 H   0  0  0  0  0  0  0  0  0  0  0  0
  145.4729  140.4083  153.2282 H   0  0  0  0  0  0  0  0  0  0  0  0
  146.2321  141.5986  155.0407 H   0  0  0  0  0  0  0  0  0  0  0  0
  147.2579  140.2263  155.3767 H   0  0  0  0  0  0  0  0  0  0  0  0
  148.5016  141.5282  153.1760 H   0  0  0  0  0  0  0  0  0  0  0  0
  148.0037  142.8188  154.2207 H   0  0  0  0  0  0  0  0  0  0  0  0
  150.1674  139.5752  154.2464 H   0  0  0  0  0  0  0  0  0  0  0  0
  150.9296  141.4967  159.3584 H   0  0  0  0  0  0  0  0  0  0  0  0
  152.6505  141.3326  158.9803 H   0  0  0  0  0  0  0  0  0  0  0  0
  151.8943  142.9904  160.9962 H   0  0  0  0  0  0  0  0  0  0  0  0
  153.1673  143.4845  159.8770 H   0  0  0  0  0  0  0  0  0  0  0  0
  150.2329  144.2385  159.7704 H   0  0  0  0  0  0  0  0  0  0  0  0
  151.6147  145.3241  159.6238 H   0  0  0  0  0  0  0  0  0  0  0  0
  152.0081  144.6390  157.3653 H   0  0  0  0  0  0  0  0  0  0  0  0
  150.2726  144.3175  157.4334 H   0  0  0  0  0  0  0  0  0  0  0  0
  149.3973  143.1617  156.3609 H   0  0  0  0  0  0  0  0  0  0  0  0
  1  2  3  0  0  0  0
  1 20  1  0  0  0  0
  2  3  1  0  0  0  0
  3  4  1  0  0  0  0
  3 21  1  0  0  0  0
  3 22  1  0  0  0  0
  4  5  1  0  0  0  0
  4 23  1  0  0  0  0
  5  6  2  0  0  0  0
  5  7  1  0  0  0  0
  7  8  1  0  0  0  0
  7 24  1  0  0  0  0
  8  9  1  0  0  0  0
  8 25  1  0  0  0  0
  8 26  1  0  0  0  0
  9 10  1  0  0  0  0
  9 27  1  0  0  0  0
  9 28  1  0  0  0  0
 10 19  1  0  0  0  0
 10 11  2  0  0  0  0
 11 12  1  0  0  0  0
 11 29  1  0  0  0  0
 12 13  1  0  0  0  0
 13 14  1  0  0  0  0
 13 19  2  0  0  0  0
 14 18  1  0  0  0  0
 14 15  1  0  0  0  0
 15 16  1  0  0  0  0
 15 30  1  0  0  0  0
 15 31  1  0  0  0  0
 16 17  1  0  0  0  0
 16 32  1  0  0  0  0
 16 33  1  0  0  0  0
 17 18  1  0  0  0  0
 17 34  1  0  0  0  0
 17 35  1  0  0  0  0
 18 36  1  0  0  0  0
 18 37  1  0  0  0  0
 19 38  1  0  0  0  0
M  CHG  1  19   1
M  END
> <s_m_source_file>
AV-unprocessed.smi

> <i_m_source_file_index>
770

> <i_lp_mmshare_version>
43012

> <i_f3d_flags>
0

> <s_epik_input>
W0NIXSNDW0NIMl1bTkhdQyg9TylbTkhdW0NIMl1bQ0gyXWMxW2NIXXNjKG4xKU4yW0NIMl1bQ0gyXVtDSDJdW0NIMl0y

> <s_epik_cmdline>
J2VwaWtfcHl0aG9uJywgJy1waCcsICc3LjAnLCAnLXRuJywgJzgnLCAnLW1hJywgJzIwMCcsICctbWV0YWxfYmluZGluZycsICctaW1hZScsICc8aW5maWxlLm1hZT4nLCAnLW9tYWUnLCAnPG91dGZpbGUubWFlPic=

> <r_lp_tautomer_probability>
1

> <r_epik_Ionization_Penalty>
0.810114

> <r_epik_Ionization_Penalty_Charging>
0.810081

> <r_epik_Ionization_Penalty_Neutral>
3.29877e-05

> <r_epik_State_Penalty>
0.842152

> <r_epik_Charging_Adjusted_Penalty>
1.65223

> <i_epik_Tot_Q>
1

> <i_epik_Tot_abs_Q>
1

> <r_epik_Metal_State_Penalty>
0.978703

> <b_epik_Metal_Only>
0

> <s_lp_Force_Field>
OPLS_2005

> <r_lp_Energy>
26.9022

> <b_lp_Chiralities_Consistent>
1

> <s_lp_Variant>
AV-unprocessed.smi:770-2

> <Gold.Version>
5.8.1

> <Gold.Id.Protein>
6NUR|6NUR_protein|mol2

> <Gold.PLP.Fitness>
51.7934

> <Gold.PLP.PLP>
-41.9539

> <Gold.PLP.part.hbond>
-3.6941

> <Gold.PLP.part.metal>
0.0000

> <Gold.PLP.part.buried>
-2.3938

> <Gold.PLP.part.nonpolar>
-37.5136

> <Gold.PLP.part.repulsive>
0.6644

> <Gold.PLP.ligand.clash>
0.0000

> <Gold.PLP.ligand.torsion>
1.2428

> <Gold.PLP.Chemscore.Hbond>
4.0000

> <Gold.PLP.Chemscore.CHOScore>
0.0000

> <Gold.PLP.Chemscore.Metal>
0.0000

> <Gold.Chemscore.Hbonds>
donor molecule, donor type, donor heavy atom, donor atom, acceptor molecule, acceptor atom, score
      L1  H     4    23       P1 10175  0.42
      L1  H     7    24       P1 10175  1.00
      L1  H    19    38       P1  8028  1.66

> <Gold.PLP.Chemscore.Internal.Correction>
0.3251

> <Gold.Rescore>
     Score         DG    S(hbond)    S(metal)    S(lipo)     H(rot)  DE(clash)    DE(int)     intcor
     19.96     -21.44       2.83        0.00      94.58       1.78       0.09       1.39       ----

> <Gold.Chemscore.Fitness>
19.9552

> <Gold.Chemscore.DG>
-21.4410

> <Gold.Chemscore.ZeroCoef>
-5.4800

> <Gold.Chemscore.Hbond>
2.8280

> <Gold.Chemscore.Metal>
0.0000

> <Gold.Chemscore.Lipo>
94.5830

> <Gold.Chemscore.Internal_Hbond>
0.0000

> <Gold.Chemscore.DEClash>
0.0917

> <Gold.Chemscore.DEInternal>
1.3941

> <Gold.Chemscore.Rot>
1.7776

> <Gold.Chemscore.Internal.Correction>
   9.000000E+99

> <Gold.Chemscore.Hbonds>
donor molecule, donor type, donor heavy atom, donor atom, acceptor molecule, acceptor atom, score
      L1  H     4    23       P1 10175  0.39
      L1  H     7    24       P1 10175  0.96
      L1  H    19    38       P1  8028  0.83

> <Gold.Chemscore.Hbond.Weighted>
-9.4455

> <Gold.Chemscore.Metal.Weighted>
-0.0000

> <Gold.Chemscore.Lipo.Weighted>
-11.0662

> <Gold.Chemscore.Internal_Hbond.Weighted>
0.0000

> <Gold.Chemscore.DEClash.Weighted>
0.0917

> <Gold.Chemscore.DEInternal.Weighted>
1.3941

> <Gold.Chemscore.Rot.Weighted>
4.5506

> <Gold.Chemscore.Internal.Correction.Weighted>
   9.000000E+99

> <Gold.Protein.RotatedTorsions>
[ 6907 6896 6895 6894 ] final -174.58 input  -60.11 | X-H torsion
[ 7974 7965 7964 7962 ] final   47.73 input  175.53 | X-H torsion
[ 8008 7997 7996 7995 ] final   23.39 input   59.86 | X-H torsion
[ 10167 10162 10161 10158 ] final   57.59 input  -65.29 | X-H torsion
[ 10718 10713 10712 10709 ] final    6.01 input   66.30 | X-H torsion
[ 10763 10752 10751 10750 ] final  103.36 input  -60.55 | X-H torsion
[ 11005 11000 10999 10996 ] final  102.50 input  -57.11 | X-H torsion

> <Gold.Protein.ActiveResidues>
 VAL166  LYS551  ARG553  GLY616  TRP617  ASP618  TYR619  PRO620  LYS621  CYS622 
 ASP623  PHE694  ASN695  SER759  ASP760  ASP761  ALA762  ILE779  LEU786  VAL792 
 PHE793  MET794  SER795  GLU796  ALA797  LYS798  CYS799  TRP800  GLU811  SER814 

> <Gold.Protein.RotatedAtoms>
  151.5747  133.3385  159.2996 H   0  0  0  0  0  0  0  0  0  0  0  0  # atno 6907 bound_to 6896
  150.8347  134.7618  159.6894 H   0  0  0  0  0  0  0  0  0  0  0  0  # atno 6908 bound_to 6896
  152.4425  134.5568  159.9934 H   0  0  0  0  0  0  0  0  0  0  0  0  # atno 6909 bound_to 6896
  146.0271  139.4719  142.9861 H   0  0  0  0  0  0  0  0  0  0  0  0  # atno 7974 bound_to 7965
  154.9802  140.3101  155.4950 H   0  0  0  0  0  0  0  0  0  0  0  0  # atno 8008 bound_to 7997
  156.2954  140.2268  156.4840 H   0  0  0  0  0  0  0  0  0  0  0  0  # atno 8009 bound_to 7997
  154.7796  140.0447  157.1105 H   0  0  0  0  0  0  0  0  0  0  0  0  # atno 8010 bound_to 7997
  140.1963  144.4034  150.6548 H   0  0  0  0  0  0  0  0  0  0  0  0  # atno 10167 bound_to 10162
  156.9159  130.5773  149.5647 H   0  0  0  0  0  0  0  0  0  0  0  0  # atno 10718 bound_to 10713
  153.3517  135.3979  155.1651 H   0  0  0  0  0  0  0  0  0  0  0  0  # atno 10763 bound_to 10752
  154.8663  135.3658  154.5213 H   0  0  0  0  0  0  0  0  0  0  0  0  # atno 10764 bound_to 10752
  153.5666  135.7080  153.5583 H   0  0  0  0  0  0  0  0  0  0  0  0  # atno 10765 bound_to 10752
  139.8778  134.9226  156.5068 H   0  0  0  0  0  0  0  0  0  0  0  0  # atno 11005 bound_to 11000
  145.7101  141.0109  143.1458 LP  0  0  0  0  0  0  0  0  0  0  0  0  # atno 17320 bound_to 7965
  144.7014  139.8746  143.7443 LP  0  0  0  0  0  0  0  0  0  0  0  0  # atno 17321 bound_to 7965
  140.6421  143.2205  151.6267 LP  0  0  0  0  0  0  0  0  0  0  0  0  # atno 17342 bound_to 10162
  139.5235  144.3131  152.0975 LP  0  0  0  0  0  0  0  0  0  0  0  0  # atno 17343 bound_to 10162
  156.0514  130.5582  150.8997 LP  0  0  0  0  0  0  0  0  0  0  0  0  # atno 17370 bound_to 10713
  157.5938  131.0943  150.9074 LP  0  0  0  0  0  0  0  0  0  0  0  0  # atno 17371 bound_to 10713
  140.8549  133.8103  155.9206 LP  0  0  0  0  0  0  0  0  0  0  0  0  # atno 17394 bound_to 11000
  140.9107  134.2264  157.4987 LP  0  0  0  0  0  0  0  0  0  0  0  0  # atno 17395 bound_to 11000

$$$$
