AV-unprocessed.smi:1211|AV-procd|sdf|5080|dock3
  -GOLD-   22720 4133D 1   1.00000     0.00000
 Structure written by MMmdl.
 48 50  0  0  0  0  0  0  0  0  2 V2000
  146.7650  139.9543  151.4445 C   0  0  0  0  0  0  0  0  0  0  0  0
  146.8891  139.8790  152.9577 C   0  0  0  0  0  0  0  0  0  0  0  0
  147.0545  141.0702  153.6963 C   0  0  0  0  0  0  0  0  0  0  0  0
  147.1707  140.9995  155.0949 C   0  0  0  0  0  0  0  0  0  0  0  0
  147.1167  139.7324  155.6998 C   0  0  0  0  0  0  0  0  0  0  0  0
  146.9596  138.5889  155.0019 N   0  0  0  0  0  0  0  0  0  0  0  0
  146.8438  138.6398  153.6512 C   0  0  0  0  0  0  0  0  0  0  0  0
  146.6717  137.4749  152.8510 N   0  0  0  0  0  0  0  0  0  0  0  0
  145.5252  136.8965  152.4516 C   0  0  0  0  0  0  0  0  0  0  0  0
  144.3923  137.2998  152.7145 O   0  0  0  0  0  0  0  0  0  0  0  0
  145.7660  135.7985  151.7206 N   0  0  0  0  0  0  0  0  0  0  0  0
  144.7463  134.9393  151.1185 C   0  0  0  0  0  0  0  0  0  0  0  0
  144.3892  133.6905  151.9878 C   0  0  1  0  0  0  0  0  0  0  0  0
  143.6278  134.1518  153.2077 N   0  3  0  0  0  0  0  0  0  0  0  0
  144.4161  134.7897  154.2994 C   0  0  0  0  0  0  0  0  0  0  0  0
  143.5259  135.1047  155.5149 C   0  0  0  0  0  0  0  0  0  0  0  0
  142.4256  135.9115  155.1231 O   0  0  0  0  0  0  0  0  0  0  0  0
  141.6055  135.2461  154.1747 C   0  0  0  0  0  0  0  0  0  0  0  0
  142.4231  134.9748  152.9030 C   0  0  0  0  0  0  0  0  0  0  0  0
  143.6121  132.6514  151.1308 C   0  0  0  0  0  0  0  0  0  0  0  0
  144.5783  132.0393  150.1119 C   0  0  0  0  0  0  0  0  0  0  0  0
  146.1958  131.9391  150.9166 S   0  0  0  0  0  0  0  0  0  0  0  0
  145.6825  132.9237  152.3519 C   0  0  0  0  0  0  0  0  0  0  0  0
  146.8182  140.9851  151.0927 H   0  0  0  0  0  0  0  0  0  0  0  0
  145.8113  139.5383  151.1186 H   0  0  0  0  0  0  0  0  0  0  0  0
  147.5705  139.3953  150.9671 H   0  0  0  0  0  0  0  0  0  0  0  0
  147.0928  142.0288  153.1999 H   0  0  0  0  0  0  0  0  0  0  0  0
  147.2978  141.8928  155.6883 H   0  0  0  0  0  0  0  0  0  0  0  0
  147.2019  139.6330  156.7717 H   0  0  0  0  0  0  0  0  0  0  0  0
  147.5269  137.0312  152.5512 H   0  0  0  0  0  0  0  0  0  0  0  0
  146.7288  135.5532  151.5428 H   0  0  0  0  0  0  0  0  0  0  0  0
  143.8636  135.5258  150.8638 H   0  0  0  0  0  0  0  0  0  0  0  0
  145.1369  134.6254  150.1513 H   0  0  0  0  0  0  0  0  0  0  0  0
  145.2016  134.1250  154.6555 H   0  0  0  0  0  0  0  0  0  0  0  0
  144.8900  135.7014  153.9341 H   0  0  0  0  0  0  0  0  0  0  0  0
  143.1672  134.1854  155.9809 H   0  0  0  0  0  0  0  0  0  0  0  0
  144.1012  135.6379  156.2719 H   0  0  0  0  0  0  0  0  0  0  0  0
  141.2096  134.3195  154.5937 H   0  0  0  0  0  0  0  0  0  0  0  0
  140.7509  135.8816  153.9419 H   0  0  0  0  0  0  0  0  0  0  0  0
  142.7200  135.9277  152.4639 H   0  0  0  0  0  0  0  0  0  0  0  0
  141.7808  134.4773  152.1785 H   0  0  0  0  0  0  0  0  0  0  0  0
  143.2798  131.8124  151.7405 H   0  0  0  0  0  0  0  0  0  0  0  0
  142.7228  133.0640  150.6557 H   0  0  0  0  0  0  0  0  0  0  0  0
  144.2492  131.0535  149.7821 H   0  0  0  0  0  0  0  0  0  0  0  0
  144.6610  132.6674  149.2248 H   0  0  0  0  0  0  0  0  0  0  0  0
  146.4929  133.5813  152.6680 H   0  0  0  0  0  0  0  0  0  0  0  0
  145.4970  132.2240  153.1674 H   0  0  0  0  0  0  0  0  0  0  0  0
  143.2772  133.2989  153.6196 H   0  0  0  0  0  0  0  0  0  0  0  0
  1  2  1  0  0  0  0
  1 24  1  0  0  0  0
  1 25  1  0  0  0  0
  1 26  1  0  0  0  0
  2  7  1  0  0  0  0
  2  3  2  0  0  0  0
  3  4  1  0  0  0  0
  3 27  1  0  0  0  0
  4  5  2  0  0  0  0
  4 28  1  0  0  0  0
  5  6  1  0  0  0  0
  5 29  1  0  0  0  0
  6  7  2  0  0  0  0
  7  8  1  0  0  0  0
  8  9  1  0  0  0  0
  8 30  1  0  0  0  0
  9 10  2  0  0  0  0
  9 11  1  0  0  0  0
 11 12  1  0  0  0  0
 11 31  1  0  0  0  0
 12 13  1  0  0  0  0
 12 32  1  0  0  0  0
 12 33  1  0  0  0  0
 13 23  1  0  0  0  0
 13 14  1  0  0  0  0
 13 20  1  0  0  0  0
 14 19  1  0  0  0  0
 14 15  1  0  0  0  0
 14 48  1  0  0  0  0
 15 16  1  0  0  0  0
 15 34  1  0  0  0  0
 15 35  1  0  0  0  0
 16 17  1  0  0  0  0
 16 36  1  0  0  0  0
 16 37  1  0  0  0  0
 17 18  1  0  0  0  0
 18 19  1  0  0  0  0
 18 38  1  0  0  0  0
 18 39  1  0  0  0  0
 19 40  1  0  0  0  0
 19 41  1  0  0  0  0
 20 21  1  0  0  0  0
 20 42  1  0  0  0  0
 20 43  1  0  0  0  0
 21 22  1  0  0  0  0
 21 44  1  0  0  0  0
 21 45  1  0  0  0  0
 22 23  1  0  0  0  0
 23 46  1  0  0  0  0
 23 47  1  0  0  0  0
M  CHG  1  14   1
M  END
> <s_m_source_file>
AV-unprocessed.smi

> <i_m_source_file_index>
1211

> <i_lp_mmshare_version>
43012

> <i_f3d_flags>
0

> <s_epik_input>
W0NIM11jMVtjSF1bY0hdW2NIXW5jMVtOSF1DKD1PKVtOSF1bQ0gyXVtDQF0yKFtDSDJdW0NIMl1TW0NIMl0yKU4zW0NIMl1bQ0gyXU9bQ0gyXVtDSDJdMw==

> <s_epik_cmdline>
J2VwaWtfcHl0aG9uJywgJy1waCcsICc3LjAnLCAnLXRuJywgJzgnLCAnLW1hJywgJzIwMCcsICctbWV0YWxfYmluZGluZycsICctaW1hZScsICc8aW5maWxlLm1hZT4nLCAnLW9tYWUnLCAnPG91dGZpbGUubWFlPic=

> <r_epik_Ionization_Penalty>
2.03223

> <r_epik_Ionization_Penalty_Charging>
2.03219

> <r_epik_Ionization_Penalty_Neutral>
4.05816e-05

> <r_epik_State_Penalty>
2.16328

> <r_epik_Charging_Adjusted_Penalty>
4.19546

> <i_epik_Tot_Q>
1

> <i_epik_Tot_abs_Q>
1

> <r_epik_Metal_State_Penalty>
2.16328

> <b_epik_Metal_Only>
0

> <s_lp_Force_Field>
OPLS_2005

> <r_lp_Energy>
45.8952

> <b_lp_Chiralities_Consistent>
1

> <s_lp_Variant>
AV-unprocessed.smi:1211-3

> <Gold.Version>
5.8.1

> <Gold.Id.Protein>
6NUR|6NUR_protein|mol2

> <Gold.PLP.Fitness>
39.8207

> <Gold.PLP.PLP>
-32.3595

> <Gold.PLP.part.hbond>
-3.0565

> <Gold.PLP.part.metal>
0.0000

> <Gold.PLP.part.buried>
-1.1046

> <Gold.PLP.part.nonpolar>
-29.8200

> <Gold.PLP.part.repulsive>
0.3740

> <Gold.PLP.ligand.clash>
0.0000

> <Gold.PLP.ligand.torsion>
1.2487

> <Gold.PLP.Chemscore.Hbond>
3.2717

> <Gold.PLP.Chemscore.CHOScore>
0.0000

> <Gold.PLP.Chemscore.Metal>
0.0000

> <Gold.Chemscore.Hbonds>
donor molecule, donor type, donor heavy atom, donor atom, acceptor molecule, acceptor atom, score
      L1  H     8    30       P1  7948  1.00
      L1  H    11    31       P1  7948  0.28
      L1  H    14    48       P1 10957  2.00

> <Gold.PLP.Chemscore.Internal.Correction>
0.1435

> <Gold.Rescore>
     Score         DG    S(hbond)    S(metal)    S(lipo)     H(rot)  DE(clash)    DE(int)     intcor
     14.20     -19.78       2.23        0.00      91.02       1.48       1.30       4.29       ----

> <Gold.Chemscore.Fitness>
14.1953

> <Gold.Chemscore.DG>
-19.7805

> <Gold.Chemscore.ZeroCoef>
-5.4800

> <Gold.Chemscore.Hbond>
2.2290

> <Gold.Chemscore.Metal>
0.0000

> <Gold.Chemscore.Lipo>
91.0225

> <Gold.Chemscore.Internal_Hbond>
0.0000

> <Gold.Chemscore.DEClash>
1.2992

> <Gold.Chemscore.DEInternal>
4.2861

> <Gold.Chemscore.Rot>
1.4820

> <Gold.Chemscore.Internal.Correction>
   9.000000E+99

> <Gold.Chemscore.Hbonds>
donor molecule, donor type, donor heavy atom, donor atom, acceptor molecule, acceptor atom, score
      L1  H     8    30       P1  7948  1.00
      L1  H    11    31       P1  7948  0.27
      L1  H    14    48       P1 10957  0.93

> <Gold.Chemscore.Hbond.Weighted>
-7.4447

> <Gold.Chemscore.Metal.Weighted>
-0.0000

> <Gold.Chemscore.Lipo.Weighted>
-10.6496

> <Gold.Chemscore.Internal_Hbond.Weighted>
0.0000

> <Gold.Chemscore.DEClash.Weighted>
1.2992

> <Gold.Chemscore.DEInternal.Weighted>
4.2861

> <Gold.Chemscore.Rot.Weighted>
3.7939

> <Gold.Chemscore.Internal.Correction.Weighted>
   9.000000E+99

> <Gold.Protein.RotatedTorsions>
[ 6907 6896 6895 6894 ] final -108.01 input  -60.11 | X-H torsion
[ 7974 7965 7964 7962 ] final  145.62 input  175.53 | X-H torsion
[ 8008 7997 7996 7995 ] final   70.92 input   59.86 | X-H torsion
[ 10167 10162 10161 10158 ] final  116.03 input  -65.29 | X-H torsion
[ 10718 10713 10712 10709 ] final  166.49 input   66.30 | X-H torsion
[ 10763 10752 10751 10750 ] final  164.44 input  -60.55 | X-H torsion
[ 11005 11000 10999 10996 ] final   62.77 input  -57.11 | X-H torsion

> <Gold.Protein.ActiveResidues>
 VAL166  LYS551  ARG553  GLY616  TRP617  ASP618  TYR619  PRO620  LYS621  CYS622 
 ASP623  PHE694  ASN695  SER759  ASP760  ASP761  ALA762  ILE779  LEU786  VAL792 
 PHE793  MET794  SER795  GLU796  ALA797  LYS798  CYS799  TRP800  GLU811  SER814 

> <Gold.Protein.RotatedAtoms>
  150.7477  133.9741  159.3555 H   0  0  0  0  0  0  0  0  0  0  0  0  # atno 6907 bound_to 6896
  151.7677  135.0792  160.0364 H   0  0  0  0  0  0  0  0  0  0  0  0  # atno 6908 bound_to 6896
  152.3360  133.5975  159.5879 H   0  0  0  0  0  0  0  0  0  0  0  0  # atno 6909 bound_to 6896
  144.8738  139.5805  143.5874 H   0  0  0  0  0  0  0  0  0  0  0  0  # atno 7974 bound_to 7965
  155.7462  140.3489  155.5128 H   0  0  0  0  0  0  0  0  0  0  0  0  # atno 8008 bound_to 7997
  155.9048  140.1040  157.1344 H   0  0  0  0  0  0  0  0  0  0  0  0  # atno 8009 bound_to 7997
  154.4048  140.1279  156.4469 H   0  0  0  0  0  0  0  0  0  0  0  0  # atno 8010 bound_to 7997
  139.6275  144.7110  151.2502 H   0  0  0  0  0  0  0  0  0  0  0  0  # atno 10167 bound_to 10162
  157.0651  131.0351  151.2632 H   0  0  0  0  0  0  0  0  0  0  0  0  # atno 10718 bound_to 10713
  154.3089  135.2757  155.2575 H   0  0  0  0  0  0  0  0  0  0  0  0  # atno 10763 bound_to 10752
  154.4979  135.5816  153.6512 H   0  0  0  0  0  0  0  0  0  0  0  0  # atno 10764 bound_to 10752
  152.9890  135.6150  154.3265 H   0  0  0  0  0  0  0  0  0  0  0  0  # atno 10765 bound_to 10752
  140.0069  134.6355  155.9840 H   0  0  0  0  0  0  0  0  0  0  0  0  # atno 11005 bound_to 11000
  146.2948  139.7246  142.9134 LP  0  0  0  0  0  0  0  0  0  0  0  0  # atno 17320 bound_to 7965
  145.4081  141.0393  143.3033 LP  0  0  0  0  0  0  0  0  0  0  0  0  # atno 17321 bound_to 7965
  140.7420  143.6540  150.8223 LP  0  0  0  0  0  0  0  0  0  0  0  0  # atno 17342 bound_to 10162
  140.0161  143.5592  152.2820 LP  0  0  0  0  0  0  0  0  0  0  0  0  # atno 17343 bound_to 10162
  157.4923  130.7830  149.7520 LP  0  0  0  0  0  0  0  0  0  0  0  0  # atno 17370 bound_to 10713
  155.9967  130.3904  150.2770 LP  0  0  0  0  0  0  0  0  0  0  0  0  # atno 17371 bound_to 10713
  141.1683  133.6537  156.4560 LP  0  0  0  0  0  0  0  0  0  0  0  0  # atno 17394 bound_to 11000
  140.4624  134.6829  157.5091 LP  0  0  0  0  0  0  0  0  0  0  0  0  # atno 17395 bound_to 11000

$$$$
