AV-unprocessed.smi:1222|AV-procd|sdf|5125|dock3
  -GOLD-   22720 4183D 1   1.00000     0.00000
 Structure written by MMmdl.
 35 37  0  0  0  0  0  0  0  0  2 V2000
  150.7926  140.5673  155.3287 O   0  0  0  0  0  0  0  0  0  0  0  0
  150.0021  141.5085  155.4276 C   0  0  0  0  0  0  0  0  0  0  0  0
  148.8930  141.7017  154.6775 N   0  5  0  0  0  0  0  0  0  0  0  0
  148.2300  140.6475  154.1748 C   0  0  0  0  0  0  0  0  0  0  0  0
  147.1049  140.7645  153.4600 N   0  0  0  0  0  0  0  0  0  0  0  0
  146.5887  139.5396  153.0327 C   0  0  0  0  0  0  0  0  0  0  0  0
  147.3440  138.4656  153.4223 C   0  0  0  0  0  0  0  0  0  0  0  0
  148.7335  138.9634  154.3448 S   0  0  0  0  0  0  0  0  0  0  0  0
  150.2044  142.4671  156.3438 N   0  0  0  0  0  0  0  0  0  0  0  0
  151.3095  142.5458  157.2972 C   0  0  0  0  0  0  0  0  0  0  0  0
  151.1218  141.5097  158.4164 C   0  0  0  0  0  0  0  0  0  0  0  0
  152.1929  141.6791  159.5083 C   0  0  0  0  0  0  0  0  0  0  0  0
  152.1392  143.0299  160.0691 N   0  0  0  0  0  0  0  0  0  0  0  0
  153.1403  143.1421  161.1174 C   0  0  0  0  0  0  0  0  0  0  0  0
  152.9071  142.3661  162.3935 C   0  0  0  0  0  0  0  0  0  0  0  0
  152.7483  143.8674  162.3844 C   0  0  0  0  0  0  0  0  0  0  0  0
  152.4350  144.0140  159.0270 C   0  0  0  0  0  0  0  0  0  0  0  0
  151.3732  143.9506  157.9150 C   0  0  0  0  0  0  0  0  0  0  0  0
  145.6775  139.5261  152.4537 H   0  0  0  0  0  0  0  0  0  0  0  0
  147.1702  137.4187  153.2242 H   0  0  0  0  0  0  0  0  0  0  0  0
  149.5251  143.2130  156.3801 H   0  0  0  0  0  0  0  0  0  0  0  0
  152.2634  142.3505  156.8040 H   0  0  0  0  0  0  0  0  0  0  0  0
  150.1308  141.6140  158.8615 H   0  0  0  0  0  0  0  0  0  0  0  0
  151.1712  140.5016  158.0035 H   0  0  0  0  0  0  0  0  0  0  0  0
  152.0226  140.9490  160.3005 H   0  0  0  0  0  0  0  0  0  0  0  0
  153.1844  141.4807  159.0981 H   0  0  0  0  0  0  0  0  0  0  0  0
  154.1841  143.2521  160.8267 H   0  0  0  0  0  0  0  0  0  0  0  0
  152.0015  141.7667  162.4682 H   0  0  0  0  0  0  0  0  0  0  0  0
  153.7800  141.9562  162.8972 H   0  0  0  0  0  0  0  0  0  0  0  0
  153.5155  144.4574  162.8815 H   0  0  0  0  0  0  0  0  0  0  0  0
  151.7376  144.2657  162.4520 H   0  0  0  0  0  0  0  0  0  0  0  0
  152.4445  145.0137  159.4625 H   0  0  0  0  0  0  0  0  0  0  0  0
  153.4281  143.8360  158.6115 H   0  0  0  0  0  0  0  0  0  0  0  0
  151.6022  144.6867  157.1437 H   0  0  0  0  0  0  0  0  0  0  0  0
  150.4001  144.2244  158.3263 H   0  0  0  0  0  0  0  0  0  0  0  0
  1  2  2  0  0  0  0
  2  3  1  0  0  0  0
  2  9  1  0  0  0  0
  3  4  1  0  0  0  0
  4  8  1  0  0  0  0
  4  5  2  0  0  0  0
  5  6  1  0  0  0  0
  6  7  2  0  0  0  0
  6 19  1  0  0  0  0
  7  8  1  0  0  0  0
  7 20  1  0  0  0  0
  9 10  1  0  0  0  0
  9 21  1  0  0  0  0
 10 18  1  0  0  0  0
 10 11  1  0  0  0  0
 10 22  1  0  0  0  0
 11 12  1  0  0  0  0
 11 23  1  0  0  0  0
 11 24  1  0  0  0  0
 12 13  1  0  0  0  0
 12 25  1  0  0  0  0
 12 26  1  0  0  0  0
 13 14  1  0  0  0  0
 13 17  1  0  0  0  0
 14 16  1  0  0  0  0
 14 15  1  0  0  0  0
 14 27  1  0  0  0  0
 15 16  1  0  0  0  0
 15 28  1  0  0  0  0
 15 29  1  0  0  0  0
 16 30  1  0  0  0  0
 16 31  1  0  0  0  0
 17 18  1  0  0  0  0
 17 32  1  0  0  0  0
 17 33  1  0  0  0  0
 18 34  1  0  0  0  0
 18 35  1  0  0  0  0
M  CHG  1   3  -1
M  END
> <s_m_source_file>
AV-unprocessed.smi

> <i_m_source_file_index>
1222

> <i_lp_mmshare_version>
43012

> <i_f3d_flags>
0

> <s_epik_input>
czFbY0hdW2NIXW5jMVtOSF1DKD1PKVtOSF1bQ0hdMltDSDJdW0NIMl1OKFtDSDJdW0NIMl0yKVtDSF0zW0NIMl1bQ0gyXTM=

> <s_epik_cmdline>
J2VwaWtfcHl0aG9uJywgJy1waCcsICc3LjAnLCAnLXRuJywgJzgnLCAnLW1hJywgJzIwMCcsICctbWV0YWxfYmluZGluZycsICctaW1hZScsICc8aW5maWxlLm1hZT4nLCAnLW9tYWUnLCAnPG91dGZpbGUubWFlPic=

> <r_lp_tautomer_probability>
0.999

> <r_epik_Ionization_Penalty>
8.0332

> <r_epik_Ionization_Penalty_Charging>
5.90974

> <r_epik_Ionization_Penalty_Neutral>
2.12346

> <r_epik_State_Penalty>
6.94233

> <r_epik_Charging_Adjusted_Penalty>
12.8521

> <i_epik_Tot_Q>
-1

> <i_epik_Tot_abs_Q>
1

> <r_epik_Metal_State_Penalty>
2.92331

> <b_epik_Metal_Only>
1

> <s_lp_Force_Field>
OPLS_2005

> <r_lp_Energy>
17.9204

> <b_lp_Chiralities_Consistent>
1

> <s_lp_Variant>
AV-unprocessed.smi:1222-6

> <Gold.Version>
5.8.1

> <Gold.Id.Protein>
6NUR|6NUR_protein|mol2

> <Gold.PLP.Fitness>
47.8536

> <Gold.PLP.PLP>
-37.3847

> <Gold.PLP.part.hbond>
-2.6570

> <Gold.PLP.part.metal>
0.0000

> <Gold.PLP.part.buried>
-2.2896

> <Gold.PLP.part.nonpolar>
-32.1502

> <Gold.PLP.part.repulsive>
0.4954

> <Gold.PLP.ligand.clash>
0.0000

> <Gold.PLP.ligand.torsion>
0.9910

> <Gold.PLP.Chemscore.Hbond>
1.9280

> <Gold.PLP.Chemscore.CHOScore>
1.8247

> <Gold.PLP.Chemscore.Metal>
0.0000

> <Gold.Chemscore.Hbonds>
donor molecule, donor type, donor heavy atom, donor atom, acceptor molecule, acceptor atom, score
      L1  H     9    21       P1  8028  0.96
      P1  H  7989  7998       L1     1  0.94
      L1  C     6    19       P1 10175  1.00
      L1  C     7    20       P1  7948  0.71

> <Gold.PLP.Chemscore.Internal.Correction>
1.1928

> <Gold.Rescore>
     Score         DG    S(hbond)    S(metal)    S(lipo)     H(rot)  DE(clash)    DE(int)     intcor
     16.21     -19.08       1.47        0.00     101.27       1.23       0.39       2.48       ----

> <Gold.Chemscore.Fitness>
16.2082

> <Gold.Chemscore.DG>
-19.0768

> <Gold.Chemscore.ZeroCoef>
-5.4800

> <Gold.Chemscore.Hbond>
1.4669

> <Gold.Chemscore.Metal>
0.0000

> <Gold.Chemscore.Lipo>
101.2651

> <Gold.Chemscore.Internal_Hbond>
0.0000

> <Gold.Chemscore.DEClash>
0.3902

> <Gold.Chemscore.DEInternal>
2.4784

> <Gold.Chemscore.Rot>
1.2308

> <Gold.Chemscore.Internal.Correction>
   9.000000E+99

> <Gold.Chemscore.Hbonds>
donor molecule, donor type, donor heavy atom, donor atom, acceptor molecule, acceptor atom, score
      L1  H     9    21       P1  8028  0.92
      P1  H  7989  7998       L1     1  0.29

> <Gold.Chemscore.Hbond.Weighted>
-4.8996

> <Gold.Chemscore.Metal.Weighted>
-0.0000

> <Gold.Chemscore.Lipo.Weighted>
-11.8480

> <Gold.Chemscore.Internal_Hbond.Weighted>
0.0000

> <Gold.Chemscore.DEClash.Weighted>
0.3902

> <Gold.Chemscore.DEInternal.Weighted>
2.4784

> <Gold.Chemscore.Rot.Weighted>
3.1508

> <Gold.Chemscore.Internal.Correction.Weighted>
   9.000000E+99

> <Gold.Protein.RotatedTorsions>
[ 6907 6896 6895 6894 ] final  -46.42 input  -60.11 | X-H torsion
[ 7974 7965 7964 7962 ] final -105.67 input  175.53 | X-H torsion
[ 8008 7997 7996 7995 ] final   62.31 input   59.86 | X-H torsion
[ 10167 10162 10161 10158 ] final  -38.06 input  -65.29 | X-H torsion
[ 10718 10713 10712 10709 ] final   55.84 input   66.30 | X-H torsion
[ 10763 10752 10751 10750 ] final  -99.40 input  -60.55 | X-H torsion
[ 11005 11000 10999 10996 ] final   34.75 input  -57.11 | X-H torsion

> <Gold.Protein.ActiveResidues>
 VAL166  LYS551  ARG553  GLY616  TRP617  ASP618  TYR619  PRO620  LYS621  CYS622 
 ASP623  PHE694  ASN695  SER759  ASP760  ASP761  ALA762  ILE779  LEU786  VAL792 
 PHE793  MET794  SER795  GLU796  ALA797  LYS798  CYS799  TRP800  GLU811  SER814 

> <Gold.Protein.RotatedAtoms>
  150.9115  134.8532  159.7428 H   0  0  0  0  0  0  0  0  0  0  0  0  # atno 6907 bound_to 6896
  152.4946  134.4352  159.9535 H   0  0  0  0  0  0  0  0  0  0  0  0  # atno 6908 bound_to 6896
  151.4394  133.3608  159.2815 H   0  0  0  0  0  0  0  0  0  0  0  0  # atno 6909 bound_to 6896
  145.2276  140.9158  143.3223 H   0  0  0  0  0  0  0  0  0  0  0  0  # atno 7974 bound_to 7965
  155.6122  140.3495  155.4626 H   0  0  0  0  0  0  0  0  0  0  0  0  # atno 8008 bound_to 7997
  156.0145  140.1240  157.0444 H   0  0  0  0  0  0  0  0  0  0  0  0  # atno 8009 bound_to 7997
  154.4292  140.1075  156.5862 H   0  0  0  0  0  0  0  0  0  0  0  0  # atno 8010 bound_to 7997
  140.7102  143.3301  151.2589 H   0  0  0  0  0  0  0  0  0  0  0  0  # atno 10167 bound_to 10162
  157.5379  130.8677  149.8780 H   0  0  0  0  0  0  0  0  0  0  0  0  # atno 10718 bound_to 10713
  154.7494  135.4974  153.9262 H   0  0  0  0  0  0  0  0  0  0  0  0  # atno 10763 bound_to 10752
  153.1127  135.6713  153.9479 H   0  0  0  0  0  0  0  0  0  0  0  0  # atno 10764 bound_to 10752
  153.9234  135.3086  155.3426 H   0  0  0  0  0  0  0  0  0  0  0  0  # atno 10765 bound_to 10752
  140.2497  134.3318  155.7895 H   0  0  0  0  0  0  0  0  0  0  0  0  # atno 11005 bound_to 11000
  144.9707  139.3883  143.6310 LP  0  0  0  0  0  0  0  0  0  0  0  0  # atno 17320 bound_to 7965
  146.3361  139.8803  142.8825 LP  0  0  0  0  0  0  0  0  0  0  0  0  # atno 17321 bound_to 7965
  139.6781  143.9903  152.2792 LP  0  0  0  0  0  0  0  0  0  0  0  0  # atno 17342 bound_to 10162
  139.9524  144.6612  150.8159 LP  0  0  0  0  0  0  0  0  0  0  0  0  # atno 17343 bound_to 10162
  156.0473  130.3725  150.1285 LP  0  0  0  0  0  0  0  0  0  0  0  0  # atno 17370 bound_to 10713
  156.9466  130.9761  151.3506 LP  0  0  0  0  0  0  0  0  0  0  0  0  # atno 17371 bound_to 10713
  141.2202  133.7346  156.9017 LP  0  0  0  0  0  0  0  0  0  0  0  0  # atno 17394 bound_to 11000
  140.1570  134.9191  157.2666 LP  0  0  0  0  0  0  0  0  0  0  0  0  # atno 17395 bound_to 11000

$$$$
