AV-unprocessed.smi:430|AV-procd|sdf|2546|dock10
  -GOLD-   2262022513D 1   1.00000     0.00000
 Structure written by MMmdl.
 37 38  0  0  0  0  0  0  0  0  1 V2000
  149.9922  133.5206  154.7853 C   0  0  0  0  0  0  0  0  0  0  0  0
  149.6540  135.0094  154.9607 C   0  0  0  0  0  0  0  0  0  0  0  0
  150.8844  135.9064  155.1309 C   0  0  0  0  0  0  0  0  0  0  0  0
  151.6384  135.7759  156.0960 O   0  0  0  0  0  0  0  0  0  0  0  0
  151.0736  136.8251  154.1716 N   0  0  0  0  0  0  0  0  0  0  0  0
  152.1826  137.7736  154.1250 C   0  0  0  0  0  0  0  0  0  0  0  0
  152.1587  138.8489  155.2038 C   0  0  0  0  0  0  0  0  0  0  0  0
  151.2312  139.9048  155.1185 C   0  0  0  0  0  0  0  0  0  0  0  0
  151.2095  140.8863  156.1276 C   0  0  0  0  0  0  0  0  0  0  0  0
  152.1233  140.7891  157.2073 C   0  0  0  0  0  0  0  0  0  0  0  0
  152.1508  141.7343  158.2579 N   0  0  0  0  0  0  0  0  0  0  0  0
  152.1827  143.1553  157.9217 C   0  0  0  0  0  0  0  0  0  0  0  0
  151.8738  144.0113  159.1616 C   0  0  0  0  0  0  0  0  0  0  0  0
  152.7662  143.6698  160.2161 O   0  0  0  0  0  0  0  0  0  0  0  0
  152.6155  142.3111  160.6119 C   0  0  0  0  0  0  0  0  0  0  0  0
  152.9499  141.3829  159.4316 C   0  0  0  0  0  0  0  0  0  0  0  0
  153.0100  139.7675  157.2872 N   0  0  0  0  0  0  0  0  0  0  0  0
  153.0247  138.8285  156.3183 C   0  0  0  0  0  0  0  0  0  0  0  0
  149.0838  132.9333  154.6524 H   0  0  0  0  0  0  0  0  0  0  0  0
  150.5147  133.1254  155.6572 H   0  0  0  0  0  0  0  0  0  0  0  0
  150.6210  133.3546  153.9098 H   0  0  0  0  0  0  0  0  0  0  0  0
  149.0886  135.3576  154.0957 H   0  0  0  0  0  0  0  0  0  0  0  0
  149.0069  135.1354  155.8296 H   0  0  0  0  0  0  0  0  0  0  0  0
  150.4067  136.8654  153.4144 H   0  0  0  0  0  0  0  0  0  0  0  0
  153.1291  137.2321  154.1722 H   0  0  0  0  0  0  0  0  0  0  0  0
  152.1609  138.2684  153.1541 H   0  0  0  0  0  0  0  0  0  0  0  0
  150.5423  139.9651  154.2886 H   0  0  0  0  0  0  0  0  0  0  0  0
  150.4999  141.6953  156.0444 H   0  0  0  0  0  0  0  0  0  0  0  0
  153.1666  143.4100  157.5257 H   0  0  0  0  0  0  0  0  0  0  0  0
  151.4463  143.3790  157.1490 H   0  0  0  0  0  0  0  0  0  0  0  0
  151.9907  145.0689  158.9252 H   0  0  0  0  0  0  0  0  0  0  0  0
  150.8409  143.8703  159.4844 H   0  0  0  0  0  0  0  0  0  0  0  0
  153.2850  142.1091  161.4479 H   0  0  0  0  0  0  0  0  0  0  0  0
  151.5995  142.1347  160.9691 H   0  0  0  0  0  0  0  0  0  0  0  0
  152.7808  140.3514  159.7406 H   0  0  0  0  0  0  0  0  0  0  0  0
  154.0064  141.4698  159.1753 H   0  0  0  0  0  0  0  0  0  0  0  0
  153.7503  138.0394  156.4483 H   0  0  0  0  0  0  0  0  0  0  0  0
  1  2  1  0  0  0  0
  1 19  1  0  0  0  0
  1 20  1  0  0  0  0
  1 21  1  0  0  0  0
  2  3  1  0  0  0  0
  2 22  1  0  0  0  0
  2 23  1  0  0  0  0
  3  4  2  0  0  0  0
  3  5  1  0  0  0  0
  5  6  1  0  0  0  0
  5 24  1  0  0  0  0
  6  7  1  0  0  0  0
  6 25  1  0  0  0  0
  6 26  1  0  0  0  0
  7 18  1  0  0  0  0
  7  8  2  0  0  0  0
  8  9  1  0  0  0  0
  8 27  1  0  0  0  0
  9 10  2  0  0  0  0
  9 28  1  0  0  0  0
 10 11  1  0  0  0  0
 10 17  1  0  0  0  0
 11 16  1  0  0  0  0
 11 12  1  0  0  0  0
 12 13  1  0  0  0  0
 12 29  1  0  0  0  0
 12 30  1  0  0  0  0
 13 14  1  0  0  0  0
 13 31  1  0  0  0  0
 13 32  1  0  0  0  0
 14 15  1  0  0  0  0
 15 16  1  0  0  0  0
 15 33  1  0  0  0  0
 15 34  1  0  0  0  0
 16 35  1  0  0  0  0
 16 36  1  0  0  0  0
 17 18  2  0  0  0  0
 18 37  1  0  0  0  0
M  END
> <s_m_source_file>
AV-unprocessed.smi

> <i_m_source_file_index>
430

> <i_lp_mmshare_version>
43012

> <i_f3d_flags>
0

> <s_epik_input>
W0NIM11bQ0gyXUMoPU8pW05IXVtDSDJdYzFbY0hdW2NIXWMobltjSF0xKU4yW0NIMl1bQ0gyXU9bQ0gyXVtDSDJdMg==

> <s_epik_cmdline>
J2VwaWtfcHl0aG9uJywgJy1waCcsICc3LjAnLCAnLXRuJywgJzgnLCAnLW1hJywgJzIwMCcsICctbWV0YWxfYmluZGluZycsICctaW1hZScsICc8aW5maWxlLm1hZT4nLCAnLW9tYWUnLCAnPG91dGZpbGUubWFlPic=

> <r_lp_tautomer_probability>
1

> <r_epik_Ionization_Penalty>
0.00505548

> <r_epik_Ionization_Penalty_Charging>
0

> <r_epik_Ionization_Penalty_Neutral>
0.00505548

> <r_epik_State_Penalty>
0.00367784

> <r_epik_Charging_Adjusted_Penalty>
0.00367784

> <i_epik_Tot_Q>
0

> <i_epik_Tot_abs_Q>
0

> <r_epik_Metal_State_Penalty>
-0

> <b_epik_Metal_Only>
0

> <s_lp_Force_Field>
OPLS_2005

> <r_lp_Energy>
16.0515

> <b_lp_Chiralities_Consistent>
1

> <s_lp_Variant>
AV-unprocessed.smi:430-1

> <Gold.Version>
5.8.1

> <Gold.Id.Protein>
6NUR|6NUR_protein|mol2

> <Gold.PLP.Fitness>
43.9489

> <Gold.PLP.PLP>
-36.5379

> <Gold.PLP.part.hbond>
-4.0000

> <Gold.PLP.part.metal>
0.0000

> <Gold.PLP.part.buried>
-1.8922

> <Gold.PLP.part.nonpolar>
-29.7651

> <Gold.PLP.part.repulsive>
0.1021

> <Gold.PLP.ligand.clash>
0.0000

> <Gold.PLP.ligand.torsion>
0.4403

> <Gold.PLP.Chemscore.Hbond>
2.6120

> <Gold.PLP.Chemscore.CHOScore>
0.0000

> <Gold.PLP.Chemscore.Metal>
0.0000

> <Gold.Chemscore.Hbonds>
donor molecule, donor type, donor heavy atom, donor atom, acceptor molecule, acceptor atom, score
      L1  H     5    24       P1  7948  0.30
      P1  H  7997  8010       L1    17  0.30
      P1  H 10752 10765       L1     4  0.30

> <Gold.PLP.Chemscore.Internal.Correction>
0.4555

> <Gold.Rescore>
     Score         DG    S(hbond)    S(metal)    S(lipo)     H(rot)  DE(clash)    DE(int)     intcor
     17.36     -18.36       2.00        0.00      88.44       1.62       0.42       0.58       ----

> <Gold.Chemscore.Fitness>
17.3640

> <Gold.Chemscore.DG>
-18.3645

> <Gold.Chemscore.ZeroCoef>
-5.4800

> <Gold.Chemscore.Hbond>
1.9997

> <Gold.Chemscore.Metal>
0.0000

> <Gold.Chemscore.Lipo>
88.4374

> <Gold.Chemscore.Internal_Hbond>
0.0000

> <Gold.Chemscore.DEClash>
0.4165

> <Gold.Chemscore.DEInternal>
0.5840

> <Gold.Chemscore.Rot>
1.6178

> <Gold.Chemscore.Internal.Correction>
   9.000000E+99

> <Gold.Chemscore.Hbonds>
donor molecule, donor type, donor heavy atom, donor atom, acceptor molecule, acceptor atom, score
      L1  H     5    24       P1  7948  0.01

> <Gold.Chemscore.Hbond.Weighted>
-6.6789

> <Gold.Chemscore.Metal.Weighted>
-0.0000

> <Gold.Chemscore.Lipo.Weighted>
-10.3472

> <Gold.Chemscore.Internal_Hbond.Weighted>
0.0000

> <Gold.Chemscore.DEClash.Weighted>
0.4165

> <Gold.Chemscore.DEInternal.Weighted>
0.5840

> <Gold.Chemscore.Rot.Weighted>
4.1416

> <Gold.Chemscore.Internal.Correction.Weighted>
   9.000000E+99

> <Gold.Protein.RotatedTorsions>
[ 6907 6896 6895 6894 ] final   17.83 input  -60.11 | X-H torsion
[ 7974 7965 7964 7962 ] final  145.80 input  175.53 | X-H torsion
[ 8008 7997 7996 7995 ] final   45.05 input   59.86 | X-H torsion
[ 10167 10162 10161 10158 ] final -147.89 input  -65.29 | X-H torsion
[ 10718 10713 10712 10709 ] final   23.57 input   66.30 | X-H torsion
[ 10763 10752 10751 10750 ] final -166.60 input  -60.55 | X-H torsion
[ 11005 11000 10999 10996 ] final   58.11 input  -57.11 | X-H torsion

> <Gold.Protein.ActiveResidues>
 VAL166  LYS551  ARG553  GLY616  TRP617  ASP618  TYR619  PRO620  LYS621  CYS622 
 ASP623  PHE694  ASN695  SER759  ASP760  ASP761  ALA762  ILE779  LEU786  VAL792 
 PHE793  MET794  SER795  GLU796  ALA797  LYS798  CYS799  TRP800  GLU811  SER814 

> <Gold.Protein.RotatedAtoms>
  151.8558  135.0541  160.0463 H   0  0  0  0  0  0  0  0  0  0  0  0  # atno 6907 bound_to 6896
  152.2701  133.5370  159.5442 H   0  0  0  0  0  0  0  0  0  0  0  0  # atno 6908 bound_to 6896
  150.7148  134.0626  159.3879 H   0  0  0  0  0  0  0  0  0  0  0  0  # atno 6909 bound_to 6896
  144.8723  139.5827  143.5881 H   0  0  0  0  0  0  0  0  0  0  0  0  # atno 7974 bound_to 7965
  155.3294  140.3401  155.4240 H   0  0  0  0  0  0  0  0  0  0  0  0  # atno 8008 bound_to 7997
  156.1869  140.1683  156.8204 H   0  0  0  0  0  0  0  0  0  0  0  0  # atno 8009 bound_to 7997
  154.5396  140.0727  156.8471 H   0  0  0  0  0  0  0  0  0  0  0  0  # atno 8010 bound_to 7997
  139.7581  143.8418  152.2601 H   0  0  0  0  0  0  0  0  0  0  0  0  # atno 10167 bound_to 10162
  157.1679  130.6746  149.6067 H   0  0  0  0  0  0  0  0  0  0  0  0  # atno 10718 bound_to 10713
  154.6817  135.2955  154.9604 H   0  0  0  0  0  0  0  0  0  0  0  0  # atno 10763 bound_to 10752
  154.0596  135.6633  153.4814 H   0  0  0  0  0  0  0  0  0  0  0  0  # atno 10764 bound_to 10752
  153.0552  135.5149  154.7864 H   0  0  0  0  0  0  0  0  0  0  0  0  # atno 10765 bound_to 10752
  140.0402  134.5885  155.9392 H   0  0  0  0  0  0  0  0  0  0  0  0  # atno 11005 bound_to 11000
  146.2938  139.7218  142.9141 LP  0  0  0  0  0  0  0  0  0  0  0  0  # atno 17320 bound_to 7965
  145.4108  141.0396  143.3018 LP  0  0  0  0  0  0  0  0  0  0  0  0  # atno 17321 bound_to 7965
  139.8416  144.7207  150.9324 LP  0  0  0  0  0  0  0  0  0  0  0  0  # atno 17342 bound_to 10162
  140.7804  143.3978  151.1200 LP  0  0  0  0  0  0  0  0  0  0  0  0  # atno 17343 bound_to 10162
  155.9743  130.4689  150.6376 LP  0  0  0  0  0  0  0  0  0  0  0  0  # atno 17370 bound_to 10713
  157.4071  131.0818  151.1255 LP  0  0  0  0  0  0  0  0  0  0  0  0  # atno 17371 bound_to 10713
  141.1879  133.6561  156.5300 LP  0  0  0  0  0  0  0  0  0  0  0  0  # atno 17394 bound_to 11000
  140.4082  134.7296  157.4820 LP  0  0  0  0  0  0  0  0  0  0  0  0  # atno 17395 bound_to 11000

$$$$
