AV-unprocessed.smi:1667|AV-procd|sdf|6673|dock4
  -GOLD-   22720 7383D 1   1.00000     0.00000
 Structure written by MMmdl.
 45 47  0  0  0  0  0  0  0  0  1 V2000
  149.6794  139.5863  154.4080 C   0  0  0  0  0  0  0  0  0  0  0  0
  150.8762  139.6030  155.3523 C   0  0  0  0  0  0  0  0  0  0  0  0
  151.9273  140.1351  154.9994 O   0  0  0  0  0  0  0  0  0  0  0  0
  150.6905  139.0152  156.5465 N   0  0  0  0  0  0  0  0  0  0  0  0
  151.6455  138.8939  157.6511 C   0  0  1  0  0  0  0  0  0  0  0  0
  152.9799  138.2402  157.2420 C   0  0  0  0  0  0  0  0  0  0  0  0
  151.7945  140.2261  158.3482 C   0  0  0  0  0  0  0  0  0  0  0  0
  151.1034  141.3026  157.9662 N   0  0  0  0  0  0  0  0  0  0  0  0
  151.4725  142.2553  158.8918 C   0  0  0  0  0  0  0  0  0  0  0  0
  151.0803  143.6066  159.0221 C   0  0  0  0  0  0  0  0  0  0  0  0
  151.5873  144.3987  160.0726 C   0  0  0  0  0  0  0  0  0  0  0  0
  152.4896  143.8507  161.0067 C   0  0  0  0  0  0  0  0  0  0  0  0
  152.8920  142.5060  160.8940 C   0  0  0  0  0  0  0  0  0  0  0  0
  152.3877  141.7200  159.8398 C   0  0  0  0  0  0  0  0  0  0  0  0
  152.5757  140.3956  159.4503 N   0  0  0  0  0  0  0  0  0  0  0  0
  153.4224  139.4183  160.1314 C   0  0  0  0  0  0  0  0  0  0  0  0
  154.6066  140.0382  160.9110 C   0  0  2  0  0  0  0  0  0  0  0  0
  155.7542  140.1142  160.0884 O   0  0  0  0  0  0  0  0  0  0  0  0
  154.8792  139.3394  162.2366 C   0  0  0  0  0  0  0  0  0  0  0  0
  155.7162  139.9284  163.2115 C   0  0  0  0  0  0  0  0  0  0  0  0
  155.9723  139.2614  164.4250 C   0  0  0  0  0  0  0  0  0  0  0  0
  155.3969  138.0005  164.6711 C   0  0  0  0  0  0  0  0  0  0  0  0
  154.5626  137.4080  163.7041 C   0  0  0  0  0  0  0  0  0  0  0  0
  154.0117  136.1936  163.9376 F   0  0  0  0  0  0  0  0  0  0  0  0
  154.3030  138.0765  162.4918 C   0  0  0  0  0  0  0  0  0  0  0  0
  151.1899  138.1929  158.3455 H   0  0  0  0  0  0  0  0  0  0  0  0
  149.3836  138.5610  154.1848 H   0  0  0  0  0  0  0  0  0  0  0  0
  149.9199  140.0843  153.4682 H   0  0  0  0  0  0  0  0  0  0  0  0
  148.8310  140.1013  154.8594 H   0  0  0  0  0  0  0  0  0  0  0  0
  149.7803  138.6121  156.7140 H   0  0  0  0  0  0  0  0  0  0  0  0
  153.6131  138.0750  158.1136 H   0  0  0  0  0  0  0  0  0  0  0  0
  153.5453  138.8552  156.5420 H   0  0  0  0  0  0  0  0  0  0  0  0
  152.8116  137.2718  156.7707 H   0  0  0  0  0  0  0  0  0  0  0  0
  150.3855  144.0332  158.3139 H   0  0  0  0  0  0  0  0  0  0  0  0
  151.2804  145.4302  160.1637 H   0  0  0  0  0  0  0  0  0  0  0  0
  152.8725  144.4627  161.8101 H   0  0  0  0  0  0  0  0  0  0  0  0
  153.5828  142.0850  161.6090 H   0  0  0  0  0  0  0  0  0  0  0  0
  152.7914  138.8573  160.8218 H   0  0  0  0  0  0  0  0  0  0  0  0
  153.7813  138.6817  159.4134 H   0  0  0  0  0  0  0  0  0  0  0  0
  154.3435  141.0717  161.1396 H   0  0  0  0  0  0  0  0  0  0  0  0
  155.4932  140.4368  159.2394 H   0  0  0  0  0  0  0  0  0  0  0  0
  156.1753  140.8891  163.0291 H   0  0  0  0  0  0  0  0  0  0  0  0
  156.6163  139.7147  165.1639 H   0  0  0  0  0  0  0  0  0  0  0  0
  155.5972  137.4874  165.6000 H   0  0  0  0  0  0  0  0  0  0  0  0
  153.6658  137.6118  161.7538 H   0  0  0  0  0  0  0  0  0  0  0  0
  1  2  1  0  0  0  0
  1 27  1  0  0  0  0
  1 28  1  0  0  0  0
  1 29  1  0  0  0  0
  2  3  2  0  0  0  0
  2  4  1  0  0  0  0
  4  5  1  0  0  0  0
  4 30  1  0  0  0  0
  5 26  1  0  0  0  0
  5  6  1  0  0  0  0
  5  7  1  0  0  0  0
  6 31  1  0  0  0  0
  6 32  1  0  0  0  0
  6 33  1  0  0  0  0
  7 15  1  0  0  0  0
  7  8  2  0  0  0  0
  8  9  1  0  0  0  0
  9 14  2  0  0  0  0
  9 10  1  0  0  0  0
 10 11  2  0  0  0  0
 10 34  1  0  0  0  0
 11 12  1  0  0  0  0
 11 35  1  0  0  0  0
 12 13  2  0  0  0  0
 12 36  1  0  0  0  0
 13 14  1  0  0  0  0
 13 37  1  0  0  0  0
 14 15  1  0  0  0  0
 15 16  1  0  0  0  0
 16 17  1  0  0  0  0
 16 38  1  0  0  0  0
 16 39  1  0  0  0  0
 17 18  1  0  0  0  0
 17 19  1  0  0  0  0
 17 40  1  0  0  0  0
 18 41  1  0  0  0  0
 19 25  1  0  0  0  0
 19 20  2  0  0  0  0
 20 21  1  0  0  0  0
 20 42  1  0  0  0  0
 21 22  2  0  0  0  0
 21 43  1  0  0  0  0
 22 23  1  0  0  0  0
 22 44  1  0  0  0  0
 23 24  1  0  0  0  0
 23 25  2  0  0  0  0
 25 45  1  0  0  0  0
M  END
> <s_m_source_file>
AV-unprocessed.smi

> <i_m_source_file_index>
1667

> <i_lp_mmshare_version>
43012

> <i_f3d_flags>
0

> <s_epik_input>
W0NIM11DKD1PKVtOSF1bQ0BASF0oW0NIM10pYyhuMSluKGMoYzEyKVtjSF1bY0hdW2NIXVtjSF0yKVtDSDJdW0NASF0oW09IXSljM1tjSF1bY0hdW2NIXWMoRilbY0hdMw==

> <s_epik_cmdline>
J2VwaWtfcHl0aG9uJywgJy1waCcsICc3LjAnLCAnLXRuJywgJzgnLCAnLW1hJywgJzIwMCcsICctbWV0YWxfYmluZGluZycsICctaW1hZScsICc8aW5maWxlLm1hZT4nLCAnLW9tYWUnLCAnPG91dGZpbGUubWFlPic=

> <r_epik_Ionization_Penalty>
0.133011

> <r_epik_Ionization_Penalty_Charging>
0

> <r_epik_Ionization_Penalty_Neutral>
0.133011

> <r_epik_State_Penalty>
0.122384

> <r_epik_Charging_Adjusted_Penalty>
0.122384

> <i_epik_Tot_Q>
0

> <i_epik_Tot_abs_Q>
0

> <r_epik_Metal_State_Penalty>
0.0997374

> <b_epik_Metal_Only>
0

> <s_lp_Force_Field>
OPLS_2005

> <r_lp_Energy>
8.264

> <b_lp_Chiralities_Consistent>
1

> <s_lp_Variant>
AV-unprocessed.smi:1667-1

> <Gold.Version>
5.8.1

> <Gold.Id.Protein>
6NUR|6NUR_protein|mol2

> <Gold.PLP.Fitness>
51.3376

> <Gold.PLP.PLP>
-51.0476

> <Gold.PLP.part.hbond>
-1.0000

> <Gold.PLP.part.metal>
0.0000

> <Gold.PLP.part.buried>
-6.6470

> <Gold.PLP.part.nonpolar>
-43.0588

> <Gold.PLP.part.repulsive>
0.0784

> <Gold.PLP.ligand.clash>
0.0000

> <Gold.PLP.ligand.torsion>
1.2390

> <Gold.PLP.Chemscore.Hbond>
0.8480

> <Gold.PLP.Chemscore.CHOScore>
0.0000

> <Gold.PLP.Chemscore.Metal>
0.0000

> <Gold.Chemscore.Hbonds>
donor molecule, donor type, donor heavy atom, donor atom, acceptor molecule, acceptor atom, score
      P1  H  7989  7998       L1     3  0.85

> <Gold.PLP.Chemscore.Internal.Correction>
0.2240

> <Gold.Rescore>
     Score         DG    S(hbond)    S(metal)    S(lipo)     H(rot)  DE(clash)    DE(int)     intcor
     15.68     -17.87       0.96        0.00     132.55       2.48       0.01       2.19       ----

> <Gold.Chemscore.Fitness>
15.6785

> <Gold.Chemscore.DG>
-17.8720

> <Gold.Chemscore.ZeroCoef>
-5.4800

> <Gold.Chemscore.Hbond>
0.9648

> <Gold.Chemscore.Metal>
0.0000

> <Gold.Chemscore.Lipo>
132.5488

> <Gold.Chemscore.Internal_Hbond>
0.0000

> <Gold.Chemscore.DEClash>
0.0073

> <Gold.Chemscore.DEInternal>
2.1862

> <Gold.Chemscore.Rot>
2.4760

> <Gold.Chemscore.Internal.Correction>
   9.000000E+99

> <Gold.Chemscore.Hbonds>
donor molecule, donor type, donor heavy atom, donor atom, acceptor molecule, acceptor atom, score
      P1  H  7989  7998       L1     3  0.54

> <Gold.Chemscore.Hbond.Weighted>
-3.2223

> <Gold.Chemscore.Metal.Weighted>
-0.0000

> <Gold.Chemscore.Lipo.Weighted>
-15.5082

> <Gold.Chemscore.Internal_Hbond.Weighted>
0.0000

> <Gold.Chemscore.DEClash.Weighted>
0.0073

> <Gold.Chemscore.DEInternal.Weighted>
2.1862

> <Gold.Chemscore.Rot.Weighted>
6.3385

> <Gold.Chemscore.Internal.Correction.Weighted>
   9.000000E+99

> <Gold.Protein.RotatedTorsions>
[ 6907 6896 6895 6894 ] final -114.94 input  -60.11 | X-H torsion
[ 7974 7965 7964 7962 ] final   44.58 input  175.53 | X-H torsion
[ 8008 7997 7996 7995 ] final -138.99 input   59.86 | X-H torsion
[ 10167 10162 10161 10158 ] final  170.86 input  -65.29 | X-H torsion
[ 10718 10713 10712 10709 ] final  -24.44 input   66.30 | X-H torsion
[ 10763 10752 10751 10750 ] final  119.38 input  -60.55 | X-H torsion
[ 11005 11000 10999 10996 ] final  176.87 input  -57.11 | X-H torsion

> <Gold.Protein.ActiveResidues>
 VAL166  LYS551  ARG553  GLY616  TRP617  ASP618  TYR619  PRO620  LYS621  CYS622 
 ASP623  PHE694  ASN695  SER759  ASP760  ASP761  ALA762  ILE779  LEU786  VAL792 
 PHE793  MET794  SER795  GLU796  ALA797  LYS798  CYS799  TRP800  GLU811  SER814 

> <Gold.Protein.RotatedAtoms>
  150.7940  133.8729  159.3263 H   0  0  0  0  0  0  0  0  0  0  0  0  # atno 6907 bound_to 6896
  151.6559  135.0994  160.0179 H   0  0  0  0  0  0  0  0  0  0  0  0  # atno 6908 bound_to 6896
  152.4019  133.6791  159.6359 H   0  0  0  0  0  0  0  0  0  0  0  0  # atno 6909 bound_to 6896
  146.0556  139.5058  142.9691 H   0  0  0  0  0  0  0  0  0  0  0  0  # atno 7974 bound_to 7965
  155.4375  140.0529  157.3013 H   0  0  0  0  0  0  0  0  0  0  0  0  # atno 8008 bound_to 7997
  154.4833  140.2090  155.9671 H   0  0  0  0  0  0  0  0  0  0  0  0  # atno 8009 bound_to 7997
  156.1237  140.3184  155.8251 H   0  0  0  0  0  0  0  0  0  0  0  0  # atno 8010 bound_to 7997
  139.5030  144.3549  151.9884 H   0  0  0  0  0  0  0  0  0  0  0  0  # atno 10167 bound_to 10162
  156.4776  130.4538  149.6831 H   0  0  0  0  0  0  0  0  0  0  0  0  # atno 10718 bound_to 10713
  153.5822  135.3482  155.2879 H   0  0  0  0  0  0  0  0  0  0  0  0  # atno 10763 bound_to 10752
  154.8666  135.4185  154.2608 H   0  0  0  0  0  0  0  0  0  0  0  0  # atno 10764 bound_to 10752
  153.3397  135.7049  153.6948 H   0  0  0  0  0  0  0  0  0  0  0  0  # atno 10765 bound_to 10752
  140.3778  134.6973  157.4432 H   0  0  0  0  0  0  0  0  0  0  0  0  # atno 11005 bound_to 11000
  145.6650  141.0231  143.1688 LP  0  0  0  0  0  0  0  0  0  0  0  0  # atno 17320 bound_to 7965
  144.7146  139.8244  143.7403 LP  0  0  0  0  0  0  0  0  0  0  0  0  # atno 17321 bound_to 7965
  140.2986  144.3673  150.6067 LP  0  0  0  0  0  0  0  0  0  0  0  0  # atno 17342 bound_to 10162
  140.5891  143.2168  151.7286 LP  0  0  0  0  0  0  0  0  0  0  0  0  # atno 17343 bound_to 10162
  156.3555  130.7454  151.2419 LP  0  0  0  0  0  0  0  0  0  0  0  0  # atno 17370 bound_to 10713
  157.7486  131.0365  150.4412 LP  0  0  0  0  0  0  0  0  0  0  0  0  # atno 17371 bound_to 10713
  140.0501  134.6142  155.8872 LP  0  0  0  0  0  0  0  0  0  0  0  0  # atno 17394 bound_to 11000
  141.1933  133.6578  156.5543 LP  0  0  0  0  0  0  0  0  0  0  0  0  # atno 17395 bound_to 11000

$$$$
