AV-unprocessed.smi:1401|AV-procd|sdf|5688|dock9
  -GOLD-   22720 5313D 1   1.00000     0.00000
 Structure written by MMmdl.
 48 50  0  0  0  0  0  0  0  0  1 V2000
  147.0575  139.2121  154.5021 C   0  0  0  0  0  0  0  0  0  0  0  0
  148.3622  138.5203  154.7914 C   0  0  0  0  0  0  0  0  0  0  0  0
  148.2977  137.2683  155.1045 N   0  0  0  0  0  0  0  0  0  0  0  0
  149.4365  136.5334  155.3752 N   0  0  0  0  0  0  0  0  0  0  0  0
  149.1747  135.1095  155.6463 C   0  0  0  0  0  0  0  0  0  0  0  0
  149.4031  134.6877  157.1089 C   0  0  0  0  0  0  0  0  0  0  0  0
  150.5485  134.4639  157.4983 O   0  0  0  0  0  0  0  0  0  0  0  0
  148.3288  134.5999  157.9114 N   0  0  0  0  0  0  0  0  0  0  0  0
  148.3338  134.3079  159.3404 C   0  0  2  0  0  0  0  0  0  0  0  0
  148.3513  132.7865  159.5677 C   0  0  0  0  0  0  0  0  0  0  0  0
  147.1004  134.9842  159.9845 C   0  0  2  0  0  0  0  0  0  0  0  0
  147.2478  136.5025  160.2414 C   0  0  0  0  0  0  0  0  0  0  0  0
  146.7792  136.6528  161.7006 C   0  0  2  0  0  0  0  0  0  0  0  0
  147.8726  136.1067  162.6366 C   0  0  0  0  0  0  0  0  0  0  0  0
  147.7665  134.5850  162.4274 C   0  0  0  0  0  0  0  0  0  0  0  0
  146.6496  134.4603  161.3704 C   0  0  1  0  0  0  0  0  0  0  0  0
  145.7056  135.5758  161.8094 C   0  0  0  0  0  0  0  0  0  0  0  0
  150.7062  137.0320  155.3483 C   0  0  0  0  0  0  0  0  0  0  0  0
  151.6965  136.3360  155.5758 O   0  0  0  0  0  0  0  0  0  0  0  0
  150.7707  138.4546  155.0053 C   0  0  0  0  0  0  0  0  0  0  0  0
  152.0818  139.0173  154.9662 C   0  0  0  0  0  0  0  0  0  0  0  0
  153.1507  139.4594  154.9198 N   0  0  0  0  0  0  0  0  0  0  0  0
  149.6601  139.1846  154.7333 C   0  0  0  0  0  0  0  0  0  0  0  0
  149.6742  140.6609  154.3616 C   0  0  0  0  0  0  0  0  0  0  0  0
  146.8816  140.0193  155.2132 H   0  0  0  0  0  0  0  0  0  0  0  0
  146.2108  138.5270  154.5655 H   0  0  0  0  0  0  0  0  0  0  0  0
  147.0593  139.6376  153.4985 H   0  0  0  0  0  0  0  0  0  0  0  0
  148.1566  134.8389  155.3613 H   0  0  0  0  0  0  0  0  0  0  0  0
  149.8197  134.4963  155.0146 H   0  0  0  0  0  0  0  0  0  0  0  0
  147.4279  134.7968  157.5003 H   0  0  0  0  0  0  0  0  0  0  0  0
  149.2420  134.7375  159.7636 H   0  0  0  0  0  0  0  0  0  0  0  0
  148.3948  132.5463  160.6300 H   0  0  0  0  0  0  0  0  0  0  0  0
  149.2205  132.3251  159.0982 H   0  0  0  0  0  0  0  0  0  0  0  0
  147.4602  132.3130  159.1546 H   0  0  0  0  0  0  0  0  0  0  0  0
  146.2605  134.8462  159.3003 H   0  0  0  0  0  0  0  0  0  0  0  0
  148.2689  136.8626  160.1090 H   0  0  0  0  0  0  0  0  0  0  0  0
  146.6094  137.0683  159.5614 H   0  0  0  0  0  0  0  0  0  0  0  0
  146.4512  137.6616  161.9533 H   0  0  0  0  0  0  0  0  0  0  0  0
  148.8618  136.4931  162.3884 H   0  0  0  0  0  0  0  0  0  0  0  0
  147.6629  136.3664  163.6749 H   0  0  0  0  0  0  0  0  0  0  0  0
  148.7086  134.1318  162.1224 H   0  0  0  0  0  0  0  0  0  0  0  0
  147.4637  134.0996  163.3561 H   0  0  0  0  0  0  0  0  0  0  0  0
  146.1902  133.4720  161.3361 H   0  0  0  0  0  0  0  0  0  0  0  0
  145.3229  135.4468  162.8235 H   0  0  0  0  0  0  0  0  0  0  0  0
  144.8666  135.7304  161.1287 H   0  0  0  0  0  0  0  0  0  0  0  0
  150.6770  141.0854  154.3932 H   0  0  0  0  0  0  0  0  0  0  0  0
  149.0557  141.2370  155.0503 H   0  0  0  0  0  0  0  0  0  0  0  0
  149.2885  140.8030  153.3516 H   0  0  0  0  0  0  0  0  0  0  0  0
  1  2  1  0  0  0  0
  1 25  1  0  0  0  0
  1 26  1  0  0  0  0
  1 27  1  0  0  0  0
  2 23  1  0  0  0  0
  2  3  2  0  0  0  0
  3  4  1  0  0  0  0
  4  5  1  0  0  0  0
  4 18  1  0  0  0  0
  5  6  1  0  0  0  0
  5 28  1  0  0  0  0
  5 29  1  0  0  0  0
  6  7  2  0  0  0  0
  6  8  1  0  0  0  0
  8  9  1  0  0  0  0
  8 30  1  0  0  0  0
  9 10  1  0  0  0  0
  9 11  1  0  0  0  0
  9 31  1  0  0  0  0
 10 32  1  0  0  0  0
 10 33  1  0  0  0  0
 10 34  1  0  0  0  0
 11 16  1  0  0  0  0
 11 12  1  0  0  0  0
 11 35  1  0  0  0  0
 12 13  1  0  0  0  0
 12 36  1  0  0  0  0
 12 37  1  0  0  0  0
 13 17  1  0  0  0  0
 13 14  1  0  0  0  0
 13 38  1  0  0  0  0
 14 15  1  0  0  0  0
 14 39  1  0  0  0  0
 14 40  1  0  0  0  0
 15 16  1  0  0  0  0
 15 41  1  0  0  0  0
 15 42  1  0  0  0  0
 16 17  1  0  0  0  0
 16 43  1  0  0  0  0
 17 44  1  0  0  0  0
 17 45  1  0  0  0  0
 18 19  2  0  0  0  0
 18 20  1  0  0  0  0
 20 21  1  0  0  0  0
 20 23  2  0  0  0  0
 21 22  3  0  0  0  0
 23 24  1  0  0  0  0
 24 46  1  0  0  0  0
 24 47  1  0  0  0  0
 24 48  1  0  0  0  0
M  END
> <s_m_source_file>
AV-unprocessed.smi

> <i_m_source_file_index>
1401

> <i_lp_mmshare_version>
43012

> <i_f3d_flags>
0

> <s_epik_input>
TiNDYyhjMVtDSDNdKWMoPU8pbihuYzFbQ0gzXSlbQ0gyXUMoPU8pW05IXVtDQEhdKFtDSDNdKVtDQEhdKFtDSDJdW0NASF0yMylbQ0BIXShbQ0gyXTMpW0NIMl1bQ0gyXTI=

> <s_epik_cmdline>
J2VwaWtfcHl0aG9uJywgJy1waCcsICc3LjAnLCAnLXRuJywgJzgnLCAnLW1hJywgJzIwMCcsICctbWV0YWxfYmluZGluZycsICctaW1hZScsICc8aW5maWxlLm1hZT4nLCAnLW9tYWUnLCAnPG91dGZpbGUubWFlPic=

> <r_lp_tautomer_probability>
1

> <r_epik_Ionization_Penalty>
2.16501e-08

> <r_epik_Ionization_Penalty_Charging>
2.29436e-11

> <r_epik_Ionization_Penalty_Neutral>
2.16271e-08

> <r_epik_State_Penalty>
-0

> <r_epik_Charging_Adjusted_Penalty>
2.29436e-11

> <i_epik_Tot_Q>
0

> <i_epik_Tot_abs_Q>
0

> <r_epik_Metal_State_Penalty>
-0

> <b_epik_Metal_Only>
0

> <s_lp_Force_Field>
OPLS_2005

> <r_lp_Energy>
65.8104

> <b_lp_Chiralities_Consistent>
1

> <s_lp_Variant>
AV-unprocessed.smi:1401-1

> <Gold.Version>
5.8.1

> <Gold.Id.Protein>
6NUR|6NUR_protein|mol2

> <Gold.PLP.Fitness>
41.8454

> <Gold.PLP.PLP>
-36.2405

> <Gold.PLP.part.hbond>
-4.0000

> <Gold.PLP.part.metal>
0.0000

> <Gold.PLP.part.buried>
-4.2419

> <Gold.PLP.part.nonpolar>
-28.0065

> <Gold.PLP.part.repulsive>
0.2281

> <Gold.PLP.ligand.clash>
0.0000

> <Gold.PLP.ligand.torsion>
1.1407

> <Gold.PLP.Chemscore.Hbond>
2.6240

> <Gold.PLP.Chemscore.CHOScore>
0.0000

> <Gold.PLP.Chemscore.Metal>
0.0000

> <Gold.Chemscore.Hbonds>
donor molecule, donor type, donor heavy atom, donor atom, acceptor molecule, acceptor atom, score
      P1  H  6896  6907       L1     7  0.58
      P1  H  7997  8008       L1    22  1.00
      P1  H 10752 10764       L1    19  1.00

> <Gold.PLP.Chemscore.Internal.Correction>
0.0143

> <Gold.Rescore>
     Score         DG    S(hbond)    S(metal)    S(lipo)     H(rot)  DE(clash)    DE(int)     intcor
     17.76     -20.11       2.67        0.00      84.57       1.63       0.05       2.30       ----

> <Gold.Chemscore.Fitness>
17.7622

> <Gold.Chemscore.DG>
-20.1099

> <Gold.Chemscore.ZeroCoef>
-5.4800

> <Gold.Chemscore.Hbond>
2.6655

> <Gold.Chemscore.Metal>
0.0000

> <Gold.Chemscore.Lipo>
84.5739

> <Gold.Chemscore.Internal_Hbond>
0.0000

> <Gold.Chemscore.DEClash>
0.0497

> <Gold.Chemscore.DEInternal>
2.2980

> <Gold.Chemscore.Rot>
1.6281

> <Gold.Chemscore.Internal.Correction>
   9.000000E+99

> <Gold.Chemscore.Hbonds>
donor molecule, donor type, donor heavy atom, donor atom, acceptor molecule, acceptor atom, score
      P1  H  6896  6907       L1     7  0.54
      P1  H  7997  8008       L1    22  1.00
      P1  H 10752 10764       L1    19  1.00

> <Gold.Chemscore.Hbond.Weighted>
-8.9026

> <Gold.Chemscore.Metal.Weighted>
-0.0000

> <Gold.Chemscore.Lipo.Weighted>
-9.8952

> <Gold.Chemscore.Internal_Hbond.Weighted>
0.0000

> <Gold.Chemscore.DEClash.Weighted>
0.0497

> <Gold.Chemscore.DEInternal.Weighted>
2.2980

> <Gold.Chemscore.Rot.Weighted>
4.1678

> <Gold.Chemscore.Internal.Correction.Weighted>
   9.000000E+99

> <Gold.Protein.RotatedTorsions>
[ 6907 6896 6895 6894 ] final -104.02 input  -60.11 | X-H torsion
[ 7974 7965 7964 7962 ] final   85.82 input  175.53 | X-H torsion
[ 8008 7997 7996 7995 ] final  -17.77 input   59.86 | X-H torsion
[ 10167 10162 10161 10158 ] final   48.41 input  -65.29 | X-H torsion
[ 10718 10713 10712 10709 ] final -105.76 input   66.30 | X-H torsion
[ 10763 10752 10751 10750 ] final  -36.49 input  -60.55 | X-H torsion
[ 11005 11000 10999 10996 ] final  148.40 input  -57.11 | X-H torsion

> <Gold.Protein.ActiveResidues>
 VAL166  LYS551  ARG553  GLY616  TRP617  ASP618  TYR619  PRO620  LYS621  CYS622 
 ASP623  PHE694  ASN695  SER759  ASP760  ASP761  ALA762  ILE779  LEU786  VAL792 
 PHE793  MET794  SER795  GLU796  ALA797  LYS798  CYS799  TRP800  GLU811  SER814 

> <Gold.Protein.RotatedAtoms>
  150.7267  134.0341  159.3743 H   0  0  0  0  0  0  0  0  0  0  0  0  # atno 6907 bound_to 6896
  151.8312  135.0619  160.0446 H   0  0  0  0  0  0  0  0  0  0  0  0  # atno 6908 bound_to 6896
  152.2932  133.5546  159.5607 H   0  0  0  0  0  0  0  0  0  0  0  0  # atno 6909 bound_to 6896
  145.5804  139.2324  143.2356 H   0  0  0  0  0  0  0  0  0  0  0  0  # atno 7974 bound_to 7965
  154.4954  140.2134  155.9458 H   0  0  0  0  0  0  0  0  0  0  0  0  # atno 8008 bound_to 7997
  156.1363  140.3188  155.8394 H   0  0  0  0  0  0  0  0  0  0  0  0  # atno 8009 bound_to 7997
  155.4203  140.0496  157.3017 H   0  0  0  0  0  0  0  0  0  0  0  0  # atno 8010 bound_to 7997
  140.2936  144.3017  150.6235 H   0  0  0  0  0  0  0  0  0  0  0  0  # atno 10167 bound_to 10162
  156.0360  130.5580  150.7585 H   0  0  0  0  0  0  0  0  0  0  0  0  # atno 10718 bound_to 10713
  153.8805  135.6822  153.4767 H   0  0  0  0  0  0  0  0  0  0  0  0  # atno 10763 bound_to 10752
  153.1236  135.4729  154.9234 H   0  0  0  0  0  0  0  0  0  0  0  0  # atno 10764 bound_to 10752
  154.7671  135.3227  154.8217 H   0  0  0  0  0  0  0  0  0  0  0  0  # atno 10765 bound_to 10752
  140.0957  134.9014  157.1719 H   0  0  0  0  0  0  0  0  0  0  0  0  # atno 11005 bound_to 11000
  146.1720  140.6631  142.9229 LP  0  0  0  0  0  0  0  0  0  0  0  0  # atno 17320 bound_to 7965
  144.7396  140.4906  143.6878 LP  0  0  0  0  0  0  0  0  0  0  0  0  # atno 17321 bound_to 7965
  140.5711  143.2181  151.7597 LP  0  0  0  0  0  0  0  0  0  0  0  0  # atno 17342 bound_to 10162
  139.4932  144.4215  151.9972 LP  0  0  0  0  0  0  0  0  0  0  0  0  # atno 17343 bound_to 10162
  157.5111  131.0925  151.0197 LP  0  0  0  0  0  0  0  0  0  0  0  0  # atno 17370 bound_to 10713
  157.0552  130.5803  149.5377 LP  0  0  0  0  0  0  0  0  0  0  0  0  # atno 17371 bound_to 10713
  140.3290  134.2831  155.7231 LP  0  0  0  0  0  0  0  0  0  0  0  0  # atno 17394 bound_to 11000
  141.2091  133.7758  157.0017 LP  0  0  0  0  0  0  0  0  0  0  0  0  # atno 17395 bound_to 11000

$$$$
