AV-unprocessed.smi:195|AV-procd|sdf|1527|dock9
  -GOLD-   2262019373D 1   1.00000     0.00000
 Structure written by MMmdl.
 45 48  0  0  0  0  0  0  0  0  1 V2000
  152.3439  140.0342  157.3623 N   0  0  0  0  0  0  0  0  0  0  0  0
  151.2140  140.2298  157.2075 C   0  0  0  0  0  0  0  0  0  0  0  0
  149.7771  140.4789  157.0116 C   0  0  0  0  0  0  0  0  0  0  0  0
  149.4763  141.4172  155.8393 C   0  0  0  0  0  0  0  0  0  0  0  0
  150.2446  142.5739  156.0964 O   0  0  0  0  0  0  0  0  0  0  0  0
  149.6167  140.8458  154.4253 C   0  0  0  0  0  0  0  0  0  0  0  0
  148.1619  140.7226  154.3879 N   0  0  0  0  0  0  0  0  0  0  0  0
  147.6920  139.3884  154.5998 C   0  0  0  0  0  0  0  0  0  0  0  0
  147.8563  138.7714  155.8015 N   0  0  0  0  0  0  0  0  0  0  0  0
  147.4112  137.5288  156.0095 C   0  0  0  0  0  0  0  0  0  0  0  0
  146.7661  136.7232  155.1658 N   0  0  0  0  0  0  0  0  0  0  0  0
  146.5749  137.3327  153.9625 C   0  0  0  0  0  0  0  0  0  0  0  0
  146.9972  138.6442  153.6028 C   0  0  0  0  0  0  0  0  0  0  0  0
  146.6147  138.9186  152.2946 N   0  0  0  0  0  0  0  0  0  0  0  0
  146.0061  137.8324  151.9031 C   0  0  0  0  0  0  0  0  0  0  0  0
  145.9370  136.8301  152.8433 N   0  0  0  0  0  0  0  0  0  0  0  0
  145.3185  135.5264  152.6845 C   0  0  0  0  0  0  0  0  0  0  0  0
  146.1793  134.5696  151.8372 C   0  0  1  0  0  0  0  0  0  0  0  0
  147.3280  134.1633  152.5566 O   0  0  0  0  0  0  0  0  0  0  0  0
  145.3913  133.3419  151.3383 C   0  0  1  0  0  0  0  0  0  0  0  0
  144.1093  133.6271  150.5515 C   0  0  0  0  0  0  0  0  0  0  0  0
  143.9514  132.3405  149.7728 C   0  0  0  0  0  0  0  0  0  0  0  0
  145.4002  132.0040  149.4278 C   0  0  0  0  0  0  0  0  0  0  0  0
  146.1869  132.4993  150.5081 O   0  0  0  0  0  0  0  0  0  0  0  0
  148.0093  141.6802  155.4837 C   0  0  0  0  0  0  0  0  0  0  0  0
  149.2826  139.5155  156.8820 H   0  0  0  0  0  0  0  0  0  0  0  0
  149.4001  140.8918  157.9471 H   0  0  0  0  0  0  0  0  0  0  0  0
  149.7913  143.3009  155.6976 H   0  0  0  0  0  0  0  0  0  0  0  0
  149.9807  141.5714  153.6966 H   0  0  0  0  0  0  0  0  0  0  0  0
  150.1732  139.9090  154.3778 H   0  0  0  0  0  0  0  0  0  0  0  0
  147.5976  137.1241  156.9935 H   0  0  0  0  0  0  0  0  0  0  0  0
  145.5841  137.7336  150.9135 H   0  0  0  0  0  0  0  0  0  0  0  0
  145.1351  135.1058  153.6739 H   0  0  0  0  0  0  0  0  0  0  0  0
  144.3420  135.6677  152.2195 H   0  0  0  0  0  0  0  0  0  0  0  0
  146.5387  135.1118  150.9617 H   0  0  0  0  0  0  0  0  0  0  0  0
  148.0309  134.7625  152.3567 H   0  0  0  0  0  0  0  0  0  0  0  0
  145.1198  132.7356  152.2040 H   0  0  0  0  0  0  0  0  0  0  0  0
  143.2564  133.8467  151.1942 H   0  0  0  0  0  0  0  0  0  0  0  0
  144.2371  134.4594  149.8586 H   0  0  0  0  0  0  0  0  0  0  0  0
  143.5267  131.5652  150.4120 H   0  0  0  0  0  0  0  0  0  0  0  0
  143.3161  132.4452  148.8930 H   0  0  0  0  0  0  0  0  0  0  0  0
  145.5553  130.9355  149.2780 H   0  0  0  0  0  0  0  0  0  0  0  0
  145.7024  132.5206  148.5162 H   0  0  0  0  0  0  0  0  0  0  0  0
  147.2944  141.4307  156.2674 H   0  0  0  0  0  0  0  0  0  0  0  0
  147.8377  142.6888  155.1056 H   0  0  0  0  0  0  0  0  0  0  0  0
  1  2  3  0  0  0  0
  2  3  1  0  0  0  0
  3  4  1  0  0  0  0
  3 26  1  0  0  0  0
  3 27  1  0  0  0  0
  4 25  1  0  0  0  0
  4  5  1  0  0  0  0
  4  6  1  0  0  0  0
  5 28  1  0  0  0  0
  6  7  1  0  0  0  0
  6 29  1  0  0  0  0
  6 30  1  0  0  0  0
  7  8  1  0  0  0  0
  7 25  1  0  0  0  0
  8 13  1  0  0  0  0
  8  9  2  0  0  0  0
  9 10  1  0  0  0  0
 10 11  2  0  0  0  0
 10 31  1  0  0  0  0
 11 12  1  0  0  0  0
 12 16  1  0  0  0  0
 12 13  2  0  0  0  0
 13 14  1  0  0  0  0
 14 15  2  0  0  0  0
 15 16  1  0  0  0  0
 15 32  1  0  0  0  0
 16 17  1  0  0  0  0
 17 18  1  0  0  0  0
 17 33  1  0  0  0  0
 17 34  1  0  0  0  0
 18 19  1  0  0  0  0
 18 20  1  0  0  0  0
 18 35  1  0  0  0  0
 19 36  1  0  0  0  0
 20 24  1  0  0  0  0
 20 21  1  0  0  0  0
 20 37  1  0  0  0  0
 21 22  1  0  0  0  0
 21 38  1  0  0  0  0
 21 39  1  0  0  0  0
 22 23  1  0  0  0  0
 22 40  1  0  0  0  0
 22 41  1  0  0  0  0
 23 24  1  0  0  0  0
 23 42  1  0  0  0  0
 23 43  1  0  0  0  0
 25 44  1  0  0  0  0
 25 45  1  0  0  0  0
M  END
> <s_m_source_file>
AV-unprocessed.smi

> <i_m_source_file_index>
195

> <i_lp_mmshare_version>
43012

> <i_f3d_flags>
0

> <s_epik_input>
TiNDW0NIMl1DMShbT0hdKVtDSDJdTihbQ0gyXTEpYyhuW2NIXW4yKWMoYzIzKW5bY0hdbjNbQ0gyXVtDQEhdKFtPSF0pW0NAQEhdNFtDSDJdW0NIMl1bQ0gyXU80

> <s_epik_cmdline>
J2VwaWtfcHl0aG9uJywgJy1waCcsICc3LjAnLCAnLXRuJywgJzgnLCAnLW1hJywgJzIwMCcsICctbWV0YWxfYmluZGluZycsICctaW1hZScsICc8aW5maWxlLm1hZT4nLCAnLW9tYWUnLCAnPG91dGZpbGUubWFlPic=

> <r_lp_tautomer_probability>
1

> <r_epik_Ionization_Penalty>
0.00307146

> <r_epik_Ionization_Penalty_Charging>
0

> <r_epik_Ionization_Penalty_Neutral>
0.00307146

> <r_epik_State_Penalty>
0.0020279

> <r_epik_Charging_Adjusted_Penalty>
0.0020279

> <i_epik_Tot_Q>
0

> <i_epik_Tot_abs_Q>
0

> <r_epik_Metal_State_Penalty>
-0

> <b_epik_Metal_Only>
0

> <s_lp_Force_Field>
OPLS_2005

> <r_lp_Energy>
44.2023

> <b_lp_Chiralities_Consistent>
1

> <s_lp_Variant>
AV-unprocessed.smi:195-4

> <Gold.Version>
5.8.1

> <Gold.Id.Protein>
6NUR|6NUR_protein|mol2

> <Gold.PLP.Fitness>
42.7866

> <Gold.PLP.PLP>
-31.8076

> <Gold.PLP.part.hbond>
-3.0000

> <Gold.PLP.part.metal>
0.0000

> <Gold.PLP.part.buried>
-1.3921

> <Gold.PLP.part.nonpolar>
-27.3916

> <Gold.PLP.part.repulsive>
0.6841

> <Gold.PLP.ligand.clash>
0.0000

> <Gold.PLP.ligand.torsion>
0.6856

> <Gold.PLP.Chemscore.Hbond>
3.0000

> <Gold.PLP.Chemscore.CHOScore>
1.0000

> <Gold.PLP.Chemscore.Metal>
0.0000

> <Gold.Chemscore.Hbonds>
donor molecule, donor type, donor heavy atom, donor atom, acceptor molecule, acceptor atom, score
      L1  H     5    28       P1  8028  1.00
      L1  H    19    36       P1  7948  1.00
      P1  H  7997  8009       L1     1  0.68
      L1  C    15    32       P1 10171  1.00

> <Gold.PLP.Chemscore.Internal.Correction>
0.3502

> <Gold.Rescore>
     Score         DG    S(hbond)    S(metal)    S(lipo)     H(rot)  DE(clash)    DE(int)     intcor
     11.20     -13.58       2.91        0.00      67.67       3.72       0.26       2.13       ----

> <Gold.Chemscore.Fitness>
11.1963

> <Gold.Chemscore.DG>
-13.5788

> <Gold.Chemscore.ZeroCoef>
-5.4800

> <Gold.Chemscore.Hbond>
2.9063

> <Gold.Chemscore.Metal>
0.0000

> <Gold.Chemscore.Lipo>
67.6699

> <Gold.Chemscore.Internal_Hbond>
0.0000

> <Gold.Chemscore.DEClash>
0.2554

> <Gold.Chemscore.DEInternal>
2.1272

> <Gold.Chemscore.Rot>
3.7210

> <Gold.Chemscore.Internal.Correction>
   9.000000E+99

> <Gold.Chemscore.Hbonds>
donor molecule, donor type, donor heavy atom, donor atom, acceptor molecule, acceptor atom, score
      L1  H     5    28       P1  8028  0.99
      L1  H    19    36       P1  7948  0.55
      P1  H  7997  8009       L1     1  0.67

> <Gold.Chemscore.Hbond.Weighted>
-9.7071

> <Gold.Chemscore.Metal.Weighted>
-0.0000

> <Gold.Chemscore.Lipo.Weighted>
-7.9174

> <Gold.Chemscore.Internal_Hbond.Weighted>
0.0000

> <Gold.Chemscore.DEClash.Weighted>
0.2554

> <Gold.Chemscore.DEInternal.Weighted>
2.1272

> <Gold.Chemscore.Rot.Weighted>
9.5256

> <Gold.Chemscore.Internal.Correction.Weighted>
   9.000000E+99

> <Gold.Protein.RotatedTorsions>
[ 6907 6896 6895 6894 ] final   -8.63 input  -60.11 | X-H torsion
[ 7974 7965 7964 7962 ] final  140.32 input  175.53 | X-H torsion
[ 8008 7997 7996 7995 ] final  172.93 input   59.86 | X-H torsion
[ 10167 10162 10161 10158 ] final -140.64 input  -65.29 | X-H torsion
[ 10718 10713 10712 10709 ] final  -75.07 input   66.30 | X-H torsion
[ 10763 10752 10751 10750 ] final  -29.39 input  -60.55 | X-H torsion
[ 11005 11000 10999 10996 ] final  151.08 input  -57.11 | X-H torsion

> <Gold.Protein.ActiveResidues>
 VAL166  LYS551  ARG553  GLY616  TRP617  ASP618  TYR619  PRO620  LYS621  CYS622 
 ASP623  PHE694  ASN695  SER759  ASP760  ASP761  ALA762  ILE779  LEU786  VAL792 
 PHE793  MET794  SER795  GLU796  ALA797  LYS798  CYS799  TRP800  GLU811  SER814 

> <Gold.Protein.RotatedAtoms>
  151.4306  135.1009  159.9640 H   0  0  0  0  0  0  0  0  0  0  0  0  # atno 6907 bound_to 6896
  152.4957  133.8621  159.7266 H   0  0  0  0  0  0  0  0  0  0  0  0  # atno 6908 bound_to 6896
  150.9158  133.6883  159.2871 H   0  0  0  0  0  0  0  0  0  0  0  0  # atno 6909 bound_to 6896
  144.9197  139.5184  143.5669 H   0  0  0  0  0  0  0  0  0  0  0  0  # atno 7974 bound_to 7965
  156.1126  140.1473  156.9317 H   0  0  0  0  0  0  0  0  0  0  0  0  # atno 8008 bound_to 7997
  154.4778  140.0889  156.7346 H   0  0  0  0  0  0  0  0  0  0  0  0  # atno 8009 bound_to 7997
  155.4570  140.3437  155.4310 H   0  0  0  0  0  0  0  0  0  0  0  0  # atno 8010 bound_to 7997
  139.8262  143.7508  152.2666 H   0  0  0  0  0  0  0  0  0  0  0  0  # atno 10167 bound_to 10162
  156.0220  130.4432  150.2987 H   0  0  0  0  0  0  0  0  0  0  0  0  # atno 10718 bound_to 10713
  153.7639  135.6917  153.4920 H   0  0  0  0  0  0  0  0  0  0  0  0  # atno 10763 bound_to 10752
  153.1920  135.4468  155.0159 H   0  0  0  0  0  0  0  0  0  0  0  0  # atno 10764 bound_to 10752
  154.8143  135.3391  154.7153 H   0  0  0  0  0  0  0  0  0  0  0  0  # atno 10765 bound_to 10752
  140.1187  134.8878  157.2041 H   0  0  0  0  0  0  0  0  0  0  0  0  # atno 11005 bound_to 11000
  146.3199  139.8067  142.8954 LP  0  0  0  0  0  0  0  0  0  0  0  0  # atno 17320 bound_to 7965
  145.3316  141.0268  143.3443 LP  0  0  0  0  0  0  0  0  0  0  0  0  # atno 17321 bound_to 7965
  139.7701  144.7479  151.0236 LP  0  0  0  0  0  0  0  0  0  0  0  0  # atno 17342 bound_to 10162
  140.7810  143.4654  151.0220 LP  0  0  0  0  0  0  0  0  0  0  0  0  # atno 17343 bound_to 10162
  157.1090  131.0216  151.3055 LP  0  0  0  0  0  0  0  0  0  0  0  0  # atno 17370 bound_to 10713
  157.4719  130.7714  149.7332 LP  0  0  0  0  0  0  0  0  0  0  0  0  # atno 17371 bound_to 10713
  140.2994  134.3149  155.7294 LP  0  0  0  0  0  0  0  0  0  0  0  0  # atno 17394 bound_to 11000
  141.2147  133.7582  156.9618 LP  0  0  0  0  0  0  0  0  0  0  0  0  # atno 17395 bound_to 11000

$$$$
