AV-unprocessed.smi:315|AV-procd|sdf|2318|dock4
  -GOLD-   2262022223D 1   1.00000     0.00000
 Structure written by MMmdl.
 47 49  0  0  0  0  0  0  0  0  2 V2000
  152.4348  138.9906  155.9147 C   0  0  0  0  0  0  0  0  0  0  0  0
  152.2784  138.4762  154.4817 C   0  0  0  0  0  0  0  0  0  0  0  0
  150.9027  138.1903  154.2535 O   0  0  0  0  0  0  0  0  0  0  0  0
  149.9819  139.2154  154.3601 C   0  0  0  0  0  0  0  0  0  0  0  0
  150.4214  140.4474  154.7185 N   0  0  0  0  0  0  0  0  0  0  0  0
  149.5188  141.4445  154.8230 C   0  0  0  0  0  0  0  0  0  0  0  0
  148.1430  141.2668  154.5855 C   0  0  0  0  0  0  0  0  0  0  0  0
  147.6850  139.9891  154.2141 C   0  0  0  0  0  0  0  0  0  0  0  0
  148.6233  138.9370  154.0862 C   0  0  0  0  0  0  0  0  0  0  0  0
  148.2799  137.6043  153.7344 N   0  0  0  0  0  0  0  0  0  0  0  0
  147.1976  136.8836  154.0841 C   0  0  0  0  0  0  0  0  0  0  0  0
  146.3220  137.2588  154.8600 O   0  0  0  0  0  0  0  0  0  0  0  0
  147.1325  135.6786  153.4903 N   0  0  0  0  0  0  0  0  0  0  0  0
  146.0972  134.6556  153.6482 C   0  0  2  0  0  0  0  0  0  0  0  0
  146.5568  133.4018  154.4208 C   0  0  0  0  0  0  0  0  0  0  0  0
  145.8897  132.2107  153.7057 C   0  0  0  0  0  0  0  0  0  0  0  0
  145.0294  132.8111  152.6687 N   0  3  2  0  0  0  0  0  0  0  0  0
  144.6991  131.9722  151.4960 C   0  0  0  0  0  0  0  0  0  0  0  0
  143.7342  132.7452  150.5741 C   0  0  0  0  0  0  0  0  0  0  0  0
  144.2881  134.1360  150.2015 C   0  0  0  0  0  0  0  0  0  0  0  0
  144.6997  134.9258  151.4589 C   0  0  0  0  0  0  0  0  0  0  0  0
  145.6719  134.0810  152.2980 C   0  0  1  0  0  0  0  0  0  0  0  0
  153.4769  139.2230  156.1339 H   0  0  0  0  0  0  0  0  0  0  0  0
  152.0995  138.2449  156.6358 H   0  0  0  0  0  0  0  0  0  0  0  0
  151.8495  139.8970  156.0714 H   0  0  0  0  0  0  0  0  0  0  0  0
  152.6317  139.2323  153.7786 H   0  0  0  0  0  0  0  0  0  0  0  0
  152.8834  137.5780  154.3475 H   0  0  0  0  0  0  0  0  0  0  0  0
  149.9036  142.4118  155.1103 H   0  0  0  0  0  0  0  0  0  0  0  0
  147.4536  142.0915  154.6902 H   0  0  0  0  0  0  0  0  0  0  0  0
  146.6292  139.8413  154.0495 H   0  0  0  0  0  0  0  0  0  0  0  0
  148.8830  137.1794  153.0455 H   0  0  0  0  0  0  0  0  0  0  0  0
  147.8870  135.4499  152.8589 H   0  0  0  0  0  0  0  0  0  0  0  0
  145.2209  135.0839  154.1395 H   0  0  0  0  0  0  0  0  0  0  0  0
  147.6415  133.2897  154.3883 H   0  0  0  0  0  0  0  0  0  0  0  0
  146.2651  133.4575  155.4704 H   0  0  0  0  0  0  0  0  0  0  0  0
  146.6502  131.5793  153.2436 H   0  0  0  0  0  0  0  0  0  0  0  0
  145.3029  131.5928  154.3857 H   0  0  0  0  0  0  0  0  0  0  0  0
  145.6114  131.7081  150.9589 H   0  0  0  0  0  0  0  0  0  0  0  0
  144.2387  131.0415  151.8290 H   0  0  0  0  0  0  0  0  0  0  0  0
  143.5364  132.1673  149.6709 H   0  0  0  0  0  0  0  0  0  0  0  0
  142.7741  132.8655  151.0778 H   0  0  0  0  0  0  0  0  0  0  0  0
  145.1540  134.0173  149.5487 H   0  0  0  0  0  0  0  0  0  0  0  0
  143.5460  134.6963  149.6320 H   0  0  0  0  0  0  0  0  0  0  0  0
  145.1655  135.8695  151.1737 H   0  0  0  0  0  0  0  0  0  0  0  0
  143.8148  135.1766  152.0454 H   0  0  0  0  0  0  0  0  0  0  0  0
  146.5634  133.8583  151.7064 H   0  0  0  0  0  0  0  0  0  0  0  0
  144.1595  133.0527  153.1216 H   0  0  0  0  0  0  0  0  0  0  0  0
  1  2  1  0  0  0  0
  1 23  1  0  0  0  0
  1 24  1  0  0  0  0
  1 25  1  0  0  0  0
  2  3  1  0  0  0  0
  2 26  1  0  0  0  0
  2 27  1  0  0  0  0
  3  4  1  0  0  0  0
  4  9  1  0  0  0  0
  4  5  2  0  0  0  0
  5  6  1  0  0  0  0
  6  7  2  0  0  0  0
  6 28  1  0  0  0  0
  7  8  1  0  0  0  0
  7 29  1  0  0  0  0
  8  9  2  0  0  0  0
  8 30  1  0  0  0  0
  9 10  1  0  0  0  0
 10 11  1  0  0  0  0
 10 31  1  0  0  0  0
 11 12  2  0  0  0  0
 11 13  1  0  0  0  0
 13 14  1  0  0  0  0
 13 32  1  0  0  0  0
 14 22  1  0  0  0  0
 14 15  1  0  0  0  0
 14 33  1  0  0  0  0
 15 16  1  0  0  0  0
 15 34  1  0  0  0  0
 15 35  1  0  0  0  0
 16 17  1  0  0  0  0
 16 36  1  0  0  0  0
 16 37  1  0  0  0  0
 17 22  1  0  0  0  0
 17 18  1  0  0  0  0
 17 47  1  0  0  0  0
 18 19  1  0  0  0  0
 18 38  1  0  0  0  0
 18 39  1  0  0  0  0
 19 20  1  0  0  0  0
 19 40  1  0  0  0  0
 19 41  1  0  0  0  0
 20 21  1  0  0  0  0
 20 42  1  0  0  0  0
 20 43  1  0  0  0  0
 21 22  1  0  0  0  0
 21 44  1  0  0  0  0
 21 45  1  0  0  0  0
 22 46  1  0  0  0  0
M  CHG  1  17   1
M  END
> <s_m_source_file>
AV-unprocessed.smi

> <i_m_source_file_index>
315

> <i_lp_mmshare_version>
43012

> <i_f3d_flags>
0

> <s_epik_input>
W0NIM11bQ0gyXU9jMW5bY0hdW2NIXVtjSF1jMVtOSF1DKD1PKVtOSF1bQ0BIXShbQ0gyXVtDSDJdMilbQ0BASF0oTjIzKVtDSDJdW0NIMl1bQ0gyXVtDSDJdMw==

> <s_epik_cmdline>
J2VwaWtfcHl0aG9uJywgJy1waCcsICc3LjAnLCAnLXRuJywgJzgnLCAnLW1hJywgJzIwMCcsICctbWV0YWxfYmluZGluZycsICctaW1hZScsICc8aW5maWxlLm1hZT4nLCAnLW9tYWUnLCAnPG91dGZpbGUubWFlPic=

> <r_lp_tautomer_probability>
1

> <r_epik_Ionization_Penalty>
0.00106455

> <r_epik_Ionization_Penalty_Charging>
0.000974069

> <r_epik_Ionization_Penalty_Neutral>
9.04821e-05

> <r_epik_State_Penalty>
0.000633842

> <r_epik_Charging_Adjusted_Penalty>
0.00160791

> <i_epik_Tot_Q>
1

> <i_epik_Tot_abs_Q>
1

> <r_epik_Metal_State_Penalty>
-0

> <b_epik_Metal_Only>
0

> <s_lp_Force_Field>
OPLS_2005

> <r_lp_Energy>
47.5763

> <b_lp_Chiralities_Consistent>
1

> <s_lp_Variant>
AV-unprocessed.smi:315-3

> <Gold.Version>
5.8.1

> <Gold.Id.Protein>
6NUR|6NUR_protein|mol2

> <Gold.PLP.Fitness>
44.6075

> <Gold.PLP.PLP>
-34.3671

> <Gold.PLP.part.hbond>
-2.6519

> <Gold.PLP.part.metal>
0.0000

> <Gold.PLP.part.buried>
-3.6315

> <Gold.PLP.part.nonpolar>
-28.4146

> <Gold.PLP.part.repulsive>
0.3597

> <Gold.PLP.ligand.clash>
0.0000

> <Gold.PLP.ligand.torsion>
0.4293

> <Gold.PLP.Chemscore.Hbond>
2.6960

> <Gold.PLP.Chemscore.CHOScore>
1.0000

> <Gold.PLP.Chemscore.Metal>
0.0000

> <Gold.Chemscore.Hbonds>
donor molecule, donor type, donor heavy atom, donor atom, acceptor molecule, acceptor atom, score
      L1  H    10    31       P1  7948  0.87
      L1  H    13    32       P1  7948  0.80
      P1  H  7989  7998       L1     5  1.00
      L1  C     6    28       P1  8028  0.89

> <Gold.PLP.Chemscore.Internal.Correction>
0.0111

> <Gold.Rescore>
     Score         DG    S(hbond)    S(metal)    S(lipo)     H(rot)  DE(clash)    DE(int)     intcor
     17.07     -18.44       2.20        0.00      78.01       1.38       0.05       1.31       ----

> <Gold.Chemscore.Fitness>
17.0733

> <Gold.Chemscore.DG>
-18.4390

> <Gold.Chemscore.ZeroCoef>
-5.4800

> <Gold.Chemscore.Hbond>
2.2028

> <Gold.Chemscore.Metal>
0.0000

> <Gold.Chemscore.Lipo>
78.0062

> <Gold.Chemscore.Internal_Hbond>
0.0000

> <Gold.Chemscore.DEClash>
0.0515

> <Gold.Chemscore.DEInternal>
1.3141

> <Gold.Chemscore.Rot>
1.3770

> <Gold.Chemscore.Internal.Correction>
   9.000000E+99

> <Gold.Chemscore.Hbonds>
donor molecule, donor type, donor heavy atom, donor atom, acceptor molecule, acceptor atom, score
      L1  H    10    31       P1  7948  0.81
      L1  H    13    32       P1  7948  0.79
      P1  H  7989  7998       L1     5  0.33

> <Gold.Chemscore.Hbond.Weighted>
-7.3574

> <Gold.Chemscore.Metal.Weighted>
-0.0000

> <Gold.Chemscore.Lipo.Weighted>
-9.1267

> <Gold.Chemscore.Internal_Hbond.Weighted>
0.0000

> <Gold.Chemscore.DEClash.Weighted>
0.0515

> <Gold.Chemscore.DEInternal.Weighted>
1.3141

> <Gold.Chemscore.Rot.Weighted>
3.5252

> <Gold.Chemscore.Internal.Correction.Weighted>
   9.000000E+99

> <Gold.Protein.RotatedTorsions>
[ 6907 6896 6895 6894 ] final -146.33 input  -60.11 | X-H torsion
[ 7974 7965 7964 7962 ] final  147.95 input  175.53 | X-H torsion
[ 8008 7997 7996 7995 ] final -142.71 input   59.86 | X-H torsion
[ 10167 10162 10161 10158 ] final  170.06 input  -65.29 | X-H torsion
[ 10718 10713 10712 10709 ] final  -49.03 input   66.30 | X-H torsion
[ 10763 10752 10751 10750 ] final  175.19 input  -60.55 | X-H torsion
[ 11005 11000 10999 10996 ] final   76.56 input  -57.11 | X-H torsion

> <Gold.Protein.ActiveResidues>
 VAL166  LYS551  ARG553  GLY616  TRP617  ASP618  TYR619  PRO620  LYS621  CYS622 
 ASP623  PHE694  ASN695  SER759  ASP760  ASP761  ALA762  ILE779  LEU786  VAL792 
 PHE793  MET794  SER795  GLU796  ALA797  LYS798  CYS799  TRP800  GLU811  SER814 

> <Gold.Protein.RotatedAtoms>
  151.1402  133.4977  159.2596 H   0  0  0  0  0  0  0  0  0  0  0  0  # atno 6907 bound_to 6896
  151.1663  135.0297  159.8742 H   0  0  0  0  0  0  0  0  0  0  0  0  # atno 6908 bound_to 6896
  152.5462  134.1270  159.8476 H   0  0  0  0  0  0  0  0  0  0  0  0  # atno 6909 bound_to 6896
  144.8551  139.6093  143.5956 H   0  0  0  0  0  0  0  0  0  0  0  0  # atno 7974 bound_to 7965
  155.4987  140.0574  157.2942 H   0  0  0  0  0  0  0  0  0  0  0  0  # atno 8008 bound_to 7997
  154.4595  140.1989  156.0234 H   0  0  0  0  0  0  0  0  0  0  0  0  # atno 8009 bound_to 7997
  156.0864  140.3240  155.7763 H   0  0  0  0  0  0  0  0  0  0  0  0  # atno 8010 bound_to 7997
  139.5008  144.3638  151.9797 H   0  0  0  0  0  0  0  0  0  0  0  0  # atno 10167 bound_to 10162
  156.1931  130.4153  149.9343 H   0  0  0  0  0  0  0  0  0  0  0  0  # atno 10718 bound_to 10713
  154.4642  135.2769  155.1691 H   0  0  0  0  0  0  0  0  0  0  0  0  # atno 10763 bound_to 10752
  154.3466  135.6159  153.5626 H   0  0  0  0  0  0  0  0  0  0  0  0  # atno 10764 bound_to 10752
  152.9857  135.5801  154.5010 H   0  0  0  0  0  0  0  0  0  0  0  0  # atno 10765 bound_to 10752
  139.9293  134.7611  156.1411 H   0  0  0  0  0  0  0  0  0  0  0  0  # atno 11005 bound_to 11000
  146.2817  139.6894  142.9224 LP  0  0  0  0  0  0  0  0  0  0  0  0  # atno 17320 bound_to 7965
  145.4422  141.0423  143.2851 LP  0  0  0  0  0  0  0  0  0  0  0  0  # atno 17321 bound_to 7965
  140.3074  144.3577  150.6043 LP  0  0  0  0  0  0  0  0  0  0  0  0  # atno 17342 bound_to 10162
  140.5825  143.2172  151.7402 LP  0  0  0  0  0  0  0  0  0  0  0  0  # atno 17343 bound_to 10162
  156.7077  130.8958  151.3606 LP  0  0  0  0  0  0  0  0  0  0  0  0  # atno 17370 bound_to 10713
  157.6941  130.9264  150.0596 LP  0  0  0  0  0  0  0  0  0  0  0  0  # atno 17371 bound_to 10713
  141.0871  133.6729  156.2460 LP  0  0  0  0  0  0  0  0  0  0  0  0  # atno 17394 bound_to 11000
  140.6248  134.5325  157.5552 LP  0  0  0  0  0  0  0  0  0  0  0  0  # atno 17395 bound_to 11000

$$$$
