AV-unprocessed.smi:2421|AV-procd|sdf|9556|dock2
  -GOLD-   2272013183D 1   1.00000     0.00000
 Structure written by MMmdl.
 44 46  0  0  0  0  0  0  0  0  1 V2000
  148.8317  126.3930  150.1931 C   0  0  0  0  0  0  0  0  0  0  0  0
  148.1714  126.6006  151.5254 C   0  0  0  0  0  0  0  0  0  0  0  0
  148.0574  125.5933  152.3780 N   0  0  0  0  0  0  0  0  0  0  0  0
  147.3947  126.1012  153.5089 O   0  0  0  0  0  0  0  0  0  0  0  0
  147.1209  127.4185  153.3078 C   0  0  0  0  0  0  0  0  0  0  0  0
  146.4080  128.1446  154.3973 C   0  0  0  0  0  0  0  0  0  0  0  0
  147.5997  127.7732  152.0825 C   0  0  0  0  0  0  0  0  0  0  0  0
  147.5030  129.0402  151.4714 N   0  0  0  0  0  0  0  0  0  0  0  0
  146.4381  129.8504  151.5886 C   0  0  0  0  0  0  0  0  0  0  0  0
  145.4052  129.5325  152.1757 O   0  0  0  0  0  0  0  0  0  0  0  0
  146.5779  131.0512  150.9984 N   0  0  0  0  0  0  0  0  0  0  0  0
  145.6121  132.1507  150.9444 C   0  0  1  0  0  0  0  0  0  0  0  0
  144.1929  131.5880  150.7988 C   0  0  0  0  0  0  0  0  0  0  0  0
  143.1591  132.7225  150.8289 C   0  0  0  0  0  0  0  0  0  0  0  0
  143.2973  133.4987  152.0177 O   0  0  0  0  0  0  0  0  0  0  0  0
  144.5816  134.0949  152.2354 C   0  0  0  0  0  0  0  0  0  0  0  0
  144.8380  135.2666  151.2705 C   0  0  0  0  0  0  0  0  0  0  0  0
  143.9812  136.4189  151.8029 C   0  0  0  0  0  0  0  0  0  0  0  0
  143.7914  136.1466  153.3018 C   0  0  0  0  0  0  0  0  0  0  0  0
  144.4967  134.8149  153.5867 C   0  0  0  0  0  0  0  0  0  0  0  0
  145.6768  133.0066  152.2215 C   0  0  0  0  0  0  0  0  0  0  0  0
  148.8783  127.3214  149.6236 H   0  0  0  0  0  0  0  0  0  0  0  0
  148.2849  125.6645  149.5941 H   0  0  0  0  0  0  0  0  0  0  0  0
  149.8519  126.0287  150.3144 H   0  0  0  0  0  0  0  0  0  0  0  0
  146.2940  129.2012  154.1537 H   0  0  0  0  0  0  0  0  0  0  0  0
  146.9602  128.0726  155.3342 H   0  0  0  0  0  0  0  0  0  0  0  0
  145.4149  127.7244  154.5554 H   0  0  0  0  0  0  0  0  0  0  0  0
  148.3069  129.3699  150.9573 H   0  0  0  0  0  0  0  0  0  0  0  0
  147.4463  131.2088  150.5075 H   0  0  0  0  0  0  0  0  0  0  0  0
  145.8183  132.7746  150.0730 H   0  0  0  0  0  0  0  0  0  0  0  0
  144.1001  131.0255  149.8692 H   0  0  0  0  0  0  0  0  0  0  0  0
  143.9832  130.8891  151.6100 H   0  0  0  0  0  0  0  0  0  0  0  0
  143.2470  133.3499  149.9426 H   0  0  0  0  0  0  0  0  0  0  0  0
  142.1523  132.3051  150.8075 H   0  0  0  0  0  0  0  0  0  0  0  0
  145.8882  135.5568  151.3272 H   0  0  0  0  0  0  0  0  0  0  0  0
  144.6333  135.0438  150.2244 H   0  0  0  0  0  0  0  0  0  0  0  0
  144.4482  137.3864  151.6158 H   0  0  0  0  0  0  0  0  0  0  0  0
  143.0109  136.4220  151.3046 H   0  0  0  0  0  0  0  0  0  0  0  0
  144.1989  136.9496  153.9168 H   0  0  0  0  0  0  0  0  0  0  0  0
  142.7279  136.0671  153.5311 H   0  0  0  0  0  0  0  0  0  0  0  0
  143.9846  134.2253  154.3482 H   0  0  0  0  0  0  0  0  0  0  0  0
  145.5022  135.0195  153.9580 H   0  0  0  0  0  0  0  0  0  0  0  0
  145.5451  132.3600  153.0907 H   0  0  0  0  0  0  0  0  0  0  0  0
  146.6614  133.4629  152.3303 H   0  0  0  0  0  0  0  0  0  0  0  0
  1  2  1  0  0  0  0
  1 22  1  0  0  0  0
  1 23  1  0  0  0  0
  1 24  1  0  0  0  0
  2  7  1  0  0  0  0
  2  3  2  0  0  0  0
  3  4  1  0  0  0  0
  4  5  1  0  0  0  0
  5  6  1  0  0  0  0
  5  7  2  0  0  0  0
  6 25  1  0  0  0  0
  6 26  1  0  0  0  0
  6 27  1  0  0  0  0
  7  8  1  0  0  0  0
  8  9  1  0  0  0  0
  8 28  1  0  0  0  0
  9 10  2  0  0  0  0
  9 11  1  0  0  0  0
 11 12  1  0  0  0  0
 11 29  1  0  0  0  0
 12 21  1  0  0  0  0
 12 13  1  0  0  0  0
 12 30  1  0  0  0  0
 13 14  1  0  0  0  0
 13 31  1  0  0  0  0
 13 32  1  0  0  0  0
 14 15  1  0  0  0  0
 14 33  1  0  0  0  0
 14 34  1  0  0  0  0
 15 16  1  0  0  0  0
 16 20  1  0  0  0  0
 16 17  1  0  0  0  0
 16 21  1  0  0  0  0
 17 18  1  0  0  0  0
 17 35  1  0  0  0  0
 17 36  1  0  0  0  0
 18 19  1  0  0  0  0
 18 37  1  0  0  0  0
 18 38  1  0  0  0  0
 19 20  1  0  0  0  0
 19 39  1  0  0  0  0
 19 40  1  0  0  0  0
 20 41  1  0  0  0  0
 20 42  1  0  0  0  0
 21 43  1  0  0  0  0
 21 44  1  0  0  0  0
M  END
> <s_m_source_file>
AV-unprocessed.smi

> <i_m_source_file_index>
2421

> <i_lp_mmshare_version>
43012

> <i_f3d_flags>
0

> <s_epik_input>
W0NIM11jMW5vYyhbQ0gzXSljMVtOSF1DKD1PKVtOSF1bQ0BASF0oW0NIMl0yKVtDSDJdW0NIMl1PQzIzW0NIMl1bQ0gyXVtDSDJdW0NIMl0z

> <s_epik_cmdline>
J2VwaWtfcHl0aG9uJywgJy1waCcsICc3LjAnLCAnLXRuJywgJzgnLCAnLW1hJywgJzIwMCcsICctbWV0YWxfYmluZGluZycsICctaW1hZScsICc8aW5maWxlLm1hZT4nLCAnLW9tYWUnLCAnPG91dGZpbGUubWFlPic=

> <r_lp_tautomer_probability>
1

> <r_epik_Ionization_Penalty>
3.59808e-05

> <r_epik_Ionization_Penalty_Charging>
0

> <r_epik_Ionization_Penalty_Neutral>
3.59808e-05

> <r_epik_State_Penalty>
-0

> <r_epik_Charging_Adjusted_Penalty>
0

> <i_epik_Tot_Q>
0

> <i_epik_Tot_abs_Q>
0

> <r_epik_Metal_State_Penalty>
-0

> <b_epik_Metal_Only>
0

> <s_lp_Force_Field>
OPLS_2005

> <r_lp_Energy>
43.4187

> <b_lp_Chiralities_Consistent>
1

> <s_lp_Variant>
AV-unprocessed.smi:2421-2

> <Gold.Version>
5.8.1

> <Gold.Id.Protein>
6NUR|6NUR_protein|mol2

> <Gold.PLP.Fitness>
40.8889

> <Gold.PLP.PLP>
-36.1460

> <Gold.PLP.part.hbond>
-3.5513

> <Gold.PLP.part.metal>
0.0000

> <Gold.PLP.part.buried>
-2.7093

> <Gold.PLP.part.nonpolar>
-30.2662

> <Gold.PLP.part.repulsive>
0.5391

> <Gold.PLP.ligand.clash>
0.0000

> <Gold.PLP.ligand.torsion>
0.6074

> <Gold.PLP.Chemscore.Hbond>
1.8208

> <Gold.PLP.Chemscore.CHOScore>
0.0000

> <Gold.PLP.Chemscore.Metal>
0.0000

> <Gold.Chemscore.Hbonds>
donor molecule, donor type, donor heavy atom, donor atom, acceptor molecule, acceptor atom, score
      L1  H     8    28       P1 10747  0.82
      L1  H    11    29       P1 10747  1.00

> <Gold.PLP.Chemscore.Internal.Correction>
0.4952

> <Gold.Rescore>
     Score         DG    S(hbond)    S(metal)    S(lipo)     H(rot)  DE(clash)    DE(int)     intcor
     11.58     -16.26       1.20        0.00      79.80       1.00       0.38       4.29       ----

> <Gold.Chemscore.Fitness>
11.5835

> <Gold.Chemscore.DG>
-16.2606

> <Gold.Chemscore.ZeroCoef>
-5.4800

> <Gold.Chemscore.Hbond>
1.1987

> <Gold.Chemscore.Metal>
0.0000

> <Gold.Chemscore.Lipo>
79.8038

> <Gold.Chemscore.Internal_Hbond>
0.0000

> <Gold.Chemscore.DEClash>
0.3848

> <Gold.Chemscore.DEInternal>
4.2923

> <Gold.Chemscore.Rot>
1.0000

> <Gold.Chemscore.Internal.Correction>
   9.000000E+99

> <Gold.Chemscore.Hbonds>
donor molecule, donor type, donor heavy atom, donor atom, acceptor molecule, acceptor atom, score
      L1  H     8    28       P1 10747  0.18
      L1  H    11    29       P1 10747  0.92

> <Gold.Chemscore.Hbond.Weighted>
-4.0036

> <Gold.Chemscore.Metal.Weighted>
-0.0000

> <Gold.Chemscore.Lipo.Weighted>
-9.3370

> <Gold.Chemscore.Internal_Hbond.Weighted>
0.0000

> <Gold.Chemscore.DEClash.Weighted>
0.3848

> <Gold.Chemscore.DEInternal.Weighted>
4.2923

> <Gold.Chemscore.Rot.Weighted>
2.5600

> <Gold.Chemscore.Internal.Correction.Weighted>
   9.000000E+99

> <Gold.Protein.RotatedTorsions>
[ 6907 6896 6895 6894 ] final -170.30 input  -60.11 | X-H torsion
[ 7974 7965 7964 7962 ] final   22.94 input  175.53 | X-H torsion
[ 8008 7997 7996 7995 ] final  -31.60 input   59.86 | X-H torsion
[ 10167 10162 10161 10158 ] final  -72.73 input  -65.29 | X-H torsion
[ 10718 10713 10712 10709 ] final  -18.49 input   66.30 | X-H torsion
[ 10763 10752 10751 10750 ] final -173.24 input  -60.55 | X-H torsion
[ 11005 11000 10999 10996 ] final  -50.08 input  -57.11 | X-H torsion

> <Gold.Protein.ActiveResidues>
 VAL166  LYS551  ARG553  GLY616  TRP617  ASP618  TYR619  PRO620  LYS621  CYS622 
 ASP623  PHE694  ASN695  SER759  ASP760  ASP761  ALA762  ILE779  LEU786  VAL792 
 PHE793  MET794  SER795  GLU796  ALA797  LYS798  CYS799  TRP800  GLU811  SER814 

> <Gold.Protein.RotatedAtoms>
  151.5055  133.3495  159.2875 H   0  0  0  0  0  0  0  0  0  0  0  0  # atno 6907 bound_to 6896
  150.8746  134.8128  159.7191 H   0  0  0  0  0  0  0  0  0  0  0  0  # atno 6908 bound_to 6896
  152.4721  134.4944  159.9757 H   0  0  0  0  0  0  0  0  0  0  0  0  # atno 6909 bound_to 6896
  146.2007  139.7815  142.8764 H   0  0  0  0  0  0  0  0  0  0  0  0  # atno 7974 bound_to 7965
  154.4208  140.1760  156.1593 H   0  0  0  0  0  0  0  0  0  0  0  0  # atno 8008 bound_to 7997
  155.9851  140.3374  155.6675 H   0  0  0  0  0  0  0  0  0  0  0  0  # atno 8009 bound_to 7997
  155.6448  140.0684  157.2597 H   0  0  0  0  0  0  0  0  0  0  0  0  # atno 8010 bound_to 7997
  140.5169  143.2337  151.7498 H   0  0  0  0  0  0  0  0  0  0  0  0  # atno 10167 bound_to 10162
  156.5589  130.4720  149.6416 H   0  0  0  0  0  0  0  0  0  0  0  0  # atno 10718 bound_to 10713
  154.6101  135.2863  155.0441 H   0  0  0  0  0  0  0  0  0  0  0  0  # atno 10763 bound_to 10752
  154.1674  135.6478  153.5004 H   0  0  0  0  0  0  0  0  0  0  0  0  # atno 10764 bound_to 10752
  153.0192  135.5392  154.6852 H   0  0  0  0  0  0  0  0  0  0  0  0  # atno 10765 bound_to 10752
  141.0796  133.6657  156.3679 H   0  0  0  0  0  0  0  0  0  0  0  0  # atno 11005 bound_to 11000
  145.3494  141.0304  143.3347 LP  0  0  0  0  0  0  0  0  0  0  0  0  # atno 17320 bound_to 7965
  144.8676  139.5084  143.6783 LP  0  0  0  0  0  0  0  0  0  0  0  0  # atno 17321 bound_to 7965
  139.4912  144.4311  151.9871 LP  0  0  0  0  0  0  0  0  0  0  0  0  # atno 17342 bound_to 10162
  140.3406  144.3208  150.5968 LP  0  0  0  0  0  0  0  0  0  0  0  0  # atno 17343 bound_to 10162
  156.2817  130.7074  151.1900 LP  0  0  0  0  0  0  0  0  0  0  0  0  # atno 17370 bound_to 10713
  157.7372  131.0554  150.5366 LP  0  0  0  0  0  0  0  0  0  0  0  0  # atno 17371 bound_to 10713
  140.5498  134.6039  157.5404 LP  0  0  0  0  0  0  0  0  0  0  0  0  # atno 17394 bound_to 11000
  139.9609  134.7454  156.0239 LP  0  0  0  0  0  0  0  0  0  0  0  0  # atno 17395 bound_to 11000

$$$$
