AV-unprocessed.smi:788|AV-procd|sdf|3737|dock5
  -GOLD-   22720 1173D 1   1.00000     0.00000
 Structure written by MMmdl.
 34 35  0  0  0  0  0  0  0  0  2 V2000
  152.3952  144.7960  157.3857 C   0  0  0  0  0  0  0  0  0  0  0  0
  151.9528  143.6975  158.3698 C   0  0  2  0  0  0  0  0  0  0  0  0
  153.0016  143.5215  159.4843 C   0  0  0  0  0  0  0  0  0  0  0  0
  152.5777  142.4498  160.4963 C   0  0  0  0  0  0  0  0  0  0  0  0
  152.3174  141.1100  159.7969 C   0  0  0  0  0  0  0  0  0  0  0  0
  151.2581  141.2461  158.6867 C   0  0  2  0  0  0  0  0  0  0  0  0
  151.0035  139.8829  158.0177 C   0  0  0  0  0  0  0  0  0  0  0  0
  151.6629  142.3443  157.6688 C   0  0  1  0  0  0  0  0  0  0  0  0
  150.5938  142.5131  156.6825 N   0  0  0  0  0  0  0  0  0  0  0  0
  150.3348  141.7312  155.6152 C   0  0  0  0  0  0  0  0  0  0  0  0
  151.0615  140.7654  155.3872 O   0  0  0  0  0  0  0  0  0  0  0  0
  149.2690  142.0580  154.8376 N   0  5  0  0  0  0  0  0  0  0  0  0
  148.4628  141.1311  154.2877 C   0  0  0  0  0  0  0  0  0  0  0  0
  148.8217  139.8424  154.1701 N   0  0  0  0  0  0  0  0  0  0  0  0
  147.8474  139.0576  153.5686 N   0  0  0  0  0  0  0  0  0  0  0  0
  146.7695  139.7763  153.2552 C   0  0  0  0  0  0  0  0  0  0  0  0
  146.8472  141.4769  153.6642 S   0  0  0  0  0  0  0  0  0  0  0  0
  153.2906  144.4993  156.8390 H   0  0  0  0  0  0  0  0  0  0  0  0
  152.6179  145.7256  157.9098 H   0  0  0  0  0  0  0  0  0  0  0  0
  151.6184  145.0196  156.6542 H   0  0  0  0  0  0  0  0  0  0  0  0
  151.0287  144.0380  158.8400 H   0  0  0  0  0  0  0  0  0  0  0  0
  153.9625  143.2478  159.0463 H   0  0  0  0  0  0  0  0  0  0  0  0
  153.1578  144.4680  160.0030 H   0  0  0  0  0  0  0  0  0  0  0  0
  153.3514  142.3283  161.2548 H   0  0  0  0  0  0  0  0  0  0  0  0
  151.6773  142.7731  161.0201 H   0  0  0  0  0  0  0  0  0  0  0  0
  153.2496  140.7334  159.3736 H   0  0  0  0  0  0  0  0  0  0  0  0
  151.9941  140.3738  160.5337 H   0  0  0  0  0  0  0  0  0  0  0  0
  150.3245  141.5539  159.1606 H   0  0  0  0  0  0  0  0  0  0  0  0
  151.8884  139.5342  157.4844 H   0  0  0  0  0  0  0  0  0  0  0  0
  150.1823  139.9311  157.3022 H   0  0  0  0  0  0  0  0  0  0  0  0
  150.7405  139.1264  158.7570 H   0  0  0  0  0  0  0  0  0  0  0  0
  152.5814  142.0175  157.1786 H   0  0  0  0  0  0  0  0  0  0  0  0
  149.9793  143.3007  156.8270 H   0  0  0  0  0  0  0  0  0  0  0  0
  145.9234  139.3021  152.7810 H   0  0  0  0  0  0  0  0  0  0  0  0
  1  2  1  0  0  0  0
  1 18  1  0  0  0  0
  1 19  1  0  0  0  0
  1 20  1  0  0  0  0
  2  8  1  0  0  0  0
  2  3  1  0  0  0  0
  2 21  1  0  0  0  0
  3  4  1  0  0  0  0
  3 22  1  0  0  0  0
  3 23  1  0  0  0  0
  4  5  1  0  0  0  0
  4 24  1  0  0  0  0
  4 25  1  0  0  0  0
  5  6  1  0  0  0  0
  5 26  1  0  0  0  0
  5 27  1  0  0  0  0
  6  7  1  0  0  0  0
  6  8  1  0  0  0  0
  6 28  1  0  0  0  0
  7 29  1  0  0  0  0
  7 30  1  0  0  0  0
  7 31  1  0  0  0  0
  8  9  1  0  0  0  0
  8 32  1  0  0  0  0
  9 10  1  0  0  0  0
  9 33  1  0  0  0  0
 10 11  2  0  0  0  0
 10 12  1  0  0  0  0
 12 13  1  0  0  0  0
 13 17  1  0  0  0  0
 13 14  2  0  0  0  0
 14 15  1  0  0  0  0
 15 16  2  0  0  0  0
 16 17  1  0  0  0  0
 16 34  1  0  0  0  0
M  CHG  1  12  -1
M  END
> <s_m_source_file>
AV-unprocessed.smi

> <i_m_source_file_index>
788

> <i_lp_mmshare_version>
43012

> <i_f3d_flags>
0

> <s_epik_input>
W0NIM11bQ0BASF0xW0NIMl1bQ0gyXVtDSDJdW0NAQEhdKFtDSDNdKVtDQEhdMVtOSF1DKD1PKVtOSF1jMm5uW2NIXXMy

> <s_epik_cmdline>
J2VwaWtfcHl0aG9uJywgJy1waCcsICc3LjAnLCAnLXRuJywgJzgnLCAnLW1hJywgJzIwMCcsICctbWV0YWxfYmluZGluZycsICctaW1hZScsICc8aW5maWxlLm1hZT4nLCAnLW9tYWUnLCAnPG91dGZpbGUubWFlPic=

> <r_lp_tautomer_probability>
1

> <r_epik_Ionization_Penalty>
4.58638

> <r_epik_Ionization_Penalty_Charging>
4.53816

> <r_epik_Ionization_Penalty_Neutral>
0.048215

> <r_epik_State_Penalty>
4.53788

> <r_epik_Charging_Adjusted_Penalty>
9.07605

> <i_epik_Tot_Q>
-1

> <i_epik_Tot_abs_Q>
1

> <r_epik_Metal_State_Penalty>
0.838628

> <b_epik_Metal_Only>
1

> <s_lp_Force_Field>
OPLS_2005

> <r_lp_Energy>
11.4954

> <b_lp_Chiralities_Consistent>
1

> <s_lp_Variant>
AV-unprocessed.smi:788-7

> <Gold.Version>
5.8.1

> <Gold.Id.Protein>
6NUR|6NUR_protein|mol2

> <Gold.PLP.Fitness>
38.5227

> <Gold.PLP.PLP>
-33.0850

> <Gold.PLP.part.hbond>
-2.6469

> <Gold.PLP.part.metal>
0.0000

> <Gold.PLP.part.buried>
-5.8894

> <Gold.PLP.part.nonpolar>
-27.0256

> <Gold.PLP.part.repulsive>
2.6801

> <Gold.PLP.ligand.clash>
0.0000

> <Gold.PLP.ligand.torsion>
0.6421

> <Gold.PLP.Chemscore.Hbond>
1.3860

> <Gold.PLP.Chemscore.CHOScore>
0.8525

> <Gold.PLP.Chemscore.Metal>
0.0000

> <Gold.Chemscore.Hbonds>
donor molecule, donor type, donor heavy atom, donor atom, acceptor molecule, acceptor atom, score
      L1  H     9    33       P1  8028  0.59
      P1  H  7989  7998       L1    11  0.80
      L1  C    16    34       P1 10175  0.83

> <Gold.PLP.Chemscore.Internal.Correction>
0.0063

> <Gold.Rescore>
     Score         DG    S(hbond)    S(metal)    S(lipo)     H(rot)  DE(clash)    DE(int)     intcor
     13.01     -18.26       1.31        0.00      93.83       1.00       1.82       3.44       ----

> <Gold.Chemscore.Fitness>
13.0053

> <Gold.Chemscore.DG>
-18.2584

> <Gold.Chemscore.ZeroCoef>
-5.4800

> <Gold.Chemscore.Hbond>
1.3054

> <Gold.Chemscore.Metal>
0.0000

> <Gold.Chemscore.Lipo>
93.8331

> <Gold.Chemscore.Internal_Hbond>
0.0000

> <Gold.Chemscore.DEClash>
1.8151

> <Gold.Chemscore.DEInternal>
3.4380

> <Gold.Chemscore.Rot>
1.0000

> <Gold.Chemscore.Internal.Correction>
   9.000000E+99

> <Gold.Chemscore.Hbonds>
donor molecule, donor type, donor heavy atom, donor atom, acceptor molecule, acceptor atom, score
      L1  H     9    33       P1  8028  0.58
      P1  H  7989  7998       L1    11  0.47

> <Gold.Chemscore.Hbond.Weighted>
-4.3600

> <Gold.Chemscore.Metal.Weighted>
-0.0000

> <Gold.Chemscore.Lipo.Weighted>
-10.9785

> <Gold.Chemscore.Internal_Hbond.Weighted>
0.0000

> <Gold.Chemscore.DEClash.Weighted>
1.8151

> <Gold.Chemscore.DEInternal.Weighted>
3.4380

> <Gold.Chemscore.Rot.Weighted>
2.5600

> <Gold.Chemscore.Internal.Correction.Weighted>
   9.000000E+99

> <Gold.Protein.RotatedTorsions>
[ 6907 6896 6895 6894 ] final   92.57 input  -60.11 | X-H torsion
[ 7974 7965 7964 7962 ] final  150.31 input  175.53 | X-H torsion
[ 8008 7997 7996 7995 ] final  -32.26 input   59.86 | X-H torsion
[ 10167 10162 10161 10158 ] final -136.28 input  -65.29 | X-H torsion
[ 10718 10713 10712 10709 ] final -140.18 input   66.30 | X-H torsion
[ 10763 10752 10751 10750 ] final   58.56 input  -60.55 | X-H torsion
[ 11005 11000 10999 10996 ] final  100.36 input  -57.11 | X-H torsion

> <Gold.Protein.ActiveResidues>
 VAL166  LYS551  ARG553  GLY616  TRP617  ASP618  TYR619  PRO620  LYS621  CYS622 
 ASP623  PHE694  ASN695  SER759  ASP760  ASP761  ALA762  ILE779  LEU786  VAL792 
 PHE793  MET794  SER795  GLU796  ALA797  LYS798  CYS799  TRP800  GLU811  SER814 

> <Gold.Protein.RotatedAtoms>
  152.5453  134.1481  159.8506 H   0  0  0  0  0  0  0  0  0  0  0  0  # atno 6907 bound_to 6896
  151.1510  133.4900  159.2602 H   0  0  0  0  0  0  0  0  0  0  0  0  # atno 6908 bound_to 6896
  151.1472  135.0220  159.8707 H   0  0  0  0  0  0  0  0  0  0  0  0  # atno 6909 bound_to 6896
  144.8374  139.6391  143.6032 H   0  0  0  0  0  0  0  0  0  0  0  0  # atno 7974 bound_to 7965
  154.4186  140.1742  156.1699 H   0  0  0  0  0  0  0  0  0  0  0  0  # atno 8008 bound_to 7997
  155.9769  140.3381  155.6603 H   0  0  0  0  0  0  0  0  0  0  0  0  # atno 8009 bound_to 7997
  155.6551  140.0694  157.2564 H   0  0  0  0  0  0  0  0  0  0  0  0  # atno 8010 bound_to 7997
  139.8694  143.6976  152.2641 H   0  0  0  0  0  0  0  0  0  0  0  0  # atno 10167 bound_to 10162
  156.3193  130.7525  151.1619 H   0  0  0  0  0  0  0  0  0  0  0  0  # atno 10718 bound_to 10713
  152.9873  135.5602  154.5571 H   0  0  0  0  0  0  0  0  0  0  0  0  # atno 10763 bound_to 10752
  154.4997  135.2796  155.1432 H   0  0  0  0  0  0  0  0  0  0  0  0  # atno 10764 bound_to 10752
  154.2868  135.6334  153.5422 H   0  0  0  0  0  0  0  0  0  0  0  0  # atno 10765 bound_to 10752
  139.8771  134.9137  156.4745 H   0  0  0  0  0  0  0  0  0  0  0  0  # atno 11005 bound_to 11000
  146.2671  139.6545  142.9322 LP  0  0  0  0  0  0  0  0  0  0  0  0  # atno 17320 bound_to 7965
  145.4766  141.0437  143.2669 LP  0  0  0  0  0  0  0  0  0  0  0  0  # atno 17321 bound_to 7965
  139.7298  144.7585  151.0820 LP  0  0  0  0  0  0  0  0  0  0  0  0  # atno 17342 bound_to 10162
  140.7763  143.5102  150.9662 LP  0  0  0  0  0  0  0  0  0  0  0  0  # atno 17343 bound_to 10162
  157.7408  131.0512  150.5139 LP  0  0  0  0  0  0  0  0  0  0  0  0  # atno 17370 bound_to 10713
  156.5289  130.4180  149.6212 LP  0  0  0  0  0  0  0  0  0  0  0  0  # atno 17371 bound_to 10713
  140.8772  133.7945  155.9427 LP  0  0  0  0  0  0  0  0  0  0  0  0  # atno 17394 bound_to 11000
  140.8892  134.2516  157.5103 LP  0  0  0  0  0  0  0  0  0  0  0  0  # atno 17395 bound_to 11000

$$$$
