AV-unprocessed.smi:833|AV-procd|sdf|3882|dock9
  -GOLD-   22720 1333D 1   1.00000     0.00000
 Structure written by MMmdl.
 40 41  0  0  0  0  0  0  0  0  2 V2000
  154.3064  136.5739  162.9920 C   0  0  0  0  0  0  0  0  0  0  0  0
  153.6849  137.0681  161.6787 C   0  0  2  0  0  0  0  0  0  0  0  0
  153.8163  136.0164  160.7446 O   0  0  0  0  0  0  0  0  0  0  0  0
  154.4003  138.3217  161.1347 C   0  0  0  0  0  0  0  0  0  0  0  0
  153.5836  139.0382  160.1605 N   0  0  0  0  0  0  0  0  0  0  0  0
  153.3894  140.3639  160.1439 C   0  0  0  0  0  0  0  0  0  0  0  0
  153.8875  141.1370  160.9618 O   0  0  0  0  0  0  0  0  0  0  0  0
  152.6071  140.7299  159.1150 N   0  0  0  0  0  0  0  0  0  0  0  0
  152.2433  142.0501  158.7270 C   0  0  0  0  0  0  0  0  0  0  0  0
  152.6747  143.1755  159.4754 C   0  0  0  0  0  0  0  0  0  0  0  0
  152.2466  144.4666  159.1141 C   0  0  0  0  0  0  0  0  0  0  0  0
  151.3782  144.6130  158.0191 C   0  0  0  0  0  0  0  0  0  0  0  0
  150.9751  143.5222  157.3354 N   0  3  0  0  0  0  0  0  0  0  0  0
  151.3641  142.2550  157.6238 C   0  0  0  0  0  0  0  0  0  0  0  0
  150.8671  141.2121  156.8083 N   0  0  0  0  0  0  0  0  0  0  0  0
  149.8184  141.4752  155.8293 C   0  0  0  0  0  0  0  0  0  0  0  0
  149.8091  140.2513  154.9174 C   0  0  0  0  0  0  0  0  0  0  0  0
  151.2843  139.8650  154.8718 C   0  0  0  0  0  0  0  0  0  0  0  0
  151.7961  140.2230  156.2708 C   0  0  0  0  0  0  0  0  0  0  0  0
  154.2193  137.3277  163.7748 H   0  0  0  0  0  0  0  0  0  0  0  0
  155.3651  136.3426  162.8695 H   0  0  0  0  0  0  0  0  0  0  0  0
  153.8072  135.6724  163.3493 H   0  0  0  0  0  0  0  0  0  0  0  0
  152.6257  137.2713  161.8430 H   0  0  0  0  0  0  0  0  0  0  0  0
  154.2204  136.3588  159.9613 H   0  0  0  0  0  0  0  0  0  0  0  0
  154.5711  139.0236  161.9516 H   0  0  0  0  0  0  0  0  0  0  0  0
  155.3872  138.0839  160.7328 H   0  0  0  0  0  0  0  0  0  0  0  0
  153.1366  138.4798  159.4482 H   0  0  0  0  0  0  0  0  0  0  0  0
  152.3445  139.9969  158.4724 H   0  0  0  0  0  0  0  0  0  0  0  0
  153.3128  143.0655  160.3392 H   0  0  0  0  0  0  0  0  0  0  0  0
  152.5698  145.3297  159.6776 H   0  0  0  0  0  0  0  0  0  0  0  0
  150.9921  145.5612  157.6737 H   0  0  0  0  0  0  0  0  0  0  0  0
  148.8522  141.6282  156.3107 H   0  0  0  0  0  0  0  0  0  0  0  0
  150.0571  142.3642  155.2441 H   0  0  0  0  0  0  0  0  0  0  0  0
  149.2276  139.4487  155.3731 H   0  0  0  0  0  0  0  0  0  0  0  0
  149.3897  140.4580  153.9323 H   0  0  0  0  0  0  0  0  0  0  0  0
  151.4436  138.8167  154.6175 H   0  0  0  0  0  0  0  0  0  0  0  0
  151.7983  140.4729  154.1259 H   0  0  0  0  0  0  0  0  0  0  0  0
  152.8210  140.5947  156.2345 H   0  0  0  0  0  0  0  0  0  0  0  0
  151.7765  139.3409  156.9112 H   0  0  0  0  0  0  0  0  0  0  0  0
  150.3435  143.6613  156.5466 H   0  0  0  0  0  0  0  0  0  0  0  0
  1  2  1  0  0  0  0
  1 20  1  0  0  0  0
  1 21  1  0  0  0  0
  1 22  1  0  0  0  0
  2  3  1  0  0  0  0
  2  4  1  0  0  0  0
  2 23  1  0  0  0  0
  3 24  1  0  0  0  0
  4  5  1  0  0  0  0
  4 25  1  0  0  0  0
  4 26  1  0  0  0  0
  5  6  1  0  0  0  0
  5 27  1  0  0  0  0
  6  7  2  0  0  0  0
  6  8  1  0  0  0  0
  8  9  1  0  0  0  0
  8 28  1  0  0  0  0
  9 14  1  0  0  0  0
  9 10  2  0  0  0  0
 10 11  1  0  0  0  0
 10 29  1  0  0  0  0
 11 12  2  0  0  0  0
 11 30  1  0  0  0  0
 12 13  1  0  0  0  0
 12 31  1  0  0  0  0
 13 14  2  0  0  0  0
 13 40  1  0  0  0  0
 14 15  1  0  0  0  0
 15 19  1  0  0  0  0
 15 16  1  0  0  0  0
 16 17  1  0  0  0  0
 16 32  1  0  0  0  0
 16 33  1  0  0  0  0
 17 18  1  0  0  0  0
 17 34  1  0  0  0  0
 17 35  1  0  0  0  0
 18 19  1  0  0  0  0
 18 36  1  0  0  0  0
 18 37  1  0  0  0  0
 19 38  1  0  0  0  0
 19 39  1  0  0  0  0
M  CHG  1  13   1
M  END
> <s_m_source_file>
AV-unprocessed.smi

> <i_m_source_file_index>
833

> <i_lp_mmshare_version>
43012

> <i_f3d_flags>
0

> <s_epik_input>
W0NIM11bQ0BIXShbT0hdKVtDSDJdW05IXUMoPU8pW05IXWMxW2NIXVtjSF1bY0hdbmMxTjJbQ0gyXVtDSDJdW0NIMl1bQ0gyXTI=

> <s_epik_cmdline>
J2VwaWtfcHl0aG9uJywgJy1waCcsICc3LjAnLCAnLXRuJywgJzgnLCAnLW1hJywgJzIwMCcsICctbWV0YWxfYmluZGluZycsICctaW1hZScsICc8aW5maWxlLm1hZT4nLCAnLW9tYWUnLCAnPG91dGZpbGUubWFlPic=

> <r_lp_tautomer_probability>
0.999994

> <r_epik_Ionization_Penalty>
1.11387

> <r_epik_Ionization_Penalty_Charging>
1.11385

> <r_epik_Ionization_Penalty_Neutral>
1.95796e-05

> <r_epik_State_Penalty>
1.17209

> <r_epik_Charging_Adjusted_Penalty>
2.28594

> <i_epik_Tot_Q>
1

> <i_epik_Tot_abs_Q>
1

> <r_epik_Metal_State_Penalty>
1.25763

> <b_epik_Metal_Only>
0

> <s_lp_Force_Field>
OPLS_2005

> <r_lp_Energy>
38.091

> <b_lp_Chiralities_Consistent>
1

> <s_lp_Variant>
AV-unprocessed.smi:833-3

> <Gold.Version>
5.8.1

> <Gold.Id.Protein>
6NUR|6NUR_protein|mol2

> <Gold.PLP.Fitness>
46.7462

> <Gold.PLP.PLP>
-38.3393

> <Gold.PLP.part.hbond>
-2.0000

> <Gold.PLP.part.metal>
0.0000

> <Gold.PLP.part.buried>
-2.5752

> <Gold.PLP.part.nonpolar>
-34.6858

> <Gold.PLP.part.repulsive>
0.2176

> <Gold.PLP.ligand.clash>
0.0000

> <Gold.PLP.ligand.torsion>
0.4589

> <Gold.PLP.Chemscore.Hbond>
2.9753

> <Gold.PLP.Chemscore.CHOScore>
0.0000

> <Gold.PLP.Chemscore.Metal>
0.0000

> <Gold.Chemscore.Hbonds>
donor molecule, donor type, donor heavy atom, donor atom, acceptor molecule, acceptor atom, score
      L1  H    13    40       P1  8028  1.95
      P1  H  6896  6908       L1     3  1.00

> <Gold.PLP.Chemscore.Internal.Correction>
0.3989

> <Gold.Rescore>
     Score         DG    S(hbond)    S(metal)    S(lipo)     H(rot)  DE(clash)    DE(int)     intcor
     14.45     -18.01       1.94        0.00      96.78       2.06       1.79       1.77       ----

> <Gold.Chemscore.Fitness>
14.4517

> <Gold.Chemscore.DG>
-18.0080

> <Gold.Chemscore.ZeroCoef>
-5.4800

> <Gold.Chemscore.Hbond>
1.9423

> <Gold.Chemscore.Metal>
0.0000

> <Gold.Chemscore.Lipo>
96.7840

> <Gold.Chemscore.Internal_Hbond>
0.0000

> <Gold.Chemscore.DEClash>
1.7881

> <Gold.Chemscore.DEInternal>
1.7682

> <Gold.Chemscore.Rot>
2.0637

> <Gold.Chemscore.Internal.Correction>
   9.000000E+99

> <Gold.Chemscore.Hbonds>
donor molecule, donor type, donor heavy atom, donor atom, acceptor molecule, acceptor atom, score
      L1  H    13    40       P1  8028  0.90
      P1  H  6896  6908       L1     3  0.42

> <Gold.Chemscore.Hbond.Weighted>
-6.4874

> <Gold.Chemscore.Metal.Weighted>
-0.0000

> <Gold.Chemscore.Lipo.Weighted>
-11.3237

> <Gold.Chemscore.Internal_Hbond.Weighted>
0.0000

> <Gold.Chemscore.DEClash.Weighted>
1.7881

> <Gold.Chemscore.DEInternal.Weighted>
1.7682

> <Gold.Chemscore.Rot.Weighted>
5.2832

> <Gold.Chemscore.Internal.Correction.Weighted>
   9.000000E+99

> <Gold.Protein.RotatedTorsions>
[ 6907 6896 6895 6894 ] final  -71.30 input  -60.11 | X-H torsion
[ 7974 7965 7964 7962 ] final    0.18 input  175.53 | X-H torsion
[ 8008 7997 7996 7995 ] final -102.90 input   59.86 | X-H torsion
[ 10167 10162 10161 10158 ] final   19.02 input  -65.29 | X-H torsion
[ 10718 10713 10712 10709 ] final  163.55 input   66.30 | X-H torsion
[ 10763 10752 10751 10750 ] final  -92.99 input  -60.55 | X-H torsion
[ 11005 11000 10999 10996 ] final   86.41 input  -57.11 | X-H torsion

> <Gold.Protein.ActiveResidues>
 VAL166  LYS551  ARG553  GLY616  TRP617  ASP618  TYR619  PRO620  LYS621  CYS622 
 ASP623  PHE694  ASN695  SER759  ASP760  ASP761  ALA762  ILE779  LEU786  VAL792 
 PHE793  MET794  SER795  GLU796  ALA797  LYS798  CYS799  TRP800  GLU811  SER814 

> <Gold.Protein.RotatedAtoms>
  150.7218  134.5328  159.5708 H   0  0  0  0  0  0  0  0  0  0  0  0  # atno 6907 bound_to 6896
  152.2857  134.7775  160.0397 H   0  0  0  0  0  0  0  0  0  0  0  0  # atno 6908 bound_to 6896
  151.8406  133.3387  159.3678 H   0  0  0  0  0  0  0  0  0  0  0  0  # atno 6909 bound_to 6896
  146.2432  140.1176  142.8341 H   0  0  0  0  0  0  0  0  0  0  0  0  # atno 7974 bound_to 7965
  154.8632  140.0426  157.1678 H   0  0  0  0  0  0  0  0  0  0  0  0  # atno 8008 bound_to 7997
  154.8817  140.2973  155.5400 H   0  0  0  0  0  0  0  0  0  0  0  0  # atno 8009 bound_to 7997
  156.2998  140.2410  156.3821 H   0  0  0  0  0  0  0  0  0  0  0  0  # atno 8010 bound_to 7997
  140.5610  143.9337  150.6643 H   0  0  0  0  0  0  0  0  0  0  0  0  # atno 10167 bound_to 10162
  157.1069  131.0457  151.2474 H   0  0  0  0  0  0  0  0  0  0  0  0  # atno 10718 bound_to 10713
  154.6916  135.5211  153.8400 H   0  0  0  0  0  0  0  0  0  0  0  0  # atno 10763 bound_to 10752
  153.0636  135.6577  154.0415 H   0  0  0  0  0  0  0  0  0  0  0  0  # atno 10764 bound_to 10752
  154.0288  135.2987  155.3351 H   0  0  0  0  0  0  0  0  0  0  0  0  # atno 10765 bound_to 10752
  139.8945  134.8353  156.2716 H   0  0  0  0  0  0  0  0  0  0  0  0  # atno 11005 bound_to 11000
  145.0433  140.8962  143.5039 LP  0  0  0  0  0  0  0  0  0  0  0  0  # atno 17320 bound_to 7965
  145.1261  139.2662  143.5563 LP  0  0  0  0  0  0  0  0  0  0  0  0  # atno 17321 bound_to 7965
  140.2787  143.3404  152.1171 LP  0  0  0  0  0  0  0  0  0  0  0  0  # atno 17342 bound_to 10162
  139.5070  144.6824  151.5974 LP  0  0  0  0  0  0  0  0  0  0  0  0  # atno 17343 bound_to 10162
  157.4592  130.7643  149.7221 LP  0  0  0  0  0  0  0  0  0  0  0  0  # atno 17370 bound_to 10713
  155.9860  130.3978  150.3235 LP  0  0  0  0  0  0  0  0  0  0  0  0  # atno 17371 bound_to 10713
  141.0097  133.7103  156.1092 LP  0  0  0  0  0  0  0  0  0  0  0  0  # atno 17394 bound_to 11000
  140.7385  134.4177  157.5558 LP  0  0  0  0  0  0  0  0  0  0  0  0  # atno 17395 bound_to 11000

$$$$
