AV-unprocessed.smi:1248|AV-procd|sdf|5251|dock2
  -GOLD-   22720 4363D 1   1.00000     0.00000
 Structure written by MMmdl.
 44 46  0  0  0  0  0  0  0  0  2 V2000
  150.5718  142.2321  157.2972 C   0  0  0  0  0  0  0  0  0  0  0  0
  150.8156  141.5573  155.9424 C   0  0  0  0  0  0  0  0  0  0  0  0
  149.7202  140.6815  155.5744 N   0  0  0  0  0  0  0  0  0  0  0  0
  149.6284  139.8404  154.4831 C   0  0  0  0  0  0  0  0  0  0  0  0
  148.4120  139.2347  154.5819 C   0  0  0  0  0  0  0  0  0  0  0  0
  147.9019  138.2883  153.6584 N   0  0  0  0  0  0  0  0  0  0  0  0
  146.6120  138.0157  153.4045 C   0  0  0  0  0  0  0  0  0  0  0  0
  145.6520  138.5446  153.9648 O   0  0  0  0  0  0  0  0  0  0  0  0
  146.4889  137.0836  152.4483 N   0  0  0  0  0  0  0  0  0  0  0  0
  145.2224  136.5668  151.9372 C   0  0  2  0  0  0  0  0  0  0  0  0
  144.6349  135.5500  152.9308 C   0  0  0  0  0  0  0  0  0  0  0  0
  143.3454  134.9099  152.3809 C   0  0  0  0  0  0  0  0  0  0  0  0
  143.5528  134.2907  151.0466 N   0  3  2  0  0  0  0  0  0  0  0  0
  144.3020  133.0133  151.1025 C   0  0  0  0  0  0  0  0  0  0  0  0
  144.7131  132.4907  149.7457 C   0  0  0  0  0  0  0  0  0  0  0  0
  143.5609  131.8497  150.4866 C   0  0  0  0  0  0  0  0  0  0  0  0
  144.1079  135.2564  150.0642 C   0  0  0  0  0  0  0  0  0  0  0  0
  145.4151  135.9013  150.5608 C   0  0  0  0  0  0  0  0  0  0  0  0
  147.8144  139.7542  155.7650 C   0  0  0  0  0  0  0  0  0  0  0  0
  148.6149  140.6275  156.3576 N   0  0  0  0  0  0  0  0  0  0  0  0
  151.4025  142.8873  157.5591 H   0  0  0  0  0  0  0  0  0  0  0  0
  150.4681  141.4924  158.0914 H   0  0  0  0  0  0  0  0  0  0  0  0
  149.6641  142.8364  157.2800 H   0  0  0  0  0  0  0  0  0  0  0  0
  150.9439  142.3085  155.1618 H   0  0  0  0  0  0  0  0  0  0  0  0
  151.7353  140.9717  155.9728 H   0  0  0  0  0  0  0  0  0  0  0  0
  150.4174  139.7505  153.7512 H   0  0  0  0  0  0  0  0  0  0  0  0
  148.5909  137.7753  153.1283 H   0  0  0  0  0  0  0  0  0  0  0  0
  147.3333  136.7032  152.0460 H   0  0  0  0  0  0  0  0  0  0  0  0
  144.5163  137.3936  151.8369 H   0  0  0  0  0  0  0  0  0  0  0  0
  145.3687  134.7727  153.1480 H   0  0  0  0  0  0  0  0  0  0  0  0
  144.4217  136.0398  153.8815 H   0  0  0  0  0  0  0  0  0  0  0  0
  142.9610  134.1665  153.0800 H   0  0  0  0  0  0  0  0  0  0  0  0
  142.5716  135.6732  152.2889 H   0  0  0  0  0  0  0  0  0  0  0  0
  144.9473  132.8585  151.9652 H   0  0  0  0  0  0  0  0  0  0  0  0
  144.4750  133.0885  148.8679 H   0  0  0  0  0  0  0  0  0  0  0  0
  145.6423  131.9274  149.6864 H   0  0  0  0  0  0  0  0  0  0  0  0
  143.7306  130.8633  150.9135 H   0  0  0  0  0  0  0  0  0  0  0  0
  142.5583  132.0222  150.0992 H   0  0  0  0  0  0  0  0  0  0  0  0
  144.2678  134.7627  149.1050 H   0  0  0  0  0  0  0  0  0  0  0  0
  143.3634  136.0337  149.8879 H   0  0  0  0  0  0  0  0  0  0  0  0
  145.7532  136.6378  149.8309 H   0  0  0  0  0  0  0  0  0  0  0  0
  146.2014  135.1477  150.6173 H   0  0  0  0  0  0  0  0  0  0  0  0
  146.8542  139.5407  156.2099 H   0  0  0  0  0  0  0  0  0  0  0  0
  142.6339  134.0441  150.7073 H   0  0  0  0  0  0  0  0  0  0  0  0
  1  2  1  0  0  0  0
  1 21  1  0  0  0  0
  1 22  1  0  0  0  0
  1 23  1  0  0  0  0
  2  3  1  0  0  0  0
  2 24  1  0  0  0  0
  2 25  1  0  0  0  0
  3 20  1  0  0  0  0
  3  4  1  0  0  0  0
  4  5  2  0  0  0  0
  4 26  1  0  0  0  0
  5  6  1  0  0  0  0
  5 19  1  0  0  0  0
  6  7  1  0  0  0  0
  6 27  1  0  0  0  0
  7  8  2  0  0  0  0
  7  9  1  0  0  0  0
  9 10  1  0  0  0  0
  9 28  1  0  0  0  0
 10 18  1  0  0  0  0
 10 11  1  0  0  0  0
 10 29  1  0  0  0  0
 11 12  1  0  0  0  0
 11 30  1  0  0  0  0
 11 31  1  0  0  0  0
 12 13  1  0  0  0  0
 12 32  1  0  0  0  0
 12 33  1  0  0  0  0
 13 14  1  0  0  0  0
 13 17  1  0  0  0  0
 13 44  1  0  0  0  0
 14 16  1  0  0  0  0
 14 15  1  0  0  0  0
 14 34  1  0  0  0  0
 15 16  1  0  0  0  0
 15 35  1  0  0  0  0
 15 36  1  0  0  0  0
 16 37  1  0  0  0  0
 16 38  1  0  0  0  0
 17 18  1  0  0  0  0
 17 39  1  0  0  0  0
 17 40  1  0  0  0  0
 18 41  1  0  0  0  0
 18 42  1  0  0  0  0
 19 20  2  0  0  0  0
 19 43  1  0  0  0  0
M  CHG  1  13   1
M  END
> <s_m_source_file>
AV-unprocessed.smi

> <i_m_source_file_index>
1248

> <i_lp_mmshare_version>
43012

> <i_f3d_flags>
0

> <s_epik_input>
W0NIM11bQ0gyXW4xW2NIXWMoW2NIXW4xKVtOSF1DKD1PKVtOSF1bQ0hdMltDSDJdW0NIMl1OKFtDSDJdW0NIMl0yKVtDSF0zW0NIMl1bQ0gyXTM=

> <s_epik_cmdline>
J2VwaWtfcHl0aG9uJywgJy1waCcsICc3LjAnLCAnLXRuJywgJzgnLCAnLW1hJywgJzIwMCcsICctbWV0YWxfYmluZGluZycsICctaW1hZScsICc8aW5maWxlLm1hZT4nLCAnLW9tYWUnLCAnPG91dGZpbGUubWFlPic=

> <r_lp_tautomer_probability>
1

> <r_epik_Ionization_Penalty>
0.115699

> <r_epik_Ionization_Penalty_Charging>
0.115549

> <r_epik_Ionization_Penalty_Neutral>
0.00014958

> <r_epik_State_Penalty>
0.105184

> <r_epik_Charging_Adjusted_Penalty>
0.220733

> <i_epik_Tot_Q>
1

> <i_epik_Tot_abs_Q>
1

> <r_epik_Metal_State_Penalty>
0.105189

> <b_epik_Metal_Only>
0

> <s_lp_Force_Field>
OPLS_2005

> <r_lp_Energy>
31.7182

> <b_lp_Chiralities_Consistent>
1

> <s_lp_Variant>
AV-unprocessed.smi:1248-2

> <Gold.Version>
5.8.1

> <Gold.Id.Protein>
6NUR|6NUR_protein|mol2

> <Gold.PLP.Fitness>
43.5036

> <Gold.PLP.PLP>
-31.5271

> <Gold.PLP.part.hbond>
-3.0000

> <Gold.PLP.part.metal>
0.0000

> <Gold.PLP.part.buried>
-2.4444

> <Gold.PLP.part.nonpolar>
-27.2216

> <Gold.PLP.part.repulsive>
0.2841

> <Gold.PLP.ligand.clash>
0.0000

> <Gold.PLP.ligand.torsion>
1.2370

> <Gold.PLP.Chemscore.Hbond>
3.9425

> <Gold.PLP.Chemscore.CHOScore>
0.4498

> <Gold.PLP.Chemscore.Metal>
0.0000

> <Gold.Chemscore.Hbonds>
donor molecule, donor type, donor heavy atom, donor atom, acceptor molecule, acceptor atom, score
      L1  H     6    27       P1  7948  0.96
      L1  H     9    28       P1  7948  1.00
      L1  H    13    44       P1 10186  2.00
      L1  C     4    26       P1  7957  0.37

> <Gold.PLP.Chemscore.Internal.Correction>
1.2738

> <Gold.Rescore>
     Score         DG    S(hbond)    S(metal)    S(lipo)     H(rot)  DE(clash)    DE(int)     intcor
     18.85     -20.89       2.68        0.00      84.74       1.34       0.16       1.88       ----

> <Gold.Chemscore.Fitness>
18.8547

> <Gold.Chemscore.DG>
-20.8909

> <Gold.Chemscore.ZeroCoef>
-5.4800

> <Gold.Chemscore.Hbond>
2.6754

> <Gold.Chemscore.Metal>
0.0000

> <Gold.Chemscore.Lipo>
84.7449

> <Gold.Chemscore.Internal_Hbond>
0.0000

> <Gold.Chemscore.DEClash>
0.1572

> <Gold.Chemscore.DEInternal>
1.8789

> <Gold.Chemscore.Rot>
1.3438

> <Gold.Chemscore.Internal.Correction>
   9.000000E+99

> <Gold.Chemscore.Hbonds>
donor molecule, donor type, donor heavy atom, donor atom, acceptor molecule, acceptor atom, score
      L1  H     6    27       P1  7948  0.88
      L1  H     9    28       P1  7948  1.00
      L1  H    13    44       P1 10186  0.62

> <Gold.Chemscore.Hbond.Weighted>
-8.9358

> <Gold.Chemscore.Metal.Weighted>
-0.0000

> <Gold.Chemscore.Lipo.Weighted>
-9.9152

> <Gold.Chemscore.Internal_Hbond.Weighted>
0.0000

> <Gold.Chemscore.DEClash.Weighted>
0.1572

> <Gold.Chemscore.DEInternal.Weighted>
1.8789

> <Gold.Chemscore.Rot.Weighted>
3.4401

> <Gold.Chemscore.Internal.Correction.Weighted>
   9.000000E+99

> <Gold.Protein.RotatedTorsions>
[ 6907 6896 6895 6894 ] final   83.87 input  -60.11 | X-H torsion
[ 7974 7965 7964 7962 ] final   37.24 input  175.53 | X-H torsion
[ 8008 7997 7996 7995 ] final  106.07 input   59.86 | X-H torsion
[ 10167 10162 10161 10158 ] final  -79.10 input  -65.29 | X-H torsion
[ 10718 10713 10712 10709 ] final  -92.52 input   66.30 | X-H torsion
[ 10763 10752 10751 10750 ] final  -86.30 input  -60.55 | X-H torsion
[ 11005 11000 10999 10996 ] final -178.14 input  -57.11 | X-H torsion

> <Gold.Protein.ActiveResidues>
 VAL166  LYS551  ARG553  GLY616  TRP617  ASP618  TYR619  PRO620  LYS621  CYS622 
 ASP623  PHE694  ASN695  SER759  ASP760  ASP761  ALA762  ILE779  LEU786  VAL792 
 PHE793  MET794  SER795  GLU796  ALA797  LYS798  CYS799  TRP800  GLU811  SER814 

> <Gold.Protein.RotatedAtoms>
  152.5338  134.2828  159.9013 H   0  0  0  0  0  0  0  0  0  0  0  0  # atno 6907 bound_to 6896
  151.2782  133.4216  159.2633 H   0  0  0  0  0  0  0  0  0  0  0  0  # atno 6908 bound_to 6896
  151.0307  134.9552  159.8166 H   0  0  0  0  0  0  0  0  0  0  0  0  # atno 6909 bound_to 6896
  146.1152  139.5919  142.9326 H   0  0  0  0  0  0  0  0  0  0  0  0  # atno 7974 bound_to 7965
  156.1712  140.3119  155.8977 H   0  0  0  0  0  0  0  0  0  0  0  0  # atno 8008 bound_to 7997
  155.3583  140.0475  157.3063 H   0  0  0  0  0  0  0  0  0  0  0  0  # atno 8009 bound_to 7997
  154.5243  140.2209  155.8929 H   0  0  0  0  0  0  0  0  0  0  0  0  # atno 8010 bound_to 7997
  140.4624  143.2450  151.8329 H   0  0  0  0  0  0  0  0  0  0  0  0  # atno 10167 bound_to 10162
  156.0003  130.4990  150.5638 H   0  0  0  0  0  0  0  0  0  0  0  0  # atno 10718 bound_to 10713
  154.6209  135.5454  153.7574 H   0  0  0  0  0  0  0  0  0  0  0  0  # atno 10763 bound_to 10752
  153.0238  135.6412  154.1442 H   0  0  0  0  0  0  0  0  0  0  0  0  # atno 10764 bound_to 10752
  154.1376  135.2910  155.3149 H   0  0  0  0  0  0  0  0  0  0  0  0  # atno 10765 bound_to 10752
  140.4331  134.6500  157.4721 H   0  0  0  0  0  0  0  0  0  0  0  0  # atno 11005 bound_to 11000
  145.5581  141.0407  143.2241 LP  0  0  0  0  0  0  0  0  0  0  0  0  # atno 17320 bound_to 7965
  144.7547  139.7105  143.7259 LP  0  0  0  0  0  0  0  0  0  0  0  0  # atno 17321 bound_to 7965
  139.4808  144.4992  151.9083 LP  0  0  0  0  0  0  0  0  0  0  0  0  # atno 17342 bound_to 10162
  140.4077  144.2409  150.5890 LP  0  0  0  0  0  0  0  0  0  0  0  0  # atno 17343 bound_to 10162
  157.3543  131.0739  151.1688 LP  0  0  0  0  0  0  0  0  0  0  0  0  # atno 17370 bound_to 10713
  157.2494  130.6607  149.5924 LP  0  0  0  0  0  0  0  0  0  0  0  0  # atno 17371 bound_to 10713
  140.0121  134.6675  155.9365 LP  0  0  0  0  0  0  0  0  0  0  0  0  # atno 17394 bound_to 11000
  141.1737  133.6539  156.4748 LP  0  0  0  0  0  0  0  0  0  0  0  0  # atno 17395 bound_to 11000

$$$$
