AV-unprocessed.smi:3056|AV-procd|sdf|11652|dock8
  -GOLD-   2272017 53D 1   1.00000     0.00000
 Structure written by MMmdl.
 48 49  0  0  0  0  0  0  0  0  2 V2000
  152.1512  145.3270  159.5926 C   0  0  0  0  0  0  0  0  0  0  0  0
  151.8348  144.0263  158.9123 C   0  0  0  0  0  0  0  0  0  0  0  0
  152.0704  142.7075  159.3938 C   0  0  0  0  0  0  0  0  0  0  0  0
  151.6770  141.7724  158.5445 N   0  0  0  0  0  0  0  0  0  0  0  0
  151.1747  142.4559  157.4938 N   0  0  0  0  0  0  0  0  0  0  0  0
  150.6515  141.7312  156.3425 C   0  0  1  0  0  0  0  0  0  0  0  0
  151.5877  140.5587  155.9972 C   0  0  0  0  0  0  0  0  0  0  0  0
  149.1790  141.2918  156.5612 C   0  0  1  0  0  0  0  0  0  0  0  0
  149.0510  139.9706  157.3411 C   0  0  0  0  0  0  0  0  0  0  0  0
  148.4244  142.3412  157.2826 N   0  3  0  0  0  0  0  0  0  0  0  0
  147.0038  142.0223  157.5456 C   0  0  0  0  0  0  0  0  0  0  0  0
  146.4581  142.7472  158.7850 C   0  0  0  0  0  0  0  0  0  0  0  0
  147.0594  142.6279  159.8540 O   0  0  0  0  0  0  0  0  0  0  0  0
  145.3335  143.4932  158.6672 N   0  0  0  0  0  0  0  0  0  0  0  0
  144.7051  144.2830  159.7310 C   0  0  0  0  0  0  0  0  0  0  0  0
  144.7472  145.7667  159.3249 C   0  0  0  0  0  0  0  0  0  0  0  0
  144.0939  145.9404  158.0701 O   0  0  0  0  0  0  0  0  0  0  0  0
  144.6739  145.1707  157.0184 C   0  0  2  0  0  0  0  0  0  0  0  0
  143.9043  145.4666  155.7265 C   0  0  0  0  0  0  0  0  0  0  0  0
  144.6212  143.6774  157.3994 C   0  0  0  0  0  0  0  0  0  0  0  0
  151.2595  143.8198  157.6907 C   0  0  0  0  0  0  0  0  0  0  0  0
  152.2421  145.2078  160.6725 H   0  0  0  0  0  0  0  0  0  0  0  0
  151.3764  146.0737  159.4173 H   0  0  0  0  0  0  0  0  0  0  0  0
  153.0910  145.7482  159.2356 H   0  0  0  0  0  0  0  0  0  0  0  0
  152.5155  142.4041  160.3300 H   0  0  0  0  0  0  0  0  0  0  0  0
  150.6702  142.4188  155.4943 H   0  0  0  0  0  0  0  0  0  0  0  0
  151.3087  140.0886  155.0544 H   0  0  0  0  0  0  0  0  0  0  0  0
  151.5709  139.7904  156.7709 H   0  0  0  0  0  0  0  0  0  0  0  0
  152.6179  140.9002  155.8916 H   0  0  0  0  0  0  0  0  0  0  0  0
  148.7186  141.1285  155.5851 H   0  0  0  0  0  0  0  0  0  0  0  0
  149.4911  139.1335  156.7989 H   0  0  0  0  0  0  0  0  0  0  0  0
  148.0042  139.7199  157.5162 H   0  0  0  0  0  0  0  0  0  0  0  0
  149.5438  140.0348  158.3120 H   0  0  0  0  0  0  0  0  0  0  0  0
  148.8733  142.4962  158.1741 H   0  0  0  0  0  0  0  0  0  0  0  0
  146.4101  142.3017  156.6748 H   0  0  0  0  0  0  0  0  0  0  0  0
  146.9065  140.9453  157.6903 H   0  0  0  0  0  0  0  0  0  0  0  0
  143.6706  143.9591  159.8530 H   0  0  0  0  0  0  0  0  0  0  0  0
  145.1713  144.1622  160.7074 H   0  0  0  0  0  0  0  0  0  0  0  0
  144.2413  146.3777  160.0725 H   0  0  0  0  0  0  0  0  0  0  0  0
  145.7764  146.1236  159.2631 H   0  0  0  0  0  0  0  0  0  0  0  0
  145.7121  145.4797  156.8841 H   0  0  0  0  0  0  0  0  0  0  0  0
  144.3227  144.9142  154.8848 H   0  0  0  0  0  0  0  0  0  0  0  0
  143.9483  146.5280  155.4813 H   0  0  0  0  0  0  0  0  0  0  0  0
  142.8540  145.1894  155.8199 H   0  0  0  0  0  0  0  0  0  0  0  0
  145.0355  143.0752  156.5895 H   0  0  0  0  0  0  0  0  0  0  0  0
  143.5865  143.3518  157.5179 H   0  0  0  0  0  0  0  0  0  0  0  0
  150.9093  144.5251  156.9515 H   0  0  0  0  0  0  0  0  0  0  0  0
  148.4735  143.1995  156.7523 H   0  0  0  0  0  0  0  0  0  0  0  0
  1  2  1  0  0  0  0
  1 22  1  0  0  0  0
  1 23  1  0  0  0  0
  1 24  1  0  0  0  0
  2 21  2  0  0  0  0
  2  3  1  0  0  0  0
  3  4  2  0  0  0  0
  3 25  1  0  0  0  0
  4  5  1  0  0  0  0
  5  6  1  0  0  0  0
  5 21  1  0  0  0  0
  6  7  1  0  0  0  0
  6  8  1  0  0  0  0
  6 26  1  0  0  0  0
  7 27  1  0  0  0  0
  7 28  1  0  0  0  0
  7 29  1  0  0  0  0
  8  9  1  0  0  0  0
  8 10  1  0  0  0  0
  8 30  1  0  0  0  0
  9 31  1  0  0  0  0
  9 32  1  0  0  0  0
  9 33  1  0  0  0  0
 10 11  1  0  0  0  0
 10 34  1  0  0  0  0
 10 48  1  0  0  0  0
 11 12  1  0  0  0  0
 11 35  1  0  0  0  0
 11 36  1  0  0  0  0
 12 13  2  0  0  0  0
 12 14  1  0  0  0  0
 14 20  1  0  0  0  0
 14 15  1  0  0  0  0
 15 16  1  0  0  0  0
 15 37  1  0  0  0  0
 15 38  1  0  0  0  0
 16 17  1  0  0  0  0
 16 39  1  0  0  0  0
 16 40  1  0  0  0  0
 17 18  1  0  0  0  0
 18 19  1  0  0  0  0
 18 20  1  0  0  0  0
 18 41  1  0  0  0  0
 19 42  1  0  0  0  0
 19 43  1  0  0  0  0
 19 44  1  0  0  0  0
 20 45  1  0  0  0  0
 20 46  1  0  0  0  0
 21 47  1  0  0  0  0
M  CHG  1  10   1
M  END
> <s_m_source_file>
AV-unprocessed.smi

> <i_m_source_file_index>
3056

> <i_lp_mmshare_version>
43012

> <i_f3d_flags>
0

> <s_epik_input>
W0NIM11jMVtjSF1ubihbY0hdMSlbQ0BIXShbQ0gzXSlbQ0BIXShbQ0gzXSlbTkhdW0NIMl1DKD1PKU4yW0NIMl1bQ0gyXU9bQ0BASF0oW0NIM10pW0NIMl0y

> <s_epik_cmdline>
J2VwaWtfcHl0aG9uJywgJy1waCcsICc3LjAnLCAnLXRuJywgJzgnLCAnLW1hJywgJzIwMCcsICctbWV0YWxfYmluZGluZycsICctaW1hZScsICc8aW5maWxlLm1hZT4nLCAnLW9tYWUnLCAnPG91dGZpbGUubWFlPic=

> <r_lp_tautomer_probability>
1

> <r_epik_Ionization_Penalty>
0.233715

> <r_epik_Ionization_Penalty_Charging>
0.233698

> <r_epik_Ionization_Penalty_Neutral>
1.68157e-05

> <r_epik_State_Penalty>
0.225221

> <r_epik_Charging_Adjusted_Penalty>
0.458919

> <i_epik_Tot_Q>
1

> <i_epik_Tot_abs_Q>
1

> <r_epik_Metal_State_Penalty>
0.225535

> <b_epik_Metal_Only>
0

> <s_lp_Force_Field>
OPLS_2005

> <r_lp_Energy>
28.8948

> <b_lp_Chiralities_Consistent>
1

> <s_lp_Variant>
AV-unprocessed.smi:3056-8

> <Gold.Version>
5.8.1

> <Gold.Id.Protein>
6NUR|6NUR_protein|mol2

> <Gold.PLP.Fitness>
46.7668

> <Gold.PLP.PLP>
-35.8498

> <Gold.PLP.part.hbond>
-3.0000

> <Gold.PLP.part.metal>
0.0000

> <Gold.PLP.part.buried>
-4.5097

> <Gold.PLP.part.nonpolar>
-28.7116

> <Gold.PLP.part.repulsive>
0.1523

> <Gold.PLP.ligand.clash>
0.0000

> <Gold.PLP.ligand.torsion>
1.1726

> <Gold.PLP.Chemscore.Hbond>
3.3868

> <Gold.PLP.Chemscore.CHOScore>
1.0000

> <Gold.PLP.Chemscore.Metal>
0.0000

> <Gold.Chemscore.Hbonds>
donor molecule, donor type, donor heavy atom, donor atom, acceptor molecule, acceptor atom, score
      L1  H    10    48       P1  8028  2.00
      P1  H  6933  6944       L1    13  0.50
      P1  H  6934  6946       L1    13  0.85
      L1  C    21    47       P1  8028  1.00

> <Gold.PLP.Chemscore.Internal.Correction>
0.1016

> <Gold.Rescore>
     Score         DG    S(hbond)    S(metal)    S(lipo)     H(rot)  DE(clash)    DE(int)     intcor
     16.54     -17.72       1.93        0.00      87.45       1.74       0.02       1.16       ----

> <Gold.Chemscore.Fitness>
16.5370

> <Gold.Chemscore.DG>
-17.7194

> <Gold.Chemscore.ZeroCoef>
-5.4800

> <Gold.Chemscore.Hbond>
1.9313

> <Gold.Chemscore.Metal>
0.0000

> <Gold.Chemscore.Lipo>
87.4485

> <Gold.Chemscore.Internal_Hbond>
0.0000

> <Gold.Chemscore.DEClash>
0.0202

> <Gold.Chemscore.DEInternal>
1.1621

> <Gold.Chemscore.Rot>
1.7354

> <Gold.Chemscore.Internal.Correction>
   9.000000E+99

> <Gold.Chemscore.Hbonds>
donor molecule, donor type, donor heavy atom, donor atom, acceptor molecule, acceptor atom, score
      L1  H    10    48       P1  8028  0.50
      P1  H  6933  6944       L1    13  0.51
      P1  H  6934  6946       L1    13  0.76

> <Gold.Chemscore.Hbond.Weighted>
-6.4505

> <Gold.Chemscore.Metal.Weighted>
-0.0000

> <Gold.Chemscore.Lipo.Weighted>
-10.2315

> <Gold.Chemscore.Internal_Hbond.Weighted>
0.0000

> <Gold.Chemscore.DEClash.Weighted>
0.0202

> <Gold.Chemscore.DEInternal.Weighted>
1.1621

> <Gold.Chemscore.Rot.Weighted>
4.4426

> <Gold.Chemscore.Internal.Correction.Weighted>
   9.000000E+99

> <Gold.Protein.RotatedTorsions>
[ 6907 6896 6895 6894 ] final  112.54 input  -60.11 | X-H torsion
[ 7974 7965 7964 7962 ] final   62.20 input  175.53 | X-H torsion
[ 8008 7997 7996 7995 ] final  -44.80 input   59.86 | X-H torsion
[ 10167 10162 10161 10158 ] final -138.78 input  -65.29 | X-H torsion
[ 10718 10713 10712 10709 ] final   33.77 input   66.30 | X-H torsion
[ 10763 10752 10751 10750 ] final  142.34 input  -60.55 | X-H torsion
[ 11005 11000 10999 10996 ] final -165.63 input  -57.11 | X-H torsion

> <Gold.Protein.ActiveResidues>
 VAL166  LYS551  ARG553  GLY616  TRP617  ASP618  TYR619  PRO620  LYS621  CYS622 
 ASP623  PHE694  ASN695  SER759  ASP760  ASP761  ALA762  ILE779  LEU786  VAL792 
 PHE793  MET794  SER795  GLU796  ALA797  LYS798  CYS799  TRP800  GLU811  SER814 

> <Gold.Protein.RotatedAtoms>
  152.4911  133.8501  159.7197 H   0  0  0  0  0  0  0  0  0  0  0  0  # atno 6907 bound_to 6896
  150.9041  133.7072  159.2878 H   0  0  0  0  0  0  0  0  0  0  0  0  # atno 6908 bound_to 6896
  151.4503  135.1033  159.9748 H   0  0  0  0  0  0  0  0  0  0  0  0  # atno 6909 bound_to 6896
  145.8760  139.3410  143.0734 H   0  0  0  0  0  0  0  0  0  0  0  0  # atno 7974 bound_to 7965
  154.3998  140.1413  156.3742 H   0  0  0  0  0  0  0  0  0  0  0  0  # atno 8008 bound_to 7997
  155.8064  140.3474  155.5411 H   0  0  0  0  0  0  0  0  0  0  0  0  # atno 8009 bound_to 7997
  155.8431  140.0930  157.1712 H   0  0  0  0  0  0  0  0  0  0  0  0  # atno 8010 bound_to 7997
  139.8444  143.7279  152.2661 H   0  0  0  0  0  0  0  0  0  0  0  0  # atno 10167 bound_to 10162
  157.3020  130.7355  149.6672 H   0  0  0  0  0  0  0  0  0  0  0  0  # atno 10718 bound_to 10713
  153.9542  135.2967  155.3437 H   0  0  0  0  0  0  0  0  0  0  0  0  # atno 10763 bound_to 10752
  154.7410  135.5025  153.9126 H   0  0  0  0  0  0  0  0  0  0  0  0  # atno 10764 bound_to 10752
  153.0979  135.6726  153.9837 H   0  0  0  0  0  0  0  0  0  0  0  0  # atno 10765 bound_to 10752
  140.5736  134.5213  157.5166 H   0  0  0  0  0  0  0  0  0  0  0  0  # atno 11005 bound_to 11000
  145.9080  140.9199  143.0469 LP  0  0  0  0  0  0  0  0  0  0  0  0  # atno 17320 bound_to 7965
  144.6726  140.1122  143.7455 LP  0  0  0  0  0  0  0  0  0  0  0  0  # atno 17321 bound_to 7965
  139.7527  144.7529  151.0483 LP  0  0  0  0  0  0  0  0  0  0  0  0  # atno 17342 bound_to 10162
  140.7794  143.4842  150.9978 LP  0  0  0  0  0  0  0  0  0  0  0  0  # atno 17343 bound_to 10162
  155.9672  130.4277  150.4755 LP  0  0  0  0  0  0  0  0  0  0  0  0  # atno 17370 bound_to 10713
  157.2738  131.0592  151.2242 LP  0  0  0  0  0  0  0  0  0  0  0  0  # atno 17371 bound_to 10713
  139.9350  134.7892  156.0827 LP  0  0  0  0  0  0  0  0  0  0  0  0  # atno 17394 bound_to 11000
  141.1041  133.6666  156.2822 LP  0  0  0  0  0  0  0  0  0  0  0  0  # atno 17395 bound_to 11000

$$$$
