AV-unprocessed.smi:477|AV-procd|sdf|2670|dock8
  -GOLD-   2262023 83D 1   1.00000     0.00000
 Structure written by MMmdl.
 45 46  0  0  0  0  0  0  0  0  1 V2000
  145.3055  144.7071  152.8505 C   0  0  0  0  0  0  0  0  0  0  0  0
  145.7006  143.6910  153.8882 C   0  0  0  0  0  0  0  0  0  0  0  0
  146.5776  142.8105  153.5335 N   0  0  0  0  0  0  0  0  0  0  0  0
  147.0114  141.8333  154.4086 N   0  0  0  0  0  0  0  0  0  0  0  0
  148.0301  140.9376  153.8420 C   0  0  0  0  0  0  0  0  0  0  0  0
  149.3848  141.0285  154.5594 C   0  0  0  0  0  0  0  0  0  0  0  0
  150.2629  140.1848  154.3735 O   0  0  0  0  0  0  0  0  0  0  0  0
  149.5338  142.0700  155.3914 N   0  0  0  0  0  0  0  0  0  0  0  0
  150.7134  142.3278  156.2094 C   0  0  0  0  0  0  0  0  0  0  0  0
  150.7072  141.5548  157.5445 C   0  0  0  0  0  0  0  0  0  0  0  0
  151.4774  142.2440  158.6614 C   0  0  0  0  0  0  0  0  0  0  0  0
  152.4521  141.6102  159.3417 C   0  0  0  0  0  0  0  0  0  0  0  0
  153.2311  142.2256  160.4909 C   0  0  0  0  0  0  0  0  0  0  0  0
  152.5616  143.4974  161.0377 C   0  0  0  0  0  0  0  0  0  0  0  0
  152.0709  144.3990  159.8982 C   0  0  0  0  0  0  0  0  0  0  0  0
  151.0530  143.6691  159.0042 C   0  0  0  0  0  0  0  0  0  0  0  0
  146.5730  141.6908  155.6927 C   0  0  0  0  0  0  0  0  0  0  0  0
  146.9863  140.8031  156.4401 O   0  0  0  0  0  0  0  0  0  0  0  0
  145.5787  142.6912  156.0874 C   0  0  0  0  0  0  0  0  0  0  0  0
  145.0927  142.5777  157.4247 C   0  0  0  0  0  0  0  0  0  0  0  0
  144.6898  142.4680  158.5044 N   0  0  0  0  0  0  0  0  0  0  0  0
  145.1505  143.6599  155.2397 C   0  0  0  0  0  0  0  0  0  0  0  0
  144.1220  144.7224  155.6027 C   0  0  0  0  0  0  0  0  0  0  0  0
  144.2247  144.7171  152.7077 H   0  0  0  0  0  0  0  0  0  0  0  0
  145.7616  144.4976  151.8816 H   0  0  0  0  0  0  0  0  0  0  0  0
  145.6165  145.7075  153.1523 H   0  0  0  0  0  0  0  0  0  0  0  0
  147.6933  139.8998  153.8582 H   0  0  0  0  0  0  0  0  0  0  0  0
  148.1758  141.1776  152.7867 H   0  0  0  0  0  0  0  0  0  0  0  0
  148.7647  142.7178  155.4839 H   0  0  0  0  0  0  0  0  0  0  0  0
  151.6155  142.0891  155.6439 H   0  0  0  0  0  0  0  0  0  0  0  0
  150.7547  143.3992  156.4075 H   0  0  0  0  0  0  0  0  0  0  0  0
  149.6853  141.3667  157.8763 H   0  0  0  0  0  0  0  0  0  0  0  0
  151.1495  140.5720  157.3772 H   0  0  0  0  0  0  0  0  0  0  0  0
  152.7271  140.6019  159.0672 H   0  0  0  0  0  0  0  0  0  0  0  0
  153.3366  141.4904  161.2889 H   0  0  0  0  0  0  0  0  0  0  0  0
  154.2359  142.4526  160.1336 H   0  0  0  0  0  0  0  0  0  0  0  0
  151.7131  143.2213  161.6653 H   0  0  0  0  0  0  0  0  0  0  0  0
  153.2570  144.0388  161.6796 H   0  0  0  0  0  0  0  0  0  0  0  0
  151.6267  145.3103  160.2995 H   0  0  0  0  0  0  0  0  0  0  0  0
  152.9248  144.7117  159.2957 H   0  0  0  0  0  0  0  0  0  0  0  0
  150.8943  144.2498  158.0970 H   0  0  0  0  0  0  0  0  0  0  0  0
  150.0881  143.6158  159.5093 H   0  0  0  0  0  0  0  0  0  0  0  0
  143.8394  144.6799  156.6543 H   0  0  0  0  0  0  0  0  0  0  0  0
  143.2153  144.5911  155.0114 H   0  0  0  0  0  0  0  0  0  0  0  0
  144.5154  145.7216  155.4131 H   0  0  0  0  0  0  0  0  0  0  0  0
  1  2  1  0  0  0  0
  1 24  1  0  0  0  0
  1 25  1  0  0  0  0
  1 26  1  0  0  0  0
  2 22  1  0  0  0  0
  2  3  2  0  0  0  0
  3  4  1  0  0  0  0
  4  5  1  0  0  0  0
  4 17  1  0  0  0  0
  5  6  1  0  0  0  0
  5 27  1  0  0  0  0
  5 28  1  0  0  0  0
  6  7  2  0  0  0  0
  6  8  1  0  0  0  0
  8  9  1  0  0  0  0
  8 29  1  0  0  0  0
  9 10  1  0  0  0  0
  9 30  1  0  0  0  0
  9 31  1  0  0  0  0
 10 11  1  0  0  0  0
 10 32  1  0  0  0  0
 10 33  1  0  0  0  0
 11 16  1  0  0  0  0
 11 12  2  0  0  0  0
 12 13  1  0  0  0  0
 12 34  1  0  0  0  0
 13 14  1  0  0  0  0
 13 35  1  0  0  0  0
 13 36  1  0  0  0  0
 14 15  1  0  0  0  0
 14 37  1  0  0  0  0
 14 38  1  0  0  0  0
 15 16  1  0  0  0  0
 15 39  1  0  0  0  0
 15 40  1  0  0  0  0
 16 41  1  0  0  0  0
 16 42  1  0  0  0  0
 17 18  2  0  0  0  0
 17 19  1  0  0  0  0
 19 20  1  0  0  0  0
 19 22  2  0  0  0  0
 20 21  3  0  0  0  0
 22 23  1  0  0  0  0
 23 43  1  0  0  0  0
 23 44  1  0  0  0  0
 23 45  1  0  0  0  0
M  END
> <s_m_source_file>
AV-unprocessed.smi

> <i_m_source_file_index>
477

> <i_lp_mmshare_version>
43012

> <i_f3d_flags>
0

> <s_epik_input>
TiNDYyhjMVtDSDNdKWMoPU8pbihuYzFbQ0gzXSlbQ0gyXUMoPU8pW05IXVtDSDJdW0NIMl1DMj1bQ0hdW0NIMl1bQ0gyXVtDSDJdW0NIMl0y

> <s_epik_cmdline>
J2VwaWtfcHl0aG9uJywgJy1waCcsICc3LjAnLCAnLXRuJywgJzgnLCAnLW1hJywgJzIwMCcsICctbWV0YWxfYmluZGluZycsICctaW1hZScsICc8aW5maWxlLm1hZT4nLCAnLW9tYWUnLCAnPG91dGZpbGUubWFlPic=

> <r_lp_tautomer_probability>
1

> <r_epik_Ionization_Penalty>
1.81256e-08

> <r_epik_Ionization_Penalty_Charging>
2.1856e-11

> <r_epik_Ionization_Penalty_Neutral>
1.81037e-08

> <r_epik_State_Penalty>
-0

> <r_epik_Charging_Adjusted_Penalty>
2.1856e-11

> <i_epik_Tot_Q>
0

> <i_epik_Tot_abs_Q>
0

> <r_epik_Metal_State_Penalty>
-0

> <b_epik_Metal_Only>
0

> <s_lp_Force_Field>
OPLS_2005

> <r_lp_Energy>
23.5318

> <b_lp_Chiralities_Consistent>
1

> <s_lp_Variant>
AV-unprocessed.smi:477-1

> <Gold.Version>
5.8.1

> <Gold.Id.Protein>
6NUR|6NUR_protein|mol2

> <Gold.PLP.Fitness>
50.9055

> <Gold.PLP.PLP>
-47.2798

> <Gold.PLP.part.hbond>
-2.0123

> <Gold.PLP.part.metal>
0.0000

> <Gold.PLP.part.buried>
-3.4986

> <Gold.PLP.part.nonpolar>
-41.0015

> <Gold.PLP.part.repulsive>
0.5248

> <Gold.PLP.ligand.clash>
0.0000

> <Gold.PLP.ligand.torsion>
0.5257

> <Gold.PLP.Chemscore.Hbond>
1.5440

> <Gold.PLP.Chemscore.CHOScore>
0.0000

> <Gold.PLP.Chemscore.Metal>
0.0000

> <Gold.Chemscore.Hbonds>
donor molecule, donor type, donor heavy atom, donor atom, acceptor molecule, acceptor atom, score
      L1  H     8    29       P1  8028  0.54
      P1  H  7989  7998       L1     7  1.00

> <Gold.PLP.Chemscore.Internal.Correction>
0.0451

> <Gold.Rescore>
     Score         DG    S(hbond)    S(metal)    S(lipo)     H(rot)  DE(clash)    DE(int)     intcor
     16.21     -17.56       1.21        0.00     108.80       1.83       0.82       0.52       ----

> <Gold.Chemscore.Fitness>
16.2099

> <Gold.Chemscore.DG>
-17.5569

> <Gold.Chemscore.ZeroCoef>
-5.4800

> <Gold.Chemscore.Hbond>
1.2076

> <Gold.Chemscore.Metal>
0.0000

> <Gold.Chemscore.Lipo>
108.7999

> <Gold.Chemscore.Internal_Hbond>
0.0000

> <Gold.Chemscore.DEClash>
0.8237

> <Gold.Chemscore.DEInternal>
0.5233

> <Gold.Chemscore.Rot>
1.8305

> <Gold.Chemscore.Internal.Correction>
   9.000000E+99

> <Gold.Chemscore.Hbonds>
donor molecule, donor type, donor heavy atom, donor atom, acceptor molecule, acceptor atom, score
      L1  H     8    29       P1  8028  0.54
      P1  H  7989  7998       L1     7  0.76

> <Gold.Chemscore.Hbond.Weighted>
-4.0333

> <Gold.Chemscore.Metal.Weighted>
-0.0000

> <Gold.Chemscore.Lipo.Weighted>
-12.7296

> <Gold.Chemscore.Internal_Hbond.Weighted>
0.0000

> <Gold.Chemscore.DEClash.Weighted>
0.8237

> <Gold.Chemscore.DEInternal.Weighted>
0.5233

> <Gold.Chemscore.Rot.Weighted>
4.6860

> <Gold.Chemscore.Internal.Correction.Weighted>
   9.000000E+99

> <Gold.Protein.RotatedTorsions>
[ 6907 6896 6895 6894 ] final   78.14 input  -60.11 | X-H torsion
[ 7974 7965 7964 7962 ] final   45.86 input  175.53 | X-H torsion
[ 8008 7997 7996 7995 ] final   -9.30 input   59.86 | X-H torsion
[ 10167 10162 10161 10158 ] final   74.83 input  -65.29 | X-H torsion
[ 10718 10713 10712 10709 ] final -157.41 input   66.30 | X-H torsion
[ 10763 10752 10751 10750 ] final -148.81 input  -60.55 | X-H torsion
[ 11005 11000 10999 10996 ] final  168.44 input  -57.11 | X-H torsion

> <Gold.Protein.ActiveResidues>
 VAL166  LYS551  ARG553  GLY616  TRP617  ASP618  TYR619  PRO620  LYS621  CYS622 
 ASP623  PHE694  ASN695  SER759  ASP760  ASP761  ALA762  ILE779  LEU786  VAL792 
 PHE793  MET794  SER795  GLU796  ALA797  LYS798  CYS799  TRP800  GLU811  SER814 

> <Gold.Protein.RotatedAtoms>
  152.5147  134.3709  159.9317 H   0  0  0  0  0  0  0  0  0  0  0  0  # atno 6907 bound_to 6896
  151.3664  133.3864  159.2703 H   0  0  0  0  0  0  0  0  0  0  0  0  # atno 6908 bound_to 6896
  150.9612  134.9019  159.7790 H   0  0  0  0  0  0  0  0  0  0  0  0  # atno 6909 bound_to 6896
  146.0442  139.4918  142.9759 H   0  0  0  0  0  0  0  0  0  0  0  0  # atno 7974 bound_to 7965
  154.5659  140.2358  155.8264 H   0  0  0  0  0  0  0  0  0  0  0  0  # atno 8008 bound_to 7997
  156.2068  140.3037  155.9603 H   0  0  0  0  0  0  0  0  0  0  0  0  # atno 8009 bound_to 7997
  155.2801  140.0422  157.3005 H   0  0  0  0  0  0  0  0  0  0  0  0  # atno 8010 bound_to 7997
  140.0095  144.5625  150.7670 H   0  0  0  0  0  0  0  0  0  0  0  0  # atno 10167 bound_to 10162
  156.5400  130.8559  151.2745 H   0  0  0  0  0  0  0  0  0  0  0  0  # atno 10718 bound_to 10713
  154.8212  135.3325  154.7031 H   0  0  0  0  0  0  0  0  0  0  0  0  # atno 10763 bound_to 10752
  153.7664  135.6929  153.4919 H   0  0  0  0  0  0  0  0  0  0  0  0  # atno 10764 bound_to 10752
  153.2075  135.4494  155.0289 H   0  0  0  0  0  0  0  0  0  0  0  0  # atno 10765 bound_to 10752
  140.2872  134.7702  157.3808 H   0  0  0  0  0  0  0  0  0  0  0  0  # atno 11005 bound_to 11000
  145.6834  141.0185  143.1594 LP  0  0  0  0  0  0  0  0  0  0  0  0  # atno 17320 bound_to 7965
  144.7089  139.8448  143.7421 LP  0  0  0  0  0  0  0  0  0  0  0  0  # atno 17321 bound_to 7965
  140.7387  143.2781  151.3679 LP  0  0  0  0  0  0  0  0  0  0  0  0  # atno 17342 bound_to 10162
  139.6215  144.0898  152.2395 LP  0  0  0  0  0  0  0  0  0  0  0  0  # atno 17343 bound_to 10162
  157.7407  130.9855  150.2395 LP  0  0  0  0  0  0  0  0  0  0  0  0  # atno 17370 bound_to 10713
  156.2981  130.3754  149.7777 LP  0  0  0  0  0  0  0  0  0  0  0  0  # atno 17371 bound_to 10713
  140.1228  134.5197  155.8169 LP  0  0  0  0  0  0  0  0  0  0  0  0  # atno 17394 bound_to 11000
  141.2152  133.6762  156.6897 LP  0  0  0  0  0  0  0  0  0  0  0  0  # atno 17395 bound_to 11000

$$$$
