AV-unprocessed.smi:45|AV-procd|sdf|411|dock6
  -GOLD-   2262016273D 1   1.00000     0.00000
 Structure written by MMmdl.
 61 64  0  0  0  0  0  0  0  0  2 V2000
  154.3456  141.3805  160.7215 C   0  0  0  0  0  0  0  0  0  0  0  0
  153.6907  142.4923  160.1286 O   0  0  0  0  0  0  0  0  0  0  0  0
  152.6678  142.2474  159.2358 C   0  0  0  0  0  0  0  0  0  0  0  0
  152.2159  140.9478  158.8916 C   0  0  0  0  0  0  0  0  0  0  0  0
  151.1661  140.7752  157.9691 C   0  0  0  0  0  0  0  0  0  0  0  0
  150.5517  141.8950  157.3759 C   0  0  0  0  0  0  0  0  0  0  0  0
  149.4305  141.7104  156.3745 C   0  0  0  0  0  0  0  0  0  0  0  0
  148.1472  141.4481  157.0083 N   0  0  0  0  0  0  0  0  0  0  0  0
  147.6347  140.1450  157.1118 C   0  0  0  0  0  0  0  0  0  0  0  0
  148.3627  139.1262  156.5824 N   0  3  0  0  0  0  0  0  0  0  0  0
  147.9186  137.8599  156.6341 C   0  0  0  0  0  0  0  0  0  0  0  0
  148.6988  136.8478  156.0822 N   0  0  0  0  0  0  0  0  0  0  0  0
  148.1793  135.5442  155.6877 C   0  0  0  0  0  0  0  0  0  0  0  0
  149.3706  134.7694  155.1215 C   0  0  0  0  0  0  0  0  0  0  0  0
  150.5767  135.4460  155.7695 C   0  0  0  0  0  0  0  0  0  0  0  0
  150.1455  136.9144  155.8994 C   0  0  1  0  0  0  0  0  0  0  0  0
  150.5197  137.7584  154.6632 C   0  0  0  0  0  0  0  0  0  0  0  0
  151.7751  137.3531  154.1613 O   0  0  0  0  0  0  0  0  0  0  0  0
  146.7507  137.5389  157.2046 N   0  0  0  0  0  0  0  0  0  0  0  0
  145.9929  138.5109  157.7461 C   0  0  0  0  0  0  0  0  0  0  0  0
  146.3863  139.8633  157.7250 C   0  0  0  0  0  0  0  0  0  0  0  0
  145.5298  140.9175  158.3732 C   0  0  0  0  0  0  0  0  0  0  0  0
  145.2009  140.8332  159.5564 O   0  0  0  0  0  0  0  0  0  0  0  0
  145.1800  141.9412  157.5780 N   0  0  0  0  0  0  0  0  0  0  0  0
  144.2984  143.0339  157.9713 C   0  0  0  0  0  0  0  0  0  0  0  0
  144.1855  144.0975  156.8932 C   0  0  0  0  0  0  0  0  0  0  0  0
  144.0888  145.3664  157.3023 N   0  0  0  0  0  0  0  0  0  0  0  0
  143.9701  146.3101  156.3432 C   0  0  0  0  0  0  0  0  0  0  0  0
  143.9492  145.9766  154.9737 C   0  0  0  0  0  0  0  0  0  0  0  0
  144.0577  144.6061  154.6636 C   0  0  0  0  0  0  0  0  0  0  0  0
  144.1746  143.6663  155.6270 N   0  0  0  0  0  0  0  0  0  0  0  0
  150.9944  143.1894  157.7119 C   0  0  0  0  0  0  0  0  0  0  0  0
  152.0437  143.3640  158.6355 C   0  0  0  0  0  0  0  0  0  0  0  0
  152.5623  144.9648  159.0259 Cl  0  0  0  0  0  0  0  0  0  0  0  0
  150.6060  137.3501  156.7873 H   0  0  0  0  0  0  0  0  0  0  0  0
  155.1298  141.7388  161.3881 H   0  0  0  0  0  0  0  0  0  0  0  0
  154.8177  140.7476  159.9687 H   0  0  0  0  0  0  0  0  0  0  0  0
  153.6550  140.7818  161.3169 H   0  0  0  0  0  0  0  0  0  0  0  0
  152.6600  140.0630  159.3216 H   0  0  0  0  0  0  0  0  0  0  0  0
  150.8378  139.7775  157.7164 H   0  0  0  0  0  0  0  0  0  0  0  0
  149.3528  142.6014  155.7501 H   0  0  0  0  0  0  0  0  0  0  0  0
  149.6839  140.8785  155.7162 H   0  0  0  0  0  0  0  0  0  0  0  0
  147.6388  142.2213  157.4150 H   0  0  0  0  0  0  0  0  0  0  0  0
  147.7810  135.0414  156.5699 H   0  0  0  0  0  0  0  0  0  0  0  0
  147.3765  135.6361  154.9555 H   0  0  0  0  0  0  0  0  0  0  0  0
  149.3176  133.7006  155.3309 H   0  0  0  0  0  0  0  0  0  0  0  0
  149.4145  134.8969  154.0392 H   0  0  0  0  0  0  0  0  0  0  0  0
  150.7357  135.0244  156.7631 H   0  0  0  0  0  0  0  0  0  0  0  0
  151.4980  135.3066  155.2030 H   0  0  0  0  0  0  0  0  0  0  0  0
  149.7675  137.6684  153.8787 H   0  0  0  0  0  0  0  0  0  0  0  0
  150.5898  138.8158  154.9195 H   0  0  0  0  0  0  0  0  0  0  0  0
  152.2661  138.1224  153.9148 H   0  0  0  0  0  0  0  0  0  0  0  0
  145.0683  138.1962  158.2080 H   0  0  0  0  0  0  0  0  0  0  0  0
  145.5059  141.9457  156.6227 H   0  0  0  0  0  0  0  0  0  0  0  0
  143.3118  142.6471  158.2347 H   0  0  0  0  0  0  0  0  0  0  0  0
  144.6985  143.4918  158.8764 H   0  0  0  0  0  0  0  0  0  0  0  0
  143.8918  147.3366  156.6699 H   0  0  0  0  0  0  0  0  0  0  0  0
  143.8552  146.7294  154.2051 H   0  0  0  0  0  0  0  0  0  0  0  0
  144.0495  144.2623  153.6398 H   0  0  0  0  0  0  0  0  0  0  0  0
  150.5295  144.0528  157.2585 H   0  0  0  0  0  0  0  0  0  0  0  0
  149.2582  139.3375  156.1430 H   0  0  0  0  0  0  0  0  0  0  0  0
  1  2  1  0  0  0  0
  1 36  1  0  0  0  0
  1 37  1  0  0  0  0
  1 38  1  0  0  0  0
  2  3  1  0  0  0  0
  3 33  1  0  0  0  0
  3  4  2  0  0  0  0
  4  5  1  0  0  0  0
  4 39  1  0  0  0  0
  5  6  2  0  0  0  0
  5 40  1  0  0  0  0
  6  7  1  0  0  0  0
  6 32  1  0  0  0  0
  7  8  1  0  0  0  0
  7 41  1  0  0  0  0
  7 42  1  0  0  0  0
  8  9  1  0  0  0  0
  8 43  1  0  0  0  0
  9 21  1  0  0  0  0
  9 10  2  0  0  0  0
 10 11  1  0  0  0  0
 10 61  1  0  0  0  0
 11 12  1  0  0  0  0
 11 19  2  0  0  0  0
 12 16  1  0  0  0  0
 12 13  1  0  0  0  0
 13 14  1  0  0  0  0
 13 44  1  0  0  0  0
 13 45  1  0  0  0  0
 14 15  1  0  0  0  0
 14 46  1  0  0  0  0
 14 47  1  0  0  0  0
 15 16  1  0  0  0  0
 15 48  1  0  0  0  0
 15 49  1  0  0  0  0
 16 35  1  0  0  0  0
 16 17  1  0  0  0  0
 17 18  1  0  0  0  0
 17 50  1  0  0  0  0
 17 51  1  0  0  0  0
 18 52  1  0  0  0  0
 19 20  1  0  0  0  0
 20 21  2  0  0  0  0
 20 53  1  0  0  0  0
 21 22  1  0  0  0  0
 22 23  2  0  0  0  0
 22 24  1  0  0  0  0
 24 25  1  0  0  0  0
 24 54  1  0  0  0  0
 25 26  1  0  0  0  0
 25 55  1  0  0  0  0
 25 56  1  0  0  0  0
 26 31  1  0  0  0  0
 26 27  2  0  0  0  0
 27 28  1  0  0  0  0
 28 29  2  0  0  0  0
 28 57  1  0  0  0  0
 29 30  1  0  0  0  0
 29 58  1  0  0  0  0
 30 31  2  0  0  0  0
 30 59  1  0  0  0  0
 32 33  2  0  0  0  0
 32 60  1  0  0  0  0
 33 34  1  0  0  0  0
M  CHG  1  10   1
M  END
> <s_m_source_file>
AV-unprocessed.smi

> <i_m_source_file_index>
45

> <i_lp_mmshare_version>
43012

> <i_f3d_flags>
0

> <s_epik_input>
W0NIM11PYzFbY0hdW2NIXWMoW2NIXWMxQ2wpW0NIMl1bTkhdYzJuYyhOM1tDSDJdW0NIMl1bQ0gyXVtDQEhdM1tDSDJdW09IXSluW2NIXWMyQyg9TylbTkhdW0NIMl1jNG5bY0hdW2NIXVtjSF1uNA==

> <s_epik_cmdline>
J2VwaWtfcHl0aG9uJywgJy1waCcsICc3LjAnLCAnLXRuJywgJzgnLCAnLW1hJywgJzIwMCcsICctbWV0YWxfYmluZGluZycsICctaW1hZScsICc8aW5maWxlLm1hZT4nLCAnLW9tYWUnLCAnPG91dGZpbGUubWFlPic=

> <r_lp_tautomer_probability>
0.424989

> <r_epik_Ionization_Penalty>
2.31209

> <r_epik_Ionization_Penalty_Charging>
2.31199

> <r_epik_Ionization_Penalty_Neutral>
9.65277e-05

> <r_epik_State_Penalty>
2.29675

> <r_epik_Charging_Adjusted_Penalty>
4.60874

> <i_epik_Tot_Q>
1

> <i_epik_Tot_abs_Q>
1

> <r_epik_Metal_State_Penalty>
2.3404

> <b_epik_Metal_Only>
0

> <s_epik_Chemistry_Notes>
This compound contains an electron-poor aromatic ring that is susceptible to covalent hydrolysis at low pH, typically resulting in measured values for nitrogen ring protonation that are around two units higher than predicted values.

> <s_lp_Force_Field>
OPLS_2005

> <r_lp_Energy>
34.7273

> <b_lp_Chiralities_Consistent>
1

> <s_lp_Variant>
AV-unprocessed.smi:45-5

> <Gold.Version>
5.8.1

> <Gold.Id.Protein>
6NUR|6NUR_protein|mol2

> <Gold.PLP.Fitness>
49.3564

> <Gold.PLP.PLP>
-44.7916

> <Gold.PLP.part.hbond>
-3.0000

> <Gold.PLP.part.metal>
0.0000

> <Gold.PLP.part.buried>
-7.3894

> <Gold.PLP.part.nonpolar>
-35.7555

> <Gold.PLP.part.repulsive>
0.2382

> <Gold.PLP.ligand.clash>
0.0000

> <Gold.PLP.ligand.torsion>
2.2849

> <Gold.PLP.Chemscore.Hbond>
1.4976

> <Gold.PLP.Chemscore.CHOScore>
1.0000

> <Gold.PLP.Chemscore.Metal>
0.0000

> <Gold.Chemscore.Hbonds>
donor molecule, donor type, donor heavy atom, donor atom, acceptor molecule, acceptor atom, score
      P1  H  6934  6946       L1    23  0.62
      P1  H 10752 10765       L1    18  0.94
      L1  C    30    59       P1 10174  0.59

> <Gold.PLP.Chemscore.Internal.Correction>
1.6415

> <Gold.Rescore>
     Score         DG    S(hbond)    S(metal)    S(lipo)     H(rot)  DE(clash)    DE(int)     intcor
     14.22     -16.24       1.29        0.00     119.54       2.94       0.10       1.92       ----

> <Gold.Chemscore.Fitness>
14.2179

> <Gold.Chemscore.DG>
-16.2366

> <Gold.Chemscore.ZeroCoef>
-5.4800

> <Gold.Chemscore.Hbond>
1.2861

> <Gold.Chemscore.Metal>
0.0000

> <Gold.Chemscore.Lipo>
119.5394

> <Gold.Chemscore.Internal_Hbond>
0.0000

> <Gold.Chemscore.DEClash>
0.1009

> <Gold.Chemscore.DEInternal>
1.9178

> <Gold.Chemscore.Rot>
2.9395

> <Gold.Chemscore.Internal.Correction>
   9.000000E+99

> <Gold.Chemscore.Hbonds>
donor molecule, donor type, donor heavy atom, donor atom, acceptor molecule, acceptor atom, score
      P1  H  6934  6946       L1    23  0.40
      P1  H 10752 10765       L1    18  0.71

> <Gold.Chemscore.Hbond.Weighted>
-4.2956

> <Gold.Chemscore.Metal.Weighted>
-0.0000

> <Gold.Chemscore.Lipo.Weighted>
-13.9861

> <Gold.Chemscore.Internal_Hbond.Weighted>
0.0000

> <Gold.Chemscore.DEClash.Weighted>
0.1009

> <Gold.Chemscore.DEInternal.Weighted>
1.9178

> <Gold.Chemscore.Rot.Weighted>
7.5251

> <Gold.Chemscore.Internal.Correction.Weighted>
   9.000000E+99

> <Gold.Protein.RotatedTorsions>
[ 6907 6896 6895 6894 ] final  175.71 input  -60.11 | X-H torsion
[ 7974 7965 7964 7962 ] final  106.06 input  175.53 | X-H torsion
[ 8008 7997 7996 7995 ] final  -85.71 input   59.86 | X-H torsion
[ 10167 10162 10161 10158 ] final  -76.92 input  -65.29 | X-H torsion
[ 10718 10713 10712 10709 ] final -103.99 input   66.30 | X-H torsion
[ 10763 10752 10751 10750 ] final  161.96 input  -60.55 | X-H torsion
[ 11005 11000 10999 10996 ] final  -68.38 input  -57.11 | X-H torsion

> <Gold.Protein.ActiveResidues>
 VAL166  LYS551  ARG553  GLY616  TRP617  ASP618  TYR619  PRO620  LYS621  CYS622 
 ASP623  PHE694  ASN695  SER759  ASP760  ASP761  ALA762  ILE779  LEU786  VAL792 
 PHE793  MET794  SER795  GLU796  ALA797  LYS798  CYS799  TRP800  GLU811  SER814 

> <Gold.Protein.RotatedAtoms>
  151.7319  133.3318  159.3342 H   0  0  0  0  0  0  0  0  0  0  0  0  # atno 6907 bound_to 6896
  150.7609  134.6356  159.6219 H   0  0  0  0  0  0  0  0  0  0  0  0  # atno 6908 bound_to 6896
  152.3586  134.6906  160.0266 H   0  0  0  0  0  0  0  0  0  0  0  0  # atno 6909 bound_to 6896
  145.3115  139.2539  143.3760 H   0  0  0  0  0  0  0  0  0  0  0  0  # atno 7974 bound_to 7965
  154.6438  140.0588  156.9876 H   0  0  0  0  0  0  0  0  0  0  0  0  # atno 8008 bound_to 7997
  155.1476  140.3271  155.4420 H   0  0  0  0  0  0  0  0  0  0  0  0  # atno 8009 bound_to 7997
  156.2544  140.1953  156.6589 H   0  0  0  0  0  0  0  0  0  0  0  0  # atno 8010 bound_to 7997
  140.4815  143.2401  151.8050 H   0  0  0  0  0  0  0  0  0  0  0  0  # atno 10167 bound_to 10162
  156.0287  130.5494  150.7332 H   0  0  0  0  0  0  0  0  0  0  0  0  # atno 10718 bound_to 10713
  154.2710  135.2766  155.2738 H   0  0  0  0  0  0  0  0  0  0  0  0  # atno 10763 bound_to 10752
  154.5302  135.5732  153.6756 H   0  0  0  0  0  0  0  0  0  0  0  0  # atno 10764 bound_to 10752
  152.9945  135.6226  154.2864 H   0  0  0  0  0  0  0  0  0  0  0  0  # atno 10765 bound_to 10752
  141.1530  133.6739  156.6437 H   0  0  0  0  0  0  0  0  0  0  0  0  # atno 11005 bound_to 11000
  146.3116  140.3652  142.8669 LP  0  0  0  0  0  0  0  0  0  0  0  0  # atno 17320 bound_to 7965
  144.9012  140.7644  143.5866 LP  0  0  0  0  0  0  0  0  0  0  0  0  # atno 17321 bound_to 7965
  139.4834  144.4766  151.9359 LP  0  0  0  0  0  0  0  0  0  0  0  0  # atno 17342 bound_to 10162
  140.3851  144.2686  150.5905 LP  0  0  0  0  0  0  0  0  0  0  0  0  # atno 17343 bound_to 10162
  157.4920  131.0911  151.0416 LP  0  0  0  0  0  0  0  0  0  0  0  0  # atno 17370 bound_to 10713
  157.0820  130.5907  149.5422 LP  0  0  0  0  0  0  0  0  0  0  0  0  # atno 17371 bound_to 10713
  140.3373  134.7878  157.4371 LP  0  0  0  0  0  0  0  0  0  0  0  0  # atno 17394 bound_to 11000
  140.0967  134.5528  155.8392 LP  0  0  0  0  0  0  0  0  0  0  0  0  # atno 17395 bound_to 11000

$$$$
