AV-unprocessed.smi:1208|AV-procd|sdf|5068|dock8
  -GOLD-   22720 4113D 1   1.00000     0.00000
 Structure written by MMmdl.
 36 37  0  0  0  0  0  0  0  0  1 V2000
  149.4458  134.3335  156.3647 C   0  0  0  0  0  0  0  0  0  0  0  0
  148.4453  134.8931  155.3415 C   0  0  1  0  0  0  0  0  0  0  0  0
  149.0436  136.0631  154.7029 N   0  0  0  0  0  0  0  0  0  0  0  0
  149.5679  137.1208  155.3414 C   0  0  0  0  0  0  0  0  0  0  0  0
  149.6069  137.2164  156.5692 O   0  0  0  0  0  0  0  0  0  0  0  0
  150.1195  138.2355  154.4397 C   0  0  0  0  0  0  0  0  0  0  0  0
  149.1435  139.2957  154.1481 N   0  0  0  0  0  0  0  0  0  0  0  0
  147.9886  138.8438  153.5275 N   0  0  0  0  0  0  0  0  0  0  0  0
  147.0455  139.6745  153.2367 C   0  0  0  0  0  0  0  0  0  0  0  0
  145.9178  139.1831  152.6264 O   0  0  0  0  0  0  0  0  0  0  0  0
  147.1678  141.0828  153.5422 C   0  0  0  0  0  0  0  0  0  0  0  0
  148.2977  141.5142  154.1443 C   0  0  0  0  0  0  0  0  0  0  0  0
  149.3863  140.5984  154.4906 C   0  0  0  0  0  0  0  0  0  0  0  0
  150.4242  140.9633  155.0425 O   0  0  0  0  0  0  0  0  0  0  0  0
  148.0550  133.8492  154.2733 C   0  0  1  0  0  0  0  0  0  0  0  0
  149.2240  133.0402  153.7112 C   0  0  0  0  0  0  0  0  0  0  0  0
  148.5597  131.7774  153.1888 C   0  0  0  0  0  0  0  0  0  0  0  0
  147.2118  131.7402  153.9140 C   0  0  0  0  0  0  0  0  0  0  0  0
  147.2463  132.8244  154.8317 O   0  0  0  0  0  0  0  0  0  0  0  0
  145.3138  139.9090  152.5951 H   0  0  0  0  0  0  0  0  0  0  0  0
  149.0250  133.4915  156.9143 H   0  0  0  0  0  0  0  0  0  0  0  0
  149.7215  135.0917  157.0982 H   0  0  0  0  0  0  0  0  0  0  0  0
  150.3608  133.9908  155.8801 H   0  0  0  0  0  0  0  0  0  0  0  0
  147.5490  135.1938  155.8872 H   0  0  0  0  0  0  0  0  0  0  0  0
  149.0513  136.0726  153.6935 H   0  0  0  0  0  0  0  0  0  0  0  0
  151.0133  138.6566  154.9034 H   0  0  0  0  0  0  0  0  0  0  0  0
  150.4625  137.7837  153.5071 H   0  0  0  0  0  0  0  0  0  0  0  0
  146.3691  141.7653  153.2915 H   0  0  0  0  0  0  0  0  0  0  0  0
  148.4022  142.5633  154.3786 H   0  0  0  0  0  0  0  0  0  0  0  0
  147.5074  134.3244  153.4569 H   0  0  0  0  0  0  0  0  0  0  0  0
  149.7781  133.5751  152.9395 H   0  0  0  0  0  0  0  0  0  0  0  0
  149.9206  132.7823  154.5101 H   0  0  0  0  0  0  0  0  0  0  0  0
  148.4082  131.8311  152.1102 H   0  0  0  0  0  0  0  0  0  0  0  0
  149.1642  130.8948  153.4002 H   0  0  0  0  0  0  0  0  0  0  0  0
  146.3925  131.8896  153.2097 H   0  0  0  0  0  0  0  0  0  0  0  0
  147.0446  130.7978  154.4360 H   0  0  0  0  0  0  0  0  0  0  0  0
  1  2  1  0  0  0  0
  1 21  1  0  0  0  0
  1 22  1  0  0  0  0
  1 23  1  0  0  0  0
  2  3  1  0  0  0  0
  2 15  1  0  0  0  0
  2 24  1  0  0  0  0
  3  4  1  0  0  0  0
  3 25  1  0  0  0  0
  4  5  2  0  0  0  0
  4  6  1  0  0  0  0
  6 26  1  0  0  0  0
  6 27  1  0  0  0  0
  6  7  1  0  0  0  0
  7  8  1  0  0  0  0
  7 13  1  0  0  0  0
  8  9  2  0  0  0  0
  9 10  1  0  0  0  0
  9 11  1  0  0  0  0
 10 20  1  0  0  0  0
 11 28  1  0  0  0  0
 11 12  2  0  0  0  0
 12 29  1  0  0  0  0
 12 13  1  0  0  0  0
 13 14  2  0  0  0  0
 15 19  1  0  0  0  0
 15 16  1  0  0  0  0
 15 30  1  0  0  0  0
 16 17  1  0  0  0  0
 16 31  1  0  0  0  0
 16 32  1  0  0  0  0
 17 18  1  0  0  0  0
 17 33  1  0  0  0  0
 17 34  1  0  0  0  0
 18 19  1  0  0  0  0
 18 35  1  0  0  0  0
 18 36  1  0  0  0  0
M  END
> <s_m_source_file>
AV-unprocessed.smi

> <i_m_source_file_index>
1208

> <i_lp_mmshare_version>
43012

> <i_f3d_flags>
0

> <s_epik_input>
TzFbQ0gyXVtDSDJdW0NIMl1bQ0BIXTFbQ0BIXShbQ0gzXSlbTkhdQyg9TylbQ0gyXW4yW25IXWMoPU8pW2NIXVtjSF1jMj1P

> <s_epik_cmdline>
J2VwaWtfcHl0aG9uJywgJy1waCcsICc3LjAnLCAnLXRuJywgJzgnLCAnLW1hJywgJzIwMCcsICctbWV0YWxfYmluZGluZycsICctaW1hZScsICc8aW5maWxlLm1hZT4nLCAnLW9tYWUnLCAnPG91dGZpbGUubWFlPic=

> <r_lp_tautomer_probability>
0.9996

> <r_epik_Ionization_Penalty>
2.12735

> <r_epik_Ionization_Penalty_Charging>
3.86665e-08

> <r_epik_Ionization_Penalty_Neutral>
2.12735

> <r_epik_State_Penalty>
1.70441

> <r_epik_Charging_Adjusted_Penalty>
1.70441

> <i_epik_Tot_Q>
0

> <i_epik_Tot_abs_Q>
0

> <r_epik_Metal_State_Penalty>
1.70441

> <b_epik_Metal_Only>
0

> <s_lp_Force_Field>
OPLS_2005

> <r_lp_Energy>
29.9915

> <b_lp_Chiralities_Consistent>
1

> <s_lp_Variant>
AV-unprocessed.smi:1208-8

> <Gold.Version>
5.8.1

> <Gold.Id.Protein>
6NUR|6NUR_protein|mol2

> <Gold.PLP.Fitness>
35.3142

> <Gold.PLP.PLP>
-28.2642

> <Gold.PLP.part.hbond>
-3.0000

> <Gold.PLP.part.metal>
0.0000

> <Gold.PLP.part.buried>
-0.8282

> <Gold.PLP.part.nonpolar>
-24.5204

> <Gold.PLP.part.repulsive>
0.6111

> <Gold.PLP.ligand.clash>
0.0000

> <Gold.PLP.ligand.torsion>
0.5908

> <Gold.PLP.Chemscore.Hbond>
2.7360

> <Gold.PLP.Chemscore.CHOScore>
0.0000

> <Gold.PLP.Chemscore.Metal>
0.0000

> <Gold.Chemscore.Hbonds>
donor molecule, donor type, donor heavy atom, donor atom, acceptor molecule, acceptor atom, score
      L1  H     3    25       P1  7948  1.00
      L1  H    10    20       P1 10175  0.98
      P1  H  7989  7998       L1    14  0.70

> <Gold.PLP.Chemscore.Internal.Correction>
0.0235

> <Gold.Rescore>
     Score         DG    S(hbond)    S(metal)    S(lipo)     H(rot)  DE(clash)    DE(int)     intcor
     11.86     -13.23       2.68        0.00      47.16       2.63       0.03       1.34       ----

> <Gold.Chemscore.Fitness>
11.8569

> <Gold.Chemscore.DG>
-13.2288

> <Gold.Chemscore.ZeroCoef>
-5.4800

> <Gold.Chemscore.Hbond>
2.6812

> <Gold.Chemscore.Metal>
0.0000

> <Gold.Chemscore.Lipo>
47.1556

> <Gold.Chemscore.Internal_Hbond>
0.0000

> <Gold.Chemscore.DEClash>
0.0348

> <Gold.Chemscore.DEInternal>
1.3372

> <Gold.Chemscore.Rot>
2.6264

> <Gold.Chemscore.Internal.Correction>
   9.000000E+99

> <Gold.Chemscore.Hbonds>
donor molecule, donor type, donor heavy atom, donor atom, acceptor molecule, acceptor atom, score
      L1  H     3    25       P1  7948  0.96
      L1  H    10    20       P1 10175  0.92
      P1  H  7989  7998       L1    14  0.16

> <Gold.Chemscore.Hbond.Weighted>
-8.9553

> <Gold.Chemscore.Metal.Weighted>
-0.0000

> <Gold.Chemscore.Lipo.Weighted>
-5.5172

> <Gold.Chemscore.Internal_Hbond.Weighted>
0.0000

> <Gold.Chemscore.DEClash.Weighted>
0.0348

> <Gold.Chemscore.DEInternal.Weighted>
1.3372

> <Gold.Chemscore.Rot.Weighted>
6.7237

> <Gold.Chemscore.Internal.Correction.Weighted>
   9.000000E+99

> <Gold.Protein.RotatedTorsions>
[ 6907 6896 6895 6894 ] final    1.18 input  -60.11 | X-H torsion
[ 7974 7965 7964 7962 ] final   98.07 input  175.53 | X-H torsion
[ 8008 7997 7996 7995 ] final   90.30 input   59.86 | X-H torsion
[ 10167 10162 10161 10158 ] final  -80.50 input  -65.29 | X-H torsion
[ 10718 10713 10712 10709 ] final  -71.49 input   66.30 | X-H torsion
[ 10763 10752 10751 10750 ] final -124.61 input  -60.55 | X-H torsion
[ 11005 11000 10999 10996 ] final -153.00 input  -57.11 | X-H torsion

> <Gold.Protein.ActiveResidues>
 VAL166  LYS551  ARG553  GLY616  TRP617  ASP618  TYR619  PRO620  LYS621  CYS622 
 ASP623  PHE694  ASN695  SER759  ASP760  ASP761  ALA762  ILE779  LEU786  VAL792 
 PHE793  MET794  SER795  GLU796  ALA797  LYS798  CYS799  TRP800  GLU811  SER814 

> <Gold.Protein.RotatedAtoms>
  151.5885  135.1055  160.0033 H   0  0  0  0  0  0  0  0  0  0  0  0  # atno 6907 bound_to 6896
  152.4318  133.7287  159.6586 H   0  0  0  0  0  0  0  0  0  0  0  0  # atno 6908 bound_to 6896
  150.8211  133.8180  159.3161 H   0  0  0  0  0  0  0  0  0  0  0  0  # atno 6909 bound_to 6896
  145.4170  139.2326  143.3217 H   0  0  0  0  0  0  0  0  0  0  0  0  # atno 7974 bound_to 7965
  156.0103  140.3351  155.6934 H   0  0  0  0  0  0  0  0  0  0  0  0  # atno 8008 bound_to 7997
  155.6166  140.0671  157.2708 H   0  0  0  0  0  0  0  0  0  0  0  0  # atno 8009 bound_to 7997
  154.4279  140.1784  156.1316 H   0  0  0  0  0  0  0  0  0  0  0  0  # atno 8010 bound_to 7997
  140.4498  143.2487  151.8506 H   0  0  0  0  0  0  0  0  0  0  0  0  # atno 10167 bound_to 10162
  156.0361  130.4352  150.2451 H   0  0  0  0  0  0  0  0  0  0  0  0  # atno 10718 bound_to 10713
  154.8725  135.4058  154.3133 H   0  0  0  0  0  0  0  0  0  0  0  0  # atno 10763 bound_to 10752
  153.3974  135.7017  153.6456 H   0  0  0  0  0  0  0  0  0  0  0  0  # atno 10764 bound_to 10752
  153.5214  135.3686  155.2604 H   0  0  0  0  0  0  0  0  0  0  0  0  # atno 10765 bound_to 10752
  140.7128  134.3813  157.5195 H   0  0  0  0  0  0  0  0  0  0  0  0  # atno 11005 bound_to 11000
  146.2676  140.4890  142.8828 LP  0  0  0  0  0  0  0  0  0  0  0  0  # atno 17320 bound_to 7965
  144.8270  140.6645  143.6315 LP  0  0  0  0  0  0  0  0  0  0  0  0  # atno 17321 bound_to 7965
  139.4795  144.5133  151.8902 LP  0  0  0  0  0  0  0  0  0  0  0  0  # atno 17342 bound_to 10162
  140.4221  144.2229  150.5887 LP  0  0  0  0  0  0  0  0  0  0  0  0  # atno 17343 bound_to 10162
  157.0550  131.0073  151.3241 LP  0  0  0  0  0  0  0  0  0  0  0  0  # atno 17370 bound_to 10713
  157.5112  130.7940  149.7707 LP  0  0  0  0  0  0  0  0  0  0  0  0  # atno 17371 bound_to 10713
  139.8867  134.8902  156.2569 LP  0  0  0  0  0  0  0  0  0  0  0  0  # atno 17394 bound_to 11000
  141.0070  133.7118  156.1050 LP  0  0  0  0  0  0  0  0  0  0  0  0  # atno 17395 bound_to 11000

$$$$
