AV-unprocessed.smi:2385|AV-procd|sdf|9464|dock6
  -GOLD-   2272013 93D 1   1.00000     0.00000
 Structure written by MMmdl.
 50 52  0  0  0  0  0  0  0  0  2 V2000
  152.3635  142.5120  160.0293 C   0  0  0  0  0  0  0  0  0  0  0  0
  151.6861  142.0806  158.7457 C   0  0  0  0  0  0  0  0  0  0  0  0
  151.1405  140.7897  158.6149 C   0  0  0  0  0  0  0  0  0  0  0  0
  150.5245  140.4329  157.3999 C   0  0  0  0  0  0  0  0  0  0  0  0
  150.4697  141.3720  156.3456 C   0  0  0  0  0  0  0  0  0  0  0  0
  149.8342  140.9113  155.1615 N   0  0  0  0  0  0  0  0  0  0  0  0
  148.7313  140.1494  155.0542 C   0  0  0  0  0  0  0  0  0  0  0  0
  148.0904  139.6857  155.9979 O   0  0  0  0  0  0  0  0  0  0  0  0
  148.4002  139.9470  153.7701 N   0  0  0  0  0  0  0  0  0  0  0  0
  147.2372  139.1885  153.3179 C   0  0  2  0  0  0  0  0  0  0  0  0
  147.2254  137.7743  153.9251 C   0  0  0  0  0  0  0  0  0  0  0  0
  146.0435  136.9511  153.3856 C   0  0  0  0  0  0  0  0  0  0  0  0
  146.0627  136.8829  151.9006 N   0  3  1  0  0  0  0  0  0  0  0  0
  145.0046  135.9922  151.3552 C   0  0  0  0  0  0  0  0  0  0  0  0
  145.2295  134.5147  151.7313 C   0  0  1  0  0  0  0  0  0  0  0  0
  144.1575  133.5902  151.1884 C   0  0  0  0  0  0  0  0  0  0  0  0
  144.8283  132.2236  151.2849 C   0  0  0  0  0  0  0  0  0  0  0  0
  146.2221  132.4643  151.1194 O   0  0  0  0  0  0  0  0  0  0  0  0
  146.4823  133.8638  151.1416 C   0  0  0  0  0  0  0  0  0  0  0  0
  146.0494  138.2406  151.2935 C   0  0  0  0  0  0  0  0  0  0  0  0
  147.2373  139.0838  151.7854 C   0  0  0  0  0  0  0  0  0  0  0  0
  150.9980  142.6141  156.4816 N   0  0  0  0  0  0  0  0  0  0  0  0
  151.5877  142.9556  157.6463 C   0  0  0  0  0  0  0  0  0  0  0  0
  151.8304  142.1196  160.8956 H   0  0  0  0  0  0  0  0  0  0  0  0
  152.3903  143.5990  160.1116 H   0  0  0  0  0  0  0  0  0  0  0  0
  153.3878  142.1399  160.0573 H   0  0  0  0  0  0  0  0  0  0  0  0
  151.1928  140.0823  159.4296 H   0  0  0  0  0  0  0  0  0  0  0  0
  150.1019  139.4456  157.2831 H   0  0  0  0  0  0  0  0  0  0  0  0
  150.2593  141.2129  154.2973 H   0  0  0  0  0  0  0  0  0  0  0  0
  148.9822  140.3621  153.0572 H   0  0  0  0  0  0  0  0  0  0  0  0
  146.3306  139.7149  153.6233 H   0  0  0  0  0  0  0  0  0  0  0  0
  148.1610  137.2623  153.6945 H   0  0  0  0  0  0  0  0  0  0  0  0
  147.1643  137.8299  155.0126 H   0  0  0  0  0  0  0  0  0  0  0  0
  146.0952  135.9440  153.8013 H   0  0  0  0  0  0  0  0  0  0  0  0
  145.0995  137.3856  153.7189 H   0  0  0  0  0  0  0  0  0  0  0  0
  144.0390  136.2869  151.7691 H   0  0  0  0  0  0  0  0  0  0  0  0
  144.9096  136.1178  150.2754 H   0  0  0  0  0  0  0  0  0  0  0  0
  145.2502  134.4113  152.8177 H   0  0  0  0  0  0  0  0  0  0  0  0
  143.2221  133.6423  151.7464 H   0  0  0  0  0  0  0  0  0  0  0  0
  143.9440  133.8258  150.1445 H   0  0  0  0  0  0  0  0  0  0  0  0
  144.6661  131.7877  152.2716 H   0  0  0  0  0  0  0  0  0  0  0  0
  144.4528  131.5228  150.5389 H   0  0  0  0  0  0  0  0  0  0  0  0
  146.6469  134.1971  150.1159 H   0  0  0  0  0  0  0  0  0  0  0  0
  147.3799  134.0840  151.7197 H   0  0  0  0  0  0  0  0  0  0  0  0
  146.0891  138.1705  150.2078 H   0  0  0  0  0  0  0  0  0  0  0  0
  145.1113  138.7408  151.5398 H   0  0  0  0  0  0  0  0  0  0  0  0
  147.1898  140.0793  151.3422 H   0  0  0  0  0  0  0  0  0  0  0  0
  148.1699  138.6345  151.4405 H   0  0  0  0  0  0  0  0  0  0  0  0
  151.9925  143.9557  157.6991 H   0  0  0  0  0  0  0  0  0  0  0  0
  146.9455  136.4578  151.6554 H   0  0  0  0  0  0  0  0  0  0  0  0
  1  2  1  0  0  0  0
  1 24  1  0  0  0  0
  1 25  1  0  0  0  0
  1 26  1  0  0  0  0
  2 23  1  0  0  0  0
  2  3  2  0  0  0  0
  3  4  1  0  0  0  0
  3 27  1  0  0  0  0
  4  5  2  0  0  0  0
  4 28  1  0  0  0  0
  5  6  1  0  0  0  0
  5 22  1  0  0  0  0
  6  7  1  0  0  0  0
  6 29  1  0  0  0  0
  7  8  2  0  0  0  0
  7  9  1  0  0  0  0
  9 10  1  0  0  0  0
  9 30  1  0  0  0  0
 10 21  1  0  0  0  0
 10 11  1  0  0  0  0
 10 31  1  0  0  0  0
 11 12  1  0  0  0  0
 11 32  1  0  0  0  0
 11 33  1  0  0  0  0
 12 13  1  0  0  0  0
 12 34  1  0  0  0  0
 12 35  1  0  0  0  0
 13 14  1  0  0  0  0
 13 20  1  0  0  0  0
 13 50  1  0  0  0  0
 14 15  1  0  0  0  0
 14 36  1  0  0  0  0
 14 37  1  0  0  0  0
 15 19  1  0  0  0  0
 15 16  1  0  0  0  0
 15 38  1  0  0  0  0
 16 17  1  0  0  0  0
 16 39  1  0  0  0  0
 16 40  1  0  0  0  0
 17 18  1  0  0  0  0
 17 41  1  0  0  0  0
 17 42  1  0  0  0  0
 18 19  1  0  0  0  0
 19 43  1  0  0  0  0
 19 44  1  0  0  0  0
 20 21  1  0  0  0  0
 20 45  1  0  0  0  0
 20 46  1  0  0  0  0
 21 47  1  0  0  0  0
 21 48  1  0  0  0  0
 22 23  2  0  0  0  0
 23 49  1  0  0  0  0
M  CHG  1  13   1
M  END
> <s_m_source_file>
AV-unprocessed.smi

> <i_m_source_file_index>
2385

> <i_lp_mmshare_version>
43012

> <i_f3d_flags>
0

> <s_epik_input>
W0NIM11jMVtjSF1bY0hdYyhuW2NIXTEpW05IXUMoPU8pW05IXVtDSF0yW0NIMl1bQ0gyXU4oW0NIMl1bQ0gyXTIpW0NIMl1bQ0BASF0zW0NIMl1bQ0gyXU9bQ0gyXTM=

> <s_epik_cmdline>
J2VwaWtfcHl0aG9uJywgJy1waCcsICc3LjAnLCAnLXRuJywgJzgnLCAnLW1hJywgJzIwMCcsICctbWV0YWxfYmluZGluZycsICctaW1hZScsICc8aW5maWxlLm1hZT4nLCAnLW9tYWUnLCAnPG91dGZpbGUubWFlPic=

> <r_epik_Ionization_Penalty>
0.00752367

> <r_epik_Ionization_Penalty_Charging>
0.00747775

> <r_epik_Ionization_Penalty_Neutral>
4.59207e-05

> <r_epik_State_Penalty>
0.00558817

> <r_epik_Charging_Adjusted_Penalty>
0.0130659

> <i_epik_Tot_Q>
1

> <i_epik_Tot_abs_Q>
1

> <r_epik_Metal_State_Penalty>
-0

> <b_epik_Metal_Only>
0

> <s_lp_Force_Field>
OPLS_2005

> <r_lp_Energy>
36.1133

> <b_lp_Chiralities_Consistent>
1

> <s_lp_Variant>
AV-unprocessed.smi:2385-2

> <Gold.Version>
5.8.1

> <Gold.Id.Protein>
6NUR|6NUR_protein|mol2

> <Gold.PLP.Fitness>
41.4819

> <Gold.PLP.PLP>
-33.8105

> <Gold.PLP.part.hbond>
-2.0000

> <Gold.PLP.part.metal>
0.0000

> <Gold.PLP.part.buried>
1.8995

> <Gold.PLP.part.nonpolar>
-34.3789

> <Gold.PLP.part.repulsive>
0.7323

> <Gold.PLP.ligand.clash>
0.0000

> <Gold.PLP.ligand.torsion>
0.3944

> <Gold.PLP.Chemscore.Hbond>
2.8089

> <Gold.PLP.Chemscore.CHOScore>
0.0000

> <Gold.PLP.Chemscore.Metal>
0.0000

> <Gold.Chemscore.Hbonds>
donor molecule, donor type, donor heavy atom, donor atom, acceptor molecule, acceptor atom, score
      L1  H     9    30       P1  7957  0.82
      L1  H    13    50       P1  7948  2.00

> <Gold.PLP.Chemscore.Internal.Correction>
0.0336

> <Gold.Rescore>
     Score         DG    S(hbond)    S(metal)    S(lipo)     H(rot)  DE(clash)    DE(int)     intcor
     14.35     -19.95       1.81        0.00     102.89       1.41       3.96       1.64       ----

> <Gold.Chemscore.Fitness>
14.3461

> <Gold.Chemscore.DG>
-19.9509

> <Gold.Chemscore.ZeroCoef>
-5.4800

> <Gold.Chemscore.Hbond>
1.8056

> <Gold.Chemscore.Metal>
0.0000

> <Gold.Chemscore.Lipo>
102.8926

> <Gold.Chemscore.Internal_Hbond>
0.0000

> <Gold.Chemscore.DEClash>
3.9609

> <Gold.Chemscore.DEInternal>
1.6439

> <Gold.Chemscore.Rot>
1.4056

> <Gold.Chemscore.Internal.Correction>
   9.000000E+99

> <Gold.Chemscore.Hbonds>
donor molecule, donor type, donor heavy atom, donor atom, acceptor molecule, acceptor atom, score
      L1  H     9    30       P1  7957  0.77
      L1  H    13    50       P1  7948  0.94

> <Gold.Chemscore.Hbond.Weighted>
-6.0307

> <Gold.Chemscore.Metal.Weighted>
-0.0000

> <Gold.Chemscore.Lipo.Weighted>
-12.0384

> <Gold.Chemscore.Internal_Hbond.Weighted>
0.0000

> <Gold.Chemscore.DEClash.Weighted>
3.9609

> <Gold.Chemscore.DEInternal.Weighted>
1.6439

> <Gold.Chemscore.Rot.Weighted>
3.5982

> <Gold.Chemscore.Internal.Correction.Weighted>
   9.000000E+99

> <Gold.Protein.RotatedTorsions>
[ 6907 6896 6895 6894 ] final   48.06 input  -60.11 | X-H torsion
[ 7974 7965 7964 7962 ] final   82.51 input  175.53 | X-H torsion
[ 8008 7997 7996 7995 ] final  154.65 input   59.86 | X-H torsion
[ 10167 10162 10161 10158 ] final -175.97 input  -65.29 | X-H torsion
[ 10718 10713 10712 10709 ] final    0.22 input   66.30 | X-H torsion
[ 10763 10752 10751 10750 ] final   31.95 input  -60.55 | X-H torsion
[ 11005 11000 10999 10996 ] final    2.17 input  -57.11 | X-H torsion

> <Gold.Protein.ActiveResidues>
 VAL166  LYS551  ARG553  GLY616  TRP617  ASP618  TYR619  PRO620  LYS621  CYS622 
 ASP623  PHE694  ASN695  SER759  ASP760  ASP761  ALA762  ILE779  LEU786  VAL792 
 PHE793  MET794  SER795  GLU796  ALA797  LYS798  CYS799  TRP800  GLU811  SER814 

> <Gold.Protein.RotatedAtoms>
  152.2752  134.7889  160.0406 H   0  0  0  0  0  0  0  0  0  0  0  0  # atno 6907 bound_to 6896
  151.8487  133.3431  159.3674 H   0  0  0  0  0  0  0  0  0  0  0  0  # atno 6908 bound_to 6896
  150.7167  134.5248  159.5716 H   0  0  0  0  0  0  0  0  0  0  0  0  # atno 6909 bound_to 6896
  145.6241  139.2391  143.2122 H   0  0  0  0  0  0  0  0  0  0  0  0  # atno 7974 bound_to 7965
  156.2520  140.1961  156.6679 H   0  0  0  0  0  0  0  0  0  0  0  0  # atno 8008 bound_to 7997
  154.6415  140.0583  156.9877 H   0  0  0  0  0  0  0  0  0  0  0  0  # atno 8009 bound_to 7997
  155.1555  140.3255  155.4425 H   0  0  0  0  0  0  0  0  0  0  0  0  # atno 8010 bound_to 7997
  139.5553  144.2004  152.1149 H   0  0  0  0  0  0  0  0  0  0  0  0  # atno 10167 bound_to 10162
  156.8302  130.5486  149.5687 H   0  0  0  0  0  0  0  0  0  0  0  0  # atno 10718 bound_to 10713
  153.0288  135.6426  154.1279 H   0  0  0  0  0  0  0  0  0  0  0  0  # atno 10763 bound_to 10752
  154.1004  135.2860  155.3254 H   0  0  0  0  0  0  0  0  0  0  0  0  # atno 10764 bound_to 10752
  154.6402  135.5462  153.7844 H   0  0  0  0  0  0  0  0  0  0  0  0  # atno 10765 bound_to 10752
  140.6073  133.9781  155.8160 H   0  0  0  0  0  0  0  0  0  0  0  0  # atno 11005 bound_to 11000
  146.1408  140.7060  142.9368 LP  0  0  0  0  0  0  0  0  0  0  0  0  # atno 17320 bound_to 7965
  144.7219  140.4402  143.7001 LP  0  0  0  0  0  0  0  0  0  0  0  0  # atno 17321 bound_to 7965
  140.1507  144.5117  150.6689 LP  0  0  0  0  0  0  0  0  0  0  0  0  # atno 17342 bound_to 10162
  140.6825  143.2333  151.5347 LP  0  0  0  0  0  0  0  0  0  0  0  0  # atno 17343 bound_to 10162
  156.0938  130.5917  150.9779 LP  0  0  0  0  0  0  0  0  0  0  0  0  # atno 17370 bound_to 10713
  157.6411  131.0910  150.8250 LP  0  0  0  0  0  0  0  0  0  0  0  0  # atno 17371 bound_to 10713
  141.0832  134.0030  157.3354 LP  0  0  0  0  0  0  0  0  0  0  0  0  # atno 17394 bound_to 11000
  139.9207  135.0200  156.8053 LP  0  0  0  0  0  0  0  0  0  0  0  0  # atno 17395 bound_to 11000

$$$$
