AV-unprocessed.smi:653|AV-procd|sdf|3205|dock10
  -GOLD-   22720 0143D 1   1.00000     0.00000
 Structure written by MMmdl.
 44 45  0  0  0  0  0  0  0  0  1 V2000
  153.4114  142.8524  163.2979 C   0  0  0  0  0  0  0  0  0  0  0  0
  152.9294  142.9849  161.8683 C   0  0  0  0  0  0  0  0  0  0  0  0
  152.3205  144.1767  161.4220 C   0  0  0  0  0  0  0  0  0  0  0  0
  151.8948  144.2513  160.0820 C   0  0  0  0  0  0  0  0  0  0  0  0
  152.0939  143.1361  159.2418 C   0  0  0  0  0  0  0  0  0  0  0  0
  151.6562  143.1671  157.7891 C   0  0  0  0  0  0  0  0  0  0  0  0
  150.5813  142.1095  157.5362 C   0  0  0  0  0  0  0  0  0  0  0  0
  150.3855  141.2219  158.3665 O   0  0  0  0  0  0  0  0  0  0  0  0
  149.8953  142.2165  156.3876 N   0  0  0  0  0  0  0  0  0  0  0  0
  148.8152  141.3332  155.9574 C   0  0  0  0  0  0  0  0  0  0  0  0
  148.3386  141.6470  154.5172 C   0  0  1  0  0  0  0  0  0  0  0  0
  148.2671  140.4146  153.6257 C   0  0  0  0  0  0  0  0  0  0  0  0
  146.8901  139.8311  153.9458 C   0  0  0  0  0  0  0  0  0  0  0  0
  146.1406  140.8934  154.5300 O   0  0  0  0  0  0  0  0  0  0  0  0
  146.8729  142.1086  154.4214 C   0  0  1  0  0  0  0  0  0  0  0  0
  146.3839  143.1599  155.4439 C   0  0  0  0  0  0  0  0  0  0  0  0
  146.2051  142.5331  156.8362 C   0  0  0  0  0  0  0  0  0  0  0  0
  145.0690  143.8215  154.9972 C   0  0  0  0  0  0  0  0  0  0  0  0
  152.7139  141.9919  159.7875 C   0  0  0  0  0  0  0  0  0  0  0  0
  153.1255  141.9114  161.0710 N   0  0  0  0  0  0  0  0  0  0  0  0
  152.8474  143.5098  163.9601 H   0  0  0  0  0  0  0  0  0  0  0  0
  154.4662  143.1200  163.3650 H   0  0  0  0  0  0  0  0  0  0  0  0
  153.2923  141.8293  163.6570 H   0  0  0  0  0  0  0  0  0  0  0  0
  152.1836  145.0159  162.0881 H   0  0  0  0  0  0  0  0  0  0  0  0
  151.4273  145.1500  159.7071 H   0  0  0  0  0  0  0  0  0  0  0  0
  151.2841  144.1612  157.5361 H   0  0  0  0  0  0  0  0  0  0  0  0
  152.5112  142.9761  157.1393 H   0  0  0  0  0  0  0  0  0  0  0  0
  150.1300  142.9790  155.7687 H   0  0  0  0  0  0  0  0  0  0  0  0
  149.0997  140.2839  156.0524 H   0  0  0  0  0  0  0  0  0  0  0  0
  147.9997  141.4857  156.6632 H   0  0  0  0  0  0  0  0  0  0  0  0
  149.0029  142.3940  154.0807 H   0  0  0  0  0  0  0  0  0  0  0  0
  148.2945  140.7238  152.5799 H   0  0  0  0  0  0  0  0  0  0  0  0
  149.0759  139.6995  153.7692 H   0  0  0  0  0  0  0  0  0  0  0  0
  146.3973  139.4503  153.0510 H   0  0  0  0  0  0  0  0  0  0  0  0
  146.9656  139.0158  154.6660 H   0  0  0  0  0  0  0  0  0  0  0  0
  146.6998  142.4975  153.4157 H   0  0  0  0  0  0  0  0  0  0  0  0
  147.1417  143.9376  155.5402 H   0  0  0  0  0  0  0  0  0  0  0  0
  145.4629  141.7340  156.8195 H   0  0  0  0  0  0  0  0  0  0  0  0
  145.8764  143.2768  157.5627 H   0  0  0  0  0  0  0  0  0  0  0  0
  147.1401  142.1110  157.2053 H   0  0  0  0  0  0  0  0  0  0  0  0
  144.2723  143.0841  154.8923 H   0  0  0  0  0  0  0  0  0  0  0  0
  145.1758  144.3305  154.0399 H   0  0  0  0  0  0  0  0  0  0  0  0
  144.7385  144.5649  155.7232 H   0  0  0  0  0  0  0  0  0  0  0  0
  152.8863  141.1175  159.1772 H   0  0  0  0  0  0  0  0  0  0  0  0
  1  2  1  0  0  0  0
  1 21  1  0  0  0  0
  1 22  1  0  0  0  0
  1 23  1  0  0  0  0
  2 20  1  0  0  0  0
  2  3  2  0  0  0  0
  3  4  1  0  0  0  0
  3 24  1  0  0  0  0
  4  5  2  0  0  0  0
  4 25  1  0  0  0  0
  5  6  1  0  0  0  0
  5 19  1  0  0  0  0
  6  7  1  0  0  0  0
  6 26  1  0  0  0  0
  6 27  1  0  0  0  0
  7  8  2  0  0  0  0
  7  9  1  0  0  0  0
  9 10  1  0  0  0  0
  9 28  1  0  0  0  0
 10 11  1  0  0  0  0
 10 29  1  0  0  0  0
 10 30  1  0  0  0  0
 11 15  1  0  0  0  0
 11 12  1  0  0  0  0
 11 31  1  0  0  0  0
 12 13  1  0  0  0  0
 12 32  1  0  0  0  0
 12 33  1  0  0  0  0
 13 14  1  0  0  0  0
 13 34  1  0  0  0  0
 13 35  1  0  0  0  0
 14 15  1  0  0  0  0
 15 16  1  0  0  0  0
 15 36  1  0  0  0  0
 16 17  1  0  0  0  0
 16 18  1  0  0  0  0
 16 37  1  0  0  0  0
 17 38  1  0  0  0  0
 17 39  1  0  0  0  0
 17 40  1  0  0  0  0
 18 41  1  0  0  0  0
 18 42  1  0  0  0  0
 18 43  1  0  0  0  0
 19 20  2  0  0  0  0
 19 44  1  0  0  0  0
M  END
> <s_m_source_file>
AV-unprocessed.smi

> <i_m_source_file_index>
653

> <i_lp_mmshare_version>
43012

> <i_f3d_flags>
0

> <s_epik_input>
W0NIM11jMVtjSF1bY0hdYyhbY0hdbjEpW0NIMl1DKD1PKVtOSF1bQ0gyXVtDQEBIXTJbQ0gyXVtDSDJdT1tDQEhdMltDSF0oW0NIM10pW0NIM10=

> <s_epik_cmdline>
J2VwaWtfcHl0aG9uJywgJy1waCcsICc3LjAnLCAnLXRuJywgJzgnLCAnLW1hJywgJzIwMCcsICctbWV0YWxfYmluZGluZycsICctaW1hZScsICc8aW5maWxlLm1hZT4nLCAnLW9tYWUnLCAnPG91dGZpbGUubWFlPic=

> <r_epik_Ionization_Penalty>
0.0166429

> <r_epik_Ionization_Penalty_Charging>
0

> <r_epik_Ionization_Penalty_Neutral>
0.0166429

> <r_epik_State_Penalty>
0.0131478

> <r_epik_Charging_Adjusted_Penalty>
0.0131478

> <i_epik_Tot_Q>
0

> <i_epik_Tot_abs_Q>
0

> <r_epik_Metal_State_Penalty>
0.012786

> <b_epik_Metal_Only>
0

> <s_lp_Force_Field>
OPLS_2005

> <r_lp_Energy>
21.9695

> <b_lp_Chiralities_Consistent>
1

> <s_lp_Variant>
AV-unprocessed.smi:653-2

> <Gold.Version>
5.8.1

> <Gold.Id.Protein>
6NUR|6NUR_protein|mol2

> <Gold.PLP.Fitness>
43.5478

> <Gold.PLP.PLP>
-43.7220

> <Gold.PLP.part.hbond>
-1.0000

> <Gold.PLP.part.metal>
0.0000

> <Gold.PLP.part.buried>
-4.7555

> <Gold.PLP.part.nonpolar>
-38.2182

> <Gold.PLP.part.repulsive>
0.1958

> <Gold.PLP.ligand.clash>
0.0000

> <Gold.PLP.ligand.torsion>
1.1589

> <Gold.PLP.Chemscore.Hbond>
0.7040

> <Gold.PLP.Chemscore.CHOScore>
0.0000

> <Gold.PLP.Chemscore.Metal>
0.0000

> <Gold.Chemscore.Hbonds>
donor molecule, donor type, donor heavy atom, donor atom, acceptor molecule, acceptor atom, score
      L1  H     9    28       P1  8028  0.32

> <Gold.PLP.Chemscore.Internal.Correction>
0.0316

> <Gold.Rescore>
     Score         DG    S(hbond)    S(metal)    S(lipo)     H(rot)  DE(clash)    DE(int)     intcor
     14.57     -18.17       0.86        0.00     116.24       1.48       0.11       3.48       ----

> <Gold.Chemscore.Fitness>
14.5731

> <Gold.Chemscore.DG>
-18.1660

> <Gold.Chemscore.ZeroCoef>
-5.4800

> <Gold.Chemscore.Hbond>
0.8644

> <Gold.Chemscore.Metal>
0.0000

> <Gold.Chemscore.Lipo>
116.2433

> <Gold.Chemscore.Internal_Hbond>
0.0000

> <Gold.Chemscore.DEClash>
0.1130

> <Gold.Chemscore.DEInternal>
3.4799

> <Gold.Chemscore.Rot>
1.4850

> <Gold.Chemscore.Internal.Correction>
   9.000000E+99

> <Gold.Chemscore.Hbonds>
donor molecule, donor type, donor heavy atom, donor atom, acceptor molecule, acceptor atom, score
      L1  H     9    28       P1  8028  0.31

> <Gold.Chemscore.Hbond.Weighted>
-2.8870

> <Gold.Chemscore.Metal.Weighted>
-0.0000

> <Gold.Chemscore.Lipo.Weighted>
-13.6005

> <Gold.Chemscore.Internal_Hbond.Weighted>
0.0000

> <Gold.Chemscore.DEClash.Weighted>
0.1130

> <Gold.Chemscore.DEInternal.Weighted>
3.4799

> <Gold.Chemscore.Rot.Weighted>
3.8015

> <Gold.Chemscore.Internal.Correction.Weighted>
   9.000000E+99

> <Gold.Protein.RotatedTorsions>
[ 6907 6896 6895 6894 ] final  136.08 input  -60.11 | X-H torsion
[ 7974 7965 7964 7962 ] final  140.79 input  175.53 | X-H torsion
[ 8008 7997 7996 7995 ] final  -86.62 input   59.86 | X-H torsion
[ 10167 10162 10161 10158 ] final -152.71 input  -65.29 | X-H torsion
[ 10718 10713 10712 10709 ] final -127.01 input   66.30 | X-H torsion
[ 10763 10752 10751 10750 ] final  104.59 input  -60.55 | X-H torsion
[ 11005 11000 10999 10996 ] final  -32.14 input  -57.11 | X-H torsion

> <Gold.Protein.ActiveResidues>
 VAL166  LYS551  ARG553  GLY616  TRP617  ASP618  TYR619  PRO620  LYS621  CYS622 
 ASP623  PHE694  ASN695  SER759  ASP760  ASP761  ALA762  ILE779  LEU786  VAL792 
 PHE793  MET794  SER795  GLU796  ALA797  LYS798  CYS799  TRP800  GLU811  SER814 

> <Gold.Protein.RotatedAtoms>
  152.2933  133.5583  159.5571 H   0  0  0  0  0  0  0  0  0  0  0  0  # atno 6907 bound_to 6896
  150.7245  134.0397  159.3770 H   0  0  0  0  0  0  0  0  0  0  0  0  # atno 6908 bound_to 6896
  151.8301  135.0624  160.0486 H   0  0  0  0  0  0  0  0  0  0  0  0  # atno 6909 bound_to 6896
  144.9154  139.5237  143.5688 H   0  0  0  0  0  0  0  0  0  0  0  0  # atno 7974 bound_to 7965
  154.6539  140.0576  156.9987 H   0  0  0  0  0  0  0  0  0  0  0  0  # atno 8008 bound_to 7997
  155.1329  140.3258  155.4451 H   0  0  0  0  0  0  0  0  0  0  0  0  # atno 8009 bound_to 7997
  156.2588  140.1977  156.6448 H   0  0  0  0  0  0  0  0  0  0  0  0  # atno 8010 bound_to 7997
  139.7158  143.9035  152.2485 H   0  0  0  0  0  0  0  0  0  0  0  0  # atno 10167 bound_to 10162
  156.1818  130.6737  151.0314 H   0  0  0  0  0  0  0  0  0  0  0  0  # atno 10718 bound_to 10713
  153.3680  135.3938  155.1767 H   0  0  0  0  0  0  0  0  0  0  0  0  # atno 10763 bound_to 10752
  154.8690  135.3695  154.5014 H   0  0  0  0  0  0  0  0  0  0  0  0  # atno 10764 bound_to 10752
  153.5480  135.7083  153.5665 H   0  0  0  0  0  0  0  0  0  0  0  0  # atno 10765 bound_to 10752
  140.9527  133.7211  156.1246 H   0  0  0  0  0  0  0  0  0  0  0  0  # atno 11005 bound_to 11000
  146.3179  139.7993  142.8969 LP  0  0  0  0  0  0  0  0  0  0  0  0  # atno 17320 bound_to 7965
  145.3384  141.0282  143.3406 LP  0  0  0  0  0  0  0  0  0  0  0  0  # atno 17321 bound_to 7965
  139.8917  144.6962  150.8763 LP  0  0  0  0  0  0  0  0  0  0  0  0  # atno 17342 bound_to 10162
  140.7743  143.3581  151.1881 LP  0  0  0  0  0  0  0  0  0  0  0  0  # atno 17343 bound_to 10162
  157.6873  131.0821  150.7207 LP  0  0  0  0  0  0  0  0  0  0  0  0  # atno 17370 bound_to 10713
  156.7264  130.4696  149.5510 LP  0  0  0  0  0  0  0  0  0  0  0  0  # atno 17371 bound_to 10713
  140.7579  134.3972  157.5530 LP  0  0  0  0  0  0  0  0  0  0  0  0  # atno 17394 bound_to 11000
  139.8852  134.8942  156.2654 LP  0  0  0  0  0  0  0  0  0  0  0  0  # atno 17395 bound_to 11000

$$$$
