AV-unprocessed.smi:45|AV-procd|sdf|409|dock10
  -GOLD-   2262016273D 1   1.00000     0.00000
 Structure written by MMmdl.
 61 64  0  0  0  0  0  0  0  0  2 V2000
  153.2453  139.3988  159.0003 C   0  0  0  0  0  0  0  0  0  0  0  0
  153.2066  139.0751  157.6181 O   0  0  0  0  0  0  0  0  0  0  0  0
  152.0056  138.6647  157.0777 C   0  0  0  0  0  0  0  0  0  0  0  0
  150.8061  138.5418  157.8233 C   0  0  0  0  0  0  0  0  0  0  0  0
  149.6216  138.0982  157.2052 C   0  0  0  0  0  0  0  0  0  0  0  0
  149.6089  137.7719  155.8354 C   0  0  0  0  0  0  0  0  0  0  0  0
  148.3120  137.2831  155.2029 C   0  0  0  0  0  0  0  0  0  0  0  0
  147.2828  136.7961  156.1164 N   0  0  0  0  0  0  0  0  0  0  0  0
  146.3504  135.8133  155.7360 C   0  0  0  0  0  0  0  0  0  0  0  0
  145.9479  135.7832  154.4449 N   0  0  0  0  0  0  0  0  0  0  0  0
  145.0729  134.8583  154.0278 C   0  0  0  0  0  0  0  0  0  0  0  0
  144.6650  134.8519  152.6966 N   0  0  0  0  0  0  0  0  0  0  0  0
  143.6820  133.8938  152.2062 C   0  0  0  0  0  0  0  0  0  0  0  0
  144.0557  133.6218  150.7501 C   0  0  0  0  0  0  0  0  0  0  0  0
  144.7118  134.9271  150.3172 C   0  0  0  0  0  0  0  0  0  0  0  0
  145.4394  135.4013  151.5839 C   0  0  1  0  0  0  0  0  0  0  0  0
  145.5775  136.9359  151.6506 C   0  0  0  0  0  0  0  0  0  0  0  0
  146.3895  137.3945  150.5912 O   0  0  0  0  0  0  0  0  0  0  0  0
  144.5777  133.9242  154.8541 N   0  3  0  0  0  0  0  0  0  0  0  0
  144.9450  133.9107  156.1571 C   0  0  0  0  0  0  0  0  0  0  0  0
  145.8593  134.8594  156.6627 C   0  0  0  0  0  0  0  0  0  0  0  0
  146.2261  134.8567  158.1229 C   0  0  0  0  0  0  0  0  0  0  0  0
  145.8347  133.9680  158.8795 O   0  0  0  0  0  0  0  0  0  0  0  0
  146.9788  135.8930  158.5254 N   0  0  0  0  0  0  0  0  0  0  0  0
  147.4892  136.0743  159.8794 C   0  0  0  0  0  0  0  0  0  0  0  0
  146.3927  136.4001  160.8793 C   0  0  0  0  0  0  0  0  0  0  0  0
  145.3860  135.5264  160.9772 N   0  0  0  0  0  0  0  0  0  0  0  0
  144.4160  135.8096  161.8732 C   0  0  0  0  0  0  0  0  0  0  0  0
  144.4596  136.9713  162.6701 C   0  0  0  0  0  0  0  0  0  0  0  0
  145.5700  137.8179  162.4789 C   0  0  0  0  0  0  0  0  0  0  0  0
  146.5374  137.5297  161.5811 N   0  0  0  0  0  0  0  0  0  0  0  0
  150.7943  137.9166  155.0830 C   0  0  0  0  0  0  0  0  0  0  0  0
  151.9826  138.3506  155.7010 C   0  0  0  0  0  0  0  0  0  0  0  0
  153.4191  138.4887  154.7522 Cl  0  0  0  0  0  0  0  0  0  0  0  0
  146.4289  134.9426  151.6164 H   0  0  0  0  0  0  0  0  0  0  0  0
  154.2589  139.6937  159.2716 H   0  0  0  0  0  0  0  0  0  0  0  0
  152.9747  138.5414  159.6181 H   0  0  0  0  0  0  0  0  0  0  0  0
  152.5856  140.2360  159.2326 H   0  0  0  0  0  0  0  0  0  0  0  0
  150.7687  138.7739  158.8767 H   0  0  0  0  0  0  0  0  0  0  0  0
  148.7200  138.0017  157.7923 H   0  0  0  0  0  0  0  0  0  0  0  0
  147.8876  138.0819  154.5933 H   0  0  0  0  0  0  0  0  0  0  0  0
  148.5583  136.4737  154.5154 H   0  0  0  0  0  0  0  0  0  0  0  0
  147.0731  137.3623  156.9268 H   0  0  0  0  0  0  0  0  0  0  0  0
  143.6768  132.9717  152.7890 H   0  0  0  0  0  0  0  0  0  0  0  0
  142.6911  134.3440  152.2728 H   0  0  0  0  0  0  0  0  0  0  0  0
  144.7826  132.8099  150.6985 H   0  0  0  0  0  0  0  0  0  0  0  0
  143.1980  133.3483  150.1349 H   0  0  0  0  0  0  0  0  0  0  0  0
  145.3825  134.8036  149.4662 H   0  0  0  0  0  0  0  0  0  0  0  0
  143.9372  135.6404  150.0307 H   0  0  0  0  0  0  0  0  0  0  0  0
  144.6017  137.4190  151.5911 H   0  0  0  0  0  0  0  0  0  0  0  0
  146.0311  137.2559  152.5872 H   0  0  0  0  0  0  0  0  0  0  0  0
  145.8672  137.9463  150.0285 H   0  0  0  0  0  0  0  0  0  0  0  0
  144.4825  133.1395  156.7565 H   0  0  0  0  0  0  0  0  0  0  0  0
  147.2458  136.5882  157.8441 H   0  0  0  0  0  0  0  0  0  0  0  0
  147.9817  135.1518  160.1883 H   0  0  0  0  0  0  0  0  0  0  0  0
  148.2583  136.8494  159.8864 H   0  0  0  0  0  0  0  0  0  0  0  0
  143.6004  135.1064  161.9541 H   0  0  0  0  0  0  0  0  0  0  0  0
  143.6852  137.1999  163.3873 H   0  0  0  0  0  0  0  0  0  0  0  0
  145.6827  138.7287  163.0481 H   0  0  0  0  0  0  0  0  0  0  0  0
  150.8054  137.6872  154.0275 H   0  0  0  0  0  0  0  0  0  0  0  0
  143.9116  133.2303  154.5140 H   0  0  0  0  0  0  0  0  0  0  0  0
  1  2  1  0  0  0  0
  1 36  1  0  0  0  0
  1 37  1  0  0  0  0
  1 38  1  0  0  0  0
  2  3  1  0  0  0  0
  3 33  1  0  0  0  0
  3  4  2  0  0  0  0
  4  5  1  0  0  0  0
  4 39  1  0  0  0  0
  5  6  2  0  0  0  0
  5 40  1  0  0  0  0
  6  7  1  0  0  0  0
  6 32  1  0  0  0  0
  7  8  1  0  0  0  0
  7 41  1  0  0  0  0
  7 42  1  0  0  0  0
  8  9  1  0  0  0  0
  8 43  1  0  0  0  0
  9 21  1  0  0  0  0
  9 10  2  0  0  0  0
 10 11  1  0  0  0  0
 11 12  1  0  0  0  0
 11 19  2  0  0  0  0
 12 16  1  0  0  0  0
 12 13  1  0  0  0  0
 13 14  1  0  0  0  0
 13 44  1  0  0  0  0
 13 45  1  0  0  0  0
 14 15  1  0  0  0  0
 14 46  1  0  0  0  0
 14 47  1  0  0  0  0
 15 16  1  0  0  0  0
 15 48  1  0  0  0  0
 15 49  1  0  0  0  0
 16 35  1  0  0  0  0
 16 17  1  0  0  0  0
 17 18  1  0  0  0  0
 17 50  1  0  0  0  0
 17 51  1  0  0  0  0
 18 52  1  0  0  0  0
 19 20  1  0  0  0  0
 19 61  1  0  0  0  0
 20 21  2  0  0  0  0
 20 53  1  0  0  0  0
 21 22  1  0  0  0  0
 22 23  2  0  0  0  0
 22 24  1  0  0  0  0
 24 25  1  0  0  0  0
 24 54  1  0  0  0  0
 25 26  1  0  0  0  0
 25 55  1  0  0  0  0
 25 56  1  0  0  0  0
 26 31  1  0  0  0  0
 26 27  2  0  0  0  0
 27 28  1  0  0  0  0
 28 29  2  0  0  0  0
 28 57  1  0  0  0  0
 29 30  1  0  0  0  0
 29 58  1  0  0  0  0
 30 31  2  0  0  0  0
 30 59  1  0  0  0  0
 32 33  2  0  0  0  0
 32 60  1  0  0  0  0
 33 34  1  0  0  0  0
M  CHG  1  19   1
M  END
> <s_m_source_file>
AV-unprocessed.smi

> <i_m_source_file_index>
45

> <i_lp_mmshare_version>
43012

> <i_f3d_flags>
0

> <s_epik_input>
W0NIM11PYzFbY0hdW2NIXWMoW2NIXWMxQ2wpW0NIMl1bTkhdYzJuYyhOM1tDSDJdW0NIMl1bQ0gyXVtDQEhdM1tDSDJdW09IXSluW2NIXWMyQyg9TylbTkhdW0NIMl1jNG5bY0hdW2NIXVtjSF1uNA==

> <s_epik_cmdline>
J2VwaWtfcHl0aG9uJywgJy1waCcsICc3LjAnLCAnLXRuJywgJzgnLCAnLW1hJywgJzIwMCcsICctbWV0YWxfYmluZGluZycsICctaW1hZScsICc8aW5maWxlLm1hZT4nLCAnLW9tYWUnLCAnPG91dGZpbGUubWFlPic=

> <r_lp_tautomer_probability>
0.575011

> <r_epik_Ionization_Penalty>
1.61454

> <r_epik_Ionization_Penalty_Charging>
1.61448

> <r_epik_Ionization_Penalty_Neutral>
6.30284e-05

> <r_epik_State_Penalty>
1.91123

> <r_epik_Charging_Adjusted_Penalty>
3.52572

> <i_epik_Tot_Q>
1

> <i_epik_Tot_abs_Q>
1

> <r_epik_Metal_State_Penalty>
1.95488

> <b_epik_Metal_Only>
0

> <s_epik_Chemistry_Notes>
This compound contains an electron-poor aromatic ring that is susceptible to covalent hydrolysis at low pH, typically resulting in measured values for nitrogen ring protonation that are around two units higher than predicted values.

> <s_lp_Force_Field>
OPLS_2005

> <r_lp_Energy>
32.8606

> <b_lp_Chiralities_Consistent>
1

> <s_lp_Variant>
AV-unprocessed.smi:45-3

> <Gold.Version>
5.8.1

> <Gold.Id.Protein>
6NUR|6NUR_protein|mol2

> <Gold.PLP.Fitness>
54.0739

> <Gold.PLP.PLP>
-37.8791

> <Gold.PLP.part.hbond>
-5.7648

> <Gold.PLP.part.metal>
0.0000

> <Gold.PLP.part.buried>
-3.4979

> <Gold.PLP.part.nonpolar>
-29.4224

> <Gold.PLP.part.repulsive>
0.0607

> <Gold.PLP.ligand.clash>
0.0000

> <Gold.PLP.ligand.torsion>
0.8701

> <Gold.PLP.Chemscore.Hbond>
5.8240

> <Gold.PLP.Chemscore.CHOScore>
0.0000

> <Gold.PLP.Chemscore.Metal>
0.0000

> <Gold.Chemscore.Hbonds>
donor molecule, donor type, donor heavy atom, donor atom, acceptor molecule, acceptor atom, score
      L1  H    18    52       P1 10171  0.70
      L1  H    19    61       P1 10957  2.00
      P1  H  6934  6947       L1    31  1.00
      P1  H  7954  7966       L1    18  0.86
      P1  H  7997  8008       L1     2  1.00

> <Gold.PLP.Chemscore.Internal.Correction>
0.4629

> <Gold.Rescore>
     Score         DG    S(hbond)    S(metal)    S(lipo)     H(rot)  DE(clash)    DE(int)     intcor
     16.79     -22.08       4.05        0.00      90.58       2.94       0.38       4.92       ----

> <Gold.Chemscore.Fitness>
16.7854

> <Gold.Chemscore.DG>
-22.0820

> <Gold.Chemscore.ZeroCoef>
-5.4800

> <Gold.Chemscore.Hbond>
4.0508

> <Gold.Chemscore.Metal>
0.0000

> <Gold.Chemscore.Lipo>
90.5777

> <Gold.Chemscore.Internal_Hbond>
0.0000

> <Gold.Chemscore.DEClash>
0.3759

> <Gold.Chemscore.DEInternal>
4.9207

> <Gold.Chemscore.Rot>
2.9395

> <Gold.Chemscore.Internal.Correction>
   9.000000E+99

> <Gold.Chemscore.Hbonds>
donor molecule, donor type, donor heavy atom, donor atom, acceptor molecule, acceptor atom, score
      L1  H    18    52       P1 10171  0.68
      L1  H    19    61       P1 10957  0.95
      P1  H  6934  6947       L1    31  0.62
      P1  H  7954  7966       L1    18  0.16
      P1  H  7997  8008       L1     2  0.40

> <Gold.Chemscore.Hbond.Weighted>
-13.5295

> <Gold.Chemscore.Metal.Weighted>
-0.0000

> <Gold.Chemscore.Lipo.Weighted>
-10.5976

> <Gold.Chemscore.Internal_Hbond.Weighted>
0.0000

> <Gold.Chemscore.DEClash.Weighted>
0.3759

> <Gold.Chemscore.DEInternal.Weighted>
4.9207

> <Gold.Chemscore.Rot.Weighted>
7.5251

> <Gold.Chemscore.Internal.Correction.Weighted>
   9.000000E+99

> <Gold.Protein.RotatedTorsions>
[ 6907 6896 6895 6894 ] final  113.73 input  -60.11 | X-H torsion
[ 7974 7965 7964 7962 ] final   17.31 input  175.53 | X-H torsion
[ 8008 7997 7996 7995 ] final  -79.91 input   59.86 | X-H torsion
[ 10167 10162 10161 10158 ] final -164.32 input  -65.29 | X-H torsion
[ 10718 10713 10712 10709 ] final   50.01 input   66.30 | X-H torsion
[ 10763 10752 10751 10750 ] final  102.53 input  -60.55 | X-H torsion
[ 11005 11000 10999 10996 ] final  -99.11 input  -57.11 | X-H torsion

> <Gold.Protein.ActiveResidues>
 VAL166  LYS551  ARG553  GLY616  TRP617  ASP618  TYR619  PRO620  LYS621  CYS622 
 ASP623  PHE694  ASN695  SER759  ASP760  ASP761  ALA762  ILE779  LEU786  VAL792 
 PHE793  MET794  SER795  GLU796  ALA797  LYS798  CYS799  TRP800  GLU811  SER814 

> <Gold.Protein.RotatedAtoms>
  152.4844  133.8335  159.7115 H   0  0  0  0  0  0  0  0  0  0  0  0  # atno 6907 bound_to 6896
  150.8918  133.7223  159.2909 H   0  0  0  0  0  0  0  0  0  0  0  0  # atno 6908 bound_to 6896
  151.4693  135.1048  159.9799 H   0  0  0  0  0  0  0  0  0  0  0  0  # atno 6909 bound_to 6896
  146.2222  139.8621  142.8603 H   0  0  0  0  0  0  0  0  0  0  0  0  # atno 7974 bound_to 7965
  154.5831  140.0671  156.9133 H   0  0  0  0  0  0  0  0  0  0  0  0  # atno 8008 bound_to 7997
  155.2426  140.3346  155.4272 H   0  0  0  0  0  0  0  0  0  0  0  0  # atno 8009 bound_to 7997
  156.2204  140.1796  156.7476 H   0  0  0  0  0  0  0  0  0  0  0  0  # atno 8010 bound_to 7997
  139.6259  144.0533  152.1974 H   0  0  0  0  0  0  0  0  0  0  0  0  # atno 10167 bound_to 10162
  157.4842  130.8335  149.8128 H   0  0  0  0  0  0  0  0  0  0  0  0  # atno 10718 bound_to 10713
  153.3408  135.4007  155.1570 H   0  0  0  0  0  0  0  0  0  0  0  0  # atno 10763 bound_to 10752
  154.8643  135.3633  154.5348 H   0  0  0  0  0  0  0  0  0  0  0  0  # atno 10764 bound_to 10752
  153.5793  135.7077  153.5530 H   0  0  0  0  0  0  0  0  0  0  0  0  # atno 10765 bound_to 10752
  141.1320  133.8296  157.0929 H   0  0  0  0  0  0  0  0  0  0  0  0  # atno 11005 bound_to 11000
  145.2694  141.0103  143.3781 LP  0  0  0  0  0  0  0  0  0  0  0  0  # atno 17320 bound_to 7965
  144.9236  139.4382  143.6529 LP  0  0  0  0  0  0  0  0  0  0  0  0  # atno 17321 bound_to 7965
  140.0187  144.6169  150.7585 LP  0  0  0  0  0  0  0  0  0  0  0  0  # atno 17342 bound_to 10162
  140.7410  143.2813  151.3592 LP  0  0  0  0  0  0  0  0  0  0  0  0  # atno 17343 bound_to 10162
  156.0138  130.3822  150.2177 LP  0  0  0  0  0  0  0  0  0  0  0  0  # atno 17370 bound_to 10713
  157.0364  131.0022  151.3297 LP  0  0  0  0  0  0  0  0  0  0  0  0  # atno 17371 bound_to 10713
  140.0381  134.9868  157.0910 LP  0  0  0  0  0  0  0  0  0  0  0  0  # atno 17394 bound_to 11000
  140.4178  134.1913  155.7164 LP  0  0  0  0  0  0  0  0  0  0  0  0  # atno 17395 bound_to 11000

$$$$
