AV-unprocessed.smi:308|AV-procd|sdf|2285|dock2
  -GOLD-   2262022183D 1   1.00000     0.00000
 Structure written by MMmdl.
 51 52  0  0  0  0  0  0  0  0  3 V2000
  145.5066  131.8688  151.1153 C   0  0  0  0  0  0  0  0  0  0  0  0
  145.0886  133.2790  151.5548 C   0  0  2  0  0  0  0  0  0  0  0  0
  145.2311  134.2978  150.4119 C   0  0  0  0  0  0  0  0  0  0  0  0
  144.8382  135.7118  150.8719 C   0  0  0  0  0  0  0  0  0  0  0  0
  145.6414  136.1395  152.0469 N   0  3  1  0  0  0  0  0  0  0  0  0
  145.3712  137.5494  152.4255 C   0  0  0  0  0  0  0  0  0  0  0  0
  146.3184  138.5402  151.7207 C   0  0  0  0  0  0  0  0  0  0  0  0
  147.5686  138.7042  152.4542 N   0  0  0  0  0  0  0  0  0  0  0  0
  147.8123  139.6756  153.3454 C   0  0  0  0  0  0  0  0  0  0  0  0
  146.9856  140.5352  153.6490 O   0  0  0  0  0  0  0  0  0  0  0  0
  149.0607  139.5870  153.8363 N   0  0  0  0  0  0  0  0  0  0  0  0
  149.6973  140.4174  154.7992 C   0  0  0  0  0  0  0  0  0  0  0  0
  150.6917  139.8364  155.6133 C   0  0  0  0  0  0  0  0  0  0  0  0
  151.3439  140.6154  156.5910 C   0  0  0  0  0  0  0  0  0  0  0  0
  150.9916  141.9773  156.7576 C   0  0  0  0  0  0  0  0  0  0  0  0
  151.5982  142.8220  157.7122 N   0  0  0  0  0  0  0  0  0  0  0  0
  151.5803  144.2661  157.5183 C   0  0  0  0  0  0  0  0  0  0  0  0
  152.2495  142.2434  158.8823 C   0  0  0  0  0  0  0  0  0  0  0  0
  150.0216  142.4875  155.9602 N   0  3  0  0  0  0  0  0  0  0  0  0
  149.3728  141.7788  155.0113 C   0  0  0  0  0  0  0  0  0  0  0  0
  145.4959  135.1871  153.1803 C   0  0  0  0  0  0  0  0  0  0  0  0
  145.9027  133.7629  152.7661 C   0  0  0  0  0  0  0  0  0  0  0  0
  146.5530  131.8408  150.8095 H   0  0  0  0  0  0  0  0  0  0  0  0
  144.9048  131.5255  150.2734 H   0  0  0  0  0  0  0  0  0  0  0  0
  145.3777  131.1508  151.9258 H   0  0  0  0  0  0  0  0  0  0  0  0
  144.0377  133.2381  151.8455 H   0  0  0  0  0  0  0  0  0  0  0  0
  146.2600  134.3063  150.0486 H   0  0  0  0  0  0  0  0  0  0  0  0
  144.6084  134.0014  149.5671 H   0  0  0  0  0  0  0  0  0  0  0  0
  144.9911  136.4081  150.0462 H   0  0  0  0  0  0  0  0  0  0  0  0
  143.7767  135.7456  151.1231 H   0  0  0  0  0  0  0  0  0  0  0  0
  144.3465  137.7982  152.1460 H   0  0  0  0  0  0  0  0  0  0  0  0
  145.4288  137.6602  153.5095 H   0  0  0  0  0  0  0  0  0  0  0  0
  146.5756  138.1895  150.7220 H   0  0  0  0  0  0  0  0  0  0  0  0
  145.8323  139.5093  151.5937 H   0  0  0  0  0  0  0  0  0  0  0  0
  148.3037  138.0402  152.2576 H   0  0  0  0  0  0  0  0  0  0  0  0
  149.6420  138.8638  153.4384 H   0  0  0  0  0  0  0  0  0  0  0  0
  150.9614  138.7975  155.4896 H   0  0  0  0  0  0  0  0  0  0  0  0
  152.1061  140.1516  157.1990 H   0  0  0  0  0  0  0  0  0  0  0  0
  152.0895  144.5347  156.5925 H   0  0  0  0  0  0  0  0  0  0  0  0
  152.0830  144.7826  158.3363 H   0  0  0  0  0  0  0  0  0  0  0  0
  150.5550  144.6342  157.4728 H   0  0  0  0  0  0  0  0  0  0  0  0
  153.0692  141.5905  158.5808 H   0  0  0  0  0  0  0  0  0  0  0  0
  151.5383  141.6604  159.4684 H   0  0  0  0  0  0  0  0  0  0  0  0
  152.6606  143.0169  159.5312 H   0  0  0  0  0  0  0  0  0  0  0  0
  148.6176  142.3322  154.4745 H   0  0  0  0  0  0  0  0  0  0  0  0
  146.1163  135.4969  154.0204 H   0  0  0  0  0  0  0  0  0  0  0  0
  144.4631  135.1934  153.5324 H   0  0  0  0  0  0  0  0  0  0  0  0
  145.7605  133.0828  153.6067 H   0  0  0  0  0  0  0  0  0  0  0  0
  146.9678  133.7425  152.5301 H   0  0  0  0  0  0  0  0  0  0  0  0
  146.6070  136.1038  151.7525 H   0  0  0  0  0  0  0  0  0  0  0  0
  149.7636  143.4666  156.0848 H   0  0  0  0  0  0  0  0  0  0  0  0
  1  2  1  0  0  0  0
  1 23  1  0  0  0  0
  1 24  1  0  0  0  0
  1 25  1  0  0  0  0
  2 22  1  0  0  0  0
  2  3  1  0  0  0  0
  2 26  1  0  0  0  0
  3  4  1  0  0  0  0
  3 27  1  0  0  0  0
  3 28  1  0  0  0  0
  4  5  1  0  0  0  0
  4 29  1  0  0  0  0
  4 30  1  0  0  0  0
  5  6  1  0  0  0  0
  5 21  1  0  0  0  0
  5 50  1  0  0  0  0
  6  7  1  0  0  0  0
  6 31  1  0  0  0  0
  6 32  1  0  0  0  0
  7  8  1  0  0  0  0
  7 33  1  0  0  0  0
  7 34  1  0  0  0  0
  8  9  1  0  0  0  0
  8 35  1  0  0  0  0
  9 10  2  0  0  0  0
  9 11  1  0  0  0  0
 11 12  1  0  0  0  0
 11 36  1  0  0  0  0
 12 20  1  0  0  0  0
 12 13  2  0  0  0  0
 13 14  1  0  0  0  0
 13 37  1  0  0  0  0
 14 15  2  0  0  0  0
 14 38  1  0  0  0  0
 15 16  1  0  0  0  0
 15 19  1  0  0  0  0
 16 17  1  0  0  0  0
 16 18  1  0  0  0  0
 17 39  1  0  0  0  0
 17 40  1  0  0  0  0
 17 41  1  0  0  0  0
 18 42  1  0  0  0  0
 18 43  1  0  0  0  0
 18 44  1  0  0  0  0
 19 20  2  0  0  0  0
 19 51  1  0  0  0  0
 20 45  1  0  0  0  0
 21 22  1  0  0  0  0
 21 46  1  0  0  0  0
 21 47  1  0  0  0  0
 22 48  1  0  0  0  0
 22 49  1  0  0  0  0
M  CHG  1   5   1
M  CHG  1  19   1
M  END
> <s_m_source_file>
AV-unprocessed.smi

> <i_m_source_file_index>
308

> <i_lp_mmshare_version>
43012

> <i_f3d_flags>
0

> <s_epik_input>
W0NIM11bQ0hdMVtDSDJdW0NIMl1OKFtDSDJdW0NIMl0xKVtDSDJdW0NIMl1bTkhdQyg9TylbTkhdYzJbY0hdW2NIXWMoTihbQ0gzXSlbQ0gzXSluW2NIXTI=

> <s_epik_cmdline>
J2VwaWtfcHl0aG9uJywgJy1waCcsICc3LjAnLCAnLXRuJywgJzgnLCAnLW1hJywgJzIwMCcsICctbWV0YWxfYmluZGluZycsICctaW1hZScsICc8aW5maWxlLm1hZT4nLCAnLW9tYWUnLCAnPG91dGZpbGUubWFlPic=

> <r_lp_tautomer_probability>
0.999994

> <r_epik_Ionization_Penalty>
0.309846

> <r_epik_Ionization_Penalty_Charging>
0.309826

> <r_epik_Ionization_Penalty_Neutral>
1.97883e-05

> <r_epik_State_Penalty>
0.302329

> <r_epik_Charging_Adjusted_Penalty>
0.612155

> <i_epik_Tot_Q>
2

> <i_epik_Tot_abs_Q>
2

> <r_epik_Metal_State_Penalty>
0.577265

> <b_epik_Metal_Only>
0

> <s_lp_Force_Field>
OPLS_2005

> <r_lp_Energy>
27.4115

> <b_lp_Chiralities_Consistent>
1

> <s_lp_Variant>
AV-unprocessed.smi:308-1

> <Gold.Version>
5.8.1

> <Gold.Id.Protein>
6NUR|6NUR_protein|mol2

> <Gold.PLP.Fitness>
55.5191

> <Gold.PLP.PLP>
-43.0923

> <Gold.PLP.part.hbond>
-5.0000

> <Gold.PLP.part.metal>
0.0000

> <Gold.PLP.part.buried>
-0.2593

> <Gold.PLP.part.nonpolar>
-38.9945

> <Gold.PLP.part.repulsive>
0.4841

> <Gold.PLP.ligand.clash>
0.0000

> <Gold.PLP.ligand.torsion>
1.1833

> <Gold.PLP.Chemscore.Hbond>
4.9120

> <Gold.PLP.Chemscore.CHOScore>
0.0000

> <Gold.PLP.Chemscore.Metal>
0.0000

> <Gold.Chemscore.Hbonds>
donor molecule, donor type, donor heavy atom, donor atom, acceptor molecule, acceptor atom, score
      L1  H     5    50       P1  7948  0.55
      L1  H     8    35       P1  7948  1.00
      L1  H    19    51       P1  8028  2.00

> <Gold.PLP.Chemscore.Internal.Correction>
0.0575

> <Gold.Rescore>
     Score         DG    S(hbond)    S(metal)    S(lipo)     H(rot)  DE(clash)    DE(int)     intcor
     18.39     -22.77       2.73        0.00     101.61       1.45       2.45       1.92       ----

> <Gold.Chemscore.Fitness>
18.3869

> <Gold.Chemscore.DG>
-22.7661

> <Gold.Chemscore.ZeroCoef>
-5.4800

> <Gold.Chemscore.Hbond>
2.7260

> <Gold.Chemscore.Metal>
0.0000

> <Gold.Chemscore.Lipo>
101.6068

> <Gold.Chemscore.Internal_Hbond>
0.0000

> <Gold.Chemscore.DEClash>
2.4545

> <Gold.Chemscore.DEInternal>
1.9248

> <Gold.Chemscore.Rot>
1.4479

> <Gold.Chemscore.Internal.Correction>
   9.000000E+99

> <Gold.Chemscore.Hbonds>
donor molecule, donor type, donor heavy atom, donor atom, acceptor molecule, acceptor atom, score
      L1  H     5    50       P1  7948  0.27
      L1  H     8    35       P1  7948  0.96
      L1  H    19    51       P1  8028  0.92

> <Gold.Chemscore.Hbond.Weighted>
-9.1047

> <Gold.Chemscore.Metal.Weighted>
-0.0000

> <Gold.Chemscore.Lipo.Weighted>
-11.8880

> <Gold.Chemscore.Internal_Hbond.Weighted>
0.0000

> <Gold.Chemscore.DEClash.Weighted>
2.4545

> <Gold.Chemscore.DEInternal.Weighted>
1.9248

> <Gold.Chemscore.Rot.Weighted>
3.7065

> <Gold.Chemscore.Internal.Correction.Weighted>
   9.000000E+99

> <Gold.Protein.RotatedTorsions>
[ 6907 6896 6895 6894 ] final  142.69 input  -60.11 | X-H torsion
[ 7974 7965 7964 7962 ] final   -6.30 input  175.53 | X-H torsion
[ 8008 7997 7996 7995 ] final -157.41 input   59.86 | X-H torsion
[ 10167 10162 10161 10158 ] final  116.11 input  -65.29 | X-H torsion
[ 10718 10713 10712 10709 ] final -104.93 input   66.30 | X-H torsion
[ 10763 10752 10751 10750 ] final -152.30 input  -60.55 | X-H torsion
[ 11005 11000 10999 10996 ] final  169.05 input  -57.11 | X-H torsion

> <Gold.Protein.ActiveResidues>
 VAL166  LYS551  ARG553  GLY616  TRP617  ASP618  TYR619  PRO620  LYS621  CYS622 
 ASP623  PHE694  ASN695  SER759  ASP760  ASP761  ALA762  ILE779  LEU786  VAL792 
 PHE793  MET794  SER795  GLU796  ALA797  LYS798  CYS799  TRP800  GLU811  SER814 

> <Gold.Protein.RotatedAtoms>
  152.2155  133.4944  159.5133 H   0  0  0  0  0  0  0  0  0  0  0  0  # atno 6907 bound_to 6896
  150.7000  134.1410  159.4114 H   0  0  0  0  0  0  0  0  0  0  0  0  # atno 6908 bound_to 6896
  151.9331  135.0247  160.0581 H   0  0  0  0  0  0  0  0  0  0  0  0  # atno 6909 bound_to 6896
  146.2334  140.2150  142.8336 H   0  0  0  0  0  0  0  0  0  0  0  0  # atno 7974 bound_to 7965
  155.7320  140.0803  157.2284 H   0  0  0  0  0  0  0  0  0  0  0  0  # atno 8008 bound_to 7997
  154.4032  140.1593  156.2574 H   0  0  0  0  0  0  0  0  0  0  0  0  # atno 8009 bound_to 7997
  155.9100  140.3404  155.6094 H   0  0  0  0  0  0  0  0  0  0  0  0  # atno 8010 bound_to 7997
  139.6270  144.7110  151.2512 H   0  0  0  0  0  0  0  0  0  0  0  0  # atno 10167 bound_to 10162
  156.0324  130.5539  150.7466 H   0  0  0  0  0  0  0  0  0  0  0  0  # atno 10718 bound_to 10713
  154.8003  135.3239  154.7566 H   0  0  0  0  0  0  0  0  0  0  0  0  # atno 10763 bound_to 10752
  153.8236  135.6885  153.4828 H   0  0  0  0  0  0  0  0  0  0  0  0  # atno 10764 bound_to 10752
  153.1716  135.4621  154.9853 H   0  0  0  0  0  0  0  0  0  0  0  0  # atno 10765 bound_to 10752
  140.2937  134.7652  157.3859 H   0  0  0  0  0  0  0  0  0  0  0  0  # atno 11005 bound_to 11000
  144.9677  140.8337  143.5475 LP  0  0  0  0  0  0  0  0  0  0  0  0  # atno 17320 bound_to 7965
  145.2128  139.2196  143.5134 LP  0  0  0  0  0  0  0  0  0  0  0  0  # atno 17321 bound_to 7965
  140.7417  143.6550  150.8215 LP  0  0  0  0  0  0  0  0  0  0  0  0  # atno 17342 bound_to 10162
  140.0169  143.5583  152.2816 LP  0  0  0  0  0  0  0  0  0  0  0  0  # atno 17343 bound_to 10162
  157.5021  131.0919  151.0301 LP  0  0  0  0  0  0  0  0  0  0  0  0  # atno 17370 bound_to 10713
  157.0679  130.5852  149.5397 LP  0  0  0  0  0  0  0  0  0  0  0  0  # atno 17371 bound_to 10713
  140.1172  134.5267  155.8214 LP  0  0  0  0  0  0  0  0  0  0  0  0  # atno 17394 bound_to 11000
  141.2141  133.6744  156.6799 LP  0  0  0  0  0  0  0  0  0  0  0  0  # atno 17395 bound_to 11000

$$$$
