AV-unprocessed.smi:111|AV-procd|sdf|1082|dock7
  -GOLD-   2262018173D 1   1.00000     0.00000
 Structure written by MMmdl.
 46 48  0  0  0  0  0  0  0  0  1 V2000
  149.3437  139.7335  156.2779 O   0  0  0  0  0  0  0  0  0  0  0  0
  148.8776  138.9445  157.1017 C   0  0  0  0  0  0  0  0  0  0  0  0
  147.4737  138.9303  157.4935 C   0  0  0  0  0  0  0  0  0  0  0  0
  146.6103  139.7731  156.9017 F   0  0  0  0  0  0  0  0  0  0  0  0
  147.0199  138.0716  158.4315 C   0  0  0  0  0  0  0  0  0  0  0  0
  147.8372  137.1739  159.1003 N   0  0  0  0  0  0  0  0  0  0  0  0
  147.2757  136.1675  160.0844 C   0  0  1  0  0  0  0  0  0  0  0  0
  148.0124  136.1263  161.4350 C   0  0  0  0  0  0  0  0  0  0  0  0
  147.0416  136.8398  162.3558 C   0  0  0  0  0  0  0  0  0  0  0  0
  145.7009  136.4770  161.7292 C   0  0  0  0  0  0  0  0  0  0  0  0
  145.9462  136.5182  160.3293 O   0  0  0  0  0  0  0  0  0  0  0  0
  149.1960  137.0648  158.7243 C   0  0  0  0  0  0  0  0  0  0  0  0
  149.9304  136.2225  159.2463 O   0  0  0  0  0  0  0  0  0  0  0  0
  149.6772  137.9694  157.7451 N   0  0  0  0  0  0  0  0  0  0  0  0
  151.0863  137.9170  157.3759 C   0  0  0  0  0  0  0  0  0  0  0  0
  152.0628  138.6544  158.3312 C   0  0  1  0  0  0  0  0  0  0  0  0
  153.3247  138.7555  157.7020 O   0  0  0  0  0  0  0  0  0  0  0  0
  151.6073  140.0378  158.8427 C   0  0  0  0  0  0  0  0  0  0  0  0
  152.0847  141.2045  157.9629 C   0  0  0  0  0  0  0  0  0  0  0  0
  151.9562  142.5395  158.6714 C   0  0  0  0  0  0  0  0  0  0  0  0
  151.4422  143.6589  157.9835 C   0  0  0  0  0  0  0  0  0  0  0  0
  151.3167  144.8978  158.6419 C   0  0  0  0  0  0  0  0  0  0  0  0
  151.7036  145.0215  159.9904 C   0  0  0  0  0  0  0  0  0  0  0  0
  152.2159  143.9056  160.6807 C   0  0  0  0  0  0  0  0  0  0  0  0
  152.3415  142.6663  160.0228 C   0  0  0  0  0  0  0  0  0  0  0  0
  145.9646  138.1002  158.6507 H   0  0  0  0  0  0  0  0  0  0  0  0
  147.3370  135.1946  159.5942 H   0  0  0  0  0  0  0  0  0  0  0  0
  148.1059  135.0825  161.7370 H   0  0  0  0  0  0  0  0  0  0  0  0
  149.0142  136.5539  161.3981 H   0  0  0  0  0  0  0  0  0  0  0  0
  147.1257  136.5203  163.3950 H   0  0  0  0  0  0  0  0  0  0  0  0
  147.1928  137.9187  162.3180 H   0  0  0  0  0  0  0  0  0  0  0  0
  145.4068  135.4649  162.0112 H   0  0  0  0  0  0  0  0  0  0  0  0
  144.9009  137.1594  162.0169 H   0  0  0  0  0  0  0  0  0  0  0  0
  151.3663  136.8657  157.3033 H   0  0  0  0  0  0  0  0  0  0  0  0
  151.1671  138.2703  156.3454 H   0  0  0  0  0  0  0  0  0  0  0  0
  152.2177  138.0071  159.1952 H   0  0  0  0  0  0  0  0  0  0  0  0
  153.3461  138.1527  156.9738 H   0  0  0  0  0  0  0  0  0  0  0  0
  150.5202  140.0689  158.9282 H   0  0  0  0  0  0  0  0  0  0  0  0
  152.0023  140.1901  159.8473 H   0  0  0  0  0  0  0  0  0  0  0  0
  153.1250  141.0525  157.6719 H   0  0  0  0  0  0  0  0  0  0  0  0
  151.5092  141.2421  157.0371 H   0  0  0  0  0  0  0  0  0  0  0  0
  151.1406  143.5689  156.9499 H   0  0  0  0  0  0  0  0  0  0  0  0
  150.9227  145.7529  158.1127 H   0  0  0  0  0  0  0  0  0  0  0  0
  151.6070  145.9715  160.4953 H   0  0  0  0  0  0  0  0  0  0  0  0
  152.5116  144.0000  161.7152 H   0  0  0  0  0  0  0  0  0  0  0  0
  152.7324  141.8141  160.5592 H   0  0  0  0  0  0  0  0  0  0  0  0
  1  2  2  0  0  0  0
  2 14  1  0  0  0  0
  2  3  1  0  0  0  0
  3  4  1  0  0  0  0
  3  5  2  0  0  0  0
  5  6  1  0  0  0  0
  5 26  1  0  0  0  0
  6  7  1  0  0  0  0
  6 12  1  0  0  0  0
  7 11  1  0  0  0  0
  7  8  1  0  0  0  0
  7 27  1  0  0  0  0
  8  9  1  0  0  0  0
  8 28  1  0  0  0  0
  8 29  1  0  0  0  0
  9 10  1  0  0  0  0
  9 30  1  0  0  0  0
  9 31  1  0  0  0  0
 10 11  1  0  0  0  0
 10 32  1  0  0  0  0
 10 33  1  0  0  0  0
 12 13  2  0  0  0  0
 12 14  1  0  0  0  0
 14 15  1  0  0  0  0
 15 16  1  0  0  0  0
 15 34  1  0  0  0  0
 15 35  1  0  0  0  0
 16 17  1  0  0  0  0
 16 18  1  0  0  0  0
 16 36  1  0  0  0  0
 17 37  1  0  0  0  0
 18 19  1  0  0  0  0
 18 38  1  0  0  0  0
 18 39  1  0  0  0  0
 19 20  1  0  0  0  0
 19 40  1  0  0  0  0
 19 41  1  0  0  0  0
 20 25  1  0  0  0  0
 20 21  2  0  0  0  0
 21 22  1  0  0  0  0
 21 42  1  0  0  0  0
 22 23  2  0  0  0  0
 22 43  1  0  0  0  0
 23 24  1  0  0  0  0
 23 44  1  0  0  0  0
 24 25  2  0  0  0  0
 24 45  1  0  0  0  0
 25 46  1  0  0  0  0
M  END
> <s_m_source_file>
AV-unprocessed.smi

> <i_m_source_file_index>
111

> <i_lp_mmshare_version>
43012

> <i_f3d_flags>
0

> <s_epik_input>
TzFbQ0gyXVtDSDJdW0NIMl1bQ0BIXTFuKFtjSF1jKEYpYzI9TyljKD1PKW4yW0NIMl1bQ0BIXShbT0hdKVtDSDJdW0NIMl1jM1tjSF1bY0hdW2NIXVtjSF1bY0hdMw==

> <s_epik_cmdline>
J2VwaWtfcHl0aG9uJywgJy1waCcsICc3LjAnLCAnLXRuJywgJzgnLCAnLW1hJywgJzIwMCcsICctbWV0YWxfYmluZGluZycsICctaW1hZScsICc8aW5maWxlLm1hZT4nLCAnLW9tYWUnLCAnPG91dGZpbGUubWFlPic=

> <r_lp_tautomer_probability>
1

> <r_epik_Ionization_Penalty>
1.88248e-07

> <r_epik_Ionization_Penalty_Charging>
4.03974e-08

> <r_epik_Ionization_Penalty_Neutral>
1.47851e-07

> <r_epik_State_Penalty>
-0

> <r_epik_Charging_Adjusted_Penalty>
4.03974e-08

> <i_epik_Tot_Q>
0

> <i_epik_Tot_abs_Q>
0

> <r_epik_Metal_State_Penalty>
-0

> <b_epik_Metal_Only>
0

> <s_epik_Chemistry_Notes>
This compound contains an acetal/aminal-like group ( X-CH(R)-Y where X, Y are N, S, or O) that may be acid/base labile, releasing an aldehyde.

> <s_lp_Force_Field>
OPLS_2005

> <r_lp_Energy>
37.7752

> <b_lp_Chiralities_Consistent>
1

> <s_lp_Variant>
AV-unprocessed.smi:111-4

> <Gold.Version>
5.8.1

> <Gold.Id.Protein>
6NUR|6NUR_protein|mol2

> <Gold.PLP.Fitness>
46.5097

> <Gold.PLP.PLP>
-42.7271

> <Gold.PLP.part.hbond>
-2.0000

> <Gold.PLP.part.metal>
0.0000

> <Gold.PLP.part.buried>
-5.8481

> <Gold.PLP.part.nonpolar>
-34.6265

> <Gold.PLP.part.repulsive>
0.0000

> <Gold.PLP.ligand.clash>
0.0000

> <Gold.PLP.ligand.torsion>
1.1808

> <Gold.PLP.Chemscore.Hbond>
2.0000

> <Gold.PLP.Chemscore.CHOScore>
0.0000

> <Gold.PLP.Chemscore.Metal>
0.0000

> <Gold.Chemscore.Hbonds>
donor molecule, donor type, donor heavy atom, donor atom, acceptor molecule, acceptor atom, score
      P1  H  6896  6909       L1    13  1.00
      P1  H  7997  8010       L1    17  0.95

> <Gold.PLP.Chemscore.Internal.Correction>
0.1441

> <Gold.Rescore>
     Score         DG    S(hbond)    S(metal)    S(lipo)     H(rot)  DE(clash)    DE(int)     intcor
     15.89     -17.98       1.75        0.00     115.51       2.67       0.03       2.07       ----

> <Gold.Chemscore.Fitness>
15.8869

> <Gold.Chemscore.DG>
-17.9820

> <Gold.Chemscore.ZeroCoef>
-5.4800

> <Gold.Chemscore.Hbond>
1.7465

> <Gold.Chemscore.Metal>
0.0000

> <Gold.Chemscore.Lipo>
115.5117

> <Gold.Chemscore.Internal_Hbond>
0.0000

> <Gold.Chemscore.DEClash>
0.0289

> <Gold.Chemscore.DEInternal>
2.0663

> <Gold.Chemscore.Rot>
2.6743

> <Gold.Chemscore.Internal.Correction>
   9.000000E+99

> <Gold.Chemscore.Hbonds>
donor molecule, donor type, donor heavy atom, donor atom, acceptor molecule, acceptor atom, score
      P1  H  6896  6909       L1    13  1.00
      P1  H  7997  8010       L1    17  0.21

> <Gold.Chemscore.Hbond.Weighted>
-5.8334

> <Gold.Chemscore.Metal.Weighted>
-0.0000

> <Gold.Chemscore.Lipo.Weighted>
-13.5149

> <Gold.Chemscore.Internal_Hbond.Weighted>
0.0000

> <Gold.Chemscore.DEClash.Weighted>
0.0289

> <Gold.Chemscore.DEInternal.Weighted>
2.0663

> <Gold.Chemscore.Rot.Weighted>
6.8463

> <Gold.Chemscore.Internal.Correction.Weighted>
   9.000000E+99

> <Gold.Protein.RotatedTorsions>
[ 6907 6896 6895 6894 ] final   70.99 input  -60.11 | X-H torsion
[ 7974 7965 7964 7962 ] final  -95.02 input  175.53 | X-H torsion
[ 8008 7997 7996 7995 ] final   27.27 input   59.86 | X-H torsion
[ 10167 10162 10161 10158 ] final  176.24 input  -65.29 | X-H torsion
[ 10718 10713 10712 10709 ] final   45.14 input   66.30 | X-H torsion
[ 10763 10752 10751 10750 ] final   74.43 input  -60.55 | X-H torsion
[ 11005 11000 10999 10996 ] final  133.82 input  -57.11 | X-H torsion

> <Gold.Protein.ActiveResidues>
 VAL166  LYS551  ARG553  GLY616  TRP617  ASP618  TYR619  PRO620  LYS621  CYS622 
 ASP623  PHE694  ASN695  SER759  ASP760  ASP761  ALA762  ILE779  LEU786  VAL792 
 PHE793  MET794  SER795  GLU796  ALA797  LYS798  CYS799  TRP800  GLU811  SER814 

> <Gold.Protein.RotatedAtoms>
  152.4783  134.4786  159.9658 H   0  0  0  0  0  0  0  0  0  0  0  0  # atno 6907 bound_to 6896
  151.4797  133.3543  159.2844 H   0  0  0  0  0  0  0  0  0  0  0  0  # atno 6908 bound_to 6896
  150.8837  134.8258  159.7305 H   0  0  0  0  0  0  0  0  0  0  0  0  # atno 6909 bound_to 6896
  145.3655  140.9498  143.2476 H   0  0  0  0  0  0  0  0  0  0  0  0  # atno 7974 bound_to 7965
  155.0402  140.3168  155.4727 H   0  0  0  0  0  0  0  0  0  0  0  0  # atno 8008 bound_to 7997
  156.2856  140.2164  156.5469 H   0  0  0  0  0  0  0  0  0  0  0  0  # atno 8009 bound_to 7997
  154.7296  140.0482  157.0702 H   0  0  0  0  0  0  0  0  0  0  0  0  # atno 8010 bound_to 7997
  139.5207  144.2938  152.0439 H   0  0  0  0  0  0  0  0  0  0  0  0  # atno 10167 bound_to 10162
  157.4344  130.8044  149.7634 H   0  0  0  0  0  0  0  0  0  0  0  0  # atno 10718 bound_to 10713
  153.0586  135.5026  154.8041 H   0  0  0  0  0  0  0  0  0  0  0  0  # atno 10763 bound_to 10752
  154.6847  135.2974  154.9566 H   0  0  0  0  0  0  0  0  0  0  0  0  # atno 10764 bound_to 10752
  154.0340  135.6725  153.4836 H   0  0  0  0  0  0  0  0  0  0  0  0  # atno 10765 bound_to 10752
  139.9876  134.9526  156.9780 H   0  0  0  0  0  0  0  0  0  0  0  0  # atno 11005 bound_to 11000
  144.8614  139.5171  143.6810 LP  0  0  0  0  0  0  0  0  0  0  0  0  # atno 17320 bound_to 7965
  146.2908  139.7135  142.9162 LP  0  0  0  0  0  0  0  0  0  0  0  0  # atno 17321 bound_to 7965
  140.2389  144.4291  150.6268 LP  0  0  0  0  0  0  0  0  0  0  0  0  # atno 17342 bound_to 10162
  140.6304  143.2187  151.6507 LP  0  0  0  0  0  0  0  0  0  0  0  0  # atno 17343 bound_to 10162
  155.9925  130.3930  150.2939 LP  0  0  0  0  0  0  0  0  0  0  0  0  # atno 17370 bound_to 10713
  157.1099  131.0218  151.3052 LP  0  0  0  0  0  0  0  0  0  0  0  0  # atno 17371 bound_to 10713
  140.4972  134.1134  155.7243 LP  0  0  0  0  0  0  0  0  0  0  0  0  # atno 17394 bound_to 11000
  141.1538  133.8920  157.2030 LP  0  0  0  0  0  0  0  0  0  0  0  0  # atno 17395 bound_to 11000

$$$$
