AV-unprocessed.smi:44|AV-procd|sdf|401|dock3
  -GOLD-   2262016253D 1   1.00000     0.00000
 Structure written by MMmdl.
 29 31  0  0  0  0  0  0  0  0  3 V2000
  150.9576  145.8114  159.2365 O   0  0  0  0  0  0  0  0  0  0  0  0
  151.5065  144.7354  159.4648 C   0  0  0  0  0  0  0  0  0  0  0  0
  152.3279  144.4135  160.5153 N   0  5  0  0  0  0  0  0  0  0  0  0
  152.8823  143.1454  160.6478 C   0  0  0  0  0  0  0  0  0  0  0  0
  152.7281  142.1394  159.8625 N   0  0  0  0  0  0  0  0  0  0  0  0
  151.9016  142.3696  158.7520 C   0  0  0  0  0  0  0  0  0  0  0  0
  151.2998  143.5853  158.5233 C   0  0  0  0  0  0  0  0  0  0  0  0
  150.5492  143.5191  157.3805 N   0  3  0  0  0  0  0  0  0  0  0  0
  150.7288  142.2645  156.9673 C   0  0  0  0  0  0  0  0  0  0  0  0
  151.5474  141.5003  157.7487 N   0  0  0  0  0  0  0  0  0  0  0  0
  151.8952  140.0671  157.5216 C   0  0  1  0  0  0  0  0  0  0  0  0
  150.6687  139.1670  157.7141 C   0  0  0  0  0  0  0  0  0  0  0  0
  150.9151  138.1050  156.6657 C   0  0  0  0  0  0  0  0  0  0  0  0
  151.5164  138.9525  155.5429 C   0  0  2  0  0  0  0  0  0  0  0  0
  152.3099  138.2088  154.4551 C   0  0  0  0  0  0  0  0  0  0  0  0
  151.7174  136.9696  154.1258 O   0  0  0  0  0  0  0  0  0  0  0  0
  152.3244  139.9242  156.1995 O   0  0  0  0  0  0  0  0  0  0  0  0
  149.9878  144.2457  156.9550 H   0  0  0  0  0  0  0  0  0  0  0  0
  152.7121  139.8448  158.2095 H   0  0  0  0  0  0  0  0  0  0  0  0
  150.7088  139.5014  155.0565 H   0  0  0  0  0  0  0  0  0  0  0  0
  153.5077  143.0649  161.5405 H   0  0  0  0  0  0  0  0  0  0  0  0
  150.2614  141.8758  156.0805 H   0  0  0  0  0  0  0  0  0  0  0  0
  150.6165  138.7807  158.7322 H   0  0  0  0  0  0  0  0  0  0  0  0
  149.7520  139.7150  157.4913 H   0  0  0  0  0  0  0  0  0  0  0  0
  151.6275  137.3720  157.0452 H   0  0  0  0  0  0  0  0  0  0  0  0
  150.0075  137.5810  156.3650 H   0  0  0  0  0  0  0  0  0  0  0  0
  152.3458  138.8133  153.5483 H   0  0  0  0  0  0  0  0  0  0  0  0
  153.3404  138.0495  154.7739 H   0  0  0  0  0  0  0  0  0  0  0  0
  151.5500  136.9555  153.1958 H   0  0  0  0  0  0  0  0  0  0  0  0
  1  2  2  0  0  0  0
  2  7  1  0  0  0  0
  2  3  1  0  0  0  0
  3  4  1  0  0  0  0
  4 21  1  0  0  0  0
  4  5  2  0  0  0  0
  5  6  1  0  0  0  0
  6 10  1  0  0  0  0
  6  7  2  0  0  0  0
  7  8  1  0  0  0  0
  8  9  2  0  0  0  0
  8 18  1  0  0  0  0
  9 10  1  0  0  0  0
  9 22  1  0  0  0  0
 10 11  1  0  0  0  0
 11 19  1  0  0  0  0
 11 17  1  0  0  0  0
 11 12  1  0  0  0  0
 12 13  1  0  0  0  0
 12 23  1  0  0  0  0
 12 24  1  0  0  0  0
 13 14  1  0  0  0  0
 13 25  1  0  0  0  0
 13 26  1  0  0  0  0
 14 20  1  0  0  0  0
 14 15  1  0  0  0  0
 14 17  1  0  0  0  0
 15 16  1  0  0  0  0
 15 27  1  0  0  0  0
 15 28  1  0  0  0  0
 16 29  1  0  0  0  0
M  CHG  1   3  -1
M  CHG  1   8   1
M  END
> <s_m_source_file>
AV-unprocessed.smi

> <i_m_source_file_index>
44

> <i_lp_mmshare_version>
43012

> <i_f3d_flags>
0

> <s_epik_input>
bjFbY0hdW25IXWMoPU8pYyhjMTIpbltjSF1uMltDQEhdM1tDSDJdW0NIMl1bQ0BIXShPMylbQ0gyXVtPSF0=

> <s_epik_cmdline>
J2VwaWtfcHl0aG9uJywgJy1waCcsICc3LjAnLCAnLXRuJywgJzgnLCAnLW1hJywgJzIwMCcsICctbWV0YWxfYmluZGluZycsICctaW1hZScsICc8aW5maWxlLm1hZT4nLCAnLW9tYWUnLCAnPG91dGZpbGUubWFlPic=

> <r_lp_tautomer_probability>
0.144281

> <r_epik_Ionization_Penalty>
5.63685

> <r_epik_Ionization_Penalty_Charging>
5.58669

> <r_epik_Ionization_Penalty_Neutral>
0.0501585

> <r_epik_State_Penalty>
1.20809

> <r_epik_Charging_Adjusted_Penalty>
6.79478

> <i_epik_Tot_Q>
0

> <i_epik_Tot_abs_Q>
2

> <r_epik_Metal_State_Penalty>
1.52487

> <b_epik_Metal_Only>
0

> <s_epik_Chemistry_Notes>
This compound contains an acetal/aminal-like group ( X-CH(R)-Y where X, Y are N, S, or O) that may be acid/base labile, releasing an aldehyde.

> <s_lp_Force_Field>
OPLS_2005

> <r_lp_Energy>
46.8975

> <b_lp_Chiralities_Consistent>
1

> <s_lp_Variant>
AV-unprocessed.smi:44-7

> <Gold.Version>
5.8.1

> <Gold.Id.Protein>
6NUR|6NUR_protein|mol2

> <Gold.PLP.Fitness>
46.7689

> <Gold.PLP.PLP>
-32.6740

> <Gold.PLP.part.hbond>
-6.0000

> <Gold.PLP.part.metal>
0.0000

> <Gold.PLP.part.buried>
-5.2531

> <Gold.PLP.part.nonpolar>
-22.6792

> <Gold.PLP.part.repulsive>
0.3037

> <Gold.PLP.ligand.clash>
0.0000

> <Gold.PLP.ligand.torsion>
0.3724

> <Gold.PLP.Chemscore.Hbond>
4.9440

> <Gold.PLP.Chemscore.CHOScore>
0.0000

> <Gold.PLP.Chemscore.Metal>
0.0000

> <Gold.Chemscore.Hbonds>
donor molecule, donor type, donor heavy atom, donor atom, acceptor molecule, acceptor atom, score
      L1  H     8    18       P1  8028  1.98
      L1  H    16    29       P1  7949  1.00
      P1  H  7997  8010       L1    17  1.00
      P1  H 10752 10764       L1    16  1.00

> <Gold.PLP.Chemscore.Internal.Correction>
0.0077

> <Gold.Rescore>
     Score         DG    S(hbond)    S(metal)    S(lipo)     H(rot)  DE(clash)    DE(int)     intcor
     13.33     -14.02       3.10        0.00      34.14       2.27       0.38       0.31       ----

> <Gold.Chemscore.Fitness>
13.3255

> <Gold.Chemscore.DG>
-14.0210

> <Gold.Chemscore.ZeroCoef>
-5.4800

> <Gold.Chemscore.Hbond>
3.1026

> <Gold.Chemscore.Metal>
0.0000

> <Gold.Chemscore.Lipo>
34.1434

> <Gold.Chemscore.Internal_Hbond>
0.0000

> <Gold.Chemscore.DEClash>
0.3841

> <Gold.Chemscore.DEInternal>
0.3114

> <Gold.Chemscore.Rot>
2.2720

> <Gold.Chemscore.Internal.Correction>
   9.000000E+99

> <Gold.Chemscore.Hbonds>
donor molecule, donor type, donor heavy atom, donor atom, acceptor molecule, acceptor atom, score
      L1  H     8    18       P1  8028  0.81
      L1  H    16    29       P1  7949  0.86
      P1  H  7997  8010       L1    17  0.37
      P1  H 10752 10764       L1    16  0.24

> <Gold.Chemscore.Hbond.Weighted>
-10.3626

> <Gold.Chemscore.Metal.Weighted>
-0.0000

> <Gold.Chemscore.Lipo.Weighted>
-3.9948

> <Gold.Chemscore.Internal_Hbond.Weighted>
0.0000

> <Gold.Chemscore.DEClash.Weighted>
0.3841

> <Gold.Chemscore.DEInternal.Weighted>
0.3114

> <Gold.Chemscore.Rot.Weighted>
5.8164

> <Gold.Chemscore.Internal.Correction.Weighted>
   9.000000E+99

> <Gold.Protein.RotatedTorsions>
[ 6907 6896 6895 6894 ] final  131.75 input  -60.11 | X-H torsion
[ 7974 7965 7964 7962 ] final  -63.01 input  175.53 | X-H torsion
[ 8008 7997 7996 7995 ] final   77.54 input   59.86 | X-H torsion
[ 10167 10162 10161 10158 ] final -136.27 input  -65.29 | X-H torsion
[ 10718 10713 10712 10709 ] final  -37.84 input   66.30 | X-H torsion
[ 10763 10752 10751 10750 ] final  -75.10 input  -60.55 | X-H torsion
[ 11005 11000 10999 10996 ] final -178.95 input  -57.11 | X-H torsion

> <Gold.Protein.ActiveResidues>
 VAL166  LYS551  ARG553  GLY616  TRP617  ASP618  TYR619  PRO620  LYS621  CYS622 
 ASP623  PHE694  ASN695  SER759  ASP760  ASP761  ALA762  ILE779  LEU786  VAL792 
 PHE793  MET794  SER795  GLU796  ALA797  LYS798  CYS799  TRP800  GLU811  SER814 

> <Gold.Protein.RotatedAtoms>
  152.3394  133.6049  159.5865 H   0  0  0  0  0  0  0  0  0  0  0  0  # atno 6907 bound_to 6896
  150.7469  133.9746  159.3565 H   0  0  0  0  0  0  0  0  0  0  0  0  # atno 6908 bound_to 6896
  151.7611  135.0810  160.0397 H   0  0  0  0  0  0  0  0  0  0  0  0  # atno 6909 bound_to 6896
  145.7844  140.8744  143.0314 H   0  0  0  0  0  0  0  0  0  0  0  0  # atno 7974 bound_to 7965
  155.8430  140.3461  155.5644 H   0  0  0  0  0  0  0  0  0  0  0  0  # atno 8008 bound_to 7997
  155.8120  140.0900  157.1918 H   0  0  0  0  0  0  0  0  0  0  0  0  # atno 8009 bound_to 7997
  154.4005  140.1446  156.3385 H   0  0  0  0  0  0  0  0  0  0  0  0  # atno 8010 bound_to 7997
  139.8695  143.6975  152.2641 H   0  0  0  0  0  0  0  0  0  0  0  0  # atno 10167 bound_to 10162
  156.3106  130.4252  149.8054 H   0  0  0  0  0  0  0  0  0  0  0  0  # atno 10718 bound_to 10713
  154.4820  135.5842  153.6396 H   0  0  0  0  0  0  0  0  0  0  0  0  # atno 10763 bound_to 10752
  152.9849  135.6092  154.3234 H   0  0  0  0  0  0  0  0  0  0  0  0  # atno 10764 bound_to 10752
  154.3126  135.2845  155.2538 H   0  0  0  0  0  0  0  0  0  0  0  0  # atno 10765 bound_to 10752
  140.4241  134.6579  157.4679 H   0  0  0  0  0  0  0  0  0  0  0  0  # atno 11005 bound_to 11000
  144.6791  140.0034  143.7484 LP  0  0  0  0  0  0  0  0  0  0  0  0  # atno 17320 bound_to 7965
  146.0042  139.3116  143.0909 LP  0  0  0  0  0  0  0  0  0  0  0  0  # atno 17321 bound_to 7965
  139.7297  144.7585  151.0821 LP  0  0  0  0  0  0  0  0  0  0  0  0  # atno 17342 bound_to 10162
  140.7763  143.5103  150.9661 LP  0  0  0  0  0  0  0  0  0  0  0  0  # atno 17343 bound_to 10162
  156.5399  130.8295  151.3265 LP  0  0  0  0  0  0  0  0  0  0  0  0  # atno 17370 bound_to 10713
  157.7390  130.9823  150.2286 LP  0  0  0  0  0  0  0  0  0  0  0  0  # atno 17371 bound_to 10713
  140.0179  134.6591  155.9282 LP  0  0  0  0  0  0  0  0  0  0  0  0  # atno 17394 bound_to 11000
  141.1772  133.6541  156.4876 LP  0  0  0  0  0  0  0  0  0  0  0  0  # atno 17395 bound_to 11000

$$$$
