AV-unprocessed.smi:1429|AV-procd|sdf|5821|dock7
  -GOLD-   22720 5473D 1   1.00000     0.00000
 Structure written by MMmdl.
 29 30  0  0  0  0  0  0  0  0  2 V2000
  147.9093  141.2214  153.6643 C   0  0  0  0  0  0  0  0  0  0  0  0
  148.8298  140.7190  154.7231 C   0  0  0  0  0  0  0  0  0  0  0  0
  150.0862  140.3465  154.4682 N   0  0  0  0  0  0  0  0  0  0  0  0
  150.7458  139.9168  155.6105 N   0  0  0  0  0  0  0  0  0  0  0  0
  149.9785  139.9604  156.7090 C   0  0  0  0  0  0  0  0  0  0  0  0
  150.4323  139.5894  157.9177 N   0  5  0  0  0  0  0  0  0  0  0  0
  151.6307  140.0370  158.3570 C   0  0  0  0  0  0  0  0  0  0  0  0
  152.7385  139.6961  157.9355 O   0  0  0  0  0  0  0  0  0  0  0  0
  151.5413  140.9352  159.3465 N   0  0  0  0  0  0  0  0  0  0  0  0
  152.6716  141.5837  159.9997 C   0  0  0  0  0  0  0  0  0  0  0  0
  152.6169  143.1078  159.8061 C   0  0  1  0  0  0  0  0  0  0  0  0
  152.0561  143.5388  158.4667 C   0  0  0  0  0  0  0  0  0  0  0  0
  151.6881  144.9939  158.7372 C   0  0  0  0  0  0  0  0  0  0  0  0
  151.2993  145.0451  160.1065 O   0  0  0  0  0  0  0  0  0  0  0  0
  151.6805  143.8419  160.7690 C   0  0  0  0  0  0  0  0  0  0  0  0
  148.3516  140.5701  156.4058 S   0  0  0  0  0  0  0  0  0  0  0  0
  147.6805  140.4226  152.9589 H   0  0  0  0  0  0  0  0  0  0  0  0
  148.3744  142.0466  153.1244 H   0  0  0  0  0  0  0  0  0  0  0  0
  146.9779  141.5743  154.1070 H   0  0  0  0  0  0  0  0  0  0  0  0
  150.6176  141.1891  159.6648 H   0  0  0  0  0  0  0  0  0  0  0  0
  152.6517  141.3420  161.0632 H   0  0  0  0  0  0  0  0  0  0  0  0
  153.6055  141.1872  159.5977 H   0  0  0  0  0  0  0  0  0  0  0  0
  153.6212  143.5233  159.9085 H   0  0  0  0  0  0  0  0  0  0  0  0
  152.7663  143.4258  157.6470 H   0  0  0  0  0  0  0  0  0  0  0  0
  151.1599  142.9656  158.2250 H   0  0  0  0  0  0  0  0  0  0  0  0
  152.5578  145.6375  158.5993 H   0  0  0  0  0  0  0  0  0  0  0  0
  150.8935  145.3526  158.0825 H   0  0  0  0  0  0  0  0  0  0  0  0
  150.7801  143.2550  160.9564 H   0  0  0  0  0  0  0  0  0  0  0  0
  152.1518  144.0505  161.7298 H   0  0  0  0  0  0  0  0  0  0  0  0
  1  2  1  0  0  0  0
  1 17  1  0  0  0  0
  1 18  1  0  0  0  0
  1 19  1  0  0  0  0
  2 16  1  0  0  0  0
  2  3  2  0  0  0  0
  3  4  1  0  0  0  0
  4  5  2  0  0  0  0
  5  6  1  0  0  0  0
  5 16  1  0  0  0  0
  6  7  1  0  0  0  0
  7  8  2  0  0  0  0
  7  9  1  0  0  0  0
  9 10  1  0  0  0  0
  9 20  1  0  0  0  0
 10 11  1  0  0  0  0
 10 21  1  0  0  0  0
 10 22  1  0  0  0  0
 11 15  1  0  0  0  0
 11 12  1  0  0  0  0
 11 23  1  0  0  0  0
 12 13  1  0  0  0  0
 12 24  1  0  0  0  0
 12 25  1  0  0  0  0
 13 14  1  0  0  0  0
 13 26  1  0  0  0  0
 13 27  1  0  0  0  0
 14 15  1  0  0  0  0
 15 28  1  0  0  0  0
 15 29  1  0  0  0  0
M  CHG  1   6  -1
M  END
> <s_m_source_file>
AV-unprocessed.smi

> <i_m_source_file_index>
1429

> <i_lp_mmshare_version>
43012

> <i_f3d_flags>
0

> <s_epik_input>
W0NIM11jMW5uYyhzMSlbTkhdQyg9TylbTkhdW0NIMl1bQ0BASF0yW0NIMl1bQ0gyXU9bQ0gyXTI=

> <s_epik_cmdline>
J2VwaWtfcHl0aG9uJywgJy1waCcsICc3LjAnLCAnLXRuJywgJzgnLCAnLW1hJywgJzIwMCcsICctbWV0YWxfYmluZGluZycsICctaW1hZScsICc8aW5maWxlLm1hZT4nLCAnLW9tYWUnLCAnPG91dGZpbGUubWFlPic=

> <r_lp_tautomer_probability>
1

> <r_epik_Ionization_Penalty>
4.4122

> <r_epik_Ionization_Penalty_Charging>
4.26477

> <r_epik_Ionization_Penalty_Neutral>
0.147429

> <r_epik_State_Penalty>
4.26433

> <r_epik_Charging_Adjusted_Penalty>
8.5291

> <i_epik_Tot_Q>
-1

> <i_epik_Tot_abs_Q>
1

> <r_epik_Metal_State_Penalty>
0.713483

> <b_epik_Metal_Only>
1

> <s_lp_Force_Field>
OPLS_2005

> <r_lp_Energy>
16.2384

> <b_lp_Chiralities_Consistent>
1

> <s_lp_Variant>
AV-unprocessed.smi:1429-4

> <Gold.Version>
5.8.1

> <Gold.Id.Protein>
6NUR|6NUR_protein|mol2

> <Gold.PLP.Fitness>
38.0641

> <Gold.PLP.PLP>
-34.6920

> <Gold.PLP.part.hbond>
-2.0000

> <Gold.PLP.part.metal>
0.0000

> <Gold.PLP.part.buried>
-5.0391

> <Gold.PLP.part.nonpolar>
-27.2647

> <Gold.PLP.part.repulsive>
0.4105

> <Gold.PLP.ligand.clash>
0.0000

> <Gold.PLP.ligand.torsion>
1.3300

> <Gold.PLP.Chemscore.Hbond>
2.0000

> <Gold.PLP.Chemscore.CHOScore>
0.0000

> <Gold.PLP.Chemscore.Metal>
0.0000

> <Gold.Chemscore.Hbonds>
donor molecule, donor type, donor heavy atom, donor atom, acceptor molecule, acceptor atom, score
      P1  H  7989  7998       L1     3  0.86
      P1  H  7997  8010       L1     8  0.61

> <Gold.PLP.Chemscore.Internal.Correction>
0.0322

> <Gold.Rescore>
     Score         DG    S(hbond)    S(metal)    S(lipo)     H(rot)  DE(clash)    DE(int)     intcor
     15.88     -17.53       1.92        0.00      76.68       1.30       0.00       1.65       ----

> <Gold.Chemscore.Fitness>
15.8786

> <Gold.Chemscore.DG>
-17.5319

> <Gold.Chemscore.ZeroCoef>
-5.4800

> <Gold.Chemscore.Hbond>
1.9171

> <Gold.Chemscore.Metal>
0.0000

> <Gold.Chemscore.Lipo>
76.6818

> <Gold.Chemscore.Internal_Hbond>
0.0000

> <Gold.Chemscore.DEClash>
0.0009

> <Gold.Chemscore.DEInternal>
1.6523

> <Gold.Chemscore.Rot>
1.2980

> <Gold.Chemscore.Internal.Correction>
   9.000000E+99

> <Gold.Chemscore.Hbonds>
donor molecule, donor type, donor heavy atom, donor atom, acceptor molecule, acceptor atom, score
      P1  H  7989  7998       L1     3  0.16
      P1  H  7997  8010       L1     8  0.59

> <Gold.Chemscore.Hbond.Weighted>
-6.4030

> <Gold.Chemscore.Metal.Weighted>
-0.0000

> <Gold.Chemscore.Lipo.Weighted>
-8.9718

> <Gold.Chemscore.Internal_Hbond.Weighted>
0.0000

> <Gold.Chemscore.DEClash.Weighted>
0.0009

> <Gold.Chemscore.DEInternal.Weighted>
1.6523

> <Gold.Chemscore.Rot.Weighted>
3.3229

> <Gold.Chemscore.Internal.Correction.Weighted>
   9.000000E+99

> <Gold.Protein.RotatedTorsions>
[ 6907 6896 6895 6894 ] final  111.20 input  -60.11 | X-H torsion
[ 7974 7965 7964 7962 ] final   45.03 input  175.53 | X-H torsion
[ 8008 7997 7996 7995 ] final   22.70 input   59.86 | X-H torsion
[ 10167 10162 10161 10158 ] final -133.24 input  -65.29 | X-H torsion
[ 10718 10713 10712 10709 ] final -113.96 input   66.30 | X-H torsion
[ 10763 10752 10751 10750 ] final   -1.26 input  -60.55 | X-H torsion
[ 11005 11000 10999 10996 ] final -122.43 input  -57.11 | X-H torsion

> <Gold.Protein.ActiveResidues>
 VAL166  LYS551  ARG553  GLY616  TRP617  ASP618  TYR619  PRO620  LYS621  CYS622 
 ASP623  PHE694  ASN695  SER759  ASP760  ASP761  ALA762  ILE779  LEU786  VAL792 
 PHE793  MET794  SER795  GLU796  ALA797  LYS798  CYS799  TRP800  GLU811  SER814 

> <Gold.Protein.RotatedAtoms>
  152.4981  133.8691  159.7289 H   0  0  0  0  0  0  0  0  0  0  0  0  # atno 6907 bound_to 6896
  150.9182  133.6903  159.2845 H   0  0  0  0  0  0  0  0  0  0  0  0  # atno 6908 bound_to 6896
  151.4289  135.1011  159.9689 H   0  0  0  0  0  0  0  0  0  0  0  0  # atno 6909 bound_to 6896
  146.0516  139.5009  142.9715 H   0  0  0  0  0  0  0  0  0  0  0  0  # atno 7974 bound_to 7965
  154.9697  140.3088  155.4993 H   0  0  0  0  0  0  0  0  0  0  0  0  # atno 8008 bound_to 7997
  156.2967  140.2286  156.4728 H   0  0  0  0  0  0  0  0  0  0  0  0  # atno 8009 bound_to 7997
  154.7888  140.0441  157.1173 H   0  0  0  0  0  0  0  0  0  0  0  0  # atno 8010 bound_to 7997
  139.9003  143.6616  152.2596 H   0  0  0  0  0  0  0  0  0  0  0  0  # atno 10167 bound_to 10162
  156.0799  130.6001  150.8711 H   0  0  0  0  0  0  0  0  0  0  0  0  # atno 10718 bound_to 10713
  153.3426  135.6981  153.6855 H   0  0  0  0  0  0  0  0  0  0  0  0  # atno 10763 bound_to 10752
  153.5614  135.3534  155.2801 H   0  0  0  0  0  0  0  0  0  0  0  0  # atno 10764 bound_to 10752
  154.8639  135.4250  154.2642 H   0  0  0  0  0  0  0  0  0  0  0  0  # atno 10765 bound_to 10752
  140.9995  134.0423  157.3555 H   0  0  0  0  0  0  0  0  0  0  0  0  # atno 11005 bound_to 11000
  145.6715  141.0215  143.1655 LP  0  0  0  0  0  0  0  0  0  0  0  0  # atno 17320 bound_to 7965
  144.7125  139.8316  143.7409 LP  0  0  0  0  0  0  0  0  0  0  0  0  # atno 17321 bound_to 7965
  139.7031  144.7632  151.1238 LP  0  0  0  0  0  0  0  0  0  0  0  0  # atno 17342 bound_to 10162
  140.7708  143.5430  150.9290 LP  0  0  0  0  0  0  0  0  0  0  0  0  # atno 17343 bound_to 10162
  157.5911  131.0944  150.9116 LP  0  0  0  0  0  0  0  0  0  0  0  0  # atno 17370 bound_to 10713
  156.9292  130.5343  149.5279 LP  0  0  0  0  0  0  0  0  0  0  0  0  # atno 17371 bound_to 10713
  139.9032  135.0171  156.7364 LP  0  0  0  0  0  0  0  0  0  0  0  0  # atno 17394 bound_to 11000
  140.6911  133.9389  155.7967 LP  0  0  0  0  0  0  0  0  0  0  0  0  # atno 17395 bound_to 11000

$$$$
