AV-unprocessed.smi:2683|AV-procd|sdf|10376|dock5
  -GOLD-   2272014403D 1   1.00000     0.00000
 Structure written by MMmdl.
 37 38  0  0  0  0  0  0  0  0  2 V2000
  149.5517  142.4402  158.6791 C   0  0  0  0  0  0  0  0  0  0  0  0
  150.7283  142.5831  157.7042 C   0  0  2  0  0  0  0  0  0  0  0  0
  151.5559  143.8444  158.0289 C   0  0  0  0  0  0  0  0  0  0  0  0
  152.2038  143.7764  159.3261 N   0  0  0  0  0  0  0  0  0  0  0  0
  151.9620  144.5428  160.4468 C   0  0  0  0  0  0  0  0  0  0  0  0
  152.8090  144.1080  161.4255 C   0  0  0  0  0  0  0  0  0  0  0  0
  153.5421  143.0615  160.7991 C   0  0  0  0  0  0  0  0  0  0  0  0
  153.1764  142.8643  159.5426 N   0  0  0  0  0  0  0  0  0  0  0  0
  150.2123  142.6234  156.3170 N   0  3  0  0  0  0  0  0  0  0  0  0
  150.0320  141.3032  155.6777 C   0  0  0  0  0  0  0  0  0  0  0  0
  148.7877  141.2894  154.7764 C   0  0  0  0  0  0  0  0  0  0  0  0
  147.5024  141.7564  155.4699 C   0  0  0  0  0  0  0  0  0  0  0  0
  146.3504  141.1420  154.6636 C   0  0  0  0  0  0  0  0  0  0  0  0
  146.9672  140.0276  153.8049 C   0  0  0  0  0  0  0  0  0  0  0  0
  148.4196  139.8946  154.2680 C   0  0  0  0  0  0  0  0  0  0  0  0
  149.9017  142.3760  159.7098 H   0  0  0  0  0  0  0  0  0  0  0  0
  148.9767  141.5368  158.4722 H   0  0  0  0  0  0  0  0  0  0  0  0
  148.8724  143.2909  158.6115 H   0  0  0  0  0  0  0  0  0  0  0  0
  151.3610  141.7024  157.8293 H   0  0  0  0  0  0  0  0  0  0  0  0
  152.3129  144.0161  157.2614 H   0  0  0  0  0  0  0  0  0  0  0  0
  150.9108  144.7239  158.0266 H   0  0  0  0  0  0  0  0  0  0  0  0
  151.2150  145.3234  160.4553 H   0  0  0  0  0  0  0  0  0  0  0  0
  152.8944  144.4822  162.4351 H   0  0  0  0  0  0  0  0  0  0  0  0
  154.3225  142.4430  161.2174 H   0  0  0  0  0  0  0  0  0  0  0  0
  149.3115  143.0796  156.3295 H   0  0  0  0  0  0  0  0  0  0  0  0
  150.9131  141.0677  155.0810 H   0  0  0  0  0  0  0  0  0  0  0  0
  149.9551  140.5333  156.4466 H   0  0  0  0  0  0  0  0  0  0  0  0
  148.9669  141.9252  153.9072 H   0  0  0  0  0  0  0  0  0  0  0  0
  147.4692  141.3732  156.4909 H   0  0  0  0  0  0  0  0  0  0  0  0
  147.4328  142.8433  155.5261 H   0  0  0  0  0  0  0  0  0  0  0  0
  145.5782  140.7526  155.3280 H   0  0  0  0  0  0  0  0  0  0  0  0
  145.8816  141.8920  154.0255 H   0  0  0  0  0  0  0  0  0  0  0  0
  146.4238  139.0865  153.8945 H   0  0  0  0  0  0  0  0  0  0  0  0
  146.9413  140.3209  152.7547 H   0  0  0  0  0  0  0  0  0  0  0  0
  149.0804  139.5498  153.4722 H   0  0  0  0  0  0  0  0  0  0  0  0
  148.4770  139.1719  155.0835 H   0  0  0  0  0  0  0  0  0  0  0  0
  150.8440  143.1775  155.7559 H   0  0  0  0  0  0  0  0  0  0  0  0
  1  2  1  0  0  0  0
  1 16  1  0  0  0  0
  1 17  1  0  0  0  0
  1 18  1  0  0  0  0
  2  3  1  0  0  0  0
  2  9  1  0  0  0  0
  2 19  1  0  0  0  0
  3  4  1  0  0  0  0
  3 20  1  0  0  0  0
  3 21  1  0  0  0  0
  4  8  1  0  0  0  0
  4  5  1  0  0  0  0
  5  6  2  0  0  0  0
  5 22  1  0  0  0  0
  6  7  1  0  0  0  0
  6 23  1  0  0  0  0
  7  8  2  0  0  0  0
  7 24  1  0  0  0  0
  9 10  1  0  0  0  0
  9 25  1  0  0  0  0
  9 37  1  0  0  0  0
 10 11  1  0  0  0  0
 10 26  1  0  0  0  0
 10 27  1  0  0  0  0
 11 15  1  0  0  0  0
 11 12  1  0  0  0  0
 11 28  1  0  0  0  0
 12 13  1  0  0  0  0
 12 29  1  0  0  0  0
 12 30  1  0  0  0  0
 13 14  1  0  0  0  0
 13 31  1  0  0  0  0
 13 32  1  0  0  0  0
 14 15  1  0  0  0  0
 14 33  1  0  0  0  0
 14 34  1  0  0  0  0
 15 35  1  0  0  0  0
 15 36  1  0  0  0  0
M  CHG  1   9   1
M  END
> <s_m_source_file>
AV-unprocessed.smi

> <i_m_source_file_index>
2683

> <i_lp_mmshare_version>
43012

> <i_f3d_flags>
0

> <s_epik_input>
bjFbY0hdW2NIXVtjSF1uMVtDSDJdW0NAQEhdKFtDSDNdKVtOSF1bQ0gyXVtDSF0yW0NIMl1bQ0gyXVtDSDJdW0NIMl0y

> <s_epik_cmdline>
J2VwaWtfcHl0aG9uJywgJy1waCcsICc3LjAnLCAnLXRuJywgJzgnLCAnLW1hJywgJzIwMCcsICctbWV0YWxfYmluZGluZycsICctaW1hZScsICc8aW5maWxlLm1hZT4nLCAnLW9tYWUnLCAnPG91dGZpbGUubWFlPic=

> <r_lp_tautomer_probability>
1

> <r_epik_Ionization_Penalty>
0.00170049

> <r_epik_Ionization_Penalty_Charging>
0.00169627

> <r_epik_Ionization_Penalty_Neutral>
4.21324e-06

> <r_epik_State_Penalty>
0.00114589

> <r_epik_Charging_Adjusted_Penalty>
0.00284216

> <i_epik_Tot_Q>
1

> <i_epik_Tot_abs_Q>
1

> <r_epik_Metal_State_Penalty>
-0

> <b_epik_Metal_Only>
0

> <s_lp_Force_Field>
OPLS_2005

> <r_lp_Energy>
26.6693

> <b_lp_Chiralities_Consistent>
1

> <s_lp_Variant>
AV-unprocessed.smi:2683-1

> <Gold.Version>
5.8.1

> <Gold.Id.Protein>
6NUR|6NUR_protein|mol2

> <Gold.PLP.Fitness>
43.6409

> <Gold.PLP.PLP>
-38.9367

> <Gold.PLP.part.hbond>
-1.0000

> <Gold.PLP.part.metal>
0.0000

> <Gold.PLP.part.buried>
-0.7637

> <Gold.PLP.part.nonpolar>
-36.5949

> <Gold.PLP.part.repulsive>
0.1089

> <Gold.PLP.ligand.clash>
0.0000

> <Gold.PLP.ligand.torsion>
0.6826

> <Gold.PLP.Chemscore.Hbond>
2.0000

> <Gold.PLP.Chemscore.CHOScore>
0.0000

> <Gold.PLP.Chemscore.Metal>
0.0000

> <Gold.Chemscore.Hbonds>
donor molecule, donor type, donor heavy atom, donor atom, acceptor molecule, acceptor atom, score
      L1  H     9    25       P1  8028  1.12

> <Gold.PLP.Chemscore.Internal.Correction>
0.0695

> <Gold.Rescore>
     Score         DG    S(hbond)    S(metal)    S(lipo)     H(rot)  DE(clash)    DE(int)     intcor
     15.26     -16.22       1.00        0.00      97.25       1.55       0.15       0.80       ----

> <Gold.Chemscore.Fitness>
15.2641

> <Gold.Chemscore.DG>
-16.2159

> <Gold.Chemscore.ZeroCoef>
-5.4800

> <Gold.Chemscore.Hbond>
0.9988

> <Gold.Chemscore.Metal>
0.0000

> <Gold.Chemscore.Lipo>
97.2548

> <Gold.Chemscore.Internal_Hbond>
0.0000

> <Gold.Chemscore.DEClash>
0.1541

> <Gold.Chemscore.DEInternal>
0.7977

> <Gold.Chemscore.Rot>
1.5543

> <Gold.Chemscore.Internal.Correction>
   9.000000E+99

> <Gold.Chemscore.Hbonds>
donor molecule, donor type, donor heavy atom, donor atom, acceptor molecule, acceptor atom, score
      L1  H     9    25       P1  8028  0.56

> <Gold.Chemscore.Hbond.Weighted>
-3.3360

> <Gold.Chemscore.Metal.Weighted>
-0.0000

> <Gold.Chemscore.Lipo.Weighted>
-11.3788

> <Gold.Chemscore.Internal_Hbond.Weighted>
0.0000

> <Gold.Chemscore.DEClash.Weighted>
0.1541

> <Gold.Chemscore.DEInternal.Weighted>
0.7977

> <Gold.Chemscore.Rot.Weighted>
3.9789

> <Gold.Chemscore.Internal.Correction.Weighted>
   9.000000E+99

> <Gold.Protein.RotatedTorsions>
[ 6907 6896 6895 6894 ] final   34.20 input  -60.11 | X-H torsion
[ 7974 7965 7964 7962 ] final  -83.30 input  175.53 | X-H torsion
[ 8008 7997 7996 7995 ] final  100.21 input   59.86 | X-H torsion
[ 10167 10162 10161 10158 ] final  126.80 input  -65.29 | X-H torsion
[ 10718 10713 10712 10709 ] final  140.35 input   66.30 | X-H torsion
[ 10763 10752 10751 10750 ] final   70.21 input  -60.55 | X-H torsion
[ 11005 11000 10999 10996 ] final   85.95 input  -57.11 | X-H torsion

> <Gold.Protein.ActiveResidues>
 VAL166  LYS551  ARG553  GLY616  TRP617  ASP618  TYR619  PRO620  LYS621  CYS622 
 ASP623  PHE694  ASN695  SER759  ASP760  ASP761  ALA762  ILE779  LEU786  VAL792 
 PHE793  MET794  SER795  GLU796  ALA797  LYS798  CYS799  TRP800  GLU811  SER814 

> <Gold.Protein.RotatedAtoms>
  152.0991  134.9354  160.0569 H   0  0  0  0  0  0  0  0  0  0  0  0  # atno 6907 bound_to 6896
  152.0575  133.4042  159.4412 H   0  0  0  0  0  0  0  0  0  0  0  0  # atno 6908 bound_to 6896
  150.6839  134.3158  159.4809 H   0  0  0  0  0  0  0  0  0  0  0  0  # atno 6909 bound_to 6896
  145.5217  140.9530  143.1651 H   0  0  0  0  0  0  0  0  0  0  0  0  # atno 7974 bound_to 7965
  156.1181  140.3217  155.8168 H   0  0  0  0  0  0  0  0  0  0  0  0  # atno 8008 bound_to 7997
  155.4554  140.0535  157.3014 H   0  0  0  0  0  0  0  0  0  0  0  0  # atno 8009 bound_to 7997
  154.4807  140.2052  155.9784 H   0  0  0  0  0  0  0  0  0  0  0  0  # atno 8010 bound_to 7997
  139.5612  144.6883  151.4038 H   0  0  0  0  0  0  0  0  0  0  0  0  # atno 10167 bound_to 10162
  157.4042  131.1020  151.0520 H   0  0  0  0  0  0  0  0  0  0  0  0  # atno 10718 bound_to 10713
  153.0329  135.5182  154.7407 H   0  0  0  0  0  0  0  0  0  0  0  0  # atno 10763 bound_to 10752
  154.6407  135.2912  155.0109 H   0  0  0  0  0  0  0  0  0  0  0  0  # atno 10764 bound_to 10752
  154.1027  135.6634  153.4923 H   0  0  0  0  0  0  0  0  0  0  0  0  # atno 10765 bound_to 10752
  139.8957  134.8322  156.2653 H   0  0  0  0  0  0  0  0  0  0  0  0  # atno 11005 bound_to 11000
  144.7672  139.6817  143.7210 LP  0  0  0  0  0  0  0  0  0  0  0  0  # atno 17320 bound_to 7965
  146.2101  139.5452  142.9686 LP  0  0  0  0  0  0  0  0  0  0  0  0  # atno 17321 bound_to 7965
  140.6892  143.7902  150.7230 LP  0  0  0  0  0  0  0  0  0  0  0  0  # atno 17342 bound_to 10162
  140.1379  143.4467  152.2212 LP  0  0  0  0  0  0  0  0  0  0  0  0  # atno 17343 bound_to 10162
  157.1508  130.6183  149.5582 LP  0  0  0  0  0  0  0  0  0  0  0  0  # atno 17370 bound_to 10713
  155.9832  130.4850  150.6920 LP  0  0  0  0  0  0  0  0  0  0  0  0  # atno 17371 bound_to 10713
  141.0136  133.7081  156.1152 LP  0  0  0  0  0  0  0  0  0  0  0  0  # atno 17394 bound_to 11000
  140.7333  134.4230  157.5563 LP  0  0  0  0  0  0  0  0  0  0  0  0  # atno 17395 bound_to 11000

$$$$
