AV-unprocessed.smi:3279|AV-procd|sdf|12549|dock8
  -GOLD-   2272018463D 1   1.00000     0.00000
 Structure written by MMmdl.
 35 35  0  0  0  0  0  0  0  0  2 V2000
  149.5907  138.2894  154.7365 C   0  0  0  0  0  0  0  0  0  0  0  0
  151.0395  137.8187  154.9394 C   0  0  1  0  0  0  0  0  0  0  0  0
  152.0064  138.9867  155.2315 C   0  0  0  0  0  0  0  0  0  0  0  0
  151.4367  139.9359  156.1859 N   0  0  0  0  0  0  0  0  0  0  0  0
  152.0109  140.3388  157.3303 C   0  0  0  0  0  0  0  0  0  0  0  0
  153.0726  139.8844  157.7580 O   0  0  0  0  0  0  0  0  0  0  0  0
  151.2719  141.4281  158.1062 C   0  0  0  0  0  0  0  0  0  0  0  0
  152.0550  142.6179  158.0789 O   0  0  0  0  0  0  0  0  0  0  0  0
  151.7748  143.6368  159.0416 C   0  0  0  0  0  0  0  0  0  0  0  0
  152.1358  143.1760  160.4679 C   0  0  0  0  0  0  0  0  0  0  0  0
  150.2554  143.8458  158.9396 C   0  0  0  0  0  0  0  0  0  0  0  0
  152.5014  144.9466  158.6774 C   0  0  0  0  0  0  0  0  0  0  0  0
  151.1265  136.7216  155.9651 C   0  0  0  0  0  0  0  0  0  0  0  0
  150.0478  136.2133  156.5805 N   0  0  0  0  0  0  0  0  0  0  0  0
  150.5575  135.2571  157.3683 N   0  0  0  0  0  0  0  0  0  0  0  0
  151.8864  135.2086  157.2188 N   0  0  0  0  0  0  0  0  0  0  0  0
  152.2764  136.1318  156.3299 N   0  5  0  0  0  0  0  0  0  0  0  0
  148.9457  137.4581  154.4503 H   0  0  0  0  0  0  0  0  0  0  0  0
  149.5289  139.0419  153.9502 H   0  0  0  0  0  0  0  0  0  0  0  0
  149.1838  138.7285  155.6479 H   0  0  0  0  0  0  0  0  0  0  0  0
  151.3486  137.4217  153.9707 H   0  0  0  0  0  0  0  0  0  0  0  0
  152.9371  138.6019  155.6489 H   0  0  0  0  0  0  0  0  0  0  0  0
  152.2755  139.4833  154.2978 H   0  0  0  0  0  0  0  0  0  0  0  0
  150.5654  140.3721  155.9215 H   0  0  0  0  0  0  0  0  0  0  0  0
  150.2959  141.5929  157.6489 H   0  0  0  0  0  0  0  0  0  0  0  0
  151.1156  141.0740  159.1246 H   0  0  0  0  0  0  0  0  0  0  0  0
  151.7840  143.8923  161.2110 H   0  0  0  0  0  0  0  0  0  0  0  0
  153.2124  143.0788  160.6071 H   0  0  0  0  0  0  0  0  0  0  0  0
  151.6808  142.2119  160.6973 H   0  0  0  0  0  0  0  0  0  0  0  0
  149.7150  142.9272  159.1717 H   0  0  0  0  0  0  0  0  0  0  0  0
  149.9652  144.1503  157.9335 H   0  0  0  0  0  0  0  0  0  0  0  0
  149.9109  144.6158  159.6307 H   0  0  0  0  0  0  0  0  0  0  0  0
  152.1738  145.7660  159.3180 H   0  0  0  0  0  0  0  0  0  0  0  0
  152.3005  145.2347  157.6451 H   0  0  0  0  0  0  0  0  0  0  0  0
  153.5814  144.8635  158.7966 H   0  0  0  0  0  0  0  0  0  0  0  0
  1  2  1  0  0  0  0
  1 18  1  0  0  0  0
  1 19  1  0  0  0  0
  1 20  1  0  0  0  0
  2  3  1  0  0  0  0
  2 13  1  0  0  0  0
  2 21  1  0  0  0  0
  3  4  1  0  0  0  0
  3 22  1  0  0  0  0
  3 23  1  0  0  0  0
  4  5  1  0  0  0  0
  4 24  1  0  0  0  0
  5  6  2  0  0  0  0
  5  7  1  0  0  0  0
  7  8  1  0  0  0  0
  7 25  1  0  0  0  0
  7 26  1  0  0  0  0
  8  9  1  0  0  0  0
  9 10  1  0  0  0  0
  9 11  1  0  0  0  0
  9 12  1  0  0  0  0
 10 27  1  0  0  0  0
 10 28  1  0  0  0  0
 10 29  1  0  0  0  0
 11 30  1  0  0  0  0
 11 31  1  0  0  0  0
 11 32  1  0  0  0  0
 12 33  1  0  0  0  0
 12 34  1  0  0  0  0
 12 35  1  0  0  0  0
 13 17  1  0  0  0  0
 13 14  2  0  0  0  0
 14 15  1  0  0  0  0
 15 16  2  0  0  0  0
 16 17  1  0  0  0  0
M  CHG  1  17  -1
M  END
> <s_m_source_file>
AV-unprocessed.smi

> <i_m_source_file_index>
3279

> <i_lp_mmshare_version>
43012

> <i_f3d_flags>
0

> <s_epik_input>
W25IXTFubm5jMVtDQEhdKFtDSDNdKVtDSDJdW05IXUMoPU8pW0NIMl1PQyhbQ0gzXSkoW0NIM10pW0NIM10=

> <s_epik_cmdline>
J2VwaWtfcHl0aG9uJywgJy1waCcsICc3LjAnLCAnLXRuJywgJzgnLCAnLW1hJywgJzIwMCcsICctbWV0YWxfYmluZGluZycsICctaW1hZScsICc8aW5maWxlLm1hZT4nLCAnLW9tYWUnLCAnPG91dGZpbGUubWFlPic=

> <r_epik_Ionization_Penalty>
0.054353

> <r_epik_Ionization_Penalty_Charging>
0.054353

> <r_epik_Ionization_Penalty_Neutral>
3.0997e-08

> <r_epik_State_Penalty>
0.0139445

> <r_epik_Charging_Adjusted_Penalty>
0.0682975

> <i_epik_Tot_Q>
-1

> <i_epik_Tot_abs_Q>
1

> <r_epik_Metal_State_Penalty>
0.0109703

> <b_epik_Metal_Only>
0

> <s_lp_Force_Field>
OPLS_2005

> <r_lp_Energy>
1.27922

> <b_lp_Chiralities_Consistent>
1

> <s_lp_Variant>
AV-unprocessed.smi:3279-2

> <Gold.Version>
5.8.1

> <Gold.Id.Protein>
6NUR|6NUR_protein|mol2

> <Gold.PLP.Fitness>
38.7811

> <Gold.PLP.PLP>
-30.0645

> <Gold.PLP.part.hbond>
-4.0000

> <Gold.PLP.part.metal>
0.0000

> <Gold.PLP.part.buried>
-2.9785

> <Gold.PLP.part.nonpolar>
-22.6316

> <Gold.PLP.part.repulsive>
0.1537

> <Gold.PLP.ligand.clash>
0.0000

> <Gold.PLP.ligand.torsion>
0.4829

> <Gold.PLP.Chemscore.Hbond>
3.1923

> <Gold.PLP.Chemscore.CHOScore>
0.0000

> <Gold.PLP.Chemscore.Metal>
0.0000

> <Gold.Chemscore.Hbonds>
donor molecule, donor type, donor heavy atom, donor atom, acceptor molecule, acceptor atom, score
      P1  H  6896  6909       L1    15  0.14
      P1  H  7997  8010       L1     6  1.00
      P1  H 10752 10765       L1    17  2.00

> <Gold.PLP.Chemscore.Internal.Correction>
0.1056

> <Gold.Rescore>
     Score         DG    S(hbond)    S(metal)    S(lipo)     H(rot)  DE(clash)    DE(int)     intcor
     13.41     -13.85       2.24        0.00      65.42       2.64       0.00       0.44       ----

> <Gold.Chemscore.Fitness>
13.4144

> <Gold.Chemscore.DG>
-13.8527

> <Gold.Chemscore.ZeroCoef>
-5.4800

> <Gold.Chemscore.Hbond>
2.2392

> <Gold.Chemscore.Metal>
0.0000

> <Gold.Chemscore.Lipo>
65.4238

> <Gold.Chemscore.Internal_Hbond>
0.0000

> <Gold.Chemscore.DEClash>
0.0004

> <Gold.Chemscore.DEInternal>
0.4379

> <Gold.Chemscore.Rot>
2.6409

> <Gold.Chemscore.Internal.Correction>
   9.000000E+99

> <Gold.Chemscore.Hbonds>
donor molecule, donor type, donor heavy atom, donor atom, acceptor molecule, acceptor atom, score
      P1  H  6896  6909       L1    15  0.01
      P1  H  7997  8010       L1     6  0.98
      P1  H 10752 10765       L1    17  0.71

> <Gold.Chemscore.Hbond.Weighted>
-7.4788

> <Gold.Chemscore.Metal.Weighted>
-0.0000

> <Gold.Chemscore.Lipo.Weighted>
-7.6546

> <Gold.Chemscore.Internal_Hbond.Weighted>
0.0000

> <Gold.Chemscore.DEClash.Weighted>
0.0004

> <Gold.Chemscore.DEInternal.Weighted>
0.4379

> <Gold.Chemscore.Rot.Weighted>
6.7607

> <Gold.Chemscore.Internal.Correction.Weighted>
   9.000000E+99

> <Gold.Protein.RotatedTorsions>
[ 6907 6896 6895 6894 ] final   34.92 input  -60.11 | X-H torsion
[ 7974 7965 7964 7962 ] final   54.82 input  175.53 | X-H torsion
[ 8008 7997 7996 7995 ] final   41.16 input   59.86 | X-H torsion
[ 10167 10162 10161 10158 ] final -171.78 input  -65.29 | X-H torsion
[ 10718 10713 10712 10709 ] final    4.68 input   66.30 | X-H torsion
[ 10763 10752 10751 10750 ] final -157.55 input  -60.55 | X-H torsion
[ 11005 11000 10999 10996 ] final  101.28 input  -57.11 | X-H torsion

> <Gold.Protein.ActiveResidues>
 VAL166  LYS551  ARG553  GLY616  TRP617  ASP618  TYR619  PRO620  LYS621  CYS622 
 ASP623  PHE694  ASN695  SER759  ASP760  ASP761  ALA762  ILE779  LEU786  VAL792 
 PHE793  MET794  SER795  GLU796  ALA797  LYS798  CYS799  TRP800  GLU811  SER814 

> <Gold.Protein.RotatedAtoms>
  152.1091  134.9287  160.0567 H   0  0  0  0  0  0  0  0  0  0  0  0  # atno 6907 bound_to 6896
  152.0472  133.3998  159.4370 H   0  0  0  0  0  0  0  0  0  0  0  0  # atno 6908 bound_to 6896
  150.6842  134.3269  159.4854 H   0  0  0  0  0  0  0  0  0  0  0  0  # atno 6909 bound_to 6896
  145.9569  139.4023  143.0272 H   0  0  0  0  0  0  0  0  0  0  0  0  # atno 7974 bound_to 7965
  155.2651  140.3362  155.4270 H   0  0  0  0  0  0  0  0  0  0  0  0  # atno 8008 bound_to 7997
  156.2158  140.1788  156.7635 H   0  0  0  0  0  0  0  0  0  0  0  0  # atno 8009 bound_to 7997
  154.5751  140.0663  156.9006 H   0  0  0  0  0  0  0  0  0  0  0  0  # atno 8010 bound_to 7997
  139.5782  144.1483  152.1480 H   0  0  0  0  0  0  0  0  0  0  0  0  # atno 10167 bound_to 10162
  156.8962  130.5705  149.5649 H   0  0  0  0  0  0  0  0  0  0  0  0  # atno 10718 bound_to 10713
  154.7627  135.3122  154.8347 H   0  0  0  0  0  0  0  0  0  0  0  0  # atno 10763 bound_to 10752
  153.9103  135.6806  153.4755 H   0  0  0  0  0  0  0  0  0  0  0  0  # atno 10764 bound_to 10752
  153.1229  135.4814  154.9157 H   0  0  0  0  0  0  0  0  0  0  0  0  # atno 10765 bound_to 10752
  139.8773  134.9176  156.4883 H   0  0  0  0  0  0  0  0  0  0  0  0  # atno 11005 bound_to 11000
  145.8094  140.9733  143.0957 LP  0  0  0  0  0  0  0  0  0  0  0  0  # atno 17320 bound_to 7965
  144.6807  139.9901  143.7484 LP  0  0  0  0  0  0  0  0  0  0  0  0  # atno 17321 bound_to 7965
  140.1031  144.5522  150.6975 LP  0  0  0  0  0  0  0  0  0  0  0  0  # atno 17342 bound_to 10162
  140.7063  143.2470  151.4716 LP  0  0  0  0  0  0  0  0  0  0  0  0  # atno 17343 bound_to 10162
  156.0604  130.5658  150.9181 LP  0  0  0  0  0  0  0  0  0  0  0  0  # atno 17370 bound_to 10713
  157.6054  131.0939  150.8889 LP  0  0  0  0  0  0  0  0  0  0  0  0  # atno 17371 bound_to 10713
  140.8677  133.8012  155.9331 LP  0  0  0  0  0  0  0  0  0  0  0  0  # atno 17394 bound_to 11000
  140.8985  134.2408  157.5055 LP  0  0  0  0  0  0  0  0  0  0  0  0  # atno 17395 bound_to 11000

$$$$
