AV-unprocessed.smi:3193|AV-procd|sdf|12203|dock6
  -GOLD-   2272018 43D 1   1.00000     0.00000
 Structure written by MMmdl.
 40 41  0  0  0  0  0  0  0  0  2 V2000
  152.3717  145.0677  158.4608 C   0  0  0  0  0  0  0  0  0  0  0  0
  151.2869  144.2357  159.1754 C   0  0  2  0  0  0  0  0  0  0  0  0
  151.3204  144.4513  160.7037 C   0  0  0  0  0  0  0  0  0  0  0  0
  152.5246  143.7612  161.3667 C   0  0  0  0  0  0  0  0  0  0  0  0
  152.5638  142.2648  161.0251 C   0  0  0  0  0  0  0  0  0  0  0  0
  152.5415  142.0330  159.5058 C   0  0  0  0  0  0  0  0  0  0  0  0
  151.3252  142.7196  158.8437 C   0  0  2  0  0  0  0  0  0  0  0  0
  151.2480  142.4401  157.3291 C   0  0  0  0  0  0  0  0  0  0  0  0
  149.8724  142.5966  156.8160 N   0  3  0  0  0  0  0  0  0  0  0  0
  149.5172  141.6417  155.7466 C   0  0  0  0  0  0  0  0  0  0  0  0
  149.6945  140.1855  156.2040 C   0  0  0  0  0  0  0  0  0  0  0  0
  150.9219  139.5979  155.7005 N   0  0  0  0  0  0  0  0  0  0  0  0
  151.0458  138.6472  154.6957 C   0  0  0  0  0  0  0  0  0  0  0  0
  152.3914  138.3887  154.5629 C   0  0  0  0  0  0  0  0  0  0  0  0
  153.1093  139.1680  155.4670 N   0  0  0  0  0  0  0  0  0  0  0  0
  152.1734  139.8620  156.1007 C   0  0  0  0  0  0  0  0  0  0  0  0
  153.3782  144.7290  158.7044 H   0  0  0  0  0  0  0  0  0  0  0  0
  152.3038  146.1183  158.7440 H   0  0  0  0  0  0  0  0  0  0  0  0
  152.2605  145.0262  157.3775 H   0  0  0  0  0  0  0  0  0  0  0  0
  150.3285  144.6219  158.8252 H   0  0  0  0  0  0  0  0  0  0  0  0
  151.3285  145.5170  160.9362 H   0  0  0  0  0  0  0  0  0  0  0  0
  150.4023  144.0570  161.1414 H   0  0  0  0  0  0  0  0  0  0  0  0
  153.4513  144.2366  161.0445 H   0  0  0  0  0  0  0  0  0  0  0  0
  152.4761  143.8923  162.4481 H   0  0  0  0  0  0  0  0  0  0  0  0
  153.4540  141.8080  161.4585 H   0  0  0  0  0  0  0  0  0  0  0  0
  151.7085  141.7653  161.4816 H   0  0  0  0  0  0  0  0  0  0  0  0
  153.4688  142.4003  159.0655 H   0  0  0  0  0  0  0  0  0  0  0  0
  152.5197  140.9599  159.3141 H   0  0  0  0  0  0  0  0  0  0  0  0
  150.4285  142.2866  159.2911 H   0  0  0  0  0  0  0  0  0  0  0  0
  151.8953  143.1343  156.7914 H   0  0  0  0  0  0  0  0  0  0  0  0
  151.6016  141.4326  157.1063 H   0  0  0  0  0  0  0  0  0  0  0  0
  149.2278  142.4763  157.5842 H   0  0  0  0  0  0  0  0  0  0  0  0
  148.4874  141.8146  155.4310 H   0  0  0  0  0  0  0  0  0  0  0  0
  150.1517  141.8299  154.8796 H   0  0  0  0  0  0  0  0  0  0  0  0
  149.7181  140.1382  157.2934 H   0  0  0  0  0  0  0  0  0  0  0  0
  148.8491  139.5758  155.8818 H   0  0  0  0  0  0  0  0  0  0  0  0
  150.1914  138.2424  154.1731 H   0  0  0  0  0  0  0  0  0  0  0  0
  152.8946  137.7092  153.8905 H   0  0  0  0  0  0  0  0  0  0  0  0
  152.4045  140.5745  156.8793 H   0  0  0  0  0  0  0  0  0  0  0  0
  149.7714  143.5342  156.4535 H   0  0  0  0  0  0  0  0  0  0  0  0
  1  2  1  0  0  0  0
  1 17  1  0  0  0  0
  1 18  1  0  0  0  0
  1 19  1  0  0  0  0
  2  7  1  0  0  0  0
  2  3  1  0  0  0  0
  2 20  1  0  0  0  0
  3  4  1  0  0  0  0
  3 21  1  0  0  0  0
  3 22  1  0  0  0  0
  4  5  1  0  0  0  0
  4 23  1  0  0  0  0
  4 24  1  0  0  0  0
  5  6  1  0  0  0  0
  5 25  1  0  0  0  0
  5 26  1  0  0  0  0
  6  7  1  0  0  0  0
  6 27  1  0  0  0  0
  6 28  1  0  0  0  0
  7  8  1  0  0  0  0
  7 29  1  0  0  0  0
  8  9  1  0  0  0  0
  8 30  1  0  0  0  0
  8 31  1  0  0  0  0
  9 10  1  0  0  0  0
  9 32  1  0  0  0  0
  9 40  1  0  0  0  0
 10 11  1  0  0  0  0
 10 33  1  0  0  0  0
 10 34  1  0  0  0  0
 11 12  1  0  0  0  0
 11 35  1  0  0  0  0
 11 36  1  0  0  0  0
 12 16  1  0  0  0  0
 12 13  1  0  0  0  0
 13 14  2  0  0  0  0
 13 37  1  0  0  0  0
 14 15  1  0  0  0  0
 14 38  1  0  0  0  0
 15 16  2  0  0  0  0
 16 39  1  0  0  0  0
M  CHG  1   9   1
M  END
> <s_m_source_file>
AV-unprocessed.smi

> <i_m_source_file_index>
3193

> <i_lp_mmshare_version>
43012

> <i_f3d_flags>
0

> <s_epik_input>
W0NIM11bQ0BASF0xW0NIMl1bQ0gyXVtDSDJdW0NIMl1bQ0BIXTFbQ0gyXVtOSF1bQ0gyXVtDSDJdbjJbY0hdW2NIXW5bY0hdMg==

> <s_epik_cmdline>
J2VwaWtfcHl0aG9uJywgJy1waCcsICc3LjAnLCAnLXRuJywgJzgnLCAnLW1hJywgJzIwMCcsICctbWV0YWxfYmluZGluZycsICctaW1hZScsICc8aW5maWxlLm1hZT4nLCAnLW9tYWUnLCAnPG91dGZpbGUubWFlPic=

> <r_lp_tautomer_probability>
1

> <r_epik_Ionization_Penalty>
0.0503046

> <r_epik_Ionization_Penalty_Charging>
0.0503046

> <r_epik_Ionization_Penalty_Neutral>
0

> <r_epik_State_Penalty>
0.0981804

> <r_epik_Charging_Adjusted_Penalty>
0.148485

> <i_epik_Tot_Q>
1

> <i_epik_Tot_abs_Q>
1

> <r_epik_Metal_State_Penalty>
0.000105854

> <b_epik_Metal_Only>
0

> <s_lp_Force_Field>
OPLS_2005

> <r_lp_Energy>
20.9297

> <b_lp_Chiralities_Consistent>
1

> <s_lp_Variant>
AV-unprocessed.smi:3193-3

> <Gold.Version>
5.8.1

> <Gold.Id.Protein>
6NUR|6NUR_protein|mol2

> <Gold.PLP.Fitness>
49.1805

> <Gold.PLP.PLP>
-41.8873

> <Gold.PLP.part.hbond>
-2.0000

> <Gold.PLP.part.metal>
0.0000

> <Gold.PLP.part.buried>
-4.6219

> <Gold.PLP.part.nonpolar>
-34.8473

> <Gold.PLP.part.repulsive>
0.0322

> <Gold.PLP.ligand.clash>
0.0000

> <Gold.PLP.ligand.torsion>
0.8725

> <Gold.PLP.Chemscore.Hbond>
3.0000

> <Gold.PLP.Chemscore.CHOScore>
0.0000

> <Gold.PLP.Chemscore.Metal>
0.0000

> <Gold.Chemscore.Hbonds>
donor molecule, donor type, donor heavy atom, donor atom, acceptor molecule, acceptor atom, score
      L1  H     9    40       P1  8028  2.00
      P1  H  7997  8010       L1    15  0.98

> <Gold.PLP.Chemscore.Internal.Correction>
0.0381

> <Gold.Rescore>
     Score         DG    S(hbond)    S(metal)    S(lipo)     H(rot)  DE(clash)    DE(int)     intcor
     18.31     -19.47       1.54        0.00     116.89       1.89       0.08       1.08       ----

> <Gold.Chemscore.Fitness>
18.3078

> <Gold.Chemscore.DG>
-19.4669

> <Gold.Chemscore.ZeroCoef>
-5.4800

> <Gold.Chemscore.Hbond>
1.5414

> <Gold.Chemscore.Metal>
0.0000

> <Gold.Chemscore.Lipo>
116.8869

> <Gold.Chemscore.Internal_Hbond>
0.0000

> <Gold.Chemscore.DEClash>
0.0817

> <Gold.Chemscore.DEInternal>
1.0774

> <Gold.Chemscore.Rot>
1.8895

> <Gold.Chemscore.Internal.Correction>
   9.000000E+99

> <Gold.Chemscore.Hbonds>
donor molecule, donor type, donor heavy atom, donor atom, acceptor molecule, acceptor atom, score
      L1  H     9    40       P1  8028  0.96
      P1  H  7997  8010       L1    15  0.24

> <Gold.Chemscore.Hbond.Weighted>
-5.1482

> <Gold.Chemscore.Metal.Weighted>
-0.0000

> <Gold.Chemscore.Lipo.Weighted>
-13.6758

> <Gold.Chemscore.Internal_Hbond.Weighted>
0.0000

> <Gold.Chemscore.DEClash.Weighted>
0.0817

> <Gold.Chemscore.DEInternal.Weighted>
1.0774

> <Gold.Chemscore.Rot.Weighted>
4.8371

> <Gold.Chemscore.Internal.Correction.Weighted>
   9.000000E+99

> <Gold.Protein.RotatedTorsions>
[ 6907 6896 6895 6894 ] final -142.57 input  -60.11 | X-H torsion
[ 7974 7965 7964 7962 ] final -153.48 input  175.53 | X-H torsion
[ 8008 7997 7996 7995 ] final  113.30 input   59.86 | X-H torsion
[ 10167 10162 10161 10158 ] final  157.17 input  -65.29 | X-H torsion
[ 10718 10713 10712 10709 ] final  104.51 input   66.30 | X-H torsion
[ 10763 10752 10751 10750 ] final -114.61 input  -60.55 | X-H torsion
[ 11005 11000 10999 10996 ] final   86.73 input  -57.11 | X-H torsion

> <Gold.Protein.ActiveResidues>
 VAL166  LYS551  ARG553  GLY616  TRP617  ASP618  TYR619  PRO620  LYS621  CYS622 
 ASP623  PHE694  ASN695  SER759  ASP760  ASP761  ALA762  ILE779  LEU786  VAL792 
 PHE793  MET794  SER795  GLU796  ALA797  LYS798  CYS799  TRP800  GLU811  SER814 

> <Gold.Protein.RotatedAtoms>
  151.0888  133.5332  159.2615 H   0  0  0  0  0  0  0  0  0  0  0  0  # atno 6907 bound_to 6896
  151.2207  135.0517  159.8958 H   0  0  0  0  0  0  0  0  0  0  0  0  # atno 6908 bound_to 6896
  152.5432  134.0691  159.8239 H   0  0  0  0  0  0  0  0  0  0  0  0  # atno 6909 bound_to 6896
  144.7738  140.4520  143.5888 H   0  0  0  0  0  0  0  0  0  0  0  0  # atno 7974 bound_to 7965
  156.2249  140.2982  156.0042 H   0  0  0  0  0  0  0  0  0  0  0  0  # atno 8008 bound_to 7997
  155.2383  140.0421  157.2988 H   0  0  0  0  0  0  0  0  0  0  0  0  # atno 8009 bound_to 7997
  154.5899  140.2398  155.7943 H   0  0  0  0  0  0  0  0  0  0  0  0  # atno 8010 bound_to 7997
  139.4822  144.4942  151.8264 H   0  0  0  0  0  0  0  0  0  0  0  0  # atno 10167 bound_to 10162
  157.6738  131.0805  150.5717 H   0  0  0  0  0  0  0  0  0  0  0  0  # atno 10718 bound_to 10713
  154.8447  135.4411  154.1534 H   0  0  0  0  0  0  0  0  0  0  0  0  # atno 10763 bound_to 10752
  153.2689  135.6943  153.7507 H   0  0  0  0  0  0  0  0  0  0  0  0  # atno 10764 bound_to 10752
  153.6756  135.3411  155.3140 H   0  0  0  0  0  0  0  0  0  0  0  0  # atno 10765 bound_to 10752
  139.8937  134.8375  156.2761 H   0  0  0  0  0  0  0  0  0  0  0  0  # atno 11005 bound_to 11000
  145.6244  139.1528  143.3004 LP  0  0  0  0  0  0  0  0  0  0  0  0  # atno 17320 bound_to 7965
  146.1904  140.6352  142.9148 LP  0  0  0  0  0  0  0  0  0  0  0  0  # atno 17321 bound_to 7965
  140.4429  144.1962  150.5892 LP  0  0  0  0  0  0  0  0  0  0  0  0  # atno 17342 bound_to 10162
  140.4665  143.2429  151.9148 LP  0  0  0  0  0  0  0  0  0  0  0  0  # atno 17343 bound_to 10162
  156.6018  130.4356  149.5894 LP  0  0  0  0  0  0  0  0  0  0  0  0  # atno 17370 bound_to 10713
  156.2500  130.6901  151.1636 LP  0  0  0  0  0  0  0  0  0  0  0  0  # atno 17371 bound_to 10713
  141.0069  133.7118  156.1049 LP  0  0  0  0  0  0  0  0  0  0  0  0  # atno 17394 bound_to 11000
  140.7421  134.4138  157.5553 LP  0  0  0  0  0  0  0  0  0  0  0  0  # atno 17395 bound_to 11000

$$$$
