AV-unprocessed.smi:196|AV-procd|sdf|1531|dock5
  -GOLD-   2262019383D 1   1.00000     0.00000
 Structure written by MMmdl.
 47 50  0  0  0  0  0  0  0  0  1 V2000
  151.1184  140.4750  157.4541 C   0  0  0  0  0  0  0  0  0  0  0  0
  151.4544  140.1861  155.9825 C   0  0  1  0  0  0  0  0  0  0  0  0
  152.6843  139.4651  155.9575 O   0  0  0  0  0  0  0  0  0  0  0  0
  152.6784  138.5749  154.8556 C   0  0  0  0  0  0  0  0  0  0  0  0
  151.2454  138.0659  154.8518 C   0  0  0  0  0  0  0  0  0  0  0  0
  150.4380  139.3156  155.1905 C   0  0  2  0  0  0  0  0  0  0  0  0
  150.1520  139.9900  153.9760 O   0  0  0  0  0  0  0  0  0  0  0  0
  149.0895  139.0136  155.8958 C   0  0  0  0  0  0  0  0  0  0  0  0
  148.1842  138.2064  155.0915 N   0  0  0  0  0  0  0  0  0  0  0  0
  147.2959  138.6628  154.1447 C   0  0  0  0  0  0  0  0  0  0  0  0
  146.5932  137.7381  153.5501 N   0  0  0  0  0  0  0  0  0  0  0  0
  147.0158  136.5525  154.1413 C   0  0  0  0  0  0  0  0  0  0  0  0
  146.6738  135.1789  153.9723 C   0  0  0  0  0  0  0  0  0  0  0  0
  145.7386  134.7438  153.0839 N   0  0  0  0  0  0  0  0  0  0  0  0
  145.6845  133.3211  152.7634 C   0  0  0  0  0  0  0  0  0  0  0  0
  145.3501  133.2426  151.2745 C   0  0  2  0  0  0  0  0  0  0  0  0
  146.4803  133.2244  150.5661 F   0  0  0  0  0  0  0  0  0  0  0  0
  144.6060  134.5474  151.0146 C   0  0  0  0  0  0  0  0  0  0  0  0
  145.2982  135.5593  151.9427 C   0  0  1  0  0  0  0  0  0  0  0  0
  144.3463  136.7183  152.2993 C   0  0  0  0  0  0  0  0  0  0  0  0
  144.6814  137.9624  151.9413 N   0  0  0  0  0  0  0  0  0  0  0  0
  143.2999  136.4825  152.8991 O   0  0  0  0  0  0  0  0  0  0  0  0
  147.3414  134.2754  154.7383 N   0  0  0  0  0  0  0  0  0  0  0  0
  148.2628  134.6782  155.6174 C   0  0  0  0  0  0  0  0  0  0  0  0
  148.6732  135.9185  155.8852 N   0  0  0  0  0  0  0  0  0  0  0  0
  148.0199  136.8322  155.1123 C   0  0  0  0  0  0  0  0  0  0  0  0
  144.7785  132.3540  151.0055 H   0  0  0  0  0  0  0  0  0  0  0  0
  146.1718  135.9626  151.4275 H   0  0  0  0  0  0  0  0  0  0  0  0
  150.1902  141.0389  157.5481 H   0  0  0  0  0  0  0  0  0  0  0  0
  151.9068  141.0680  157.9181 H   0  0  0  0  0  0  0  0  0  0  0  0
  151.0210  139.5550  158.0310 H   0  0  0  0  0  0  0  0  0  0  0  0
  151.6177  141.1389  155.4750 H   0  0  0  0  0  0  0  0  0  0  0  0
  152.9072  139.1190  153.9380 H   0  0  0  0  0  0  0  0  0  0  0  0
  153.4109  137.7769  154.9785 H   0  0  0  0  0  0  0  0  0  0  0  0
  150.9573  137.5932  153.9117 H   0  0  0  0  0  0  0  0  0  0  0  0
  151.1379  137.3237  155.6434 H   0  0  0  0  0  0  0  0  0  0  0  0
  149.2638  140.3103  154.0141 H   0  0  0  0  0  0  0  0  0  0  0  0
  149.2577  138.4854  156.8345 H   0  0  0  0  0  0  0  0  0  0  0  0
  148.5778  139.9424  156.1516 H   0  0  0  0  0  0  0  0  0  0  0  0
  147.1915  139.7104  153.9018 H   0  0  0  0  0  0  0  0  0  0  0  0
  146.6143  132.7938  152.9834 H   0  0  0  0  0  0  0  0  0  0  0  0
  144.8901  132.8662  153.3561 H   0  0  0  0  0  0  0  0  0  0  0  0
  144.6380  134.8469  149.9663 H   0  0  0  0  0  0  0  0  0  0  0  0
  143.5575  134.4213  151.2911 H   0  0  0  0  0  0  0  0  0  0  0  0
  144.0701  138.7328  152.1700 H   0  0  0  0  0  0  0  0  0  0  0  0
  145.5459  138.1260  151.4465 H   0  0  0  0  0  0  0  0  0  0  0  0
  148.7394  133.8943  156.1872 H   0  0  0  0  0  0  0  0  0  0  0  0
  1  2  1  0  0  0  0
  1 29  1  0  0  0  0
  1 30  1  0  0  0  0
  1 31  1  0  0  0  0
  2  6  1  0  0  0  0
  2  3  1  0  0  0  0
  2 32  1  0  0  0  0
  3  4  1  0  0  0  0
  4  5  1  0  0  0  0
  4 33  1  0  0  0  0
  4 34  1  0  0  0  0
  5  6  1  0  0  0  0
  5 35  1  0  0  0  0
  5 36  1  0  0  0  0
  6  7  1  0  0  0  0
  6  8  1  0  0  0  0
  7 37  1  0  0  0  0
  8  9  1  0  0  0  0
  8 38  1  0  0  0  0
  8 39  1  0  0  0  0
  9 26  1  0  0  0  0
  9 10  1  0  0  0  0
 10 11  2  0  0  0  0
 10 40  1  0  0  0  0
 11 12  1  0  0  0  0
 12 26  2  0  0  0  0
 12 13  1  0  0  0  0
 13 14  1  0  0  0  0
 13 23  2  0  0  0  0
 14 19  1  0  0  0  0
 14 15  1  0  0  0  0
 15 16  1  0  0  0  0
 15 41  1  0  0  0  0
 15 42  1  0  0  0  0
 16 27  1  0  0  0  0
 16 17  1  0  0  0  0
 16 18  1  0  0  0  0
 18 19  1  0  0  0  0
 18 43  1  0  0  0  0
 18 44  1  0  0  0  0
 19 28  1  0  0  0  0
 19 20  1  0  0  0  0
 20 21  1  0  0  0  0
 20 22  2  0  0  0  0
 21 45  1  0  0  0  0
 21 46  1  0  0  0  0
 23 24  1  0  0  0  0
 24 25  2  0  0  0  0
 24 47  1  0  0  0  0
 25 26  1  0  0  0  0
M  END
> <s_m_source_file>
AV-unprocessed.smi

> <i_m_source_file_index>
196

> <i_lp_mmshare_version>
43012

> <i_f3d_flags>
0

> <s_epik_input>
W0NIMl0xW0NIMl1PW0NAQEhdKFtDSDNdKVtDQEBdMShbT0hdKVtDSDJdbihbY0hdbjIpYyhjMjMpbltjSF1uYzNONFtDSDJdW0NASF0oRilbQ0gyXVtDQEhdNEMoPU8pW05IMl0=

> <s_epik_cmdline>
J2VwaWtfcHl0aG9uJywgJy1waCcsICc3LjAnLCAnLXRuJywgJzgnLCAnLW1hJywgJzIwMCcsICctbWV0YWxfYmluZGluZycsICctaW1hZScsICc8aW5maWxlLm1hZT4nLCAnLW9tYWUnLCAnPG91dGZpbGUubWFlPic=

> <r_lp_tautomer_probability>
1

> <r_epik_Ionization_Penalty>
0.000857933

> <r_epik_Ionization_Penalty_Charging>
0

> <r_epik_Ionization_Penalty_Neutral>
0.000857933

> <r_epik_State_Penalty>
0.000462053

> <r_epik_Charging_Adjusted_Penalty>
0.000462053

> <i_epik_Tot_Q>
0

> <i_epik_Tot_abs_Q>
0

> <r_epik_Metal_State_Penalty>
-0

> <b_epik_Metal_Only>
0

> <s_lp_Force_Field>
OPLS_2005

> <r_lp_Energy>
43.6884

> <b_lp_Chiralities_Consistent>
1

> <s_lp_Variant>
AV-unprocessed.smi:196-4

> <Gold.Version>
5.8.1

> <Gold.Id.Protein>
6NUR|6NUR_protein|mol2

> <Gold.PLP.Fitness>
42.8812

> <Gold.PLP.PLP>
-34.9766

> <Gold.PLP.part.hbond>
-4.5992

> <Gold.PLP.part.metal>
0.0000

> <Gold.PLP.part.buried>
-4.4678

> <Gold.PLP.part.nonpolar>
-26.0959

> <Gold.PLP.part.repulsive>
0.4677

> <Gold.PLP.ligand.clash>
0.0000

> <Gold.PLP.ligand.torsion>
0.5026

> <Gold.PLP.Chemscore.Hbond>
2.8800

> <Gold.PLP.Chemscore.CHOScore>
0.0000

> <Gold.PLP.Chemscore.Metal>
0.0000

> <Gold.Chemscore.Hbonds>
donor molecule, donor type, donor heavy atom, donor atom, acceptor molecule, acceptor atom, score
      L1  H    21    45       P1 10175  1.00
      P1  H  7989  7998       L1     7  0.94
      P1  H  7997  8010       L1     3  0.96

> <Gold.PLP.Chemscore.Internal.Correction>
0.2699

> <Gold.Rescore>
     Score         DG    S(hbond)    S(metal)    S(lipo)     H(rot)  DE(clash)    DE(int)     intcor
     10.84     -14.13       2.54        0.00      58.09       2.60       0.29       3.00       ----

> <Gold.Chemscore.Fitness>
10.8426

> <Gold.Chemscore.DG>
-14.1273

> <Gold.Chemscore.ZeroCoef>
-5.4800

> <Gold.Chemscore.Hbond>
2.5445

> <Gold.Chemscore.Metal>
0.0000

> <Gold.Chemscore.Lipo>
58.0896

> <Gold.Chemscore.Internal_Hbond>
0.0000

> <Gold.Chemscore.DEClash>
0.2859

> <Gold.Chemscore.DEInternal>
2.9988

> <Gold.Chemscore.Rot>
2.5968

> <Gold.Chemscore.Internal.Correction>
   9.000000E+99

> <Gold.Chemscore.Hbonds>
donor molecule, donor type, donor heavy atom, donor atom, acceptor molecule, acceptor atom, score
      L1  H    21    45       P1 10175  0.99
      P1  H  7989  7998       L1     7  0.59
      P1  H  7997  8010       L1     3  0.36

> <Gold.Chemscore.Hbond.Weighted>
-8.4986

> <Gold.Chemscore.Metal.Weighted>
-0.0000

> <Gold.Chemscore.Lipo.Weighted>
-6.7965

> <Gold.Chemscore.Internal_Hbond.Weighted>
0.0000

> <Gold.Chemscore.DEClash.Weighted>
0.2859

> <Gold.Chemscore.DEInternal.Weighted>
2.9988

> <Gold.Chemscore.Rot.Weighted>
6.6477

> <Gold.Chemscore.Internal.Correction.Weighted>
   9.000000E+99

> <Gold.Protein.RotatedTorsions>
[ 6907 6896 6895 6894 ] final  155.04 input  -60.11 | X-H torsion
[ 7974 7965 7964 7962 ] final   97.72 input  175.53 | X-H torsion
[ 8008 7997 7996 7995 ] final  105.24 input   59.86 | X-H torsion
[ 10167 10162 10161 10158 ] final  135.10 input  -65.29 | X-H torsion
[ 10718 10713 10712 10709 ] final -148.02 input   66.30 | X-H torsion
[ 10763 10752 10751 10750 ] final -124.73 input  -60.55 | X-H torsion
[ 11005 11000 10999 10996 ] final  -78.06 input  -57.11 | X-H torsion

> <Gold.Protein.ActiveResidues>
 VAL166  LYS551  ARG553  GLY616  TRP617  ASP618  TYR619  PRO620  LYS621  CYS622 
 ASP623  PHE694  ASN695  SER759  ASP760  ASP761  ALA762  ILE779  LEU786  VAL792 
 PHE793  MET794  SER795  GLU796  ALA797  LYS798  CYS799  TRP800  GLU811  SER814 

> <Gold.Protein.RotatedAtoms>
  152.0499  133.4014  159.4372 H   0  0  0  0  0  0  0  0  0  0  0  0  # atno 6907 bound_to 6896
  150.6871  134.3320  159.4840 H   0  0  0  0  0  0  0  0  0  0  0  0  # atno 6908 bound_to 6896
  152.1128  134.9261  160.0616 H   0  0  0  0  0  0  0  0  0  0  0  0  # atno 6909 bound_to 6896
  145.4217  139.2320  143.3192 H   0  0  0  0  0  0  0  0  0  0  0  0  # atno 7974 bound_to 7965
  156.1642  140.3134  155.8860 H   0  0  0  0  0  0  0  0  0  0  0  0  # atno 8008 bound_to 7997
  155.3719  140.0482  157.3062 H   0  0  0  0  0  0  0  0  0  0  0  0  # atno 8009 bound_to 7997
  154.5176  140.2187  155.9047 H   0  0  0  0  0  0  0  0  0  0  0  0  # atno 8010 bound_to 7997
  139.5230  144.6534  151.5234 H   0  0  0  0  0  0  0  0  0  0  0  0  # atno 10167 bound_to 10162
  156.4150  130.8000  151.2220 H   0  0  0  0  0  0  0  0  0  0  0  0  # atno 10718 bound_to 10713
  154.8727  135.4053  154.3153 H   0  0  0  0  0  0  0  0  0  0  0  0  # atno 10763 bound_to 10752
  153.3990  135.7017  153.6445 H   0  0  0  0  0  0  0  0  0  0  0  0  # atno 10764 bound_to 10752
  153.5195  135.3690  155.2596 H   0  0  0  0  0  0  0  0  0  0  0  0  # atno 10765 bound_to 10752
  141.1663  133.7048  156.7915 H   0  0  0  0  0  0  0  0  0  0  0  0  # atno 11005 bound_to 11000
  146.2653  140.4942  142.8836 LP  0  0  0  0  0  0  0  0  0  0  0  0  # atno 17320 bound_to 7965
  144.8241  140.6599  143.6334 LP  0  0  0  0  0  0  0  0  0  0  0  0  # atno 17321 bound_to 7965
  140.6349  143.9004  150.6638 LP  0  0  0  0  0  0  0  0  0  0  0  0  # atno 17342 bound_to 10162
  140.2320  143.3729  152.1558 LP  0  0  0  0  0  0  0  0  0  0  0  0  # atno 17343 bound_to 10162
  157.7507  131.0246  150.3883 LP  0  0  0  0  0  0  0  0  0  0  0  0  # atno 17370 bound_to 10713
  156.4188  130.3949  149.6839 LP  0  0  0  0  0  0  0  0  0  0  0  0  # atno 17371 bound_to 10713
  140.2322  134.8677  157.3488 LP  0  0  0  0  0  0  0  0  0  0  0  0  # atno 17394 bound_to 11000
  140.1880  134.4407  155.7732 LP  0  0  0  0  0  0  0  0  0  0  0  0  # atno 17395 bound_to 11000

$$$$
