AV-unprocessed.smi:38|AV-procd|sdf|337|dock1
  -GOLD-   2262016173D 1   1.00000     0.00000
 Structure written by MMmdl.
 28 29  0  0  0  0  0  0  0  0  1 V2000
  151.6164  141.9163  159.2835 O   0  0  0  0  0  0  0  0  0  0  0  0
  151.0730  141.6924  158.2037 C   0  0  0  0  0  0  0  0  0  0  0  0
  151.6992  140.8769  157.2574 N   0  0  0  0  0  0  0  0  0  0  0  0
  151.1834  140.5474  156.0028 C   0  0  0  0  0  0  0  0  0  0  0  0
  151.8331  139.8340  155.2395 O   0  0  0  0  0  0  0  0  0  0  0  0
  149.9131  141.0667  155.6665 N   0  0  0  0  0  0  0  0  0  0  0  0
  149.3416  140.7383  154.3016 C   0  0  1  0  0  0  0  0  0  0  0  0
  148.3414  139.5751  154.3775 C   0  0  0  0  0  0  0  0  0  0  0  0
  147.2754  140.0287  153.4041 C   0  0  1  0  0  0  0  0  0  0  0  0
  146.0384  139.3805  153.6235 O   0  0  0  0  0  0  0  0  0  0  0  0
  147.2514  141.5463  153.6217 C   0  0  1  0  0  0  0  0  0  0  0  0
  146.4659  142.0154  154.8670 C   0  0  0  0  0  0  0  0  0  0  0  0
  145.0961  141.7131  154.7107 O   0  0  0  0  0  0  0  0  0  0  0  0
  148.6381  141.8425  153.7995 O   0  0  0  0  0  0  0  0  0  0  0  0
  149.2656  141.9049  156.5683 C   0  0  0  0  0  0  0  0  0  0  0  0
  149.7792  142.2200  157.7811 C   0  0  0  0  0  0  0  0  0  0  0  0
  149.0924  143.0338  158.6009 F   0  0  0  0  0  0  0  0  0  0  0  0
  152.6036  140.4990  157.4997 H   0  0  0  0  0  0  0  0  0  0  0  0
  150.2034  140.5380  153.6619 H   0  0  0  0  0  0  0  0  0  0  0  0
  147.6061  139.8161  152.3864 H   0  0  0  0  0  0  0  0  0  0  0  0
  146.8660  142.0453  152.7315 H   0  0  0  0  0  0  0  0  0  0  0  0
  148.8079  138.6281  154.1048 H   0  0  0  0  0  0  0  0  0  0  0  0
  147.9378  139.4972  155.3886 H   0  0  0  0  0  0  0  0  0  0  0  0
  145.4165  139.6954  152.9850 H   0  0  0  0  0  0  0  0  0  0  0  0
  146.8016  141.4845  155.7577 H   0  0  0  0  0  0  0  0  0  0  0  0
  146.5984  143.0788  155.0634 H   0  0  0  0  0  0  0  0  0  0  0  0
  144.9689  141.3272  153.8572 H   0  0  0  0  0  0  0  0  0  0  0  0
  148.3101  142.3404  156.3186 H   0  0  0  0  0  0  0  0  0  0  0  0
  1  2  2  0  0  0  0
  2 16  1  0  0  0  0
  2  3  1  0  0  0  0
  3 18  1  0  0  0  0
  3  4  1  0  0  0  0
  4  5  2  0  0  0  0
  4  6  1  0  0  0  0
  6  7  1  0  0  0  0
  6 15  1  0  0  0  0
  7 19  1  0  0  0  0
  7 14  1  0  0  0  0
  7  8  1  0  0  0  0
  8  9  1  0  0  0  0
  8 22  1  0  0  0  0
  8 23  1  0  0  0  0
  9 20  1  0  0  0  0
  9 10  1  0  0  0  0
  9 11  1  0  0  0  0
 10 24  1  0  0  0  0
 11 21  1  0  0  0  0
 11 12  1  0  0  0  0
 11 14  1  0  0  0  0
 12 13  1  0  0  0  0
 12 25  1  0  0  0  0
 12 26  1  0  0  0  0
 13 27  1  0  0  0  0
 15 16  2  0  0  0  0
 15 28  1  0  0  0  0
 16 17  1  0  0  0  0
M  END
> <s_m_source_file>
AV-unprocessed.smi

> <i_m_source_file_index>
38

> <i_lp_mmshare_version>
43012

> <i_f3d_flags>
0

> <s_epik_input>
Tz1jMVtuSF1jKD1PKW4oW2NIXWMxRilbQ0BIXTJbQ0gyXVtDQEhdKFtPSF0pW0NASF0oTzIpW0NIMl1bT0hd

> <s_epik_cmdline>
J2VwaWtfcHl0aG9uJywgJy1waCcsICc3LjAnLCAnLXRuJywgJzgnLCAnLW1hJywgJzIwMCcsICctbWV0YWxfYmluZGluZycsICctaW1hZScsICc8aW5maWxlLm1hZT4nLCAnLW9tYWUnLCAnPG91dGZpbGUubWFlPic=

> <r_lp_tautomer_probability>
0.999537

> <r_epik_Ionization_Penalty>
0.0357432

> <r_epik_Ionization_Penalty_Charging>
0.0357431

> <r_epik_Ionization_Penalty_Neutral>
1.19946e-07

> <r_epik_State_Penalty>
0.0298169

> <r_epik_Charging_Adjusted_Penalty>
0.06556

> <i_epik_Tot_Q>
0

> <i_epik_Tot_abs_Q>
0

> <r_epik_Metal_State_Penalty>
2.348

> <b_epik_Metal_Only>
0

> <s_epik_Chemistry_Notes>
This compound contains an acetal/aminal-like group ( X-CH(R)-Y where X, Y are N, S, or O) that may be acid/base labile, releasing an aldehyde.

> <s_lp_Force_Field>
OPLS_2005

> <r_lp_Energy>
30.312

> <b_lp_Chiralities_Consistent>
1

> <s_lp_Variant>
AV-unprocessed.smi:38-3

> <Gold.Version>
5.8.1

> <Gold.Id.Protein>
6NUR|6NUR_protein|mol2

> <Gold.PLP.Fitness>
37.0976

> <Gold.PLP.PLP>
-26.7300

> <Gold.PLP.part.hbond>
-4.0000

> <Gold.PLP.part.metal>
0.0000

> <Gold.PLP.part.buried>
-2.2278

> <Gold.PLP.part.nonpolar>
-20.6958

> <Gold.PLP.part.repulsive>
0.3074

> <Gold.PLP.ligand.clash>
0.0000

> <Gold.PLP.ligand.torsion>
0.6777

> <Gold.PLP.Chemscore.Hbond>
3.4084

> <Gold.PLP.Chemscore.CHOScore>
0.4915

> <Gold.PLP.Chemscore.Metal>
0.0000

> <Gold.Chemscore.Hbonds>
donor molecule, donor type, donor heavy atom, donor atom, acceptor molecule, acceptor atom, score
      L1  H    10    24       P1 10175  1.00
      L1  H    13    27       P1 10175  0.92
      P1  H  7989  7998       L1     5  0.96
      P1  H  8011  8017       L1    14  0.53
      L1  C    15    28       P1  8028  0.49

> <Gold.PLP.Chemscore.Internal.Correction>
0.0235

> <Gold.Rescore>
     Score         DG    S(hbond)    S(metal)    S(lipo)     H(rot)  DE(clash)    DE(int)     intcor
     10.46     -10.98       2.82        0.00      30.19       2.91       0.03       0.50       ----

> <Gold.Chemscore.Fitness>
10.4552

> <Gold.Chemscore.DG>
-10.9829

> <Gold.Chemscore.ZeroCoef>
-5.4800

> <Gold.Chemscore.Hbond>
2.8237

> <Gold.Chemscore.Metal>
0.0000

> <Gold.Chemscore.Lipo>
30.1852

> <Gold.Chemscore.Internal_Hbond>
0.0000

> <Gold.Chemscore.DEClash>
0.0262

> <Gold.Chemscore.DEInternal>
0.5015

> <Gold.Chemscore.Rot>
2.9141

> <Gold.Chemscore.Internal.Correction>
   9.000000E+99

> <Gold.Chemscore.Hbonds>
donor molecule, donor type, donor heavy atom, donor atom, acceptor molecule, acceptor atom, score
      L1  H    10    24       P1 10175  0.95
      L1  H    13    27       P1 10175  0.37
      P1  H  7989  7998       L1     5  0.26
      P1  H  8011  8017       L1    14  0.20

> <Gold.Chemscore.Hbond.Weighted>
-9.4313

> <Gold.Chemscore.Metal.Weighted>
-0.0000

> <Gold.Chemscore.Lipo.Weighted>
-3.5317

> <Gold.Chemscore.Internal_Hbond.Weighted>
0.0000

> <Gold.Chemscore.DEClash.Weighted>
0.0262

> <Gold.Chemscore.DEInternal.Weighted>
0.5015

> <Gold.Chemscore.Rot.Weighted>
7.4601

> <Gold.Chemscore.Internal.Correction.Weighted>
   9.000000E+99

> <Gold.Protein.RotatedTorsions>
[ 6907 6896 6895 6894 ] final -101.98 input  -60.11 | X-H torsion
[ 7974 7965 7964 7962 ] final   -7.85 input  175.53 | X-H torsion
[ 8008 7997 7996 7995 ] final -167.57 input   59.86 | X-H torsion
[ 10167 10162 10161 10158 ] final -153.49 input  -65.29 | X-H torsion
[ 10718 10713 10712 10709 ] final   -6.65 input   66.30 | X-H torsion
[ 10763 10752 10751 10750 ] final  133.76 input  -60.55 | X-H torsion
[ 11005 11000 10999 10996 ] final  156.59 input  -57.11 | X-H torsion

> <Gold.Protein.ActiveResidues>
 VAL166  LYS551  ARG553  GLY616  TRP617  ASP618  TYR619  PRO620  LYS621  CYS622 
 ASP623  PHE694  ASN695  SER759  ASP760  ASP761  ALA762  ILE779  LEU786  VAL792 
 PHE793  MET794  SER795  GLU796  ALA797  LYS798  CYS799  TRP800  GLU811  SER814 

> <Gold.Protein.RotatedAtoms>
  150.7177  134.0651  159.3844 H   0  0  0  0  0  0  0  0  0  0  0  0  # atno 6907 bound_to 6896
  151.8632  135.0514  160.0481 H   0  0  0  0  0  0  0  0  0  0  0  0  # atno 6908 bound_to 6896
  152.2701  133.5339  159.5470 H   0  0  0  0  0  0  0  0  0  0  0  0  # atno 6909 bound_to 6896
  146.2296  140.2381  142.8342 H   0  0  0  0  0  0  0  0  0  0  0  0  # atno 7974 bound_to 7965
  155.8796  140.1006  157.1495 H   0  0  0  0  0  0  0  0  0  0  0  0  # atno 8008 bound_to 7997
  154.4004  140.1331  156.4243 H   0  0  0  0  0  0  0  0  0  0  0  0  # atno 8009 bound_to 7997
  155.7658  140.3462  155.5224 H   0  0  0  0  0  0  0  0  0  0  0  0  # atno 8010 bound_to 7997
  139.7092  143.9136  152.2461 H   0  0  0  0  0  0  0  0  0  0  0  0  # atno 10167 bound_to 10162
  156.7288  130.5173  149.5850 H   0  0  0  0  0  0  0  0  0  0  0  0  # atno 10718 bound_to 10713
  153.8123  135.3127  155.3402 H   0  0  0  0  0  0  0  0  0  0  0  0  # atno 10763 bound_to 10752
  154.8046  135.4706  154.0363 H   0  0  0  0  0  0  0  0  0  0  0  0  # atno 10764 bound_to 10752
  153.1745  135.6883  153.8650 H   0  0  0  0  0  0  0  0  0  0  0  0  # atno 10765 bound_to 10752
  140.1689  134.8557  157.2666 H   0  0  0  0  0  0  0  0  0  0  0  0  # atno 11005 bound_to 11000
  144.9506  140.8174  143.5574 LP  0  0  0  0  0  0  0  0  0  0  0  0  # atno 17320 bound_to 7965
  145.2341  139.2102  143.5027 LP  0  0  0  0  0  0  0  0  0  0  0  0  # atno 17321 bound_to 7965
  139.9000  144.6917  150.8675 LP  0  0  0  0  0  0  0  0  0  0  0  0  # atno 17342 bound_to 10162
  140.7729  143.3521  151.1994 LP  0  0  0  0  0  0  0  0  0  0  0  0  # atno 17343 bound_to 10162
  156.1543  130.6331  151.0637 LP  0  0  0  0  0  0  0  0  0  0  0  0  # atno 17370 bound_to 10713
  157.6867  131.0822  150.7221 LP  0  0  0  0  0  0  0  0  0  0  0  0  # atno 17371 bound_to 10713
  140.2401  134.3806  155.7484 LP  0  0  0  0  0  0  0  0  0  0  0  0  # atno 17394 bound_to 11000
  141.2216  133.7260  156.8775 LP  0  0  0  0  0  0  0  0  0  0  0  0  # atno 17395 bound_to 11000

$$$$
