AV-unprocessed.smi:1220|AV-procd|sdf|5117|dock1
  -GOLD-   22720 4173D 1   1.00000     0.00000
 Structure written by MMmdl.
 35 36  0  0  0  0  0  0  0  0  1 V2000
  154.5452  141.4212  159.8510 C   0  0  0  0  0  0  0  0  0  0  0  0
  153.1382  141.1461  160.3982 C   0  0  1  0  0  0  0  0  0  0  0  0
  152.5413  142.4015  161.0706 C   0  0  0  0  0  0  0  0  0  0  0  0
  152.2858  143.4771  160.1285 N   0  0  0  0  0  0  0  0  0  0  0  0
  151.7033  144.7045  160.3662 C   0  0  0  0  0  0  0  0  0  0  0  0
  151.6952  145.3861  159.1834 C   0  0  0  0  0  0  0  0  0  0  0  0
  152.2971  144.4791  158.2670 C   0  0  0  0  0  0  0  0  0  0  0  0
  152.6458  143.3357  158.8347 N   0  0  0  0  0  0  0  0  0  0  0  0
  152.2833  140.6894  159.3027 N   0  0  0  0  0  0  0  0  0  0  0  0
  152.6200  139.7830  158.3709 C   0  0  0  0  0  0  0  0  0  0  0  0
  153.7286  139.2507  158.3119 O   0  0  0  0  0  0  0  0  0  0  0  0
  151.5268  139.4034  157.3655 C   0  0  1  0  0  0  0  0  0  0  0  0
  151.8783  139.8327  155.9245 C   0  0  0  0  0  0  0  0  0  0  0  0
  150.9132  139.1336  154.9619 C   0  0  0  0  0  0  0  0  0  0  0  0
  150.5726  137.4961  155.7073 S   0  0  0  0  0  0  0  0  0  0  0  0
  149.1175  137.3131  155.8174 O   0  0  0  0  0  0  0  0  0  0  0  0
  151.4169  136.4791  155.0627 O   0  0  0  0  0  0  0  0  0  0  0  0
  151.2682  137.8857  157.3573 C   0  0  0  0  0  0  0  0  0  0  0  0
  155.2207  141.7345  160.6475 H   0  0  0  0  0  0  0  0  0  0  0  0
  154.5325  142.2088  159.0967 H   0  0  0  0  0  0  0  0  0  0  0  0
  154.9708  140.5273  159.3935 H   0  0  0  0  0  0  0  0  0  0  0  0
  153.2342  140.3584  161.1478 H   0  0  0  0  0  0  0  0  0  0  0  0
  151.5991  142.1530  161.5615 H   0  0  0  0  0  0  0  0  0  0  0  0
  153.2084  142.7716  161.8504 H   0  0  0  0  0  0  0  0  0  0  0  0
  151.3551  144.9900  161.3479 H   0  0  0  0  0  0  0  0  0  0  0  0
  151.3188  146.3815  159.0005 H   0  0  0  0  0  0  0  0  0  0  0  0
  152.4897  144.6165  157.2133 H   0  0  0  0  0  0  0  0  0  0  0  0
  151.3498  141.0730  159.2685 H   0  0  0  0  0  0  0  0  0  0  0  0
  150.5951  139.9014  157.6399 H   0  0  0  0  0  0  0  0  0  0  0  0
  151.8355  140.9158  155.8052 H   0  0  0  0  0  0  0  0  0  0  0  0
  152.8966  139.5264  155.6798 H   0  0  0  0  0  0  0  0  0  0  0  0
  149.9702  139.6767  154.8966 H   0  0  0  0  0  0  0  0  0  0  0  0
  151.3197  139.0156  153.9573 H   0  0  0  0  0  0  0  0  0  0  0  0
  152.1872  137.3101  157.4776 H   0  0  0  0  0  0  0  0  0  0  0  0
  150.5663  137.5773  158.1321 H   0  0  0  0  0  0  0  0  0  0  0  0
  1  2  1  0  0  0  0
  1 19  1  0  0  0  0
  1 20  1  0  0  0  0
  1 21  1  0  0  0  0
  2  3  1  0  0  0  0
  2  9  1  0  0  0  0
  2 22  1  0  0  0  0
  3  4  1  0  0  0  0
  3 23  1  0  0  0  0
  3 24  1  0  0  0  0
  4  8  1  0  0  0  0
  4  5  1  0  0  0  0
  5  6  2  0  0  0  0
  5 25  1  0  0  0  0
  6  7  1  0  0  0  0
  6 26  1  0  0  0  0
  7  8  2  0  0  0  0
  7 27  1  0  0  0  0
  9 10  1  0  0  0  0
  9 28  1  0  0  0  0
 10 11  2  0  0  0  0
 10 12  1  0  0  0  0
 12 18  1  0  0  0  0
 12 13  1  0  0  0  0
 12 29  1  0  0  0  0
 13 14  1  0  0  0  0
 13 30  1  0  0  0  0
 13 31  1  0  0  0  0
 14 15  1  0  0  0  0
 14 32  1  0  0  0  0
 14 33  1  0  0  0  0
 15 16  2  0  0  0  0
 15 17  2  0  0  0  0
 15 18  1  0  0  0  0
 18 34  1  0  0  0  0
 18 35  1  0  0  0  0
M  END
> <s_m_source_file>
AV-unprocessed.smi

> <i_m_source_file_index>
1220

> <i_lp_mmshare_version>
43012

> <i_f3d_flags>
0

> <s_epik_input>
bjFbY0hdW2NIXVtjSF1uMVtDSDJdW0NAQEhdKFtDSDNdKVtOSF1DKD1PKVtDQEBIXShbQ0gyXTIpW0NIMl1bQ0gyXVMyKD1PKT1P

> <s_epik_cmdline>
J2VwaWtfcHl0aG9uJywgJy1waCcsICc3LjAnLCAnLXRuJywgJzgnLCAnLW1hJywgJzIwMCcsICctbWV0YWxfYmluZGluZycsICctaW1hZScsICc8aW5maWxlLm1hZT4nLCAnLW9tYWUnLCAnPG91dGZpbGUubWFlPic=

> <r_lp_tautomer_probability>
1

> <r_epik_Ionization_Penalty>
0.000293905

> <r_epik_Ionization_Penalty_Charging>
0

> <r_epik_Ionization_Penalty_Neutral>
0.000293905

> <r_epik_State_Penalty>
-0

> <r_epik_Charging_Adjusted_Penalty>
0

> <i_epik_Tot_Q>
0

> <i_epik_Tot_abs_Q>
0

> <r_epik_Metal_State_Penalty>
-0

> <b_epik_Metal_Only>
0

> <s_lp_Force_Field>
OPLS_2005

> <r_lp_Energy>
3.0384

> <b_lp_Chiralities_Consistent>
1

> <s_lp_Variant>
AV-unprocessed.smi:1220-4

> <Gold.Version>
5.8.1

> <Gold.Id.Protein>
6NUR|6NUR_protein|mol2

> <Gold.PLP.Fitness>
46.8013

> <Gold.PLP.PLP>
-41.2574

> <Gold.PLP.part.hbond>
-2.0000

> <Gold.PLP.part.metal>
0.0000

> <Gold.PLP.part.buried>
-4.9102

> <Gold.PLP.part.nonpolar>
-34.7792

> <Gold.PLP.part.repulsive>
0.3145

> <Gold.PLP.ligand.clash>
0.0000

> <Gold.PLP.ligand.torsion>
0.2513

> <Gold.PLP.Chemscore.Hbond>
2.0000

> <Gold.PLP.Chemscore.CHOScore>
0.0000

> <Gold.PLP.Chemscore.Metal>
0.0000

> <Gold.Chemscore.Hbonds>
donor molecule, donor type, donor heavy atom, donor atom, acceptor molecule, acceptor atom, score
      P1  H  7997  8008       L1    11  1.00
      P1  H 10752 10764       L1    17  1.00

> <Gold.PLP.Chemscore.Internal.Correction>
0.0465

> <Gold.Rescore>
     Score         DG    S(hbond)    S(metal)    S(lipo)     H(rot)  DE(clash)    DE(int)     intcor
     15.84     -17.85       1.95        0.00      88.34       1.75       0.02       1.99       ----

> <Gold.Chemscore.Fitness>
15.8394

> <Gold.Chemscore.DG>
-17.8505

> <Gold.Chemscore.ZeroCoef>
-5.4800

> <Gold.Chemscore.Hbond>
1.9473

> <Gold.Chemscore.Metal>
0.0000

> <Gold.Chemscore.Lipo>
88.3441

> <Gold.Chemscore.Internal_Hbond>
0.0000

> <Gold.Chemscore.DEClash>
0.0202

> <Gold.Chemscore.DEInternal>
1.9908

> <Gold.Chemscore.Rot>
1.7460

> <Gold.Chemscore.Internal.Correction>
   9.000000E+99

> <Gold.Chemscore.Hbonds>
donor molecule, donor type, donor heavy atom, donor atom, acceptor molecule, acceptor atom, score
      P1  H  7997  8008       L1    11  0.70
      P1  H 10752 10764       L1    17  1.00

> <Gold.Chemscore.Hbond.Weighted>
-6.5040

> <Gold.Chemscore.Metal.Weighted>
-0.0000

> <Gold.Chemscore.Lipo.Weighted>
-10.3363

> <Gold.Chemscore.Internal_Hbond.Weighted>
0.0000

> <Gold.Chemscore.DEClash.Weighted>
0.0202

> <Gold.Chemscore.DEInternal.Weighted>
1.9908

> <Gold.Chemscore.Rot.Weighted>
4.4697

> <Gold.Chemscore.Internal.Correction.Weighted>
   9.000000E+99

> <Gold.Protein.RotatedTorsions>
[ 6907 6896 6895 6894 ] final  -89.88 input  -60.11 | X-H torsion
[ 7974 7965 7964 7962 ] final -143.75 input  175.53 | X-H torsion
[ 8008 7997 7996 7995 ] final  -90.41 input   59.86 | X-H torsion
[ 10167 10162 10161 10158 ] final  -81.84 input  -65.29 | X-H torsion
[ 10718 10713 10712 10709 ] final -173.54 input   66.30 | X-H torsion
[ 10763 10752 10751 10750 ] final  -48.86 input  -60.55 | X-H torsion
[ 11005 11000 10999 10996 ] final   48.86 input  -57.11 | X-H torsion

> <Gold.Protein.ActiveResidues>
 VAL166  LYS551  ARG553  GLY616  TRP617  ASP618  TYR619  PRO620  LYS621  CYS622 
 ASP623  PHE694  ASN695  SER759  ASP760  ASP761  ALA762  ILE779  LEU786  VAL792 
 PHE793  MET794  SER795  GLU796  ALA797  LYS798  CYS799  TRP800  GLU811  SER814 

> <Gold.Protein.RotatedAtoms>
  150.6877  134.2518  159.4513 H   0  0  0  0  0  0  0  0  0  0  0  0  # atno 6907 bound_to 6896
  152.0454  134.9683  160.0583 H   0  0  0  0  0  0  0  0  0  0  0  0  # atno 6908 bound_to 6896
  152.1168  133.4296  159.4694 H   0  0  0  0  0  0  0  0  0  0  0  0  # atno 6909 bound_to 6896
  144.8346  140.5795  143.5492 H   0  0  0  0  0  0  0  0  0  0  0  0  # atno 7974 bound_to 7965
  154.6982  140.0531  157.0432 H   0  0  0  0  0  0  0  0  0  0  0  0  # atno 8008 bound_to 7997
  155.0721  140.3200  155.4608 H   0  0  0  0  0  0  0  0  0  0  0  0  # atno 8009 bound_to 7997
  156.2751  140.2080  156.5849 H   0  0  0  0  0  0  0  0  0  0  0  0  # atno 8010 bound_to 7997
  140.4375  143.2526  151.8673 H   0  0  0  0  0  0  0  0  0  0  0  0  # atno 10167 bound_to 10162
  156.7719  130.9451  151.3120 H   0  0  0  0  0  0  0  0  0  0  0  0  # atno 10718 bound_to 10713
  154.0847  135.6586  153.4843 H   0  0  0  0  0  0  0  0  0  0  0  0  # atno 10763 bound_to 10752
  153.0343  135.5188  154.7440 H   0  0  0  0  0  0  0  0  0  0  0  0  # atno 10764 bound_to 10752
  154.6545  135.3006  154.9913 H   0  0  0  0  0  0  0  0  0  0  0  0  # atno 10765 bound_to 10752
  140.1153  134.4900  155.8642 H   0  0  0  0  0  0  0  0  0  0  0  0  # atno 11005 bound_to 11000
  145.4821  139.1494  143.3756 LP  0  0  0  0  0  0  0  0  0  0  0  0  # atno 17320 bound_to 7965
  146.2646  140.4958  142.8839 LP  0  0  0  0  0  0  0  0  0  0  0  0  # atno 17321 bound_to 7965
  139.4787  144.5267  151.8725 LP  0  0  0  0  0  0  0  0  0  0  0  0  # atno 17342 bound_to 10162
  140.4357  144.2055  150.5889 LP  0  0  0  0  0  0  0  0  0  0  0  0  # atno 17343 bound_to 10162
  157.6687  130.9031  149.9990 LP  0  0  0  0  0  0  0  0  0  0  0  0  # atno 17370 bound_to 10713
  156.1273  130.3644  149.9789 LP  0  0  0  0  0  0  0  0  0  0  0  0  # atno 17371 bound_to 10713
  141.2140  133.6741  156.6785 LP  0  0  0  0  0  0  0  0  0  0  0  0  # atno 17394 bound_to 11000
  140.3036  134.8144  157.4118 LP  0  0  0  0  0  0  0  0  0  0  0  0  # atno 17395 bound_to 11000

$$$$
