AV-unprocessed.smi:2078|AV-procd|sdf|8470|dock6
  -GOLD-   2272011173D 1   1.00000     0.00000
 Structure written by MMmdl.
 41 42  0  0  0  0  0  0  0  0  3 V2000
  146.7587  136.0894  162.8504 C   0  0  0  0  0  0  0  0  0  0  0  0
  147.3930  135.9299  161.5110 C   0  0  0  0  0  0  0  0  0  0  0  0
  147.8196  134.8373  160.8109 C   0  0  0  0  0  0  0  0  0  0  0  0
  148.3189  135.3990  159.6044 C   0  0  0  0  0  0  0  0  0  0  0  0
  148.8683  134.7164  158.5880 N   0  5  0  0  0  0  0  0  0  0  0  0
  148.1705  134.5140  157.4472 C   0  0  0  0  0  0  0  0  0  0  0  0
  146.9517  134.3535  157.3516 O   0  0  0  0  0  0  0  0  0  0  0  0
  148.9347  134.4927  156.3471 N   0  0  0  0  0  0  0  0  0  0  0  0
  148.4543  134.2803  154.9883 C   0  0  0  0  0  0  0  0  0  0  0  0
  147.3083  135.2537  154.6726 C   0  0  0  0  0  0  0  0  0  0  0  0
  146.8764  135.1779  153.2543 N   0  3  2  0  0  0  0  0  0  0  0  0
  145.7771  136.1306  152.9523 C   0  0  0  0  0  0  0  0  0  0  0  0
  145.4445  136.1359  151.4520 C   0  0  0  0  0  0  0  0  0  0  0  0
  145.0905  134.7257  150.9641 C   0  0  0  0  0  0  0  0  0  0  0  0
  146.2223  133.7427  151.3079 C   0  0  2  0  0  0  0  0  0  0  0  0
  145.8819  132.3159  150.8548 C   0  0  0  0  0  0  0  0  0  0  0  0
  146.5385  133.7965  152.8167 C   0  0  0  0  0  0  0  0  0  0  0  0
  148.2177  136.7178  159.5803 N   0  0  0  0  0  0  0  0  0  0  0  0
  147.6174  137.0654  160.7965 O   0  0  0  0  0  0  0  0  0  0  0  0
  147.2052  135.4061  163.5727 H   0  0  0  0  0  0  0  0  0  0  0  0
  145.6909  135.8772  162.7984 H   0  0  0  0  0  0  0  0  0  0  0  0
  146.8847  137.1055  163.2252 H   0  0  0  0  0  0  0  0  0  0  0  0
  147.7802  133.8013  161.1127 H   0  0  0  0  0  0  0  0  0  0  0  0
  149.9271  134.6326  156.4701 H   0  0  0  0  0  0  0  0  0  0  0  0
  149.2666  134.4267  154.2744 H   0  0  0  0  0  0  0  0  0  0  0  0
  148.1315  133.2429  154.9031 H   0  0  0  0  0  0  0  0  0  0  0  0
  146.4554  135.0804  155.3309 H   0  0  0  0  0  0  0  0  0  0  0  0
  147.6610  136.2641  154.8855 H   0  0  0  0  0  0  0  0  0  0  0  0
  144.8930  135.8648  153.5345 H   0  0  0  0  0  0  0  0  0  0  0  0
  146.0664  137.1376  153.2555 H   0  0  0  0  0  0  0  0  0  0  0  0
  144.6154  136.8164  151.2561 H   0  0  0  0  0  0  0  0  0  0  0  0
  146.2974  136.5163  150.8883 H   0  0  0  0  0  0  0  0  0  0  0  0
  144.1589  134.4000  151.4293 H   0  0  0  0  0  0  0  0  0  0  0  0
  144.9136  134.7394  149.8881 H   0  0  0  0  0  0  0  0  0  0  0  0
  147.1168  134.0541  150.7659 H   0  0  0  0  0  0  0  0  0  0  0  0
  144.9927  131.9395  151.3615 H   0  0  0  0  0  0  0  0  0  0  0  0
  146.7019  131.6294  151.0680 H   0  0  0  0  0  0  0  0  0  0  0  0
  145.6933  132.2789  149.7814 H   0  0  0  0  0  0  0  0  0  0  0  0
  147.3702  133.1249  153.0264 H   0  0  0  0  0  0  0  0  0  0  0  0
  145.6872  133.4315  153.3939 H   0  0  0  0  0  0  0  0  0  0  0  0
  147.6671  135.4778  152.7020 H   0  0  0  0  0  0  0  0  0  0  0  0
  1  2  1  0  0  0  0
  1 20  1  0  0  0  0
  1 21  1  0  0  0  0
  1 22  1  0  0  0  0
  2 19  1  0  0  0  0
  2  3  2  0  0  0  0
  3  4  1  0  0  0  0
  3 23  1  0  0  0  0
  4  5  1  0  0  0  0
  4 18  2  0  0  0  0
  5  6  1  0  0  0  0
  6  7  2  0  0  0  0
  6  8  1  0  0  0  0
  8  9  1  0  0  0  0
  8 24  1  0  0  0  0
  9 10  1  0  0  0  0
  9 25  1  0  0  0  0
  9 26  1  0  0  0  0
 10 11  1  0  0  0  0
 10 27  1  0  0  0  0
 10 28  1  0  0  0  0
 11 17  1  0  0  0  0
 11 12  1  0  0  0  0
 11 41  1  0  0  0  0
 12 13  1  0  0  0  0
 12 29  1  0  0  0  0
 12 30  1  0  0  0  0
 13 14  1  0  0  0  0
 13 31  1  0  0  0  0
 13 32  1  0  0  0  0
 14 15  1  0  0  0  0
 14 33  1  0  0  0  0
 14 34  1  0  0  0  0
 15 16  1  0  0  0  0
 15 17  1  0  0  0  0
 15 35  1  0  0  0  0
 16 36  1  0  0  0  0
 16 37  1  0  0  0  0
 16 38  1  0  0  0  0
 17 39  1  0  0  0  0
 17 40  1  0  0  0  0
 18 19  1  0  0  0  0
M  CHG  1   5  -1
M  CHG  1  11   1
M  END
> <s_m_source_file>
AV-unprocessed.smi

> <i_m_source_file_index>
2078

> <i_lp_mmshare_version>
43012

> <i_f3d_flags>
0

> <s_epik_input>
W0NIM11jMVtjSF1jKG5vMSlbTkhdQyg9TylbTkhdW0NIMl1bQ0gyXU4yW0NIMl1bQ0gyXVtDSDJdW0NAQEhdKFtDSDNdKVtDSDJdMg==

> <s_epik_cmdline>
J2VwaWtfcHl0aG9uJywgJy1waCcsICc3LjAnLCAnLXRuJywgJzgnLCAnLW1hJywgJzIwMCcsICctbWV0YWxfYmluZGluZycsICctaW1hZScsICc8aW5maWxlLm1hZT4nLCAnLW9tYWUnLCAnPG91dGZpbGUubWFlPic=

> <r_epik_Ionization_Penalty>
6.22434

> <r_epik_Ionization_Penalty_Charging>
6.22425

> <r_epik_Ionization_Penalty_Neutral>
9.37855e-05

> <r_epik_State_Penalty>
6.22423

> <r_epik_Charging_Adjusted_Penalty>
12.4485

> <i_epik_Tot_Q>
0

> <i_epik_Tot_abs_Q>
2

> <r_epik_Metal_State_Penalty>
2.16764

> <b_epik_Metal_Only>
1

> <s_lp_Force_Field>
OPLS_2005

> <r_lp_Energy>
6.03682

> <b_lp_Chiralities_Consistent>
1

> <s_lp_Variant>
AV-unprocessed.smi:2078-8

> <Gold.Version>
5.8.1

> <Gold.Id.Protein>
6NUR|6NUR_protein|mol2

> <Gold.PLP.Fitness>
43.2676

> <Gold.PLP.PLP>
-27.9021

> <Gold.PLP.part.hbond>
-4.0000

> <Gold.PLP.part.metal>
0.0000

> <Gold.PLP.part.buried>
-3.6697

> <Gold.PLP.part.nonpolar>
-20.9318

> <Gold.PLP.part.repulsive>
0.0320

> <Gold.PLP.ligand.clash>
0.0000

> <Gold.PLP.ligand.torsion>
0.9804

> <Gold.PLP.Chemscore.Hbond>
5.7600

> <Gold.PLP.Chemscore.CHOScore>
0.0000

> <Gold.PLP.Chemscore.Metal>
0.0000

> <Gold.Chemscore.Hbonds>
donor molecule, donor type, donor heavy atom, donor atom, acceptor molecule, acceptor atom, score
      L1  H    11    41       P1  7948  2.00
      P1  H  6896  6908       L1     5  2.00
      P1  H  6931  6943       L1    19  0.61
      P1  H  6934  6947       L1    19  0.98

> <Gold.PLP.Chemscore.Internal.Correction>
0.0462

> <Gold.Rescore>
     Score         DG    S(hbond)    S(metal)    S(lipo)     H(rot)  DE(clash)    DE(int)     intcor
     15.90     -18.27       2.85        0.00      61.58       1.54       0.00       2.37       ----

> <Gold.Chemscore.Fitness>
15.8994

> <Gold.Chemscore.DG>
-18.2689

> <Gold.Chemscore.ZeroCoef>
-5.4800

> <Gold.Chemscore.Hbond>
2.8529

> <Gold.Chemscore.Metal>
0.0000

> <Gold.Chemscore.Lipo>
61.5796

> <Gold.Chemscore.Internal_Hbond>
0.0000

> <Gold.Chemscore.DEClash>
0.0038

> <Gold.Chemscore.DEInternal>
2.3656

> <Gold.Chemscore.Rot>
1.5409

> <Gold.Chemscore.Internal.Correction>
   9.000000E+99

> <Gold.Chemscore.Hbonds>
donor molecule, donor type, donor heavy atom, donor atom, acceptor molecule, acceptor atom, score
      L1  H    11    41       P1  7948  1.00
      P1  H  6896  6908       L1     5  0.33
      P1  H  6931  6943       L1    19  0.23
      P1  H  6934  6947       L1    19  0.76

> <Gold.Chemscore.Hbond.Weighted>
-9.5287

> <Gold.Chemscore.Metal.Weighted>
-0.0000

> <Gold.Chemscore.Lipo.Weighted>
-7.2048

> <Gold.Chemscore.Internal_Hbond.Weighted>
0.0000

> <Gold.Chemscore.DEClash.Weighted>
0.0038

> <Gold.Chemscore.DEInternal.Weighted>
2.3656

> <Gold.Chemscore.Rot.Weighted>
3.9446

> <Gold.Chemscore.Internal.Correction.Weighted>
   9.000000E+99

> <Gold.Protein.RotatedTorsions>
[ 6907 6896 6895 6894 ] final  142.28 input  -60.11 | X-H torsion
[ 7974 7965 7964 7962 ] final  -20.41 input  175.53 | X-H torsion
[ 8008 7997 7996 7995 ] final    6.48 input   59.86 | X-H torsion
[ 10167 10162 10161 10158 ] final   21.15 input  -65.29 | X-H torsion
[ 10718 10713 10712 10709 ] final   95.78 input   66.30 | X-H torsion
[ 10763 10752 10751 10750 ] final  -20.32 input  -60.55 | X-H torsion
[ 11005 11000 10999 10996 ] final  103.12 input  -57.11 | X-H torsion

> <Gold.Protein.ActiveResidues>
 VAL166  LYS551  ARG553  GLY616  TRP617  ASP618  TYR619  PRO620  LYS621  CYS622 
 ASP623  PHE694  ASN695  SER759  ASP760  ASP761  ALA762  ILE779  LEU786  VAL792 
 PHE793  MET794  SER795  GLU796  ALA797  LYS798  CYS799  TRP800  GLU811  SER814 

> <Gold.Protein.RotatedAtoms>
  152.2207  133.4981  159.5160 H   0  0  0  0  0  0  0  0  0  0  0  0  # atno 6907 bound_to 6896
  150.7012  134.1346  159.4091 H   0  0  0  0  0  0  0  0  0  0  0  0  # atno 6908 bound_to 6896
  151.9267  135.0274  160.0577 H   0  0  0  0  0  0  0  0  0  0  0  0  # atno 6909 bound_to 6896
  146.1790  140.4198  142.8502 H   0  0  0  0  0  0  0  0  0  0  0  0  # atno 7974 bound_to 7965
  154.7415  140.2750  155.6369 H   0  0  0  0  0  0  0  0  0  0  0  0  # atno 8008 bound_to 7997
  156.2875  140.2696  156.2069 H   0  0  0  0  0  0  0  0  0  0  0  0  # atno 8009 bound_to 7997
  155.0252  140.0371  157.2443 H   0  0  0  0  0  0  0  0  0  0  0  0  # atno 8010 bound_to 7997
  140.5448  143.9613  150.6541 H   0  0  0  0  0  0  0  0  0  0  0  0  # atno 10167 bound_to 10162
  157.6935  131.0557  150.4392 H   0  0  0  0  0  0  0  0  0  0  0  0  # atno 10718 bound_to 10713
  153.6186  135.6993  153.5319 H   0  0  0  0  0  0  0  0  0  0  0  0  # atno 10763 bound_to 10752
  153.2957  135.4144  155.1206 H   0  0  0  0  0  0  0  0  0  0  0  0  # atno 10764 bound_to 10752
  154.8548  135.3636  154.5726 H   0  0  0  0  0  0  0  0  0  0  0  0  # atno 10765 bound_to 10752
  139.8781  134.9251  156.5161 H   0  0  0  0  0  0  0  0  0  0  0  0  # atno 11005 bound_to 11000
  144.8283  140.6664  143.6308 LP  0  0  0  0  0  0  0  0  0  0  0  0  # atno 17320 bound_to 7965
  145.4131  139.1576  143.4115 LP  0  0  0  0  0  0  0  0  0  0  0  0  # atno 17321 bound_to 7965
  140.3023  143.3252  152.0959 LP  0  0  0  0  0  0  0  0  0  0  0  0  # atno 17342 bound_to 10162
  139.5003  144.6689  151.6291 LP  0  0  0  0  0  0  0  0  0  0  0  0  # atno 17343 bound_to 10162
  156.4752  130.4061  149.6494 LP  0  0  0  0  0  0  0  0  0  0  0  0  # atno 17370 bound_to 10713
  156.3560  130.7457  151.2423 LP  0  0  0  0  0  0  0  0  0  0  0  0  # atno 17371 bound_to 10713
  140.8484  133.8151  155.9144 LP  0  0  0  0  0  0  0  0  0  0  0  0  # atno 17394 bound_to 11000
  140.9168  134.2191  157.4951 LP  0  0  0  0  0  0  0  0  0  0  0  0  # atno 17395 bound_to 11000

$$$$
