AV-unprocessed.smi:1982|AV-procd|sdf|8022|dock6
  -GOLD-   2272010213D 1   1.00000     0.00000
 Structure written by MMmdl.
 36 37  0  0  0  0  0  0  0  0  1 V2000
  151.6460  145.4173  160.3598 C   0  0  0  0  0  0  0  0  0  0  0  0
  151.7231  143.8825  160.4597 C   0  0  2  0  0  0  0  0  0  0  0  0
  152.9657  143.4822  161.2806 C   0  0  0  0  0  0  0  0  0  0  0  0
  153.0795  141.9622  161.4407 C   0  0  0  0  0  0  0  0  0  0  0  0
  153.1192  141.2779  160.0712 C   0  0  0  0  0  0  0  0  0  0  0  0
  151.8840  141.6433  159.2277 C   0  0  2  0  0  0  0  0  0  0  0  0
  151.9953  141.0138  157.9147 N   0  0  0  0  0  0  0  0  0  0  0  0
  150.9810  140.7742  157.0689 C   0  0  0  0  0  0  0  0  0  0  0  0
  149.8008  140.9889  157.3426 O   0  0  0  0  0  0  0  0  0  0  0  0
  151.3580  140.2146  155.6960 C   0  0  0  0  0  0  0  0  0  0  0  0
  151.8561  138.8546  155.8051 N   0  0  0  0  0  0  0  0  0  0  0  0
  151.3797  137.7041  155.3244 C   0  0  0  0  0  0  0  0  0  0  0  0
  152.1628  136.6828  155.6361 N   0  0  0  0  0  0  0  0  0  0  0  0
  153.1819  137.2772  156.3611 N   0  0  0  0  0  0  0  0  0  0  0  0
  153.0052  138.5655  156.4652 N   0  0  0  0  0  0  0  0  0  0  0  0
  151.7173  143.1794  159.0725 C   0  0  1  0  0  0  0  0  0  0  0  0
  150.4512  143.5188  158.2541 C   0  0  0  0  0  0  0  0  0  0  0  0
  152.4502  145.8159  159.7407 H   0  0  0  0  0  0  0  0  0  0  0  0
  151.7286  145.8783  161.3446 H   0  0  0  0  0  0  0  0  0  0  0  0
  150.6989  145.7516  159.9383 H   0  0  0  0  0  0  0  0  0  0  0  0
  150.8436  143.5466  161.0115 H   0  0  0  0  0  0  0  0  0  0  0  0
  153.8661  143.8651  160.7983 H   0  0  0  0  0  0  0  0  0  0  0  0
  152.9263  143.9443  162.2676 H   0  0  0  0  0  0  0  0  0  0  0  0
  153.9772  141.7134  162.0073 H   0  0  0  0  0  0  0  0  0  0  0  0
  152.2332  141.5866  162.0174 H   0  0  0  0  0  0  0  0  0  0  0  0
  154.0288  141.5719  159.5450 H   0  0  0  0  0  0  0  0  0  0  0  0
  153.1759  140.1970  160.2060 H   0  0  0  0  0  0  0  0  0  0  0  0
  150.9959  141.2619  159.7362 H   0  0  0  0  0  0  0  0  0  0  0  0
  152.9296  140.7932  157.6006 H   0  0  0  0  0  0  0  0  0  0  0  0
  150.4887  140.2357  155.0371 H   0  0  0  0  0  0  0  0  0  0  0  0
  152.1301  140.8325  155.2361 H   0  0  0  0  0  0  0  0  0  0  0  0
  150.4738  137.6179  154.7429 H   0  0  0  0  0  0  0  0  0  0  0  0
  152.5768  143.5505  158.5112 H   0  0  0  0  0  0  0  0  0  0  0  0
  149.5471  143.2151  158.7826 H   0  0  0  0  0  0  0  0  0  0  0  0
  150.4462  143.0228  157.2834 H   0  0  0  0  0  0  0  0  0  0  0  0
  150.3750  144.5854  158.0470 H   0  0  0  0  0  0  0  0  0  0  0  0
  1  2  1  0  0  0  0
  1 18  1  0  0  0  0
  1 19  1  0  0  0  0
  1 20  1  0  0  0  0
  2 16  1  0  0  0  0
  2  3  1  0  0  0  0
  2 21  1  0  0  0  0
  3  4  1  0  0  0  0
  3 22  1  0  0  0  0
  3 23  1  0  0  0  0
  4  5  1  0  0  0  0
  4 24  1  0  0  0  0
  4 25  1  0  0  0  0
  5  6  1  0  0  0  0
  5 26  1  0  0  0  0
  5 27  1  0  0  0  0
  6  7  1  0  0  0  0
  6 16  1  0  0  0  0
  6 28  1  0  0  0  0
  7  8  1  0  0  0  0
  7 29  1  0  0  0  0
  8  9  2  0  0  0  0
  8 10  1  0  0  0  0
 10 11  1  0  0  0  0
 10 30  1  0  0  0  0
 10 31  1  0  0  0  0
 11 15  1  0  0  0  0
 11 12  1  0  0  0  0
 12 13  2  0  0  0  0
 12 32  1  0  0  0  0
 13 14  1  0  0  0  0
 14 15  2  0  0  0  0
 16 17  1  0  0  0  0
 16 33  1  0  0  0  0
 17 34  1  0  0  0  0
 17 35  1  0  0  0  0
 17 36  1  0  0  0  0
M  END
> <s_m_source_file>
AV-unprocessed.smi

> <i_m_source_file_index>
1982

> <i_lp_mmshare_version>
43012

> <i_f3d_flags>
0

> <s_epik_input>
W0NIM11bQ0BASF0xW0NIMl1bQ0gyXVtDSDJdW0NASF0oW0NASF0xW0NIM10pW05IXUMoPU8pW0NIMl1uMltjSF1ubm4y

> <s_epik_cmdline>
J2VwaWtfcHl0aG9uJywgJy1waCcsICc3LjAnLCAnLXRuJywgJzgnLCAnLW1hJywgJzIwMCcsICctbWV0YWxfYmluZGluZycsICctaW1hZScsICc8aW5maWxlLm1hZT4nLCAnLW9tYWUnLCAnPG91dGZpbGUubWFlPic=

> <r_lp_tautomer_probability>
1

> <r_epik_Ionization_Penalty>
5.03816e-07

> <r_epik_Ionization_Penalty_Charging>
0

> <r_epik_Ionization_Penalty_Neutral>
5.03816e-07

> <r_epik_State_Penalty>
-0

> <r_epik_Charging_Adjusted_Penalty>
0

> <i_epik_Tot_Q>
0

> <i_epik_Tot_abs_Q>
0

> <r_epik_Metal_State_Penalty>
-0

> <b_epik_Metal_Only>
0

> <s_lp_Force_Field>
OPLS_2005

> <r_lp_Energy>
13.7929

> <b_lp_Chiralities_Consistent>
1

> <s_lp_Variant>
AV-unprocessed.smi:1982-3

> <Gold.Version>
5.8.1

> <Gold.Id.Protein>
6NUR|6NUR_protein|mol2

> <Gold.PLP.Fitness>
39.9072

> <Gold.PLP.PLP>
-34.7231

> <Gold.PLP.part.hbond>
-2.9207

> <Gold.PLP.part.metal>
0.0000

> <Gold.PLP.part.buried>
-3.4390

> <Gold.PLP.part.nonpolar>
-28.8253

> <Gold.PLP.part.repulsive>
0.1731

> <Gold.PLP.ligand.clash>
0.0000

> <Gold.PLP.ligand.torsion>
0.3518

> <Gold.PLP.Chemscore.Hbond>
1.9600

> <Gold.PLP.Chemscore.CHOScore>
0.0000

> <Gold.PLP.Chemscore.Metal>
0.0000

> <Gold.Chemscore.Hbonds>
donor molecule, donor type, donor heavy atom, donor atom, acceptor molecule, acceptor atom, score
      P1  H  7997  8009       L1    15  1.00
      P1  H 10752 10764       L1    13  1.00

> <Gold.PLP.Chemscore.Internal.Correction>
0.0077

> <Gold.Rescore>
     Score         DG    S(hbond)    S(metal)    S(lipo)     H(rot)  DE(clash)    DE(int)     intcor
     14.48     -16.35       1.60        0.00      88.87       1.91       0.35       1.52       ----

> <Gold.Chemscore.Fitness>
14.4822

> <Gold.Chemscore.DG>
-16.3549

> <Gold.Chemscore.ZeroCoef>
-5.4800

> <Gold.Chemscore.Hbond>
1.6034

> <Gold.Chemscore.Metal>
0.0000

> <Gold.Chemscore.Lipo>
88.8738

> <Gold.Chemscore.Internal_Hbond>
0.0000

> <Gold.Chemscore.DEClash>
0.3526

> <Gold.Chemscore.DEInternal>
1.5200

> <Gold.Chemscore.Rot>
1.9058

> <Gold.Chemscore.Internal.Correction>
   9.000000E+99

> <Gold.Chemscore.Hbonds>
donor molecule, donor type, donor heavy atom, donor atom, acceptor molecule, acceptor atom, score
      P1  H  7997  8009       L1    15  0.83
      P1  H 10752 10764       L1    13  0.25

> <Gold.Chemscore.Hbond.Weighted>
-5.3555

> <Gold.Chemscore.Metal.Weighted>
-0.0000

> <Gold.Chemscore.Lipo.Weighted>
-10.3982

> <Gold.Chemscore.Internal_Hbond.Weighted>
0.0000

> <Gold.Chemscore.DEClash.Weighted>
0.3526

> <Gold.Chemscore.DEInternal.Weighted>
1.5200

> <Gold.Chemscore.Rot.Weighted>
4.8788

> <Gold.Chemscore.Internal.Correction.Weighted>
   9.000000E+99

> <Gold.Protein.RotatedTorsions>
[ 6907 6896 6895 6894 ] final   29.05 input  -60.11 | X-H torsion
[ 7974 7965 7964 7962 ] final  118.77 input  175.53 | X-H torsion
[ 8008 7997 7996 7995 ] final -171.97 input   59.86 | X-H torsion
[ 10167 10162 10161 10158 ] final  102.81 input  -65.29 | X-H torsion
[ 10718 10713 10712 10709 ] final  -18.66 input   66.30 | X-H torsion
[ 10763 10752 10751 10750 ] final  -46.96 input  -60.55 | X-H torsion
[ 11005 11000 10999 10996 ] final  -80.48 input  -57.11 | X-H torsion

> <Gold.Protein.ActiveResidues>
 VAL166  LYS551  ARG553  GLY616  TRP617  ASP618  TYR619  PRO620  LYS621  CYS622 
 ASP623  PHE694  ASN695  SER759  ASP760  ASP761  ALA762  ILE779  LEU786  VAL792 
 PHE793  MET794  SER795  GLU796  ALA797  LYS798  CYS799  TRP800  GLU811  SER814 

> <Gold.Protein.RotatedAtoms>
  152.0258  134.9796  160.0571 H   0  0  0  0  0  0  0  0  0  0  0  0  # atno 6907 bound_to 6896
  152.1292  133.4393  159.4721 H   0  0  0  0  0  0  0  0  0  0  0  0  # atno 6908 bound_to 6896
  150.6855  134.2359  159.4496 H   0  0  0  0  0  0  0  0  0  0  0  0  # atno 6909 bound_to 6896
  145.1512  139.3209  143.4566 H   0  0  0  0  0  0  0  0  0  0  0  0  # atno 7974 bound_to 7965
  155.9385  140.1104  157.1075 H   0  0  0  0  0  0  0  0  0  0  0  0  # atno 8008 bound_to 7997
  154.4084  140.1223  156.4962 H   0  0  0  0  0  0  0  0  0  0  0  0  # atno 8009 bound_to 7997
  155.6991  140.3472  155.4928 H   0  0  0  0  0  0  0  0  0  0  0  0  # atno 8010 bound_to 7997
  139.7317  144.7034  151.0711 H   0  0  0  0  0  0  0  0  0  0  0  0  # atno 10167 bound_to 10162
  156.5564  130.4714  149.6427 H   0  0  0  0  0  0  0  0  0  0  0  0  # atno 10718 bound_to 10713
  154.0535  135.6628  153.4803 H   0  0  0  0  0  0  0  0  0  0  0  0  # atno 10763 bound_to 10752
  153.0454  135.5118  154.7728 H   0  0  0  0  0  0  0  0  0  0  0  0  # atno 10764 bound_to 10752
  154.6742  135.3034  154.9668 H   0  0  0  0  0  0  0  0  0  0  0  0  # atno 10765 bound_to 10752
  141.1668  133.7152  156.8279 H   0  0  0  0  0  0  0  0  0  0  0  0  # atno 11005 bound_to 11000
  146.3494  140.1587  142.8591 LP  0  0  0  0  0  0  0  0  0  0  0  0  # atno 17320 bound_to 7965
  145.0429  140.8959  143.5042 LP  0  0  0  0  0  0  0  0  0  0  0  0  # atno 17321 bound_to 7965
  140.7772  143.5035  150.9742 LP  0  0  0  0  0  0  0  0  0  0  0  0  # atno 17342 bound_to 10162
  139.8723  143.7177  152.3165 LP  0  0  0  0  0  0  0  0  0  0  0  0  # atno 17343 bound_to 10162
  156.2838  130.7086  151.1917 LP  0  0  0  0  0  0  0  0  0  0  0  0  # atno 17370 bound_to 10713
  157.7377  131.0548  150.5338 LP  0  0  0  0  0  0  0  0  0  0  0  0  # atno 17371 bound_to 10713
  140.2072  134.8854  157.3234 LP  0  0  0  0  0  0  0  0  0  0  0  0  # atno 17394 bound_to 11000
  140.2125  134.4121  155.7605 LP  0  0  0  0  0  0  0  0  0  0  0  0  # atno 17395 bound_to 11000

$$$$
