AV-unprocessed.smi:101|AV-procd|sdf|937|dock4
  -GOLD-   2262017453D 1   1.00000     0.00000
 Structure written by MMmdl.
 43 45  0  0  0  0  0  0  0  0  2 V2000
  146.1566  144.0873  159.1231 C   0  0  0  0  0  0  0  0  0  0  0  0
  145.8413  142.8759  158.2629 C   0  0  0  0  0  0  0  0  0  0  0  0
  146.7746  142.2815  157.4868 C   0  0  0  0  0  0  0  0  0  0  0  0
  146.4851  141.1739  156.7066 N   0  0  0  0  0  0  0  0  0  0  0  0
  147.5442  140.4983  155.8518 C   0  0  2  0  0  0  0  0  0  0  0  0
  148.7093  140.3190  156.6029 O   0  0  0  0  0  0  0  0  0  0  0  0
  149.6874  141.2728  156.2058 C   0  0  1  0  0  0  0  0  0  0  0  0
  151.0921  140.8414  156.6470 C   0  0  0  0  0  0  0  0  0  0  0  0
  151.2997  141.2994  157.9726 O   0  0  0  0  0  0  0  0  0  0  0  0
  152.4149  140.9603  158.6447 C   0  0  0  0  0  0  0  0  0  0  0  0
  153.1737  140.0532  158.2968 O   0  0  0  0  0  0  0  0  0  0  0  0
  152.6329  141.8000  159.8580 C   0  0  0  0  0  0  0  0  0  0  0  0
  151.9727  143.0462  159.9677 C   0  0  0  0  0  0  0  0  0  0  0  0
  152.1605  143.8600  161.1020 C   0  0  0  0  0  0  0  0  0  0  0  0
  153.0099  143.4372  162.1408 C   0  0  0  0  0  0  0  0  0  0  0  0
  153.6726  142.1998  162.0439 C   0  0  0  0  0  0  0  0  0  0  0  0
  153.4873  141.3851  160.9101 C   0  0  0  0  0  0  0  0  0  0  0  0
  149.4566  141.3827  154.6973 C   0  0  1  0  0  0  0  0  0  0  0  0
  150.0579  140.2958  154.0178 O   0  0  0  0  0  0  0  0  0  0  0  0
  147.9373  141.3135  154.5910 C   0  0  2  0  0  0  0  0  0  0  0  0
  147.4086  142.6282  154.5668 O   0  0  0  0  0  0  0  0  0  0  0  0
  145.1739  140.6306  156.7238 C   0  0  0  0  0  0  0  0  0  0  0  0
  144.9506  139.6446  156.0207 O   0  0  0  0  0  0  0  0  0  0  0  0
  144.2255  141.2243  157.5020 N   0  5  0  0  0  0  0  0  0  0  0  0
  144.4830  142.3198  158.2728 C   0  0  0  0  0  0  0  0  0  0  0  0
  143.6163  142.8480  158.9687 O   0  0  0  0  0  0  0  0  0  0  0  0
  147.1938  144.4010  159.0022 H   0  0  0  0  0  0  0  0  0  0  0  0
  145.9936  143.8583  160.1768 H   0  0  0  0  0  0  0  0  0  0  0  0
  145.5166  144.9266  158.8492 H   0  0  0  0  0  0  0  0  0  0  0  0
  147.7721  142.6922  157.4898 H   0  0  0  0  0  0  0  0  0  0  0  0
  147.1408  139.5107  155.6211 H   0  0  0  0  0  0  0  0  0  0  0  0
  149.4476  142.2381  156.6551 H   0  0  0  0  0  0  0  0  0  0  0  0
  151.1998  139.7574  156.5868 H   0  0  0  0  0  0  0  0  0  0  0  0
  151.8447  141.2887  155.9965 H   0  0  0  0  0  0  0  0  0  0  0  0
  151.3156  143.3916  159.1824 H   0  0  0  0  0  0  0  0  0  0  0  0
  151.6519  144.8101  161.1741 H   0  0  0  0  0  0  0  0  0  0  0  0
  153.1534  144.0610  163.0107 H   0  0  0  0  0  0  0  0  0  0  0  0
  154.3253  141.8735  162.8404 H   0  0  0  0  0  0  0  0  0  0  0  0
  154.0122  140.4416  160.8682 H   0  0  0  0  0  0  0  0  0  0  0  0
  149.8678  142.3066  154.2878 H   0  0  0  0  0  0  0  0  0  0  0  0
  149.6323  140.1982  153.1796 H   0  0  0  0  0  0  0  0  0  0  0  0
  147.6041  140.7902  153.6938 H   0  0  0  0  0  0  0  0  0  0  0  0
  148.0004  143.1926  155.0420 H   0  0  0  0  0  0  0  0  0  0  0  0
  1  2  1  0  0  0  0
  1 27  1  0  0  0  0
  1 28  1  0  0  0  0
  1 29  1  0  0  0  0
  2 25  1  0  0  0  0
  2  3  2  0  0  0  0
  3  4  1  0  0  0  0
  3 30  1  0  0  0  0
  4  5  1  0  0  0  0
  4 22  1  0  0  0  0
  5 20  1  0  0  0  0
  5  6  1  0  0  0  0
  5 31  1  0  0  0  0
  6  7  1  0  0  0  0
  7  8  1  0  0  0  0
  7 18  1  0  0  0  0
  7 32  1  0  0  0  0
  8  9  1  0  0  0  0
  8 33  1  0  0  0  0
  8 34  1  0  0  0  0
  9 10  1  0  0  0  0
 10 11  2  0  0  0  0
 10 12  1  0  0  0  0
 12 17  1  0  0  0  0
 12 13  2  0  0  0  0
 13 14  1  0  0  0  0
 13 35  1  0  0  0  0
 14 15  2  0  0  0  0
 14 36  1  0  0  0  0
 15 16  1  0  0  0  0
 15 37  1  0  0  0  0
 16 17  2  0  0  0  0
 16 38  1  0  0  0  0
 17 39  1  0  0  0  0
 18 19  1  0  0  0  0
 18 20  1  0  0  0  0
 18 40  1  0  0  0  0
 19 41  1  0  0  0  0
 20 21  1  0  0  0  0
 20 42  1  0  0  0  0
 21 43  1  0  0  0  0
 22 23  2  0  0  0  0
 22 24  1  0  0  0  0
 24 25  1  0  0  0  0
 25 26  2  0  0  0  0
M  CHG  1  24  -1
M  END
> <s_m_source_file>
AV-unprocessed.smi

> <i_m_source_file_index>
101

> <i_lp_mmshare_version>
43012

> <i_f3d_flags>
0

> <s_epik_input>
Tz1jMVtuSF1jKD1PKW4oW2NIXWMxW0NIM10pW0NAQEhdMk9bQ0BIXShbQ0BASF0oW09IXSlbQ0BIXTJbT0hdKVtDSDJdT0MoPU8pYzNbY0hdW2NIXVtjSF1bY0hdW2NIXTM=

> <s_epik_cmdline>
J2VwaWtfcHl0aG9uJywgJy1waCcsICc3LjAnLCAnLXRuJywgJzgnLCAnLW1hJywgJzIwMCcsICctbWV0YWxfYmluZGluZycsICctaW1hZScsICc8aW5maWxlLm1hZT4nLCAnLW9tYWUnLCAnPG91dGZpbGUubWFlPic=

> <r_lp_tautomer_probability>
0.999537

> <r_epik_Ionization_Penalty>
3.21006

> <r_epik_Ionization_Penalty_Charging>
5.75142e-08

> <r_epik_Ionization_Penalty_Neutral>
3.21006

> <r_epik_State_Penalty>
3.20925

> <r_epik_Charging_Adjusted_Penalty>
3.20925

> <i_epik_Tot_Q>
-1

> <i_epik_Tot_abs_Q>
1

> <r_epik_Metal_State_Penalty>
0.119957

> <b_epik_Metal_Only>
1

> <s_epik_Chemistry_Notes>
This compound has an ester and may undergo hydrolysis at high or low pH. This compound contains an acetal/aminal-like group ( X-CH(R)-Y where X, Y are N, S, or O) that may be acid/base labile, releasing an aldehyde.

> <s_lp_Force_Field>
OPLS_2005

> <r_lp_Energy>
45.504

> <b_lp_Chiralities_Consistent>
1

> <s_lp_Variant>
AV-unprocessed.smi:101-25

> <Gold.Version>
5.8.1

> <Gold.Id.Protein>
6NUR|6NUR_protein|mol2

> <Gold.PLP.Fitness>
51.8412

> <Gold.PLP.PLP>
-42.1052

> <Gold.PLP.part.hbond>
-4.0000

> <Gold.PLP.part.metal>
0.0000

> <Gold.PLP.part.buried>
-6.2964

> <Gold.PLP.part.nonpolar>
-31.9261

> <Gold.PLP.part.repulsive>
0.0924

> <Gold.PLP.ligand.clash>
0.0000

> <Gold.PLP.ligand.torsion>
0.9133

> <Gold.PLP.Chemscore.Hbond>
3.7840

> <Gold.PLP.Chemscore.CHOScore>
0.0000

> <Gold.PLP.Chemscore.Metal>
0.0000

> <Gold.Chemscore.Hbonds>
donor molecule, donor type, donor heavy atom, donor atom, acceptor molecule, acceptor atom, score
      L1  H    19    41       P1  7957  1.00
      L1  H    21    43       P1  8028  1.00
      P1  H  7989  7998       L1    19  0.79
      P1  H  7997  8010       L1    11  1.00
      L1  C     3    30       P1  8028  0.01

> <Gold.PLP.Chemscore.Internal.Correction>
0.2107

> <Gold.Rescore>
     Score         DG    S(hbond)    S(metal)    S(lipo)     H(rot)  DE(clash)    DE(int)     intcor
     17.45     -18.70       3.11        0.00      95.66       3.27       0.05       1.19       ----

> <Gold.Chemscore.Fitness>
17.4546

> <Gold.Chemscore.DG>
-18.6960

> <Gold.Chemscore.ZeroCoef>
-5.4800

> <Gold.Chemscore.Hbond>
3.1088

> <Gold.Chemscore.Metal>
0.0000

> <Gold.Chemscore.Lipo>
95.6627

> <Gold.Chemscore.Internal_Hbond>
0.0000

> <Gold.Chemscore.DEClash>
0.0495

> <Gold.Chemscore.DEInternal>
1.1920

> <Gold.Chemscore.Rot>
3.2656

> <Gold.Chemscore.Internal.Correction>
   9.000000E+99

> <Gold.Chemscore.Hbonds>
donor molecule, donor type, donor heavy atom, donor atom, acceptor molecule, acceptor atom, score
      L1  H    19    41       P1  7957  0.91
      L1  H    21    43       P1  8028  0.85
      P1  H  7989  7998       L1    19  0.10
      P1  H  7997  8010       L1    11  0.96

> <Gold.Chemscore.Hbond.Weighted>
-10.3833

> <Gold.Chemscore.Metal.Weighted>
-0.0000

> <Gold.Chemscore.Lipo.Weighted>
-11.1925

> <Gold.Chemscore.Internal_Hbond.Weighted>
0.0000

> <Gold.Chemscore.DEClash.Weighted>
0.0495

> <Gold.Chemscore.DEInternal.Weighted>
1.1920

> <Gold.Chemscore.Rot.Weighted>
8.3598

> <Gold.Chemscore.Internal.Correction.Weighted>
   9.000000E+99

> <Gold.Protein.RotatedTorsions>
[ 6907 6896 6895 6894 ] final -144.63 input  -60.11 | X-H torsion
[ 7974 7965 7964 7962 ] final  -35.47 input  175.53 | X-H torsion
[ 8008 7997 7996 7995 ] final   38.85 input   59.86 | X-H torsion
[ 10167 10162 10161 10158 ] final   71.50 input  -65.29 | X-H torsion
[ 10718 10713 10712 10709 ] final   60.10 input   66.30 | X-H torsion
[ 10763 10752 10751 10750 ] final -127.10 input  -60.55 | X-H torsion
[ 11005 11000 10999 10996 ] final -176.36 input  -57.11 | X-H torsion

> <Gold.Protein.ActiveResidues>
 VAL166  LYS551  ARG553  GLY616  TRP617  ASP618  TYR619  PRO620  LYS621  CYS622 
 ASP623  PHE694  ASN695  SER759  ASP760  ASP761  ALA762  ILE779  LEU786  VAL792 
 PHE793  MET794  SER795  GLU796  ALA797  LYS798  CYS799  TRP800  GLU811  SER814 

> <Gold.Protein.RotatedAtoms>
  151.1167  133.5133  159.2603 H   0  0  0  0  0  0  0  0  0  0  0  0  # atno 6907 bound_to 6896
  151.1906  135.0400  159.8841 H   0  0  0  0  0  0  0  0  0  0  0  0  # atno 6908 bound_to 6896
  152.5453  134.1008  159.8370 H   0  0  0  0  0  0  0  0  0  0  0  0  # atno 6909 bound_to 6896
  146.0744  140.6162  142.8937 H   0  0  0  0  0  0  0  0  0  0  0  0  # atno 7974 bound_to 7965
  155.2269  140.3335  155.4308 H   0  0  0  0  0  0  0  0  0  0  0  0  # atno 8008 bound_to 7997
  156.2311  140.1851  156.7287 H   0  0  0  0  0  0  0  0  0  0  0  0  # atno 8009 bound_to 7997
  154.5979  140.0628  156.9313 H   0  0  0  0  0  0  0  0  0  0  0  0  # atno 8010 bound_to 7997
  140.0454  144.5355  150.7402 H   0  0  0  0  0  0  0  0  0  0  0  0  # atno 10167 bound_to 10162
  157.5727  130.8920  149.9294 H   0  0  0  0  0  0  0  0  0  0  0  0  # atno 10718 bound_to 10713
  154.8750  135.3973  154.3539 H   0  0  0  0  0  0  0  0  0  0  0  0  # atno 10763 bound_to 10752
  153.4321  135.7025  153.6229 H   0  0  0  0  0  0  0  0  0  0  0  0  # atno 10764 bound_to 10752
  153.4847  135.3761  155.2430 H   0  0  0  0  0  0  0  0  0  0  0  0  # atno 10765 bound_to 10752
  140.4529  134.6326  157.4809 H   0  0  0  0  0  0  0  0  0  0  0  0  # atno 11005 bound_to 11000
  144.7252  140.4501  143.6978 LP  0  0  0  0  0  0  0  0  0  0  0  0  # atno 17320 bound_to 7965
  145.6333  139.1539  143.2957 LP  0  0  0  0  0  0  0  0  0  0  0  0  # atno 17321 bound_to 7965
  140.7241  143.2618  151.4180 LP  0  0  0  0  0  0  0  0  0  0  0  0  # atno 17342 bound_to 10162
  139.5987  144.1343  152.2173 LP  0  0  0  0  0  0  0  0  0  0  0  0  # atno 17343 bound_to 10162
  156.0772  130.3677  150.0654 LP  0  0  0  0  0  0  0  0  0  0  0  0  # atno 17370 bound_to 10713
  156.8805  130.9555  151.3600 LP  0  0  0  0  0  0  0  0  0  0  0  0  # atno 17371 bound_to 10713
  139.9995  134.6859  155.9554 LP  0  0  0  0  0  0  0  0  0  0  0  0  # atno 17394 bound_to 11000
  141.1656  133.6537  156.4467 LP  0  0  0  0  0  0  0  0  0  0  0  0  # atno 17395 bound_to 11000

$$$$
