AV-unprocessed.smi:1971|AV-procd|sdf|7964|dock6
  -GOLD-   2272010133D 1   1.00000     0.00000
 Structure written by MMmdl.
 44 45  0  0  0  0  0  0  0  0  2 V2000
  143.6729  132.9377  151.1666 C   0  0  0  0  0  0  0  0  0  0  0  0
  144.0019  134.3454  151.6844 C   0  0  0  0  0  0  0  0  0  0  0  0
  145.2832  134.8350  151.1695 N   0  0  0  0  0  0  0  0  0  0  0  0
  145.5674  136.2085  151.5942 C   0  0  0  0  0  0  0  0  0  0  0  0
  145.9073  136.2919  153.0972 C   0  0  0  0  0  0  0  0  0  0  0  0
  147.0746  135.4260  153.4088 N   0  3  0  0  0  0  0  0  0  0  0  0
  147.6157  135.5376  154.7955 C   0  0  2  0  0  0  0  0  0  0  0  0
  148.7997  134.5811  155.0610 C   0  0  0  0  0  0  0  0  0  0  0  0
  146.4844  135.3863  155.8348 C   0  0  0  0  0  0  0  0  0  0  0  0
  146.7918  136.0895  157.0762 N   0  0  0  0  0  0  0  0  0  0  0  0
  146.7742  135.5270  158.2925 C   0  0  0  0  0  0  0  0  0  0  0  0
  146.4763  134.3484  158.4875 O   0  0  0  0  0  0  0  0  0  0  0  0
  147.1179  136.4106  159.2462 N   0  0  0  0  0  0  0  0  0  0  0  0
  147.2670  136.1818  160.6397 C   0  0  0  0  0  0  0  0  0  0  0  0
  147.5969  137.1268  161.5280 N   0  0  0  0  0  0  0  0  0  0  0  0
  147.6656  136.6226  162.8293 C   0  0  0  0  0  0  0  0  0  0  0  0
  147.3828  135.2820  162.9142 C   0  0  0  0  0  0  0  0  0  0  0  0
  147.0142  134.5960  161.3542 S   0  0  0  0  0  0  0  0  0  0  0  0
  146.8079  134.0302  152.9801 C   0  0  0  0  0  0  0  0  0  0  0  0
  146.4414  133.9902  151.4816 C   0  0  0  0  0  0  0  0  0  0  0  0
  142.6592  132.6559  151.4518 H   0  0  0  0  0  0  0  0  0  0  0  0
  144.3430  132.1827  151.5766 H   0  0  0  0  0  0  0  0  0  0  0  0
  143.7325  132.8915  150.0787 H   0  0  0  0  0  0  0  0  0  0  0  0
  143.2149  135.0189  151.3427 H   0  0  0  0  0  0  0  0  0  0  0  0
  143.9708  134.3629  152.7732 H   0  0  0  0  0  0  0  0  0  0  0  0
  146.4053  136.5887  151.0082 H   0  0  0  0  0  0  0  0  0  0  0  0
  144.7161  136.8494  151.3614 H   0  0  0  0  0  0  0  0  0  0  0  0
  146.1309  137.3283  153.3471 H   0  0  0  0  0  0  0  0  0  0  0  0
  145.0430  136.0068  153.6973 H   0  0  0  0  0  0  0  0  0  0  0  0
  147.9926  136.5557  154.9042 H   0  0  0  0  0  0  0  0  0  0  0  0
  149.2696  134.7927  156.0216 H   0  0  0  0  0  0  0  0  0  0  0  0
  149.5766  134.6781  154.3030 H   0  0  0  0  0  0  0  0  0  0  0  0
  148.4808  133.5390  155.0836 H   0  0  0  0  0  0  0  0  0  0  0  0
  145.5505  135.7845  155.4358 H   0  0  0  0  0  0  0  0  0  0  0  0
  146.3112  134.3313  156.0503 H   0  0  0  0  0  0  0  0  0  0  0  0
  147.0420  137.0649  157.0037 H   0  0  0  0  0  0  0  0  0  0  0  0
  147.3116  137.3526  158.9404 H   0  0  0  0  0  0  0  0  0  0  0  0
  147.9239  137.2905  163.6376 H   0  0  0  0  0  0  0  0  0  0  0  0
  147.3681  134.6598  163.7966 H   0  0  0  0  0  0  0  0  0  0  0  0
  147.7004  133.4241  153.1391 H   0  0  0  0  0  0  0  0  0  0  0  0
  146.0193  133.5843  153.5859 H   0  0  0  0  0  0  0  0  0  0  0  0
  146.2655  132.9643  151.1606 H   0  0  0  0  0  0  0  0  0  0  0  0
  147.2901  134.3436  150.8945 H   0  0  0  0  0  0  0  0  0  0  0  0
  147.8207  135.7449  152.8075 H   0  0  0  0  0  0  0  0  0  0  0  0
  1  2  1  0  0  0  0
  1 21  1  0  0  0  0
  1 22  1  0  0  0  0
  1 23  1  0  0  0  0
  2  3  1  0  0  0  0
  2 24  1  0  0  0  0
  2 25  1  0  0  0  0
  3 20  1  0  0  0  0
  3  4  1  0  0  0  0
  4  5  1  0  0  0  0
  4 26  1  0  0  0  0
  4 27  1  0  0  0  0
  5  6  1  0  0  0  0
  5 28  1  0  0  0  0
  5 29  1  0  0  0  0
  6  7  1  0  0  0  0
  6 19  1  0  0  0  0
  6 44  1  0  0  0  0
  7  8  1  0  0  0  0
  7  9  1  0  0  0  0
  7 30  1  0  0  0  0
  8 31  1  0  0  0  0
  8 32  1  0  0  0  0
  8 33  1  0  0  0  0
  9 10  1  0  0  0  0
  9 34  1  0  0  0  0
  9 35  1  0  0  0  0
 10 11  1  0  0  0  0
 10 36  1  0  0  0  0
 11 12  2  0  0  0  0
 11 13  1  0  0  0  0
 13 14  1  0  0  0  0
 13 37  1  0  0  0  0
 14 18  1  0  0  0  0
 14 15  2  0  0  0  0
 15 16  1  0  0  0  0
 16 17  2  0  0  0  0
 16 38  1  0  0  0  0
 17 18  1  0  0  0  0
 17 39  1  0  0  0  0
 19 20  1  0  0  0  0
 19 40  1  0  0  0  0
 19 41  1  0  0  0  0
 20 42  1  0  0  0  0
 20 43  1  0  0  0  0
M  CHG  1   6   1
M  END
> <s_m_source_file>
AV-unprocessed.smi

> <i_m_source_file_index>
1971

> <i_lp_mmshare_version>
43012

> <i_f3d_flags>
0

> <s_epik_input>
W0NIM11bQ0gyXU4xW0NIMl1bQ0gyXU4oW0NIMl1bQ0gyXTEpW0NASF0oW0NIM10pW0NIMl1bTkhdQyg9TylbTkhdYzJuW2NIXVtjSF1zMg==

> <s_epik_cmdline>
J2VwaWtfcHl0aG9uJywgJy1waCcsICc3LjAnLCAnLXRuJywgJzgnLCAnLW1hJywgJzIwMCcsICctbWV0YWxfYmluZGluZycsICctaW1hZScsICc8aW5maWxlLm1hZT4nLCAnLW9tYWUnLCAnPG91dGZpbGUubWFlPic=

> <r_epik_Ionization_Penalty>
0.150098

> <r_epik_Ionization_Penalty_Charging>
0.148467

> <r_epik_Ionization_Penalty_Neutral>
0.00163072

> <r_epik_State_Penalty>
0.974087

> <r_epik_Charging_Adjusted_Penalty>
1.12255

> <i_epik_Tot_Q>
1

> <i_epik_Tot_abs_Q>
1

> <r_epik_Metal_State_Penalty>
1.00741

> <b_epik_Metal_Only>
0

> <s_lp_Force_Field>
OPLS_2005

> <r_lp_Energy>
20.3005

> <b_lp_Chiralities_Consistent>
1

> <s_lp_Variant>
AV-unprocessed.smi:1971-3

> <Gold.Version>
5.8.1

> <Gold.Id.Protein>
6NUR|6NUR_protein|mol2

> <Gold.PLP.Fitness>
40.1540

> <Gold.PLP.PLP>
-30.9593

> <Gold.PLP.part.hbond>
-3.0000

> <Gold.PLP.part.metal>
0.0000

> <Gold.PLP.part.buried>
-3.2430

> <Gold.PLP.part.nonpolar>
-23.9452

> <Gold.PLP.part.repulsive>
0.2587

> <Gold.PLP.ligand.clash>
0.0000

> <Gold.PLP.ligand.torsion>
0.4084

> <Gold.PLP.Chemscore.Hbond>
3.2956

> <Gold.PLP.Chemscore.CHOScore>
0.0000

> <Gold.PLP.Chemscore.Metal>
0.0000

> <Gold.Chemscore.Hbonds>
donor molecule, donor type, donor heavy atom, donor atom, acceptor molecule, acceptor atom, score
      L1  H     6    44       P1  7948  2.00
      P1  H  6931  6943       L1    15  0.45
      P1  H  6934  6947       L1    15  0.82

> <Gold.PLP.Chemscore.Internal.Correction>
0.1245

> <Gold.Rescore>
     Score         DG    S(hbond)    S(metal)    S(lipo)     H(rot)  DE(clash)    DE(int)     intcor
     13.61     -15.21       1.96        0.00      66.49       1.79       0.00       1.60       ----

> <Gold.Chemscore.Fitness>
13.6073

> <Gold.Chemscore.DG>
-15.2059

> <Gold.Chemscore.ZeroCoef>
-5.4800

> <Gold.Chemscore.Hbond>
1.9577

> <Gold.Chemscore.Metal>
0.0000

> <Gold.Chemscore.Lipo>
66.4873

> <Gold.Chemscore.Internal_Hbond>
0.0000

> <Gold.Chemscore.DEClash>
0.0015

> <Gold.Chemscore.DEInternal>
1.5971

> <Gold.Chemscore.Rot>
1.7937

> <Gold.Chemscore.Internal.Correction>
   9.000000E+99

> <Gold.Chemscore.Hbonds>
donor molecule, donor type, donor heavy atom, donor atom, acceptor molecule, acceptor atom, score
      L1  H     6    44       P1  7948  0.94
      P1  H  6931  6943       L1    15  0.02
      P1  H  6934  6947       L1    15  0.69

> <Gold.Chemscore.Hbond.Weighted>
-6.5388

> <Gold.Chemscore.Metal.Weighted>
-0.0000

> <Gold.Chemscore.Lipo.Weighted>
-7.7790

> <Gold.Chemscore.Internal_Hbond.Weighted>
0.0000

> <Gold.Chemscore.DEClash.Weighted>
0.0015

> <Gold.Chemscore.DEInternal.Weighted>
1.5971

> <Gold.Chemscore.Rot.Weighted>
4.5919

> <Gold.Chemscore.Internal.Correction.Weighted>
   9.000000E+99

> <Gold.Protein.RotatedTorsions>
[ 6907 6896 6895 6894 ] final -179.92 input  -60.11 | X-H torsion
[ 7974 7965 7964 7962 ] final  161.84 input  175.53 | X-H torsion
[ 8008 7997 7996 7995 ] final  -17.15 input   59.86 | X-H torsion
[ 10167 10162 10161 10158 ] final  -40.00 input  -65.29 | X-H torsion
[ 10718 10713 10712 10709 ] final   77.19 input   66.30 | X-H torsion
[ 10763 10752 10751 10750 ] final   85.17 input  -60.55 | X-H torsion
[ 11005 11000 10999 10996 ] final  -82.58 input  -57.11 | X-H torsion

> <Gold.Protein.ActiveResidues>
 VAL166  LYS551  ARG553  GLY616  TRP617  ASP618  TYR619  PRO620  LYS621  CYS622 
 ASP623  PHE694  ASN695  SER759  ASP760  ASP761  ALA762  ILE779  LEU786  VAL792 
 PHE793  MET794  SER795  GLU796  ALA797  LYS798  CYS799  TRP800  GLU811  SER814 

> <Gold.Protein.RotatedAtoms>
  151.6612  133.3317  159.3174 H   0  0  0  0  0  0  0  0  0  0  0  0  # atno 6907 bound_to 6896
  150.7912  134.6941  159.6523 H   0  0  0  0  0  0  0  0  0  0  0  0  # atno 6908 bound_to 6896
  152.3992  134.6318  160.0129 H   0  0  0  0  0  0  0  0  0  0  0  0  # atno 6909 bound_to 6896
  144.7666  139.7954  143.6313 H   0  0  0  0  0  0  0  0  0  0  0  0  # atno 7974 bound_to 7965
  154.4999  140.2150  155.9368 H   0  0  0  0  0  0  0  0  0  0  0  0  # atno 8008 bound_to 7997
  156.1420  140.3178  155.8478 H   0  0  0  0  0  0  0  0  0  0  0  0  # atno 8009 bound_to 7997
  155.4102  140.0490  157.3023 H   0  0  0  0  0  0  0  0  0  0  0  0  # atno 8010 bound_to 7997
  140.7047  143.3180  151.2862 H   0  0  0  0  0  0  0  0  0  0  0  0  # atno 10167 bound_to 10162
  157.6701  130.9810  150.1605 H   0  0  0  0  0  0  0  0  0  0  0  0  # atno 10718 bound_to 10713
  153.1450  135.4627  154.9552 H   0  0  0  0  0  0  0  0  0  0  0  0  # atno 10763 bound_to 10752
  154.7778  135.3179  154.8056 H   0  0  0  0  0  0  0  0  0  0  0  0  # atno 10764 bound_to 10752
  153.8572  135.6916  153.4840 H   0  0  0  0  0  0  0  0  0  0  0  0  # atno 10765 bound_to 10752
  141.1662  133.7251  156.8592 H   0  0  0  0  0  0  0  0  0  0  0  0  # atno 11005 bound_to 11000
  146.1778  139.4957  142.9886 LP  0  0  0  0  0  0  0  0  0  0  0  0  # atno 17320 bound_to 7965
  145.6452  141.0275  143.1790 LP  0  0  0  0  0  0  0  0  0  0  0  0  # atno 17321 bound_to 7965
  139.6625  144.0164  152.2701 LP  0  0  0  0  0  0  0  0  0  0  0  0  # atno 17342 bound_to 10162
  139.9736  144.6477  150.7966 LP  0  0  0  0  0  0  0  0  0  0  0  0  # atno 17343 bound_to 10162
  156.2383  130.3688  149.8366 LP  0  0  0  0  0  0  0  0  0  0  0  0  # atno 17370 bound_to 10713
  156.6173  130.8612  151.3468 LP  0  0  0  0  0  0  0  0  0  0  0  0  # atno 17371 bound_to 10713
  140.1860  134.8999  157.3005 LP  0  0  0  0  0  0  0  0  0  0  0  0  # atno 17394 bound_to 11000
  140.2342  134.3873  155.7508 LP  0  0  0  0  0  0  0  0  0  0  0  0  # atno 17395 bound_to 11000

$$$$
