AV-unprocessed.smi:2671|AV-procd|sdf|10350|dock4
  -GOLD-   2272014373D 1   1.00000     0.00000
 Structure written by MMmdl.
 29 30  0  0  0  0  0  0  0  0  1 V2000
  154.3592  140.0544  160.2373 O   0  0  0  0  0  0  0  0  0  0  0  0
  153.5721  140.7033  159.5518 C   0  0  0  0  0  0  0  0  0  0  0  0
  153.1453  142.0468  159.9603 C   0  0  0  0  0  0  0  0  0  0  0  0
  152.2869  142.7385  159.1846 C   0  0  0  0  0  0  0  0  0  0  0  0
  151.7777  144.1263  159.5397 C   0  0  0  0  0  0  0  0  0  0  0  0
  152.2373  145.0249  158.6694 F   0  0  0  0  0  0  0  0  0  0  0  0
  150.4460  144.1498  159.4961 F   0  0  0  0  0  0  0  0  0  0  0  0
  152.1619  144.4948  160.7636 F   0  0  0  0  0  0  0  0  0  0  0  0
  151.7983  142.1811  158.0153 N   0  0  0  0  0  0  0  0  0  0  0  0
  152.2145  140.9055  157.6476 C   0  0  0  0  0  0  0  0  0  0  0  0
  151.4671  140.3472  156.0755 S   0  0  0  0  0  0  0  0  0  0  0  0
  150.0486  141.4612  155.8292 C   0  0  0  0  0  0  0  0  0  0  0  0
  149.3120  141.1536  154.5191 C   0  0  2  0  0  0  0  0  0  0  0  0
  147.9473  141.8304  154.4053 C   0  0  0  0  0  0  0  0  0  0  0  0
  147.2449  140.9285  153.4168 C   0  0  0  0  0  0  0  0  0  0  0  0
  147.7451  139.5516  153.8441 C   0  0  0  0  0  0  0  0  0  0  0  0
  149.0395  139.7589  154.4048 O   0  0  0  0  0  0  0  0  0  0  0  0
  153.0464  140.1940  158.3530 N   0  0  0  0  0  0  0  0  0  0  0  0
  151.1451  142.7266  157.4717 H   0  0  0  0  0  0  0  0  0  0  0  0
  153.5184  142.4764  160.8785 H   0  0  0  0  0  0  0  0  0  0  0  0
  150.4085  142.4904  155.8098 H   0  0  0  0  0  0  0  0  0  0  0  0
  149.3614  141.3666  156.6708 H   0  0  0  0  0  0  0  0  0  0  0  0
  149.9251  141.4468  153.6654 H   0  0  0  0  0  0  0  0  0  0  0  0
  147.4250  141.8109  155.3628 H   0  0  0  0  0  0  0  0  0  0  0  0
  148.0116  142.8661  154.0706 H   0  0  0  0  0  0  0  0  0  0  0  0
  146.1587  141.0172  153.4486 H   0  0  0  0  0  0  0  0  0  0  0  0
  147.5782  141.1526  152.4025 H   0  0  0  0  0  0  0  0  0  0  0  0
  147.0979  139.1343  154.6163 H   0  0  0  0  0  0  0  0  0  0  0  0
  147.7792  138.8465  153.0134 H   0  0  0  0  0  0  0  0  0  0  0  0
  1  2  2  0  0  0  0
  2 18  1  0  0  0  0
  2  3  1  0  0  0  0
  3 20  1  0  0  0  0
  3  4  2  0  0  0  0
  4  5  1  0  0  0  0
  4  9  1  0  0  0  0
  5  6  1  0  0  0  0
  5  7  1  0  0  0  0
  5  8  1  0  0  0  0
  9 10  1  0  0  0  0
  9 19  1  0  0  0  0
 10 11  1  0  0  0  0
 10 18  2  0  0  0  0
 11 12  1  0  0  0  0
 12 13  1  0  0  0  0
 12 21  1  0  0  0  0
 12 22  1  0  0  0  0
 13 17  1  0  0  0  0
 13 14  1  0  0  0  0
 13 23  1  0  0  0  0
 14 15  1  0  0  0  0
 14 24  1  0  0  0  0
 14 25  1  0  0  0  0
 15 16  1  0  0  0  0
 15 26  1  0  0  0  0
 15 27  1  0  0  0  0
 16 17  1  0  0  0  0
 16 28  1  0  0  0  0
 16 29  1  0  0  0  0
M  END
> <s_m_source_file>
AV-unprocessed.smi

> <i_m_source_file_index>
2671

> <i_lp_mmshare_version>
43012

> <i_f3d_flags>
0

> <s_epik_input>
W09IXWMxW2NIXWMoQyhGKShGKUYpbmMobjEpU1tDSDJdW0NAQEhdMltDSDJdW0NIMl1bQ0gyXU8y

> <s_epik_cmdline>
J2VwaWtfcHl0aG9uJywgJy1waCcsICc3LjAnLCAnLXRuJywgJzgnLCAnLW1hJywgJzIwMCcsICctbWV0YWxfYmluZGluZycsICctaW1hZScsICc8aW5maWxlLm1hZT4nLCAnLW9tYWUnLCAnPG91dGZpbGUubWFlPic=

> <r_lp_tautomer_probability>
0.273662

> <r_epik_Ionization_Penalty>
1.33793

> <r_epik_Ionization_Penalty_Charging>
1.33793

> <r_epik_Ionization_Penalty_Neutral>
8.2996e-08

> <r_epik_State_Penalty>
1.59174

> <r_epik_Charging_Adjusted_Penalty>
2.92967

> <i_epik_Tot_Q>
0

> <i_epik_Tot_abs_Q>
0

> <r_epik_Metal_State_Penalty>
2.31522

> <b_epik_Metal_Only>
0

> <s_lp_Force_Field>
OPLS_2005

> <r_lp_Energy>
28.2074

> <b_lp_Chiralities_Consistent>
1

> <s_lp_Variant>
AV-unprocessed.smi:2671-5

> <Gold.Version>
5.8.1

> <Gold.Id.Protein>
6NUR|6NUR_protein|mol2

> <Gold.PLP.Fitness>
44.6410

> <Gold.PLP.PLP>
-42.6533

> <Gold.PLP.part.hbond>
-1.0000

> <Gold.PLP.part.metal>
0.0000

> <Gold.PLP.part.buried>
-5.0326

> <Gold.PLP.part.nonpolar>
-36.6036

> <Gold.PLP.part.repulsive>
0.1849

> <Gold.PLP.ligand.clash>
0.0000

> <Gold.PLP.ligand.torsion>
0.4788

> <Gold.PLP.Chemscore.Hbond>
0.9760

> <Gold.PLP.Chemscore.CHOScore>
0.0000

> <Gold.PLP.Chemscore.Metal>
0.0000

> <Gold.Chemscore.Hbonds>
donor molecule, donor type, donor heavy atom, donor atom, acceptor molecule, acceptor atom, score
      P1  H  7997  8010       L1    18  0.92

> <Gold.PLP.Chemscore.Internal.Correction>
0.0172

> <Gold.Rescore>
     Score         DG    S(hbond)    S(metal)    S(lipo)     H(rot)  DE(clash)    DE(int)     intcor
     10.56     -11.09       0.38        0.00      74.18       1.69       0.17       0.35       ----

> <Gold.Chemscore.Fitness>
10.5636

> <Gold.Chemscore.DG>
-11.0884

> <Gold.Chemscore.ZeroCoef>
-5.4800

> <Gold.Chemscore.Hbond>
0.3779

> <Gold.Chemscore.Metal>
0.0000

> <Gold.Chemscore.Lipo>
74.1758

> <Gold.Chemscore.Internal_Hbond>
0.0000

> <Gold.Chemscore.DEClash>
0.1723

> <Gold.Chemscore.DEInternal>
0.3525

> <Gold.Chemscore.Rot>
1.6924

> <Gold.Chemscore.Internal.Correction>
   9.000000E+99

> <Gold.Chemscore.Hbonds>
donor molecule, donor type, donor heavy atom, donor atom, acceptor molecule, acceptor atom, score
      P1  H  7997  8010       L1    18  0.12

> <Gold.Chemscore.Hbond.Weighted>
-1.2623

> <Gold.Chemscore.Metal.Weighted>
-0.0000

> <Gold.Chemscore.Lipo.Weighted>
-8.6786

> <Gold.Chemscore.Internal_Hbond.Weighted>
0.0000

> <Gold.Chemscore.DEClash.Weighted>
0.1723

> <Gold.Chemscore.DEInternal.Weighted>
0.3525

> <Gold.Chemscore.Rot.Weighted>
4.3324

> <Gold.Chemscore.Internal.Correction.Weighted>
   9.000000E+99

> <Gold.Protein.RotatedTorsions>
[ 6907 6896 6895 6894 ] final   39.49 input  -60.11 | X-H torsion
[ 7974 7965 7964 7962 ] final    1.58 input  175.53 | X-H torsion
[ 8008 7997 7996 7995 ] final   36.66 input   59.86 | X-H torsion
[ 10167 10162 10161 10158 ] final   26.51 input  -65.29 | X-H torsion
[ 10718 10713 10712 10709 ] final  -68.53 input   66.30 | X-H torsion
[ 10763 10752 10751 10750 ] final   28.26 input  -60.55 | X-H torsion
[ 11005 11000 10999 10996 ] final   26.69 input  -57.11 | X-H torsion

> <Gold.Protein.ActiveResidues>
 VAL166  LYS551  ARG553  GLY616  TRP617  ASP618  TYR619  PRO620  LYS621  CYS622 
 ASP623  PHE694  ASN695  SER759  ASP760  ASP761  ALA762  ILE779  LEU786  VAL792 
 PHE793  MET794  SER795  GLU796  ALA797  LYS798  CYS799  TRP800  GLU811  SER814 

> <Gold.Protein.RotatedAtoms>
  152.1702  134.8840  160.0534 H   0  0  0  0  0  0  0  0  0  0  0  0  # atno 6907 bound_to 6896
  151.9803  133.3750  159.4113 H   0  0  0  0  0  0  0  0  0  0  0  0  # atno 6908 bound_to 6896
  150.6900  134.3969  159.5145 H   0  0  0  0  0  0  0  0  0  0  0  0  # atno 6909 bound_to 6896
  146.2441  140.0966  142.8349 H   0  0  0  0  0  0  0  0  0  0  0  0  # atno 7974 bound_to 7965
  155.1910  140.3308  155.4358 H   0  0  0  0  0  0  0  0  0  0  0  0  # atno 8008 bound_to 7997
  156.2442  140.1910  156.6953 H   0  0  0  0  0  0  0  0  0  0  0  0  # atno 8009 bound_to 7997
  154.6206  140.0596  156.9596 H   0  0  0  0  0  0  0  0  0  0  0  0  # atno 8010 bound_to 7997
  140.5016  144.0305  150.6335 H   0  0  0  0  0  0  0  0  0  0  0  0  # atno 10167 bound_to 10162
  156.0500  130.4296  150.2015 H   0  0  0  0  0  0  0  0  0  0  0  0  # atno 10718 bound_to 10713
  153.0503  135.6517  154.0710 H   0  0  0  0  0  0  0  0  0  0  0  0  # atno 10763 bound_to 10752
  154.0400  135.2904  155.3358 H   0  0  0  0  0  0  0  0  0  0  0  0  # atno 10764 bound_to 10752
  154.6788  135.5328  153.8301 H   0  0  0  0  0  0  0  0  0  0  0  0  # atno 10765 bound_to 10752
  140.3343  134.2403  155.7698 H   0  0  0  0  0  0  0  0  0  0  0  0  # atno 11005 bound_to 11000
  145.0605  140.9084  143.4942 LP  0  0  0  0  0  0  0  0  0  0  0  0  # atno 17320 bound_to 7965
  145.1080  139.2776  143.5652 LP  0  0  0  0  0  0  0  0  0  0  0  0  # atno 17321 bound_to 7965
  140.3603  143.2912  152.0391 LP  0  0  0  0  0  0  0  0  0  0  0  0  # atno 17342 bound_to 10162
  139.4873  144.6308  151.7074 LP  0  0  0  0  0  0  0  0  0  0  0  0  # atno 17343 bound_to 10162
  157.0099  130.9948  151.3368 LP  0  0  0  0  0  0  0  0  0  0  0  0  # atno 17370 bound_to 10713
  157.5417  130.8124  149.8037 LP  0  0  0  0  0  0  0  0  0  0  0  0  # atno 17371 bound_to 10713
  141.2055  133.7857  157.0227 LP  0  0  0  0  0  0  0  0  0  0  0  0  # atno 17394 bound_to 11000
  140.0834  134.9635  157.1662 LP  0  0  0  0  0  0  0  0  0  0  0  0  # atno 17395 bound_to 11000

$$$$
