AV-unprocessed.smi:3328|AV-procd|sdf|12791|dock1
  -GOLD-   2272019143D 1   1.00000     0.00000
 Structure written by MMmdl.
 41 42  0  0  0  0  0  0  0  0  2 V2000
  144.6664  134.7091  150.5019 C   0  0  0  0  0  0  0  0  0  0  0  0
  145.3018  135.7964  151.3192 C   0  0  0  0  0  0  0  0  0  0  0  0
  145.6408  135.7658  152.7017 C   0  0  0  0  0  0  0  0  0  0  0  0
  146.1823  136.8971  153.1231 N   0  0  0  0  0  0  0  0  0  0  0  0
  146.2097  137.6859  152.0278 N   0  0  0  0  0  0  0  0  0  0  0  0
  146.7264  139.0388  152.1277 C   0  0  0  0  0  0  0  0  0  0  0  0
  147.5885  139.2614  153.3897 C   0  0  2  0  0  0  0  0  0  0  0  0
  147.7220  140.7592  153.6965 C   0  0  0  0  0  0  0  0  0  0  0  0
  148.9364  138.6694  153.2286 N   0  3  0  0  0  0  0  0  0  0  0  0
  149.6590  138.4096  154.4913 C   0  0  0  0  0  0  0  0  0  0  0  0
  150.9914  139.1724  154.5261 C   0  0  0  0  0  0  0  0  0  0  0  0
  151.0199  140.1613  155.6002 N   0  0  0  0  0  0  0  0  0  0  0  0
  150.0872  141.2757  155.6108 C   0  0  0  0  0  0  0  0  0  0  0  0
  150.3330  141.9912  156.9474 C   0  0  0  0  0  0  0  0  0  0  0  0
  151.6427  141.4151  157.4973 C   0  0  0  0  0  0  0  0  0  0  0  0
  151.8998  140.2109  156.6079 C   0  0  0  0  0  0  0  0  0  0  0  0
  152.8096  139.4092  156.8153 O   0  0  0  0  0  0  0  0  0  0  0  0
  145.6904  137.0448  150.9233 C   0  0  0  0  0  0  0  0  0  0  0  0
  144.2771  133.9062  151.1283 H   0  0  0  0  0  0  0  0  0  0  0  0
  145.3782  134.2603  149.8088 H   0  0  0  0  0  0  0  0  0  0  0  0
  143.8327  135.0858  149.9092 H   0  0  0  0  0  0  0  0  0  0  0  0
  145.5031  134.9612  153.4091 H   0  0  0  0  0  0  0  0  0  0  0  0
  147.2989  139.2672  151.2268 H   0  0  0  0  0  0  0  0  0  0  0  0
  145.8751  139.7207  152.1327 H   0  0  0  0  0  0  0  0  0  0  0  0
  147.0938  138.7986  154.2457 H   0  0  0  0  0  0  0  0  0  0  0  0
  146.7442  141.2170  153.8507 H   0  0  0  0  0  0  0  0  0  0  0  0
  148.2121  141.2907  152.8798 H   0  0  0  0  0  0  0  0  0  0  0  0
  148.3075  140.9248  154.6015 H   0  0  0  0  0  0  0  0  0  0  0  0
  148.8377  137.8000  152.7234 H   0  0  0  0  0  0  0  0  0  0  0  0
  149.0287  138.7073  155.3301 H   0  0  0  0  0  0  0  0  0  0  0  0
  149.8418  137.3410  154.5982 H   0  0  0  0  0  0  0  0  0  0  0  0
  151.8193  138.4746  154.6636 H   0  0  0  0  0  0  0  0  0  0  0  0
  151.1621  139.6690  153.5698 H   0  0  0  0  0  0  0  0  0  0  0  0
  150.3023  141.9351  154.7689 H   0  0  0  0  0  0  0  0  0  0  0  0
  149.0561  140.9307  155.5209 H   0  0  0  0  0  0  0  0  0  0  0  0
  150.3863  143.0730  156.8199 H   0  0  0  0  0  0  0  0  0  0  0  0
  149.5163  141.7839  157.6403 H   0  0  0  0  0  0  0  0  0  0  0  0
  152.4643  142.1246  157.3952 H   0  0  0  0  0  0  0  0  0  0  0  0
  151.5577  141.1256  158.5451 H   0  0  0  0  0  0  0  0  0  0  0  0
  145.6318  137.5281  149.9592 H   0  0  0  0  0  0  0  0  0  0  0  0
  149.5001  139.2995  152.6761 H   0  0  0  0  0  0  0  0  0  0  0  0
  1  2  1  0  0  0  0
  1 19  1  0  0  0  0
  1 20  1  0  0  0  0
  1 21  1  0  0  0  0
  2 18  2  0  0  0  0
  2  3  1  0  0  0  0
  3  4  2  0  0  0  0
  3 22  1  0  0  0  0
  4  5  1  0  0  0  0
  5  6  1  0  0  0  0
  5 18  1  0  0  0  0
  6  7  1  0  0  0  0
  6 23  1  0  0  0  0
  6 24  1  0  0  0  0
  7  8  1  0  0  0  0
  7  9  1  0  0  0  0
  7 25  1  0  0  0  0
  8 26  1  0  0  0  0
  8 27  1  0  0  0  0
  8 28  1  0  0  0  0
  9 10  1  0  0  0  0
  9 29  1  0  0  0  0
  9 41  1  0  0  0  0
 10 11  1  0  0  0  0
 10 30  1  0  0  0  0
 10 31  1  0  0  0  0
 11 12  1  0  0  0  0
 11 32  1  0  0  0  0
 11 33  1  0  0  0  0
 12 16  1  0  0  0  0
 12 13  1  0  0  0  0
 13 14  1  0  0  0  0
 13 34  1  0  0  0  0
 13 35  1  0  0  0  0
 14 15  1  0  0  0  0
 14 36  1  0  0  0  0
 14 37  1  0  0  0  0
 15 16  1  0  0  0  0
 15 38  1  0  0  0  0
 15 39  1  0  0  0  0
 16 17  2  0  0  0  0
 18 40  1  0  0  0  0
M  CHG  1   9   1
M  END
> <s_m_source_file>
AV-unprocessed.smi

> <i_m_source_file_index>
3328

> <i_lp_mmshare_version>
43012

> <i_f3d_flags>
0

> <s_epik_input>
W0NIM11jMVtjSF1ubihbY0hdMSlbQ0gyXVtDQEhdKFtDSDNdKVtOSF1bQ0gyXVtDSDJdTjJbQ0gyXVtDSDJdW0NIMl1DMj1P

> <s_epik_cmdline>
J2VwaWtfcHl0aG9uJywgJy1waCcsICc3LjAnLCAnLXRuJywgJzgnLCAnLW1hJywgJzIwMCcsICctbWV0YWxfYmluZGluZycsICctaW1hZScsICc8aW5maWxlLm1hZT4nLCAnLW9tYWUnLCAnPG91dGZpbGUubWFlPic=

> <r_lp_tautomer_probability>
1

> <r_epik_Ionization_Penalty>
0.00826719

> <r_epik_Ionization_Penalty_Charging>
0.00825899

> <r_epik_Ionization_Penalty_Neutral>
8.19932e-06

> <r_epik_State_Penalty>
0.00621436

> <r_epik_Charging_Adjusted_Penalty>
0.0144734

> <i_epik_Tot_Q>
1

> <i_epik_Tot_abs_Q>
1

> <r_epik_Metal_State_Penalty>
0.00621509

> <b_epik_Metal_Only>
0

> <s_lp_Force_Field>
OPLS_2005

> <r_lp_Energy>
18.6505

> <b_lp_Chiralities_Consistent>
1

> <s_lp_Variant>
AV-unprocessed.smi:3328-1

> <Gold.Version>
5.8.1

> <Gold.Id.Protein>
6NUR|6NUR_protein|mol2

> <Gold.PLP.Fitness>
47.9917

> <Gold.PLP.PLP>
-36.9268

> <Gold.PLP.part.hbond>
-3.0000

> <Gold.PLP.part.metal>
0.0000

> <Gold.PLP.part.buried>
4.2338

> <Gold.PLP.part.nonpolar>
-37.7524

> <Gold.PLP.part.repulsive>
0.3695

> <Gold.PLP.ligand.clash>
0.0000

> <Gold.PLP.ligand.torsion>
1.3108

> <Gold.PLP.Chemscore.Hbond>
3.8640

> <Gold.PLP.Chemscore.CHOScore>
0.6244

> <Gold.PLP.Chemscore.Metal>
0.0000

> <Gold.Chemscore.Hbonds>
donor molecule, donor type, donor heavy atom, donor atom, acceptor molecule, acceptor atom, score
      L1  H     9    29       P1  7948  2.00
      L1  H     9    41       P1  7957  0.86
      P1  H  7997  8010       L1    17  1.00
      L1  C    18    40       P1 10171  0.62

> <Gold.PLP.Chemscore.Internal.Correction>
0.2212

> <Gold.Rescore>
     Score         DG    S(hbond)    S(metal)    S(lipo)     H(rot)  DE(clash)    DE(int)     intcor
     17.15     -18.49       2.89        0.00      71.67       1.97       0.06       1.27       ----

> <Gold.Chemscore.Fitness>
17.1519

> <Gold.Chemscore.DG>
-18.4872

> <Gold.Chemscore.ZeroCoef>
-5.4800

> <Gold.Chemscore.Hbond>
2.8949

> <Gold.Chemscore.Metal>
0.0000

> <Gold.Chemscore.Lipo>
71.6678

> <Gold.Chemscore.Internal_Hbond>
0.0000

> <Gold.Chemscore.DEClash>
0.0606

> <Gold.Chemscore.DEInternal>
1.2747

> <Gold.Chemscore.Rot>
1.9714

> <Gold.Chemscore.Internal.Correction>
   9.000000E+99

> <Gold.Chemscore.Hbonds>
donor molecule, donor type, donor heavy atom, donor atom, acceptor molecule, acceptor atom, score
      L1  H     9    29       P1  7948  1.00
      L1  H     9    41       P1  7957  0.85
      P1  H  7997  8010       L1    17  0.93

> <Gold.Chemscore.Hbond.Weighted>
-9.6689

> <Gold.Chemscore.Metal.Weighted>
-0.0000

> <Gold.Chemscore.Lipo.Weighted>
-8.3851

> <Gold.Chemscore.Internal_Hbond.Weighted>
0.0000

> <Gold.Chemscore.DEClash.Weighted>
0.0606

> <Gold.Chemscore.DEInternal.Weighted>
1.2747

> <Gold.Chemscore.Rot.Weighted>
5.0468

> <Gold.Chemscore.Internal.Correction.Weighted>
   9.000000E+99

> <Gold.Protein.RotatedTorsions>
[ 6907 6896 6895 6894 ] final  -34.36 input  -60.11 | X-H torsion
[ 7974 7965 7964 7962 ] final  -18.13 input  175.53 | X-H torsion
[ 8008 7997 7996 7995 ] final   46.67 input   59.86 | X-H torsion
[ 10167 10162 10161 10158 ] final    8.89 input  -65.29 | X-H torsion
[ 10718 10713 10712 10709 ] final  105.74 input   66.30 | X-H torsion
[ 10763 10752 10751 10750 ] final  -70.29 input  -60.55 | X-H torsion
[ 11005 11000 10999 10996 ] final -151.45 input  -57.11 | X-H torsion

> <Gold.Protein.ActiveResidues>
 VAL166  LYS551  ARG553  GLY616  TRP617  ASP618  TYR619  PRO620  LYS621  CYS622 
 ASP623  PHE694  ASN695  SER759  ASP760  ASP761  ALA762  ILE779  LEU786  VAL792 
 PHE793  MET794  SER795  GLU796  ALA797  LYS798  CYS799  TRP800  GLU811  SER814 

> <Gold.Protein.RotatedAtoms>
  151.0536  134.9689  159.8223 H   0  0  0  0  0  0  0  0  0  0  0  0  # atno 6907 bound_to 6896
  152.5384  134.2506  159.8907 H   0  0  0  0  0  0  0  0  0  0  0  0  # atno 6908 bound_to 6896
  151.2523  133.4301  159.2646 H   0  0  0  0  0  0  0  0  0  0  0  0  # atno 6909 bound_to 6896
  146.1907  140.3877  142.8459 H   0  0  0  0  0  0  0  0  0  0  0  0  # atno 7974 bound_to 7965
  155.3563  140.3416  155.4240 H   0  0  0  0  0  0  0  0  0  0  0  0  # atno 8008 bound_to 7997
  156.1737  140.1640  156.8436 H   0  0  0  0  0  0  0  0  0  0  0  0  # atno 8009 bound_to 7997
  154.5260  140.0756  156.8241 H   0  0  0  0  0  0  0  0  0  0  0  0  # atno 8010 bound_to 7997
  140.6287  143.8042  150.7267 H   0  0  0  0  0  0  0  0  0  0  0  0  # atno 10167 bound_to 10162
  157.6694  131.0834  150.5901 H   0  0  0  0  0  0  0  0  0  0  0  0  # atno 10718 bound_to 10713
  154.4155  135.5999  153.5978 H   0  0  0  0  0  0  0  0  0  0  0  0  # atno 10763 bound_to 10752
  152.9792  135.5940  154.4018 H   0  0  0  0  0  0  0  0  0  0  0  0  # atno 10764 bound_to 10752
  154.3836  135.2841  155.2175 H   0  0  0  0  0  0  0  0  0  0  0  0  # atno 10765 bound_to 10752
  140.7295  134.3637  157.5169 H   0  0  0  0  0  0  0  0  0  0  0  0  # atno 11005 bound_to 11000
  144.8482  140.6961  143.6185 LP  0  0  0  0  0  0  0  0  0  0  0  0  # atno 17320 bound_to 7965
  145.3800  139.1639  143.4286 LP  0  0  0  0  0  0  0  0  0  0  0  0  # atno 17321 bound_to 7965
  140.1648  143.4244  152.2042 LP  0  0  0  0  0  0  0  0  0  0  0  0  # atno 17342 bound_to 10162
  139.5504  144.7333  151.4453 LP  0  0  0  0  0  0  0  0  0  0  0  0  # atno 17343 bound_to 10162
  156.6202  130.4403  149.5825 LP  0  0  0  0  0  0  0  0  0  0  0  0  # atno 17370 bound_to 10713
  156.2362  130.6824  151.1511 LP  0  0  0  0  0  0  0  0  0  0  0  0  # atno 17371 bound_to 10713
  139.8829  134.9009  156.2798 LP  0  0  0  0  0  0  0  0  0  0  0  0  # atno 17394 bound_to 11000
  140.9933  133.7195  156.0848 LP  0  0  0  0  0  0  0  0  0  0  0  0  # atno 17395 bound_to 11000

$$$$
