AV-unprocessed.smi:3338|AV-procd|sdf|12873|dock7
  -GOLD-   2272019273D 1   1.00000     0.00000
 Structure written by MMmdl.
 44 45  0  0  0  0  0  0  0  0  2 V2000
  144.0067  135.5658  151.1515 C   0  0  0  0  0  0  0  0  0  0  0  0
  145.3844  134.9490  151.4321 C   0  0  2  0  0  0  0  0  0  0  0  0
  145.4120  133.4523  151.0784 C   0  0  0  0  0  0  0  0  0  0  0  0
  146.7876  132.8537  151.3991 C   0  0  0  0  0  0  0  0  0  0  0  0
  147.1757  133.1170  152.8627 C   0  0  0  0  0  0  0  0  0  0  0  0
  147.1488  134.5706  153.1682 N   0  3  2  0  0  0  0  0  0  0  0  0
  147.6512  134.8707  154.5320 C   0  0  0  0  0  0  0  0  0  0  0  0
  147.2044  136.2605  155.0252 C   0  0  0  0  0  0  0  0  0  0  0  0
  148.0301  137.3148  154.4496 N   0  0  0  0  0  0  0  0  0  0  0  0
  147.9727  138.6087  154.8033 C   0  0  0  0  0  0  0  0  0  0  0  0
  147.1801  139.0370  155.6434 O   0  0  0  0  0  0  0  0  0  0  0  0
  148.9687  139.5513  154.1085 C   0  0  1  0  0  0  0  0  0  0  0  0
  148.7011  141.0373  154.4201 C   0  0  0  0  0  0  0  0  0  0  0  0
  150.3396  139.1683  154.4267 N   0  0  0  0  0  0  0  0  0  0  0  0
  150.9599  137.9574  154.1942 C   0  0  0  0  0  0  0  0  0  0  0  0
  152.2339  138.0485  154.6770 C   0  0  0  0  0  0  0  0  0  0  0  0
  152.3024  139.3684  155.2026 C   0  0  0  0  0  0  0  0  0  0  0  0
  151.1678  140.0329  155.0585 N   0  0  0  0  0  0  0  0  0  0  0  0
  145.8088  135.1591  152.8998 C   0  0  0  0  0  0  0  0  0  0  0  0
  143.2302  135.0958  151.7564 H   0  0  0  0  0  0  0  0  0  0  0  0
  143.7293  135.4467  150.1037 H   0  0  0  0  0  0  0  0  0  0  0  0
  144.0011  136.6331  151.3739 H   0  0  0  0  0  0  0  0  0  0  0  0
  146.1090  135.4605  150.7965 H   0  0  0  0  0  0  0  0  0  0  0  0
  144.6422  132.9220  151.6411 H   0  0  0  0  0  0  0  0  0  0  0  0
  145.1814  133.3079  150.0220 H   0  0  0  0  0  0  0  0  0  0  0  0
  146.7815  131.7810  151.2021 H   0  0  0  0  0  0  0  0  0  0  0  0
  147.5390  133.2862  150.7370 H   0  0  0  0  0  0  0  0  0  0  0  0
  146.4973  132.5893  153.5349 H   0  0  0  0  0  0  0  0  0  0  0  0
  148.1753  132.7192  153.0427 H   0  0  0  0  0  0  0  0  0  0  0  0
  147.3340  134.0846  155.2194 H   0  0  0  0  0  0  0  0  0  0  0  0
  148.7421  134.8521  154.5309 H   0  0  0  0  0  0  0  0  0  0  0  0
  146.1692  136.4428  154.7348 H   0  0  0  0  0  0  0  0  0  0  0  0
  147.2362  136.3305  156.1131 H   0  0  0  0  0  0  0  0  0  0  0  0
  148.7034  137.0418  153.7480 H   0  0  0  0  0  0  0  0  0  0  0  0
  148.8387  139.4211  153.0328 H   0  0  0  0  0  0  0  0  0  0  0  0
  147.6874  141.3230  154.1370 H   0  0  0  0  0  0  0  0  0  0  0  0
  149.3870  141.6790  153.8662 H   0  0  0  0  0  0  0  0  0  0  0  0
  148.8243  141.2627  155.4802 H   0  0  0  0  0  0  0  0  0  0  0  0
  150.4496  137.1396  153.7072 H   0  0  0  0  0  0  0  0  0  0  0  0
  153.0004  137.2879  154.6580 H   0  0  0  0  0  0  0  0  0  0  0  0
  153.1357  139.8595  155.6834 H   0  0  0  0  0  0  0  0  0  0  0  0
  145.8196  136.2270  153.1168 H   0  0  0  0  0  0  0  0  0  0  0  0
  145.0747  134.7115  153.5721 H   0  0  0  0  0  0  0  0  0  0  0  0
  147.7958  135.0029  152.5244 H   0  0  0  0  0  0  0  0  0  0  0  0
  1  2  1  0  0  0  0
  1 20  1  0  0  0  0
  1 21  1  0  0  0  0
  1 22  1  0  0  0  0
  2 19  1  0  0  0  0
  2  3  1  0  0  0  0
  2 23  1  0  0  0  0
  3  4  1  0  0  0  0
  3 24  1  0  0  0  0
  3 25  1  0  0  0  0
  4  5  1  0  0  0  0
  4 26  1  0  0  0  0
  4 27  1  0  0  0  0
  5  6  1  0  0  0  0
  5 28  1  0  0  0  0
  5 29  1  0  0  0  0
  6  7  1  0  0  0  0
  6 19  1  0  0  0  0
  6 44  1  0  0  0  0
  7  8  1  0  0  0  0
  7 30  1  0  0  0  0
  7 31  1  0  0  0  0
  8  9  1  0  0  0  0
  8 32  1  0  0  0  0
  8 33  1  0  0  0  0
  9 10  1  0  0  0  0
  9 34  1  0  0  0  0
 10 11  2  0  0  0  0
 10 12  1  0  0  0  0
 12 13  1  0  0  0  0
 12 14  1  0  0  0  0
 12 35  1  0  0  0  0
 13 36  1  0  0  0  0
 13 37  1  0  0  0  0
 13 38  1  0  0  0  0
 14 18  1  0  0  0  0
 14 15  1  0  0  0  0
 15 16  2  0  0  0  0
 15 39  1  0  0  0  0
 16 17  1  0  0  0  0
 16 40  1  0  0  0  0
 17 18  2  0  0  0  0
 17 41  1  0  0  0  0
 19 42  1  0  0  0  0
 19 43  1  0  0  0  0
M  CHG  1   6   1
M  END
> <s_m_source_file>
AV-unprocessed.smi

> <i_m_source_file_index>
3338

> <i_lp_mmshare_version>
43012

> <i_f3d_flags>
0

> <s_epik_input>
W0NIM11bQ0BASF0xW0NIMl1bQ0gyXVtDSDJdTihbQ0gyXTEpW0NIMl1bQ0gyXVtOSF1DKD1PKVtDQEhdKFtDSDNdKW4yW2NIXVtjSF1bY0hdbjI=

> <s_epik_cmdline>
J2VwaWtfcHl0aG9uJywgJy1waCcsICc3LjAnLCAnLXRuJywgJzgnLCAnLW1hJywgJzIwMCcsICctbWV0YWxfYmluZGluZycsICctaW1hZScsICc8aW5maWxlLm1hZT4nLCAnLW9tYWUnLCAnPG91dGZpbGUubWFlPic=

> <r_lp_tautomer_probability>
1

> <r_epik_Ionization_Penalty>
0.00225707

> <r_epik_Ionization_Penalty_Charging>
0.00223709

> <r_epik_Ionization_Penalty_Neutral>
1.99775e-05

> <r_epik_State_Penalty>
0.00153978

> <r_epik_Charging_Adjusted_Penalty>
0.00377687

> <i_epik_Tot_Q>
1

> <i_epik_Tot_abs_Q>
1

> <r_epik_Metal_State_Penalty>
-0

> <b_epik_Metal_Only>
0

> <s_lp_Force_Field>
OPLS_2005

> <r_lp_Energy>
19.822

> <b_lp_Chiralities_Consistent>
1

> <s_lp_Variant>
AV-unprocessed.smi:3338-5

> <Gold.Version>
5.8.1

> <Gold.Id.Protein>
6NUR|6NUR_protein|mol2

> <Gold.PLP.Fitness>
46.1971

> <Gold.PLP.PLP>
-33.3604

> <Gold.PLP.part.hbond>
-3.0000

> <Gold.PLP.part.metal>
0.0000

> <Gold.PLP.part.buried>
0.5644

> <Gold.PLP.part.nonpolar>
-30.4416

> <Gold.PLP.part.repulsive>
0.0467

> <Gold.PLP.ligand.clash>
0.0000

> <Gold.PLP.ligand.torsion>
0.4630

> <Gold.PLP.Chemscore.Hbond>
3.4200

> <Gold.PLP.Chemscore.CHOScore>
1.1300

> <Gold.PLP.Chemscore.Metal>
0.0000

> <Gold.Chemscore.Hbonds>
donor molecule, donor type, donor heavy atom, donor atom, acceptor molecule, acceptor atom, score
      L1  H     6    44       P1  7948  2.00
      L1  H     9    34       P1  7948  0.86
      P1  H  7989  7998       L1    18  0.52
      L1  C    15    39       P1  7948  0.72
      L1  C    15    39       P1  7949  0.37

> <Gold.PLP.Chemscore.Internal.Correction>
0.1125

> <Gold.Rescore>
     Score         DG    S(hbond)    S(metal)    S(lipo)     H(rot)  DE(clash)    DE(int)     intcor
     15.68     -16.35       1.93        0.00      76.15       1.76       0.15       0.52       ----

> <Gold.Chemscore.Fitness>
15.6767

> <Gold.Chemscore.DG>
-16.3456

> <Gold.Chemscore.ZeroCoef>
-5.4800

> <Gold.Chemscore.Hbond>
1.9323

> <Gold.Chemscore.Metal>
0.0000

> <Gold.Chemscore.Lipo>
76.1496

> <Gold.Chemscore.Internal_Hbond>
0.0000

> <Gold.Chemscore.DEClash>
0.1510

> <Gold.Chemscore.DEInternal>
0.5179

> <Gold.Chemscore.Rot>
1.7570

> <Gold.Chemscore.Internal.Correction>
   9.000000E+99

> <Gold.Chemscore.Hbonds>
donor molecule, donor type, donor heavy atom, donor atom, acceptor molecule, acceptor atom, score
      L1  H     6    44       P1  7948  0.95
      L1  H     9    34       P1  7948  0.79
      P1  H  7989  7998       L1    18  0.01

> <Gold.Chemscore.Hbond.Weighted>
-6.4540

> <Gold.Chemscore.Metal.Weighted>
-0.0000

> <Gold.Chemscore.Lipo.Weighted>
-8.9095

> <Gold.Chemscore.Internal_Hbond.Weighted>
0.0000

> <Gold.Chemscore.DEClash.Weighted>
0.1510

> <Gold.Chemscore.DEInternal.Weighted>
0.5179

> <Gold.Chemscore.Rot.Weighted>
4.4979

> <Gold.Chemscore.Internal.Correction.Weighted>
   9.000000E+99

> <Gold.Protein.RotatedTorsions>
[ 6907 6896 6895 6894 ] final -144.96 input  -60.11 | X-H torsion
[ 7974 7965 7964 7962 ] final -123.88 input  175.53 | X-H torsion
[ 8008 7997 7996 7995 ] final   30.81 input   59.86 | X-H torsion
[ 10167 10162 10161 10158 ] final  105.80 input  -65.29 | X-H torsion
[ 10718 10713 10712 10709 ] final   -0.32 input   66.30 | X-H torsion
[ 10763 10752 10751 10750 ] final  104.17 input  -60.55 | X-H torsion
[ 11005 11000 10999 10996 ] final   50.74 input  -57.11 | X-H torsion

> <Gold.Protein.ActiveResidues>
 VAL166  LYS551  ARG553  GLY616  TRP617  ASP618  TYR619  PRO620  LYS621  CYS622 
 ASP623  PHE694  ASN695  SER759  ASP760  ASP761  ALA762  ILE779  LEU786  VAL792 
 PHE793  MET794  SER795  GLU796  ALA797  LYS798  CYS799  TRP800  GLU811  SER814 

> <Gold.Protein.RotatedAtoms>
  151.1212  133.5102  159.2601 H   0  0  0  0  0  0  0  0  0  0  0  0  # atno 6907 bound_to 6896
  151.1859  135.0381  159.8822 H   0  0  0  0  0  0  0  0  0  0  0  0  # atno 6908 bound_to 6896
  152.5456  134.1059  159.8391 H   0  0  0  0  0  0  0  0  0  0  0  0  # atno 6909 bound_to 6896
  145.0139  140.7930  143.4421 H   0  0  0  0  0  0  0  0  0  0  0  0  # atno 7974 bound_to 7965
  155.0963  140.3225  155.4559 H   0  0  0  0  0  0  0  0  0  0  0  0  # atno 8008 bound_to 7997
  156.2729  140.2069  156.6036 H   0  0  0  0  0  0  0  0  0  0  0  0  # atno 8009 bound_to 7997
  154.6864  140.0521  157.0306 H   0  0  0  0  0  0  0  0  0  0  0  0  # atno 8010 bound_to 7997
  139.7062  144.7086  151.1102 H   0  0  0  0  0  0  0  0  0  0  0  0  # atno 10167 bound_to 10162
  156.8221  130.5460  149.5696 H   0  0  0  0  0  0  0  0  0  0  0  0  # atno 10718 bound_to 10713
  153.3624  135.3952  155.1728 H   0  0  0  0  0  0  0  0  0  0  0  0  # atno 10763 bound_to 10752
  154.8681  135.3682  154.5083 H   0  0  0  0  0  0  0  0  0  0  0  0  # atno 10764 bound_to 10752
  153.5543  135.7082  153.5637 H   0  0  0  0  0  0  0  0  0  0  0  0  # atno 10765 bound_to 10752
  140.0992  134.5105  155.8779 H   0  0  0  0  0  0  0  0  0  0  0  0  # atno 11005 bound_to 11000
  145.1985  139.2264  143.5205 LP  0  0  0  0  0  0  0  0  0  0  0  0  # atno 17320 bound_to 7965
  146.3474  140.1797  142.8589 LP  0  0  0  0  0  0  0  0  0  0  0  0  # atno 17321 bound_to 7965
  140.7722  143.5355  150.9373 LP  0  0  0  0  0  0  0  0  0  0  0  0  # atno 17342 bound_to 10162
  139.9038  143.6803  152.3127 LP  0  0  0  0  0  0  0  0  0  0  0  0  # atno 17343 bound_to 10162
  156.0983  130.5949  150.9850 LP  0  0  0  0  0  0  0  0  0  0  0  0  # atno 17370 bound_to 10713
  157.6451  131.0905  150.8170 LP  0  0  0  0  0  0  0  0  0  0  0  0  # atno 17371 bound_to 10713
  141.2101  133.6691  156.6483 LP  0  0  0  0  0  0  0  0  0  0  0  0  # atno 17394 bound_to 11000
  140.3244  134.7981  157.4278 LP  0  0  0  0  0  0  0  0  0  0  0  0  # atno 17395 bound_to 11000

$$$$
