AV-unprocessed.smi:1033|AV-procd|sdf|4505|dock4
  -GOLD-   22720 2503D 1   1.00000     0.00000
 Structure written by MMmdl.
 57 59  0  0  0  0  0  0  0  0  3 V2000
  152.8727  143.8749  160.1185 C   0  0  0  0  0  0  0  0  0  0  0  0
  152.5146  142.8474  159.0583 C   0  0  0  0  0  0  0  0  0  0  0  0
  151.5594  143.1962  158.0766 C   0  0  0  0  0  0  0  0  0  0  0  0
  151.2544  142.2361  157.1191 C   0  0  0  0  0  0  0  0  0  0  0  0
  150.3721  142.2698  156.0369 N   0  3  0  0  0  0  0  0  0  0  0  0
  150.4174  141.0798  155.3760 C   0  0  0  0  0  0  0  0  0  0  0  0
  151.3122  140.2853  156.0241 N   0  0  0  0  0  0  0  0  0  0  0  0
  151.7413  138.9114  155.7320 C   0  0  0  0  0  0  0  0  0  0  0  0
  151.0608  138.3264  154.4762 C   0  0  1  0  0  0  0  0  0  0  0  0
  151.8659  137.3384  153.8641 O   0  0  0  0  0  0  0  0  0  0  0  0
  149.6336  137.7872  154.7158 C   0  0  0  0  0  0  0  0  0  0  0  0
  149.4136  137.0149  155.9472 N   0  0  0  0  0  0  0  0  0  0  0  0
  147.9960  136.8897  156.2851 C   0  0  0  0  0  0  0  0  0  0  0  0
  147.2250  135.9450  155.3393 C   0  0  0  0  0  0  0  0  0  0  0  0
  147.8538  134.5987  155.3199 N   0  3  0  0  0  0  0  0  0  0  0  0
  147.1081  133.6397  154.4661 C   0  0  0  0  0  0  0  0  0  0  0  0
  148.0093  132.5422  153.8650 C   0  0  1  0  0  0  0  0  0  0  0  0
  148.7573  131.7248  154.9287 C   0  0  0  0  0  0  0  0  0  0  0  0
  147.1965  131.6583  153.1224 O   0  0  0  0  0  0  0  0  0  0  0  0
  149.2993  134.6983  154.9836 C   0  0  0  0  0  0  0  0  0  0  0  0
  150.0040  135.6742  155.9462 C   0  0  0  0  0  0  0  0  0  0  0  0
  151.8626  140.9660  157.1150 C   0  0  0  0  0  0  0  0  0  0  0  0
  152.8062  140.6059  158.0737 C   0  0  0  0  0  0  0  0  0  0  0  0
  153.1302  141.5686  159.0564 C   0  0  0  0  0  0  0  0  0  0  0  0
  154.1568  141.2051  160.1156 C   0  0  0  0  0  0  0  0  0  0  0  0
  152.2946  144.7915  159.9971 H   0  0  0  0  0  0  0  0  0  0  0  0
  153.9291  144.1365  160.0553 H   0  0  0  0  0  0  0  0  0  0  0  0
  152.6709  143.4848  161.1163 H   0  0  0  0  0  0  0  0  0  0  0  0
  151.0875  144.1679  158.0709 H   0  0  0  0  0  0  0  0  0  0  0  0
  149.8455  140.8145  154.4983 H   0  0  0  0  0  0  0  0  0  0  0  0
  152.8245  138.9332  155.6096 H   0  0  0  0  0  0  0  0  0  0  0  0
  151.5417  138.2932  156.6082 H   0  0  0  0  0  0  0  0  0  0  0  0
  150.9745  139.1208  153.7345 H   0  0  0  0  0  0  0  0  0  0  0  0
  151.4930  137.1284  153.0216 H   0  0  0  0  0  0  0  0  0  0  0  0
  148.9807  138.6601  154.7565 H   0  0  0  0  0  0  0  0  0  0  0  0
  149.3050  137.2287  153.8398 H   0  0  0  0  0  0  0  0  0  0  0  0
  147.9066  136.5166  157.3064 H   0  0  0  0  0  0  0  0  0  0  0  0
  147.5265  137.8742  156.2890 H   0  0  0  0  0  0  0  0  0  0  0  0
  146.1936  135.8596  155.6833 H   0  0  0  0  0  0  0  0  0  0  0  0
  147.1841  136.3514  154.3279 H   0  0  0  0  0  0  0  0  0  0  0  0
  146.3278  133.1592  155.0591 H   0  0  0  0  0  0  0  0  0  0  0  0
  146.5945  134.1905  153.6759 H   0  0  0  0  0  0  0  0  0  0  0  0
  148.7263  132.9727  153.1667 H   0  0  0  0  0  0  0  0  0  0  0  0
  149.4341  132.3538  155.5073 H   0  0  0  0  0  0  0  0  0  0  0  0
  149.3574  130.9391  154.4683 H   0  0  0  0  0  0  0  0  0  0  0  0
  148.0664  131.2500  155.6263 H   0  0  0  0  0  0  0  0  0  0  0  0
  147.7352  131.2072  152.4899 H   0  0  0  0  0  0  0  0  0  0  0  0
  149.7738  133.7217  155.0689 H   0  0  0  0  0  0  0  0  0  0  0  0
  149.4239  135.0158  153.9476 H   0  0  0  0  0  0  0  0  0  0  0  0
  151.0675  135.7237  155.7179 H   0  0  0  0  0  0  0  0  0  0  0  0
  149.9495  135.2660  156.9565 H   0  0  0  0  0  0  0  0  0  0  0  0
  153.2744  139.6325  158.0717 H   0  0  0  0  0  0  0  0  0  0  0  0
  154.5403  140.1948  159.9699 H   0  0  0  0  0  0  0  0  0  0  0  0
  153.7147  141.2532  161.1109 H   0  0  0  0  0  0  0  0  0  0  0  0
  155.0037  141.8907  160.0787 H   0  0  0  0  0  0  0  0  0  0  0  0
  147.7961  134.2500  156.2660 H   0  0  0  0  0  0  0  0  0  0  0  0
  149.7834  143.0470  155.7656 H   0  0  0  0  0  0  0  0  0  0  0  0
  1  2  1  0  0  0  0
  1 26  1  0  0  0  0
  1 27  1  0  0  0  0
  1 28  1  0  0  0  0
  2 24  1  0  0  0  0
  2  3  2  0  0  0  0
  3  4  1  0  0  0  0
  3 29  1  0  0  0  0
  4 22  2  0  0  0  0
  4  5  1  0  0  0  0
  5  6  2  0  0  0  0
  5 57  1  0  0  0  0
  6  7  1  0  0  0  0
  6 30  1  0  0  0  0
  7  8  1  0  0  0  0
  7 22  1  0  0  0  0
  8  9  1  0  0  0  0
  8 31  1  0  0  0  0
  8 32  1  0  0  0  0
  9 10  1  0  0  0  0
  9 11  1  0  0  0  0
  9 33  1  0  0  0  0
 10 34  1  0  0  0  0
 11 12  1  0  0  0  0
 11 35  1  0  0  0  0
 11 36  1  0  0  0  0
 12 21  1  0  0  0  0
 12 13  1  0  0  0  0
 13 14  1  0  0  0  0
 13 37  1  0  0  0  0
 13 38  1  0  0  0  0
 14 15  1  0  0  0  0
 14 39  1  0  0  0  0
 14 40  1  0  0  0  0
 15 16  1  0  0  0  0
 15 20  1  0  0  0  0
 15 56  1  0  0  0  0
 16 17  1  0  0  0  0
 16 41  1  0  0  0  0
 16 42  1  0  0  0  0
 17 18  1  0  0  0  0
 17 19  1  0  0  0  0
 17 43  1  0  0  0  0
 18 44  1  0  0  0  0
 18 45  1  0  0  0  0
 18 46  1  0  0  0  0
 19 47  1  0  0  0  0
 20 21  1  0  0  0  0
 20 48  1  0  0  0  0
 20 49  1  0  0  0  0
 21 50  1  0  0  0  0
 21 51  1  0  0  0  0
 22 23  1  0  0  0  0
 23 24  2  0  0  0  0
 23 52  1  0  0  0  0
 24 25  1  0  0  0  0
 25 53  1  0  0  0  0
 25 54  1  0  0  0  0
 25 55  1  0  0  0  0
M  CHG  1   5   1
M  CHG  1  15   1
M  END
> <s_m_source_file>
AV-unprocessed.smi

> <i_m_source_file_index>
1033

> <i_lp_mmshare_version>
43012

> <i_f3d_flags>
0

> <s_epik_input>
W0NIM11jKFtjSF0xKWMoW0NIM10pW2NIXWMoYzEyKW4oW2NIXW4yKVtDSDJdW0NASF0oW09IXSlbQ0gyXU4zW0NIMl1bQ0gyXU4oW0NIMl1bQ0gyXTMpW0NIMl1bQ0BIXShbQ0gzXSlbT0hd

> <s_epik_cmdline>
J2VwaWtfcHl0aG9uJywgJy1waCcsICc3LjAnLCAnLXRuJywgJzgnLCAnLW1hJywgJzIwMCcsICctbWV0YWxfYmluZGluZycsICctaW1hZScsICc8aW5maWxlLm1hZT4nLCAnLW9tYWUnLCAnPG91dGZpbGUubWFlPic=

> <r_epik_Ionization_Penalty>
1.28617

> <r_epik_Ionization_Penalty_Charging>
1.23646

> <r_epik_Ionization_Penalty_Neutral>
0.0497112

> <r_epik_State_Penalty>
1.79157

> <r_epik_Charging_Adjusted_Penalty>
3.02803

> <i_epik_Tot_Q>
2

> <i_epik_Tot_abs_Q>
2

> <r_epik_Metal_State_Penalty>
5.81739

> <b_epik_Metal_Only>
0

> <s_lp_Force_Field>
OPLS_2005

> <r_lp_Energy>
43.5011

> <b_lp_Chiralities_Consistent>
1

> <s_lp_Variant>
AV-unprocessed.smi:1033-16

> <Gold.Version>
5.8.1

> <Gold.Id.Protein>
6NUR|6NUR_protein|mol2

> <Gold.PLP.Fitness>
59.9999

> <Gold.PLP.PLP>
-47.4176

> <Gold.PLP.part.hbond>
-4.0000

> <Gold.PLP.part.metal>
0.0000

> <Gold.PLP.part.buried>
-3.3002

> <Gold.PLP.part.nonpolar>
-40.3048

> <Gold.PLP.part.repulsive>
0.1900

> <Gold.PLP.ligand.clash>
0.0000

> <Gold.PLP.ligand.torsion>
0.9958

> <Gold.PLP.Chemscore.Hbond>
4.7762

> <Gold.PLP.Chemscore.CHOScore>
0.0000

> <Gold.PLP.Chemscore.Metal>
0.0000

> <Gold.Chemscore.Hbonds>
donor molecule, donor type, donor heavy atom, donor atom, acceptor molecule, acceptor atom, score
      L1  H     5    57       P1  8028  2.00
      L1  H    10    34       P1  7949  1.00
      P1  H 10752 10765       L1    10  0.95

> <Gold.PLP.Chemscore.Internal.Correction>
0.2455

> <Gold.Rescore>
     Score         DG    S(hbond)    S(metal)    S(lipo)     H(rot)  DE(clash)    DE(int)     intcor
     19.52     -20.87       2.72        0.00     122.72       3.15       0.12       1.24       ----

> <Gold.Chemscore.Fitness>
19.5169

> <Gold.Chemscore.DG>
-20.8731

> <Gold.Chemscore.ZeroCoef>
-5.4800

> <Gold.Chemscore.Hbond>
2.7228

> <Gold.Chemscore.Metal>
0.0000

> <Gold.Chemscore.Lipo>
122.7221

> <Gold.Chemscore.Internal_Hbond>
0.0000

> <Gold.Chemscore.DEClash>
0.1180

> <Gold.Chemscore.DEInternal>
1.2382

> <Gold.Chemscore.Rot>
3.1483

> <Gold.Chemscore.Internal.Correction>
   9.000000E+99

> <Gold.Chemscore.Hbonds>
donor molecule, donor type, donor heavy atom, donor atom, acceptor molecule, acceptor atom, score
      L1  H     5    57       P1  8028  1.00
      L1  H    10    34       P1  7949  0.88
      P1  H 10752 10765       L1    10  0.34

> <Gold.Chemscore.Hbond.Weighted>
-9.0943

> <Gold.Chemscore.Metal.Weighted>
-0.0000

> <Gold.Chemscore.Lipo.Weighted>
-14.3585

> <Gold.Chemscore.Internal_Hbond.Weighted>
0.0000

> <Gold.Chemscore.DEClash.Weighted>
0.1180

> <Gold.Chemscore.DEInternal.Weighted>
1.2382

> <Gold.Chemscore.Rot.Weighted>
8.0597

> <Gold.Chemscore.Internal.Correction.Weighted>
   9.000000E+99

> <Gold.Protein.RotatedTorsions>
[ 6907 6896 6895 6894 ] final  141.40 input  -60.11 | X-H torsion
[ 7974 7965 7964 7962 ] final  101.03 input  175.53 | X-H torsion
[ 8008 7997 7996 7995 ] final  -46.96 input   59.86 | X-H torsion
[ 10167 10162 10161 10158 ] final -176.50 input  -65.29 | X-H torsion
[ 10718 10713 10712 10709 ] final  162.25 input   66.30 | X-H torsion
[ 10763 10752 10751 10750 ] final  163.59 input  -60.55 | X-H torsion
[ 11005 11000 10999 10996 ] final   96.72 input  -57.11 | X-H torsion

> <Gold.Protein.ActiveResidues>
 VAL166  LYS551  ARG553  GLY616  TRP617  ASP618  TYR619  PRO620  LYS621  CYS622 
 ASP623  PHE694  ASN695  SER759  ASP760  ASP761  ALA762  ILE779  LEU786  VAL792 
 PHE793  MET794  SER795  GLU796  ALA797  LYS798  CYS799  TRP800  GLU811  SER814 

> <Gold.Protein.RotatedAtoms>
  152.2315  133.5062  159.5218 H   0  0  0  0  0  0  0  0  0  0  0  0  # atno 6907 bound_to 6896
  150.7039  134.1210  159.4044 H   0  0  0  0  0  0  0  0  0  0  0  0  # atno 6908 bound_to 6896
  151.9132  135.0330  160.0567 H   0  0  0  0  0  0  0  0  0  0  0  0  # atno 6909 bound_to 6896
  145.3777  139.2385  143.3420 H   0  0  0  0  0  0  0  0  0  0  0  0  # atno 7974 bound_to 7965
  154.4012  140.1358  156.4096 H   0  0  0  0  0  0  0  0  0  0  0  0  # atno 8008 bound_to 7997
  155.7746  140.3483  155.5244 H   0  0  0  0  0  0  0  0  0  0  0  0  # atno 8009 bound_to 7997
  155.8734  140.0975  157.1525 H   0  0  0  0  0  0  0  0  0  0  0  0  # atno 8010 bound_to 7997
  139.5526  144.2070  152.1104 H   0  0  0  0  0  0  0  0  0  0  0  0  # atno 10167 bound_to 10162
  157.1251  131.0502  151.2397 H   0  0  0  0  0  0  0  0  0  0  0  0  # atno 10718 bound_to 10713
  154.2961  135.2760  155.2632 H   0  0  0  0  0  0  0  0  0  0  0  0  # atno 10763 bound_to 10752
  154.5090  135.5787  153.6593 H   0  0  0  0  0  0  0  0  0  0  0  0  # atno 10764 bound_to 10752
  152.9907  135.6176  154.3129 H   0  0  0  0  0  0  0  0  0  0  0  0  # atno 10765 bound_to 10752
  139.8780  134.8965  156.4201 H   0  0  0  0  0  0  0  0  0  0  0  0  # atno 11005 bound_to 11000
  146.2856  140.4439  142.8759 LP  0  0  0  0  0  0  0  0  0  0  0  0  # atno 17320 bound_to 7965
  144.8530  140.7029  143.6156 LP  0  0  0  0  0  0  0  0  0  0  0  0  # atno 17321 bound_to 7965
  140.1568  144.5063  150.6655 LP  0  0  0  0  0  0  0  0  0  0  0  0  # atno 17342 bound_to 10162
  140.6792  143.2319  151.5427 LP  0  0  0  0  0  0  0  0  0  0  0  0  # atno 17343 bound_to 10162
  157.4442  130.7561  149.7095 LP  0  0  0  0  0  0  0  0  0  0  0  0  # atno 17370 bound_to 10713
  155.9820  130.4014  150.3441 LP  0  0  0  0  0  0  0  0  0  0  0  0  # atno 17371 bound_to 10713
  140.9140  133.7692  155.9825 LP  0  0  0  0  0  0  0  0  0  0  0  0  # atno 17394 bound_to 11000
  140.8515  134.2949  157.5273 LP  0  0  0  0  0  0  0  0  0  0  0  0  # atno 17395 bound_to 11000

$$$$
