AV-unprocessed.smi:3208|AV-procd|sdf|12263|dock2
  -GOLD-   2272018 93D 1   1.00000     0.00000
 Structure written by MMmdl.
 30 30  0  0  0  0  0  0  0  0  3 V2000
  146.5041  141.6009  154.1056 C   0  0  0  0  0  0  0  0  0  0  0  0
  147.5792  140.8015  154.0395 C   0  0  0  0  0  0  0  0  0  0  0  0
  148.9877  141.2258  154.3924 C   0  0  0  0  0  0  0  0  0  0  0  0
  149.8904  140.1447  154.1928 O   0  0  0  0  0  0  0  0  0  0  0  0
  150.2897  139.4525  155.3732 C   0  0  1  0  0  0  0  0  0  0  0  0
  150.9709  138.1475  154.9343 C   0  0  0  0  0  0  0  0  0  0  0  0
  151.2399  140.3229  156.2115 C   0  0  0  0  0  0  0  0  0  0  0  0
  152.4460  140.0718  156.2255 O   0  0  0  0  0  0  0  0  0  0  0  0
  150.6628  141.3398  156.8784 N   0  0  0  0  0  0  0  0  0  0  0  0
  151.2677  142.3021  157.7337 C   0  0  0  0  0  0  0  0  0  0  0  0
  151.0260  143.6314  157.6108 N   0  3  0  0  0  0  0  0  0  0  0  0
  151.5872  144.5695  158.4039 C   0  0  0  0  0  0  0  0  0  0  0  0
  152.4767  144.1827  159.4243 C   0  0  0  0  0  0  0  0  0  0  0  0
  152.7632  142.8139  159.5968 C   0  0  0  0  0  0  0  0  0  0  0  0
  152.1551  141.8653  158.7471 C   0  0  0  0  0  0  0  0  0  0  0  0
  152.4331  140.5375  158.9152 O   0  5  0  0  0  0  0  0  0  0  0  0
  146.5870  142.6293  154.4257 H   0  0  0  0  0  0  0  0  0  0  0  0
  145.5238  141.2344  153.8385 H   0  0  0  0  0  0  0  0  0  0  0  0
  147.4565  139.7785  153.7143 H   0  0  0  0  0  0  0  0  0  0  0  0
  149.2699  142.0894  153.7885 H   0  0  0  0  0  0  0  0  0  0  0  0
  148.9994  141.5365  155.4378 H   0  0  0  0  0  0  0  0  0  0  0  0
  149.4048  139.1957  155.9593 H   0  0  0  0  0  0  0  0  0  0  0  0
  151.3162  137.5719  155.7937 H   0  0  0  0  0  0  0  0  0  0  0  0
  151.8305  138.3391  154.2909 H   0  0  0  0  0  0  0  0  0  0  0  0
  150.2770  137.5190  154.3759 H   0  0  0  0  0  0  0  0  0  0  0  0
  149.6635  141.4395  156.7690 H   0  0  0  0  0  0  0  0  0  0  0  0
  151.3092  145.5929  158.1985 H   0  0  0  0  0  0  0  0  0  0  0  0
  152.9326  144.9227  160.0653 H   0  0  0  0  0  0  0  0  0  0  0  0
  153.4432  142.4960  160.3736 H   0  0  0  0  0  0  0  0  0  0  0  0
  150.3849  143.9374  156.8779 H   0  0  0  0  0  0  0  0  0  0  0  0
  1  2  2  0  0  0  0
  1 17  1  0  0  0  0
  1 18  1  0  0  0  0
  2  3  1  0  0  0  0
  2 19  1  0  0  0  0
  3  4  1  0  0  0  0
  3 20  1  0  0  0  0
  3 21  1  0  0  0  0
  4  5  1  0  0  0  0
  5  6  1  0  0  0  0
  5  7  1  0  0  0  0
  5 22  1  0  0  0  0
  6 23  1  0  0  0  0
  6 24  1  0  0  0  0
  6 25  1  0  0  0  0
  7  8  2  0  0  0  0
  7  9  1  0  0  0  0
  9 26  1  0  0  0  0
  9 10  1  0  0  0  0
 10 15  2  0  0  0  0
 10 11  1  0  0  0  0
 11 30  1  0  0  0  0
 11 12  2  0  0  0  0
 12 27  1  0  0  0  0
 12 13  1  0  0  0  0
 13 28  1  0  0  0  0
 13 14  2  0  0  0  0
 14 15  1  0  0  0  0
 14 29  1  0  0  0  0
 15 16  1  0  0  0  0
M  CHG  1  11   1
M  CHG  1  16  -1
M  END
> <s_m_source_file>
AV-unprocessed.smi

> <i_m_source_file_index>
3208

> <i_lp_mmshare_version>
43012

> <i_f3d_flags>
0

> <s_epik_input>
W0NIMl09W0NIXVtDSDJdT1tDQEhdKFtDSDNdKUMoPU8pW05IXWMxbltjSF1bY0hdW2NIXWMxW09IXQ==

> <s_epik_cmdline>
J2VwaWtfcHl0aG9uJywgJy1waCcsICc3LjAnLCAnLXRuJywgJzgnLCAnLW1hJywgJzIwMCcsICctbWV0YWxfYmluZGluZycsICctaW1hZScsICc8aW5maWxlLm1hZT4nLCAnLW9tYWUnLCAnPG91dGZpbGUubWFlPic=

> <r_lp_tautomer_probability>
0.56342

> <r_epik_Ionization_Penalty>
0.29395

> <r_epik_Ionization_Penalty_Charging>
0.0267837

> <r_epik_Ionization_Penalty_Neutral>
0.267166

> <r_epik_State_Penalty>
0.587031

> <r_epik_Charging_Adjusted_Penalty>
0.613815

> <i_epik_Tot_Q>
0

> <i_epik_Tot_abs_Q>
2

> <r_epik_Metal_State_Penalty>
2.67911

> <b_epik_Metal_Only>
0

> <s_lp_Force_Field>
OPLS_2005

> <r_lp_Energy>
5.73852

> <b_lp_Chiralities_Consistent>
1

> <s_lp_Variant>
AV-unprocessed.smi:3208-4

> <Gold.Version>
5.8.1

> <Gold.Id.Protein>
6NUR|6NUR_protein|mol2

> <Gold.PLP.Fitness>
46.2621

> <Gold.PLP.PLP>
-36.0983

> <Gold.PLP.part.hbond>
-3.0000

> <Gold.PLP.part.metal>
0.0000

> <Gold.PLP.part.buried>
-3.8822

> <Gold.PLP.part.nonpolar>
-30.4057

> <Gold.PLP.part.repulsive>
1.2162

> <Gold.PLP.ligand.clash>
0.0033

> <Gold.PLP.ligand.torsion>
1.1386

> <Gold.PLP.Chemscore.Hbond>
3.9120

> <Gold.PLP.Chemscore.CHOScore>
0.0000

> <Gold.PLP.Chemscore.Metal>
0.0000

> <Gold.Chemscore.Hbonds>
donor molecule, donor type, donor heavy atom, donor atom, acceptor molecule, acceptor atom, score
      L1  H    11    30       P1  8028  1.82
      P1  H  7989  7998       L1     4  0.90
      P1  H  7997  8008       L1     8  1.00

> <Gold.PLP.Chemscore.Internal.Correction>
0.7084

> <Gold.Rescore>
     Score         DG    S(hbond)    S(metal)    S(lipo)     H(rot)  DE(clash)    DE(int)     intcor
     14.25     -18.56       2.31        0.00      83.13       1.70       0.36       3.95       ----

> <Gold.Chemscore.Fitness>
14.2513

> <Gold.Chemscore.DG>
-18.5642

> <Gold.Chemscore.ZeroCoef>
-5.4800

> <Gold.Chemscore.Hbond>
2.3069

> <Gold.Chemscore.Metal>
0.0000

> <Gold.Chemscore.Lipo>
83.1263

> <Gold.Chemscore.Internal_Hbond>
0.0000

> <Gold.Chemscore.DEClash>
0.3607

> <Gold.Chemscore.DEInternal>
3.9522

> <Gold.Chemscore.Rot>
1.6979

> <Gold.Chemscore.Internal.Correction>
   9.000000E+99

> <Gold.Chemscore.Hbonds>
donor molecule, donor type, donor heavy atom, donor atom, acceptor molecule, acceptor atom, score
      L1  H    11    30       P1  8028  0.87
      P1  H  7989  7998       L1     4  0.25
      P1  H  7997  8008       L1     8  0.99

> <Gold.Chemscore.Hbond.Weighted>
-7.7051

> <Gold.Chemscore.Metal.Weighted>
-0.0000

> <Gold.Chemscore.Lipo.Weighted>
-9.7258

> <Gold.Chemscore.Internal_Hbond.Weighted>
0.0000

> <Gold.Chemscore.DEClash.Weighted>
0.3607

> <Gold.Chemscore.DEInternal.Weighted>
3.9522

> <Gold.Chemscore.Rot.Weighted>
4.3467

> <Gold.Chemscore.Internal.Correction.Weighted>
   9.000000E+99

> <Gold.Protein.RotatedTorsions>
[ 6907 6896 6895 6894 ] final  110.34 input  -60.11 | X-H torsion
[ 7974 7965 7964 7962 ] final  -30.34 input  175.53 | X-H torsion
[ 8008 7997 7996 7995 ] final  -36.82 input   59.86 | X-H torsion
[ 10167 10162 10161 10158 ] final  174.99 input  -65.29 | X-H torsion
[ 10718 10713 10712 10709 ] final   42.06 input   66.30 | X-H torsion
[ 10763 10752 10751 10750 ] final -131.88 input  -60.55 | X-H torsion
[ 11005 11000 10999 10996 ] final -154.77 input  -57.11 | X-H torsion

> <Gold.Protein.ActiveResidues>
 VAL166  LYS551  ARG553  GLY616  TRP617  ASP618  TYR619  PRO620  LYS621  CYS622 
 ASP623  PHE694  ASN695  SER759  ASP760  ASP761  ALA762  ILE779  LEU786  VAL792 
 PHE793  MET794  SER795  GLU796  ALA797  LYS798  CYS799  TRP800  GLU811  SER814 

> <Gold.Protein.RotatedAtoms>
  152.5024  133.8814  159.7347 H   0  0  0  0  0  0  0  0  0  0  0  0  # atno 6907 bound_to 6896
  150.9275  133.6797  159.2825 H   0  0  0  0  0  0  0  0  0  0  0  0  # atno 6908 bound_to 6896
  151.4153  135.0995  159.9650 H   0  0  0  0  0  0  0  0  0  0  0  0  # atno 6909 bound_to 6896
  146.1150  140.5528  142.8761 H   0  0  0  0  0  0  0  0  0  0  0  0  # atno 7974 bound_to 7965
  154.4065  140.1620  156.2436 H   0  0  0  0  0  0  0  0  0  0  0  0  # atno 8008 bound_to 7997
  155.9180  140.3423  155.6127 H   0  0  0  0  0  0  0  0  0  0  0  0  # atno 8009 bound_to 7997
  155.7257  140.0774  157.2302 H   0  0  0  0  0  0  0  0  0  0  0  0  # atno 8010 bound_to 7997
  139.5161  144.3083  152.0315 H   0  0  0  0  0  0  0  0  0  0  0  0  # atno 10167 bound_to 10162
  157.4005  130.7857  149.7345 H   0  0  0  0  0  0  0  0  0  0  0  0  # atno 10718 bound_to 10713
  154.8747  135.3816  154.4318 H   0  0  0  0  0  0  0  0  0  0  0  0  # atno 10763 bound_to 10752
  153.5011  135.7030  153.5836 H   0  0  0  0  0  0  0  0  0  0  0  0  # atno 10764 bound_to 10752
  153.4167  135.3911  155.2052 H   0  0  0  0  0  0  0  0  0  0  0  0  # atno 10765 bound_to 10752
  140.6938  134.4013  157.5217 H   0  0  0  0  0  0  0  0  0  0  0  0  # atno 11005 bound_to 11000
  144.7545  140.5273  143.6779 LP  0  0  0  0  0  0  0  0  0  0  0  0  # atno 17320 bound_to 7965
  145.5586  139.1478  143.3354 LP  0  0  0  0  0  0  0  0  0  0  0  0  # atno 17321 bound_to 7965
  140.2528  144.4150  150.6215 LP  0  0  0  0  0  0  0  0  0  0  0  0  # atno 17342 bound_to 10162
  140.6212  143.2176  151.6690 LP  0  0  0  0  0  0  0  0  0  0  0  0  # atno 17343 bound_to 10162
  155.9822  130.4012  150.3429 LP  0  0  0  0  0  0  0  0  0  0  0  0  # atno 17370 bound_to 10713
  157.1556  131.0332  151.2865 LP  0  0  0  0  0  0  0  0  0  0  0  0  # atno 17371 bound_to 10713
  139.8916  134.8776  156.2312 LP  0  0  0  0  0  0  0  0  0  0  0  0  # atno 17394 bound_to 11000
  141.0220  133.7036  156.1284 LP  0  0  0  0  0  0  0  0  0  0  0  0  # atno 17395 bound_to 11000

$$$$
