AV-unprocessed.smi:1677|AV-procd|sdf|6726|dock5
  -GOLD-   22720 7473D 1   1.00000     0.00000
 Structure written by MMmdl.
 36 37  0  0  0  0  0  0  0  0  1 V2000
  152.2030  139.6824  155.5814 C   0  0  0  0  0  0  0  0  0  0  0  0
  150.7819  140.2221  155.7904 C   0  0  2  0  0  0  0  0  0  0  0  0
  150.1469  140.6661  154.4555 C   0  0  0  0  0  0  0  0  0  0  0  0
  148.7225  140.9210  154.5708 N   0  0  0  0  0  0  0  0  0  0  0  0
  147.7080  140.3725  153.7976 C   0  0  0  0  0  0  0  0  0  0  0  0
  146.5260  140.8921  154.2748 C   0  0  0  0  0  0  0  0  0  0  0  0
  146.7880  141.7617  155.3309 N   0  0  0  0  0  0  0  0  0  0  0  0
  148.1091  141.7299  155.4458 C   0  0  0  0  0  0  0  0  0  0  0  0
  150.8312  141.3361  156.7364 N   0  0  0  0  0  0  0  0  0  0  0  0
  151.4686  141.3337  157.9184 C   0  0  0  0  0  0  0  0  0  0  0  0
  152.1295  140.3798  158.3300 O   0  0  0  0  0  0  0  0  0  0  0  0
  151.3212  142.5971  158.7751 C   0  0  1  0  0  0  0  0  0  0  0  0
  152.1772  142.4949  160.0583 C   0  0  0  0  0  0  0  0  0  0  0  0
  152.2575  143.8176  160.7997 C   0  0  0  0  0  0  0  0  0  0  0  0
  151.9259  144.9966  160.2460 C   0  0  0  0  0  0  0  0  0  0  0  0
  151.4376  145.1405  158.8154 C   0  0  0  0  0  0  0  0  0  0  0  0
  151.6863  143.8685  157.9827 C   0  0  0  0  0  0  0  0  0  0  0  0
  152.2016  138.8275  154.9046 H   0  0  0  0  0  0  0  0  0  0  0  0
  152.6411  139.3534  156.5244 H   0  0  0  0  0  0  0  0  0  0  0  0
  152.8588  140.4426  155.1555 H   0  0  0  0  0  0  0  0  0  0  0  0
  150.1870  139.4067  156.2060 H   0  0  0  0  0  0  0  0  0  0  0  0
  150.6366  141.5642  154.0762 H   0  0  0  0  0  0  0  0  0  0  0  0
  150.2858  139.8926  153.6992 H   0  0  0  0  0  0  0  0  0  0  0  0
  147.9055  139.6722  152.9994 H   0  0  0  0  0  0  0  0  0  0  0  0
  145.5151  140.7086  153.9420 H   0  0  0  0  0  0  0  0  0  0  0  0
  148.6426  142.3011  156.1913 H   0  0  0  0  0  0  0  0  0  0  0  0
  150.3156  142.1669  156.4841 H   0  0  0  0  0  0  0  0  0  0  0  0
  150.2746  142.6861  159.0729 H   0  0  0  0  0  0  0  0  0  0  0  0
  151.7508  141.7461  160.7270 H   0  0  0  0  0  0  0  0  0  0  0  0
  153.1952  142.1736  159.8328 H   0  0  0  0  0  0  0  0  0  0  0  0
  152.6138  143.7842  161.8188 H   0  0  0  0  0  0  0  0  0  0  0  0
  151.9922  145.9022  160.8312 H   0  0  0  0  0  0  0  0  0  0  0  0
  150.3721  145.3697  158.8442 H   0  0  0  0  0  0  0  0  0  0  0  0
  151.9336  145.9920  158.3490 H   0  0  0  0  0  0  0  0  0  0  0  0
  152.7391  143.8306  157.6978 H   0  0  0  0  0  0  0  0  0  0  0  0
  151.1184  143.9223  157.0528 H   0  0  0  0  0  0  0  0  0  0  0  0
  1  2  1  0  0  0  0
  1 18  1  0  0  0  0
  1 19  1  0  0  0  0
  1 20  1  0  0  0  0
  2  3  1  0  0  0  0
  2  9  1  0  0  0  0
  2 21  1  0  0  0  0
  3  4  1  0  0  0  0
  3 22  1  0  0  0  0
  3 23  1  0  0  0  0
  4  8  1  0  0  0  0
  4  5  1  0  0  0  0
  5  6  2  0  0  0  0
  5 24  1  0  0  0  0
  6  7  1  0  0  0  0
  6 25  1  0  0  0  0
  7  8  2  0  0  0  0
  8 26  1  0  0  0  0
  9 10  1  0  0  0  0
  9 27  1  0  0  0  0
 10 11  2  0  0  0  0
 10 12  1  0  0  0  0
 12 17  1  0  0  0  0
 12 13  1  0  0  0  0
 12 28  1  0  0  0  0
 13 14  1  0  0  0  0
 13 29  1  0  0  0  0
 13 30  1  0  0  0  0
 14 15  2  0  0  0  0
 14 31  1  0  0  0  0
 15 16  1  0  0  0  0
 15 32  1  0  0  0  0
 16 17  1  0  0  0  0
 16 33  1  0  0  0  0
 16 34  1  0  0  0  0
 17 35  1  0  0  0  0
 17 36  1  0  0  0  0
M  END
> <s_m_source_file>
AV-unprocessed.smi

> <i_m_source_file_index>
1677

> <i_lp_mmshare_version>
43012

> <i_f3d_flags>
0

> <s_epik_input>
W2NIXTFuW2NIXVtjSF1uMVtDSDJdW0NAQEhdKFtDSDNdKVtOSF1DKD1PKVtDQEBIXTJbQ0gyXVtDSF09W0NIXVtDSDJdW0NIMl0y

> <s_epik_cmdline>
J2VwaWtfcHl0aG9uJywgJy1waCcsICc3LjAnLCAnLXRuJywgJzgnLCAnLW1hJywgJzIwMCcsICctbWV0YWxfYmluZGluZycsICctaW1hZScsICc8aW5maWxlLm1hZT4nLCAnLW9tYWUnLCAnPG91dGZpbGUubWFlPic=

> <r_lp_tautomer_probability>
1

> <r_epik_Ionization_Penalty>
0.640435

> <r_epik_Ionization_Penalty_Charging>
0.640435

> <r_epik_Ionization_Penalty_Neutral>
2.11108e-08

> <r_epik_State_Penalty>
0.658069

> <r_epik_Charging_Adjusted_Penalty>
1.2985

> <i_epik_Tot_Q>
0

> <i_epik_Tot_abs_Q>
0

> <r_epik_Metal_State_Penalty>
0.311689

> <b_epik_Metal_Only>
0

> <s_lp_Force_Field>
OPLS_2005

> <r_lp_Energy>
9.94345

> <b_lp_Chiralities_Consistent>
1

> <s_lp_Variant>
AV-unprocessed.smi:1677-7

> <Gold.Version>
5.8.1

> <Gold.Id.Protein>
6NUR|6NUR_protein|mol2

> <Gold.PLP.Fitness>
43.8729

> <Gold.PLP.PLP>
-36.6660

> <Gold.PLP.part.hbond>
0.0000

> <Gold.PLP.part.metal>
0.0000

> <Gold.PLP.part.buried>
-0.1605

> <Gold.PLP.part.nonpolar>
-36.7627

> <Gold.PLP.part.repulsive>
0.1876

> <Gold.PLP.ligand.clash>
0.0000

> <Gold.PLP.ligand.torsion>
0.2811

> <Gold.PLP.Chemscore.Hbond>
0.0000

> <Gold.PLP.Chemscore.CHOScore>
2.5809

> <Gold.PLP.Chemscore.Metal>
0.0000

> <Gold.Chemscore.Hbonds>
donor molecule, donor type, donor heavy atom, donor atom, acceptor molecule, acceptor atom, score
      L1  C     5    24       P1  7957  0.90
      L1  C     6    25       P1 10175  1.00
      L1  C     8    26       P1  8028  0.68

> <Gold.PLP.Chemscore.Internal.Correction>
0.0263

> <Gold.Rescore>
     Score         DG    S(hbond)    S(metal)    S(lipo)     H(rot)  DE(clash)    DE(int)     intcor
     10.83     -12.32       0.00        0.00      96.71       1.75       0.05       1.44       ----

> <Gold.Chemscore.Fitness>
10.8264

> <Gold.Chemscore.DG>
-12.3215

> <Gold.Chemscore.ZeroCoef>
-5.4800

> <Gold.Chemscore.Hbond>
0.0000

> <Gold.Chemscore.Metal>
0.0000

> <Gold.Chemscore.Lipo>
96.7094

> <Gold.Chemscore.Internal_Hbond>
0.0000

> <Gold.Chemscore.DEClash>
0.0538

> <Gold.Chemscore.DEInternal>
1.4413

> <Gold.Chemscore.Rot>
1.7475

> <Gold.Chemscore.Internal.Correction>
   9.000000E+99

> <Gold.Chemscore.Hbond.Weighted>
-0.0000

> <Gold.Chemscore.Metal.Weighted>
-0.0000

> <Gold.Chemscore.Lipo.Weighted>
-11.3150

> <Gold.Chemscore.Internal_Hbond.Weighted>
0.0000

> <Gold.Chemscore.DEClash.Weighted>
0.0538

> <Gold.Chemscore.DEInternal.Weighted>
1.4413

> <Gold.Chemscore.Rot.Weighted>
4.4735

> <Gold.Chemscore.Internal.Correction.Weighted>
   9.000000E+99

> <Gold.Protein.RotatedTorsions>
[ 6907 6896 6895 6894 ] final  -22.98 input  -60.11 | X-H torsion
[ 7974 7965 7964 7962 ] final -159.59 input  175.53 | X-H torsion
[ 8008 7997 7996 7995 ] final  -94.58 input   59.86 | X-H torsion
[ 10167 10162 10161 10158 ] final -136.95 input  -65.29 | X-H torsion
[ 10718 10713 10712 10709 ] final  -97.83 input   66.30 | X-H torsion
[ 10763 10752 10751 10750 ] final  -16.54 input  -60.55 | X-H torsion
[ 11005 11000 10999 10996 ] final  142.41 input  -57.11 | X-H torsion

> <Gold.Protein.ActiveResidues>
 VAL166  LYS551  ARG553  GLY616  TRP617  ASP618  TYR619  PRO620  LYS621  CYS622 
 ASP623  PHE694  ASN695  SER759  ASP760  ASP761  ALA762  ILE779  LEU786  VAL792 
 PHE793  MET794  SER795  GLU796  ALA797  LYS798  CYS799  TRP800  GLU811  SER814 

> <Gold.Protein.RotatedAtoms>
  151.2106  135.0480  159.8909 H   0  0  0  0  0  0  0  0  0  0  0  0  # atno 6907 bound_to 6896
  152.5425  134.0749  159.8220 H   0  0  0  0  0  0  0  0  0  0  0  0  # atno 6908 bound_to 6896
  151.0902  133.5274  159.2647 H   0  0  0  0  0  0  0  0  0  0  0  0  # atno 6909 bound_to 6896
  144.7459  140.3664  143.6085 H   0  0  0  0  0  0  0  0  0  0  0  0  # atno 7974 bound_to 7965
  154.7503  140.0488  157.0887 H   0  0  0  0  0  0  0  0  0  0  0  0  # atno 8008 bound_to 7997
  155.0066  140.3131  155.4827 H   0  0  0  0  0  0  0  0  0  0  0  0  # atno 8009 bound_to 7997
  156.2884  140.2192  156.5178 H   0  0  0  0  0  0  0  0  0  0  0  0  # atno 8010 bound_to 7997
  139.8627  143.7057  152.2648 H   0  0  0  0  0  0  0  0  0  0  0  0  # atno 10167 bound_to 10162
  156.0092  130.5211  150.6432 H   0  0  0  0  0  0  0  0  0  0  0  0  # atno 10718 bound_to 10713
  153.5602  135.7010  153.5551 H   0  0  0  0  0  0  0  0  0  0  0  0  # atno 10763 bound_to 10752
  153.3436  135.4014  155.1591 H   0  0  0  0  0  0  0  0  0  0  0  0  # atno 10764 bound_to 10752
  154.8649  135.3748  154.5118 H   0  0  0  0  0  0  0  0  0  0  0  0  # atno 10765 bound_to 10752
  140.0475  134.9273  157.0956 H   0  0  0  0  0  0  0  0  0  0  0  0  # atno 11005 bound_to 11000
  145.7124  139.1688  143.2531 LP  0  0  0  0  0  0  0  0  0  0  0  0  # atno 17320 bound_to 7965
  146.1337  140.7151  142.9400 LP  0  0  0  0  0  0  0  0  0  0  0  0  # atno 17321 bound_to 7965
  139.7359  144.7571  151.0729 LP  0  0  0  0  0  0  0  0  0  0  0  0  # atno 17342 bound_to 10162
  140.7773  143.5032  150.9746 LP  0  0  0  0  0  0  0  0  0  0  0  0  # atno 17343 bound_to 10162
  157.4208  131.0836  151.1133 LP  0  0  0  0  0  0  0  0  0  0  0  0  # atno 17370 bound_to 10713
  157.1735  130.6278  149.5648 LP  0  0  0  0  0  0  0  0  0  0  0  0  # atno 17371 bound_to 10713
  140.3970  134.2123  155.7164 LP  0  0  0  0  0  0  0  0  0  0  0  0  # atno 17394 bound_to 11000
  141.1914  133.8196  157.0881 LP  0  0  0  0  0  0  0  0  0  0  0  0  # atno 17395 bound_to 11000

$$$$
