AV-unprocessed.smi:992|AV-procd|sdf|4331|dock2
  -GOLD-   22720 2233D 1   1.00000     0.00000
 Structure written by MMmdl.
 32 33  0  0  0  0  0  0  0  0  1 V2000
  151.2728  144.5213  158.2313 C   0  0  0  0  0  0  0  0  0  0  0  0
  150.5447  143.2954  158.8105 C   0  0  1  0  0  0  0  0  0  0  0  0
  149.9736  142.3518  157.7329 C   0  0  0  0  0  0  0  0  0  0  0  0
  151.0383  141.5811  157.1038 N   0  0  0  0  0  0  0  0  0  0  0  0
  150.5946  140.7979  156.0289 C   0  0  0  0  0  0  0  0  0  0  0  0
  149.2495  140.9034  155.6164 C   0  0  0  0  0  0  0  0  0  0  0  0
  148.8088  140.1162  154.5351 C   0  0  0  0  0  0  0  0  0  0  0  0
  149.7264  139.2509  153.9079 C   0  0  0  0  0  0  0  0  0  0  0  0
  149.3368  138.4530  152.8331 N   0  0  0  0  0  0  0  0  0  0  0  0
  151.0492  139.2121  154.3943 C   0  0  0  0  0  0  0  0  0  0  0  0
  151.4795  139.9651  155.4291 N   0  0  0  0  0  0  0  0  0  0  0  0
  151.8366  140.8475  158.0761 C   0  0  0  0  0  0  0  0  0  0  0  0
  152.4260  141.8206  159.1129 C   0  0  2  0  0  0  0  0  0  0  0  0
  153.1898  141.0854  160.2190 C   0  0  0  0  0  0  0  0  0  0  0  0
  151.3683  142.5623  159.7220 O   0  0  0  0  0  0  0  0  0  0  0  0
  150.5904  145.1302  157.6379 H   0  0  0  0  0  0  0  0  0  0  0  0
  152.1027  144.2421  157.5828 H   0  0  0  0  0  0  0  0  0  0  0  0
  151.6669  145.1509  159.0291 H   0  0  0  0  0  0  0  0  0  0  0  0
  149.7067  143.6750  159.3960 H   0  0  0  0  0  0  0  0  0  0  0  0
  149.2612  141.6654  158.1933 H   0  0  0  0  0  0  0  0  0  0  0  0
  149.4251  142.9205  156.9807 H   0  0  0  0  0  0  0  0  0  0  0  0
  148.5681  141.5764  156.1161 H   0  0  0  0  0  0  0  0  0  0  0  0
  147.7847  140.1788  154.1966 H   0  0  0  0  0  0  0  0  0  0  0  0
  148.3915  138.4742  152.4778 H   0  0  0  0  0  0  0  0  0  0  0  0
  149.9607  137.7681  152.4307 H   0  0  0  0  0  0  0  0  0  0  0  0
  151.7835  138.5612  153.9425 H   0  0  0  0  0  0  0  0  0  0  0  0
  151.2150  140.1026  158.5754 H   0  0  0  0  0  0  0  0  0  0  0  0
  152.6373  140.3107  157.5656 H   0  0  0  0  0  0  0  0  0  0  0  0
  153.1189  142.5040  158.6214 H   0  0  0  0  0  0  0  0  0  0  0  0
  154.0155  140.5052  159.8062 H   0  0  0  0  0  0  0  0  0  0  0  0
  152.5373  140.4005  160.7611 H   0  0  0  0  0  0  0  0  0  0  0  0
  153.6056  141.7899  160.9397 H   0  0  0  0  0  0  0  0  0  0  0  0
  1  2  1  0  0  0  0
  1 16  1  0  0  0  0
  1 17  1  0  0  0  0
  1 18  1  0  0  0  0
  2 15  1  0  0  0  0
  2  3  1  0  0  0  0
  2 19  1  0  0  0  0
  3  4  1  0  0  0  0
  3 20  1  0  0  0  0
  3 21  1  0  0  0  0
  4  5  1  0  0  0  0
  4 12  1  0  0  0  0
  5 11  1  0  0  0  0
  5  6  2  0  0  0  0
  6  7  1  0  0  0  0
  6 22  1  0  0  0  0
  7  8  2  0  0  0  0
  7 23  1  0  0  0  0
  8  9  1  0  0  0  0
  8 10  1  0  0  0  0
  9 24  1  0  0  0  0
  9 25  1  0  0  0  0
 10 11  2  0  0  0  0
 10 26  1  0  0  0  0
 12 13  1  0  0  0  0
 12 27  1  0  0  0  0
 12 28  1  0  0  0  0
 13 14  1  0  0  0  0
 13 15  1  0  0  0  0
 13 29  1  0  0  0  0
 14 30  1  0  0  0  0
 14 31  1  0  0  0  0
 14 32  1  0  0  0  0
M  END
> <s_m_source_file>
AV-unprocessed.smi

> <i_m_source_file_index>
992

> <i_lp_mmshare_version>
43012

> <i_f3d_flags>
0

> <s_epik_input>
W0NIM11bQ0BASF0xW0NIMl1OKFtDSDJdW0NASF0oTzEpW0NIM10pYzJbY0hdW2NIXWMoW05IMl0pW2NIXW4y

> <s_epik_cmdline>
J2VwaWtfcHl0aG9uJywgJy1waCcsICc3LjAnLCAnLXRuJywgJzgnLCAnLW1hJywgJzIwMCcsICctbWV0YWxfYmluZGluZycsICctaW1hZScsICc8aW5maWxlLm1hZT4nLCAnLW9tYWUnLCAnPG91dGZpbGUubWFlPic=

> <r_lp_tautomer_probability>
1

> <r_epik_Ionization_Penalty>
0.0126232

> <r_epik_Ionization_Penalty_Charging>
0

> <r_epik_Ionization_Penalty_Neutral>
0.0126232

> <r_epik_State_Penalty>
0.00976577

> <r_epik_Charging_Adjusted_Penalty>
0.00976577

> <i_epik_Tot_Q>
0

> <i_epik_Tot_abs_Q>
0

> <r_epik_Metal_State_Penalty>
9.84661e-06

> <b_epik_Metal_Only>
0

> <s_lp_Force_Field>
OPLS_2005

> <r_lp_Energy>
23.4256

> <b_lp_Chiralities_Consistent>
1

> <s_lp_Variant>
AV-unprocessed.smi:992-3

> <Gold.Version>
5.8.1

> <Gold.Id.Protein>
6NUR|6NUR_protein|mol2

> <Gold.PLP.Fitness>
34.0159

> <Gold.PLP.PLP>
-35.5759

> <Gold.PLP.part.hbond>
-2.0000

> <Gold.PLP.part.metal>
0.0000

> <Gold.PLP.part.buried>
-4.4775

> <Gold.PLP.part.nonpolar>
-30.5281

> <Gold.PLP.part.repulsive>
0.1124

> <Gold.PLP.ligand.clash>
3.0484

> <Gold.PLP.ligand.torsion>
0.1969

> <Gold.PLP.Chemscore.Hbond>
0.5949

> <Gold.PLP.Chemscore.CHOScore>
0.0000

> <Gold.PLP.Chemscore.Metal>
0.0000

> <Gold.Chemscore.Hbonds>
donor molecule, donor type, donor heavy atom, donor atom, acceptor molecule, acceptor atom, score
      L1  H     9    25       P1  7948  0.16

> <Gold.PLP.Chemscore.Internal.Correction>
0.0975

> <Gold.Rescore>
     Score         DG    S(hbond)    S(metal)    S(lipo)     H(rot)  DE(clash)    DE(int)     intcor
     16.10     -16.35       0.91        0.00      88.76       1.00       0.20       0.05       ----

> <Gold.Chemscore.Fitness>
16.1036

> <Gold.Chemscore.DG>
-16.3545

> <Gold.Chemscore.ZeroCoef>
-5.4800

> <Gold.Chemscore.Hbond>
0.9129

> <Gold.Chemscore.Metal>
0.0000

> <Gold.Chemscore.Lipo>
88.7641

> <Gold.Chemscore.Internal_Hbond>
0.0000

> <Gold.Chemscore.DEClash>
0.2007

> <Gold.Chemscore.DEInternal>
0.0502

> <Gold.Chemscore.Rot>
1.0000

> <Gold.Chemscore.Internal.Correction>
   9.000000E+99

> <Gold.Chemscore.Hbonds>
donor molecule, donor type, donor heavy atom, donor atom, acceptor molecule, acceptor atom, score
      L1  H     9    25       P1  7948  0.02

> <Gold.Chemscore.Hbond.Weighted>
-3.0491

> <Gold.Chemscore.Metal.Weighted>
-0.0000

> <Gold.Chemscore.Lipo.Weighted>
-10.3854

> <Gold.Chemscore.Internal_Hbond.Weighted>
0.0000

> <Gold.Chemscore.DEClash.Weighted>
0.2007

> <Gold.Chemscore.DEInternal.Weighted>
0.0502

> <Gold.Chemscore.Rot.Weighted>
2.5600

> <Gold.Chemscore.Internal.Correction.Weighted>
   9.000000E+99

> <Gold.Protein.RotatedTorsions>
[ 6907 6896 6895 6894 ] final   32.00 input  -60.11 | X-H torsion
[ 7974 7965 7964 7962 ] final  113.39 input  175.53 | X-H torsion
[ 8008 7997 7996 7995 ] final -131.67 input   59.86 | X-H torsion
[ 10167 10162 10161 10158 ] final   66.22 input  -65.29 | X-H torsion
[ 10718 10713 10712 10709 ] final  108.96 input   66.30 | X-H torsion
[ 10763 10752 10751 10750 ] final -157.23 input  -60.55 | X-H torsion
[ 11005 11000 10999 10996 ] final -164.11 input  -57.11 | X-H torsion

> <Gold.Protein.ActiveResidues>
 VAL166  LYS551  ARG553  GLY616  TRP617  ASP618  TYR619  PRO620  LYS621  CYS622 
 ASP623  PHE694  ASN695  SER759  ASP760  ASP761  ALA762  ILE779  LEU786  VAL792 
 PHE793  MET794  SER795  GLU796  ALA797  LYS798  CYS799  TRP800  GLU811  SER814 

> <Gold.Protein.RotatedAtoms>
  152.0682  134.9550  160.0574 H   0  0  0  0  0  0  0  0  0  0  0  0  # atno 6907 bound_to 6896
  152.0886  133.4184  159.4542 H   0  0  0  0  0  0  0  0  0  0  0  0  # atno 6908 bound_to 6896
  150.6836  134.2817  159.4673 H   0  0  0  0  0  0  0  0  0  0  0  0  # atno 6909 bound_to 6896
  145.2175  139.2877  143.4236 H   0  0  0  0  0  0  0  0  0  0  0  0  # atno 7974 bound_to 7965
  155.3161  140.0460  157.3037 H   0  0  0  0  0  0  0  0  0  0  0  0  # atno 8008 bound_to 7997
  154.5406  140.2286  155.8614 H   0  0  0  0  0  0  0  0  0  0  0  0  # atno 8009 bound_to 7997
  156.1877  140.3058  155.9277 H   0  0  0  0  0  0  0  0  0  0  0  0  # atno 8010 bound_to 7997
  140.1028  144.4888  150.7026 H   0  0  0  0  0  0  0  0  0  0  0  0  # atno 10167 bound_to 10162
  157.6563  131.0904  150.6383 H   0  0  0  0  0  0  0  0  0  0  0  0  # atno 10718 bound_to 10713
  154.7652  135.3129  154.8300 H   0  0  0  0  0  0  0  0  0  0  0  0  # atno 10763 bound_to 10752
  153.9050  135.6811  153.4757 H   0  0  0  0  0  0  0  0  0  0  0  0  # atno 10764 bound_to 10752
  153.1257  135.4802  154.9201 H   0  0  0  0  0  0  0  0  0  0  0  0  # atno 10765 bound_to 10752
  140.5906  134.5048  157.5192 H   0  0  0  0  0  0  0  0  0  0  0  0  # atno 11005 bound_to 11000
  146.3383  140.2470  142.8597 LP  0  0  0  0  0  0  0  0  0  0  0  0  # atno 17320 bound_to 7965
  144.9797  140.8447  143.5405 LP  0  0  0  0  0  0  0  0  0  0  0  0  # atno 17321 bound_to 7965
  140.6968  143.2409  151.4977 LP  0  0  0  0  0  0  0  0  0  0  0  0  # atno 17342 bound_to 10162
  139.5662  144.2038  152.1768 LP  0  0  0  0  0  0  0  0  0  0  0  0  # atno 17343 bound_to 10162
  156.6689  130.4534  149.5663 LP  0  0  0  0  0  0  0  0  0  0  0  0  # atno 17370 bound_to 10713
  156.2012  130.6621  151.1169 LP  0  0  0  0  0  0  0  0  0  0  0  0  # atno 17371 bound_to 10713
  139.9276  134.8026  156.1024 LP  0  0  0  0  0  0  0  0  0  0  0  0  # atno 17394 bound_to 11000
  141.0937  133.6704  156.2598 LP  0  0  0  0  0  0  0  0  0  0  0  0  # atno 17395 bound_to 11000

$$$$
