AV-unprocessed.smi:2732|AV-procd|sdf|10535|dock2
  -GOLD-   2272014583D 1   1.00000     0.00000
 Structure written by MMmdl.
 35 36  0  0  0  0  0  0  0  0  2 V2000
  151.3227  142.8940  157.2534 C   0  0  0  0  0  0  0  0  0  0  0  0
  151.7698  141.4284  157.1424 C   0  0  1  0  0  0  0  0  0  0  0  0
  151.4446  140.7866  158.3726 O   0  0  0  0  0  0  0  0  0  0  0  0
  152.5019  140.0529  158.9778 C   0  0  0  0  0  0  0  0  0  0  0  0
  153.3671  141.0099  159.7683 C   0  0  0  0  0  0  0  0  0  0  0  0
  152.7414  141.9665  160.7579 C   0  0  0  0  0  0  0  0  0  0  0  0
  153.3384  142.4935  159.4781 C   0  0  0  0  0  0  0  0  0  0  0  0
  151.0775  140.7154  155.9689 C   0  0  0  0  0  0  0  0  0  0  0  0
  151.7401  140.0176  155.2014 O   0  0  0  0  0  0  0  0  0  0  0  0
  149.7563  140.9414  155.8444 N   0  0  0  0  0  0  0  0  0  0  0  0
  148.8611  140.4360  154.8638 C   0  0  0  0  0  0  0  0  0  0  0  0
  147.6412  141.1203  154.6699 C   0  0  0  0  0  0  0  0  0  0  0  0
  146.7170  140.6471  153.7155 C   0  0  0  0  0  0  0  0  0  0  0  0
  147.0259  139.4870  152.9762 C   0  0  0  0  0  0  0  0  0  0  0  0
  146.1587  138.9661  152.0180 N   0  0  0  0  0  0  0  0  0  0  0  0
  148.1944  138.8472  153.1968 N   0  3  0  0  0  0  0  0  0  0  0  0
  149.1074  139.2684  154.0995 C   0  0  0  0  0  0  0  0  0  0  0  0
  151.5150  143.4397  156.3290 H   0  0  0  0  0  0  0  0  0  0  0  0
  151.8624  143.4020  158.0530 H   0  0  0  0  0  0  0  0  0  0  0  0
  150.2577  142.9736  157.4753 H   0  0  0  0  0  0  0  0  0  0  0  0
  152.8522  141.4128  156.9995 H   0  0  0  0  0  0  0  0  0  0  0  0
  152.1247  139.2738  159.6412 H   0  0  0  0  0  0  0  0  0  0  0  0
  153.1145  139.5738  158.2129 H   0  0  0  0  0  0  0  0  0  0  0  0
  154.3297  140.5942  160.0599 H   0  0  0  0  0  0  0  0  0  0  0  0
  151.6566  141.9721  160.8443 H   0  0  0  0  0  0  0  0  0  0  0  0
  153.2837  142.1585  161.6815 H   0  0  0  0  0  0  0  0  0  0  0  0
  154.2795  143.0353  159.5466 H   0  0  0  0  0  0  0  0  0  0  0  0
  152.6519  142.8473  158.7116 H   0  0  0  0  0  0  0  0  0  0  0  0
  149.3610  141.6042  156.4957 H   0  0  0  0  0  0  0  0  0  0  0  0
  147.4143  142.0075  155.2431 H   0  0  0  0  0  0  0  0  0  0  0  0
  145.7850  141.1703  153.5576 H   0  0  0  0  0  0  0  0  0  0  0  0
  145.2705  139.4025  151.8156 H   0  0  0  0  0  0  0  0  0  0  0  0
  146.3932  138.1413  151.4843 H   0  0  0  0  0  0  0  0  0  0  0  0
  149.9871  138.6474  154.1784 H   0  0  0  0  0  0  0  0  0  0  0  0
  148.3997  138.0045  152.6595 H   0  0  0  0  0  0  0  0  0  0  0  0
  1  2  1  0  0  0  0
  1 18  1  0  0  0  0
  1 19  1  0  0  0  0
  1 20  1  0  0  0  0
  2  3  1  0  0  0  0
  2  8  1  0  0  0  0
  2 21  1  0  0  0  0
  3  4  1  0  0  0  0
  4  5  1  0  0  0  0
  4 22  1  0  0  0  0
  4 23  1  0  0  0  0
  5  7  1  0  0  0  0
  5  6  1  0  0  0  0
  5 24  1  0  0  0  0
  6  7  1  0  0  0  0
  6 25  1  0  0  0  0
  6 26  1  0  0  0  0
  7 27  1  0  0  0  0
  7 28  1  0  0  0  0
  8  9  2  0  0  0  0
  8 10  1  0  0  0  0
 10 11  1  0  0  0  0
 10 29  1  0  0  0  0
 11 17  1  0  0  0  0
 11 12  2  0  0  0  0
 12 13  1  0  0  0  0
 12 30  1  0  0  0  0
 13 14  2  0  0  0  0
 13 31  1  0  0  0  0
 14 15  1  0  0  0  0
 14 16  1  0  0  0  0
 15 32  1  0  0  0  0
 15 33  1  0  0  0  0
 16 17  2  0  0  0  0
 16 35  1  0  0  0  0
 17 34  1  0  0  0  0
M  CHG  1  16   1
M  END
> <s_m_source_file>
AV-unprocessed.smi

> <i_m_source_file_index>
2732

> <i_lp_mmshare_version>
43012

> <i_f3d_flags>
0

> <s_epik_input>
W0NIMl0xW0NIMl1bQ0hdMVtDSDJdT1tDQEBIXShbQ0gzXSlDKD1PKVtOSF1jMltjSF1bY0hdYyhbTkgyXSluW2NIXTI=

> <s_epik_cmdline>
J2VwaWtfcHl0aG9uJywgJy1waCcsICc3LjAnLCAnLXRuJywgJzgnLCAnLW1hJywgJzIwMCcsICctbWV0YWxfYmluZGluZycsICctaW1hZScsICc8aW5maWxlLm1hZT4nLCAnLW9tYWUnLCAnPG91dGZpbGUubWFlPic=

> <r_lp_tautomer_probability>
0.999994

> <r_epik_Ionization_Penalty>
1.25173

> <r_epik_Ionization_Penalty_Charging>
1.25172

> <r_epik_Ionization_Penalty_Neutral>
2.35798e-06

> <r_epik_State_Penalty>
1.32157

> <r_epik_Charging_Adjusted_Penalty>
2.5733

> <i_epik_Tot_Q>
1

> <i_epik_Tot_abs_Q>
1

> <r_epik_Metal_State_Penalty>
1.39188

> <b_epik_Metal_Only>
0

> <s_lp_Force_Field>
OPLS_2005

> <r_lp_Energy>
25.671

> <b_lp_Chiralities_Consistent>
1

> <s_lp_Variant>
AV-unprocessed.smi:2732-4

> <Gold.Version>
5.8.1

> <Gold.Id.Protein>
6NUR|6NUR_protein|mol2

> <Gold.PLP.Fitness>
46.6114

> <Gold.PLP.PLP>
-34.7721

> <Gold.PLP.part.hbond>
-4.4842

> <Gold.PLP.part.metal>
0.0000

> <Gold.PLP.part.buried>
-4.7690

> <Gold.PLP.part.nonpolar>
-26.4660

> <Gold.PLP.part.repulsive>
0.2177

> <Gold.PLP.ligand.clash>
0.0000

> <Gold.PLP.ligand.torsion>
1.5612

> <Gold.PLP.Chemscore.Hbond>
4.7985

> <Gold.PLP.Chemscore.CHOScore>
0.0000

> <Gold.PLP.Chemscore.Metal>
0.0000

> <Gold.Chemscore.Hbonds>
donor molecule, donor type, donor heavy atom, donor atom, acceptor molecule, acceptor atom, score
      L1  H    15    32       P1 10175  1.98
      L1  H    16    35       P1  7948  2.00
      P1  H  7989  7998       L1     9  0.96

> <Gold.PLP.Chemscore.Internal.Correction>
0.5662

> <Gold.Rescore>
     Score         DG    S(hbond)    S(metal)    S(lipo)     H(rot)  DE(clash)    DE(int)     intcor
     16.40     -19.17       2.76        0.00      76.74       1.76       0.25       2.53       ----

> <Gold.Chemscore.Fitness>
16.3954

> <Gold.Chemscore.DG>
-19.1710

> <Gold.Chemscore.ZeroCoef>
-5.4800

> <Gold.Chemscore.Hbond>
2.7603

> <Gold.Chemscore.Metal>
0.0000

> <Gold.Chemscore.Lipo>
76.7376

> <Gold.Chemscore.Internal_Hbond>
0.0000

> <Gold.Chemscore.DEClash>
0.2463

> <Gold.Chemscore.DEInternal>
2.5293

> <Gold.Chemscore.Rot>
1.7604

> <Gold.Chemscore.Internal.Correction>
   9.000000E+99

> <Gold.Chemscore.Hbonds>
donor molecule, donor type, donor heavy atom, donor atom, acceptor molecule, acceptor atom, score
      L1  H    15    32       P1 10175  0.82
      L1  H    16    35       P1  7948  0.96
      P1  H  7989  7998       L1     9  0.51

> <Gold.Chemscore.Hbond.Weighted>
-9.2193

> <Gold.Chemscore.Metal.Weighted>
-0.0000

> <Gold.Chemscore.Lipo.Weighted>
-8.9783

> <Gold.Chemscore.Internal_Hbond.Weighted>
0.0000

> <Gold.Chemscore.DEClash.Weighted>
0.2463

> <Gold.Chemscore.DEInternal.Weighted>
2.5293

> <Gold.Chemscore.Rot.Weighted>
4.5065

> <Gold.Chemscore.Internal.Correction.Weighted>
   9.000000E+99

> <Gold.Protein.RotatedTorsions>
[ 6907 6896 6895 6894 ] final   11.54 input  -60.11 | X-H torsion
[ 7974 7965 7964 7962 ] final -158.20 input  175.53 | X-H torsion
[ 8008 7997 7996 7995 ] final -121.66 input   59.86 | X-H torsion
[ 10167 10162 10161 10158 ] final -126.82 input  -65.29 | X-H torsion
[ 10718 10713 10712 10709 ] final -178.17 input   66.30 | X-H torsion
[ 10763 10752 10751 10750 ] final   60.26 input  -60.55 | X-H torsion
[ 11005 11000 10999 10996 ] final   85.19 input  -57.11 | X-H torsion

> <Gold.Protein.ActiveResidues>
 VAL166  LYS551  ARG553  GLY616  TRP617  ASP618  TYR619  PRO620  LYS621  CYS622 
 ASP623  PHE694  ASN695  SER759  ASP760  ASP761  ALA762  ILE779  LEU786  VAL792 
 PHE793  MET794  SER795  GLU796  ALA797  LYS798  CYS799  TRP800  GLU811  SER814 

> <Gold.Protein.RotatedAtoms>
  151.7560  135.0821  160.0338 H   0  0  0  0  0  0  0  0  0  0  0  0  # atno 6907 bound_to 6896
  152.3385  133.6035  159.5868 H   0  0  0  0  0  0  0  0  0  0  0  0  # atno 6908 bound_to 6896
  150.7465  133.9675  159.3577 H   0  0  0  0  0  0  0  0  0  0  0  0  # atno 6909 bound_to 6896
  144.7516  140.3861  143.6044 H   0  0  0  0  0  0  0  0  0  0  0  0  # atno 7974 bound_to 7965
  155.1517  140.0404  157.2822 H   0  0  0  0  0  0  0  0  0  0  0  0  # atno 8008 bound_to 7997
  154.6400  140.2544  155.7307 H   0  0  0  0  0  0  0  0  0  0  0  0  # atno 8009 bound_to 7997
  156.2527  140.2858  156.0789 H   0  0  0  0  0  0  0  0  0  0  0  0  # atno 8010 bound_to 7997
  139.9674  143.5883  152.2425 H   0  0  0  0  0  0  0  0  0  0  0  0  # atno 10167 bound_to 10162
  156.8403  130.9684  151.3100 H   0  0  0  0  0  0  0  0  0  0  0  0  # atno 10718 bound_to 10713
  152.9916  135.5542  154.5845 H   0  0  0  0  0  0  0  0  0  0  0  0  # atno 10763 bound_to 10752
  154.5219  135.2808  155.1257 H   0  0  0  0  0  0  0  0  0  0  0  0  # atno 10764 bound_to 10752
  154.2607  135.6381  153.5326 H   0  0  0  0  0  0  0  0  0  0  0  0  # atno 10765 bound_to 10752
  139.8978  134.8269  156.2549 H   0  0  0  0  0  0  0  0  0  0  0  0  # atno 11005 bound_to 11000
  145.6925  139.1642  143.2638 LP  0  0  0  0  0  0  0  0  0  0  0  0  # atno 17320 bound_to 7965
  146.1473  140.6975  142.9339 LP  0  0  0  0  0  0  0  0  0  0  0  0  # atno 17321 bound_to 7965
  139.6507  144.7660  151.2153 LP  0  0  0  0  0  0  0  0  0  0  0  0  # atno 17342 bound_to 10162
  140.7533  143.6165  150.8555 LP  0  0  0  0  0  0  0  0  0  0  0  0  # atno 17343 bound_to 10162
  157.6359  130.8766  149.9358 LP  0  0  0  0  0  0  0  0  0  0  0  0  # atno 17370 bound_to 10713
  156.0884  130.3666  150.0442 LP  0  0  0  0  0  0  0  0  0  0  0  0  # atno 17371 bound_to 10713
  141.0200  133.7047  156.1252 LP  0  0  0  0  0  0  0  0  0  0  0  0  # atno 17394 bound_to 11000
  140.7247  134.4320  157.5572 LP  0  0  0  0  0  0  0  0  0  0  0  0  # atno 17395 bound_to 11000

$$$$
