AV-unprocessed.smi:2062|AV-procd|sdf|8400|dock2
  -GOLD-   2272011 83D 1   1.00000     0.00000
 Structure written by MMmdl.
 42 43  0  0  0  0  0  0  0  0  1 V2000
  152.4964  143.4187  160.2924 C   0  0  0  0  0  0  0  0  0  0  0  0
  152.3248  143.1471  158.7876 C   0  0  0  0  0  0  0  0  0  0  0  0
  152.1375  144.4356  157.9690 C   0  0  0  0  0  0  0  0  0  0  0  0
  151.2841  142.0457  158.4668 C   0  0  0  0  0  0  0  0  0  0  0  0
  151.1966  141.5737  157.0812 N   0  0  0  0  0  0  0  0  0  0  0  0
  151.5206  140.1529  157.0028 C   0  0  0  0  0  0  0  0  0  0  0  0
  151.4415  139.6184  155.5639 C   0  0  0  0  0  0  0  0  0  0  0  0
  150.1431  139.8691  155.0395 O   0  0  0  0  0  0  0  0  0  0  0  0
  149.8072  141.2544  155.0350 C   0  0  1  0  0  0  0  0  0  0  0  0
  148.3989  141.4148  154.4373 C   0  0  0  0  0  0  0  0  0  0  0  0
  148.1255  140.4057  153.4196 N   0  0  0  0  0  0  0  0  0  0  0  0
  147.1476  139.4909  153.4881 C   0  0  0  0  0  0  0  0  0  0  0  0
  146.3711  139.3980  154.4394 O   0  0  0  0  0  0  0  0  0  0  0  0
  147.1350  138.7084  152.3948 N   0  0  0  0  0  0  0  0  0  0  0  0
  146.2608  137.6301  152.0968 C   0  0  0  0  0  0  0  0  0  0  0  0
  145.5783  136.9351  153.0146 N   0  0  0  0  0  0  0  0  0  0  0  0
  144.7976  135.9299  152.4382 C   0  0  0  0  0  0  0  0  0  0  0  0
  144.8977  135.8737  151.0702 C   0  0  0  0  0  0  0  0  0  0  0  0
  145.9827  137.0883  150.4480 S   0  0  0  0  0  0  0  0  0  0  0  0
  149.8840  141.7919  156.4781 C   0  0  0  0  0  0  0  0  0  0  0  0
  151.6314  143.9084  160.7343 H   0  0  0  0  0  0  0  0  0  0  0  0
  153.3560  144.0653  160.4708 H   0  0  0  0  0  0  0  0  0  0  0  0
  152.6694  142.4924  160.8404 H   0  0  0  0  0  0  0  0  0  0  0  0
  153.2828  142.7310  158.4729 H   0  0  0  0  0  0  0  0  0  0  0  0
  151.2258  144.9642  158.2475 H   0  0  0  0  0  0  0  0  0  0  0  0
  152.0831  144.2170  156.9021 H   0  0  0  0  0  0  0  0  0  0  0  0
  152.9725  145.1198  158.1221 H   0  0  0  0  0  0  0  0  0  0  0  0
  151.5511  141.1892  159.0877 H   0  0  0  0  0  0  0  0  0  0  0  0
  150.2982  142.3533  158.8188 H   0  0  0  0  0  0  0  0  0  0  0  0
  152.5241  139.9798  157.3933 H   0  0  0  0  0  0  0  0  0  0  0  0
  150.8380  139.5826  157.6351 H   0  0  0  0  0  0  0  0  0  0  0  0
  152.1963  140.0893  154.9321 H   0  0  0  0  0  0  0  0  0  0  0  0
  151.6322  138.5455  155.5468 H   0  0  0  0  0  0  0  0  0  0  0  0
  150.5269  141.7948  154.4169 H   0  0  0  0  0  0  0  0  0  0  0  0
  147.6468  141.3263  155.2219 H   0  0  0  0  0  0  0  0  0  0  0  0
  148.2805  142.4111  154.0076 H   0  0  0  0  0  0  0  0  0  0  0  0
  148.7154  140.4154  152.6005 H   0  0  0  0  0  0  0  0  0  0  0  0
  147.8347  138.9053  151.6946 H   0  0  0  0  0  0  0  0  0  0  0  0
  144.1995  135.2978  153.0780 H   0  0  0  0  0  0  0  0  0  0  0  0
  144.4007  135.1941  150.3940 H   0  0  0  0  0  0  0  0  0  0  0  0
  149.1119  141.3207  157.0884 H   0  0  0  0  0  0  0  0  0  0  0  0
  149.6606  142.8555  156.4474 H   0  0  0  0  0  0  0  0  0  0  0  0
  1  2  1  0  0  0  0
  1 21  1  0  0  0  0
  1 22  1  0  0  0  0
  1 23  1  0  0  0  0
  2  3  1  0  0  0  0
  2  4  1  0  0  0  0
  2 24  1  0  0  0  0
  3 25  1  0  0  0  0
  3 26  1  0  0  0  0
  3 27  1  0  0  0  0
  4  5  1  0  0  0  0
  4 28  1  0  0  0  0
  4 29  1  0  0  0  0
  5 20  1  0  0  0  0
  5  6  1  0  0  0  0
  6  7  1  0  0  0  0
  6 30  1  0  0  0  0
  6 31  1  0  0  0  0
  7  8  1  0  0  0  0
  7 32  1  0  0  0  0
  7 33  1  0  0  0  0
  8  9  1  0  0  0  0
  9 10  1  0  0  0  0
  9 20  1  0  0  0  0
  9 34  1  0  0  0  0
 10 11  1  0  0  0  0
 10 35  1  0  0  0  0
 10 36  1  0  0  0  0
 11 12  1  0  0  0  0
 11 37  1  0  0  0  0
 12 13  2  0  0  0  0
 12 14  1  0  0  0  0
 14 15  1  0  0  0  0
 14 38  1  0  0  0  0
 15 19  1  0  0  0  0
 15 16  2  0  0  0  0
 16 17  1  0  0  0  0
 17 18  2  0  0  0  0
 17 39  1  0  0  0  0
 18 19  1  0  0  0  0
 18 40  1  0  0  0  0
 20 41  1  0  0  0  0
 20 42  1  0  0  0  0
M  END
> <s_m_source_file>
AV-unprocessed.smi

> <i_m_source_file_index>
2062

> <i_lp_mmshare_version>
43012

> <i_f3d_flags>
0

> <s_epik_input>
W0NIM11bQ0hdKFtDSDNdKVtDSDJdTjFbQ0gyXVtDSDJdT1tDQEhdKFtDSDJdMSlbQ0gyXVtOSF1DKD1PKVtOSF1jMm5bY0hdW2NIXXMy

> <s_epik_cmdline>
J2VwaWtfcHl0aG9uJywgJy1waCcsICc3LjAnLCAnLXRuJywgJzgnLCAnLW1hJywgJzIwMCcsICctbWV0YWxfYmluZGluZycsICctaW1hZScsICc8aW5maWxlLm1hZT4nLCAnLW9tYWUnLCAnPG91dGZpbGUubWFlPic=

> <r_lp_tautomer_probability>
0.999

> <r_epik_Ionization_Penalty>
1.11227

> <r_epik_Ionization_Penalty_Charging>
0

> <r_epik_Ionization_Penalty_Neutral>
1.11227

> <r_epik_State_Penalty>
1.17021

> <r_epik_Charging_Adjusted_Penalty>
1.17021

> <i_epik_Tot_Q>
0

> <i_epik_Tot_abs_Q>
0

> <r_epik_Metal_State_Penalty>
1.22349

> <b_epik_Metal_Only>
0

> <s_lp_Force_Field>
OPLS_2005

> <r_lp_Energy>
27.0187

> <b_lp_Chiralities_Consistent>
1

> <s_lp_Variant>
AV-unprocessed.smi:2062-5

> <Gold.Version>
5.8.1

> <Gold.Id.Protein>
6NUR|6NUR_protein|mol2

> <Gold.PLP.Fitness>
41.8927

> <Gold.PLP.PLP>
-38.2636

> <Gold.PLP.part.hbond>
-3.2709

> <Gold.PLP.part.metal>
0.0000

> <Gold.PLP.part.buried>
4.0282

> <Gold.PLP.part.nonpolar>
-39.7448

> <Gold.PLP.part.repulsive>
0.5693

> <Gold.PLP.ligand.clash>
0.0000

> <Gold.PLP.ligand.torsion>
1.2056

> <Gold.PLP.Chemscore.Hbond>
1.9920

> <Gold.PLP.Chemscore.CHOScore>
0.0000

> <Gold.PLP.Chemscore.Metal>
0.0000

> <Gold.Chemscore.Hbonds>
donor molecule, donor type, donor heavy atom, donor atom, acceptor molecule, acceptor atom, score
      L1  H    11    37       P1  7957  1.00
      L1  H    14    38       P1  7957  0.73

> <Gold.PLP.Chemscore.Internal.Correction>
0.0643

> <Gold.Rescore>
     Score         DG    S(hbond)    S(metal)    S(lipo)     H(rot)  DE(clash)    DE(int)     intcor
     14.76     -19.57       1.93        0.00     102.99       1.72       2.41       2.41       ----

> <Gold.Chemscore.Fitness>
14.7583

> <Gold.Chemscore.DG>
-19.5695

> <Gold.Chemscore.ZeroCoef>
-5.4800

> <Gold.Chemscore.Hbond>
1.9285

> <Gold.Chemscore.Metal>
0.0000

> <Gold.Chemscore.Lipo>
102.9930

> <Gold.Chemscore.Internal_Hbond>
0.0000

> <Gold.Chemscore.DEClash>
2.4058

> <Gold.Chemscore.DEInternal>
2.4054

> <Gold.Chemscore.Rot>
1.7195

> <Gold.Chemscore.Internal.Correction>
   9.000000E+99

> <Gold.Chemscore.Hbonds>
donor molecule, donor type, donor heavy atom, donor atom, acceptor molecule, acceptor atom, score
      L1  H    11    37       P1  7957  1.00
      L1  H    14    38       P1  7957  0.62

> <Gold.Chemscore.Hbond.Weighted>
-6.4412

> <Gold.Chemscore.Metal.Weighted>
-0.0000

> <Gold.Chemscore.Lipo.Weighted>
-12.0502

> <Gold.Chemscore.Internal_Hbond.Weighted>
0.0000

> <Gold.Chemscore.DEClash.Weighted>
2.4058

> <Gold.Chemscore.DEInternal.Weighted>
2.4054

> <Gold.Chemscore.Rot.Weighted>
4.4019

> <Gold.Chemscore.Internal.Correction.Weighted>
   9.000000E+99

> <Gold.Protein.RotatedTorsions>
[ 6907 6896 6895 6894 ] final  154.01 input  -60.11 | X-H torsion
[ 7974 7965 7964 7962 ] final -127.12 input  175.53 | X-H torsion
[ 8008 7997 7996 7995 ] final   27.23 input   59.86 | X-H torsion
[ 10167 10162 10161 10158 ] final  105.67 input  -65.29 | X-H torsion
[ 10718 10713 10712 10709 ] final   74.87 input   66.30 | X-H torsion
[ 10763 10752 10751 10750 ] final -155.28 input  -60.55 | X-H torsion
[ 11005 11000 10999 10996 ] final  157.10 input  -57.11 | X-H torsion

> <Gold.Protein.ActiveResidues>
 VAL166  LYS551  ARG553  GLY616  TRP617  ASP618  TYR619  PRO620  LYS621  CYS622 
 ASP623  PHE694  ASN695  SER759  ASP760  ASP761  ALA762  ILE779  LEU786  VAL792 
 PHE793  MET794  SER795  GLU796  ALA797  LYS798  CYS799  TRP800  GLU811  SER814 

> <Gold.Protein.RotatedAtoms>
  152.0646  133.4078  159.4432 H   0  0  0  0  0  0  0  0  0  0  0  0  # atno 6907 bound_to 6896
  150.6865  134.3162  159.4776 H   0  0  0  0  0  0  0  0  0  0  0  0  # atno 6908 bound_to 6896
  152.0986  134.9357  160.0621 H   0  0  0  0  0  0  0  0  0  0  0  0  # atno 6909 bound_to 6896
  144.9803  140.7634  143.4616 H   0  0  0  0  0  0  0  0  0  0  0  0  # atno 7974 bound_to 7965
  155.0397  140.3168  155.4729 H   0  0  0  0  0  0  0  0  0  0  0  0  # atno 8008 bound_to 7997
  156.2857  140.2165  156.5463 H   0  0  0  0  0  0  0  0  0  0  0  0  # atno 8009 bound_to 7997
  154.7300  140.0482  157.0706 H   0  0  0  0  0  0  0  0  0  0  0  0  # atno 8010 bound_to 7997
  139.7073  144.7084  151.1085 H   0  0  0  0  0  0  0  0  0  0  0  0  # atno 10167 bound_to 10162
  157.6610  130.9699  150.1272 H   0  0  0  0  0  0  0  0  0  0  0  0  # atno 10718 bound_to 10713
  154.7798  135.3171  154.8014 H   0  0  0  0  0  0  0  0  0  0  0  0  # atno 10763 bound_to 10752
  153.8728  135.6842  153.4777 H   0  0  0  0  0  0  0  0  0  0  0  0  # atno 10764 bound_to 10752
  153.1431  135.4730  154.9463 H   0  0  0  0  0  0  0  0  0  0  0  0  # atno 10765 bound_to 10752
  140.1738  134.8524  157.2721 H   0  0  0  0  0  0  0  0  0  0  0  0  # atno 11005 bound_to 11000
  145.2430  139.2064  143.4982 LP  0  0  0  0  0  0  0  0  0  0  0  0  # atno 17320 bound_to 7965
  146.3406  140.2329  142.8594 LP  0  0  0  0  0  0  0  0  0  0  0  0  # atno 17321 bound_to 7965
  140.7725  143.5341  150.9389 LP  0  0  0  0  0  0  0  0  0  0  0  0  # atno 17342 bound_to 10162
  139.9024  143.6819  152.3129 LP  0  0  0  0  0  0  0  0  0  0  0  0  # atno 17343 bound_to 10162
  156.2128  130.3668  149.8649 LP  0  0  0  0  0  0  0  0  0  0  0  0  # atno 17370 bound_to 10713
  156.6523  130.8748  151.3533 LP  0  0  0  0  0  0  0  0  0  0  0  0  # atno 17371 bound_to 10713
  140.2347  134.3867  155.7506 LP  0  0  0  0  0  0  0  0  0  0  0  0  # atno 17394 bound_to 11000
  141.2219  133.7233  156.8695 LP  0  0  0  0  0  0  0  0  0  0  0  0  # atno 17395 bound_to 11000

$$$$
