AV-unprocessed.smi:54|AV-procd|sdf|540|dock1
  -GOLD-   2262016423D 1   1.00000     0.00000
 Structure written by MMmdl.
 44 46  0  0  0  0  0  0  0  0  1 V2000
  152.6379  143.1355  160.5847 C   0  0  0  0  0  0  0  0  0  0  0  0
  152.4408  143.7793  159.2027 C   0  0  0  0  0  0  0  0  0  0  0  0
  151.5685  145.0417  159.2943 C   0  0  0  0  0  0  0  0  0  0  0  0
  151.8323  142.7718  158.2207 C   0  0  0  0  0  0  0  0  0  0  0  0
  151.1773  143.1301  157.2412 O   0  0  0  0  0  0  0  0  0  0  0  0
  152.0820  141.3745  158.5286 N   0  0  0  0  0  0  0  0  0  0  0  0
  151.6564  140.2891  157.8408 C   0  0  0  0  0  0  0  0  0  0  0  0
  151.0223  140.3667  156.6795 N   0  0  0  0  0  0  0  0  0  0  0  0
  150.6636  139.1603  156.1460 C   0  0  0  0  0  0  0  0  0  0  0  0
  150.9006  137.9158  156.6905 C   0  0  0  0  0  0  0  0  0  0  0  0
  150.3838  136.9247  155.8635 N   0  0  0  0  0  0  0  0  0  0  0  0
  149.8555  137.5848  154.8705 C   0  0  0  0  0  0  0  0  0  0  0  0
  149.9834  138.9510  154.9666 N   0  0  0  0  0  0  0  0  0  0  0  0
  149.5034  140.0188  154.0377 C   0  0  1  0  0  0  0  0  0  0  0  0
  148.7804  139.4000  153.0141 O   0  0  0  0  0  0  0  0  0  0  0  0
  147.4299  139.8525  152.9994 C   0  0  1  0  0  0  0  0  0  0  0  0
  146.4804  138.7384  152.5254 C   0  0  0  0  0  0  0  0  0  0  0  0
  146.5587  138.5927  151.1235 O   0  0  0  0  0  0  0  0  0  0  0  0
  147.1763  140.4407  154.3949 C   0  0  1  0  0  0  0  0  0  0  0  0
  146.7355  139.4545  155.3099 O   0  0  0  0  0  0  0  0  0  0  0  0
  148.5499  140.9606  154.7895 C   0  0  2  0  0  0  0  0  0  0  0  0
  148.7263  142.3007  154.3757 O   0  0  0  0  0  0  0  0  0  0  0  0
  151.5926  137.8143  157.9427 C   0  0  0  0  0  0  0  0  0  0  0  0
  151.8902  136.7992  158.5686 O   0  0  0  0  0  0  0  0  0  0  0  0
  151.9390  139.0704  158.4583 N   0  0  0  0  0  0  0  0  0  0  0  0
  150.4154  140.4916  153.6702 H   0  0  0  0  0  0  0  0  0  0  0  0
  147.3982  140.6715  152.2787 H   0  0  0  0  0  0  0  0  0  0  0  0
  146.4235  141.2298  154.3715 H   0  0  0  0  0  0  0  0  0  0  0  0
  148.7205  140.9227  155.8669 H   0  0  0  0  0  0  0  0  0  0  0  0
  153.2517  142.2363  160.5197 H   0  0  0  0  0  0  0  0  0  0  0  0
  151.6853  142.8567  161.0374 H   0  0  0  0  0  0  0  0  0  0  0  0
  153.1380  143.8233  161.2669 H   0  0  0  0  0  0  0  0  0  0  0  0
  153.4208  144.0743  158.8249 H   0  0  0  0  0  0  0  0  0  0  0  0
  151.4189  145.4934  158.3128 H   0  0  0  0  0  0  0  0  0  0  0  0
  152.0367  145.7925  159.9311 H   0  0  0  0  0  0  0  0  0  0  0  0
  150.5856  144.8209  159.7129 H   0  0  0  0  0  0  0  0  0  0  0  0
  152.6320  141.1979  159.3561 H   0  0  0  0  0  0  0  0  0  0  0  0
  149.3563  137.0914  154.0494 H   0  0  0  0  0  0  0  0  0  0  0  0
  146.7639  137.7906  152.9834 H   0  0  0  0  0  0  0  0  0  0  0  0
  145.4495  138.9358  152.8202 H   0  0  0  0  0  0  0  0  0  0  0  0
  145.6873  138.6657  150.7643 H   0  0  0  0  0  0  0  0  0  0  0  0
  147.4546  138.8659  155.4826 H   0  0  0  0  0  0  0  0  0  0  0  0
  148.6259  142.8629  155.1287 H   0  0  0  0  0  0  0  0  0  0  0  0
  152.4259  139.0748  159.3425 H   0  0  0  0  0  0  0  0  0  0  0  0
  1  2  1  0  0  0  0
  1 30  1  0  0  0  0
  1 31  1  0  0  0  0
  1 32  1  0  0  0  0
  2  3  1  0  0  0  0
  2  4  1  0  0  0  0
  2 33  1  0  0  0  0
  3 34  1  0  0  0  0
  3 35  1  0  0  0  0
  3 36  1  0  0  0  0
  4  5  2  0  0  0  0
  4  6  1  0  0  0  0
  6 37  1  0  0  0  0
  6  7  1  0  0  0  0
  7 25  1  0  0  0  0
  7  8  2  0  0  0  0
  8  9  1  0  0  0  0
  9 13  1  0  0  0  0
  9 10  2  0  0  0  0
 10 11  1  0  0  0  0
 10 23  1  0  0  0  0
 11 12  2  0  0  0  0
 12 13  1  0  0  0  0
 12 38  1  0  0  0  0
 13 14  1  0  0  0  0
 14 26  1  0  0  0  0
 14 21  1  0  0  0  0
 14 15  1  0  0  0  0
 15 16  1  0  0  0  0
 16 27  1  0  0  0  0
 16 17  1  0  0  0  0
 16 19  1  0  0  0  0
 17 18  1  0  0  0  0
 17 39  1  0  0  0  0
 17 40  1  0  0  0  0
 18 41  1  0  0  0  0
 19 28  1  0  0  0  0
 19 20  1  0  0  0  0
 19 21  1  0  0  0  0
 20 42  1  0  0  0  0
 21 29  1  0  0  0  0
 21 22  1  0  0  0  0
 22 43  1  0  0  0  0
 23 24  2  0  0  0  0
 23 25  1  0  0  0  0
 25 44  1  0  0  0  0
M  END
> <s_m_source_file>
AV-unprocessed.smi

> <i_m_source_file_index>
54

> <i_lp_mmshare_version>
43012

> <i_f3d_flags>
0

> <s_epik_input>
W0NIM11bQ0hdKFtDSDNdKUMoPU8pW05IXWMobjEpW25IXWMoPU8pYyhjMTIpbltjSF1uMltDQEBIXTNPW0NASF0oW0NIMl1bT0hdKVtDQEBIXShbT0hdKVtDQEhdM1tPSF0=

> <s_epik_cmdline>
J2VwaWtfcHl0aG9uJywgJy1waCcsICc3LjAnLCAnLXRuJywgJzgnLCAnLW1hJywgJzIwMCcsICctbWV0YWxfYmluZGluZycsICctaW1hZScsICc8aW5maWxlLm1hZT4nLCAnLW9tYWUnLCAnPG91dGZpbGUubWFlPic=

> <r_lp_tautomer_probability>
0.85571

> <r_epik_Ionization_Penalty>
0.0316551

> <r_epik_Ionization_Penalty_Charging>
0.0316043

> <r_epik_Ionization_Penalty_Neutral>
5.07097e-05

> <r_epik_State_Penalty>
3.15494e-07

> <r_epik_Charging_Adjusted_Penalty>
0.0316047

> <i_epik_Tot_Q>
0

> <i_epik_Tot_abs_Q>
0

> <r_epik_Metal_State_Penalty>
0.421206

> <b_epik_Metal_Only>
0

> <s_epik_Chemistry_Notes>
This compound contains an acetal/aminal-like group ( X-CH(R)-Y where X, Y are N, S, or O) that may be acid/base labile, releasing an aldehyde.

> <s_lp_Force_Field>
OPLS_2005

> <r_lp_Energy>
34.69

> <b_lp_Chiralities_Consistent>
1

> <s_lp_Variant>
AV-unprocessed.smi:54-12

> <Gold.Version>
5.8.1

> <Gold.Id.Protein>
6NUR|6NUR_protein|mol2

> <Gold.PLP.Fitness>
46.0211

> <Gold.PLP.PLP>
-32.5608

> <Gold.PLP.part.hbond>
-5.2851

> <Gold.PLP.part.metal>
0.0000

> <Gold.PLP.part.buried>
-2.8722

> <Gold.PLP.part.nonpolar>
-30.3355

> <Gold.PLP.part.repulsive>
6.2943

> <Gold.PLP.ligand.clash>
0.0000

> <Gold.PLP.ligand.torsion>
0.8967

> <Gold.PLP.Chemscore.Hbond>
4.0677

> <Gold.PLP.Chemscore.CHOScore>
1.0000

> <Gold.PLP.Chemscore.Metal>
0.0000

> <Gold.Chemscore.Hbonds>
donor molecule, donor type, donor heavy atom, donor atom, acceptor molecule, acceptor atom, score
      L1  H    18    41       P1 10171  0.99
      L1  H    22    43       P1  8028  0.80
      P1  H  6896  6908       L1    24  0.42
      P1  H  7954  7966       L1    18  0.71
      P1  H  8011  8017       L1    22  0.08
      L1  C    12    38       P1  7948  1.00

> <Gold.PLP.Chemscore.Internal.Correction>
0.0506

> <Gold.Rescore>
     Score         DG    S(hbond)    S(metal)    S(lipo)     H(rot)  DE(clash)    DE(int)     intcor
      9.61     -15.09       3.64        0.00      66.74       4.05       3.39       2.10       ----

> <Gold.Chemscore.Fitness>
9.6060

> <Gold.Chemscore.DG>
-15.0947

> <Gold.Chemscore.ZeroCoef>
-5.4800

> <Gold.Chemscore.Hbond>
3.6445

> <Gold.Chemscore.Metal>
0.0000

> <Gold.Chemscore.Lipo>
66.7381

> <Gold.Chemscore.Internal_Hbond>
0.0000

> <Gold.Chemscore.DEClash>
3.3912

> <Gold.Chemscore.DEInternal>
2.0976

> <Gold.Chemscore.Rot>
4.0493

> <Gold.Chemscore.Internal.Correction>
   9.000000E+99

> <Gold.Chemscore.Hbonds>
donor molecule, donor type, donor heavy atom, donor atom, acceptor molecule, acceptor atom, score
      L1  H    18    41       P1 10171  0.92
      L1  H    22    43       P1  8028  0.79
      P1  H  6896  6908       L1    24  0.43
      P1  H  7954  7966       L1    18  0.66
      P1  H  8011  8017       L1    22  0.07

> <Gold.Chemscore.Hbond.Weighted>
-12.1726

> <Gold.Chemscore.Metal.Weighted>
-0.0000

> <Gold.Chemscore.Lipo.Weighted>
-7.8084

> <Gold.Chemscore.Internal_Hbond.Weighted>
0.0000

> <Gold.Chemscore.DEClash.Weighted>
3.3912

> <Gold.Chemscore.DEInternal.Weighted>
2.0976

> <Gold.Chemscore.Rot.Weighted>
10.3662

> <Gold.Chemscore.Internal.Correction.Weighted>
   9.000000E+99

> <Gold.Protein.RotatedTorsions>
[ 6907 6896 6895 6894 ] final -133.67 input  -60.11 | X-H torsion
[ 7974 7965 7964 7962 ] final   33.69 input  175.53 | X-H torsion
[ 8008 7997 7996 7995 ] final   72.21 input   59.86 | X-H torsion
[ 10167 10162 10161 10158 ] final   27.58 input  -65.29 | X-H torsion
[ 10718 10713 10712 10709 ] final    5.49 input   66.30 | X-H torsion
[ 10763 10752 10751 10750 ] final -120.24 input  -60.55 | X-H torsion
[ 11005 11000 10999 10996 ] final   53.28 input  -57.11 | X-H torsion

> <Gold.Protein.ActiveResidues>
 VAL166  LYS551  ARG553  GLY616  TRP617  ASP618  TYR619  PRO620  LYS621  CYS622 
 ASP623  PHE694  ASN695  SER759  ASP760  ASP761  ALA762  ILE779  LEU786  VAL792 
 PHE793  MET794  SER795  GLU796  ALA797  LYS798  CYS799  TRP800  GLU811  SER814 

> <Gold.Protein.RotatedAtoms>
  150.9767  133.6287  159.2728 H   0  0  0  0  0  0  0  0  0  0  0  0  # atno 6907 bound_to 6896
  151.3557  135.0892  159.9427 H   0  0  0  0  0  0  0  0  0  0  0  0  # atno 6908 bound_to 6896
  152.5202  133.9351  159.7654 H   0  0  0  0  0  0  0  0  0  0  0  0  # atno 6909 bound_to 6896
  146.1403  139.6364  142.9167 H   0  0  0  0  0  0  0  0  0  0  0  0  # atno 7974 bound_to 7965
  155.7654  140.3485  155.5219 H   0  0  0  0  0  0  0  0  0  0  0  0  # atno 8008 bound_to 7997
  155.8874  140.1012  157.1464 H   0  0  0  0  0  0  0  0  0  0  0  0  # atno 8009 bound_to 7997
  154.4030  140.1311  156.4259 H   0  0  0  0  0  0  0  0  0  0  0  0  # atno 8010 bound_to 7997
  140.4926  144.0442  150.6303 H   0  0  0  0  0  0  0  0  0  0  0  0  # atno 10167 bound_to 10162
  156.9082  130.5746  149.5647 H   0  0  0  0  0  0  0  0  0  0  0  0  # atno 10718 bound_to 10713
  154.8639  135.4210  154.2428 H   0  0  0  0  0  0  0  0  0  0  0  0  # atno 10763 bound_to 10752
  153.3390  135.6992  153.6889 H   0  0  0  0  0  0  0  0  0  0  0  0  # atno 10764 bound_to 10752
  153.5875  135.3561  155.2871 H   0  0  0  0  0  0  0  0  0  0  0  0  # atno 10765 bound_to 10752
  140.0780  134.5378  155.8976 H   0  0  0  0  0  0  0  0  0  0  0  0  # atno 11005 bound_to 11000
  145.5061  141.0436  143.2513 LP  0  0  0  0  0  0  0  0  0  0  0  0  # atno 17320 bound_to 7965
  144.7785  139.6577  143.7164 LP  0  0  0  0  0  0  0  0  0  0  0  0  # atno 17321 bound_to 7965
  140.3716  143.2852  152.0272 LP  0  0  0  0  0  0  0  0  0  0  0  0  # atno 17342 bound_to 10162
  139.4854  144.6226  151.7227 LP  0  0  0  0  0  0  0  0  0  0  0  0  # atno 17343 bound_to 10162
  156.0549  130.5612  150.9069 LP  0  0  0  0  0  0  0  0  0  0  0  0  # atno 17370 bound_to 10713
  157.5984  131.0942  150.9002 LP  0  0  0  0  0  0  0  0  0  0  0  0  # atno 17371 bound_to 10713
  141.2036  133.6633  156.6075 LP  0  0  0  0  0  0  0  0  0  0  0  0  # atno 17394 bound_to 11000
  140.3529  134.7753  157.4480 LP  0  0  0  0  0  0  0  0  0  0  0  0  # atno 17395 bound_to 11000

$$$$
