AV-unprocessed.smi:3249|AV-procd|sdf|12417|dock4
  -GOLD-   2272018303D 1   1.00000     0.00000
 Structure written by MMmdl.
 44 45  0  0  0  0  0  0  0  0  2 V2000
  151.0159  142.5233  158.2598 C   0  0  0  0  0  0  0  0  0  0  0  0
  150.7866  141.8117  156.9575 C   0  0  0  0  0  0  0  0  0  0  0  0
  151.7134  141.0272  156.2143 C   0  0  0  0  0  0  0  0  0  0  0  0
  151.1926  140.5312  155.1041 N   0  0  0  0  0  0  0  0  0  0  0  0
  149.9191  140.9800  155.0947 N   0  0  0  0  0  0  0  0  0  0  0  0
  149.0296  140.6065  154.0017 C   0  0  2  0  0  0  0  0  0  0  0  0
  147.7603  141.4780  154.0399 C   0  0  0  0  0  0  0  0  0  0  0  0
  148.7110  139.0884  154.0028 C   0  0  2  0  0  0  0  0  0  0  0  0
  149.9489  138.2131  154.2924 C   0  0  0  0  0  0  0  0  0  0  0  0
  148.1122  138.7046  152.7039 N   0  3  0  0  0  0  0  0  0  0  0  0
  146.6389  138.5859  152.6972 C   0  0  0  0  0  0  0  0  0  0  0  0
  146.2055  137.1458  152.3893 C   0  0  2  0  0  0  0  0  0  0  0  0
  146.4960  136.7594  150.9258 C   0  0  0  0  0  0  0  0  0  0  0  0
  145.9605  135.3558  150.6213 C   0  0  0  0  0  0  0  0  0  0  0  0
  144.4805  135.2735  151.0084 C   0  0  0  0  0  0  0  0  0  0  0  0
  144.2825  135.7374  152.4599 C   0  0  0  0  0  0  0  0  0  0  0  0
  144.8015  137.0539  152.6235 O   0  0  0  0  0  0  0  0  0  0  0  0
  149.6480  141.7548  156.2050 C   0  0  0  0  0  0  0  0  0  0  0  0
  152.0779  142.6542  158.4684 H   0  0  0  0  0  0  0  0  0  0  0  0
  150.5893  141.9726  159.0982 H   0  0  0  0  0  0  0  0  0  0  0  0
  150.5643  143.5156  158.2627 H   0  0  0  0  0  0  0  0  0  0  0  0
  152.7437  140.8030  156.4489 H   0  0  0  0  0  0  0  0  0  0  0  0
  149.5515  140.8355  153.0700 H   0  0  0  0  0  0  0  0  0  0  0  0
  147.1245  141.2996  153.1727 H   0  0  0  0  0  0  0  0  0  0  0  0
  148.0157  142.5382  154.0400 H   0  0  0  0  0  0  0  0  0  0  0  0
  147.1656  141.2807  154.9323 H   0  0  0  0  0  0  0  0  0  0  0  0
  147.9743  138.9041  154.7866 H   0  0  0  0  0  0  0  0  0  0  0  0
  150.3616  138.4095  155.2820 H   0  0  0  0  0  0  0  0  0  0  0  0
  150.7384  138.3953  153.5627 H   0  0  0  0  0  0  0  0  0  0  0  0
  149.7119  137.1502  154.2626 H   0  0  0  0  0  0  0  0  0  0  0  0
  148.3583  139.4152  152.0297 H   0  0  0  0  0  0  0  0  0  0  0  0
  146.2245  138.8995  153.6552 H   0  0  0  0  0  0  0  0  0  0  0  0
  146.2408  139.2615  151.9389 H   0  0  0  0  0  0  0  0  0  0  0  0
  146.7328  136.4614  153.0567 H   0  0  0  0  0  0  0  0  0  0  0  0
  146.0273  137.4801  150.2543 H   0  0  0  0  0  0  0  0  0  0  0  0
  147.5675  136.7994  150.7280 H   0  0  0  0  0  0  0  0  0  0  0  0
  146.0913  135.1185  149.5653 H   0  0  0  0  0  0  0  0  0  0  0  0
  146.5297  134.6140  151.1832 H   0  0  0  0  0  0  0  0  0  0  0  0
  143.8915  135.9045  150.3414 H   0  0  0  0  0  0  0  0  0  0  0  0
  144.1117  134.2553  150.8822 H   0  0  0  0  0  0  0  0  0  0  0  0
  143.2213  135.7442  152.7088 H   0  0  0  0  0  0  0  0  0  0  0  0
  144.7684  135.0537  153.1576 H   0  0  0  0  0  0  0  0  0  0  0  0
  148.6754  142.1953  156.3687 H   0  0  0  0  0  0  0  0  0  0  0  0
  148.5177  137.8288  152.4052 H   0  0  0  0  0  0  0  0  0  0  0  0
  1  2  1  0  0  0  0
  1 19  1  0  0  0  0
  1 20  1  0  0  0  0
  1 21  1  0  0  0  0
  2 18  2  0  0  0  0
  2  3  1  0  0  0  0
  3  4  2  0  0  0  0
  3 22  1  0  0  0  0
  4  5  1  0  0  0  0
  5  6  1  0  0  0  0
  5 18  1  0  0  0  0
  6  7  1  0  0  0  0
  6  8  1  0  0  0  0
  6 23  1  0  0  0  0
  7 24  1  0  0  0  0
  7 25  1  0  0  0  0
  7 26  1  0  0  0  0
  8  9  1  0  0  0  0
  8 10  1  0  0  0  0
  8 27  1  0  0  0  0
  9 28  1  0  0  0  0
  9 29  1  0  0  0  0
  9 30  1  0  0  0  0
 10 11  1  0  0  0  0
 10 31  1  0  0  0  0
 10 44  1  0  0  0  0
 11 12  1  0  0  0  0
 11 32  1  0  0  0  0
 11 33  1  0  0  0  0
 12 17  1  0  0  0  0
 12 13  1  0  0  0  0
 12 34  1  0  0  0  0
 13 14  1  0  0  0  0
 13 35  1  0  0  0  0
 13 36  1  0  0  0  0
 14 15  1  0  0  0  0
 14 37  1  0  0  0  0
 14 38  1  0  0  0  0
 15 16  1  0  0  0  0
 15 39  1  0  0  0  0
 15 40  1  0  0  0  0
 16 17  1  0  0  0  0
 16 41  1  0  0  0  0
 16 42  1  0  0  0  0
 18 43  1  0  0  0  0
M  CHG  1  10   1
M  END
> <s_m_source_file>
AV-unprocessed.smi

> <i_m_source_file_index>
3249

> <i_lp_mmshare_version>
43012

> <i_f3d_flags>
0

> <s_epik_input>
W0NIM11jMVtjSF1ubihbY0hdMSlbQ0BIXShbQ0gzXSlbQ0BIXShbQ0gzXSlbTkhdW0NIMl1bQ0BASF0yW0NIMl1bQ0gyXVtDSDJdW0NIMl1PMg==

> <s_epik_cmdline>
J2VwaWtfcHl0aG9uJywgJy1waCcsICc3LjAnLCAnLXRuJywgJzgnLCAnLW1hJywgJzIwMCcsICctbWV0YWxfYmluZGluZycsICctaW1hZScsICc8aW5maWxlLm1hZT4nLCAnLW9tYWUnLCAnPG91dGZpbGUubWFlPic=

> <r_lp_tautomer_probability>
1

> <r_epik_Ionization_Penalty>
0.00659207

> <r_epik_Ionization_Penalty_Charging>
0.00656881

> <r_epik_Ionization_Penalty_Neutral>
2.32662e-05

> <r_epik_State_Penalty>
0.0048654

> <r_epik_Charging_Adjusted_Penalty>
0.0114342

> <i_epik_Tot_Q>
1

> <i_epik_Tot_abs_Q>
1

> <r_epik_Metal_State_Penalty>
-0

> <b_epik_Metal_Only>
0

> <s_lp_Force_Field>
OPLS_2005

> <r_lp_Energy>
18.0263

> <b_lp_Chiralities_Consistent>
1

> <s_lp_Variant>
AV-unprocessed.smi:3249-1

> <Gold.Version>
5.8.1

> <Gold.Id.Protein>
6NUR|6NUR_protein|mol2

> <Gold.PLP.Fitness>
44.5775

> <Gold.PLP.PLP>
-34.3023

> <Gold.PLP.part.hbond>
-3.0000

> <Gold.PLP.part.metal>
0.0000

> <Gold.PLP.part.buried>
1.3145

> <Gold.PLP.part.nonpolar>
-32.7767

> <Gold.PLP.part.repulsive>
0.3936

> <Gold.PLP.ligand.clash>
0.0000

> <Gold.PLP.ligand.torsion>
1.4191

> <Gold.PLP.Chemscore.Hbond>
3.6000

> <Gold.PLP.Chemscore.CHOScore>
0.7491

> <Gold.PLP.Chemscore.Metal>
0.0000

> <Gold.Chemscore.Hbonds>
donor molecule, donor type, donor heavy atom, donor atom, acceptor molecule, acceptor atom, score
      L1  H    10    31       P1  7957  0.88
      L1  H    10    44       P1  7948  2.00
      P1  H  7989  7998       L1     4  0.94
      L1  C    18    43       P1  8028  0.41

> <Gold.PLP.Chemscore.Internal.Correction>
0.0661

> <Gold.Rescore>
     Score         DG    S(hbond)    S(metal)    S(lipo)     H(rot)  DE(clash)    DE(int)     intcor
     14.54     -18.10       1.83        0.00      89.21       1.53       0.76       2.80       ----

> <Gold.Chemscore.Fitness>
14.5419

> <Gold.Chemscore.DG>
-18.1025

> <Gold.Chemscore.ZeroCoef>
-5.4800

> <Gold.Chemscore.Hbond>
1.8292

> <Gold.Chemscore.Metal>
0.0000

> <Gold.Chemscore.Lipo>
89.2145

> <Gold.Chemscore.Internal_Hbond>
0.0000

> <Gold.Chemscore.DEClash>
0.7622

> <Gold.Chemscore.DEInternal>
2.7984

> <Gold.Chemscore.Rot>
1.5333

> <Gold.Chemscore.Internal.Correction>
   9.000000E+99

> <Gold.Chemscore.Hbonds>
donor molecule, donor type, donor heavy atom, donor atom, acceptor molecule, acceptor atom, score
      L1  H    10    31       P1  7957  0.86
      L1  H    10    44       P1  7948  1.00
      P1  H  7989  7998       L1     4  0.23

> <Gold.Chemscore.Hbond.Weighted>
-6.1096

> <Gold.Chemscore.Metal.Weighted>
-0.0000

> <Gold.Chemscore.Lipo.Weighted>
-10.4381

> <Gold.Chemscore.Internal_Hbond.Weighted>
0.0000

> <Gold.Chemscore.DEClash.Weighted>
0.7622

> <Gold.Chemscore.DEInternal.Weighted>
2.7984

> <Gold.Chemscore.Rot.Weighted>
3.9252

> <Gold.Chemscore.Internal.Correction.Weighted>
   9.000000E+99

> <Gold.Protein.RotatedTorsions>
[ 6907 6896 6895 6894 ] final -106.95 input  -60.11 | X-H torsion
[ 7974 7965 7964 7962 ] final  -75.95 input  175.53 | X-H torsion
[ 8008 7997 7996 7995 ] final  -43.95 input   59.86 | X-H torsion
[ 10167 10162 10161 10158 ] final  -32.15 input  -65.29 | X-H torsion
[ 10718 10713 10712 10709 ] final  -75.68 input   66.30 | X-H torsion
[ 10763 10752 10751 10750 ] final -162.48 input  -60.55 | X-H torsion
[ 11005 11000 10999 10996 ] final  158.58 input  -57.11 | X-H torsion

> <Gold.Protein.ActiveResidues>
 VAL166  LYS551  ARG553  GLY616  TRP617  ASP618  TYR619  PRO620  LYS621  CYS622 
 ASP623  PHE694  ASN695  SER759  ASP760  ASP761  ALA762  ILE779  LEU786  VAL792 
 PHE793  MET794  SER795  GLU796  ALA797  LYS798  CYS799  TRP800  GLU811  SER814 

> <Gold.Protein.RotatedAtoms>
  150.7417  133.9899  159.3603 H   0  0  0  0  0  0  0  0  0  0  0  0  # atno 6907 bound_to 6896
  151.7846  135.0750  160.0388 H   0  0  0  0  0  0  0  0  0  0  0  0  # atno 6908 bound_to 6896
  152.3250  133.5858  159.5806 H   0  0  0  0  0  0  0  0  0  0  0  0  # atno 6909 bound_to 6896
  145.6192  140.9367  143.1147 H   0  0  0  0  0  0  0  0  0  0  0  0  # atno 7974 bound_to 7965
  154.3997  140.1435  156.3602 H   0  0  0  0  0  0  0  0  0  0  0  0  # atno 8008 bound_to 7997
  155.8188  140.3470  155.5480 H   0  0  0  0  0  0  0  0  0  0  0  0  # atno 8009 bound_to 7997
  155.8310  140.0912  157.1783 H   0  0  0  0  0  0  0  0  0  0  0  0  # atno 8010 bound_to 7997
  140.7226  143.3716  151.1767 H   0  0  0  0  0  0  0  0  0  0  0  0  # atno 10167 bound_to 10162
  156.0199  130.4447  150.3079 H   0  0  0  0  0  0  0  0  0  0  0  0  # atno 10718 bound_to 10713
  154.7210  135.3025  154.9047 H   0  0  0  0  0  0  0  0  0  0  0  0  # atno 10763 bound_to 10752
  153.9919  135.6717  153.4758 H   0  0  0  0  0  0  0  0  0  0  0  0  # atno 10764 bound_to 10752
  153.0834  135.4997  154.8465 H   0  0  0  0  0  0  0  0  0  0  0  0  # atno 10765 bound_to 10752
  140.1878  134.8429  157.2878 H   0  0  0  0  0  0  0  0  0  0  0  0  # atno 11005 bound_to 11000
  144.7238  139.7943  143.7372 LP  0  0  0  0  0  0  0  0  0  0  0  0  # atno 17320 bound_to 7965
  146.1444  139.4509  143.0088 LP  0  0  0  0  0  0  0  0  0  0  0  0  # atno 17321 bound_to 7965
  139.7289  143.9104  152.3012 LP  0  0  0  0  0  0  0  0  0  0  0  0  # atno 17342 bound_to 10162
  139.8886  144.6978  150.8795 LP  0  0  0  0  0  0  0  0  0  0  0  0  # atno 17343 bound_to 10162
  157.1181  131.0239  151.3020 LP  0  0  0  0  0  0  0  0  0  0  0  0  # atno 17370 bound_to 10713
  157.4650  130.7675  149.7270 LP  0  0  0  0  0  0  0  0  0  0  0  0  # atno 17371 bound_to 10713
  140.2193  134.4042  155.7573 LP  0  0  0  0  0  0  0  0  0  0  0  0  # atno 17394 bound_to 11000
  141.2225  133.7158  156.8465 LP  0  0  0  0  0  0  0  0  0  0  0  0  # atno 17395 bound_to 11000

$$$$
