AV-unprocessed.smi:209|AV-procd|sdf|1609|dock4
  -GOLD-   2262019533D 1   1.00000     0.00000
 Structure written by MMmdl.
 48 52  0  0  0  0  0  0  0  0  1 V2000
  154.7763  140.2222  161.9360 O   0  0  0  0  0  0  0  0  0  0  0  0
  154.0605  140.0759  160.9477 C   0  0  0  0  0  0  0  0  0  0  0  0
  153.9630  138.9809  160.1841 N   0  0  0  0  0  0  0  0  0  0  0  0
  153.0865  139.1776  159.0336 C   0  0  0  0  0  0  0  0  0  0  0  0
  153.0195  140.7103  158.9501 C   0  0  2  0  0  0  0  0  0  0  0  0
  153.1071  141.1275  160.4103 C   0  0  2  0  0  0  0  0  0  0  0  0
  153.4453  142.6172  160.4915 C   0  0  0  0  0  0  0  0  0  0  0  0
  152.2983  143.3683  159.7732 C   0  0  0  0  0  0  0  0  0  0  0  0
  152.0039  142.8096  158.3536 C   0  0  0  0  0  0  0  0  0  0  0  0
  151.8574  141.3464  158.3400 N   0  0  0  0  0  0  0  0  0  0  0  0
  151.5365  140.8528  157.1242 C   0  0  0  0  0  0  0  0  0  0  0  0
  152.3714  139.9845  156.4946 N   0  0  0  0  0  0  0  0  0  0  0  0
  152.0394  139.4929  155.2971 C   0  0  0  0  0  0  0  0  0  0  0  0
  150.9425  139.7277  154.5730 N   0  0  0  0  0  0  0  0  0  0  0  0
  150.1006  140.5924  155.2096 C   0  0  0  0  0  0  0  0  0  0  0  0
  150.3246  141.2018  156.4751 C   0  0  0  0  0  0  0  0  0  0  0  0
  149.2626  142.0337  156.8016 N   0  0  0  0  0  0  0  0  0  0  0  0
  148.4564  141.9281  155.7807 C   0  0  0  0  0  0  0  0  0  0  0  0
  148.8696  141.0663  154.7877 N   0  0  0  0  0  0  0  0  0  0  0  0
  148.1697  140.7609  153.5479 C   0  0  0  0  0  0  0  0  0  0  0  0
  147.0953  139.6599  153.6731 C   0  0  0  0  0  0  0  0  0  0  0  0
  146.5096  139.3843  152.2737 C   0  0  0  0  0  0  0  0  0  0  0  0
  145.3995  138.5093  152.3083 O   0  0  0  0  0  0  0  0  0  0  0  0
  147.5466  138.4400  154.4909 C   0  0  0  0  0  0  0  0  0  0  0  0
  146.6480  138.7497  155.5784 O   0  0  0  0  0  0  0  0  0  0  0  0
  146.0784  139.8330  154.8113 C   0  0  0  0  0  0  0  0  0  0  0  0
  153.9128  141.0589  158.4262 H   0  0  0  0  0  0  0  0  0  0  0  0
  152.1509  140.9519  160.9082 H   0  0  0  0  0  0  0  0  0  0  0  0
  154.4921  138.1336  160.3323 H   0  0  0  0  0  0  0  0  0  0  0  0
  153.4929  138.7283  158.1268 H   0  0  0  0  0  0  0  0  0  0  0  0
  152.1095  138.7382  159.2406 H   0  0  0  0  0  0  0  0  0  0  0  0
  153.5261  142.9429  161.5288 H   0  0  0  0  0  0  0  0  0  0  0  0
  154.4019  142.8250  160.0102 H   0  0  0  0  0  0  0  0  0  0  0  0
  151.3922  143.2864  160.3750 H   0  0  0  0  0  0  0  0  0  0  0  0
  152.5275  144.4323  159.7138 H   0  0  0  0  0  0  0  0  0  0  0  0
  151.0969  143.2693  157.9589 H   0  0  0  0  0  0  0  0  0  0  0  0
  152.8168  143.0972  157.6850 H   0  0  0  0  0  0  0  0  0  0  0  0
  152.7535  138.8127  154.8568 H   0  0  0  0  0  0  0  0  0  0  0  0
  147.5262  142.4748  155.7281 H   0  0  0  0  0  0  0  0  0  0  0  0
  147.7288  141.6854  153.1733 H   0  0  0  0  0  0  0  0  0  0  0  0
  148.9187  140.4764  152.8077 H   0  0  0  0  0  0  0  0  0  0  0  0
  146.1692  140.3062  151.8041 H   0  0  0  0  0  0  0  0  0  0  0  0
  147.2613  138.9486  151.6149 H   0  0  0  0  0  0  0  0  0  0  0  0
  144.9877  138.5106  151.4576 H   0  0  0  0  0  0  0  0  0  0  0  0
  147.3202  137.4742  154.0385 H   0  0  0  0  0  0  0  0  0  0  0  0
  148.5919  138.4766  154.8003 H   0  0  0  0  0  0  0  0  0  0  0  0
  146.1449  140.7833  155.3381 H   0  0  0  0  0  0  0  0  0  0  0  0
  145.0457  139.6285  154.5259 H   0  0  0  0  0  0  0  0  0  0  0  0
  1  2  2  0  0  0  0
  2  6  1  0  0  0  0
  2  3  1  0  0  0  0
  3  4  1  0  0  0  0
  3 29  1  0  0  0  0
  4  5  1  0  0  0  0
  4 30  1  0  0  0  0
  4 31  1  0  0  0  0
  5 27  1  0  0  0  0
  5 10  1  0  0  0  0
  5  6  1  0  0  0  0
  6 28  1  0  0  0  0
  6  7  1  0  0  0  0
  7  8  1  0  0  0  0
  7 32  1  0  0  0  0
  7 33  1  0  0  0  0
  8  9  1  0  0  0  0
  8 34  1  0  0  0  0
  8 35  1  0  0  0  0
  9 10  1  0  0  0  0
  9 36  1  0  0  0  0
  9 37  1  0  0  0  0
 10 11  1  0  0  0  0
 11 16  1  0  0  0  0
 11 12  2  0  0  0  0
 12 13  1  0  0  0  0
 13 14  2  0  0  0  0
 13 38  1  0  0  0  0
 14 15  1  0  0  0  0
 15 19  1  0  0  0  0
 15 16  2  0  0  0  0
 16 17  1  0  0  0  0
 17 18  2  0  0  0  0
 18 19  1  0  0  0  0
 18 39  1  0  0  0  0
 19 20  1  0  0  0  0
 20 21  1  0  0  0  0
 20 40  1  0  0  0  0
 20 41  1  0  0  0  0
 21 26  1  0  0  0  0
 21 22  1  0  0  0  0
 21 24  1  0  0  0  0
 22 23  1  0  0  0  0
 22 42  1  0  0  0  0
 22 43  1  0  0  0  0
 23 44  1  0  0  0  0
 24 25  1  0  0  0  0
 24 45  1  0  0  0  0
 24 46  1  0  0  0  0
 25 26  1  0  0  0  0
 26 47  1  0  0  0  0
 26 48  1  0  0  0  0
M  END
> <s_m_source_file>
AV-unprocessed.smi

> <i_m_source_file_index>
209

> <i_lp_mmshare_version>
43012

> <i_f3d_flags>
0

> <s_epik_input>
W0NIMl0xW05IXUMoPU8pW0NAQEhdKFtDQEBIXTEyKVtDSDJdW0NIMl1bQ0gyXU4yYyhuW2NIXW4zKWMoYzM0KW5bY0hdbjRbQ0gyXUM1KFtDSDJdW09IXSlbQ0gyXU9bQ0gyXTU=

> <s_epik_cmdline>
J2VwaWtfcHl0aG9uJywgJy1waCcsICc3LjAnLCAnLXRuJywgJzgnLCAnLW1hJywgJzIwMCcsICctbWV0YWxfYmluZGluZycsICctaW1hZScsICc8aW5maWxlLm1hZT4nLCAnLW9tYWUnLCAnPG91dGZpbGUubWFlPic=

> <r_lp_tautomer_probability>
1

> <r_epik_Ionization_Penalty>
0.00113306

> <r_epik_Ionization_Penalty_Charging>
0

> <r_epik_Ionization_Penalty_Neutral>
0.00113306

> <r_epik_State_Penalty>
0.000624042

> <r_epik_Charging_Adjusted_Penalty>
0.000624042

> <i_epik_Tot_Q>
0

> <i_epik_Tot_abs_Q>
0

> <r_epik_Metal_State_Penalty>
-0

> <b_epik_Metal_Only>
0

> <s_lp_Force_Field>
OPLS_2005

> <r_lp_Energy>
56.7924

> <b_lp_Chiralities_Consistent>
1

> <s_lp_Variant>
AV-unprocessed.smi:209-3

> <Gold.Version>
5.8.1

> <Gold.Id.Protein>
6NUR|6NUR_protein|mol2

> <Gold.PLP.Fitness>
50.5082

> <Gold.PLP.PLP>
-42.9491

> <Gold.PLP.part.hbond>
-4.0000

> <Gold.PLP.part.metal>
0.0000

> <Gold.PLP.part.buried>
1.7293

> <Gold.PLP.part.nonpolar>
-40.4012

> <Gold.PLP.part.repulsive>
0.8813

> <Gold.PLP.ligand.clash>
0.0000

> <Gold.PLP.ligand.torsion>
0.6194

> <Gold.PLP.Chemscore.Hbond>
2.7000

> <Gold.PLP.Chemscore.CHOScore>
0.1116

> <Gold.PLP.Chemscore.Metal>
0.0000

> <Gold.Chemscore.Hbonds>
donor molecule, donor type, donor heavy atom, donor atom, acceptor molecule, acceptor atom, score
      L1  H    23    44       P1 10171  1.00
      P1  H  7989  7998       L1    14  0.72
      P1  H  7997  8008       L1    12  1.00
      L1  C    18    39       P1  8028  0.17

> <Gold.PLP.Chemscore.Internal.Correction>
0.3630

> <Gold.Rescore>
     Score         DG    S(hbond)    S(metal)    S(lipo)     H(rot)  DE(clash)    DE(int)     intcor
     10.49     -14.79       1.79        0.00      86.73       2.66       2.23       2.08       ----

> <Gold.Chemscore.Fitness>
10.4858

> <Gold.Chemscore.DG>
-14.7927

> <Gold.Chemscore.ZeroCoef>
-5.4800

> <Gold.Chemscore.Hbond>
1.7903

> <Gold.Chemscore.Metal>
0.0000

> <Gold.Chemscore.Lipo>
86.7328

> <Gold.Chemscore.Internal_Hbond>
0.0000

> <Gold.Chemscore.DEClash>
2.2290

> <Gold.Chemscore.DEInternal>
2.0778

> <Gold.Chemscore.Rot>
2.6620

> <Gold.Chemscore.Internal.Correction>
   9.000000E+99

> <Gold.Chemscore.Hbonds>
donor molecule, donor type, donor heavy atom, donor atom, acceptor molecule, acceptor atom, score
      L1  H    23    44       P1 10171  0.97
      P1  H  7989  7998       L1    14  0.02
      P1  H  7997  8008       L1    12  0.65

> <Gold.Chemscore.Hbond.Weighted>
-5.9797

> <Gold.Chemscore.Metal.Weighted>
-0.0000

> <Gold.Chemscore.Lipo.Weighted>
-10.1477

> <Gold.Chemscore.Internal_Hbond.Weighted>
0.0000

> <Gold.Chemscore.DEClash.Weighted>
2.2290

> <Gold.Chemscore.DEInternal.Weighted>
2.0778

> <Gold.Chemscore.Rot.Weighted>
6.8148

> <Gold.Chemscore.Internal.Correction.Weighted>
   9.000000E+99

> <Gold.Protein.RotatedTorsions>
[ 6907 6896 6895 6894 ] final  -81.03 input  -60.11 | X-H torsion
[ 7974 7965 7964 7962 ] final -159.84 input  175.53 | X-H torsion
[ 8008 7997 7996 7995 ] final  -60.28 input   59.86 | X-H torsion
[ 10167 10162 10161 10158 ] final  150.83 input  -65.29 | X-H torsion
[ 10718 10713 10712 10709 ] final -112.27 input   66.30 | X-H torsion
[ 10763 10752 10751 10750 ] final  177.64 input  -60.55 | X-H torsion
[ 11005 11000 10999 10996 ] final  164.69 input  -57.11 | X-H torsion

> <Gold.Protein.ActiveResidues>
 VAL166  LYS551  ARG553  GLY616  TRP617  ASP618  TYR619  PRO620  LYS621  CYS622 
 ASP623  PHE694  ASN695  SER759  ASP760  ASP761  ALA762  ILE779  LEU786  VAL792 
 PHE793  MET794  SER795  GLU796  ALA797  LYS798  CYS799  TRP800  GLU811  SER814 

> <Gold.Protein.RotatedAtoms>
  150.6919  134.3879  159.5062 H   0  0  0  0  0  0  0  0  0  0  0  0  # atno 6907 bound_to 6896
  152.1671  134.8862  160.0546 H   0  0  0  0  0  0  0  0  0  0  0  0  # atno 6908 bound_to 6896
  151.9901  133.3753  159.4178 H   0  0  0  0  0  0  0  0  0  0  0  0  # atno 6909 bound_to 6896
  144.7450  140.3628  143.6092 H   0  0  0  0  0  0  0  0  0  0  0  0  # atno 7974 bound_to 7965
  154.4391  140.1043  156.6248 H   0  0  0  0  0  0  0  0  0  0  0  0  # atno 8008 bound_to 7997
  155.5668  140.3488  155.4486 H   0  0  0  0  0  0  0  0  0  0  0  0  # atno 8009 bound_to 7997
  156.0419  140.1284  157.0136 H   0  0  0  0  0  0  0  0  0  0  0  0  # atno 8010 bound_to 7997
  139.4846  144.5491  151.7433 H   0  0  0  0  0  0  0  0  0  0  0  0  # atno 10167 bound_to 10162
  156.0695  130.5911  150.8485 H   0  0  0  0  0  0  0  0  0  0  0  0  # atno 10718 bound_to 10713
  154.4971  135.2782  155.1450 H   0  0  0  0  0  0  0  0  0  0  0  0  # atno 10763 bound_to 10752
  154.3099  135.6231  153.5464 H   0  0  0  0  0  0  0  0  0  0  0  0  # atno 10764 bound_to 10752
  152.9896  135.5717  154.5405 H   0  0  0  0  0  0  0  0  0  0  0  0  # atno 10765 bound_to 10752
  140.2485  134.7995  157.3479 H   0  0  0  0  0  0  0  0  0  0  0  0  # atno 11005 bound_to 11000
  145.7159  139.1697  143.2512 LP  0  0  0  0  0  0  0  0  0  0  0  0  # atno 17320 bound_to 7965
  146.1312  140.7182  142.9411 LP  0  0  0  0  0  0  0  0  0  0  0  0  # atno 17321 bound_to 7965
  140.5042  144.1124  150.5978 LP  0  0  0  0  0  0  0  0  0  0  0  0  # atno 17342 bound_to 10162
  140.4027  143.2696  151.9928 LP  0  0  0  0  0  0  0  0  0  0  0  0  # atno 17343 bound_to 10162
  157.5758  131.0946  150.9348 LP  0  0  0  0  0  0  0  0  0  0  0  0  # atno 17370 bound_to 10713
  156.9554  130.5435  149.5284 LP  0  0  0  0  0  0  0  0  0  0  0  0  # atno 17371 bound_to 10713
  140.1582  134.4763  155.7913 LP  0  0  0  0  0  0  0  0  0  0  0  0  # atno 17394 bound_to 11000
  141.2204  133.6890  156.7497 LP  0  0  0  0  0  0  0  0  0  0  0  0  # atno 17395 bound_to 11000

$$$$
