AV-unprocessed.smi:16|AV-procd|sdf|92|dock3
  -GOLD-   2262015233D 1   1.00000     0.00000
 Structure written by MMmdl.
 60 64  0  0  0  0  0  0  0  0  2 V2000
  145.9359  127.6286  155.9052 C   0  0  0  0  0  0  0  0  0  0  0  0
  146.7975  128.7061  155.2304 C   0  0  0  0  0  0  0  0  0  0  0  0
  146.1480  129.2869  154.0277 N   0  3  2  0  0  0  0  0  0  0  0  0
  146.2183  128.3709  152.8588 C   0  0  0  0  0  0  0  0  0  0  0  0
  145.4452  128.9353  151.6556 C   0  0  0  0  0  0  0  0  0  0  0  0
  145.9649  130.3303  151.2924 C   0  0  1  0  0  0  0  0  0  0  0  0
  145.2044  130.8629  150.2146 O   0  0  0  0  0  0  0  0  0  0  0  0
  145.7034  132.1296  149.7975 C   0  0  0  0  0  0  0  0  0  0  0  0
  145.6165  133.1270  150.9644 C   0  0  0  0  0  0  0  0  0  0  0  0
  146.3020  132.6044  152.1427 N   0  0  0  0  0  0  0  0  0  0  0  0
  146.3297  133.5304  153.1285 C   0  0  0  0  0  0  0  0  0  0  0  0
  145.1944  134.1904  153.4808 N   0  0  0  0  0  0  0  0  0  0  0  0
  145.2309  135.1052  154.4549 C   0  0  0  0  0  0  0  0  0  0  0  0
  146.2736  135.5037  155.1874 N   0  0  0  0  0  0  0  0  0  0  0  0
  147.4139  134.8471  154.8273 C   0  0  0  0  0  0  0  0  0  0  0  0
  147.5274  133.8524  153.8172 C   0  0  0  0  0  0  0  0  0  0  0  0
  148.8353  133.3930  153.7410 N   0  0  0  0  0  0  0  0  0  0  0  0
  149.4614  134.0754  154.6613 C   0  0  0  0  0  0  0  0  0  0  0  0
  148.6893  134.9894  155.3441 N   0  0  0  0  0  0  0  0  0  0  0  0
  149.1059  135.8354  156.4232 C   0  0  0  0  0  0  0  0  0  0  0  0
  149.5367  135.2433  157.7666 C   0  0  0  0  0  0  0  0  0  0  0  0
  148.9775  136.4915  158.4869 C   0  0  0  0  0  0  0  0  0  0  0  0
  148.2087  136.2175  159.7898 C   0  0  0  0  0  0  0  0  0  0  0  0
  147.3009  137.2618  160.0764 O   0  0  0  0  0  0  0  0  0  0  0  0
  149.9971  137.6230  158.7277 C   0  0  0  0  0  0  0  0  0  0  0  0
  150.9462  137.2636  159.7113 O   0  0  0  0  0  0  0  0  0  0  0  0
  148.0968  136.6570  157.2288 C   0  0  0  0  0  0  0  0  0  0  0  0
  145.8476  131.2616  152.5160 C   0  0  2  0  0  0  0  0  0  0  0  0
  146.6444  130.6498  153.6936 C   0  0  0  0  0  0  0  0  0  0  0  0
  147.0091  130.2456  150.9836 H   0  0  0  0  0  0  0  0  0  0  0  0
  144.7957  131.3255  152.8008 H   0  0  0  0  0  0  0  0  0  0  0  0
  146.4843  127.1570  156.7211 H   0  0  0  0  0  0  0  0  0  0  0  0
  145.6596  126.8453  155.1987 H   0  0  0  0  0  0  0  0  0  0  0  0
  145.0199  128.0385  156.3296 H   0  0  0  0  0  0  0  0  0  0  0  0
  147.0524  129.4961  155.9383 H   0  0  0  0  0  0  0  0  0  0  0  0
  147.7389  128.2390  154.9384 H   0  0  0  0  0  0  0  0  0  0  0  0
  147.2628  128.2050  152.5898 H   0  0  0  0  0  0  0  0  0  0  0  0
  145.8012  127.3991  153.1258 H   0  0  0  0  0  0  0  0  0  0  0  0
  145.5454  128.2655  150.8009 H   0  0  0  0  0  0  0  0  0  0  0  0
  144.3808  128.9845  151.8897 H   0  0  0  0  0  0  0  0  0  0  0  0
  146.7314  132.0320  149.4446 H   0  0  0  0  0  0  0  0  0  0  0  0
  145.1102  132.4851  148.9548 H   0  0  0  0  0  0  0  0  0  0  0  0
  146.0569  134.0800  150.6670 H   0  0  0  0  0  0  0  0  0  0  0  0
  144.5702  133.3190  151.2071 H   0  0  0  0  0  0  0  0  0  0  0  0
  144.2912  135.5881  154.6794 H   0  0  0  0  0  0  0  0  0  0  0  0
  150.5129  133.9306  154.8645 H   0  0  0  0  0  0  0  0  0  0  0  0
  149.8891  136.4772  156.0163 H   0  0  0  0  0  0  0  0  0  0  0  0
  148.9929  134.3286  158.0102 H   0  0  0  0  0  0  0  0  0  0  0  0
  150.6122  135.0930  157.8658 H   0  0  0  0  0  0  0  0  0  0  0  0
  147.6369  135.2922  159.7142 H   0  0  0  0  0  0  0  0  0  0  0  0
  148.8834  136.0902  160.6366 H   0  0  0  0  0  0  0  0  0  0  0  0
  146.4351  136.9873  159.8156 H   0  0  0  0  0  0  0  0  0  0  0  0
  150.5410  137.8645  157.8144 H   0  0  0  0  0  0  0  0  0  0  0  0
  149.5047  138.5453  159.0366 H   0  0  0  0  0  0  0  0  0  0  0  0
  150.7122  137.6872  160.5231 H   0  0  0  0  0  0  0  0  0  0  0  0
  147.9751  137.6850  156.8865 H   0  0  0  0  0  0  0  0  0  0  0  0
  147.1296  136.1592  157.3219 H   0  0  0  0  0  0  0  0  0  0  0  0
  146.5549  131.2865  154.5721 H   0  0  0  0  0  0  0  0  0  0  0  0
  147.7064  130.6030  153.4469 H   0  0  0  0  0  0  0  0  0  0  0  0
  145.1671  129.3796  154.2510 H   0  0  0  0  0  0  0  0  0  0  0  0
  1  2  1  0  0  0  0
  1 32  1  0  0  0  0
  1 33  1  0  0  0  0
  1 34  1  0  0  0  0
  2  3  1  0  0  0  0
  2 35  1  0  0  0  0
  2 36  1  0  0  0  0
  3 29  1  0  0  0  0
  3  4  1  0  0  0  0
  3 60  1  0  0  0  0
  4  5  1  0  0  0  0
  4 37  1  0  0  0  0
  4 38  1  0  0  0  0
  5  6  1  0  0  0  0
  5 39  1  0  0  0  0
  5 40  1  0  0  0  0
  6 30  1  0  0  0  0
  6 28  1  0  0  0  0
  6  7  1  0  0  0  0
  7  8  1  0  0  0  0
  8  9  1  0  0  0  0
  8 41  1  0  0  0  0
  8 42  1  0  0  0  0
  9 10  1  0  0  0  0
  9 43  1  0  0  0  0
  9 44  1  0  0  0  0
 10 11  1  0  0  0  0
 10 28  1  0  0  0  0
 11 16  1  0  0  0  0
 11 12  2  0  0  0  0
 12 13  1  0  0  0  0
 13 14  2  0  0  0  0
 13 45  1  0  0  0  0
 14 15  1  0  0  0  0
 15 19  1  0  0  0  0
 15 16  2  0  0  0  0
 16 17  1  0  0  0  0
 17 18  2  0  0  0  0
 18 19  1  0  0  0  0
 18 46  1  0  0  0  0
 19 20  1  0  0  0  0
 20 27  1  0  0  0  0
 20 21  1  0  0  0  0
 20 47  1  0  0  0  0
 21 22  1  0  0  0  0
 21 48  1  0  0  0  0
 21 49  1  0  0  0  0
 22 23  1  0  0  0  0
 22 25  1  0  0  0  0
 22 27  1  0  0  0  0
 23 24  1  0  0  0  0
 23 50  1  0  0  0  0
 23 51  1  0  0  0  0
 24 52  1  0  0  0  0
 25 26  1  0  0  0  0
 25 53  1  0  0  0  0
 25 54  1  0  0  0  0
 26 55  1  0  0  0  0
 27 56  1  0  0  0  0
 27 57  1  0  0  0  0
 28 31  1  0  0  0  0
 28 29  1  0  0  0  0
 29 58  1  0  0  0  0
 29 59  1  0  0  0  0
M  CHG  1   3   1
M  END
> <s_m_source_file>
AV-unprocessed.smi

> <i_m_source_file_index>
16

> <i_lp_mmshare_version>
43012

> <i_f3d_flags>
0

> <s_epik_input>
W0NIM11bQ0gyXU4oW0NIMl1bQ0gyXTEpW0NIMl1bQ0BASF0oW0NAQEhdMTIpTihbQ0gyXVtDSDJdTzIpYyhuW2NIXW4zKWMoYzM0KW5bY0hdbjRbQ0hdKFtDSDJdNSlbQ0gyXUM1KFtDSDJdW09IXSlbQ0gyXVtPSF0=

> <s_epik_cmdline>
J2VwaWtfcHl0aG9uJywgJy1waCcsICc3LjAnLCAnLXRuJywgJzgnLCAnLW1hJywgJzIwMCcsICctbWV0YWxfYmluZGluZycsICctaW1hZScsICc8aW5maWxlLm1hZT4nLCAnLW9tYWUnLCAnPG91dGZpbGUubWFlPic=

> <r_lp_tautomer_probability>
1

> <r_epik_Ionization_Penalty>
0.0135603

> <r_epik_Ionization_Penalty_Charging>
0.0131385

> <r_epik_Ionization_Penalty_Neutral>
0.000421734

> <r_epik_State_Penalty>
0.0102091

> <r_epik_Charging_Adjusted_Penalty>
0.0233476

> <i_epik_Tot_Q>
1

> <i_epik_Tot_abs_Q>
1

> <r_epik_Metal_State_Penalty>
0.0103746

> <b_epik_Metal_Only>
0

> <s_lp_Force_Field>
OPLS_2005

> <r_lp_Energy>
53.4104

> <b_lp_Chiralities_Consistent>
1

> <s_lp_Variant>
AV-unprocessed.smi:16-6

> <Gold.Version>
5.8.1

> <Gold.Id.Protein>
6NUR|6NUR_protein|mol2

> <Gold.PLP.Fitness>
41.9057

> <Gold.PLP.PLP>
-31.4370

> <Gold.PLP.part.hbond>
-4.1626

> <Gold.PLP.part.metal>
0.0000

> <Gold.PLP.part.buried>
-2.8402

> <Gold.PLP.part.nonpolar>
-26.2111

> <Gold.PLP.part.repulsive>
0.5161

> <Gold.PLP.ligand.clash>
0.0000

> <Gold.PLP.ligand.torsion>
0.9558

> <Gold.PLP.Chemscore.Hbond>
3.9193

> <Gold.PLP.Chemscore.CHOScore>
0.0000

> <Gold.PLP.Chemscore.Metal>
0.0000

> <Gold.Chemscore.Hbonds>
donor molecule, donor type, donor heavy atom, donor atom, acceptor molecule, acceptor atom, score
      L1  H     3    60       P1 10956  2.00
      P1  H  6896  6909       L1    26  0.67
      P1  H  6934  6947       L1    24  1.00

> <Gold.PLP.Chemscore.Internal.Correction>
0.6226

> <Gold.Rescore>
     Score         DG    S(hbond)    S(metal)    S(lipo)     H(rot)  DE(clash)    DE(int)     intcor
     10.06     -14.06       2.13        0.00      85.32       3.33       1.90       2.10       ----

> <Gold.Chemscore.Fitness>
10.0631

> <Gold.Chemscore.DG>
-14.0587

> <Gold.Chemscore.ZeroCoef>
-5.4800

> <Gold.Chemscore.Hbond>
2.1284

> <Gold.Chemscore.Metal>
0.0000

> <Gold.Chemscore.Lipo>
85.3172

> <Gold.Chemscore.Internal_Hbond>
0.0000

> <Gold.Chemscore.DEClash>
1.8955

> <Gold.Chemscore.DEInternal>
2.1001

> <Gold.Chemscore.Rot>
3.3251

> <Gold.Chemscore.Internal.Correction>
   9.000000E+99

> <Gold.Chemscore.Hbonds>
donor molecule, donor type, donor heavy atom, donor atom, acceptor molecule, acceptor atom, score
      L1  H     3    60       P1 10956  0.95
      P1  H  6896  6909       L1    26  0.55
      P1  H  6934  6947       L1    24  0.67

> <Gold.Chemscore.Hbond.Weighted>
-7.1088

> <Gold.Chemscore.Metal.Weighted>
-0.0000

> <Gold.Chemscore.Lipo.Weighted>
-9.9821

> <Gold.Chemscore.Internal_Hbond.Weighted>
0.0000

> <Gold.Chemscore.DEClash.Weighted>
1.8955

> <Gold.Chemscore.DEInternal.Weighted>
2.1001

> <Gold.Chemscore.Rot.Weighted>
8.5122

> <Gold.Chemscore.Internal.Correction.Weighted>
   9.000000E+99

> <Gold.Protein.RotatedTorsions>
[ 6907 6896 6895 6894 ] final  111.81 input  -60.11 | X-H torsion
[ 7974 7965 7964 7962 ] final -122.03 input  175.53 | X-H torsion
[ 8008 7997 7996 7995 ] final  171.22 input   59.86 | X-H torsion
[ 10167 10162 10161 10158 ] final -141.90 input  -65.29 | X-H torsion
[ 10718 10713 10712 10709 ] final  124.10 input   66.30 | X-H torsion
[ 10763 10752 10751 10750 ] final   47.33 input  -60.55 | X-H torsion
[ 11005 11000 10999 10996 ] final  -86.65 input  -57.11 | X-H torsion

> <Gold.Protein.ActiveResidues>
 VAL166  LYS551  ARG553  GLY616  TRP617  ASP618  TYR619  PRO620  LYS621  CYS622 
 ASP623  PHE694  ASN695  SER759  ASP760  ASP761  ALA762  ILE779  LEU786  VAL792 
 PHE793  MET794  SER795  GLU796  ALA797  LYS798  CYS799  TRP800  GLU811  SER814 

> <Gold.Protein.RotatedAtoms>
  152.4949  133.8604  159.7247 H   0  0  0  0  0  0  0  0  0  0  0  0  # atno 6907 bound_to 6896
  150.9117  133.6980  159.2860 H   0  0  0  0  0  0  0  0  0  0  0  0  # atno 6908 bound_to 6896
  151.4387  135.1022  159.9716 H   0  0  0  0  0  0  0  0  0  0  0  0  # atno 6909 bound_to 6896
  145.0339  140.8090  143.4307 H   0  0  0  0  0  0  0  0  0  0  0  0  # atno 7974 bound_to 7965
  156.1292  140.1517  156.9091 H   0  0  0  0  0  0  0  0  0  0  0  0  # atno 8008 bound_to 7997
  154.4895  140.0855  156.7603 H   0  0  0  0  0  0  0  0  0  0  0  0  # atno 8009 bound_to 7997
  155.4287  140.3426  155.4280 H   0  0  0  0  0  0  0  0  0  0  0  0  # atno 8010 bound_to 7997
  139.8140  143.7664  152.2664 H   0  0  0  0  0  0  0  0  0  0  0  0  # atno 10167 bound_to 10162
  157.5612  131.1089  150.8535 H   0  0  0  0  0  0  0  0  0  0  0  0  # atno 10718 bound_to 10713
  152.9801  135.5980  154.3745 H   0  0  0  0  0  0  0  0  0  0  0  0  # atno 10763 bound_to 10752
  154.3415  135.2767  155.2422 H   0  0  0  0  0  0  0  0  0  0  0  0  # atno 10764 bound_to 10752
  154.4501  135.5992  153.6241 H   0  0  0  0  0  0  0  0  0  0  0  0  # atno 10765 bound_to 10752
  141.1627  133.7466  156.9192 H   0  0  0  0  0  0  0  0  0  0  0  0  # atno 11005 bound_to 11000
  145.1735  139.2391  143.5329 LP  0  0  0  0  0  0  0  0  0  0  0  0  # atno 17320 bound_to 7965
  146.3502  140.1492  142.8593 LP  0  0  0  0  0  0  0  0  0  0  0  0  # atno 17321 bound_to 7965
  139.7822  144.7440  151.0072 LP  0  0  0  0  0  0  0  0  0  0  0  0  # atno 17342 bound_to 10162
  140.7816  143.4530  151.0385 LP  0  0  0  0  0  0  0  0  0  0  0  0  # atno 17343 bound_to 10162
  156.9032  130.5254  149.5282 LP  0  0  0  0  0  0  0  0  0  0  0  0  # atno 17370 bound_to 10713
  156.0664  130.5706  150.9297 LP  0  0  0  0  0  0  0  0  0  0  0  0  # atno 17371 bound_to 10713
  140.1463  134.9260  157.2534 LP  0  0  0  0  0  0  0  0  0  0  0  0  # atno 17394 bound_to 11000
  140.2776  134.3387  155.7353 LP  0  0  0  0  0  0  0  0  0  0  0  0  # atno 17395 bound_to 11000

$$$$
