AV-unprocessed.smi:3162|AV-procd|sdf|12064|dock9
  -GOLD-   2272017493D 1   1.00000     0.00000
 Structure written by MMmdl.
 37 37  0  0  0  0  0  0  0  0  2 V2000
  145.3582  131.7998  150.5116 C   0  0  0  0  0  0  0  0  0  0  0  0
  145.0640  133.3010  150.3639 C   0  0  0  0  0  0  0  0  0  0  0  0
  145.5505  134.1711  151.5435 C   0  0  1  0  0  0  0  0  0  0  0  0
  147.0115  133.9831  151.7152 N   0  3  0  0  0  0  0  0  0  0  0  0
  147.4466  133.3338  152.9746 C   0  0  2  0  0  0  0  0  0  0  0  0
  146.8637  134.1060  154.1695 C   0  0  0  0  0  0  0  0  0  0  0  0
  148.9881  133.2312  153.0369 C   0  0  0  0  0  0  0  0  0  0  0  0
  149.4468  132.0416  153.7304 N   0  0  0  0  0  0  0  0  0  0  0  0
  149.1435  130.7222  153.4688 C   0  0  0  0  0  0  0  0  0  0  0  0
  149.8033  129.9590  154.3900 C   0  0  0  0  0  0  0  0  0  0  0  0
  149.8127  128.4649  154.5378 C   0  0  0  0  0  0  0  0  0  0  0  0
  150.4881  130.9201  155.1867 C   0  0  0  0  0  0  0  0  0  0  0  0
  150.2702  132.1642  154.7925 N   0  0  0  0  0  0  0  0  0  0  0  0
  145.2154  135.6549  151.3196 C   0  0  0  0  0  0  0  0  0  0  0  0
  145.4961  136.1725  150.1208 N   0  0  0  0  0  0  0  0  0  0  0  0
  144.7147  136.3256  152.2205 O   0  0  0  0  0  0  0  0  0  0  0  0
  145.0580  131.2589  149.6137 H   0  0  0  0  0  0  0  0  0  0  0  0
  144.8170  131.3615  151.3505 H   0  0  0  0  0  0  0  0  0  0  0  0
  146.4226  131.6199  150.6657 H   0  0  0  0  0  0  0  0  0  0  0  0
  145.5460  133.6473  149.4487 H   0  0  0  0  0  0  0  0  0  0  0  0
  143.9934  133.4449  150.2087 H   0  0  0  0  0  0  0  0  0  0  0  0
  145.0454  133.8246  152.4457 H   0  0  0  0  0  0  0  0  0  0  0  0
  147.3623  133.4325  150.9450 H   0  0  0  0  0  0  0  0  0  0  0  0
  147.0245  132.3285  153.0086 H   0  0  0  0  0  0  0  0  0  0  0  0
  147.0833  133.6088  155.1146 H   0  0  0  0  0  0  0  0  0  0  0  0
  145.7788  134.1838  154.0928 H   0  0  0  0  0  0  0  0  0  0  0  0
  147.2669  135.1179  154.2240 H   0  0  0  0  0  0  0  0  0  0  0  0
  149.4230  133.2195  152.0375 H   0  0  0  0  0  0  0  0  0  0  0  0
  149.4020  134.1044  153.5432 H   0  0  0  0  0  0  0  0  0  0  0  0
  148.4919  130.4370  152.6557 H   0  0  0  0  0  0  0  0  0  0  0  0
  150.0260  128.1611  155.5628 H   0  0  0  0  0  0  0  0  0  0  0  0
  150.5685  128.0039  153.9018 H   0  0  0  0  0  0  0  0  0  0  0  0
  148.8523  128.0257  154.2672 H   0  0  0  0  0  0  0  0  0  0  0  0
  151.1328  130.7507  156.0367 H   0  0  0  0  0  0  0  0  0  0  0  0
  145.2912  137.1417  149.9240 H   0  0  0  0  0  0  0  0  0  0  0  0
  145.9119  135.5885  149.4089 H   0  0  0  0  0  0  0  0  0  0  0  0
  147.4327  134.9002  151.6694 H   0  0  0  0  0  0  0  0  0  0  0  0
  1  2  1  0  0  0  0
  1 17  1  0  0  0  0
  1 18  1  0  0  0  0
  1 19  1  0  0  0  0
  2  3  1  0  0  0  0
  2 20  1  0  0  0  0
  2 21  1  0  0  0  0
  3  4  1  0  0  0  0
  3 14  1  0  0  0  0
  3 22  1  0  0  0  0
  4  5  1  0  0  0  0
  4 23  1  0  0  0  0
  4 37  1  0  0  0  0
  5  6  1  0  0  0  0
  5  7  1  0  0  0  0
  5 24  1  0  0  0  0
  6 25  1  0  0  0  0
  6 26  1  0  0  0  0
  6 27  1  0  0  0  0
  7  8  1  0  0  0  0
  7 28  1  0  0  0  0
  7 29  1  0  0  0  0
  8 13  1  0  0  0  0
  8  9  1  0  0  0  0
  9 10  2  0  0  0  0
  9 30  1  0  0  0  0
 10 11  1  0  0  0  0
 10 12  1  0  0  0  0
 11 31  1  0  0  0  0
 11 32  1  0  0  0  0
 11 33  1  0  0  0  0
 12 13  2  0  0  0  0
 12 34  1  0  0  0  0
 14 15  1  0  0  0  0
 14 16  2  0  0  0  0
 15 35  1  0  0  0  0
 15 36  1  0  0  0  0
M  CHG  1   4   1
M  END
> <s_m_source_file>
AV-unprocessed.smi

> <i_m_source_file_index>
3162

> <i_lp_mmshare_version>
43012

> <i_f3d_flags>
0

> <s_epik_input>
W0NIM11bQ0gyXVtDQEBIXShDKD1PKVtOSDJdKVtOSF1bQ0BIXShbQ0gzXSlbQ0gyXW4xW2NIXWMoW0NIM10pW2NIXW4x

> <s_epik_cmdline>
J2VwaWtfcHl0aG9uJywgJy1waCcsICc3LjAnLCAnLXRuJywgJzgnLCAnLW1hJywgJzIwMCcsICctbWV0YWxfYmluZGluZycsICctaW1hZScsICc8aW5maWxlLm1hZT4nLCAnLW9tYWUnLCAnPG91dGZpbGUubWFlPic=

> <r_lp_tautomer_probability>
1

> <r_epik_Ionization_Penalty>
0.112112

> <r_epik_Ionization_Penalty_Charging>
0.112102

> <r_epik_Ionization_Penalty_Neutral>
9.73799e-06

> <r_epik_State_Penalty>
0.101811

> <r_epik_Charging_Adjusted_Penalty>
0.213914

> <i_epik_Tot_Q>
1

> <i_epik_Tot_abs_Q>
1

> <r_epik_Metal_State_Penalty>
0.101821

> <b_epik_Metal_Only>
0

> <s_lp_Force_Field>
OPLS_2005

> <r_lp_Energy>
4.43066

> <b_lp_Chiralities_Consistent>
1

> <s_lp_Variant>
AV-unprocessed.smi:3162-2

> <Gold.Version>
5.8.1

> <Gold.Id.Protein>
6NUR|6NUR_protein|mol2

> <Gold.PLP.Fitness>
41.1802

> <Gold.PLP.PLP>
-29.0931

> <Gold.PLP.part.hbond>
-3.0000

> <Gold.PLP.part.metal>
0.0000

> <Gold.PLP.part.buried>
-3.8725

> <Gold.PLP.part.nonpolar>
-21.8149

> <Gold.PLP.part.repulsive>
0.3345

> <Gold.PLP.ligand.clash>
0.0000

> <Gold.PLP.ligand.torsion>
1.5234

> <Gold.PLP.Chemscore.Hbond>
4.0000

> <Gold.PLP.Chemscore.CHOScore>
1.0000

> <Gold.PLP.Chemscore.Metal>
0.0000

> <Gold.Chemscore.Hbonds>
donor molecule, donor type, donor heavy atom, donor atom, acceptor molecule, acceptor atom, score
      L1  H     4    37       P1  7948  2.00
      L1  H    15    35       P1 10171  0.94
      L1  H    15    36       P1  7921  1.00
      L1  C     9    30       P1 10747  0.87

> <Gold.PLP.Chemscore.Internal.Correction>
0.1338

> <Gold.Rescore>
     Score         DG    S(hbond)    S(metal)    S(lipo)     H(rot)  DE(clash)    DE(int)     intcor
     13.05     -14.88       2.71        0.00      57.72       2.51       0.03       1.80       ----

> <Gold.Chemscore.Fitness>
13.0494

> <Gold.Chemscore.DG>
-14.8847

> <Gold.Chemscore.ZeroCoef>
-5.4800

> <Gold.Chemscore.Hbond>
2.7147

> <Gold.Chemscore.Metal>
0.0000

> <Gold.Chemscore.Lipo>
57.7207

> <Gold.Chemscore.Internal_Hbond>
0.0000

> <Gold.Chemscore.DEClash>
0.0316

> <Gold.Chemscore.DEInternal>
1.8037

> <Gold.Chemscore.Rot>
2.5062

> <Gold.Chemscore.Internal.Correction>
   9.000000E+99

> <Gold.Chemscore.Hbonds>
donor molecule, donor type, donor heavy atom, donor atom, acceptor molecule, acceptor atom, score
      L1  H     4    37       P1  7948  0.67
      L1  H    15    35       P1 10171  0.87
      L1  H    15    36       P1  7921  0.97

> <Gold.Chemscore.Hbond.Weighted>
-9.0672

> <Gold.Chemscore.Metal.Weighted>
-0.0000

> <Gold.Chemscore.Lipo.Weighted>
-6.7533

> <Gold.Chemscore.Internal_Hbond.Weighted>
0.0000

> <Gold.Chemscore.DEClash.Weighted>
0.0316

> <Gold.Chemscore.DEInternal.Weighted>
1.8037

> <Gold.Chemscore.Rot.Weighted>
6.4159

> <Gold.Chemscore.Internal.Correction.Weighted>
   9.000000E+99

> <Gold.Protein.RotatedTorsions>
[ 6907 6896 6895 6894 ] final -141.54 input  -60.11 | X-H torsion
[ 7974 7965 7964 7962 ] final -166.42 input  175.53 | X-H torsion
[ 8008 7997 7996 7995 ] final  -29.99 input   59.86 | X-H torsion
[ 10167 10162 10161 10158 ] final  169.11 input  -65.29 | X-H torsion
[ 10718 10713 10712 10709 ] final -155.30 input   66.30 | X-H torsion
[ 10763 10752 10751 10750 ] final   80.91 input  -60.55 | X-H torsion
[ 11005 11000 10999 10996 ] final   41.69 input  -57.11 | X-H torsion

> <Gold.Protein.ActiveResidues>
 VAL166  LYS551  ARG553  GLY616  TRP617  ASP618  TYR619  PRO620  LYS621  CYS622 
 ASP623  PHE694  ASN695  SER759  ASP760  ASP761  ALA762  ILE779  LEU786  VAL792 
 PHE793  MET794  SER795  GLU796  ALA797  LYS798  CYS799  TRP800  GLU811  SER814 

> <Gold.Protein.RotatedAtoms>
  151.0751  133.5435  159.2624 H   0  0  0  0  0  0  0  0  0  0  0  0  # atno 6907 bound_to 6896
  151.2359  135.0571  159.9016 H   0  0  0  0  0  0  0  0  0  0  0  0  # atno 6908 bound_to 6896
  152.5416  134.0533  159.8173 H   0  0  0  0  0  0  0  0  0  0  0  0  # atno 6909 bound_to 6896
  144.7246  140.2669  143.6256 H   0  0  0  0  0  0  0  0  0  0  0  0  # atno 7974 bound_to 7965
  154.4268  140.1803  156.1336 H   0  0  0  0  0  0  0  0  0  0  0  0  # atno 8008 bound_to 7997
  156.0048  140.3356  155.6856 H   0  0  0  0  0  0  0  0  0  0  0  0  # atno 8009 bound_to 7997
  155.6193  140.0658  157.2673 H   0  0  0  0  0  0  0  0  0  0  0  0  # atno 8010 bound_to 7997
  139.4984  144.3741  151.9693 H   0  0  0  0  0  0  0  0  0  0  0  0  # atno 10167 bound_to 10162
  156.5110  130.8435  151.2646 H   0  0  0  0  0  0  0  0  0  0  0  0  # atno 10718 bound_to 10713
  153.1073  135.4785  154.8973 H   0  0  0  0  0  0  0  0  0  0  0  0  # atno 10763 bound_to 10752
  154.7443  135.3090  154.8674 H   0  0  0  0  0  0  0  0  0  0  0  0  # atno 10764 bound_to 10752
  153.9273  135.6848  153.4799 H   0  0  0  0  0  0  0  0  0  0  0  0  # atno 10765 bound_to 10752
  140.1810  134.4104  155.8200 H   0  0  0  0  0  0  0  0  0  0  0  0  # atno 11005 bound_to 11000
  145.8081  139.1991  143.2009 LP  0  0  0  0  0  0  0  0  0  0  0  0  # atno 17320 bound_to 7965
  146.0620  140.7961  142.9730 LP  0  0  0  0  0  0  0  0  0  0  0  0  # atno 17321 bound_to 7965
  140.3177  144.3464  150.6017 LP  0  0  0  0  0  0  0  0  0  0  0  0  # atno 17342 bound_to 10162
  140.5748  143.2177  151.7535 LP  0  0  0  0  0  0  0  0  0  0  0  0  # atno 17343 bound_to 10162
  157.7450  130.9949  150.2726 LP  0  0  0  0  0  0  0  0  0  0  0  0  # atno 17370 bound_to 10713
  156.3240  130.3790  149.7549 LP  0  0  0  0  0  0  0  0  0  0  0  0  # atno 17371 bound_to 10713
  141.2223  133.7000  156.7930 LP  0  0  0  0  0  0  0  0  0  0  0  0  # atno 17394 bound_to 11000
  140.2268  134.8716  157.3434 LP  0  0  0  0  0  0  0  0  0  0  0  0  # atno 17395 bound_to 11000

$$$$
