AV-unprocessed.smi:1778|AV-procd|sdf|7180|dock3
  -GOLD-   22720 8413D 1   1.00000     0.00000
 Structure written by MMmdl.
 34 35  0  0  0  0  0  0  0  0  1 V2000
  151.3397  145.5905  160.1220 C   0  0  0  0  0  0  0  0  0  0  0  0
  152.0420  144.2898  160.3878 C   0  0  0  0  0  0  0  0  0  0  0  0
  152.5648  144.0717  161.5826 N   0  0  0  0  0  0  0  0  0  0  0  0
  153.1514  142.8042  161.5198 O   0  0  0  0  0  0  0  0  0  0  0  0
  152.9575  142.3031  160.2734 C   0  0  0  0  0  0  0  0  0  0  0  0
  153.5208  140.9502  159.9973 C   0  0  0  0  0  0  0  0  0  0  0  0
  152.2602  143.1928  159.5037 C   0  0  0  0  0  0  0  0  0  0  0  0
  151.8339  143.0495  158.0649 C   0  0  0  0  0  0  0  0  0  0  0  0
  151.2085  141.6719  157.8486 C   0  0  0  0  0  0  0  0  0  0  0  0
  150.9248  140.9650  158.8152 O   0  0  0  0  0  0  0  0  0  0  0  0
  151.0016  141.3037  156.5750 N   0  0  0  0  0  0  0  0  0  0  0  0
  150.4387  140.0271  156.1503 C   0  0  1  0  0  0  0  0  0  0  0  0
  149.9173  140.0765  154.6998 C   0  0  0  0  0  0  0  0  0  0  0  0
  149.7021  138.6405  154.2066 C   0  0  0  0  0  0  0  0  0  0  0  0
  150.9490  137.6132  155.0725 S   0  0  0  0  0  0  0  0  0  0  0  0
  150.2576  136.5493  155.8163 O   0  0  0  0  0  0  0  0  0  0  0  0
  152.0536  137.2995  154.1537 O   0  0  0  0  0  0  0  0  0  0  0  0
  151.4951  138.9171  156.2381 C   0  0  0  0  0  0  0  0  0  0  0  0
  152.0581  146.3874  159.9294 H   0  0  0  0  0  0  0  0  0  0  0  0
  150.7274  145.8917  160.9724 H   0  0  0  0  0  0  0  0  0  0  0  0
  150.6834  145.5206  159.2550 H   0  0  0  0  0  0  0  0  0  0  0  0
  154.2861  141.0036  159.2228 H   0  0  0  0  0  0  0  0  0  0  0  0
  152.7408  140.2702  159.6551 H   0  0  0  0  0  0  0  0  0  0  0  0
  153.9736  140.5212  160.8915 H   0  0  0  0  0  0  0  0  0  0  0  0
  151.1074  143.8150  157.7896 H   0  0  0  0  0  0  0  0  0  0  0  0
  152.6737  143.1753  157.3808 H   0  0  0  0  0  0  0  0  0  0  0  0
  151.2642  141.9523  155.8471 H   0  0  0  0  0  0  0  0  0  0  0  0
  149.6099  139.7548  156.8070 H   0  0  0  0  0  0  0  0  0  0  0  0
  149.0049  140.6677  154.6142 H   0  0  0  0  0  0  0  0  0  0  0  0
  150.6658  140.5540  154.0657 H   0  0  0  0  0  0  0  0  0  0  0  0
  148.7135  138.2795  154.4911 H   0  0  0  0  0  0  0  0  0  0  0  0
  149.8124  138.5395  153.1268 H   0  0  0  0  0  0  0  0  0  0  0  0
  152.4717  139.2696  155.9041 H   0  0  0  0  0  0  0  0  0  0  0  0
  151.5989  138.5052  157.2422 H   0  0  0  0  0  0  0  0  0  0  0  0
  1  2  1  0  0  0  0
  1 19  1  0  0  0  0
  1 20  1  0  0  0  0
  1 21  1  0  0  0  0
  2  7  1  0  0  0  0
  2  3  2  0  0  0  0
  3  4  1  0  0  0  0
  4  5  1  0  0  0  0
  5  6  1  0  0  0  0
  5  7  2  0  0  0  0
  6 22  1  0  0  0  0
  6 23  1  0  0  0  0
  6 24  1  0  0  0  0
  7  8  1  0  0  0  0
  8  9  1  0  0  0  0
  8 25  1  0  0  0  0
  8 26  1  0  0  0  0
  9 10  2  0  0  0  0
  9 11  1  0  0  0  0
 11 12  1  0  0  0  0
 11 27  1  0  0  0  0
 12 18  1  0  0  0  0
 12 13  1  0  0  0  0
 12 28  1  0  0  0  0
 13 14  1  0  0  0  0
 13 29  1  0  0  0  0
 13 30  1  0  0  0  0
 14 15  1  0  0  0  0
 14 31  1  0  0  0  0
 14 32  1  0  0  0  0
 15 16  2  0  0  0  0
 15 17  2  0  0  0  0
 15 18  1  0  0  0  0
 18 33  1  0  0  0  0
 18 34  1  0  0  0  0
M  END
> <s_m_source_file>
AV-unprocessed.smi

> <i_m_source_file_index>
1778

> <i_lp_mmshare_version>
43012

> <i_f3d_flags>
0

> <s_epik_input>
W0NIM11jMW5vYyhbQ0gzXSljMVtDSDJdQyg9TylbTkhdW0NAQEhdKFtDSDJdMilbQ0gyXVtDSDJdUzIoPU8pPU8=

> <s_epik_cmdline>
J2VwaWtfcHl0aG9uJywgJy1waCcsICc3LjAnLCAnLXRuJywgJzgnLCAnLW1hJywgJzIwMCcsICctbWV0YWxfYmluZGluZycsICctaW1hZScsICc8aW5maWxlLm1hZT4nLCAnLW9tYWUnLCAnPG91dGZpbGUubWFlPic=

> <r_lp_tautomer_probability>
1

> <r_epik_Ionization_Penalty>
1.26334e-07

> <r_epik_Ionization_Penalty_Charging>
0

> <r_epik_Ionization_Penalty_Neutral>
1.26334e-07

> <r_epik_State_Penalty>
-0

> <r_epik_Charging_Adjusted_Penalty>
0

> <i_epik_Tot_Q>
0

> <i_epik_Tot_abs_Q>
0

> <r_epik_Metal_State_Penalty>
-0

> <b_epik_Metal_Only>
0

> <s_lp_Force_Field>
OPLS_2005

> <r_lp_Energy>
-2.84578

> <b_lp_Chiralities_Consistent>
1

> <s_lp_Variant>
AV-unprocessed.smi:1778-2

> <Gold.Version>
5.8.1

> <Gold.Id.Protein>
6NUR|6NUR_protein|mol2

> <Gold.PLP.Fitness>
37.7310

> <Gold.PLP.PLP>
-36.0389

> <Gold.PLP.part.hbond>
-1.0000

> <Gold.PLP.part.metal>
0.0000

> <Gold.PLP.part.buried>
-3.2725

> <Gold.PLP.part.nonpolar>
-31.7566

> <Gold.PLP.part.repulsive>
0.8173

> <Gold.PLP.ligand.clash>
0.0000

> <Gold.PLP.ligand.torsion>
0.5231

> <Gold.PLP.Chemscore.Hbond>
0.9120

> <Gold.PLP.Chemscore.CHOScore>
0.0000

> <Gold.PLP.Chemscore.Metal>
0.0000

> <Gold.Chemscore.Hbonds>
donor molecule, donor type, donor heavy atom, donor atom, acceptor molecule, acceptor atom, score
      P1  H 10752 10764       L1    17  0.94

> <Gold.PLP.Chemscore.Internal.Correction>
0.0022

> <Gold.Rescore>
     Score         DG    S(hbond)    S(metal)    S(lipo)     H(rot)  DE(clash)    DE(int)     intcor
     14.16     -15.44       0.98        0.00      90.16       1.51       0.42       0.85       ----

> <Gold.Chemscore.Fitness>
14.1627

> <Gold.Chemscore.DG>
-15.4358

> <Gold.Chemscore.ZeroCoef>
-5.4800

> <Gold.Chemscore.Hbond>
0.9761

> <Gold.Chemscore.Metal>
0.0000

> <Gold.Chemscore.Lipo>
90.1602

> <Gold.Chemscore.Internal_Hbond>
0.0000

> <Gold.Chemscore.DEClash>
0.4182

> <Gold.Chemscore.DEInternal>
0.8549

> <Gold.Chemscore.Rot>
1.5051

> <Gold.Chemscore.Internal.Correction>
   9.000000E+99

> <Gold.Chemscore.Hbonds>
donor molecule, donor type, donor heavy atom, donor atom, acceptor molecule, acceptor atom, score
      P1  H 10752 10764       L1    17  0.91

> <Gold.Chemscore.Hbond.Weighted>
-3.2602

> <Gold.Chemscore.Metal.Weighted>
-0.0000

> <Gold.Chemscore.Lipo.Weighted>
-10.5487

> <Gold.Chemscore.Internal_Hbond.Weighted>
0.0000

> <Gold.Chemscore.DEClash.Weighted>
0.4182

> <Gold.Chemscore.DEInternal.Weighted>
0.8549

> <Gold.Chemscore.Rot.Weighted>
3.8531

> <Gold.Chemscore.Internal.Correction.Weighted>
   9.000000E+99

> <Gold.Protein.RotatedTorsions>
[ 6907 6896 6895 6894 ] final  178.81 input  -60.11 | X-H torsion
[ 7974 7965 7964 7962 ] final   65.69 input  175.53 | X-H torsion
[ 8008 7997 7996 7995 ] final  -28.79 input   59.86 | X-H torsion
[ 10167 10162 10161 10158 ] final -113.72 input  -65.29 | X-H torsion
[ 10718 10713 10712 10709 ] final  -79.57 input   66.30 | X-H torsion
[ 10763 10752 10751 10750 ] final  -86.60 input  -60.55 | X-H torsion
[ 11005 11000 10999 10996 ] final  148.08 input  -57.11 | X-H torsion

> <Gold.Protein.ActiveResidues>
 VAL166  LYS551  ARG553  GLY616  TRP617  ASP618  TYR619  PRO620  LYS621  CYS622 
 ASP623  PHE694  ASN695  SER759  ASP760  ASP761  ALA762  ILE779  LEU786  VAL792 
 PHE793  MET794  SER795  GLU796  ALA797  LYS798  CYS799  TRP800  GLU811  SER814 

> <Gold.Protein.RotatedAtoms>
  151.6819  133.3312  159.3221 H   0  0  0  0  0  0  0  0  0  0  0  0  # atno 6907 bound_to 6896
  150.7819  134.6773  159.6434 H   0  0  0  0  0  0  0  0  0  0  0  0  # atno 6908 bound_to 6896
  152.3878  134.6492  160.0171 H   0  0  0  0  0  0  0  0  0  0  0  0  # atno 6909 bound_to 6896
  145.8355  139.3164  143.0962 H   0  0  0  0  0  0  0  0  0  0  0  0  # atno 7974 bound_to 7965
  154.4317  140.1835  156.1146 H   0  0  0  0  0  0  0  0  0  0  0  0  # atno 8008 bound_to 7997
  156.0191  140.3342  155.6995 H   0  0  0  0  0  0  0  0  0  0  0  0  # atno 8009 bound_to 7997
  155.6002  140.0639  157.2726 H   0  0  0  0  0  0  0  0  0  0  0  0  # atno 8010 bound_to 7997
  140.1088  143.4546  152.1766 H   0  0  0  0  0  0  0  0  0  0  0  0  # atno 10167 bound_to 10162
  156.0089  130.4549  150.3668 H   0  0  0  0  0  0  0  0  0  0  0  0  # atno 10718 bound_to 10713
  154.6243  135.5443  153.7609 H   0  0  0  0  0  0  0  0  0  0  0  0  # atno 10763 bound_to 10752
  153.0253  135.6420  154.1395 H   0  0  0  0  0  0  0  0  0  0  0  0  # atno 10764 bound_to 10752
  154.1328  135.2913  155.3161 H   0  0  0  0  0  0  0  0  0  0  0  0  # atno 10765 bound_to 10752
  140.0929  134.9030  157.1679 H   0  0  0  0  0  0  0  0  0  0  0  0  # atno 11005 bound_to 11000
  145.9524  140.8899  143.0252 LP  0  0  0  0  0  0  0  0  0  0  0  0  # atno 17320 bound_to 7965
  144.6737  140.1698  143.7415 LP  0  0  0  0  0  0  0  0  0  0  0  0  # atno 17321 bound_to 7965
  139.5631  144.7418  151.4099 LP  0  0  0  0  0  0  0  0  0  0  0  0  # atno 17342 bound_to 10162
  140.6937  143.7800  150.7294 LP  0  0  0  0  0  0  0  0  0  0  0  0  # atno 17343 bound_to 10162
  157.1755  131.0379  151.2774 LP  0  0  0  0  0  0  0  0  0  0  0  0  # atno 17370 bound_to 10713
  157.4192  130.7428  149.6900 LP  0  0  0  0  0  0  0  0  0  0  0  0  # atno 17371 bound_to 10713
  140.3327  134.2792  155.7225 LP  0  0  0  0  0  0  0  0  0  0  0  0  # atno 17394 bound_to 11000
  141.2083  133.7781  157.0065 LP  0  0  0  0  0  0  0  0  0  0  0  0  # atno 17395 bound_to 11000

$$$$
