AV-unprocessed.smi:155|AV-procd|sdf|1269|dock5
  -GOLD-   2262018523D 1   1.00000     0.00000
 Structure written by MMmdl.
 63 66  0  0  0  0  0  0  0  0  2 V2000
  148.3021  130.8334  155.4825 C   0  0  0  0  0  0  0  0  0  0  0  0
  148.4529  131.6745  154.2999 N   0  0  0  0  0  0  0  0  0  0  0  0
  149.2920  132.8117  154.6531 C   0  0  0  0  0  0  0  0  0  0  0  0
  147.1610  132.1614  153.8180 C   0  0  0  0  0  0  0  0  0  0  0  0
  147.2568  132.9699  152.5006 C   0  0  0  0  0  0  0  0  0  0  0  0
  145.9961  133.6377  152.0781 N   0  3  2  0  0  0  0  0  0  0  0  0
  144.8133  132.7340  152.0255 C   0  0  0  0  0  0  0  0  0  0  0  0
  143.5098  133.4291  151.5777 C   0  0  0  0  0  0  0  0  0  0  0  0
  143.2091  134.7609  152.2937 C   0  0  0  0  0  0  0  0  0  0  0  0
  144.2756  135.7514  152.1270 N   0  0  0  0  0  0  0  0  0  0  0  0
  144.4933  136.6615  153.1114 C   0  0  0  0  0  0  0  0  0  0  0  0
  143.6877  136.6296  154.2053 N   0  0  0  0  0  0  0  0  0  0  0  0
  143.8552  137.5096  155.1967 C   0  0  0  0  0  0  0  0  0  0  0  0
  144.7581  138.4857  155.3009 N   0  0  0  0  0  0  0  0  0  0  0  0
  145.5816  138.5151  154.2149 C   0  0  0  0  0  0  0  0  0  0  0  0
  145.5226  137.6486  153.0858 C   0  0  0  0  0  0  0  0  0  0  0  0
  146.5405  137.9738  152.1948 N   0  0  0  0  0  0  0  0  0  0  0  0
  147.1496  138.9838  152.7533 C   0  0  0  0  0  0  0  0  0  0  0  0
  146.6372  139.3744  153.9680 N   0  0  0  0  0  0  0  0  0  0  0  0
  147.1174  140.4643  154.7991 C   0  0  0  0  0  0  0  0  0  0  0  0
  148.5927  140.8103  154.5175 C   0  0  1  0  0  0  0  0  0  0  0  0
  148.6620  142.0458  153.8311 O   0  0  0  0  0  0  0  0  0  0  0  0
  149.4242  140.9080  155.8095 C   0  0  2  0  0  0  0  0  0  0  0  0
  150.9046  141.2313  155.5908 C   0  0  0  0  0  0  0  0  0  0  0  0
  151.6000  140.6022  156.7892 C   0  0  0  0  0  0  0  0  0  0  0  0
  150.5209  139.7275  157.4309 C   0  0  0  0  0  0  0  0  0  0  0  0
  149.4927  139.6461  156.4553 O   0  0  0  0  0  0  0  0  0  0  0  0
  145.1272  135.7300  150.9356 C   0  0  0  0  0  0  0  0  0  0  0  0
  146.1429  134.5598  150.9185 C   0  0  0  0  0  0  0  0  0  0  0  0
  147.7245  129.9356  155.2670 H   0  0  0  0  0  0  0  0  0  0  0  0
  147.8082  131.3710  156.2934 H   0  0  0  0  0  0  0  0  0  0  0  0
  149.2787  130.5063  155.8412 H   0  0  0  0  0  0  0  0  0  0  0  0
  149.4605  133.4495  153.7847 H   0  0  0  0  0  0  0  0  0  0  0  0
  150.2674  132.4746  155.0058 H   0  0  0  0  0  0  0  0  0  0  0  0
  148.8349  133.4162  155.4381 H   0  0  0  0  0  0  0  0  0  0  0  0
  146.5006  131.3051  153.6704 H   0  0  0  0  0  0  0  0  0  0  0  0
  146.6831  132.7692  154.5863 H   0  0  0  0  0  0  0  0  0  0  0  0
  148.0684  133.6962  152.5205 H   0  0  0  0  0  0  0  0  0  0  0  0
  147.5220  132.2761  151.7020 H   0  0  0  0  0  0  0  0  0  0  0  0
  145.0030  131.9048  151.3461 H   0  0  0  0  0  0  0  0  0  0  0  0
  144.6709  132.3011  153.0163 H   0  0  0  0  0  0  0  0  0  0  0  0
  143.5289  133.5855  150.4989 H   0  0  0  0  0  0  0  0  0  0  0  0
  142.6770  132.7454  151.7450 H   0  0  0  0  0  0  0  0  0  0  0  0
  142.2777  135.1829  151.9149 H   0  0  0  0  0  0  0  0  0  0  0  0
  143.0555  134.5588  153.3549 H   0  0  0  0  0  0  0  0  0  0  0  0
  143.1668  137.4189  156.0243 H   0  0  0  0  0  0  0  0  0  0  0  0
  147.9939  139.4758  152.2923 H   0  0  0  0  0  0  0  0  0  0  0  0
  146.4815  141.3358  154.6392 H   0  0  0  0  0  0  0  0  0  0  0  0
  146.9900  140.1747  155.8427 H   0  0  0  0  0  0  0  0  0  0  0  0
  149.0237  140.0455  153.8699 H   0  0  0  0  0  0  0  0  0  0  0  0
  148.9796  142.7045  154.4299 H   0  0  0  0  0  0  0  0  0  0  0  0
  148.9818  141.6316  156.4972 H   0  0  0  0  0  0  0  0  0  0  0  0
  151.2648  140.7618  154.6745 H   0  0  0  0  0  0  0  0  0  0  0  0
  151.0883  142.3030  155.5110 H   0  0  0  0  0  0  0  0  0  0  0  0
  152.4555  140.0077  156.4673 H   0  0  0  0  0  0  0  0  0  0  0  0
  151.9591  141.3550  157.4917 H   0  0  0  0  0  0  0  0  0  0  0  0
  150.8882  138.7379  157.7035 H   0  0  0  0  0  0  0  0  0  0  0  0
  150.1250  140.2034  158.3292 H   0  0  0  0  0  0  0  0  0  0  0  0
  144.4764  135.6525  150.0643 H   0  0  0  0  0  0  0  0  0  0  0  0
  145.6426  136.6827  150.8110 H   0  0  0  0  0  0  0  0  0  0  0  0
  147.1445  134.9909  150.9340 H   0  0  0  0  0  0  0  0  0  0  0  0
  146.0686  134.0028  149.9838 H   0  0  0  0  0  0  0  0  0  0  0  0
  145.7908  134.2602  152.8467 H   0  0  0  0  0  0  0  0  0  0  0  0
  1  2  1  0  0  0  0
  1 30  1  0  0  0  0
  1 31  1  0  0  0  0
  1 32  1  0  0  0  0
  2  3  1  0  0  0  0
  2  4  1  0  0  0  0
  3 33  1  0  0  0  0
  3 34  1  0  0  0  0
  3 35  1  0  0  0  0
  4  5  1  0  0  0  0
  4 36  1  0  0  0  0
  4 37  1  0  0  0  0
  5  6  1  0  0  0  0
  5 38  1  0  0  0  0
  5 39  1  0  0  0  0
  6 29  1  0  0  0  0
  6  7  1  0  0  0  0
  6 63  1  0  0  0  0
  7  8  1  0  0  0  0
  7 40  1  0  0  0  0
  7 41  1  0  0  0  0
  8  9  1  0  0  0  0
  8 42  1  0  0  0  0
  8 43  1  0  0  0  0
  9 10  1  0  0  0  0
  9 44  1  0  0  0  0
  9 45  1  0  0  0  0
 10 11  1  0  0  0  0
 10 28  1  0  0  0  0
 11 16  1  0  0  0  0
 11 12  2  0  0  0  0
 12 13  1  0  0  0  0
 13 14  2  0  0  0  0
 13 46  1  0  0  0  0
 14 15  1  0  0  0  0
 15 19  1  0  0  0  0
 15 16  2  0  0  0  0
 16 17  1  0  0  0  0
 17 18  2  0  0  0  0
 18 19  1  0  0  0  0
 18 47  1  0  0  0  0
 19 20  1  0  0  0  0
 20 21  1  0  0  0  0
 20 48  1  0  0  0  0
 20 49  1  0  0  0  0
 21 22  1  0  0  0  0
 21 23  1  0  0  0  0
 21 50  1  0  0  0  0
 22 51  1  0  0  0  0
 23 27  1  0  0  0  0
 23 24  1  0  0  0  0
 23 52  1  0  0  0  0
 24 25  1  0  0  0  0
 24 53  1  0  0  0  0
 24 54  1  0  0  0  0
 25 26  1  0  0  0  0
 25 55  1  0  0  0  0
 25 56  1  0  0  0  0
 26 27  1  0  0  0  0
 26 57  1  0  0  0  0
 26 58  1  0  0  0  0
 28 29  1  0  0  0  0
 28 59  1  0  0  0  0
 28 60  1  0  0  0  0
 29 61  1  0  0  0  0
 29 62  1  0  0  0  0
M  CHG  1   6   1
M  END
> <s_m_source_file>
AV-unprocessed.smi

> <i_m_source_file_index>
155

> <i_lp_mmshare_version>
43012

> <i_f3d_flags>
0

> <s_epik_input>
W0NIM11OKFtDSDNdKVtDSDJdW0NIMl1OMVtDSDJdW0NIMl1bQ0gyXU4oW0NIMl1bQ0gyXTEpYyhuW2NIXW4yKWMoYzIzKW5bY0hdbjNbQ0gyXVtDQEhdKFtPSF0pW0NAQEhdNFtDSDJdW0NIMl1bQ0gyXU80

> <s_epik_cmdline>
J2VwaWtfcHl0aG9uJywgJy1waCcsICc3LjAnLCAnLXRuJywgJzgnLCAnLW1hJywgJzIwMCcsICctbWV0YWxfYmluZGluZycsICctaW1hZScsICc8aW5maWxlLm1hZT4nLCAnLW9tYWUnLCAnPG91dGZpbGUubWFlPic=

> <r_epik_Ionization_Penalty>
0.0619615

> <r_epik_Ionization_Penalty_Charging>
0.0161638

> <r_epik_Ionization_Penalty_Neutral>
0.0457976

> <r_epik_State_Penalty>
0.403408

> <r_epik_Charging_Adjusted_Penalty>
0.419572

> <i_epik_Tot_Q>
1

> <i_epik_Tot_abs_Q>
1

> <r_epik_Metal_State_Penalty>
0.404222

> <b_epik_Metal_Only>
0

> <s_lp_Force_Field>
OPLS_2005

> <r_lp_Energy>
55.2712

> <b_lp_Chiralities_Consistent>
1

> <s_lp_Variant>
AV-unprocessed.smi:155-3

> <Gold.Version>
5.8.1

> <Gold.Id.Protein>
6NUR|6NUR_protein|mol2

> <Gold.PLP.Fitness>
42.5897

> <Gold.PLP.PLP>
-38.3167

> <Gold.PLP.part.hbond>
-2.0000

> <Gold.PLP.part.metal>
0.0000

> <Gold.PLP.part.buried>
-5.1145

> <Gold.PLP.part.nonpolar>
-30.2412

> <Gold.PLP.part.repulsive>
0.4964

> <Gold.PLP.ligand.clash>
0.0000

> <Gold.PLP.ligand.torsion>
1.0937

> <Gold.PLP.Chemscore.Hbond>
1.0874

> <Gold.PLP.Chemscore.CHOScore>
1.0000

> <Gold.PLP.Chemscore.Metal>
0.0000

> <Gold.Chemscore.Hbonds>
donor molecule, donor type, donor heavy atom, donor atom, acceptor molecule, acceptor atom, score
      L1  H    22    51       P1  8028  0.23
      P1  H  8011  8017       L1    22  0.40
      L1  C    18    47       P1  7957  1.00

> <Gold.PLP.Chemscore.Internal.Correction>
0.1984

> <Gold.Rescore>
     Score         DG    S(hbond)    S(metal)    S(lipo)     H(rot)  DE(clash)    DE(int)     intcor
      9.64     -12.00       0.97        0.00      85.52       2.63       0.07       2.29       ----

> <Gold.Chemscore.Fitness>
9.6398

> <Gold.Chemscore.DG>
-11.9986

> <Gold.Chemscore.ZeroCoef>
-5.4800

> <Gold.Chemscore.Hbond>
0.9736

> <Gold.Chemscore.Metal>
0.0000

> <Gold.Chemscore.Lipo>
85.5191

> <Gold.Chemscore.Internal_Hbond>
0.0000

> <Gold.Chemscore.DEClash>
0.0715

> <Gold.Chemscore.DEInternal>
2.2872

> <Gold.Chemscore.Rot>
2.6324

> <Gold.Chemscore.Internal.Correction>
   9.000000E+99

> <Gold.Chemscore.Hbonds>
donor molecule, donor type, donor heavy atom, donor atom, acceptor molecule, acceptor atom, score
      L1  H    22    51       P1  8028  0.23
      P1  H  8011  8017       L1    22  0.09

> <Gold.Chemscore.Hbond.Weighted>
-3.2517

> <Gold.Chemscore.Metal.Weighted>
-0.0000

> <Gold.Chemscore.Lipo.Weighted>
-10.0057

> <Gold.Chemscore.Internal_Hbond.Weighted>
0.0000

> <Gold.Chemscore.DEClash.Weighted>
0.0715

> <Gold.Chemscore.DEInternal.Weighted>
2.2872

> <Gold.Chemscore.Rot.Weighted>
6.7389

> <Gold.Chemscore.Internal.Correction.Weighted>
   9.000000E+99

> <Gold.Protein.RotatedTorsions>
[ 6907 6896 6895 6894 ] final  -83.59 input  -60.11 | X-H torsion
[ 7974 7965 7964 7962 ] final -100.56 input  175.53 | X-H torsion
[ 8008 7997 7996 7995 ] final  124.93 input   59.86 | X-H torsion
[ 10167 10162 10161 10158 ] final  169.30 input  -65.29 | X-H torsion
[ 10718 10713 10712 10709 ] final  -93.67 input   66.30 | X-H torsion
[ 10763 10752 10751 10750 ] final -125.69 input  -60.55 | X-H torsion
[ 11005 11000 10999 10996 ] final -158.98 input  -57.11 | X-H torsion

> <Gold.Protein.ActiveResidues>
 VAL166  LYS551  ARG553  GLY616  TRP617  ASP618  TYR619  PRO620  LYS621  CYS622 
 ASP623  PHE694  ASN695  SER759  ASP760  ASP761  ALA762  ILE779  LEU786  VAL792 
 PHE793  MET794  SER795  GLU796  ALA797  LYS798  CYS799  TRP800  GLU811  SER814 

> <Gold.Protein.RotatedAtoms>
  150.6884  134.3489  159.4900 H   0  0  0  0  0  0  0  0  0  0  0  0  # atno 6907 bound_to 6896
  152.1333  134.9116  160.0567 H   0  0  0  0  0  0  0  0  0  0  0  0  # atno 6908 bound_to 6896
  152.0277  133.3890  159.4321 H   0  0  0  0  0  0  0  0  0  0  0  0  # atno 6909 bound_to 6896
  145.2930  140.9357  143.2867 H   0  0  0  0  0  0  0  0  0  0  0  0  # atno 7974 bound_to 7965
  156.2818  140.2728  156.1868 H   0  0  0  0  0  0  0  0  0  0  0  0  # atno 8008 bound_to 7997
  155.0500  140.0386  157.2558 H   0  0  0  0  0  0  0  0  0  0  0  0  # atno 8009 bound_to 7997
  154.7203  140.2686  155.6552 H   0  0  0  0  0  0  0  0  0  0  0  0  # atno 8010 bound_to 7997
  139.4989  144.3721  151.9713 H   0  0  0  0  0  0  0  0  0  0  0  0  # atno 10167 bound_to 10162
  156.0016  130.5036  150.5811 H   0  0  0  0  0  0  0  0  0  0  0  0  # atno 10718 bound_to 10713
  154.8738  135.4021  154.3309 H   0  0  0  0  0  0  0  0  0  0  0  0  # atno 10763 bound_to 10752
  153.4123  135.7021  153.6356 H   0  0  0  0  0  0  0  0  0  0  0  0  # atno 10764 bound_to 10752
  153.5054  135.3718  155.2531 H   0  0  0  0  0  0  0  0  0  0  0  0  # atno 10765 bound_to 10752
  140.6477  134.4484  157.5234 H   0  0  0  0  0  0  0  0  0  0  0  0  # atno 11005 bound_to 11000
  144.9157  139.4473  143.6565 LP  0  0  0  0  0  0  0  0  0  0  0  0  # atno 17320 bound_to 7965
  146.3178  139.7990  142.8969 LP  0  0  0  0  0  0  0  0  0  0  0  0  # atno 17321 bound_to 7965
  140.3158  144.3486  150.6022 LP  0  0  0  0  0  0  0  0  0  0  0  0  # atno 17342 bound_to 10162
  140.5763  143.2176  151.7510 LP  0  0  0  0  0  0  0  0  0  0  0  0  # atno 17343 bound_to 10162
  157.3691  131.0762  151.1572 LP  0  0  0  0  0  0  0  0  0  0  0  0  # atno 17370 bound_to 10713
  157.2332  130.6535  149.5858 LP  0  0  0  0  0  0  0  0  0  0  0  0  # atno 17371 bound_to 10713
  139.9057  134.8455  156.1716 LP  0  0  0  0  0  0  0  0  0  0  0  0  # atno 17394 bound_to 11000
  141.0560  133.6865  156.1861 LP  0  0  0  0  0  0  0  0  0  0  0  0  # atno 17395 bound_to 11000

$$$$
