AV-unprocessed.smi:3009|AV-procd|sdf|11451|dock4
  -GOLD-   2272016383D 1   1.00000     0.00000
 Structure written by MMmdl.
 44 45  0  0  0  0  0  0  0  0  2 V2000
  151.8537  139.9370  156.2737 C   0  0  0  0  0  0  0  0  0  0  0  0
  151.4604  138.7360  155.3973 C   0  0  0  0  0  0  0  0  0  0  0  0
  152.6894  138.1905  154.6549 C   0  0  0  0  0  0  0  0  0  0  0  0
  150.3398  139.0947  154.3975 C   0  0  0  0  0  0  0  0  0  0  0  0
  149.0161  139.2958  155.0484 N   0  3  1  0  0  0  0  0  0  0  0  0
  148.6542  140.7231  155.2252 C   0  0  0  0  0  0  0  0  0  0  0  0
  148.1586  141.3376  153.9040 C   0  0  0  0  0  0  0  0  0  0  0  0
  147.0563  140.5826  153.4168 O   0  0  0  0  0  0  0  0  0  0  0  0
  147.4053  139.2322  153.1264 C   0  0  2  0  0  0  0  0  0  0  0  0
  146.1687  138.5284  152.5396 C   0  0  0  0  0  0  0  0  0  0  0  0
  146.4747  137.1691  152.1064 N   0  0  0  0  0  0  0  0  0  0  0  0
  145.5597  136.2224  151.8554 C   0  0  0  0  0  0  0  0  0  0  0  0
  144.3465  136.4085  151.9562 O   0  0  0  0  0  0  0  0  0  0  0  0
  146.1375  135.0643  151.4977 N   0  0  0  0  0  0  0  0  0  0  0  0
  145.4902  133.8467  151.1680 C   0  0  0  0  0  0  0  0  0  0  0  0
  146.1298  132.5786  151.1145 C   0  0  0  0  0  0  0  0  0  0  0  0
  145.2778  131.6211  150.7775 N   0  0  0  0  0  0  0  0  0  0  0  0
  144.1013  132.2664  150.6110 N   0  0  0  0  0  0  0  0  0  0  0  0
  144.1831  133.6227  150.8367 C   0  0  0  0  0  0  0  0  0  0  0  0
  147.8906  138.5520  154.4253 C   0  0  0  0  0  0  0  0  0  0  0  0
  143.2612  131.7732  150.3441 H   0  0  0  0  0  0  0  0  0  0  0  0
  152.2164  140.7681  155.6680 H   0  0  0  0  0  0  0  0  0  0  0  0
  152.6447  139.6676  156.9742 H   0  0  0  0  0  0  0  0  0  0  0  0
  151.0096  140.2968  156.8626 H   0  0  0  0  0  0  0  0  0  0  0  0
  151.1154  137.9398  156.0560 H   0  0  0  0  0  0  0  0  0  0  0  0
  153.1056  138.9342  153.9746 H   0  0  0  0  0  0  0  0  0  0  0  0
  152.4353  137.3078  154.0673 H   0  0  0  0  0  0  0  0  0  0  0  0
  153.4756  137.9030  155.3536 H   0  0  0  0  0  0  0  0  0  0  0  0
  150.6298  140.0119  153.8824 H   0  0  0  0  0  0  0  0  0  0  0  0
  150.2645  138.3316  153.6232 H   0  0  0  0  0  0  0  0  0  0  0  0
  147.8607  140.7861  155.9711 H   0  0  0  0  0  0  0  0  0  0  0  0
  149.4954  141.2890  155.6269 H   0  0  0  0  0  0  0  0  0  0  0  0
  147.8346  142.3654  154.0685 H   0  0  0  0  0  0  0  0  0  0  0  0
  148.9541  141.3719  153.1582 H   0  0  0  0  0  0  0  0  0  0  0  0
  148.2036  139.2179  152.3835 H   0  0  0  0  0  0  0  0  0  0  0  0
  145.3627  138.5020  153.2750 H   0  0  0  0  0  0  0  0  0  0  0  0
  145.7879  139.0875  151.6844 H   0  0  0  0  0  0  0  0  0  0  0  0
  147.4503  136.9325  151.9988 H   0  0  0  0  0  0  0  0  0  0  0  0
  147.1464  135.0472  151.4682 H   0  0  0  0  0  0  0  0  0  0  0  0
  147.1622  132.3260  151.3064 H   0  0  0  0  0  0  0  0  0  0  0  0
  143.3297  134.2771  150.7407 H   0  0  0  0  0  0  0  0  0  0  0  0
  148.1621  137.5144  154.2362 H   0  0  0  0  0  0  0  0  0  0  0  0
  147.0704  138.5217  155.1439 H   0  0  0  0  0  0  0  0  0  0  0  0
  149.1265  138.9236  155.9811 H   0  0  0  0  0  0  0  0  0  0  0  0
  1  2  1  0  0  0  0
  1 22  1  0  0  0  0
  1 23  1  0  0  0  0
  1 24  1  0  0  0  0
  2  3  1  0  0  0  0
  2  4  1  0  0  0  0
  2 25  1  0  0  0  0
  3 26  1  0  0  0  0
  3 27  1  0  0  0  0
  3 28  1  0  0  0  0
  4  5  1  0  0  0  0
  4 29  1  0  0  0  0
  4 30  1  0  0  0  0
  5 20  1  0  0  0  0
  5  6  1  0  0  0  0
  5 44  1  0  0  0  0
  6  7  1  0  0  0  0
  6 31  1  0  0  0  0
  6 32  1  0  0  0  0
  7  8  1  0  0  0  0
  7 33  1  0  0  0  0
  7 34  1  0  0  0  0
  8  9  1  0  0  0  0
  9 10  1  0  0  0  0
  9 20  1  0  0  0  0
  9 35  1  0  0  0  0
 10 11  1  0  0  0  0
 10 36  1  0  0  0  0
 10 37  1  0  0  0  0
 11 12  1  0  0  0  0
 11 38  1  0  0  0  0
 12 13  2  0  0  0  0
 12 14  1  0  0  0  0
 14 15  1  0  0  0  0
 14 39  1  0  0  0  0
 15 19  2  0  0  0  0
 15 16  1  0  0  0  0
 16 17  2  0  0  0  0
 16 40  1  0  0  0  0
 17 18  1  0  0  0  0
 18 21  1  0  0  0  0
 18 19  1  0  0  0  0
 19 41  1  0  0  0  0
 20 42  1  0  0  0  0
 20 43  1  0  0  0  0
M  CHG  1   5   1
M  END
> <s_m_source_file>
AV-unprocessed.smi

> <i_m_source_file_index>
3009

> <i_lp_mmshare_version>
43012

> <i_f3d_flags>
0

> <s_epik_input>
W0NIM11bQ0hdKFtDSDNdKVtDSDJdTjFbQ0gyXVtDSDJdT1tDQEhdKFtDSDJdMSlbQ0gyXVtOSF1DKD1PKVtOSF1jMltjSF1uW25IXVtjSF0y

> <s_epik_cmdline>
J2VwaWtfcHl0aG9uJywgJy1waCcsICc3LjAnLCAnLXRuJywgJzgnLCAnLW1hJywgJzIwMCcsICctbWV0YWxfYmluZGluZycsICctaW1hZScsICc8aW5maWxlLm1hZT4nLCAnLW9tYWUnLCAnPG91dGZpbGUubWFlPic=

> <r_lp_tautomer_probability>
0.5

> <r_epik_Ionization_Penalty>
0.0974064

> <r_epik_Ionization_Penalty_Charging>
0.0973651

> <r_epik_Ionization_Penalty_Neutral>
4.13573e-05

> <r_epik_State_Penalty>
0.0874853

> <r_epik_Charging_Adjusted_Penalty>
0.18485

> <i_epik_Tot_Q>
1

> <i_epik_Tot_abs_Q>
1

> <r_epik_Metal_State_Penalty>
0.0874855

> <b_epik_Metal_Only>
0

> <s_lp_Force_Field>
OPLS_2005

> <r_lp_Energy>
21.5437

> <b_lp_Chiralities_Consistent>
1

> <s_lp_Variant>
AV-unprocessed.smi:3009-3

> <Gold.Version>
5.8.1

> <Gold.Id.Protein>
6NUR|6NUR_protein|mol2

> <Gold.PLP.Fitness>
42.2214

> <Gold.PLP.PLP>
-32.7728

> <Gold.PLP.part.hbond>
-2.0000

> <Gold.PLP.part.metal>
0.0000

> <Gold.PLP.part.buried>
-4.0878

> <Gold.PLP.part.nonpolar>
-29.0723

> <Gold.PLP.part.repulsive>
1.8919

> <Gold.PLP.ligand.clash>
0.0000

> <Gold.PLP.ligand.torsion>
0.9057

> <Gold.PLP.Chemscore.Hbond>
1.8897

> <Gold.PLP.Chemscore.CHOScore>
1.8474

> <Gold.PLP.Chemscore.Metal>
0.0000

> <Gold.Chemscore.Hbonds>
donor molecule, donor type, donor heavy atom, donor atom, acceptor molecule, acceptor atom, score
      L1  H    11    38       P1  7948  1.00
      L1  H    14    39       P1  7948  0.65
      L1  C    16    40       P1 10747  0.95
      L1  C    19    41       P1 10186  0.81

> <Gold.PLP.Chemscore.Internal.Correction>
0.0485

> <Gold.Rescore>
     Score         DG    S(hbond)    S(metal)    S(lipo)     H(rot)  DE(clash)    DE(int)     intcor
     14.19     -16.20       1.89        0.00      76.96       1.80       0.05       1.97       ----

> <Gold.Chemscore.Fitness>
14.1869

> <Gold.Chemscore.DG>
-16.2032

> <Gold.Chemscore.ZeroCoef>
-5.4800

> <Gold.Chemscore.Hbond>
1.8913

> <Gold.Chemscore.Metal>
0.0000

> <Gold.Chemscore.Lipo>
76.9645

> <Gold.Chemscore.Internal_Hbond>
0.0000

> <Gold.Chemscore.DEClash>
0.0500

> <Gold.Chemscore.DEInternal>
1.9663

> <Gold.Chemscore.Rot>
1.7963

> <Gold.Chemscore.Internal.Correction>
   9.000000E+99

> <Gold.Chemscore.Hbonds>
donor molecule, donor type, donor heavy atom, donor atom, acceptor molecule, acceptor atom, score
      L1  H    11    38       P1  7948  1.00
      L1  H    14    39       P1  7948  0.51

> <Gold.Chemscore.Hbond.Weighted>
-6.3168

> <Gold.Chemscore.Metal.Weighted>
-0.0000

> <Gold.Chemscore.Lipo.Weighted>
-9.0048

> <Gold.Chemscore.Internal_Hbond.Weighted>
0.0000

> <Gold.Chemscore.DEClash.Weighted>
0.0500

> <Gold.Chemscore.DEInternal.Weighted>
1.9663

> <Gold.Chemscore.Rot.Weighted>
4.5985

> <Gold.Chemscore.Internal.Correction.Weighted>
   9.000000E+99

> <Gold.Protein.RotatedTorsions>
[ 6907 6896 6895 6894 ] final   90.38 input  -60.11 | X-H torsion
[ 7974 7965 7964 7962 ] final  147.15 input  175.53 | X-H torsion
[ 8008 7997 7996 7995 ] final  -36.39 input   59.86 | X-H torsion
[ 10167 10162 10161 10158 ] final  -50.60 input  -65.29 | X-H torsion
[ 10718 10713 10712 10709 ] final   51.18 input   66.30 | X-H torsion
[ 10763 10752 10751 10750 ] final  -69.45 input  -60.55 | X-H torsion
[ 11005 11000 10999 10996 ] final -126.07 input  -57.11 | X-H torsion

> <Gold.Protein.ActiveResidues>
 VAL166  LYS551  ARG553  GLY616  TRP617  ASP618  TYR619  PRO620  LYS621  CYS622 
 ASP623  PHE694  ASN695  SER759  ASP760  ASP761  ALA762  ILE779  LEU786  VAL792 
 PHE793  MET794  SER795  GLU796  ALA797  LYS798  CYS799  TRP800  GLU811  SER814 

> <Gold.Protein.RotatedAtoms>
  152.5444  134.1820  159.8639 H   0  0  0  0  0  0  0  0  0  0  0  0  # atno 6907 bound_to 6896
  151.1822  133.4711  159.2601 H   0  0  0  0  0  0  0  0  0  0  0  0  # atno 6908 bound_to 6896
  151.1167  135.0068  159.8574 H   0  0  0  0  0  0  0  0  0  0  0  0  # atno 6909 bound_to 6896
  144.8614  139.5992  143.5928 H   0  0  0  0  0  0  0  0  0  0  0  0  # atno 7974 bound_to 7965
  154.4074  140.1632  156.2367 H   0  0  0  0  0  0  0  0  0  0  0  0  # atno 8008 bound_to 7997
  155.9236  140.3419  155.6170 H   0  0  0  0  0  0  0  0  0  0  0  0  # atno 8009 bound_to 7997
  155.7192  140.0766  157.2329 H   0  0  0  0  0  0  0  0  0  0  0  0  # atno 8010 bound_to 7997
  140.6630  143.2651  151.4383 H   0  0  0  0  0  0  0  0  0  0  0  0  # atno 10167 bound_to 10162
  157.4956  130.8404  149.8254 H   0  0  0  0  0  0  0  0  0  0  0  0  # atno 10718 bound_to 10713
  154.4036  135.6025  153.5911 H   0  0  0  0  0  0  0  0  0  0  0  0  # atno 10763 bound_to 10752
  152.9788  135.5912  154.4155 H   0  0  0  0  0  0  0  0  0  0  0  0  # atno 10764 bound_to 10752
  154.3957  135.2842  155.2106 H   0  0  0  0  0  0  0  0  0  0  0  0  # atno 10765 bound_to 10752
  140.9711  134.0804  157.3868 H   0  0  0  0  0  0  0  0  0  0  0  0  # atno 11005 bound_to 11000
  146.2863  139.7015  142.9193 LP  0  0  0  0  0  0  0  0  0  0  0  0  # atno 17320 bound_to 7965
  145.4304  141.0414  143.2914 LP  0  0  0  0  0  0  0  0  0  0  0  0  # atno 17321 bound_to 7965
  139.5869  144.1585  152.2040 LP  0  0  0  0  0  0  0  0  0  0  0  0  # atno 17342 bound_to 10162
  140.0927  144.5607  150.7043 LP  0  0  0  0  0  0  0  0  0  0  0  0  # atno 17343 bound_to 10162
  156.0199  130.3799  150.1995 LP  0  0  0  0  0  0  0  0  0  0  0  0  # atno 17370 bound_to 10713
  157.0185  130.9972  151.3346 LP  0  0  0  0  0  0  0  0  0  0  0  0  # atno 17371 bound_to 10713
  139.8913  135.0117  156.6782 LP  0  0  0  0  0  0  0  0  0  0  0  0  # atno 17394 bound_to 11000
  140.7327  133.9045  155.8222 LP  0  0  0  0  0  0  0  0  0  0  0  0  # atno 17395 bound_to 11000

$$$$
