AV-unprocessed.smi:21|AV-procd|sdf|163|dock3
  -GOLD-   2262015403D 1   1.00000     0.00000
 Structure written by MMmdl.
 61 64  0  0  0  0  0  0  0  0  1 V2000
  146.9609  141.9343  155.9922 C   0  0  0  0  0  0  0  0  0  0  0  0
  147.5765  140.7158  155.6062 O   0  0  0  0  0  0  0  0  0  0  0  0
  148.8688  140.8884  155.0418 C   0  0  1  0  0  0  0  0  0  0  0  0
  149.9037  141.1605  156.1452 C   0  0  0  0  0  0  0  0  0  0  0  0
  150.8825  139.9781  156.0612 C   0  0  2  0  0  0  0  0  0  0  0  0
  152.3093  140.3203  156.5420 C   0  0  0  0  0  0  0  0  0  0  0  0
  152.5008  140.0443  157.9689 N   0  0  0  0  0  0  0  0  0  0  0  0
  152.4835  141.1788  158.8842 C   0  0  0  0  0  0  0  0  0  0  0  0
  152.9305  138.8213  158.3983 C   0  0  0  0  0  0  0  0  0  0  0  0
  152.8033  137.7607  157.5558 N   0  0  0  0  0  0  0  0  0  0  0  0
  153.2043  136.5398  157.9161 C   0  0  0  0  0  0  0  0  0  0  0  0
  153.7543  136.1505  159.0652 N   0  0  0  0  0  0  0  0  0  0  0  0
  153.8871  137.1990  159.9251 C   0  0  0  0  0  0  0  0  0  0  0  0
  153.5077  138.5526  159.6800 C   0  0  0  0  0  0  0  0  0  0  0  0
  153.8143  139.3211  160.8002 N   0  0  0  0  0  0  0  0  0  0  0  0
  154.3348  138.4784  161.6485 C   0  0  0  0  0  0  0  0  0  0  0  0
  154.4212  137.1819  161.2017 N   0  0  0  0  0  0  0  0  0  0  0  0
  154.9539  136.0470  161.9364 C   0  0  0  0  0  0  0  0  0  0  0  0
  154.2696  135.8247  163.3091 C   0  0  2  0  0  0  0  0  0  0  0  0
  154.5439  137.0101  164.2706 C   0  0  0  0  0  0  0  0  0  0  0  0
  153.7982  136.9000  165.4648 O   0  0  0  0  0  0  0  0  0  0  0  0
  154.7094  134.4614  163.9114 C   0  0  1  0  0  0  0  0  0  0  0  0
  153.8496  133.9297  165.0457 C   0  0  0  0  0  0  0  0  0  0  0  0
  154.2305  132.4547  165.0808 C   0  0  0  0  0  0  0  0  0  0  0  0
  154.5027  132.1016  163.7307 O   0  0  0  0  0  0  0  0  0  0  0  0
  154.6338  133.2776  162.9382 C   0  0  0  0  0  0  0  0  0  0  0  0
  150.7988  139.5331  154.6793 N   0  0  0  0  0  0  0  0  0  0  0  0
  151.3412  138.1995  154.4551 C   0  0  0  0  0  0  0  0  0  0  0  0
  149.3826  139.6030  154.3788 C   0  0  0  0  0  0  0  0  0  0  0  0
  148.8748  141.7199  154.3344 H   0  0  0  0  0  0  0  0  0  0  0  0
  150.4868  139.1827  156.6958 H   0  0  0  0  0  0  0  0  0  0  0  0
  145.9826  141.7267  156.4256 H   0  0  0  0  0  0  0  0  0  0  0  0
  146.8135  142.5981  155.1398 H   0  0  0  0  0  0  0  0  0  0  0  0
  147.5556  142.4560  156.7431 H   0  0  0  0  0  0  0  0  0  0  0  0
  150.4134  142.1012  155.9348 H   0  0  0  0  0  0  0  0  0  0  0  0
  149.4553  141.2436  157.1360 H   0  0  0  0  0  0  0  0  0  0  0  0
  153.0322  139.7087  156.0028 H   0  0  0  0  0  0  0  0  0  0  0  0
  152.5609  141.3465  156.2755 H   0  0  0  0  0  0  0  0  0  0  0  0
  151.9230  140.9401  159.7884 H   0  0  0  0  0  0  0  0  0  0  0  0
  152.0077  142.0445  158.4229 H   0  0  0  0  0  0  0  0  0  0  0  0
  153.4985  141.4668  159.1596 H   0  0  0  0  0  0  0  0  0  0  0  0
  153.0641  135.7650  157.1770 H   0  0  0  0  0  0  0  0  0  0  0  0
  154.6757  138.7816  162.6279 H   0  0  0  0  0  0  0  0  0  0  0  0
  154.8357  135.1719  161.2975 H   0  0  0  0  0  0  0  0  0  0  0  0
  156.0273  136.1857  162.0696 H   0  0  0  0  0  0  0  0  0  0  0  0
  153.1944  135.7851  163.1270 H   0  0  0  0  0  0  0  0  0  0  0  0
  155.6064  137.0810  164.5057 H   0  0  0  0  0  0  0  0  0  0  0  0
  154.2583  137.9628  163.8273 H   0  0  0  0  0  0  0  0  0  0  0  0
  154.3748  137.0634  166.1957 H   0  0  0  0  0  0  0  0  0  0  0  0
  155.7362  134.5435  164.2723 H   0  0  0  0  0  0  0  0  0  0  0  0
  154.0374  134.4237  165.9990 H   0  0  0  0  0  0  0  0  0  0  0  0
  152.7909  134.0366  164.8054 H   0  0  0  0  0  0  0  0  0  0  0  0
  155.1380  132.3103  165.6681 H   0  0  0  0  0  0  0  0  0  0  0  0
  153.4461  131.8298  165.5083 H   0  0  0  0  0  0  0  0  0  0  0  0
  153.7521  133.3566  162.3005 H   0  0  0  0  0  0  0  0  0  0  0  0
  155.5107  133.2118  162.2937 H   0  0  0  0  0  0  0  0  0  0  0  0
  151.1941  137.8960  153.4181 H   0  0  0  0  0  0  0  0  0  0  0  0
  150.8567  137.4614  155.0956 H   0  0  0  0  0  0  0  0  0  0  0  0
  152.4121  138.1730  154.6549 H   0  0  0  0  0  0  0  0  0  0  0  0
  148.8713  138.7428  154.8150 H   0  0  0  0  0  0  0  0  0  0  0  0
  149.1981  139.5869  153.3041 H   0  0  0  0  0  0  0  0  0  0  0  0
  1  2  1  0  0  0  0
  1 32  1  0  0  0  0
  1 33  1  0  0  0  0
  1 34  1  0  0  0  0
  2  3  1  0  0  0  0
  3 30  1  0  0  0  0
  3 29  1  0  0  0  0
  3  4  1  0  0  0  0
  4  5  1  0  0  0  0
  4 35  1  0  0  0  0
  4 36  1  0  0  0  0
  5 31  1  0  0  0  0
  5  6  1  0  0  0  0
  5 27  1  0  0  0  0
  6  7  1  0  0  0  0
  6 37  1  0  0  0  0
  6 38  1  0  0  0  0
  7  8  1  0  0  0  0
  7  9  1  0  0  0  0
  8 39  1  0  0  0  0
  8 40  1  0  0  0  0
  8 41  1  0  0  0  0
  9 14  1  0  0  0  0
  9 10  2  0  0  0  0
 10 11  1  0  0  0  0
 11 12  2  0  0  0  0
 11 42  1  0  0  0  0
 12 13  1  0  0  0  0
 13 17  1  0  0  0  0
 13 14  2  0  0  0  0
 14 15  1  0  0  0  0
 15 16  2  0  0  0  0
 16 17  1  0  0  0  0
 16 43  1  0  0  0  0
 17 18  1  0  0  0  0
 18 19  1  0  0  0  0
 18 44  1  0  0  0  0
 18 45  1  0  0  0  0
 19 20  1  0  0  0  0
 19 22  1  0  0  0  0
 19 46  1  0  0  0  0
 20 21  1  0  0  0  0
 20 47  1  0  0  0  0
 20 48  1  0  0  0  0
 21 49  1  0  0  0  0
 22 26  1  0  0  0  0
 22 23  1  0  0  0  0
 22 50  1  0  0  0  0
 23 24  1  0  0  0  0
 23 51  1  0  0  0  0
 23 52  1  0  0  0  0
 24 25  1  0  0  0  0
 24 53  1  0  0  0  0
 24 54  1  0  0  0  0
 25 26  1  0  0  0  0
 26 55  1  0  0  0  0
 26 56  1  0  0  0  0
 27 28  1  0  0  0  0
 27 29  1  0  0  0  0
 28 57  1  0  0  0  0
 28 58  1  0  0  0  0
 28 59  1  0  0  0  0
 29 60  1  0  0  0  0
 29 61  1  0  0  0  0
M  END
> <s_m_source_file>
AV-unprocessed.smi

> <i_m_source_file_index>
21

> <i_lp_mmshare_version>
43012

> <i_f3d_flags>
0

> <s_epik_input>
W0NIM11PW0NASF0xW0NIMl1bQ0BIXShOKFtDSDNdKVtDSDJdMSlbQ0gyXU4oW0NIM10pYyhuW2NIXW4yKWMoYzIzKW5bY0hdbjNbQ0gyXVtDQEhdKFtDSDJdW09IXSlbQ0BASF00W0NIMl1bQ0gyXU9bQ0gyXTQ=

> <s_epik_cmdline>
J2VwaWtfcHl0aG9uJywgJy1waCcsICc3LjAnLCAnLXRuJywgJzgnLCAnLW1hJywgJzIwMCcsICctbWV0YWxfYmluZGluZycsICctaW1hZScsICc8aW5maWxlLm1hZT4nLCAnLW9tYWUnLCAnPG91dGZpbGUubWFlPic=

> <r_lp_tautomer_probability>
1

> <r_epik_Ionization_Penalty>
2.17574

> <r_epik_Ionization_Penalty_Charging>
0

> <r_epik_Ionization_Penalty_Neutral>
2.17574

> <r_epik_State_Penalty>
2.31336

> <r_epik_Charging_Adjusted_Penalty>
2.31336

> <i_epik_Tot_Q>
0

> <i_epik_Tot_abs_Q>
0

> <r_epik_Metal_State_Penalty>
2.31025

> <b_epik_Metal_Only>
0

> <s_lp_Force_Field>
OPLS_2005

> <r_lp_Energy>
69.6605

> <b_lp_Chiralities_Consistent>
1

> <s_lp_Variant>
AV-unprocessed.smi:21-43

> <Gold.Version>
5.8.1

> <Gold.Id.Protein>
6NUR|6NUR_protein|mol2

> <Gold.PLP.Fitness>
49.4123

> <Gold.PLP.PLP>
-45.2543

> <Gold.PLP.part.hbond>
-4.4540

> <Gold.PLP.part.metal>
0.0000

> <Gold.PLP.part.buried>
-4.1594

> <Gold.PLP.part.nonpolar>
-37.1337

> <Gold.PLP.part.repulsive>
0.1304

> <Gold.PLP.ligand.clash>
0.0000

> <Gold.PLP.ligand.torsion>
1.1151

> <Gold.PLP.Chemscore.Hbond>
1.9082

> <Gold.PLP.Chemscore.CHOScore>
0.0000

> <Gold.PLP.Chemscore.Metal>
0.0000

> <Gold.Chemscore.Hbonds>
donor molecule, donor type, donor heavy atom, donor atom, acceptor molecule, acceptor atom, score
      P1  H  6896  6908       L1    12  0.67
      P1  H  7989  7998       L1    27  1.00

> <Gold.PLP.Chemscore.Internal.Correction>
0.6636

> <Gold.Rescore>
     Score         DG    S(hbond)    S(metal)    S(lipo)     H(rot)  DE(clash)    DE(int)     intcor
      5.85     -10.52       0.28        0.00     100.78       3.00       1.48       3.19       ----

> <Gold.Chemscore.Fitness>
5.8536

> <Gold.Chemscore.DG>
-10.5214

> <Gold.Chemscore.ZeroCoef>
-5.4800

> <Gold.Chemscore.Hbond>
0.2808

> <Gold.Chemscore.Metal>
0.0000

> <Gold.Chemscore.Lipo>
100.7819

> <Gold.Chemscore.Internal_Hbond>
0.0000

> <Gold.Chemscore.DEClash>
1.4768

> <Gold.Chemscore.DEInternal>
3.1910

> <Gold.Chemscore.Rot>
3.0031

> <Gold.Chemscore.Internal.Correction>
   9.000000E+99

> <Gold.Chemscore.Hbonds>
donor molecule, donor type, donor heavy atom, donor atom, acceptor molecule, acceptor atom, score
      P1  H  6896  6908       L1    12  0.21
      P1  H  7989  7998       L1    27  0.29

> <Gold.Chemscore.Hbond.Weighted>
-0.9379

> <Gold.Chemscore.Metal.Weighted>
-0.0000

> <Gold.Chemscore.Lipo.Weighted>
-11.7915

> <Gold.Chemscore.Internal_Hbond.Weighted>
0.0000

> <Gold.Chemscore.DEClash.Weighted>
1.4768

> <Gold.Chemscore.DEInternal.Weighted>
3.1910

> <Gold.Chemscore.Rot.Weighted>
7.6880

> <Gold.Chemscore.Internal.Correction.Weighted>
   9.000000E+99

> <Gold.Protein.RotatedTorsions>
[ 6907 6896 6895 6894 ] final  -68.29 input  -60.11 | X-H torsion
[ 7974 7965 7964 7962 ] final   41.71 input  175.53 | X-H torsion
[ 8008 7997 7996 7995 ] final  -93.47 input   59.86 | X-H torsion
[ 10167 10162 10161 10158 ] final  146.77 input  -65.29 | X-H torsion
[ 10718 10713 10712 10709 ] final  -94.41 input   66.30 | X-H torsion
[ 10763 10752 10751 10750 ] final   35.61 input  -60.55 | X-H torsion
[ 11005 11000 10999 10996 ] final  -50.39 input  -57.11 | X-H torsion

> <Gold.Protein.ActiveResidues>
 VAL166  LYS551  ARG553  GLY616  TRP617  ASP618  TYR619  PRO620  LYS621  CYS622 
 ASP623  PHE694  ASN695  SER759  ASP760  ASP761  ALA762  ILE779  LEU786  VAL792 
 PHE793  MET794  SER795  GLU796  ALA797  LYS798  CYS799  TRP800  GLU811  SER814 

> <Gold.Protein.RotatedAtoms>
  150.7364  134.5759  159.5913 H   0  0  0  0  0  0  0  0  0  0  0  0  # atno 6907 bound_to 6896
  152.3186  134.7406  160.0328 H   0  0  0  0  0  0  0  0  0  0  0  0  # atno 6908 bound_to 6896
  151.7929  133.3325  159.3541 H   0  0  0  0  0  0  0  0  0  0  0  0  # atno 6909 bound_to 6896
  146.0801  139.5385  142.9542 H   0  0  0  0  0  0  0  0  0  0  0  0  # atno 7974 bound_to 7965
  154.7361  140.0498  157.0769 H   0  0  0  0  0  0  0  0  0  0  0  0  # atno 8008 bound_to 7997
  155.0239  140.3150  155.4764 H   0  0  0  0  0  0  0  0  0  0  0  0  # atno 8009 bound_to 7997
  156.2853  140.2162  156.5358 H   0  0  0  0  0  0  0  0  0  0  0  0  # atno 8010 bound_to 7997
  139.4901  144.5805  151.6881 H   0  0  0  0  0  0  0  0  0  0  0  0  # atno 10167 bound_to 10162
  156.0027  130.5067  150.5923 H   0  0  0  0  0  0  0  0  0  0  0  0  # atno 10718 bound_to 10713
  153.0112  135.6328  154.1854 H   0  0  0  0  0  0  0  0  0  0  0  0  # atno 10763 bound_to 10752
  154.1596  135.2824  155.3114 H   0  0  0  0  0  0  0  0  0  0  0  0  # atno 10764 bound_to 10752
  154.5992  135.5593  153.7417 H   0  0  0  0  0  0  0  0  0  0  0  0  # atno 10765 bound_to 10752
  141.0813  133.6652  156.3725 H   0  0  0  0  0  0  0  0  0  0  0  0  # atno 11005 bound_to 11000
  145.6233  141.0318  143.1903 LP  0  0  0  0  0  0  0  0  0  0  0  0  # atno 17320 bound_to 7965
  144.7288  139.7792  143.7355 LP  0  0  0  0  0  0  0  0  0  0  0  0  # atno 17321 bound_to 7965
  140.5410  144.0579  150.6088 LP  0  0  0  0  0  0  0  0  0  0  0  0  # atno 17342 bound_to 10162
  140.3601  143.2913  152.0393 LP  0  0  0  0  0  0  0  0  0  0  0  0  # atno 17343 bound_to 10162
  157.3786  131.0777  151.1497 LP  0  0  0  0  0  0  0  0  0  0  0  0  # atno 17370 bound_to 10713
  157.2227  130.6488  149.5817 LP  0  0  0  0  0  0  0  0  0  0  0  0  # atno 17371 bound_to 10713
  140.5461  134.6073  157.5394 LP  0  0  0  0  0  0  0  0  0  0  0  0  # atno 17394 bound_to 11000
  139.9627  134.7424  156.0202 LP  0  0  0  0  0  0  0  0  0  0  0  0  # atno 17395 bound_to 11000

$$$$
