AV-unprocessed.smi:447|AV-procd|sdf|2597|dock9
  -GOLD-   2262022593D 1   1.00000     0.00000
 Structure written by MMmdl.
 45 47  0  0  0  0  0  0  0  0  1 V2000
  153.0013  138.3786  154.8273 C   0  0  0  0  0  0  0  0  0  0  0  0
  152.7441  138.0396  156.2914 C   0  0  0  0  0  0  0  0  0  0  0  0
  152.8474  136.8778  156.6822 O   0  0  0  0  0  0  0  0  0  0  0  0
  152.4114  139.0675  157.0872 N   0  0  0  0  0  0  0  0  0  0  0  0
  152.1389  138.9825  158.5225 C   0  0  2  0  0  0  0  0  0  0  0  0
  151.1459  137.8434  158.7899 C   0  0  0  0  0  0  0  0  0  0  0  0
  151.6136  140.3105  159.0146 C   0  0  0  0  0  0  0  0  0  0  0  0
  152.1706  140.9697  160.0360 N   0  0  0  0  0  0  0  0  0  0  0  0
  151.3990  142.1100  160.1271 C   0  0  0  0  0  0  0  0  0  0  0  0
  151.4740  143.2007  161.0227 C   0  0  0  0  0  0  0  0  0  0  0  0
  150.5645  144.2735  160.9181 C   0  0  0  0  0  0  0  0  0  0  0  0
  149.5710  144.2717  159.9175 C   0  0  0  0  0  0  0  0  0  0  0  0
  149.4810  143.1952  159.0142 C   0  0  0  0  0  0  0  0  0  0  0  0
  150.3896  142.1255  159.1253 C   0  0  0  0  0  0  0  0  0  0  0  0
  150.5718  140.9444  158.4135 N   0  0  0  0  0  0  0  0  0  0  0  0
  149.7860  140.5245  157.2595 C   0  0  0  0  0  0  0  0  0  0  0  0
  150.2034  141.2394  155.9591 C   0  0  2  0  0  0  0  0  0  0  0  0
  150.0179  142.6347  156.0896 O   0  0  0  0  0  0  0  0  0  0  0  0
  149.4631  140.6723  154.7582 C   0  0  0  0  0  0  0  0  0  0  0  0
  148.6016  141.4989  154.0050 C   0  0  0  0  0  0  0  0  0  0  0  0
  147.9192  140.9808  152.8867 C   0  0  0  0  0  0  0  0  0  0  0  0
  148.0959  139.6344  152.5144 C   0  0  0  0  0  0  0  0  0  0  0  0
  148.9573  138.8062  153.2593 C   0  0  0  0  0  0  0  0  0  0  0  0
  149.6401  139.3237  154.3771 C   0  0  0  0  0  0  0  0  0  0  0  0
  153.6979  139.2135  154.7434 H   0  0  0  0  0  0  0  0  0  0  0  0
  152.0692  138.6530  154.3323 H   0  0  0  0  0  0  0  0  0  0  0  0
  153.4294  137.5244  154.3012 H   0  0  0  0  0  0  0  0  0  0  0  0
  152.3618  139.9866  156.6726 H   0  0  0  0  0  0  0  0  0  0  0  0
  153.0761  138.7485  159.0279 H   0  0  0  0  0  0  0  0  0  0  0  0
  150.9424  137.7437  159.8564 H   0  0  0  0  0  0  0  0  0  0  0  0
  151.5397  136.8891  158.4394 H   0  0  0  0  0  0  0  0  0  0  0  0
  150.1946  138.0186  158.2860 H   0  0  0  0  0  0  0  0  0  0  0  0
  152.2323  143.2115  161.7915 H   0  0  0  0  0  0  0  0  0  0  0  0
  150.6304  145.1019  161.6081 H   0  0  0  0  0  0  0  0  0  0  0  0
  148.8787  145.0976  159.8436 H   0  0  0  0  0  0  0  0  0  0  0  0
  148.7218  143.1907  158.2462 H   0  0  0  0  0  0  0  0  0  0  0  0
  149.9167  139.4480  157.1417 H   0  0  0  0  0  0  0  0  0  0  0  0
  148.7254  140.6696  157.4610 H   0  0  0  0  0  0  0  0  0  0  0  0
  151.2721  141.0858  155.8034 H   0  0  0  0  0  0  0  0  0  0  0  0
  149.7970  142.9895  155.2421 H   0  0  0  0  0  0  0  0  0  0  0  0
  148.4615  142.5337  154.2813 H   0  0  0  0  0  0  0  0  0  0  0  0
  147.2606  141.6171  152.3138 H   0  0  0  0  0  0  0  0  0  0  0  0
  147.5730  139.2373  151.6567 H   0  0  0  0  0  0  0  0  0  0  0  0
  149.0954  137.7739  152.9728 H   0  0  0  0  0  0  0  0  0  0  0  0
  150.3022  138.6820  154.9402 H   0  0  0  0  0  0  0  0  0  0  0  0
  1  2  1  0  0  0  0
  1 25  1  0  0  0  0
  1 26  1  0  0  0  0
  1 27  1  0  0  0  0
  2  3  2  0  0  0  0
  2  4  1  0  0  0  0
  4  5  1  0  0  0  0
  4 28  1  0  0  0  0
  5  6  1  0  0  0  0
  5  7  1  0  0  0  0
  5 29  1  0  0  0  0
  6 30  1  0  0  0  0
  6 31  1  0  0  0  0
  6 32  1  0  0  0  0
  7 15  1  0  0  0  0
  7  8  2  0  0  0  0
  8  9  1  0  0  0  0
  9 14  2  0  0  0  0
  9 10  1  0  0  0  0
 10 11  2  0  0  0  0
 10 33  1  0  0  0  0
 11 12  1  0  0  0  0
 11 34  1  0  0  0  0
 12 13  2  0  0  0  0
 12 35  1  0  0  0  0
 13 14  1  0  0  0  0
 13 36  1  0  0  0  0
 14 15  1  0  0  0  0
 15 16  1  0  0  0  0
 16 17  1  0  0  0  0
 16 37  1  0  0  0  0
 16 38  1  0  0  0  0
 17 18  1  0  0  0  0
 17 19  1  0  0  0  0
 17 39  1  0  0  0  0
 18 40  1  0  0  0  0
 19 24  1  0  0  0  0
 19 20  2  0  0  0  0
 20 21  1  0  0  0  0
 20 41  1  0  0  0  0
 21 22  2  0  0  0  0
 21 42  1  0  0  0  0
 22 23  1  0  0  0  0
 22 43  1  0  0  0  0
 23 24  2  0  0  0  0
 23 44  1  0  0  0  0
 24 45  1  0  0  0  0
M  END
> <s_m_source_file>
AV-unprocessed.smi

> <i_m_source_file_index>
447

> <i_lp_mmshare_version>
43012

> <i_f3d_flags>
0

> <s_epik_input>
W0NIM11DKD1PKVtOSF1bQ0BIXShbQ0gzXSljKG4xKW4oYyhjMTIpW2NIXVtjSF1bY0hdW2NIXTIpW0NIMl1bQ0BIXShbT0hdKWMzW2NIXVtjSF1bY0hdW2NIXVtjSF0z

> <s_epik_cmdline>
J2VwaWtfcHl0aG9uJywgJy1waCcsICc3LjAnLCAnLXRuJywgJzgnLCAnLW1hJywgJzIwMCcsICctbWV0YWxfYmluZGluZycsICctaW1hZScsICc8aW5maWxlLm1hZT4nLCAnLW9tYWUnLCAnPG91dGZpbGUubWFlPic=

> <r_epik_Ionization_Penalty>
0.13301

> <r_epik_Ionization_Penalty_Charging>
0

> <r_epik_Ionization_Penalty_Neutral>
0.13301

> <r_epik_State_Penalty>
0.122384

> <r_epik_Charging_Adjusted_Penalty>
0.122384

> <i_epik_Tot_Q>
0

> <i_epik_Tot_abs_Q>
0

> <r_epik_Metal_State_Penalty>
0.0997374

> <b_epik_Metal_Only>
0

> <s_lp_Force_Field>
OPLS_2005

> <r_lp_Energy>
7.61604

> <b_lp_Chiralities_Consistent>
1

> <s_lp_Variant>
AV-unprocessed.smi:447-1

> <Gold.Version>
5.8.1

> <Gold.Id.Protein>
6NUR|6NUR_protein|mol2

> <Gold.PLP.Fitness>
50.8439

> <Gold.PLP.PLP>
-48.2083

> <Gold.PLP.part.hbond>
-1.5315

> <Gold.PLP.part.metal>
0.0000

> <Gold.PLP.part.buried>
-7.0327

> <Gold.PLP.part.nonpolar>
-40.0153

> <Gold.PLP.part.repulsive>
0.1217

> <Gold.PLP.ligand.clash>
0.0000

> <Gold.PLP.ligand.torsion>
0.5201

> <Gold.PLP.Chemscore.Hbond>
1.2080

> <Gold.PLP.Chemscore.CHOScore>
0.0000

> <Gold.PLP.Chemscore.Metal>
0.0000

> <Gold.Chemscore.Hbonds>
donor molecule, donor type, donor heavy atom, donor atom, acceptor molecule, acceptor atom, score
      L1  H    18    40       P1  8028  0.10
      P1  H 10752 10763       L1     3  0.37

> <Gold.PLP.Chemscore.Internal.Correction>
0.0519

> <Gold.Rescore>
     Score         DG    S(hbond)    S(metal)    S(lipo)     H(rot)  DE(clash)    DE(int)     intcor
     16.57     -17.70       1.40        0.00     115.90       2.35       0.01       1.12       ----

> <Gold.Chemscore.Fitness>
16.5653

> <Gold.Chemscore.DG>
-17.7033

> <Gold.Chemscore.ZeroCoef>
-5.4800

> <Gold.Chemscore.Hbond>
1.4029

> <Gold.Chemscore.Metal>
0.0000

> <Gold.Chemscore.Lipo>
115.9042

> <Gold.Chemscore.Internal_Hbond>
0.0000

> <Gold.Chemscore.DEClash>
0.0149

> <Gold.Chemscore.DEInternal>
1.1231

> <Gold.Chemscore.Rot>
2.3528

> <Gold.Chemscore.Internal.Correction>
   9.000000E+99

> <Gold.Chemscore.Hbonds>
donor molecule, donor type, donor heavy atom, donor atom, acceptor molecule, acceptor atom, score
      L1  H    18    40       P1  8028  0.12
      P1  H 10752 10763       L1     3  0.28

> <Gold.Chemscore.Hbond.Weighted>
-4.6856

> <Gold.Chemscore.Metal.Weighted>
-0.0000

> <Gold.Chemscore.Lipo.Weighted>
-13.5608

> <Gold.Chemscore.Internal_Hbond.Weighted>
0.0000

> <Gold.Chemscore.DEClash.Weighted>
0.0149

> <Gold.Chemscore.DEInternal.Weighted>
1.1231

> <Gold.Chemscore.Rot.Weighted>
6.0231

> <Gold.Chemscore.Internal.Correction.Weighted>
   9.000000E+99

> <Gold.Protein.RotatedTorsions>
[ 6907 6896 6895 6894 ] final -154.35 input  -60.11 | X-H torsion
[ 7974 7965 7964 7962 ] final -174.65 input  175.53 | X-H torsion
[ 8008 7997 7996 7995 ] final  -56.44 input   59.86 | X-H torsion
[ 10167 10162 10161 10158 ] final  -87.43 input  -65.29 | X-H torsion
[ 10718 10713 10712 10709 ] final -152.42 input   66.30 | X-H torsion
[ 10763 10752 10751 10750 ] final   80.34 input  -60.55 | X-H torsion
[ 11005 11000 10999 10996 ] final   39.09 input  -57.11 | X-H torsion

> <Gold.Protein.ActiveResidues>
 VAL166  LYS551  ARG553  GLY616  TRP617  ASP618  TYR619  PRO620  LYS621  CYS622 
 ASP623  PHE694  ASN695  SER759  ASP760  ASP761  ALA762  ILE779  LEU786  VAL792 
 PHE793  MET794  SER795  GLU796  ALA797  LYS798  CYS799  TRP800  GLU811  SER814 

> <Gold.Protein.RotatedAtoms>
  151.2561  133.4325  159.2613 H   0  0  0  0  0  0  0  0  0  0  0  0  # atno 6907 bound_to 6896
  151.0573  134.9713  159.8252 H   0  0  0  0  0  0  0  0  0  0  0  0  # atno 6908 bound_to 6896
  152.5392  134.2513  159.8952 H   0  0  0  0  0  0  0  0  0  0  0  0  # atno 6909 bound_to 6896
  144.7131  140.1440  143.6389 H   0  0  0  0  0  0  0  0  0  0  0  0  # atno 7974 bound_to 7965
  154.4230  140.1129  156.5638 H   0  0  0  0  0  0  0  0  0  0  0  0  # atno 8008 bound_to 7997
  155.6283  140.3495  155.4655 H   0  0  0  0  0  0  0  0  0  0  0  0  # atno 8009 bound_to 7997
  155.9968  140.1191  157.0575 H   0  0  0  0  0  0  0  0  0  0  0  0  # atno 8010 bound_to 7997
  140.3845  143.2733  151.9342 H   0  0  0  0  0  0  0  0  0  0  0  0  # atno 10167 bound_to 10162
  156.4722  130.8264  151.2493 H   0  0  0  0  0  0  0  0  0  0  0  0  # atno 10718 bound_to 10713
  153.1026  135.4806  154.8894 H   0  0  0  0  0  0  0  0  0  0  0  0  # atno 10763 bound_to 10752
  154.7395  135.3079  154.8755 H   0  0  0  0  0  0  0  0  0  0  0  0  # atno 10764 bound_to 10752
  153.9367  135.6838  153.4798 H   0  0  0  0  0  0  0  0  0  0  0  0  # atno 10765 bound_to 10752
  140.2062  134.3811  155.8071 H   0  0  0  0  0  0  0  0  0  0  0  0  # atno 11005 bound_to 11000
  145.9176  139.2526  143.1400 LP  0  0  0  0  0  0  0  0  0  0  0  0  # atno 17320 bound_to 7965
  145.9653  140.8804  143.0190 LP  0  0  0  0  0  0  0  0  0  0  0  0  # atno 17321 bound_to 7965
  139.4793  144.5786  151.7969 LP  0  0  0  0  0  0  0  0  0  0  0  0  # atno 17342 bound_to 10162
  140.4903  144.1320  150.5949 LP  0  0  0  0  0  0  0  0  0  0  0  0  # atno 17343 bound_to 10162
  157.7490  131.0072  150.3182 LP  0  0  0  0  0  0  0  0  0  0  0  0  # atno 17370 bound_to 10713
  156.3606  130.3846  149.7254 LP  0  0  0  0  0  0  0  0  0  0  0  0  # atno 17371 bound_to 10713
  141.2227  133.7119  156.8341 LP  0  0  0  0  0  0  0  0  0  0  0  0  # atno 17394 bound_to 11000
  140.2000  134.8904  157.3158 LP  0  0  0  0  0  0  0  0  0  0  0  0  # atno 17395 bound_to 11000

$$$$
