AV-unprocessed.smi:1709|AV-procd|sdf|6896|dock7
  -GOLD-   22720 8103D 1   1.00000     0.00000
 Structure written by MMmdl.
 43 45  0  0  0  0  0  0  0  0  2 V2000
  151.1202  140.3475  157.6796 C   0  0  0  0  0  0  0  0  0  0  0  0
  151.5758  141.7274  158.1271 C   0  0  0  0  0  0  0  0  0  0  0  0
  152.3767  141.8445  159.2831 C   0  0  0  0  0  0  0  0  0  0  0  0
  152.8004  143.1178  159.6984 C   0  0  0  0  0  0  0  0  0  0  0  0
  152.4025  144.2274  158.9349 C   0  0  0  0  0  0  0  0  0  0  0  0
  151.6379  144.1241  157.8284 N   0  0  0  0  0  0  0  0  0  0  0  0
  151.2177  142.9019  157.4111 C   0  0  0  0  0  0  0  0  0  0  0  0
  150.4090  142.6985  156.2495 N   0  0  0  0  0  0  0  0  0  0  0  0
  149.2391  142.0493  156.0669 C   0  0  0  0  0  0  0  0  0  0  0  0
  148.6739  141.4857  157.0025 O   0  0  0  0  0  0  0  0  0  0  0  0
  148.7438  142.0518  154.8190 N   0  0  0  0  0  0  0  0  0  0  0  0
  147.5197  141.3870  154.3867 C   0  0  1  0  0  0  0  0  0  0  0  0
  147.5061  139.8850  154.7218 C   0  0  0  0  0  0  0  0  0  0  0  0
  146.0575  139.5733  155.1463 C   0  0  0  0  0  0  0  0  0  0  0  0
  145.3105  140.8285  154.9386 N   0  3  1  0  0  0  0  0  0  0  0  0
  144.0792  141.0197  155.7357 C   0  0  0  0  0  0  0  0  0  0  0  0
  143.4040  142.3419  155.3194 C   0  0  0  0  0  0  0  0  0  0  0  0
  144.3810  143.5329  155.3975 C   0  0  0  0  0  0  0  0  0  0  0  0
  145.6819  143.2372  154.6264 C   0  0  0  0  0  0  0  0  0  0  0  0
  146.2860  141.9132  155.1239 C   0  0  2  0  0  0  0  0  0  0  0  0
  151.5009  139.5693  158.3417 H   0  0  0  0  0  0  0  0  0  0  0  0
  151.4786  140.1339  156.6721 H   0  0  0  0  0  0  0  0  0  0  0  0
  150.0315  140.2857  157.6816 H   0  0  0  0  0  0  0  0  0  0  0  0
  152.6657  140.9699  159.8472 H   0  0  0  0  0  0  0  0  0  0  0  0
  153.4143  143.2397  160.5785 H   0  0  0  0  0  0  0  0  0  0  0  0
  152.7059  145.2245  159.2177 H   0  0  0  0  0  0  0  0  0  0  0  0
  150.7627  143.1511  155.4192 H   0  0  0  0  0  0  0  0  0  0  0  0
  149.2719  142.5433  154.1109 H   0  0  0  0  0  0  0  0  0  0  0  0
  147.3784  141.5005  153.3097 H   0  0  0  0  0  0  0  0  0  0  0  0
  147.8143  139.2889  153.8622 H   0  0  0  0  0  0  0  0  0  0  0  0
  148.1880  139.6523  155.5416 H   0  0  0  0  0  0  0  0  0  0  0  0
  145.6186  138.7615  154.5660 H   0  0  0  0  0  0  0  0  0  0  0  0
  146.0301  139.2905  156.1999 H   0  0  0  0  0  0  0  0  0  0  0  0
  143.4013  140.1819  155.5693 H   0  0  0  0  0  0  0  0  0  0  0  0
  144.3226  141.0329  156.7992 H   0  0  0  0  0  0  0  0  0  0  0  0
  143.0319  142.2500  154.2980 H   0  0  0  0  0  0  0  0  0  0  0  0
  142.5331  142.5311  155.9475 H   0  0  0  0  0  0  0  0  0  0  0  0
  143.9082  144.4340  155.0056 H   0  0  0  0  0  0  0  0  0  0  0  0
  144.6181  143.7386  156.4420 H   0  0  0  0  0  0  0  0  0  0  0  0
  145.4764  143.1792  153.5566 H   0  0  0  0  0  0  0  0  0  0  0  0
  146.3890  144.0550  154.7660 H   0  0  0  0  0  0  0  0  0  0  0  0
  146.5145  141.9966  156.1893 H   0  0  0  0  0  0  0  0  0  0  0  0
  145.0459  140.8474  153.9640 H   0  0  0  0  0  0  0  0  0  0  0  0
  1  2  1  0  0  0  0
  1 21  1  0  0  0  0
  1 22  1  0  0  0  0
  1 23  1  0  0  0  0
  2  7  1  0  0  0  0
  2  3  2  0  0  0  0
  3  4  1  0  0  0  0
  3 24  1  0  0  0  0
  4  5  2  0  0  0  0
  4 25  1  0  0  0  0
  5  6  1  0  0  0  0
  5 26  1  0  0  0  0
  6  7  2  0  0  0  0
  7  8  1  0  0  0  0
  8  9  1  0  0  0  0
  8 27  1  0  0  0  0
  9 10  2  0  0  0  0
  9 11  1  0  0  0  0
 11 12  1  0  0  0  0
 11 28  1  0  0  0  0
 12 20  1  0  0  0  0
 12 13  1  0  0  0  0
 12 29  1  0  0  0  0
 13 14  1  0  0  0  0
 13 30  1  0  0  0  0
 13 31  1  0  0  0  0
 14 15  1  0  0  0  0
 14 32  1  0  0  0  0
 14 33  1  0  0  0  0
 15 20  1  0  0  0  0
 15 16  1  0  0  0  0
 15 43  1  0  0  0  0
 16 17  1  0  0  0  0
 16 34  1  0  0  0  0
 16 35  1  0  0  0  0
 17 18  1  0  0  0  0
 17 36  1  0  0  0  0
 17 37  1  0  0  0  0
 18 19  1  0  0  0  0
 18 38  1  0  0  0  0
 18 39  1  0  0  0  0
 19 20  1  0  0  0  0
 19 40  1  0  0  0  0
 19 41  1  0  0  0  0
 20 42  1  0  0  0  0
M  CHG  1  15   1
M  END
> <s_m_source_file>
AV-unprocessed.smi

> <i_m_source_file_index>
1709

> <i_lp_mmshare_version>
43012

> <i_f3d_flags>
0

> <s_epik_input>
W0NIM11jMVtjSF1bY0hdW2NIXW5jMVtOSF1DKD1PKVtOSF1bQ0BIXShbQ0gyXVtDSDJdMilbQ0BASF0oTjIzKVtDSDJdW0NIMl1bQ0gyXVtDSDJdMw==

> <s_epik_cmdline>
J2VwaWtfcHl0aG9uJywgJy1waCcsICc3LjAnLCAnLXRuJywgJzgnLCAnLW1hJywgJzIwMCcsICctbWV0YWxfYmluZGluZycsICctaW1hZScsICc8aW5maWxlLm1hZT4nLCAnLW9tYWUnLCAnPG91dGZpbGUubWFlPic=

> <r_epik_Ionization_Penalty>
0.00101524

> <r_epik_Ionization_Penalty_Charging>
0.000974069

> <r_epik_Ionization_Penalty_Neutral>
4.11757e-05

> <r_epik_State_Penalty>
0.000633842

> <r_epik_Charging_Adjusted_Penalty>
0.00160791

> <i_epik_Tot_Q>
1

> <i_epik_Tot_abs_Q>
1

> <r_epik_Metal_State_Penalty>
-0

> <b_epik_Metal_Only>
0

> <s_lp_Force_Field>
OPLS_2005

> <r_lp_Energy>
38.4546

> <b_lp_Chiralities_Consistent>
1

> <s_lp_Variant>
AV-unprocessed.smi:1709-6

> <Gold.Version>
5.8.1

> <Gold.Id.Protein>
6NUR|6NUR_protein|mol2

> <Gold.PLP.Fitness>
37.1968

> <Gold.PLP.PLP>
-32.2262

> <Gold.PLP.part.hbond>
-3.0000

> <Gold.PLP.part.metal>
0.0000

> <Gold.PLP.part.buried>
-3.5944

> <Gold.PLP.part.nonpolar>
-27.0494

> <Gold.PLP.part.repulsive>
0.5303

> <Gold.PLP.ligand.clash>
0.0000

> <Gold.PLP.ligand.torsion>
0.4933

> <Gold.PLP.Chemscore.Hbond>
1.9825

> <Gold.PLP.Chemscore.CHOScore>
0.0000

> <Gold.PLP.Chemscore.Metal>
0.0000

> <Gold.Chemscore.Hbonds>
donor molecule, donor type, donor heavy atom, donor atom, acceptor molecule, acceptor atom, score
      L1  H    15    43       P1 10175  1.95

> <Gold.PLP.Chemscore.Internal.Correction>
0.0096

> <Gold.Rescore>
     Score         DG    S(hbond)    S(metal)    S(lipo)     H(rot)  DE(clash)    DE(int)     intcor
     11.89     -14.98       0.90        0.00      77.31       1.00       1.35       1.73       ----

> <Gold.Chemscore.Fitness>
11.8916

> <Gold.Chemscore.DG>
-14.9766

> <Gold.Chemscore.ZeroCoef>
-5.4800

> <Gold.Chemscore.Hbond>
0.9016

> <Gold.Chemscore.Metal>
0.0000

> <Gold.Chemscore.Lipo>
77.3090

> <Gold.Chemscore.Internal_Hbond>
0.0000

> <Gold.Chemscore.DEClash>
1.3523

> <Gold.Chemscore.DEInternal>
1.7327

> <Gold.Chemscore.Rot>
1.0000

> <Gold.Chemscore.Internal.Correction>
   9.000000E+99

> <Gold.Chemscore.Hbonds>
donor molecule, donor type, donor heavy atom, donor atom, acceptor molecule, acceptor atom, score
      L1  H    15    43       P1 10175  0.81

> <Gold.Chemscore.Hbond.Weighted>
-3.0115

> <Gold.Chemscore.Metal.Weighted>
-0.0000

> <Gold.Chemscore.Lipo.Weighted>
-9.0452

> <Gold.Chemscore.Internal_Hbond.Weighted>
0.0000

> <Gold.Chemscore.DEClash.Weighted>
1.3523

> <Gold.Chemscore.DEInternal.Weighted>
1.7327

> <Gold.Chemscore.Rot.Weighted>
2.5600

> <Gold.Chemscore.Internal.Correction.Weighted>
   9.000000E+99

> <Gold.Protein.RotatedTorsions>
[ 6907 6896 6895 6894 ] final -138.29 input  -60.11 | X-H torsion
[ 7974 7965 7964 7962 ] final  -95.15 input  175.53 | X-H torsion
[ 8008 7997 7996 7995 ] final    5.32 input   59.86 | X-H torsion
[ 10167 10162 10161 10158 ] final  -55.69 input  -65.29 | X-H torsion
[ 10718 10713 10712 10709 ] final  -26.34 input   66.30 | X-H torsion
[ 10763 10752 10751 10750 ] final  151.25 input  -60.55 | X-H torsion
[ 11005 11000 10999 10996 ] final -102.85 input  -57.11 | X-H torsion

> <Gold.Protein.ActiveResidues>
 VAL166  LYS551  ARG553  GLY616  TRP617  ASP618  TYR619  PRO620  LYS621  CYS622 
 ASP623  PHE694  ASN695  SER759  ASP760  ASP761  ALA762  ILE779  LEU786  VAL792 
 PHE793  MET794  SER795  GLU796  ALA797  LYS798  CYS799  TRP800  GLU811  SER814 

> <Gold.Protein.RotatedAtoms>
  151.0332  133.5772  159.2658 H   0  0  0  0  0  0  0  0  0  0  0  0  # atno 6907 bound_to 6896
  151.2846  135.0723  159.9192 H   0  0  0  0  0  0  0  0  0  0  0  0  # atno 6908 bound_to 6896
  152.5349  134.0040  159.7962 H   0  0  0  0  0  0  0  0  0  0  0  0  # atno 6909 bound_to 6896
  145.3638  140.9495  143.2485 H   0  0  0  0  0  0  0  0  0  0  0  0  # atno 7974 bound_to 7965
  154.7269  140.2723  155.6491 H   0  0  0  0  0  0  0  0  0  0  0  0  # atno 8008 bound_to 7997
  156.2839  140.2723  156.1882 H   0  0  0  0  0  0  0  0  0  0  0  0  # atno 8009 bound_to 7997
  155.0433  140.0371  157.2507 H   0  0  0  0  0  0  0  0  0  0  0  0  # atno 8010 bound_to 7997
  140.6360  143.2483  151.5116 H   0  0  0  0  0  0  0  0  0  0  0  0  # atno 10167 bound_to 10162
  156.4525  130.4487  149.6981 H   0  0  0  0  0  0  0  0  0  0  0  0  # atno 10718 bound_to 10713
  154.1008  135.2846  155.3252 H   0  0  0  0  0  0  0  0  0  0  0  0  # atno 10763 bound_to 10752
  154.6557  135.5353  153.7959 H   0  0  0  0  0  0  0  0  0  0  0  0  # atno 10764 bound_to 10752
  153.0380  135.6521  154.1171 H   0  0  0  0  0  0  0  0  0  0  0  0  # atno 10765 bound_to 10752
  141.1171  133.8592  157.1412 H   0  0  0  0  0  0  0  0  0  0  0  0  # atno 11005 bound_to 11000
  144.8626  139.5154  143.6805 LP  0  0  0  0  0  0  0  0  0  0  0  0  # atno 17320 bound_to 7965
  146.2915  139.7154  142.9157 LP  0  0  0  0  0  0  0  0  0  0  0  0  # atno 17321 bound_to 7965
  139.5571  144.2249  152.1630 LP  0  0  0  0  0  0  0  0  0  0  0  0  # atno 17342 bound_to 10162
  140.1506  144.5118  150.6690 LP  0  0  0  0  0  0  0  0  0  0  0  0  # atno 17343 bound_to 10162
  156.3801  130.7575  151.2567 LP  0  0  0  0  0  0  0  0  0  0  0  0  # atno 17370 bound_to 10713
  157.7502  131.0298  150.4109 LP  0  0  0  0  0  0  0  0  0  0  0  0  # atno 17371 bound_to 10713
  140.0101  134.9991  157.0377 LP  0  0  0  0  0  0  0  0  0  0  0  0  # atno 17394 bound_to 11000
  140.4614  134.1480  155.7192 LP  0  0  0  0  0  0  0  0  0  0  0  0  # atno 17395 bound_to 11000

$$$$
