AV-unprocessed.smi:1445|AV-procd|sdf|5885|dock2
  -GOLD-   22720 5563D 1   1.00000     0.00000
 Structure written by MMmdl.
 46 47  0  0  0  0  0  0  0  0  2 V2000
  151.9085  138.1755  154.5208 C   0  0  0  0  0  0  0  0  0  0  0  0
  150.5320  138.2399  154.1636 O   0  0  0  0  0  0  0  0  0  0  0  0
  149.8442  139.4163  154.3946 C   0  0  0  0  0  0  0  0  0  0  0  0
  150.5038  140.4425  154.9885 N   0  0  0  0  0  0  0  0  0  0  0  0
  149.8335  141.5898  155.2189 C   0  0  0  0  0  0  0  0  0  0  0  0
  148.4809  141.7723  154.8789 C   0  0  0  0  0  0  0  0  0  0  0  0
  147.7946  140.7097  154.2630 C   0  0  0  0  0  0  0  0  0  0  0  0
  148.4877  139.5021  154.0014 C   0  0  0  0  0  0  0  0  0  0  0  0
  147.8954  138.3570  153.3974 N   0  0  0  0  0  0  0  0  0  0  0  0
  146.6182  137.9408  153.4365 C   0  0  0  0  0  0  0  0  0  0  0  0
  145.6955  138.5095  154.0195 O   0  0  0  0  0  0  0  0  0  0  0  0
  146.4559  136.8109  152.7333 N   0  0  0  0  0  0  0  0  0  0  0  0
  145.1952  136.0923  152.5866 C   0  0  0  0  0  0  0  0  0  0  0  0
  144.9703  135.6249  151.1353 C   0  0  0  0  0  0  0  0  0  0  0  0
  144.5174  134.2129  151.0623 N   0  3  1  0  0  0  0  0  0  0  0  0
  144.1797  133.8018  149.6750 C   0  0  0  0  0  0  0  0  0  0  0  0
  143.5807  132.3869  149.6469 C   0  0  0  0  0  0  0  0  0  0  0  0
  144.5320  131.3751  150.2975 C   0  0  0  0  0  0  0  0  0  0  0  0
  144.8967  131.8263  151.7217 C   0  0  1  0  0  0  0  0  0  0  0  0
  145.8704  130.8440  152.3881 C   0  0  0  0  0  0  0  0  0  0  0  0
  145.4659  133.2594  151.6991 C   0  0  0  0  0  0  0  0  0  0  0  0
  152.2977  137.1874  154.2756 H   0  0  0  0  0  0  0  0  0  0  0  0
  152.0509  138.3303  155.5914 H   0  0  0  0  0  0  0  0  0  0  0  0
  152.4991  138.9092  153.9703 H   0  0  0  0  0  0  0  0  0  0  0  0
  150.3904  142.3844  155.6933 H   0  0  0  0  0  0  0  0  0  0  0  0
  147.9798  142.7056  155.0895 H   0  0  0  0  0  0  0  0  0  0  0  0
  146.7528  140.8431  154.0191 H   0  0  0  0  0  0  0  0  0  0  0  0
  148.5196  137.8112  152.8212 H   0  0  0  0  0  0  0  0  0  0  0  0
  147.2654  136.4124  152.2800 H   0  0  0  0  0  0  0  0  0  0  0  0
  145.2271  135.2435  153.2683 H   0  0  0  0  0  0  0  0  0  0  0  0
  144.3691  136.7249  152.9163 H   0  0  0  0  0  0  0  0  0  0  0  0
  144.2094  136.2632  150.6842 H   0  0  0  0  0  0  0  0  0  0  0  0
  145.8738  135.7574  150.5381 H   0  0  0  0  0  0  0  0  0  0  0  0
  143.4595  134.5000  149.2466 H   0  0  0  0  0  0  0  0  0  0  0  0
  145.0746  133.8456  149.0518 H   0  0  0  0  0  0  0  0  0  0  0  0
  142.6244  132.3825  150.1720 H   0  0  0  0  0  0  0  0  0  0  0  0
  143.3701  132.0915  148.6187 H   0  0  0  0  0  0  0  0  0  0  0  0
  144.0659  130.3893  150.3194 H   0  0  0  0  0  0  0  0  0  0  0  0
  145.4352  131.2804  149.6929 H   0  0  0  0  0  0  0  0  0  0  0  0
  143.9823  131.8361  152.3173 H   0  0  0  0  0  0  0  0  0  0  0  0
  146.8126  130.7867  151.8423 H   0  0  0  0  0  0  0  0  0  0  0  0
  145.4482  129.8395  152.4281 H   0  0  0  0  0  0  0  0  0  0  0  0
  146.0960  131.1462  153.4112 H   0  0  0  0  0  0  0  0  0  0  0  0
  146.4156  133.2797  151.1615 H   0  0  0  0  0  0  0  0  0  0  0  0
  145.6780  133.5710  152.7212 H   0  0  0  0  0  0  0  0  0  0  0  0
  143.6544  134.1646  151.5847 H   0  0  0  0  0  0  0  0  0  0  0  0
  1  2  1  0  0  0  0
  1 22  1  0  0  0  0
  1 23  1  0  0  0  0
  1 24  1  0  0  0  0
  2  3  1  0  0  0  0
  3  8  1  0  0  0  0
  3  4  2  0  0  0  0
  4  5  1  0  0  0  0
  5  6  2  0  0  0  0
  5 25  1  0  0  0  0
  6  7  1  0  0  0  0
  6 26  1  0  0  0  0
  7  8  2  0  0  0  0
  7 27  1  0  0  0  0
  8  9  1  0  0  0  0
  9 10  1  0  0  0  0
  9 28  1  0  0  0  0
 10 11  2  0  0  0  0
 10 12  1  0  0  0  0
 12 13  1  0  0  0  0
 12 29  1  0  0  0  0
 13 14  1  0  0  0  0
 13 30  1  0  0  0  0
 13 31  1  0  0  0  0
 14 15  1  0  0  0  0
 14 32  1  0  0  0  0
 14 33  1  0  0  0  0
 15 21  1  0  0  0  0
 15 16  1  0  0  0  0
 15 46  1  0  0  0  0
 16 17  1  0  0  0  0
 16 34  1  0  0  0  0
 16 35  1  0  0  0  0
 17 18  1  0  0  0  0
 17 36  1  0  0  0  0
 17 37  1  0  0  0  0
 18 19  1  0  0  0  0
 18 38  1  0  0  0  0
 18 39  1  0  0  0  0
 19 20  1  0  0  0  0
 19 21  1  0  0  0  0
 19 40  1  0  0  0  0
 20 41  1  0  0  0  0
 20 42  1  0  0  0  0
 20 43  1  0  0  0  0
 21 44  1  0  0  0  0
 21 45  1  0  0  0  0
M  CHG  1  15   1
M  END
> <s_m_source_file>
AV-unprocessed.smi

> <i_m_source_file_index>
1445

> <i_lp_mmshare_version>
43012

> <i_f3d_flags>
0

> <s_epik_input>
W0NIM11PYzFuW2NIXVtjSF1bY0hdYzFbTkhdQyg9TylbTkhdW0NIMl1bQ0gyXU4yW0NIMl1bQ0gyXVtDSDJdW0NAQEhdKFtDSDNdKVtDSDJdMg==

> <s_epik_cmdline>
J2VwaWtfcHl0aG9uJywgJy1waCcsICc3LjAnLCAnLXRuJywgJzgnLCAnLW1hJywgJzIwMCcsICctbWV0YWxfYmluZGluZycsICctaW1hZScsICc8aW5maWxlLm1hZT4nLCAnLW9tYWUnLCAnPG91dGZpbGUubWFlPic=

> <r_lp_tautomer_probability>
1

> <r_epik_Ionization_Penalty>
0.00179544

> <r_epik_Ionization_Penalty_Charging>
0.00171832

> <r_epik_Ionization_Penalty_Neutral>
7.71118e-05

> <r_epik_State_Penalty>
0.0011618

> <r_epik_Charging_Adjusted_Penalty>
0.00288012

> <i_epik_Tot_Q>
1

> <i_epik_Tot_abs_Q>
1

> <r_epik_Metal_State_Penalty>
-0

> <b_epik_Metal_Only>
0

> <s_lp_Force_Field>
OPLS_2005

> <r_lp_Energy>
18.8564

> <b_lp_Chiralities_Consistent>
1

> <s_lp_Variant>
AV-unprocessed.smi:1445-1

> <Gold.Version>
5.8.1

> <Gold.Id.Protein>
6NUR|6NUR_protein|mol2

> <Gold.PLP.Fitness>
43.2528

> <Gold.PLP.PLP>
-34.6829

> <Gold.PLP.part.hbond>
-3.4534

> <Gold.PLP.part.metal>
0.0000

> <Gold.PLP.part.buried>
0.8201

> <Gold.PLP.part.nonpolar>
-32.9152

> <Gold.PLP.part.repulsive>
0.8243

> <Gold.PLP.ligand.clash>
0.0000

> <Gold.PLP.ligand.torsion>
0.6377

> <Gold.PLP.Chemscore.Hbond>
2.7936

> <Gold.PLP.Chemscore.CHOScore>
0.4691

> <Gold.PLP.Chemscore.Metal>
0.0000

> <Gold.Chemscore.Hbonds>
donor molecule, donor type, donor heavy atom, donor atom, acceptor molecule, acceptor atom, score
      L1  H     9    28       P1  7948  1.00
      L1  H    12    29       P1  7948  1.00
      P1  H  7989  7998       L1     4  0.85
      L1  C     5    25       P1  8028  0.23

> <Gold.PLP.Chemscore.Internal.Correction>
0.0572

> <Gold.Rescore>
     Score         DG    S(hbond)    S(metal)    S(lipo)     H(rot)  DE(clash)    DE(int)     intcor
     15.29     -19.34       1.91        0.00     101.55       1.71       2.49       1.56       ----

> <Gold.Chemscore.Fitness>
15.2923

> <Gold.Chemscore.DG>
-19.3441

> <Gold.Chemscore.ZeroCoef>
-5.4800

> <Gold.Chemscore.Hbond>
1.9050

> <Gold.Chemscore.Metal>
0.0000

> <Gold.Chemscore.Lipo>
101.5451

> <Gold.Chemscore.Internal_Hbond>
0.0000

> <Gold.Chemscore.DEClash>
2.4878

> <Gold.Chemscore.DEInternal>
1.5641

> <Gold.Chemscore.Rot>
1.7107

> <Gold.Chemscore.Internal.Correction>
   9.000000E+99

> <Gold.Chemscore.Hbonds>
donor molecule, donor type, donor heavy atom, donor atom, acceptor molecule, acceptor atom, score
      L1  H     9    28       P1  7948  0.97
      L1  H    12    29       P1  7948  0.99
      P1  H  7989  7998       L1     4  0.06

> <Gold.Chemscore.Hbond.Weighted>
-6.3628

> <Gold.Chemscore.Metal.Weighted>
-0.0000

> <Gold.Chemscore.Lipo.Weighted>
-11.8808

> <Gold.Chemscore.Internal_Hbond.Weighted>
0.0000

> <Gold.Chemscore.DEClash.Weighted>
2.4878

> <Gold.Chemscore.DEInternal.Weighted>
1.5641

> <Gold.Chemscore.Rot.Weighted>
4.3794

> <Gold.Chemscore.Internal.Correction.Weighted>
   9.000000E+99

> <Gold.Protein.RotatedTorsions>
[ 6907 6896 6895 6894 ] final   71.04 input  -60.11 | X-H torsion
[ 7974 7965 7964 7962 ] final   65.44 input  175.53 | X-H torsion
[ 8008 7997 7996 7995 ] final  121.56 input   59.86 | X-H torsion
[ 10167 10162 10161 10158 ] final -117.92 input  -65.29 | X-H torsion
[ 10718 10713 10712 10709 ] final   83.79 input   66.30 | X-H torsion
[ 10763 10752 10751 10750 ] final  140.41 input  -60.55 | X-H torsion
[ 11005 11000 10999 10996 ] final   -3.64 input  -57.11 | X-H torsion

> <Gold.Protein.ActiveResidues>
 VAL166  LYS551  ARG553  GLY616  TRP617  ASP618  TYR619  PRO620  LYS621  CYS622 
 ASP623  PHE694  ASN695  SER759  ASP760  ASP761  ALA762  ILE779  LEU786  VAL792 
 PHE793  MET794  SER795  GLU796  ALA797  LYS798  CYS799  TRP800  GLU811  SER814 

> <Gold.Protein.RotatedAtoms>
  152.4786  134.4780  159.9656 H   0  0  0  0  0  0  0  0  0  0  0  0  # atno 6907 bound_to 6896
  151.4790  133.3545  159.2843 H   0  0  0  0  0  0  0  0  0  0  0  0  # atno 6908 bound_to 6896
  150.8841  134.8263  159.7308 H   0  0  0  0  0  0  0  0  0  0  0  0  # atno 6909 bound_to 6896
  145.8385  139.3181  143.0945 H   0  0  0  0  0  0  0  0  0  0  0  0  # atno 7974 bound_to 7965
  156.2691  140.2805  156.1327 H   0  0  0  0  0  0  0  0  0  0  0  0  # atno 8008 bound_to 7997
  155.1037  140.0390  157.2722 H   0  0  0  0  0  0  0  0  0  0  0  0  # atno 8009 bound_to 7997
  154.6796  140.2605  155.6928 H   0  0  0  0  0  0  0  0  0  0  0  0  # atno 8010 bound_to 7997
  140.0631  143.4948  152.2021 H   0  0  0  0  0  0  0  0  0  0  0  0  # atno 10167 bound_to 10162
  157.6886  131.0106  150.2576 H   0  0  0  0  0  0  0  0  0  0  0  0  # atno 10718 bound_to 10713
  153.9223  135.2999  155.3447 H   0  0  0  0  0  0  0  0  0  0  0  0  # atno 10763 bound_to 10752
  154.7569  135.4953  153.9394 H   0  0  0  0  0  0  0  0  0  0  0  0  # atno 10764 bound_to 10752
  153.1135  135.6765  153.9562 H   0  0  0  0  0  0  0  0  0  0  0  0  # atno 10765 bound_to 10752
  140.6716  133.9232  155.8498 H   0  0  0  0  0  0  0  0  0  0  0  0  # atno 11005 bound_to 11000
  145.9492  140.8921  143.0268 LP  0  0  0  0  0  0  0  0  0  0  0  0  # atno 17320 bound_to 7965
  144.6735  140.1656  143.7418 LP  0  0  0  0  0  0  0  0  0  0  0  0  # atno 17321 bound_to 7965
  139.5881  144.7539  151.3468 LP  0  0  0  0  0  0  0  0  0  0  0  0  # atno 17342 bound_to 10162
  140.7162  143.7260  150.7660 LP  0  0  0  0  0  0  0  0  0  0  0  0  # atno 17343 bound_to 10162
  156.3162  130.3779  149.7617 LP  0  0  0  0  0  0  0  0  0  0  0  0  # atno 17370 bound_to 10713
  156.5202  130.8211  151.3200 LP  0  0  0  0  0  0  0  0  0  0  0  0  # atno 17371 bound_to 10713
  141.0388  134.0651  157.3927 LP  0  0  0  0  0  0  0  0  0  0  0  0  # atno 17394 bound_to 11000
  139.8980  135.0152  156.7126 LP  0  0  0  0  0  0  0  0  0  0  0  0  # atno 17395 bound_to 11000

$$$$
