AV-unprocessed.smi:2951|AV-procd|sdf|11290|dock6
  -GOLD-   2272016183D 1   1.00000     0.00000
 Structure written by MMmdl.
 17 17  0  0  0  0  0  0  0  0  1 V2000
  150.4191  138.0876  153.5463 N   0  0  0  0  0  0  0  0  0  0  0  0
  151.2706  137.5585  154.4292 C   0  0  0  0  0  0  0  0  0  0  0  0
  151.2428  136.3690  154.7383 O   0  0  0  0  0  0  0  0  0  0  0  0
  152.3029  138.4981  155.0548 C   0  0  0  0  0  0  0  0  0  0  0  0
  151.6222  139.7033  155.6361 C   0  0  0  0  0  0  0  0  0  0  0  0
  151.8430  140.2569  156.8745 C   0  0  0  0  0  0  0  0  0  0  0  0
  150.8384  141.6533  157.1555 S   0  0  0  0  0  0  0  0  0  0  0  0
  150.1515  141.4293  155.5542 C   0  0  0  0  0  0  0  0  0  0  0  0
  149.1755  142.2766  155.0591 N   0  0  0  0  0  0  0  0  0  0  0  0
  150.6550  140.3878  154.8906 N   0  0  0  0  0  0  0  0  0  0  0  0
  149.7172  137.5037  153.1150 H   0  0  0  0  0  0  0  0  0  0  0  0
  150.4748  139.0699  153.3181 H   0  0  0  0  0  0  0  0  0  0  0  0
  152.8521  137.9601  155.8285 H   0  0  0  0  0  0  0  0  0  0  0  0
  153.0386  138.7874  154.3031 H   0  0  0  0  0  0  0  0  0  0  0  0
  152.5315  139.9247  157.6375 H   0  0  0  0  0  0  0  0  0  0  0  0
  148.8273  143.0517  155.6046 H   0  0  0  0  0  0  0  0  0  0  0  0
  148.8461  142.2000  154.1077 H   0  0  0  0  0  0  0  0  0  0  0  0
  1  2  1  0  0  0  0
  1 11  1  0  0  0  0
  1 12  1  0  0  0  0
  2  3  2  0  0  0  0
  2  4  1  0  0  0  0
  4  5  1  0  0  0  0
  4 13  1  0  0  0  0
  4 14  1  0  0  0  0
  5 10  1  0  0  0  0
  5  6  2  0  0  0  0
  6  7  1  0  0  0  0
  6 15  1  0  0  0  0
  7  8  1  0  0  0  0
  8  9  1  0  0  0  0
  8 10  2  0  0  0  0
  9 16  1  0  0  0  0
  9 17  1  0  0  0  0
M  END
> <s_m_source_file>
AV-unprocessed.smi

> <i_m_source_file_index>
2951

> <i_lp_mmshare_version>
43012

> <i_f3d_flags>
0

> <s_epik_input>
W05IMl1DKD1PKVtDSDJdYzFbY0hdc2MobjEpW05IMl0=

> <s_epik_cmdline>
J2VwaWtfcHl0aG9uJywgJy1waCcsICc3LjAnLCAnLXRuJywgJzgnLCAnLW1hJywgJzIwMCcsICctbWV0YWxfYmluZGluZycsICctaW1hZScsICc8aW5maWxlLm1hZT4nLCAnLW9tYWUnLCAnPG91dGZpbGUubWFlPic=

> <r_lp_tautomer_probability>
1

> <r_epik_Ionization_Penalty>
0.00145479

> <r_epik_Ionization_Penalty_Charging>
0

> <r_epik_Ionization_Penalty_Neutral>
0.00145479

> <r_epik_State_Penalty>
-0

> <r_epik_Charging_Adjusted_Penalty>
0

> <i_epik_Tot_Q>
0

> <i_epik_Tot_abs_Q>
0

> <r_epik_Metal_State_Penalty>
-0

> <b_epik_Metal_Only>
0

> <s_lp_Force_Field>
OPLS_2005

> <r_lp_Energy>
-0.412786

> <b_lp_Chiralities_Consistent>
1

> <s_lp_Variant>
AV-unprocessed.smi:2951-1

> <Gold.Version>
5.8.1

> <Gold.Id.Protein>
6NUR|6NUR_protein|mol2

> <Gold.PLP.Fitness>
34.1140

> <Gold.PLP.PLP>
-22.9393

> <Gold.PLP.part.hbond>
-5.5151

> <Gold.PLP.part.metal>
0.0000

> <Gold.PLP.part.buried>
-2.3806

> <Gold.PLP.part.nonpolar>
-15.1338

> <Gold.PLP.part.repulsive>
0.5583

> <Gold.PLP.ligand.clash>
0.0000

> <Gold.PLP.ligand.torsion>
0.2087

> <Gold.PLP.Chemscore.Hbond>
3.8640

> <Gold.PLP.Chemscore.CHOScore>
0.0000

> <Gold.PLP.Chemscore.Metal>
0.0000

> <Gold.Chemscore.Hbonds>
donor molecule, donor type, donor heavy atom, donor atom, acceptor molecule, acceptor atom, score
      L1  H     1    11       P1  7948  1.00
      L1  H     9    16       P1  8028  0.82
      P1  H  7989  7998       L1    10  1.00
      P1  H 10752 10764       L1     3  1.00

> <Gold.PLP.Chemscore.Internal.Correction>
0.0001

> <Gold.Rescore>
     Score         DG    S(hbond)    S(metal)    S(lipo)     H(rot)  DE(clash)    DE(int)     intcor
     12.31     -14.42       2.98        0.00      27.60       1.65       0.20       1.91       ----

> <Gold.Chemscore.Fitness>
12.3131

> <Gold.Chemscore.DG>
-14.4241

> <Gold.Chemscore.ZeroCoef>
-5.4800

> <Gold.Chemscore.Hbond>
2.9753

> <Gold.Chemscore.Metal>
0.0000

> <Gold.Chemscore.Lipo>
27.5971

> <Gold.Chemscore.Internal_Hbond>
0.0000

> <Gold.Chemscore.DEClash>
0.2024

> <Gold.Chemscore.DEInternal>
1.9086

> <Gold.Chemscore.Rot>
1.6493

> <Gold.Chemscore.Internal.Correction>
   9.000000E+99

> <Gold.Chemscore.Hbonds>
donor molecule, donor type, donor heavy atom, donor atom, acceptor molecule, acceptor atom, score
      L1  H     1    11       P1  7948  0.59
      L1  H     9    16       P1  8028  0.81
      P1  H  7989  7998       L1    10  0.21
      P1  H 10752 10764       L1     3  0.70

> <Gold.Chemscore.Hbond.Weighted>
-9.9374

> <Gold.Chemscore.Metal.Weighted>
-0.0000

> <Gold.Chemscore.Lipo.Weighted>
-3.2289

> <Gold.Chemscore.Internal_Hbond.Weighted>
0.0000

> <Gold.Chemscore.DEClash.Weighted>
0.2024

> <Gold.Chemscore.DEInternal.Weighted>
1.9086

> <Gold.Chemscore.Rot.Weighted>
4.2222

> <Gold.Chemscore.Internal.Correction.Weighted>
   9.000000E+99

> <Gold.Protein.RotatedTorsions>
[ 6907 6896 6895 6894 ] final    0.14 input  -60.11 | X-H torsion
[ 7974 7965 7964 7962 ] final  -87.62 input  175.53 | X-H torsion
[ 8008 7997 7996 7995 ] final -143.80 input   59.86 | X-H torsion
[ 10167 10162 10161 10158 ] final -174.71 input  -65.29 | X-H torsion
[ 10718 10713 10712 10709 ] final   42.43 input   66.30 | X-H torsion
[ 10763 10752 10751 10750 ] final  -70.44 input  -60.55 | X-H torsion
[ 11005 11000 10999 10996 ] final   27.43 input  -57.11 | X-H torsion

> <Gold.Protein.ActiveResidues>
 VAL166  LYS551  ARG553  GLY616  TRP617  ASP618  TYR619  PRO620  LYS621  CYS622 
 ASP623  PHE694  ASN695  SER759  ASP760  ASP761  ALA762  ILE779  LEU786  VAL792 
 PHE793  MET794  SER795  GLU796  ALA797  LYS798  CYS799  TRP800  GLU811  SER814 

> <Gold.Protein.RotatedAtoms>
  151.5716  135.1062  159.9996 H   0  0  0  0  0  0  0  0  0  0  0  0  # atno 6907 bound_to 6896
  152.4398  133.7423  159.6658 H   0  0  0  0  0  0  0  0  0  0  0  0  # atno 6908 bound_to 6896
  150.8301  133.8036  159.3125 H   0  0  0  0  0  0  0  0  0  0  0  0  # atno 6909 bound_to 6896
  145.4641  140.9560  143.1953 H   0  0  0  0  0  0  0  0  0  0  0  0  # atno 7974 bound_to 7965
  155.5166  140.0588  157.2914 H   0  0  0  0  0  0  0  0  0  0  0  0  # atno 8008 bound_to 7997
  154.4533  140.1960  156.0402 H   0  0  0  0  0  0  0  0  0  0  0  0  # atno 8009 bound_to 7997
  156.0748  140.3255  155.7624 H   0  0  0  0  0  0  0  0  0  0  0  0  # atno 8010 bound_to 7997
  139.5619  144.1848  152.1252 H   0  0  0  0  0  0  0  0  0  0  0  0  # atno 10167 bound_to 10162
  157.4047  130.7880  149.7378 H   0  0  0  0  0  0  0  0  0  0  0  0  # atno 10718 bound_to 10713
  154.4177  135.5994  153.5991 H   0  0  0  0  0  0  0  0  0  0  0  0  # atno 10763 bound_to 10752
  152.9792  135.5945  154.3993 H   0  0  0  0  0  0  0  0  0  0  0  0  # atno 10764 bound_to 10752
  154.3814  135.2841  155.2187 H   0  0  0  0  0  0  0  0  0  0  0  0  # atno 10765 bound_to 10752
  140.3264  134.2486  155.7709 H   0  0  0  0  0  0  0  0  0  0  0  0  # atno 11005 bound_to 11000
  144.7985  139.6188  143.7082 LP  0  0  0  0  0  0  0  0  0  0  0  0  # atno 17320 bound_to 7965
  146.2434  139.6048  142.9476 LP  0  0  0  0  0  0  0  0  0  0  0  0  # atno 17321 bound_to 7965
  140.1364  144.5242  150.6771 LP  0  0  0  0  0  0  0  0  0  0  0  0  # atno 17342 bound_to 10162
  140.6900  143.2370  151.5158 LP  0  0  0  0  0  0  0  0  0  0  0  0  # atno 17343 bound_to 10162
  155.9833  130.4002  150.3370 LP  0  0  0  0  0  0  0  0  0  0  0  0  # atno 17370 bound_to 10713
  157.1502  131.0319  151.2888 LP  0  0  0  0  0  0  0  0  0  0  0  0  # atno 17371 bound_to 10713
  141.2074  133.7806  157.0120 LP  0  0  0  0  0  0  0  0  0  0  0  0  # atno 17394 bound_to 11000
  140.0898  134.9599  157.1758 LP  0  0  0  0  0  0  0  0  0  0  0  0  # atno 17395 bound_to 11000

$$$$
