AV-unprocessed.smi:1870|AV-procd|sdf|7594|dock2
  -GOLD-   22720 9303D 1   1.00000     0.00000
 Structure written by MMmdl.
 48 50  0  0  0  0  0  0  0  0  2 V2000
  146.7042  136.9820  162.6161 C   0  0  0  0  0  0  0  0  0  0  0  0
  147.3254  136.0687  161.5938 C   0  0  0  0  0  0  0  0  0  0  0  0
  147.8846  136.6346  160.5751 N   0  0  0  0  0  0  0  0  0  0  0  0
  148.4822  135.8910  159.5760 N   0  0  0  0  0  0  0  0  0  0  0  0
  149.0780  136.6984  158.5029 C   0  0  0  0  0  0  0  0  0  0  0  0
  150.1507  137.6864  159.0148 C   0  0  1  0  0  0  0  0  0  0  0  0
  151.2495  136.9189  159.4648 O   0  0  0  0  0  0  0  0  0  0  0  0
  150.6356  138.6723  157.9275 C   0  0  0  0  0  0  0  0  0  0  0  0
  151.0043  140.0078  158.4649 N   0  3  1  0  0  0  0  0  0  0  0  0
  152.3517  140.0120  159.0816 C   0  0  0  0  0  0  0  0  0  0  0  0
  152.5494  141.2883  159.9088 C   0  0  0  0  0  0  0  0  0  0  0  0
  152.1903  142.5402  159.1299 C   0  0  0  0  0  0  0  0  0  0  0  0
  152.6505  143.7971  159.5733 C   0  0  0  0  0  0  0  0  0  0  0  0
  152.2932  144.9671  158.8766 C   0  0  0  0  0  0  0  0  0  0  0  0
  151.4729  144.8837  157.7357 C   0  0  0  0  0  0  0  0  0  0  0  0
  151.0100  143.6305  157.2906 C   0  0  0  0  0  0  0  0  0  0  0  0
  151.3638  142.4537  157.9836 C   0  0  0  0  0  0  0  0  0  0  0  0
  150.8660  141.1068  157.4708 C   0  0  0  0  0  0  0  0  0  0  0  0
  148.5268  134.5285  159.5444 C   0  0  0  0  0  0  0  0  0  0  0  0
  149.0545  133.9051  158.6225 O   0  0  0  0  0  0  0  0  0  0  0  0
  147.9004  133.8936  160.7059 C   0  0  0  0  0  0  0  0  0  0  0  0
  147.9382  132.4667  160.7200 C   0  0  0  0  0  0  0  0  0  0  0  0
  147.9713  131.3101  160.7517 N   0  0  0  0  0  0  0  0  0  0  0  0
  147.3249  134.6133  161.7014 C   0  0  0  0  0  0  0  0  0  0  0  0
  146.6598  133.9996  162.9257 C   0  0  0  0  0  0  0  0  0  0  0  0
  145.6718  136.6949  162.8176 H   0  0  0  0  0  0  0  0  0  0  0  0
  146.6946  138.0205  162.2813 H   0  0  0  0  0  0  0  0  0  0  0  0
  147.2566  136.9423  163.5552 H   0  0  0  0  0  0  0  0  0  0  0  0
  149.5118  136.0344  157.7526 H   0  0  0  0  0  0  0  0  0  0  0  0
  148.2962  137.2516  157.9778 H   0  0  0  0  0  0  0  0  0  0  0  0
  149.7481  138.2242  159.8716 H   0  0  0  0  0  0  0  0  0  0  0  0
  151.4860  136.2965  158.7943 H   0  0  0  0  0  0  0  0  0  0  0  0
  151.4958  138.2287  157.4237 H   0  0  0  0  0  0  0  0  0  0  0  0
  149.8728  138.8105  157.1603 H   0  0  0  0  0  0  0  0  0  0  0  0
  152.4836  139.1456  159.7312 H   0  0  0  0  0  0  0  0  0  0  0  0
  153.1084  139.9401  158.2984 H   0  0  0  0  0  0  0  0  0  0  0  0
  151.9223  141.2526  160.8003 H   0  0  0  0  0  0  0  0  0  0  0  0
  153.5829  141.3526  160.2516 H   0  0  0  0  0  0  0  0  0  0  0  0
  153.2741  143.8681  160.4529 H   0  0  0  0  0  0  0  0  0  0  0  0
  152.6462  145.9289  159.2191 H   0  0  0  0  0  0  0  0  0  0  0  0
  151.1992  145.7818  157.2014 H   0  0  0  0  0  0  0  0  0  0  0  0
  150.3843  143.5752  156.4116 H   0  0  0  0  0  0  0  0  0  0  0  0
  151.4258  140.8594  156.5676 H   0  0  0  0  0  0  0  0  0  0  0  0
  149.8216  141.2189  157.1813 H   0  0  0  0  0  0  0  0  0  0  0  0
  146.8506  132.9296  163.0046 H   0  0  0  0  0  0  0  0  0  0  0  0
  145.5798  134.1422  162.8805 H   0  0  0  0  0  0  0  0  0  0  0  0
  147.0300  134.4600  163.8422 H   0  0  0  0  0  0  0  0  0  0  0  0
  150.3577  140.2030  159.2158 H   0  0  0  0  0  0  0  0  0  0  0  0
  1  2  1  0  0  0  0
  1 26  1  0  0  0  0
  1 27  1  0  0  0  0
  1 28  1  0  0  0  0
  2 24  1  0  0  0  0
  2  3  2  0  0  0  0
  3  4  1  0  0  0  0
  4  5  1  0  0  0  0
  4 19  1  0  0  0  0
  5  6  1  0  0  0  0
  5 29  1  0  0  0  0
  5 30  1  0  0  0  0
  6  7  1  0  0  0  0
  6  8  1  0  0  0  0
  6 31  1  0  0  0  0
  7 32  1  0  0  0  0
  8  9  1  0  0  0  0
  8 33  1  0  0  0  0
  8 34  1  0  0  0  0
  9 18  1  0  0  0  0
  9 10  1  0  0  0  0
  9 48  1  0  0  0  0
 10 11  1  0  0  0  0
 10 35  1  0  0  0  0
 10 36  1  0  0  0  0
 11 12  1  0  0  0  0
 11 37  1  0  0  0  0
 11 38  1  0  0  0  0
 12 17  2  0  0  0  0
 12 13  1  0  0  0  0
 13 14  2  0  0  0  0
 13 39  1  0  0  0  0
 14 15  1  0  0  0  0
 14 40  1  0  0  0  0
 15 16  2  0  0  0  0
 15 41  1  0  0  0  0
 16 17  1  0  0  0  0
 16 42  1  0  0  0  0
 17 18  1  0  0  0  0
 18 43  1  0  0  0  0
 18 44  1  0  0  0  0
 19 20  2  0  0  0  0
 19 21  1  0  0  0  0
 21 22  1  0  0  0  0
 21 24  2  0  0  0  0
 22 23  3  0  0  0  0
 24 25  1  0  0  0  0
 25 45  1  0  0  0  0
 25 46  1  0  0  0  0
 25 47  1  0  0  0  0
M  CHG  1   9   1
M  END
> <s_m_source_file>
AV-unprocessed.smi

> <i_m_source_file_index>
1870

> <i_lp_mmshare_version>
43012

> <i_f3d_flags>
0

> <s_epik_input>
TiNDYyhjMVtDSDNdKWMoPU8pbihuYzFbQ0gzXSlbQ0gyXVtDQEhdKFtPSF0pW0NIMl1OKFtDSDJdW0NIMl0yKVtDSDJdYyhjMjMpW2NIXVtjSF1bY0hdW2NIXTM=

> <s_epik_cmdline>
J2VwaWtfcHl0aG9uJywgJy1waCcsICc3LjAnLCAnLXRuJywgJzgnLCAnLW1hJywgJzIwMCcsICctbWV0YWxfYmluZGluZycsICctaW1hZScsICc8aW5maWxlLm1hZT4nLCAnLW9tYWUnLCAnPG91dGZpbGUubWFlPic=

> <r_epik_Ionization_Penalty>
0.0122865

> <r_epik_Ionization_Penalty_Charging>
0.0122864

> <r_epik_Ionization_Penalty_Neutral>
1.48087e-07

> <r_epik_State_Penalty>
0.00950248

> <r_epik_Charging_Adjusted_Penalty>
0.0217889

> <i_epik_Tot_Q>
1

> <i_epik_Tot_abs_Q>
1

> <r_epik_Metal_State_Penalty>
0.00950248

> <b_epik_Metal_Only>
0

> <s_lp_Force_Field>
OPLS_2005

> <r_lp_Energy>
36.9803

> <b_lp_Chiralities_Consistent>
1

> <s_lp_Variant>
AV-unprocessed.smi:1870-2

> <Gold.Version>
5.8.1

> <Gold.Id.Protein>
6NUR|6NUR_protein|mol2

> <Gold.PLP.Fitness>
52.7193

> <Gold.PLP.PLP>
-47.0782

> <Gold.PLP.part.hbond>
-3.9310

> <Gold.PLP.part.metal>
0.0000

> <Gold.PLP.part.buried>
-0.7109

> <Gold.PLP.part.nonpolar>
-42.3100

> <Gold.PLP.part.repulsive>
0.1635

> <Gold.PLP.ligand.clash>
0.0000

> <Gold.PLP.ligand.torsion>
0.7119

> <Gold.PLP.Chemscore.Hbond>
2.3351

> <Gold.PLP.Chemscore.CHOScore>
0.0000

> <Gold.PLP.Chemscore.Metal>
0.0000

> <Gold.Chemscore.Hbonds>
donor molecule, donor type, donor heavy atom, donor atom, acceptor molecule, acceptor atom, score
      P1  H  6896  6909       L1    20  0.55
      P1  H  6931  6943       L1     3  0.08

> <Gold.PLP.Chemscore.Internal.Correction>
0.0596

> <Gold.Rescore>
     Score         DG    S(hbond)    S(metal)    S(lipo)     H(rot)  DE(clash)    DE(int)     intcor
     17.81     -19.03       0.81        0.00     139.92       2.16       0.46       0.76       ----

> <Gold.Chemscore.Fitness>
17.8148

> <Gold.Chemscore.DG>
-19.0345

> <Gold.Chemscore.ZeroCoef>
-5.4800

> <Gold.Chemscore.Hbond>
0.8145

> <Gold.Chemscore.Metal>
0.0000

> <Gold.Chemscore.Lipo>
139.9201

> <Gold.Chemscore.Internal_Hbond>
0.0000

> <Gold.Chemscore.DEClash>
0.4640

> <Gold.Chemscore.DEInternal>
0.7557

> <Gold.Chemscore.Rot>
2.1628

> <Gold.Chemscore.Internal.Correction>
   9.000000E+99

> <Gold.Chemscore.Hbonds>
donor molecule, donor type, donor heavy atom, donor atom, acceptor molecule, acceptor atom, score
      P1  H  6896  6909       L1    20  0.03
      P1  H  6931  6943       L1     3  0.01

> <Gold.Chemscore.Hbond.Weighted>
-2.7206

> <Gold.Chemscore.Metal.Weighted>
-0.0000

> <Gold.Chemscore.Lipo.Weighted>
-16.3706

> <Gold.Chemscore.Internal_Hbond.Weighted>
0.0000

> <Gold.Chemscore.DEClash.Weighted>
0.4640

> <Gold.Chemscore.DEInternal.Weighted>
0.7557

> <Gold.Chemscore.Rot.Weighted>
5.5367

> <Gold.Chemscore.Internal.Correction.Weighted>
   9.000000E+99

> <Gold.Protein.RotatedTorsions>
[ 6907 6896 6895 6894 ] final   19.61 input  -60.11 | X-H torsion
[ 7974 7965 7964 7962 ] final -136.07 input  175.53 | X-H torsion
[ 8008 7997 7996 7995 ] final    0.44 input   59.86 | X-H torsion
[ 10167 10162 10161 10158 ] final -120.17 input  -65.29 | X-H torsion
[ 10718 10713 10712 10709 ] final  179.54 input   66.30 | X-H torsion
[ 10763 10752 10751 10750 ] final  -70.45 input  -60.55 | X-H torsion
[ 11005 11000 10999 10996 ] final  -16.81 input  -57.11 | X-H torsion

> <Gold.Protein.ActiveResidues>
 VAL166  LYS551  ARG553  GLY616  TRP617  ASP618  TYR619  PRO620  LYS621  CYS622 
 ASP623  PHE694  ASN695  SER759  ASP760  ASP761  ALA762  ILE779  LEU786  VAL792 
 PHE793  MET794  SER795  GLU796  ALA797  LYS798  CYS799  TRP800  GLU811  SER814 

> <Gold.Protein.RotatedAtoms>
  151.8836  135.0444  160.0490 H   0  0  0  0  0  0  0  0  0  0  0  0  # atno 6907 bound_to 6896
  152.2493  133.5196  159.5324 H   0  0  0  0  0  0  0  0  0  0  0  0  # atno 6908 bound_to 6896
  150.7078  134.0899  159.3970 H   0  0  0  0  0  0  0  0  0  0  0  0  # atno 6909 bound_to 6896
  144.8959  140.6706  143.5115 H   0  0  0  0  0  0  0  0  0  0  0  0  # atno 7974 bound_to 7965
  154.6682  140.2606  155.7036 H   0  0  0  0  0  0  0  0  0  0  0  0  # atno 8008 bound_to 7997
  156.2647  140.2835  156.1102 H   0  0  0  0  0  0  0  0  0  0  0  0  # atno 8009 bound_to 7997
  155.1208  140.0377  157.2739 H   0  0  0  0  0  0  0  0  0  0  0  0  # atno 8010 bound_to 7997
  140.0387  143.5175  152.2141 H   0  0  0  0  0  0  0  0  0  0  0  0  # atno 10167 bound_to 10162
  156.8742  130.9794  151.3070 H   0  0  0  0  0  0  0  0  0  0  0  0  # atno 10718 bound_to 10713
  154.4178  135.5993  153.5991 H   0  0  0  0  0  0  0  0  0  0  0  0  # atno 10763 bound_to 10752
  152.9792  135.5945  154.3991 H   0  0  0  0  0  0  0  0  0  0  0  0  # atno 10764 bound_to 10752
  154.3813  135.2841  155.2188 H   0  0  0  0  0  0  0  0  0  0  0  0  # atno 10765 bound_to 10752
  140.8106  133.8144  155.9559 H   0  0  0  0  0  0  0  0  0  0  0  0  # atno 11005 bound_to 11000
  145.3701  139.1661  143.4337 LP  0  0  0  0  0  0  0  0  0  0  0  0  # atno 17320 bound_to 7965
  146.3081  140.3771  142.8680 LP  0  0  0  0  0  0  0  0  0  0  0  0  # atno 17321 bound_to 7965
  139.6028  144.7587  151.3132 LP  0  0  0  0  0  0  0  0  0  0  0  0  # atno 17342 bound_to 10162
  140.7270  143.6976  150.7871 LP  0  0  0  0  0  0  0  0  0  0  0  0  # atno 17343 bound_to 10162
  157.6178  130.8632  149.9058 LP  0  0  0  0  0  0  0  0  0  0  0  0  # atno 17370 bound_to 10713
  156.0711  130.3685  150.0775 LP  0  0  0  0  0  0  0  0  0  0  0  0  # atno 17371 bound_to 10713
  140.9202  134.2151  157.4931 LP  0  0  0  0  0  0  0  0  0  0  0  0  # atno 17394 bound_to 11000
  139.8714  134.9789  156.5014 LP  0  0  0  0  0  0  0  0  0  0  0  0  # atno 17395 bound_to 11000

$$$$
