AV-unprocessed.smi:290|AV-procd|sdf|2241|dock6
  -GOLD-   2262022113D 1   1.00000     0.00000
 Structure written by MMmdl.
 59 62  0  0  0  0  0  0  0  0  2 V2000
  152.3580  140.3651  159.3781 C   0  0  0  0  0  0  0  0  0  0  0  0
  152.5169  141.6548  158.5565 C   0  0  2  0  0  0  0  0  0  0  0  0
  152.7941  142.7587  159.4055 O   0  0  0  0  0  0  0  0  0  0  0  0
  152.5503  143.9318  158.6505 C   0  0  0  0  0  0  0  0  0  0  0  0
  151.2374  143.6134  157.9451 C   0  0  0  0  0  0  0  0  0  0  0  0
  151.3033  142.1023  157.6997 C   0  0  2  0  0  0  0  0  0  0  0  0
  150.0940  141.5275  158.1665 O   0  0  0  0  0  0  0  0  0  0  0  0
  151.4543  141.7644  156.1958 C   0  0  0  0  0  0  0  0  0  0  0  0
  150.3394  141.0028  155.6517 N   0  0  0  0  0  0  0  0  0  0  0  0
  149.2878  141.4966  154.9156 C   0  0  0  0  0  0  0  0  0  0  0  0
  148.4071  140.6097  154.5426 N   0  0  0  0  0  0  0  0  0  0  0  0
  148.8938  139.4045  155.0384 C   0  0  0  0  0  0  0  0  0  0  0  0
  148.4491  138.0481  155.0003 C   0  0  0  0  0  0  0  0  0  0  0  0
  147.3266  137.6061  154.3734 N   0  0  0  0  0  0  0  0  0  0  0  0
  146.9835  136.1963  154.3255 C   0  0  0  0  0  0  0  0  0  0  0  0
  145.4616  136.1808  154.2797 C   0  0  0  0  0  0  0  0  0  0  0  0
  145.0936  137.4640  153.5156 C   0  0  1  0  0  0  0  0  0  0  0  0
  143.7003  137.9228  153.8167 N   0  3  2  0  0  0  0  0  0  0  0  0
  143.5327  138.2501  155.2572 C   0  0  0  0  0  0  0  0  0  0  0  0
  142.6281  137.0145  153.3158 C   0  0  0  0  0  0  0  0  0  0  0  0
  141.2050  137.5938  153.4316 C   0  0  0  0  0  0  0  0  0  0  0  0
  141.2521  139.0049  153.4552 O   0  0  0  0  0  0  0  0  0  0  0  0
  146.2278  138.4490  153.9116 C   0  0  2  0  0  0  0  0  0  0  0  0
  146.6893  139.3266  152.7268 C   0  0  0  0  0  0  0  0  0  0  0  0
  149.2141  137.1266  155.6420 N   0  0  0  0  0  0  0  0  0  0  0  0
  150.3391  137.4887  156.2636 C   0  0  0  0  0  0  0  0  0  0  0  0
  150.8771  138.7035  156.3694 N   0  0  0  0  0  0  0  0  0  0  0  0
  150.1115  139.6403  155.7415 C   0  0  0  0  0  0  0  0  0  0  0  0
  145.1697  137.2545  152.4468 H   0  0  0  0  0  0  0  0  0  0  0  0
  145.8976  139.0604  154.7506 H   0  0  0  0  0  0  0  0  0  0  0  0
  152.1304  139.5138  158.7363 H   0  0  0  0  0  0  0  0  0  0  0  0
  151.5623  140.4552  160.1179 H   0  0  0  0  0  0  0  0  0  0  0  0
  153.2786  140.1359  159.9151 H   0  0  0  0  0  0  0  0  0  0  0  0
  153.3910  141.5484  157.9134 H   0  0  0  0  0  0  0  0  0  0  0  0
  152.4851  144.8155  159.2855 H   0  0  0  0  0  0  0  0  0  0  0  0
  153.3560  144.0816  157.9299 H   0  0  0  0  0  0  0  0  0  0  0  0
  150.4105  143.8674  158.6108 H   0  0  0  0  0  0  0  0  0  0  0  0
  151.1086  144.1976  157.0333 H   0  0  0  0  0  0  0  0  0  0  0  0
  149.7577  140.9547  157.4946 H   0  0  0  0  0  0  0  0  0  0  0  0
  151.5558  142.6802  155.6119 H   0  0  0  0  0  0  0  0  0  0  0  0
  152.3710  141.1974  156.0292 H   0  0  0  0  0  0  0  0  0  0  0  0
  149.1906  142.5440  154.6681 H   0  0  0  0  0  0  0  0  0  0  0  0
  147.4075  135.7570  153.4219 H   0  0  0  0  0  0  0  0  0  0  0  0
  147.3562  135.6420  155.1879 H   0  0  0  0  0  0  0  0  0  0  0  0
  145.0823  135.2721  153.8118 H   0  0  0  0  0  0  0  0  0  0  0  0
  145.0708  136.2250  155.2976 H   0  0  0  0  0  0  0  0  0  0  0  0
  143.5719  137.3476  155.8684 H   0  0  0  0  0  0  0  0  0  0  0  0
  142.5874  138.7543  155.4502 H   0  0  0  0  0  0  0  0  0  0  0  0
  144.3044  138.9309  155.6137 H   0  0  0  0  0  0  0  0  0  0  0  0
  142.7812  136.7978  152.2604 H   0  0  0  0  0  0  0  0  0  0  0  0
  142.6858  136.0628  153.8459 H   0  0  0  0  0  0  0  0  0  0  0  0
  140.6198  137.2912  152.5628 H   0  0  0  0  0  0  0  0  0  0  0  0
  140.6675  137.2202  154.3021 H   0  0  0  0  0  0  0  0  0  0  0  0
  142.0236  139.2889  152.9877 H   0  0  0  0  0  0  0  0  0  0  0  0
  145.8863  139.9410  152.3242 H   0  0  0  0  0  0  0  0  0  0  0  0
  147.0641  138.7107  151.9086 H   0  0  0  0  0  0  0  0  0  0  0  0
  147.4942  140.0028  153.0127 H   0  0  0  0  0  0  0  0  0  0  0  0
  150.8865  136.6909  156.7436 H   0  0  0  0  0  0  0  0  0  0  0  0
  143.5790  138.7881  153.3097 H   0  0  0  0  0  0  0  0  0  0  0  0
  1  2  1  0  0  0  0
  1 31  1  0  0  0  0
  1 32  1  0  0  0  0
  1 33  1  0  0  0  0
  2  6  1  0  0  0  0
  2  3  1  0  0  0  0
  2 34  1  0  0  0  0
  3  4  1  0  0  0  0
  4  5  1  0  0  0  0
  4 35  1  0  0  0  0
  4 36  1  0  0  0  0
  5  6  1  0  0  0  0
  5 37  1  0  0  0  0
  5 38  1  0  0  0  0
  6  7  1  0  0  0  0
  6  8  1  0  0  0  0
  7 39  1  0  0  0  0
  8  9  1  0  0  0  0
  8 40  1  0  0  0  0
  8 41  1  0  0  0  0
  9 28  1  0  0  0  0
  9 10  1  0  0  0  0
 10 11  2  0  0  0  0
 10 42  1  0  0  0  0
 11 12  1  0  0  0  0
 12 28  2  0  0  0  0
 12 13  1  0  0  0  0
 13 14  1  0  0  0  0
 13 25  2  0  0  0  0
 14 23  1  0  0  0  0
 14 15  1  0  0  0  0
 15 16  1  0  0  0  0
 15 43  1  0  0  0  0
 15 44  1  0  0  0  0
 16 17  1  0  0  0  0
 16 45  1  0  0  0  0
 16 46  1  0  0  0  0
 17 29  1  0  0  0  0
 17 18  1  0  0  0  0
 17 23  1  0  0  0  0
 18 19  1  0  0  0  0
 18 20  1  0  0  0  0
 18 59  1  0  0  0  0
 19 47  1  0  0  0  0
 19 48  1  0  0  0  0
 19 49  1  0  0  0  0
 20 21  1  0  0  0  0
 20 50  1  0  0  0  0
 20 51  1  0  0  0  0
 21 22  1  0  0  0  0
 21 52  1  0  0  0  0
 21 53  1  0  0  0  0
 22 54  1  0  0  0  0
 23 30  1  0  0  0  0
 23 24  1  0  0  0  0
 24 55  1  0  0  0  0
 24 56  1  0  0  0  0
 24 57  1  0  0  0  0
 25 26  1  0  0  0  0
 26 27  2  0  0  0  0
 26 58  1  0  0  0  0
 27 28  1  0  0  0  0
M  CHG  1  18   1
M  END
> <s_m_source_file>
AV-unprocessed.smi

> <i_m_source_file_index>
290

> <i_lp_mmshare_version>
43012

> <i_f3d_flags>
0

> <s_epik_input>
W0NIMl0xW0NIMl1PW0NAQEhdKFtDSDNdKVtDQEBdMShbT0hdKVtDSDJdbihbY0hdbjIpYyhjMjMpbltjSF1uYzNONFtDSDJdW0NIMl1bQ0BIXShbQ0BIXTRbQ0gzXSlOKFtDSDNdKVtDSDJdW0NIMl1bT0hd

> <s_epik_cmdline>
J2VwaWtfcHl0aG9uJywgJy1waCcsICc3LjAnLCAnLXRuJywgJzgnLCAnLW1hJywgJzIwMCcsICctbWV0YWxfYmluZGluZycsICctaW1hZScsICc8aW5maWxlLm1hZT4nLCAnLW9tYWUnLCAnPG91dGZpbGUubWFlPic=

> <r_lp_tautomer_probability>
1

> <r_epik_Ionization_Penalty>
0.0036983

> <r_epik_Ionization_Penalty_Charging>
0.0032725

> <r_epik_Ionization_Penalty_Neutral>
0.000425798

> <r_epik_State_Penalty>
-0

> <r_epik_Charging_Adjusted_Penalty>
0.0032725

> <i_epik_Tot_Q>
1

> <i_epik_Tot_abs_Q>
1

> <r_epik_Metal_State_Penalty>
-0

> <b_epik_Metal_Only>
0

> <s_lp_Force_Field>
OPLS_2005

> <r_lp_Energy>
64.4963

> <b_lp_Chiralities_Consistent>
1

> <s_lp_Variant>
AV-unprocessed.smi:290-27

> <Gold.Version>
5.8.1

> <Gold.Id.Protein>
6NUR|6NUR_protein|mol2

> <Gold.PLP.Fitness>
45.3986

> <Gold.PLP.PLP>
-36.7276

> <Gold.PLP.part.hbond>
-3.0000

> <Gold.PLP.part.metal>
0.0000

> <Gold.PLP.part.buried>
-6.9447

> <Gold.PLP.part.nonpolar>
-26.6889

> <Gold.PLP.part.repulsive>
0.1667

> <Gold.PLP.ligand.clash>
0.0000

> <Gold.PLP.ligand.torsion>
1.7457

> <Gold.PLP.Chemscore.Hbond>
3.0000

> <Gold.PLP.Chemscore.CHOScore>
1.0000

> <Gold.PLP.Chemscore.Metal>
0.0000

> <Gold.Chemscore.Hbonds>
donor molecule, donor type, donor heavy atom, donor atom, acceptor molecule, acceptor atom, score
      L1  H    18    59       P1 10175  2.00
      L1  H    22    54       P1 10175  1.00
      L1  C    10    42       P1  8028  1.00

> <Gold.PLP.Chemscore.Internal.Correction>
0.1624

> <Gold.Rescore>
     Score         DG    S(hbond)    S(metal)    S(lipo)     H(rot)  DE(clash)    DE(int)     intcor
      9.17     -14.02       1.93        0.00      91.17       3.35       1.46       3.39       ----

> <Gold.Chemscore.Fitness>
9.1717

> <Gold.Chemscore.DG>
-14.0200

> <Gold.Chemscore.ZeroCoef>
-5.4800

> <Gold.Chemscore.Hbond>
1.9322

> <Gold.Chemscore.Metal>
0.0000

> <Gold.Chemscore.Lipo>
91.1710

> <Gold.Chemscore.Internal_Hbond>
0.0000

> <Gold.Chemscore.DEClash>
1.4571

> <Gold.Chemscore.DEInternal>
3.3912

> <Gold.Chemscore.Rot>
3.3518

> <Gold.Chemscore.Internal.Correction>
   9.000000E+99

> <Gold.Chemscore.Hbonds>
donor molecule, donor type, donor heavy atom, donor atom, acceptor molecule, acceptor atom, score
      L1  H    18    59       P1 10175  1.00
      L1  H    22    54       P1 10175  0.86

> <Gold.Chemscore.Hbond.Weighted>
-6.4535

> <Gold.Chemscore.Metal.Weighted>
-0.0000

> <Gold.Chemscore.Lipo.Weighted>
-10.6670

> <Gold.Chemscore.Internal_Hbond.Weighted>
0.0000

> <Gold.Chemscore.DEClash.Weighted>
1.4571

> <Gold.Chemscore.DEInternal.Weighted>
3.3912

> <Gold.Chemscore.Rot.Weighted>
8.5806

> <Gold.Chemscore.Internal.Correction.Weighted>
   9.000000E+99

> <Gold.Protein.RotatedTorsions>
[ 6907 6896 6895 6894 ] final  -28.56 input  -60.11 | X-H torsion
[ 7974 7965 7964 7962 ] final  -53.87 input  175.53 | X-H torsion
[ 8008 7997 7996 7995 ] final  116.73 input   59.86 | X-H torsion
[ 10167 10162 10161 10158 ] final -135.35 input  -65.29 | X-H torsion
[ 10718 10713 10712 10709 ] final  148.61 input   66.30 | X-H torsion
[ 10763 10752 10751 10750 ] final   31.95 input  -60.55 | X-H torsion
[ 11005 11000 10999 10996 ] final   35.69 input  -57.11 | X-H torsion

> <Gold.Protein.ActiveResidues>
 VAL166  LYS551  ARG553  GLY616  TRP617  ASP618  TYR619  PRO620  LYS621  CYS622 
 ASP623  PHE694  ASN695  SER759  ASP760  ASP761  ALA762  ILE779  LEU786  VAL792 
 PHE793  MET794  SER795  GLU796  ALA797  LYS798  CYS799  TRP800  GLU811  SER814 

> <Gold.Protein.RotatedAtoms>
  151.1313  135.0131  159.8583 H   0  0  0  0  0  0  0  0  0  0  0  0  # atno 6907 bound_to 6896
  152.5451  134.1607  159.8567 H   0  0  0  0  0  0  0  0  0  0  0  0  # atno 6908 bound_to 6896
  151.1674  133.4761  159.2627 H   0  0  0  0  0  0  0  0  0  0  0  0  # atno 6909 bound_to 6896
  145.8919  140.8063  142.9787 H   0  0  0  0  0  0  0  0  0  0  0  0  # atno 7974 bound_to 7965
  156.2455  140.2911  156.0569 H   0  0  0  0  0  0  0  0  0  0  0  0  # atno 8008 bound_to 7997
  155.1819  140.0404  157.2901 H   0  0  0  0  0  0  0  0  0  0  0  0  # atno 8009 bound_to 7997
  154.6254  140.2486  155.7505 H   0  0  0  0  0  0  0  0  0  0  0  0  # atno 8010 bound_to 7997
  139.8788  143.6865  152.2630 H   0  0  0  0  0  0  0  0  0  0  0  0  # atno 10167 bound_to 10162
  157.3064  131.0880  151.1350 H   0  0  0  0  0  0  0  0  0  0  0  0  # atno 10718 bound_to 10713
  153.0288  135.6426  154.1279 H   0  0  0  0  0  0  0  0  0  0  0  0  # atno 10763 bound_to 10752
  154.1004  135.2860  155.3254 H   0  0  0  0  0  0  0  0  0  0  0  0  # atno 10764 bound_to 10752
  154.6402  135.5462  153.7844 H   0  0  0  0  0  0  0  0  0  0  0  0  # atno 10765 bound_to 10752
  140.2401  134.3425  155.7929 H   0  0  0  0  0  0  0  0  0  0  0  0  # atno 11005 bound_to 11000
  144.6731  140.1543  143.7427 LP  0  0  0  0  0  0  0  0  0  0  0  0  # atno 17320 bound_to 7965
  145.8897  139.2369  143.1556 LP  0  0  0  0  0  0  0  0  0  0  0  0  # atno 17321 bound_to 7965
  139.7215  144.7601  151.0947 LP  0  0  0  0  0  0  0  0  0  0  0  0  # atno 17342 bound_to 10162
  140.7748  143.5201  150.9547 LP  0  0  0  0  0  0  0  0  0  0  0  0  # atno 17343 bound_to 10162
  157.2689  130.6695  149.6010 LP  0  0  0  0  0  0  0  0  0  0  0  0  # atno 17370 bound_to 10713
  155.9675  130.4485  150.5623 LP  0  0  0  0  0  0  0  0  0  0  0  0  # atno 17371 bound_to 10713
  141.2211  133.7294  156.8871 LP  0  0  0  0  0  0  0  0  0  0  0  0  # atno 17394 bound_to 11000
  140.1662  134.9131  157.2777 LP  0  0  0  0  0  0  0  0  0  0  0  0  # atno 17395 bound_to 11000

$$$$
