AV-unprocessed.smi:1115|AV-procd|sdf|4803|dock1
  -GOLD-   22720 3353D 1   1.00000     0.00000
 Structure written by MMmdl.
 50 51  0  0  0  0  0  0  0  0  1 V2000
  152.0299  144.6044  157.9556 C   0  0  0  0  0  0  0  0  0  0  0  0
  151.7345  144.5522  159.3839 N   0  0  0  0  0  0  0  0  0  0  0  0
  150.6215  145.3250  159.9214 C   0  0  0  0  0  0  0  0  0  0  0  0
  152.4384  143.6504  160.2147 C   0  0  0  0  0  0  0  0  0  0  0  0
  152.4381  143.7897  161.6251 C   0  0  0  0  0  0  0  0  0  0  0  0
  153.1537  142.8662  162.4111 C   0  0  0  0  0  0  0  0  0  0  0  0
  153.8630  141.8245  161.7705 C   0  0  0  0  0  0  0  0  0  0  0  0
  154.6018  140.8198  162.4515 N   0  0  0  0  0  0  0  0  0  0  0  0
  154.7006  139.5114  162.1611 C   0  0  0  0  0  0  0  0  0  0  0  0
  154.1143  138.9402  161.2419 O   0  0  0  0  0  0  0  0  0  0  0  0
  155.5088  138.8863  163.0286 N   0  0  0  0  0  0  0  0  0  0  0  0
  155.8070  137.4541  163.0435 C   0  0  0  0  0  0  0  0  0  0  0  0
  154.6702  136.6081  163.6901 C   0  0  0  0  0  0  0  0  0  0  0  0
  154.3661  137.2542  165.0658 C   0  0  0  0  0  0  0  0  0  0  0  0
  153.4080  136.7934  162.8133 C   0  0  0  0  0  0  0  0  0  0  0  0
  155.0682  135.1801  163.8446 N   0  0  0  0  0  0  0  0  0  0  0  0
  155.2175  134.4414  162.5850 C   0  0  0  0  0  0  0  0  0  0  0  0
  155.7493  133.0159  162.8096 C   0  0  0  0  0  0  0  0  0  0  0  0
  154.8861  132.3170  163.6977 O   0  0  0  0  0  0  0  0  0  0  0  0
  154.7588  132.9689  164.9552 C   0  0  0  0  0  0  0  0  0  0  0  0
  154.2203  134.3953  164.7494 C   0  0  0  0  0  0  0  0  0  0  0  0
  153.7955  141.7588  160.3654 C   0  0  0  0  0  0  0  0  0  0  0  0
  153.1123  142.6421  159.6086 N   0  0  0  0  0  0  0  0  0  0  0  0
  151.8004  143.6487  157.4835 H   0  0  0  0  0  0  0  0  0  0  0  0
  153.0834  144.8306  157.7883 H   0  0  0  0  0  0  0  0  0  0  0  0
  151.4429  145.3749  157.4556 H   0  0  0  0  0  0  0  0  0  0  0  0
  149.8635  144.6638  160.3426 H   0  0  0  0  0  0  0  0  0  0  0  0
  150.1442  145.9252  159.1467 H   0  0  0  0  0  0  0  0  0  0  0  0
  150.9673  146.0036  160.7019 H   0  0  0  0  0  0  0  0  0  0  0  0
  151.9013  144.5838  162.1215 H   0  0  0  0  0  0  0  0  0  0  0  0
  153.1304  142.9685  163.4847 H   0  0  0  0  0  0  0  0  0  0  0  0
  155.0705  141.1238  163.2925 H   0  0  0  0  0  0  0  0  0  0  0  0
  155.9339  139.4389  163.7587 H   0  0  0  0  0  0  0  0  0  0  0  0
  156.0174  137.0962  162.0340 H   0  0  0  0  0  0  0  0  0  0  0  0
  156.7472  137.3176  163.5774 H   0  0  0  0  0  0  0  0  0  0  0  0
  154.2566  138.3363  164.9841 H   0  0  0  0  0  0  0  0  0  0  0  0
  155.1614  137.0619  165.7867 H   0  0  0  0  0  0  0  0  0  0  0  0
  153.4353  136.8869  165.4979 H   0  0  0  0  0  0  0  0  0  0  0  0
  153.1383  137.8474  162.7350 H   0  0  0  0  0  0  0  0  0  0  0  0
  152.5405  136.2783  163.2252 H   0  0  0  0  0  0  0  0  0  0  0  0
  153.5559  136.4318  161.7960 H   0  0  0  0  0  0  0  0  0  0  0  0
  154.2595  134.3800  162.0685 H   0  0  0  0  0  0  0  0  0  0  0  0
  155.9070  134.9497  161.9137 H   0  0  0  0  0  0  0  0  0  0  0  0
  155.7984  132.4769  161.8634 H   0  0  0  0  0  0  0  0  0  0  0  0
  156.7611  133.0408  163.2171 H   0  0  0  0  0  0  0  0  0  0  0  0
  154.0799  132.3953  165.5862 H   0  0  0  0  0  0  0  0  0  0  0  0
  155.7251  132.9908  165.4615 H   0  0  0  0  0  0  0  0  0  0  0  0
  154.1550  134.8672  165.7281 H   0  0  0  0  0  0  0  0  0  0  0  0
  153.2048  134.3345  164.3576 H   0  0  0  0  0  0  0  0  0  0  0  0
  154.3089  140.9749  159.8273 H   0  0  0  0  0  0  0  0  0  0  0  0
  1  2  1  0  0  0  0
  1 24  1  0  0  0  0
  1 25  1  0  0  0  0
  1 26  1  0  0  0  0
  2  3  1  0  0  0  0
  2  4  1  0  0  0  0
  3 27  1  0  0  0  0
  3 28  1  0  0  0  0
  3 29  1  0  0  0  0
  4 23  1  0  0  0  0
  4  5  2  0  0  0  0
  5  6  1  0  0  0  0
  5 30  1  0  0  0  0
  6  7  2  0  0  0  0
  6 31  1  0  0  0  0
  7  8  1  0  0  0  0
  7 22  1  0  0  0  0
  8  9  1  0  0  0  0
  8 32  1  0  0  0  0
  9 10  2  0  0  0  0
  9 11  1  0  0  0  0
 11 12  1  0  0  0  0
 11 33  1  0  0  0  0
 12 13  1  0  0  0  0
 12 34  1  0  0  0  0
 12 35  1  0  0  0  0
 13 14  1  0  0  0  0
 13 15  1  0  0  0  0
 13 16  1  0  0  0  0
 14 36  1  0  0  0  0
 14 37  1  0  0  0  0
 14 38  1  0  0  0  0
 15 39  1  0  0  0  0
 15 40  1  0  0  0  0
 15 41  1  0  0  0  0
 16 21  1  0  0  0  0
 16 17  1  0  0  0  0
 17 18  1  0  0  0  0
 17 42  1  0  0  0  0
 17 43  1  0  0  0  0
 18 19  1  0  0  0  0
 18 44  1  0  0  0  0
 18 45  1  0  0  0  0
 19 20  1  0  0  0  0
 20 21  1  0  0  0  0
 20 46  1  0  0  0  0
 20 47  1  0  0  0  0
 21 48  1  0  0  0  0
 21 49  1  0  0  0  0
 22 23  2  0  0  0  0
 22 50  1  0  0  0  0
M  END
> <s_m_source_file>
AV-unprocessed.smi

> <i_m_source_file_index>
1115

> <i_lp_mmshare_version>
43012

> <i_f3d_flags>
0

> <s_epik_input>
W0NIM11OKFtDSDNdKWMxW2NIXVtjSF1jKFtjSF1uMSlbTkhdQyg9TylbTkhdW0NIMl1DKFtDSDNdKShbQ0gzXSlOMltDSDJdW0NIMl1PW0NIMl1bQ0gyXTI=

> <s_epik_cmdline>
J2VwaWtfcHl0aG9uJywgJy1waCcsICc3LjAnLCAnLXRuJywgJzgnLCAnLW1hJywgJzIwMCcsICctbWV0YWxfYmluZGluZycsICctaW1hZScsICc8aW5maWxlLm1hZT4nLCAnLW9tYWUnLCAnPG91dGZpbGUubWFlPic=

> <r_lp_tautomer_probability>
1

> <r_epik_Ionization_Penalty>
0.880664

> <r_epik_Ionization_Penalty_Charging>
0

> <r_epik_Ionization_Penalty_Neutral>
0.880664

> <r_epik_State_Penalty>
0.865003

> <r_epik_Charging_Adjusted_Penalty>
0.865003

> <i_epik_Tot_Q>
0

> <i_epik_Tot_abs_Q>
0

> <r_epik_Metal_State_Penalty>
0.539426

> <b_epik_Metal_Only>
0

> <s_lp_Force_Field>
OPLS_2005

> <r_lp_Energy>
45.7519

> <b_lp_Chiralities_Consistent>
1

> <s_lp_Variant>
AV-unprocessed.smi:1115-2

> <Gold.Version>
5.8.1

> <Gold.Id.Protein>
6NUR|6NUR_protein|mol2

> <Gold.PLP.Fitness>
48.3486

> <Gold.PLP.PLP>
-49.9240

> <Gold.PLP.part.hbond>
-0.6167

> <Gold.PLP.part.metal>
0.0000

> <Gold.PLP.part.buried>
-5.1928

> <Gold.PLP.part.nonpolar>
-43.7387

> <Gold.PLP.part.repulsive>
0.0428

> <Gold.PLP.ligand.clash>
0.0000

> <Gold.PLP.ligand.torsion>
0.8214

> <Gold.PLP.Chemscore.Hbond>
0.0000

> <Gold.PLP.Chemscore.CHOScore>
0.0000

> <Gold.PLP.Chemscore.Metal>
0.0000

> <Gold.PLP.Chemscore.Internal.Correction>
0.0675

> <Gold.Rescore>
     Score         DG    S(hbond)    S(metal)    S(lipo)     H(rot)  DE(clash)    DE(int)     intcor
     12.86     -16.36       0.00        0.00     124.06       1.42       0.41       3.08       ----

> <Gold.Chemscore.Fitness>
12.8632

> <Gold.Chemscore.DG>
-16.3551

> <Gold.Chemscore.ZeroCoef>
-5.4800

> <Gold.Chemscore.Hbond>
0.0000

> <Gold.Chemscore.Metal>
0.0000

> <Gold.Chemscore.Lipo>
124.0565

> <Gold.Chemscore.Internal_Hbond>
0.0000

> <Gold.Chemscore.DEClash>
0.4111

> <Gold.Chemscore.DEInternal>
3.0809

> <Gold.Chemscore.Rot>
1.4217

> <Gold.Chemscore.Internal.Correction>
   9.000000E+99

> <Gold.Chemscore.Hbond.Weighted>
-0.0000

> <Gold.Chemscore.Metal.Weighted>
-0.0000

> <Gold.Chemscore.Lipo.Weighted>
-14.5146

> <Gold.Chemscore.Internal_Hbond.Weighted>
0.0000

> <Gold.Chemscore.DEClash.Weighted>
0.4111

> <Gold.Chemscore.DEInternal.Weighted>
3.0809

> <Gold.Chemscore.Rot.Weighted>
3.6395

> <Gold.Chemscore.Internal.Correction.Weighted>
   9.000000E+99

> <Gold.Protein.RotatedTorsions>
[ 6907 6896 6895 6894 ] final   13.77 input  -60.11 | X-H torsion
[ 7974 7965 7964 7962 ] final  -93.94 input  175.53 | X-H torsion
[ 8008 7997 7996 7995 ] final  -26.90 input   59.86 | X-H torsion
[ 10167 10162 10161 10158 ] final    0.93 input  -65.29 | X-H torsion
[ 10718 10713 10712 10709 ] final    3.86 input   66.30 | X-H torsion
[ 10763 10752 10751 10750 ] final   -3.26 input  -60.55 | X-H torsion
[ 11005 11000 10999 10996 ] final  -78.80 input  -57.11 | X-H torsion

> <Gold.Protein.ActiveResidues>
 VAL166  LYS551  ARG553  GLY616  TRP617  ASP618  TYR619  PRO620  LYS621  CYS622 
 ASP623  PHE694  ASN695  SER759  ASP760  ASP761  ALA762  ILE779  LEU786  VAL792 
 PHE793  MET794  SER795  GLU796  ALA797  LYS798  CYS799  TRP800  GLU811  SER814 

> <Gold.Protein.RotatedAtoms>
  151.7916  135.0734  160.0387 H   0  0  0  0  0  0  0  0  0  0  0  0  # atno 6907 bound_to 6896
  152.3152  133.5791  159.5716 H   0  0  0  0  0  0  0  0  0  0  0  0  # atno 6908 bound_to 6896
  150.7340  134.0009  159.3680 H   0  0  0  0  0  0  0  0  0  0  0  0  # atno 6909 bound_to 6896
  145.3799  140.9516  143.2399 H   0  0  0  0  0  0  0  0  0  0  0  0  # atno 7974 bound_to 7965
  154.4403  140.1887  156.0848 H   0  0  0  0  0  0  0  0  0  0  0  0  # atno 8008 bound_to 7997
  156.0411  140.3319  155.7219 H   0  0  0  0  0  0  0  0  0  0  0  0  # atno 8009 bound_to 7997
  155.5698  140.0611  157.2800 H   0  0  0  0  0  0  0  0  0  0  0  0  # atno 8010 bound_to 7997
  140.6706  143.7059  150.7915 H   0  0  0  0  0  0  0  0  0  0  0  0  # atno 10167 bound_to 10162
  156.8840  130.5664  149.5652 H   0  0  0  0  0  0  0  0  0  0  0  0  # atno 10718 bound_to 10713
  153.3690  135.6993  153.6653 H   0  0  0  0  0  0  0  0  0  0  0  0  # atno 10763 bound_to 10752
  153.5311  135.3592  155.2676 H   0  0  0  0  0  0  0  0  0  0  0  0  # atno 10764 bound_to 10752
  154.8678  135.4181  154.2963 H   0  0  0  0  0  0  0  0  0  0  0  0  # atno 10765 bound_to 10752
  141.1666  133.7078  156.8026 H   0  0  0  0  0  0  0  0  0  0  0  0  # atno 11005 bound_to 11000
  144.8515  139.5314  143.6854 LP  0  0  0  0  0  0  0  0  0  0  0  0  # atno 17320 bound_to 7965
  146.2847  139.6971  142.9204 LP  0  0  0  0  0  0  0  0  0  0  0  0  # atno 17321 bound_to 7965
  140.0744  143.5030  152.2563 LP  0  0  0  0  0  0  0  0  0  0  0  0  # atno 17342 bound_to 10162
  139.5973  144.7571  151.3256 LP  0  0  0  0  0  0  0  0  0  0  0  0  # atno 17343 bound_to 10162
  156.0662  130.5705  150.9294 LP  0  0  0  0  0  0  0  0  0  0  0  0  # atno 17370 bound_to 10713
  157.6123  131.0935  150.8773 LP  0  0  0  0  0  0  0  0  0  0  0  0  # atno 17371 bound_to 10713
  140.2245  134.8732  157.3412 LP  0  0  0  0  0  0  0  0  0  0  0  0  # atno 17394 bound_to 11000
  140.1954  134.4321  155.7692 LP  0  0  0  0  0  0  0  0  0  0  0  0  # atno 17395 bound_to 11000

$$$$
