AV-unprocessed.smi:2441|AV-procd|sdf|9619|dock2
  -GOLD-   2272013253D 1   1.00000     0.00000
 Structure written by MMmdl.
 40 41  0  0  0  0  0  0  0  0  1 V2000
  151.1787  145.3612  159.5156 C   0  0  0  0  0  0  0  0  0  0  0  0
  151.5012  143.9368  160.0011 C   0  0  2  0  0  0  0  0  0  0  0  0
  152.2065  143.9824  161.3722 C   0  0  0  0  0  0  0  0  0  0  0  0
  152.5444  142.5772  161.8922 C   0  0  0  0  0  0  0  0  0  0  0  0
  153.3980  141.8052  160.8775 C   0  0  0  0  0  0  0  0  0  0  0  0
  152.6968  141.7340  159.5137 C   0  0  0  0  0  0  0  0  0  0  0  0
  152.3464  143.1361  158.9778 C   0  0  1  0  0  0  0  0  0  0  0  0
  151.6267  142.9887  157.7131 N   0  0  0  0  0  0  0  0  0  0  0  0
  150.4672  142.3388  157.5359 C   0  0  0  0  0  0  0  0  0  0  0  0
  149.8638  141.7659  158.4427 O   0  0  0  0  0  0  0  0  0  0  0  0
  150.0669  142.4216  156.2536 N   0  0  0  0  0  0  0  0  0  0  0  0
  148.9342  141.8639  155.6351 C   0  0  0  0  0  0  0  0  0  0  0  0
  148.9320  141.2966  154.4026 C   0  0  0  0  0  0  0  0  0  0  0  0
  147.7191  140.7582  153.8365 C   0  0  0  0  0  0  0  0  0  0  0  0
  146.5906  140.8433  154.5539 C   0  0  0  0  0  0  0  0  0  0  0  0
  146.5644  141.4366  155.8261 N   0  0  0  0  0  0  0  0  0  0  0  0
  145.2590  141.4561  156.4919 C   0  0  0  0  0  0  0  0  0  0  0  0
  147.6838  141.9575  156.4150 C   0  0  0  0  0  0  0  0  0  0  0  0
  147.6425  142.4727  157.5347 O   0  0  0  0  0  0  0  0  0  0  0  0
  152.0904  145.9272  159.3229 H   0  0  0  0  0  0  0  0  0  0  0  0
  150.6003  145.9073  160.2611 H   0  0  0  0  0  0  0  0  0  0  0  0
  150.5929  145.3517  158.5964 H   0  0  0  0  0  0  0  0  0  0  0  0
  150.5524  143.4155  160.1377 H   0  0  0  0  0  0  0  0  0  0  0  0
  153.1227  144.5693  161.2944 H   0  0  0  0  0  0  0  0  0  0  0  0
  151.5751  144.4944  162.0990 H   0  0  0  0  0  0  0  0  0  0  0  0
  153.0725  142.6498  162.8432 H   0  0  0  0  0  0  0  0  0  0  0  0
  151.6232  142.0278  162.0901 H   0  0  0  0  0  0  0  0  0  0  0  0
  154.3680  142.2915  160.7663 H   0  0  0  0  0  0  0  0  0  0  0  0
  153.5959  140.7988  161.2470 H   0  0  0  0  0  0  0  0  0  0  0  0
  153.3366  141.2116  158.8012 H   0  0  0  0  0  0  0  0  0  0  0  0
  151.7886  141.1366  159.6079 H   0  0  0  0  0  0  0  0  0  0  0  0
  153.2832  143.6738  158.8183 H   0  0  0  0  0  0  0  0  0  0  0  0
  152.0453  143.4280  156.9065 H   0  0  0  0  0  0  0  0  0  0  0  0
  150.6356  142.9921  155.6447 H   0  0  0  0  0  0  0  0  0  0  0  0
  149.8228  141.2430  153.7981 H   0  0  0  0  0  0  0  0  0  0  0  0
  147.7214  140.2981  152.8593 H   0  0  0  0  0  0  0  0  0  0  0  0
  145.6393  140.4656  154.2067 H   0  0  0  0  0  0  0  0  0  0  0  0
  145.2429  142.0046  157.4342 H   0  0  0  0  0  0  0  0  0  0  0  0
  144.9347  140.4362  156.7019 H   0  0  0  0  0  0  0  0  0  0  0  0
  144.5141  141.9168  155.8419 H   0  0  0  0  0  0  0  0  0  0  0  0
  1  2  1  0  0  0  0
  1 20  1  0  0  0  0
  1 21  1  0  0  0  0
  1 22  1  0  0  0  0
  2  7  1  0  0  0  0
  2  3  1  0  0  0  0
  2 23  1  0  0  0  0
  3  4  1  0  0  0  0
  3 24  1  0  0  0  0
  3 25  1  0  0  0  0
  4  5  1  0  0  0  0
  4 26  1  0  0  0  0
  4 27  1  0  0  0  0
  5  6  1  0  0  0  0
  5 28  1  0  0  0  0
  5 29  1  0  0  0  0
  6  7  1  0  0  0  0
  6 30  1  0  0  0  0
  6 31  1  0  0  0  0
  7  8  1  0  0  0  0
  7 32  1  0  0  0  0
  8  9  1  0  0  0  0
  8 33  1  0  0  0  0
  9 10  2  0  0  0  0
  9 11  1  0  0  0  0
 11 12  1  0  0  0  0
 11 34  1  0  0  0  0
 12 18  1  0  0  0  0
 12 13  2  0  0  0  0
 13 14  1  0  0  0  0
 13 35  1  0  0  0  0
 14 15  2  0  0  0  0
 14 36  1  0  0  0  0
 15 16  1  0  0  0  0
 15 37  1  0  0  0  0
 16 17  1  0  0  0  0
 16 18  1  0  0  0  0
 17 38  1  0  0  0  0
 17 39  1  0  0  0  0
 17 40  1  0  0  0  0
 18 19  2  0  0  0  0
M  END
> <s_m_source_file>
AV-unprocessed.smi

> <i_m_source_file_index>
2441

> <i_lp_mmshare_version>
43012

> <i_f3d_flags>
0

> <s_epik_input>
W0NIM11bQ0BASF0xW0NIMl1bQ0gyXVtDSDJdW0NIMl1bQ0BIXTFbTkhdQyg9TylbTkhdYzJbY0hdW2NIXVtjSF1uKFtDSDNdKWMyPU8=

> <s_epik_cmdline>
J2VwaWtfcHl0aG9uJywgJy1waCcsICc3LjAnLCAnLXRuJywgJzgnLCAnLW1hJywgJzIwMCcsICctbWV0YWxfYmluZGluZycsICctaW1hZScsICc8aW5maWxlLm1hZT4nLCAnLW9tYWUnLCAnPG91dGZpbGUubWFlPic=

> <r_lp_tautomer_probability>
1

> <r_epik_Ionization_Penalty>
2.64999e-05

> <r_epik_Ionization_Penalty_Charging>
5.09663e-06

> <r_epik_Ionization_Penalty_Neutral>
2.14032e-05

> <r_epik_State_Penalty>
-0

> <r_epik_Charging_Adjusted_Penalty>
5.09663e-06

> <i_epik_Tot_Q>
0

> <i_epik_Tot_abs_Q>
0

> <r_epik_Metal_State_Penalty>
-0

> <b_epik_Metal_Only>
0

> <s_lp_Force_Field>
OPLS_2005

> <r_lp_Energy>
23.8871

> <b_lp_Chiralities_Consistent>
1

> <s_lp_Variant>
AV-unprocessed.smi:2441-1

> <Gold.Version>
5.8.1

> <Gold.Id.Protein>
6NUR|6NUR_protein|mol2

> <Gold.PLP.Fitness>
40.3422

> <Gold.PLP.PLP>
-38.3312

> <Gold.PLP.part.hbond>
-1.0000

> <Gold.PLP.part.metal>
0.0000

> <Gold.PLP.part.buried>
-1.2751

> <Gold.PLP.part.nonpolar>
-36.5973

> <Gold.PLP.part.repulsive>
0.3531

> <Gold.PLP.ligand.clash>
0.0000

> <Gold.PLP.ligand.torsion>
0.3359

> <Gold.PLP.Chemscore.Hbond>
0.0000

> <Gold.PLP.Chemscore.CHOScore>
0.8929

> <Gold.PLP.Chemscore.Metal>
0.0000

> <Gold.Chemscore.Hbonds>
donor molecule, donor type, donor heavy atom, donor atom, acceptor molecule, acceptor atom, score
      L1  C    15    37       P1 10175  0.80

> <Gold.PLP.Chemscore.Internal.Correction>
0.0040

> <Gold.Rescore>
     Score         DG    S(hbond)    S(metal)    S(lipo)     H(rot)  DE(clash)    DE(int)     intcor
     10.99     -15.27       0.01        0.00     105.21       1.00       0.17       4.11       ----

> <Gold.Chemscore.Fitness>
10.9884

> <Gold.Chemscore.DG>
-15.2740

> <Gold.Chemscore.ZeroCoef>
-5.4800

> <Gold.Chemscore.Hbond>
0.0134

> <Gold.Chemscore.Metal>
0.0000

> <Gold.Chemscore.Lipo>
105.2074

> <Gold.Chemscore.Internal_Hbond>
0.0000

> <Gold.Chemscore.DEClash>
0.1741

> <Gold.Chemscore.DEInternal>
4.1115

> <Gold.Chemscore.Rot>
1.0000

> <Gold.Chemscore.Internal.Correction>
   9.000000E+99

> <Gold.Chemscore.Hbond.Weighted>
-0.0448

> <Gold.Chemscore.Metal.Weighted>
-0.0000

> <Gold.Chemscore.Lipo.Weighted>
-12.3093

> <Gold.Chemscore.Internal_Hbond.Weighted>
0.0000

> <Gold.Chemscore.DEClash.Weighted>
0.1741

> <Gold.Chemscore.DEInternal.Weighted>
4.1115

> <Gold.Chemscore.Rot.Weighted>
2.5600

> <Gold.Chemscore.Internal.Correction.Weighted>
   9.000000E+99

> <Gold.Protein.RotatedTorsions>
[ 6907 6896 6895 6894 ] final    7.09 input  -60.11 | X-H torsion
[ 7974 7965 7964 7962 ] final   -7.55 input  175.53 | X-H torsion
[ 8008 7997 7996 7995 ] final   21.40 input   59.86 | X-H torsion
[ 10167 10162 10161 10158 ] final  -42.09 input  -65.29 | X-H torsion
[ 10718 10713 10712 10709 ] final  129.00 input   66.30 | X-H torsion
[ 10763 10752 10751 10750 ] final  -29.52 input  -60.55 | X-H torsion
[ 11005 11000 10999 10996 ] final -142.13 input  -57.11 | X-H torsion

> <Gold.Protein.ActiveResidues>
 VAL166  LYS551  ARG553  GLY616  TRP617  ASP618  TYR619  PRO620  LYS621  CYS622 
 ASP623  PHE694  ASN695  SER759  ASP760  ASP761  ALA762  ILE779  LEU786  VAL792 
 PHE793  MET794  SER795  GLU796  ALA797  LYS798  CYS799  TRP800  GLU811  SER814 

> <Gold.Protein.RotatedAtoms>
  151.6843  135.0957  160.0221 H   0  0  0  0  0  0  0  0  0  0  0  0  # atno 6907 bound_to 6896
  152.3817  133.6550  159.6174 H   0  0  0  0  0  0  0  0  0  0  0  0  # atno 6908 bound_to 6896
  150.7752  133.9020  159.3385 H   0  0  0  0  0  0  0  0  0  0  0  0  # atno 6909 bound_to 6896
  146.2304  140.2337  142.8341 H   0  0  0  0  0  0  0  0  0  0  0  0  # atno 7974 bound_to 7965
  154.9501  140.3064  155.5079 H   0  0  0  0  0  0  0  0  0  0  0  0  # atno 8008 bound_to 7997
  156.2988  140.2320  156.4516 H   0  0  0  0  0  0  0  0  0  0  0  0  # atno 8009 bound_to 7997
  154.8063  140.0431  157.1298 H   0  0  0  0  0  0  0  0  0  0  0  0  # atno 8010 bound_to 7997
  140.6981  143.3057  151.3159 H   0  0  0  0  0  0  0  0  0  0  0  0  # atno 10167 bound_to 10162
  157.5194  131.1098  150.9176 H   0  0  0  0  0  0  0  0  0  0  0  0  # atno 10718 bound_to 10713
  153.7660  135.6916  153.4916 H   0  0  0  0  0  0  0  0  0  0  0  0  # atno 10763 bound_to 10752
  153.1906  135.4472  155.0143 H   0  0  0  0  0  0  0  0  0  0  0  0  # atno 10764 bound_to 10752
  154.8135  135.3388  154.7172 H   0  0  0  0  0  0  0  0  0  0  0  0  # atno 10765 bound_to 10752
  140.8255  134.2579  157.4881 H   0  0  0  0  0  0  0  0  0  0  0  0  # atno 11005 bound_to 11000
  144.9538  140.8206  143.5555 LP  0  0  0  0  0  0  0  0  0  0  0  0  # atno 17320 bound_to 7965
  145.2300  139.2119  143.5048 LP  0  0  0  0  0  0  0  0  0  0  0  0  # atno 17321 bound_to 7965
  139.6462  144.0446  152.2592 LP  0  0  0  0  0  0  0  0  0  0  0  0  # atno 17342 bound_to 10162
  139.9968  144.6322  150.7765 LP  0  0  0  0  0  0  0  0  0  0  0  0  # atno 17343 bound_to 10162
  156.9791  130.5520  149.5295 LP  0  0  0  0  0  0  0  0  0  0  0  0  # atno 17370 bound_to 10713
  156.0343  130.5432  150.8614 LP  0  0  0  0  0  0  0  0  0  0  0  0  # atno 17371 bound_to 10713
  139.8706  134.9558  156.4219 LP  0  0  0  0  0  0  0  0  0  0  0  0  # atno 17394 bound_to 11000
  140.9053  133.7750  155.9728 LP  0  0  0  0  0  0  0  0  0  0  0  0  # atno 17395 bound_to 11000

$$$$
