AV-unprocessed.smi:2570|AV-procd|sdf|10106|dock1
  -GOLD-   2272014123D 1   1.00000     0.00000
 Structure written by MMmdl.
 32 33  0  0  0  0  0  0  0  0  1 V2000
  146.8628  141.7192  154.3394 C   0  0  0  0  0  0  0  0  0  0  0  0
  148.1708  142.2803  154.2449 O   0  0  0  0  0  0  0  0  0  0  0  0
  149.2217  141.4919  154.6808 C   0  0  0  0  0  0  0  0  0  0  0  0
  149.4124  140.1954  154.0652 C   0  0  0  0  0  0  0  0  0  0  0  0
  150.4354  139.4173  154.4800 C   0  0  0  0  0  0  0  0  0  0  0  0
  151.3535  139.8493  155.5334 C   0  0  0  0  0  0  0  0  0  0  0  0
  152.2938  139.1622  155.9322 O   0  0  0  0  0  0  0  0  0  0  0  0
  151.0701  141.0870  156.0383 N   0  0  0  0  0  0  0  0  0  0  0  0
  151.8849  141.6821  157.1046 C   0  0  0  0  0  0  0  0  0  0  0  0
  151.0828  142.6757  157.9744 C   0  0  2  0  0  0  0  0  0  0  0  0
  150.9575  143.9016  157.2802 O   0  0  0  0  0  0  0  0  0  0  0  0
  151.7344  142.8673  159.3381 C   0  0  0  0  0  0  0  0  0  0  0  0
  152.7642  141.9900  159.7430 C   0  0  0  0  0  0  0  0  0  0  0  0
  153.3864  142.1504  160.9960 C   0  0  0  0  0  0  0  0  0  0  0  0
  152.9842  143.1909  161.8543 C   0  0  0  0  0  0  0  0  0  0  0  0
  153.5812  143.3443  163.0598 F   0  0  0  0  0  0  0  0  0  0  0  0
  151.9619  144.0730  161.4565 C   0  0  0  0  0  0  0  0  0  0  0  0
  151.3390  143.9160  160.2028 C   0  0  0  0  0  0  0  0  0  0  0  0
  150.3634  144.7820  159.8368 F   0  0  0  0  0  0  0  0  0  0  0  0
  150.0254  141.8904  155.6156 N   0  0  0  0  0  0  0  0  0  0  0  0
  146.1370  142.4425  153.9683 H   0  0  0  0  0  0  0  0  0  0  0  0
  146.5931  141.4884  155.3716 H   0  0  0  0  0  0  0  0  0  0  0  0
  146.7628  140.8171  153.7332 H   0  0  0  0  0  0  0  0  0  0  0  0
  148.7411  139.8661  153.2859 H   0  0  0  0  0  0  0  0  0  0  0  0
  150.5811  138.4495  154.0231 H   0  0  0  0  0  0  0  0  0  0  0  0
  152.2634  140.8738  157.7333 H   0  0  0  0  0  0  0  0  0  0  0  0
  152.7762  142.1618  156.6952 H   0  0  0  0  0  0  0  0  0  0  0  0
  150.0732  142.2960  158.1351 H   0  0  0  0  0  0  0  0  0  0  0  0
  150.1911  143.8572  156.7292 H   0  0  0  0  0  0  0  0  0  0  0  0
  153.0839  141.1892  159.0924 H   0  0  0  0  0  0  0  0  0  0  0  0
  154.1732  141.4748  161.2982 H   0  0  0  0  0  0  0  0  0  0  0  0
  151.6557  144.8737  162.1135 H   0  0  0  0  0  0  0  0  0  0  0  0
  1  2  1  0  0  0  0
  1 21  1  0  0  0  0
  1 22  1  0  0  0  0
  1 23  1  0  0  0  0
  2  3  1  0  0  0  0
  3 20  2  0  0  0  0
  3  4  1  0  0  0  0
  4  5  2  0  0  0  0
  4 24  1  0  0  0  0
  5  6  1  0  0  0  0
  5 25  1  0  0  0  0
  6  7  2  0  0  0  0
  6  8  1  0  0  0  0
  8  9  1  0  0  0  0
  8 20  1  0  0  0  0
  9 10  1  0  0  0  0
  9 26  1  0  0  0  0
  9 27  1  0  0  0  0
 10 11  1  0  0  0  0
 10 12  1  0  0  0  0
 10 28  1  0  0  0  0
 11 29  1  0  0  0  0
 12 18  1  0  0  0  0
 12 13  2  0  0  0  0
 13 14  1  0  0  0  0
 13 30  1  0  0  0  0
 14 15  2  0  0  0  0
 14 31  1  0  0  0  0
 15 16  1  0  0  0  0
 15 17  1  0  0  0  0
 17 18  2  0  0  0  0
 17 32  1  0  0  0  0
 18 19  1  0  0  0  0
M  END
> <s_m_source_file>
AV-unprocessed.smi

> <i_m_source_file_index>
2570

> <i_lp_mmshare_version>
43012

> <i_f3d_flags>
0

> <s_epik_input>
W0NIM11PYzFbY0hdW2NIXWMoPU8pbihuMSlbQ0gyXVtDQEhdKFtPSF0pYzJbY0hdW2NIXWMoRilbY0hdYzJG

> <s_epik_cmdline>
J2VwaWtfcHl0aG9uJywgJy1waCcsICc3LjAnLCAnLXRuJywgJzgnLCAnLW1hJywgJzIwMCcsICctbWV0YWxfYmluZGluZycsICctaW1hZScsICc8aW5maWxlLm1hZT4nLCAnLW9tYWUnLCAnPG91dGZpbGUubWFlPic=

> <r_lp_tautomer_probability>
1

> <r_epik_Ionization_Penalty>
6.40224e-06

> <r_epik_Ionization_Penalty_Charging>
4.38647e-06

> <r_epik_Ionization_Penalty_Neutral>
2.01577e-06

> <r_epik_State_Penalty>
-0

> <r_epik_Charging_Adjusted_Penalty>
4.38647e-06

> <i_epik_Tot_Q>
0

> <i_epik_Tot_abs_Q>
0

> <r_epik_Metal_State_Penalty>
-0

> <b_epik_Metal_Only>
0

> <s_lp_Force_Field>
OPLS_2005

> <r_lp_Energy>
30.8929

> <b_lp_Chiralities_Consistent>
1

> <s_lp_Variant>
AV-unprocessed.smi:2570-1

> <Gold.Version>
5.8.1

> <Gold.Id.Protein>
6NUR|6NUR_protein|mol2

> <Gold.PLP.Fitness>
50.5468

> <Gold.PLP.PLP>
-47.6456

> <Gold.PLP.part.hbond>
-2.6370

> <Gold.PLP.part.metal>
0.0000

> <Gold.PLP.part.buried>
-4.3289

> <Gold.PLP.part.nonpolar>
-43.1214

> <Gold.PLP.part.repulsive>
4.2108

> <Gold.PLP.ligand.clash>
0.0000

> <Gold.PLP.ligand.torsion>
0.8758

> <Gold.PLP.Chemscore.Hbond>
1.5421

> <Gold.PLP.Chemscore.CHOScore>
0.0000

> <Gold.PLP.Chemscore.Metal>
0.0000

> <Gold.Chemscore.Hbonds>
donor molecule, donor type, donor heavy atom, donor atom, acceptor molecule, acceptor atom, score
      L1  H    11    29       P1  8028  0.98

> <Gold.PLP.Chemscore.Internal.Correction>
0.0266

> <Gold.Rescore>
     Score         DG    S(hbond)    S(metal)    S(lipo)     H(rot)  DE(clash)    DE(int)     intcor
     10.39     -14.63       1.15        0.00      99.03       2.45       2.10       2.14       ----

> <Gold.Chemscore.Fitness>
10.3900

> <Gold.Chemscore.DG>
-14.6297

> <Gold.Chemscore.ZeroCoef>
-5.4800

> <Gold.Chemscore.Hbond>
1.1507

> <Gold.Chemscore.Metal>
0.0000

> <Gold.Chemscore.Lipo>
99.0327

> <Gold.Chemscore.Internal_Hbond>
0.0000

> <Gold.Chemscore.DEClash>
2.0969

> <Gold.Chemscore.DEInternal>
2.1428

> <Gold.Chemscore.Rot>
2.4533

> <Gold.Chemscore.Internal.Correction>
   9.000000E+99

> <Gold.Chemscore.Hbonds>
donor molecule, donor type, donor heavy atom, donor atom, acceptor molecule, acceptor atom, score
      L1  H    11    29       P1  8028  0.93
      P1  H  7997  8009       L1     7  0.02

> <Gold.Chemscore.Hbond.Weighted>
-3.8432

> <Gold.Chemscore.Metal.Weighted>
-0.0000

> <Gold.Chemscore.Lipo.Weighted>
-11.5868

> <Gold.Chemscore.Internal_Hbond.Weighted>
0.0000

> <Gold.Chemscore.DEClash.Weighted>
2.0969

> <Gold.Chemscore.DEInternal.Weighted>
2.1428

> <Gold.Chemscore.Rot.Weighted>
6.2804

> <Gold.Chemscore.Internal.Correction.Weighted>
   9.000000E+99

> <Gold.Protein.RotatedTorsions>
[ 6907 6896 6895 6894 ] final  -85.84 input  -60.11 | X-H torsion
[ 7974 7965 7964 7962 ] final  167.10 input  175.53 | X-H torsion
[ 8008 7997 7996 7995 ] final -127.04 input   59.86 | X-H torsion
[ 10167 10162 10161 10158 ] final  124.40 input  -65.29 | X-H torsion
[ 10718 10713 10712 10709 ] final  -21.99 input   66.30 | X-H torsion
[ 10763 10752 10751 10750 ] final  161.46 input  -60.55 | X-H torsion
[ 11005 11000 10999 10996 ] final   26.35 input  -57.11 | X-H torsion

> <Gold.Protein.ActiveResidues>
 VAL166  LYS551  ARG553  GLY616  TRP617  ASP618  TYR619  PRO620  LYS621  CYS622 
 ASP623  PHE694  ASN695  SER759  ASP760  ASP761  ALA762  ILE779  LEU786  VAL792 
 PHE793  MET794  SER795  GLU796  ALA797  LYS798  CYS799  TRP800  GLU811  SER814 

> <Gold.Protein.RotatedAtoms>
  150.6868  134.3142  159.4758 H   0  0  0  0  0  0  0  0  0  0  0  0  # atno 6907 bound_to 6896
  152.1025  134.9329  160.0578 H   0  0  0  0  0  0  0  0  0  0  0  0  # atno 6908 bound_to 6896
  152.0603  133.4024  159.4452 H   0  0  0  0  0  0  0  0  0  0  0  0  # atno 6909 bound_to 6896
  144.7437  139.8711  143.6389 H   0  0  0  0  0  0  0  0  0  0  0  0  # atno 7974 bound_to 7965
  155.2397  140.0428  157.2973 H   0  0  0  0  0  0  0  0  0  0  0  0  # atno 8008 bound_to 7997
  154.5836  140.2407  155.7988 H   0  0  0  0  0  0  0  0  0  0  0  0  # atno 8009 bound_to 7997
  156.2210  140.2969  155.9962 H   0  0  0  0  0  0  0  0  0  0  0  0  # atno 8010 bound_to 7997
  139.5744  144.6956  151.3693 H   0  0  0  0  0  0  0  0  0  0  0  0  # atno 10167 bound_to 10162
  156.5106  130.4609  149.6650 H   0  0  0  0  0  0  0  0  0  0  0  0  # atno 10718 bound_to 10713
  154.2632  135.2768  155.2769 H   0  0  0  0  0  0  0  0  0  0  0  0  # atno 10763 bound_to 10752
  154.5366  135.5714  153.6807 H   0  0  0  0  0  0  0  0  0  0  0  0  # atno 10764 bound_to 10752
  152.9958  135.6240  154.2783 H   0  0  0  0  0  0  0  0  0  0  0  0  # atno 10765 bound_to 10752
  140.3380  134.2364  155.7693 H   0  0  0  0  0  0  0  0  0  0  0  0  # atno 11005 bound_to 11000
  146.1279  139.4309  143.0187 LP  0  0  0  0  0  0  0  0  0  0  0  0  # atno 17320 bound_to 7965
  145.7207  141.0076  143.1404 LP  0  0  0  0  0  0  0  0  0  0  0  0  # atno 17321 bound_to 7965
  140.7027  143.7591  150.7430 LP  0  0  0  0  0  0  0  0  0  0  0  0  # atno 17342 bound_to 10162
  140.1106  143.4702  152.2372 LP  0  0  0  0  0  0  0  0  0  0  0  0  # atno 17343 bound_to 10162
  156.3244  130.7298  151.2216 LP  0  0  0  0  0  0  0  0  0  0  0  0  # atno 17370 bound_to 10713
  157.7451  131.0447  150.4805 LP  0  0  0  0  0  0  0  0  0  0  0  0  # atno 17371 bound_to 10713
  141.2046  133.7882  157.0278 LP  0  0  0  0  0  0  0  0  0  0  0  0  # atno 17394 bound_to 11000
  140.0805  134.9651  157.1616 LP  0  0  0  0  0  0  0  0  0  0  0  0  # atno 17395 bound_to 11000

$$$$
