AV-unprocessed.smi:104|AV-procd|sdf|1002|dock8
  -GOLD-   2262017593D 1   1.00000     0.00000
 Structure written by MMmdl.
 47 49  0  0  0  0  0  0  0  0  1 V2000
  149.6977  140.7347  155.2186 C   0  0  0  0  0  0  0  0  0  0  0  0
  150.0605  139.3071  155.6045 C   0  0  0  0  0  0  0  0  0  0  0  0
  151.2313  138.9582  155.7564 O   0  0  0  0  0  0  0  0  0  0  0  0
  148.9802  138.5283  155.7484 O   0  0  0  0  0  0  0  0  0  0  0  0
  149.1239  137.2090  156.2493 C   0  0  0  0  0  0  0  0  0  0  0  0
  147.7798  136.4695  156.1971 C   0  0  1  0  0  0  0  0  0  0  0  0
  147.4025  136.1938  154.8585 O   0  0  0  0  0  0  0  0  0  0  0  0
  146.4699  135.1590  154.8568 C   0  0  1  0  0  0  0  0  0  0  0  0
  146.7630  134.2864  153.6734 N   0  0  0  0  0  0  0  0  0  0  0  0
  147.9160  133.6024  153.3614 C   0  0  0  0  0  0  0  0  0  0  0  0
  149.4693  133.6640  154.4616 Br  0  0  0  0  0  0  0  0  0  0  0  0
  147.9172  132.9094  152.2571 N   0  0  0  0  0  0  0  0  0  0  0  0
  146.6442  133.1389  151.7503 C   0  0  0  0  0  0  0  0  0  0  0  0
  145.9558  132.7146  150.5857 C   0  0  0  0  0  0  0  0  0  0  0  0
  146.5029  131.9075  149.6663 N   0  0  0  0  0  0  0  0  0  0  0  0
  144.6879  133.1462  150.3897 N   0  0  0  0  0  0  0  0  0  0  0  0
  144.1200  133.9546  151.2904 C   0  0  0  0  0  0  0  0  0  0  0  0
  144.6353  134.4331  152.4256 N   0  0  0  0  0  0  0  0  0  0  0  0
  145.9134  133.9958  152.6240 C   0  0  0  0  0  0  0  0  0  0  0  0
  146.5840  134.4058  156.2031 C   0  0  1  0  0  0  0  0  0  0  0  0
  146.8460  133.0161  156.0298 O   0  0  0  0  0  0  0  0  0  0  0  0
  146.8727  132.1902  157.0869 C   0  0  0  0  0  0  0  0  0  0  0  0
  147.0735  130.7375  156.6780 C   0  0  0  0  0  0  0  0  0  0  0  0
  146.7552  132.5177  158.2676 O   0  0  0  0  0  0  0  0  0  0  0  0
  147.7493  135.1059  156.8903 C   0  0  2  0  0  0  0  0  0  0  0  0
  147.4766  135.2333  158.2795 O   0  0  0  0  0  0  0  0  0  0  0  0
  148.4375  135.6465  159.1229 C   0  0  0  0  0  0  0  0  0  0  0  0
  147.9395  135.7568  160.5575 C   0  0  0  0  0  0  0  0  0  0  0  0
  149.5993  135.9213  158.8224 O   0  0  0  0  0  0  0  0  0  0  0  0
  149.1107  140.7414  154.3001 H   0  0  0  0  0  0  0  0  0  0  0  0
  150.5970  141.3296  155.0590 H   0  0  0  0  0  0  0  0  0  0  0  0
  149.1109  141.2012  156.0097 H   0  0  0  0  0  0  0  0  0  0  0  0
  149.8590  136.6698  155.6500 H   0  0  0  0  0  0  0  0  0  0  0  0
  149.4983  137.2404  157.2732 H   0  0  0  0  0  0  0  0  0  0  0  0
  147.0030  137.1088  156.6209 H   0  0  0  0  0  0  0  0  0  0  0  0
  145.4717  135.5596  154.6845 H   0  0  0  0  0  0  0  0  0  0  0  0
  147.4485  131.5739  149.7883 H   0  0  0  0  0  0  0  0  0  0  0  0
  145.9690  131.6326  148.8545 H   0  0  0  0  0  0  0  0  0  0  0  0
  143.1095  134.2641  151.0688 H   0  0  0  0  0  0  0  0  0  0  0  0
  145.6512  134.5746  156.7438 H   0  0  0  0  0  0  0  0  0  0  0  0
  146.1980  130.3716  156.1416 H   0  0  0  0  0  0  0  0  0  0  0  0
  147.2296  130.1100  157.5557 H   0  0  0  0  0  0  0  0  0  0  0  0
  147.9433  130.6438  156.0273 H   0  0  0  0  0  0  0  0  0  0  0  0
  148.6664  134.5493  156.6909 H   0  0  0  0  0  0  0  0  0  0  0  0
  147.2051  136.5577  160.6423 H   0  0  0  0  0  0  0  0  0  0  0  0
  148.7664  135.9726  161.2345 H   0  0  0  0  0  0  0  0  0  0  0  0
  147.4722  134.8227  160.8698 H   0  0  0  0  0  0  0  0  0  0  0  0
  1  2  1  0  0  0  0
  1 30  1  0  0  0  0
  1 31  1  0  0  0  0
  1 32  1  0  0  0  0
  2  3  2  0  0  0  0
  2  4  1  0  0  0  0
  4  5  1  0  0  0  0
  5  6  1  0  0  0  0
  5 33  1  0  0  0  0
  5 34  1  0  0  0  0
  6 25  1  0  0  0  0
  6  7  1  0  0  0  0
  6 35  1  0  0  0  0
  7  8  1  0  0  0  0
  8  9  1  0  0  0  0
  8 20  1  0  0  0  0
  8 36  1  0  0  0  0
  9 19  1  0  0  0  0
  9 10  1  0  0  0  0
 10 11  1  0  0  0  0
 10 12  2  0  0  0  0
 12 13  1  0  0  0  0
 13 19  2  0  0  0  0
 13 14  1  0  0  0  0
 14 15  1  0  0  0  0
 14 16  2  0  0  0  0
 15 37  1  0  0  0  0
 15 38  1  0  0  0  0
 16 17  1  0  0  0  0
 17 18  2  0  0  0  0
 17 39  1  0  0  0  0
 18 19  1  0  0  0  0
 20 21  1  0  0  0  0
 20 25  1  0  0  0  0
 20 40  1  0  0  0  0
 21 22  1  0  0  0  0
 22 23  1  0  0  0  0
 22 24  2  0  0  0  0
 23 41  1  0  0  0  0
 23 42  1  0  0  0  0
 23 43  1  0  0  0  0
 25 26  1  0  0  0  0
 25 44  1  0  0  0  0
 26 27  1  0  0  0  0
 27 28  1  0  0  0  0
 27 29  2  0  0  0  0
 28 45  1  0  0  0  0
 28 46  1  0  0  0  0
 28 47  1  0  0  0  0
M  END
> <s_m_source_file>
AV-unprocessed.smi

> <i_m_source_file_index>
104

> <i_lp_mmshare_version>
43012

> <i_f3d_flags>
0

> <s_epik_input>
W0NIM11DKD1PKU9bQ0gyXVtDQEBIXTFPW0NASF0oW0NAQEhdKE9DKD1PKVtDSDNdKVtDQEhdMU9DKD1PKVtDSDNdKW4oYyhCciluMiljKGMyMyluW2NIXW5jM1tOSDJd

> <s_epik_cmdline>
J2VwaWtfcHl0aG9uJywgJy1waCcsICc3LjAnLCAnLXRuJywgJzgnLCAnLW1hJywgJzIwMCcsICctbWV0YWxfYmluZGluZycsICctaW1hZScsICc8aW5maWxlLm1hZT4nLCAnLW9tYWUnLCAnPG91dGZpbGUubWFlPic=

> <r_lp_tautomer_probability>
1

> <r_epik_Ionization_Penalty>
7.36622e-05

> <r_epik_Ionization_Penalty_Charging>
0

> <r_epik_Ionization_Penalty_Neutral>
7.36622e-05

> <r_epik_State_Penalty>
-0

> <r_epik_Charging_Adjusted_Penalty>
0

> <i_epik_Tot_Q>
0

> <i_epik_Tot_abs_Q>
0

> <r_epik_Metal_State_Penalty>
-0

> <b_epik_Metal_Only>
0

> <s_epik_Chemistry_Notes>
This compound has an ester and may undergo hydrolysis at high or low pH. This compound contains an acetal/aminal-like group ( X-CH(R)-Y where X, Y are N, S, or O) that may be acid/base labile, releasing an aldehyde.

> <s_lp_Force_Field>
OPLS_2005

> <r_lp_Energy>
14.3188

> <b_lp_Chiralities_Consistent>
1

> <s_lp_Variant>
AV-unprocessed.smi:104-10

> <Gold.Version>
5.8.1

> <Gold.Id.Protein>
6NUR|6NUR_protein|mol2

> <Gold.PLP.Fitness>
35.2605

> <Gold.PLP.PLP>
-26.6297

> <Gold.PLP.part.hbond>
-2.0000

> <Gold.PLP.part.metal>
0.0000

> <Gold.PLP.part.buried>
-5.3372

> <Gold.PLP.part.nonpolar>
-20.8849

> <Gold.PLP.part.repulsive>
1.7575

> <Gold.PLP.ligand.clash>
0.0000

> <Gold.PLP.ligand.torsion>
0.2384

> <Gold.PLP.Chemscore.Hbond>
2.0000

> <Gold.PLP.Chemscore.CHOScore>
0.9988

> <Gold.PLP.Chemscore.Metal>
0.0000

> <Gold.Chemscore.Hbonds>
donor molecule, donor type, donor heavy atom, donor atom, acceptor molecule, acceptor atom, score
      L1  H    15    37       P1 10747  1.00
      P1  H  6896  6909       L1    29  1.00
      L1  C    17    39       P1 10186  0.86

> <Gold.PLP.Chemscore.Internal.Correction>
0.1112

> <Gold.Rescore>
     Score         DG    S(hbond)    S(metal)    S(lipo)     H(rot)  DE(clash)    DE(int)     intcor
      3.09      -4.37       2.00        0.00      27.69       4.31       0.01       1.27       ----

> <Gold.Chemscore.Fitness>
3.0871

> <Gold.Chemscore.DG>
-4.3724

> <Gold.Chemscore.ZeroCoef>
-5.4800

> <Gold.Chemscore.Hbond>
1.9995

> <Gold.Chemscore.Metal>
0.0000

> <Gold.Chemscore.Lipo>
27.6932

> <Gold.Chemscore.Internal_Hbond>
0.0000

> <Gold.Chemscore.DEClash>
0.0106

> <Gold.Chemscore.DEInternal>
1.2747

> <Gold.Chemscore.Rot>
4.3070

> <Gold.Chemscore.Internal.Correction>
   9.000000E+99

> <Gold.Chemscore.Hbonds>
donor molecule, donor type, donor heavy atom, donor atom, acceptor molecule, acceptor atom, score
      L1  H    15    37       P1 10747  1.00
      P1  H  6896  6909       L1    29  0.60

> <Gold.Chemscore.Hbond.Weighted>
-6.6782

> <Gold.Chemscore.Metal.Weighted>
-0.0000

> <Gold.Chemscore.Lipo.Weighted>
-3.2401

> <Gold.Chemscore.Internal_Hbond.Weighted>
0.0000

> <Gold.Chemscore.DEClash.Weighted>
0.0106

> <Gold.Chemscore.DEInternal.Weighted>
1.2747

> <Gold.Chemscore.Rot.Weighted>
11.0259

> <Gold.Chemscore.Internal.Correction.Weighted>
   9.000000E+99

> <Gold.Protein.RotatedTorsions>
[ 6907 6896 6895 6894 ] final   47.45 input  -60.11 | X-H torsion
[ 7974 7965 7964 7962 ] final  -11.48 input  175.53 | X-H torsion
[ 8008 7997 7996 7995 ] final   92.49 input   59.86 | X-H torsion
[ 10167 10162 10161 10158 ] final  -84.45 input  -65.29 | X-H torsion
[ 10718 10713 10712 10709 ] final  -78.04 input   66.30 | X-H torsion
[ 10763 10752 10751 10750 ] final  -51.75 input  -60.55 | X-H torsion
[ 11005 11000 10999 10996 ] final  105.03 input  -57.11 | X-H torsion

> <Gold.Protein.ActiveResidues>
 VAL166  LYS551  ARG553  GLY616  TRP617  ASP618  TYR619  PRO620  LYS621  CYS622 
 ASP623  PHE694  ASN695  SER759  ASP760  ASP761  ALA762  ILE779  LEU786  VAL792 
 PHE793  MET794  SER795  GLU796  ALA797  LYS798  CYS799  TRP800  GLU811  SER814 

> <Gold.Protein.RotatedAtoms>
  152.2682  134.7961  160.0418 H   0  0  0  0  0  0  0  0  0  0  0  0  # atno 6907 bound_to 6896
  151.8583  133.3447  159.3703 H   0  0  0  0  0  0  0  0  0  0  0  0  # atno 6908 bound_to 6896
  150.7142  134.5159  159.5674 H   0  0  0  0  0  0  0  0  0  0  0  0  # atno 6909 bound_to 6896
  146.2186  140.2918  142.8369 H   0  0  0  0  0  0  0  0  0  0  0  0  # atno 7974 bound_to 7965
  156.0359  140.3325  155.7191 H   0  0  0  0  0  0  0  0  0  0  0  0  # atno 8008 bound_to 7997
  155.5816  140.0637  157.2799 H   0  0  0  0  0  0  0  0  0  0  0  0  # atno 8009 bound_to 7997
  154.4372  140.1843  156.0970 H   0  0  0  0  0  0  0  0  0  0  0  0  # atno 8010 bound_to 7997
  140.4131  143.2614  151.8991 H   0  0  0  0  0  0  0  0  0  0  0  0  # atno 10167 bound_to 10162
  156.0128  130.4507  150.3436 H   0  0  0  0  0  0  0  0  0  0  0  0  # atno 10718 bound_to 10713
  154.1317  135.6519  153.4923 H   0  0  0  0  0  0  0  0  0  0  0  0  # atno 10763 bound_to 10752
  153.0193  135.5294  154.6994 H   0  0  0  0  0  0  0  0  0  0  0  0  # atno 10764 bound_to 10752
  154.6231  135.2967  155.0274 H   0  0  0  0  0  0  0  0  0  0  0  0  # atno 10765 bound_to 10752
  139.8798  134.9321  156.5451 H   0  0  0  0  0  0  0  0  0  0  0  0  # atno 11005 bound_to 11000
  144.9121  140.7770  143.5801 LP  0  0  0  0  0  0  0  0  0  0  0  0  # atno 17320 bound_to 7965
  145.2849  139.1904  143.4771 LP  0  0  0  0  0  0  0  0  0  0  0  0  # atno 17321 bound_to 7965
  139.4782  144.5516  151.8377 LP  0  0  0  0  0  0  0  0  0  0  0  0  # atno 17342 bound_to 10162
  140.4616  144.1714  150.5907 LP  0  0  0  0  0  0  0  0  0  0  0  0  # atno 17343 bound_to 10162
  157.1531  131.0326  151.2876 LP  0  0  0  0  0  0  0  0  0  0  0  0  # atno 17370 bound_to 10713
  157.4375  130.7525  149.7041 LP  0  0  0  0  0  0  0  0  0  0  0  0  # atno 17371 bound_to 10713
  140.8281  133.8300  155.8958 LP  0  0  0  0  0  0  0  0  0  0  0  0  # atno 17394 bound_to 11000
  140.9354  134.1968  157.4835 LP  0  0  0  0  0  0  0  0  0  0  0  0  # atno 17395 bound_to 11000

$$$$
