AV-unprocessed.smi:663|AV-procd|sdf|3247|dock3
  -GOLD-   22720 0193D 1   1.00000     0.00000
 Structure written by MMmdl.
 30 31  0  0  0  0  0  0  0  0  1 V2000
  152.1487  138.7118  155.8618 N   0  0  0  0  0  0  0  0  0  0  0  0
  151.9948  139.3021  154.6739 C   0  0  0  0  0  0  0  0  0  0  0  0
  152.7043  140.2402  154.3156 O   0  0  0  0  0  0  0  0  0  0  0  0
  150.8691  138.7748  153.7730 C   0  0  0  0  0  0  0  0  0  0  0  0
  149.4497  138.9429  154.3647 C   0  0  2  0  0  0  0  0  0  0  0  0
  148.5125  138.0283  153.7136 N   0  0  0  0  0  0  0  0  0  0  0  0
  147.2003  137.9407  153.9740 C   0  0  0  0  0  0  0  0  0  0  0  0
  146.6211  138.6492  154.7972 O   0  0  0  0  0  0  0  0  0  0  0  0
  146.6219  136.9870  153.2266 N   0  0  0  0  0  0  0  0  0  0  0  0
  145.2580  136.6025  153.2070 C   0  0  0  0  0  0  0  0  0  0  0  0
  144.4503  137.1028  154.1494 N   0  0  0  0  0  0  0  0  0  0  0  0
  143.1457  136.6442  154.0141 N   0  0  0  0  0  0  0  0  0  0  0  0
  143.0210  135.8137  152.9745 C   0  0  0  0  0  0  0  0  0  0  0  0
  144.4846  135.5087  152.0563 S   0  0  0  0  0  0  0  0  0  0  0  0
  149.0076  140.3947  154.2787 C   0  0  0  0  0  0  0  0  0  0  0  0
  149.7032  141.4678  155.0827 C   0  0  0  0  0  0  0  0  0  0  0  0
  148.2855  141.0687  155.4216 C   0  0  0  0  0  0  0  0  0  0  0  0
  152.8777  139.0263  156.4860 H   0  0  0  0  0  0  0  0  0  0  0  0
  151.5390  137.9541  156.1331 H   0  0  0  0  0  0  0  0  0  0  0  0
  150.9232  139.2861  152.8106 H   0  0  0  0  0  0  0  0  0  0  0  0
  151.0619  137.7219  153.5625 H   0  0  0  0  0  0  0  0  0  0  0  0
  149.5072  138.6801  155.4234 H   0  0  0  0  0  0  0  0  0  0  0  0
  148.9003  137.4006  153.0244 H   0  0  0  0  0  0  0  0  0  0  0  0
  147.2256  136.4763  152.5991 H   0  0  0  0  0  0  0  0  0  0  0  0
  142.0598  135.3777  152.7470 H   0  0  0  0  0  0  0  0  0  0  0  0
  148.6936  140.6926  153.2798 H   0  0  0  0  0  0  0  0  0  0  0  0
  150.4882  141.1586  155.7702 H   0  0  0  0  0  0  0  0  0  0  0  0
  149.8543  142.4342  154.6061 H   0  0  0  0  0  0  0  0  0  0  0  0
  147.4903  141.7670  155.1690 H   0  0  0  0  0  0  0  0  0  0  0  0
  148.1320  140.4987  156.3356 H   0  0  0  0  0  0  0  0  0  0  0  0
  1  2  1  0  0  0  0
  1 18  1  0  0  0  0
  1 19  1  0  0  0  0
  2  3  2  0  0  0  0
  2  4  1  0  0  0  0
  4  5  1  0  0  0  0
  4 20  1  0  0  0  0
  4 21  1  0  0  0  0
  5  6  1  0  0  0  0
  5 15  1  0  0  0  0
  5 22  1  0  0  0  0
  6  7  1  0  0  0  0
  6 23  1  0  0  0  0
  7  8  2  0  0  0  0
  7  9  1  0  0  0  0
  9 10  1  0  0  0  0
  9 24  1  0  0  0  0
 10 14  1  0  0  0  0
 10 11  2  0  0  0  0
 11 12  1  0  0  0  0
 12 13  2  0  0  0  0
 13 14  1  0  0  0  0
 13 25  1  0  0  0  0
 15 17  1  0  0  0  0
 15 16  1  0  0  0  0
 15 26  1  0  0  0  0
 16 17  1  0  0  0  0
 16 27  1  0  0  0  0
 16 28  1  0  0  0  0
 17 29  1  0  0  0  0
 17 30  1  0  0  0  0
M  END
> <s_m_source_file>
AV-unprocessed.smi

> <i_m_source_file_index>
663

> <i_lp_mmshare_version>
43012

> <i_f3d_flags>
0

> <s_epik_input>
W05IMl1DKD1PKVtDSDJdW0NAQEhdKFtDSF0xW0NIMl1bQ0gyXTEpW05IXUMoPU8pW05IXWMybm5bY0hdczI=

> <s_epik_cmdline>
J2VwaWtfcHl0aG9uJywgJy1waCcsICc3LjAnLCAnLXRuJywgJzgnLCAnLW1hJywgJzIwMCcsICctbWV0YWxfYmluZGluZycsICctaW1hZScsICc8aW5maWxlLm1hZT4nLCAnLW9tYWUnLCAnPG91dGZpbGUubWFlPic=

> <r_lp_tautomer_probability>
1

> <r_epik_Ionization_Penalty>
0.000388224

> <r_epik_Ionization_Penalty_Charging>
0

> <r_epik_Ionization_Penalty_Neutral>
0.000388224

> <r_epik_State_Penalty>
-0

> <r_epik_Charging_Adjusted_Penalty>
0

> <i_epik_Tot_Q>
0

> <i_epik_Tot_abs_Q>
0

> <r_epik_Metal_State_Penalty>
0.191941

> <b_epik_Metal_Only>
0

> <s_lp_Force_Field>
OPLS_2005

> <r_lp_Energy>
6.58878

> <b_lp_Chiralities_Consistent>
1

> <s_lp_Variant>
AV-unprocessed.smi:663-1

> <Gold.Version>
5.8.1

> <Gold.Id.Protein>
6NUR|6NUR_protein|mol2

> <Gold.PLP.Fitness>
34.2663

> <Gold.PLP.PLP>
-24.4768

> <Gold.PLP.part.hbond>
-4.0000

> <Gold.PLP.part.metal>
0.0000

> <Gold.PLP.part.buried>
-3.5433

> <Gold.PLP.part.nonpolar>
-17.1153

> <Gold.PLP.part.repulsive>
0.4658

> <Gold.PLP.ligand.clash>
0.0000

> <Gold.PLP.ligand.torsion>
0.7939

> <Gold.PLP.Chemscore.Hbond>
3.4240

> <Gold.PLP.Chemscore.CHOScore>
0.0000

> <Gold.PLP.Chemscore.Metal>
0.0000

> <Gold.Chemscore.Hbonds>
donor molecule, donor type, donor heavy atom, donor atom, acceptor molecule, acceptor atom, score
      L1  H     6    23       P1  7948  1.00
      L1  H     9    24       P1  7948  0.99
      P1  H  7989  7998       L1     3  0.15
      P1  H  7997  8010       L1     3  0.24

> <Gold.PLP.Chemscore.Internal.Correction>
1.1054

> <Gold.Rescore>
     Score         DG    S(hbond)    S(metal)    S(lipo)     H(rot)  DE(clash)    DE(int)     intcor
     11.83     -14.13       3.07        0.00      41.52       2.52       0.01       2.28       ----

> <Gold.Chemscore.Fitness>
11.8337

> <Gold.Chemscore.DG>
-14.1284

> <Gold.Chemscore.ZeroCoef>
-5.4800

> <Gold.Chemscore.Hbond>
3.0677

> <Gold.Chemscore.Metal>
0.0000

> <Gold.Chemscore.Lipo>
41.5217

> <Gold.Chemscore.Internal_Hbond>
0.0000

> <Gold.Chemscore.DEClash>
0.0126

> <Gold.Chemscore.DEInternal>
2.2821

> <Gold.Chemscore.Rot>
2.5218

> <Gold.Chemscore.Internal.Correction>
   9.000000E+99

> <Gold.Chemscore.Hbonds>
donor molecule, donor type, donor heavy atom, donor atom, acceptor molecule, acceptor atom, score
      L1  H     6    23       P1  7948  0.99
      L1  H     9    24       P1  7948  0.93
      P1  H  7989  7998       L1     3  0.02
      P1  H  7997  8010       L1     3  0.12

> <Gold.Chemscore.Hbond.Weighted>
-10.2463

> <Gold.Chemscore.Metal.Weighted>
-0.0000

> <Gold.Chemscore.Lipo.Weighted>
-4.8580

> <Gold.Chemscore.Internal_Hbond.Weighted>
0.0000

> <Gold.Chemscore.DEClash.Weighted>
0.0126

> <Gold.Chemscore.DEInternal.Weighted>
2.2821

> <Gold.Chemscore.Rot.Weighted>
6.4559

> <Gold.Chemscore.Internal.Correction.Weighted>
   9.000000E+99

> <Gold.Protein.RotatedTorsions>
[ 6907 6896 6895 6894 ] final  126.91 input  -60.11 | X-H torsion
[ 7974 7965 7964 7962 ] final -120.59 input  175.53 | X-H torsion
[ 8008 7997 7996 7995 ] final  109.62 input   59.86 | X-H torsion
[ 10167 10162 10161 10158 ] final   27.29 input  -65.29 | X-H torsion
[ 10718 10713 10712 10709 ] final -122.07 input   66.30 | X-H torsion
[ 10763 10752 10751 10750 ] final  168.35 input  -60.55 | X-H torsion
[ 11005 11000 10999 10996 ] final    4.64 input  -57.11 | X-H torsion

> <Gold.Protein.ActiveResidues>
 VAL166  LYS551  ARG553  GLY616  TRP617  ASP618  TYR619  PRO620  LYS621  CYS622 
 ASP623  PHE694  ASN695  SER759  ASP760  ASP761  ALA762  ILE779  LEU786  VAL792 
 PHE793  MET794  SER795  GLU796  ALA797  LYS798  CYS799  TRP800  GLU811  SER814 

> <Gold.Protein.RotatedAtoms>
  152.3861  133.6613  159.6199 H   0  0  0  0  0  0  0  0  0  0  0  0  # atno 6907 bound_to 6896
  150.7780  133.9033  159.3356 H   0  0  0  0  0  0  0  0  0  0  0  0  # atno 6908 bound_to 6896
  151.6829  135.0960  160.0271 H   0  0  0  0  0  0  0  0  0  0  0  0  # atno 6909 bound_to 6896
  145.0496  140.8208  143.4217 H   0  0  0  0  0  0  0  0  0  0  0  0  # atno 7974 bound_to 7965
  156.1993  140.3054  155.9492 H   0  0  0  0  0  0  0  0  0  0  0  0  # atno 8008 bound_to 7997
  155.2992  140.0445  157.3045 H   0  0  0  0  0  0  0  0  0  0  0  0  # atno 8009 bound_to 7997
  154.5549  140.2303  155.8434 H   0  0  0  0  0  0  0  0  0  0  0  0  # atno 8010 bound_to 7997
  140.4951  144.0405  150.6311 H   0  0  0  0  0  0  0  0  0  0  0  0  # atno 10167 bound_to 10162
  156.1388  130.6451  150.9739 H   0  0  0  0  0  0  0  0  0  0  0  0  # atno 10718 bound_to 10713
  154.3672  135.2753  155.2287 H   0  0  0  0  0  0  0  0  0  0  0  0  # atno 10763 bound_to 10752
  154.4450  135.5945  153.6157 H   0  0  0  0  0  0  0  0  0  0  0  0  # atno 10764 bound_to 10752
  152.9840  135.6028  154.3899 H   0  0  0  0  0  0  0  0  0  0  0  0  # atno 10765 bound_to 10752
  140.5797  134.0024  155.8042 H   0  0  0  0  0  0  0  0  0  0  0  0  # atno 11005 bound_to 11000
  145.1544  139.2495  143.5424 LP  0  0  0  0  0  0  0  0  0  0  0  0  # atno 17320 bound_to 7965
  146.3517  140.1254  142.8599 LP  0  0  0  0  0  0  0  0  0  0  0  0  # atno 17321 bound_to 7965
  140.3685  143.2867  152.0304 LP  0  0  0  0  0  0  0  0  0  0  0  0  # atno 17342 bound_to 10162
  139.4859  144.6248  151.7186 LP  0  0  0  0  0  0  0  0  0  0  0  0  # atno 17343 bound_to 10162
  157.6557  131.0889  150.7952 LP  0  0  0  0  0  0  0  0  0  0  0  0  # atno 17370 bound_to 10713
  156.8030  130.4927  149.5367 LP  0  0  0  0  0  0  0  0  0  0  0  0  # atno 17371 bound_to 10713
  141.1004  133.9777  157.3089 LP  0  0  0  0  0  0  0  0  0  0  0  0  # atno 17394 bound_to 11000
  139.9323  135.0199  156.8441 LP  0  0  0  0  0  0  0  0  0  0  0  0  # atno 17395 bound_to 11000

$$$$
