AV-unprocessed.smi:25|AV-procd|sdf|181|dock4
  -GOLD-   2262015443D 1   1.00000     0.00000
 Structure written by MMmdl.
 47 50  0  0  0  0  0  0  0  0  1 V2000
  151.4372  140.1710  155.4899 C   0  0  0  0  0  0  0  0  0  0  0  0
  150.7301  140.6509  156.7730 C   0  0  2  0  0  0  0  0  0  0  0  0
  150.5985  142.1903  156.8030 C   0  0  0  0  0  0  0  0  0  0  0  0
  151.4634  142.5837  157.9604 C   0  0  0  0  0  0  0  0  0  0  0  0
  151.7704  143.8980  158.3531 C   0  0  0  0  0  0  0  0  0  0  0  0
  152.6319  144.0833  159.4524 C   0  0  0  0  0  0  0  0  0  0  0  0
  153.1735  142.9658  160.1246 C   0  0  0  0  0  0  0  0  0  0  0  0
  152.8548  141.6523  159.7152 C   0  0  0  0  0  0  0  0  0  0  0  0
  151.9726  141.4681  158.6232 C   0  0  0  0  0  0  0  0  0  0  0  0
  151.4851  140.2830  157.9932 N   0  0  0  0  0  0  0  0  0  0  0  0
  151.4973  138.9950  158.4354 C   0  0  0  0  0  0  0  0  0  0  0  0
  152.0851  138.6877  159.4755 O   0  0  0  0  0  0  0  0  0  0  0  0
  150.8056  137.8694  157.6418 C   0  0  0  0  0  0  0  0  0  0  0  0
  149.5279  137.4159  158.2405 N   0  0  0  0  0  0  0  0  0  0  0  0
  148.3225  137.6570  157.5353 C   0  0  0  0  0  0  0  0  0  0  0  0
  148.3199  138.2472  156.4539 O   0  0  0  0  0  0  0  0  0  0  0  0
  147.1108  137.1595  158.1742 C   0  0  0  0  0  0  0  0  0  0  0  0
  145.9282  137.2864  157.5488 F   0  0  0  0  0  0  0  0  0  0  0  0
  147.1583  136.5555  159.3790 C   0  0  0  0  0  0  0  0  0  0  0  0
  148.3316  136.3913  160.0941 N   0  0  0  0  0  0  0  0  0  0  0  0
  148.3657  135.6322  161.4052 C   0  0  1  0  0  0  0  0  0  0  0  0
  147.4757  136.2346  162.5067 C   0  0  0  0  0  0  0  0  0  0  0  0
  146.3011  135.2761  162.5344 C   0  0  0  0  0  0  0  0  0  0  0  0
  146.9678  133.9637  162.1422 C   0  0  0  0  0  0  0  0  0  0  0  0
  147.9156  134.3351  161.1496 O   0  0  0  0  0  0  0  0  0  0  0  0
  149.5572  136.7772  159.5043 C   0  0  0  0  0  0  0  0  0  0  0  0
  150.6278  136.5719  160.0805 O   0  0  0  0  0  0  0  0  0  0  0  0
  150.8957  140.4995  154.6026 H   0  0  0  0  0  0  0  0  0  0  0  0
  151.5037  139.0845  155.4414 H   0  0  0  0  0  0  0  0  0  0  0  0
  152.4508  140.5683  155.4259 H   0  0  0  0  0  0  0  0  0  0  0  0
  149.7286  140.2178  156.8103 H   0  0  0  0  0  0  0  0  0  0  0  0
  150.9422  142.6659  155.8836 H   0  0  0  0  0  0  0  0  0  0  0  0
  149.5700  142.5004  156.9904 H   0  0  0  0  0  0  0  0  0  0  0  0
  151.3620  144.7452  157.8219 H   0  0  0  0  0  0  0  0  0  0  0  0
  152.8872  145.0819  159.7750 H   0  0  0  0  0  0  0  0  0  0  0  0
  153.8438  143.1175  160.9577 H   0  0  0  0  0  0  0  0  0  0  0  0
  153.3159  140.8430  160.2515 H   0  0  0  0  0  0  0  0  0  0  0  0
  150.6326  138.2229  156.6254 H   0  0  0  0  0  0  0  0  0  0  0  0
  151.4898  137.0254  157.5510 H   0  0  0  0  0  0  0  0  0  0  0  0
  146.2281  136.1878  159.7813 H   0  0  0  0  0  0  0  0  0  0  0  0
  149.4082  135.6269  161.7265 H   0  0  0  0  0  0  0  0  0  0  0  0
  148.0200  136.1761  163.4501 H   0  0  0  0  0  0  0  0  0  0  0  0
  147.2161  137.2791  162.3355 H   0  0  0  0  0  0  0  0  0  0  0  0
  145.8107  135.2295  163.5069 H   0  0  0  0  0  0  0  0  0  0  0  0
  145.5551  135.5552  161.7902 H   0  0  0  0  0  0  0  0  0  0  0  0
  147.4944  133.5310  162.9942 H   0  0  0  0  0  0  0  0  0  0  0  0
  146.2596  133.2256  161.7655 H   0  0  0  0  0  0  0  0  0  0  0  0
  1  2  1  0  0  0  0
  1 28  1  0  0  0  0
  1 29  1  0  0  0  0
  1 30  1  0  0  0  0
  2 10  1  0  0  0  0
  2  3  1  0  0  0  0
  2 31  1  0  0  0  0
  3  4  1  0  0  0  0
  3 32  1  0  0  0  0
  3 33  1  0  0  0  0
  4  9  2  0  0  0  0
  4  5  1  0  0  0  0
  5  6  2  0  0  0  0
  5 34  1  0  0  0  0
  6  7  1  0  0  0  0
  6 35  1  0  0  0  0
  7  8  2  0  0  0  0
  7 36  1  0  0  0  0
  8  9  1  0  0  0  0
  8 37  1  0  0  0  0
  9 10  1  0  0  0  0
 10 11  1  0  0  0  0
 11 12  2  0  0  0  0
 11 13  1  0  0  0  0
 13 14  1  0  0  0  0
 13 38  1  0  0  0  0
 13 39  1  0  0  0  0
 14 26  1  0  0  0  0
 14 15  1  0  0  0  0
 15 16  2  0  0  0  0
 15 17  1  0  0  0  0
 17 18  1  0  0  0  0
 17 19  2  0  0  0  0
 19 20  1  0  0  0  0
 19 40  1  0  0  0  0
 20 21  1  0  0  0  0
 20 26  1  0  0  0  0
 21 25  1  0  0  0  0
 21 22  1  0  0  0  0
 21 41  1  0  0  0  0
 22 23  1  0  0  0  0
 22 42  1  0  0  0  0
 22 43  1  0  0  0  0
 23 24  1  0  0  0  0
 23 44  1  0  0  0  0
 23 45  1  0  0  0  0
 24 25  1  0  0  0  0
 24 46  1  0  0  0  0
 24 47  1  0  0  0  0
 26 27  2  0  0  0  0
M  END
> <s_m_source_file>
AV-unprocessed.smi

> <i_m_source_file_index>
25

> <i_lp_mmshare_version>
43012

> <i_f3d_flags>
0

> <s_epik_input>
W2NIXTFbY0hdW2NIXVtjSF1jKGMxMilOKFtDQEhdKFtDSDNdKVtDSDJdMilDKD1PKVtDSDJdbjNjKD1PKWMoRilbY0hdbihjMz1PKVtDQEBIXTRbQ0gyXVtDSDJdW0NIMl1PNA==

> <s_epik_cmdline>
J2VwaWtfcHl0aG9uJywgJy1waCcsICc3LjAnLCAnLXRuJywgJzgnLCAnLW1hJywgJzIwMCcsICctbWV0YWxfYmluZGluZycsICctaW1hZScsICc8aW5maWxlLm1hZT4nLCAnLW9tYWUnLCAnPG91dGZpbGUubWFlPic=

> <r_lp_tautomer_probability>
1

> <r_epik_Ionization_Penalty>
1.67943e-06

> <r_epik_Ionization_Penalty_Charging>
3.79603e-09

> <r_epik_Ionization_Penalty_Neutral>
1.67563e-06

> <r_epik_State_Penalty>
-0

> <r_epik_Charging_Adjusted_Penalty>
3.79603e-09

> <i_epik_Tot_Q>
0

> <i_epik_Tot_abs_Q>
0

> <r_epik_Metal_State_Penalty>
-0

> <b_epik_Metal_Only>
0

> <s_epik_Chemistry_Notes>
This compound contains an acetal/aminal-like group ( X-CH(R)-Y where X, Y are N, S, or O) that may be acid/base labile, releasing an aldehyde.

> <s_lp_Force_Field>
OPLS_2005

> <r_lp_Energy>
54.5982

> <b_lp_Chiralities_Consistent>
1

> <s_lp_Variant>
AV-unprocessed.smi:25-3

> <Gold.Version>
5.8.1

> <Gold.Id.Protein>
6NUR|6NUR_protein|mol2

> <Gold.PLP.Fitness>
50.2784

> <Gold.PLP.PLP>
-47.7879

> <Gold.PLP.part.hbond>
-1.9456

> <Gold.PLP.part.metal>
0.0000

> <Gold.PLP.part.buried>
-2.0913

> <Gold.PLP.part.nonpolar>
-45.1763

> <Gold.PLP.part.repulsive>
0.0100

> <Gold.PLP.ligand.clash>
0.0000

> <Gold.PLP.ligand.torsion>
0.3080

> <Gold.PLP.Chemscore.Hbond>
1.0000

> <Gold.PLP.Chemscore.CHOScore>
0.0000

> <Gold.PLP.Chemscore.Metal>
0.0000

> <Gold.Chemscore.Hbonds>
donor molecule, donor type, donor heavy atom, donor atom, acceptor molecule, acceptor atom, score
      P1  H  6896  6907       L1    27  1.00

> <Gold.PLP.Chemscore.Internal.Correction>
0.1065

> <Gold.Rescore>
     Score         DG    S(hbond)    S(metal)    S(lipo)     H(rot)  DE(clash)    DE(int)     intcor
     14.19     -18.05       0.99        0.00     112.96       1.55       0.13       3.73       ----

> <Gold.Chemscore.Fitness>
14.1922

> <Gold.Chemscore.DG>
-18.0517

> <Gold.Chemscore.ZeroCoef>
-5.4800

> <Gold.Chemscore.Hbond>
0.9943

> <Gold.Chemscore.Metal>
0.0000

> <Gold.Chemscore.Lipo>
112.9563

> <Gold.Chemscore.Internal_Hbond>
0.0000

> <Gold.Chemscore.DEClash>
0.1276

> <Gold.Chemscore.DEInternal>
3.7319

> <Gold.Chemscore.Rot>
1.5489

> <Gold.Chemscore.Internal.Correction>
   9.000000E+99

> <Gold.Chemscore.Hbonds>
donor molecule, donor type, donor heavy atom, donor atom, acceptor molecule, acceptor atom, score
      P1  H  6896  6907       L1    27  0.83

> <Gold.Chemscore.Hbond.Weighted>
-3.3210

> <Gold.Chemscore.Metal.Weighted>
-0.0000

> <Gold.Chemscore.Lipo.Weighted>
-13.2159

> <Gold.Chemscore.Internal_Hbond.Weighted>
0.0000

> <Gold.Chemscore.DEClash.Weighted>
0.1276

> <Gold.Chemscore.DEInternal.Weighted>
3.7319

> <Gold.Chemscore.Rot.Weighted>
3.9651

> <Gold.Chemscore.Internal.Correction.Weighted>
   9.000000E+99

> <Gold.Protein.RotatedTorsions>
[ 6907 6896 6895 6894 ] final  -25.53 input  -60.11 | X-H torsion
[ 7974 7965 7964 7962 ] final -116.54 input  175.53 | X-H torsion
[ 8008 7997 7996 7995 ] final  144.07 input   59.86 | X-H torsion
[ 10167 10162 10161 10158 ] final -131.37 input  -65.29 | X-H torsion
[ 10718 10713 10712 10709 ] final  112.41 input   66.30 | X-H torsion
[ 10763 10752 10751 10750 ] final  114.61 input  -60.55 | X-H torsion
[ 11005 11000 10999 10996 ] final  -66.84 input  -57.11 | X-H torsion

> <Gold.Protein.ActiveResidues>
 VAL166  LYS551  ARG553  GLY616  TRP617  ASP618  TYR619  PRO620  LYS621  CYS622 
 ASP623  PHE694  ASN695  SER759  ASP760  ASP761  ALA762  ILE779  LEU786  VAL792 
 PHE793  MET794  SER795  GLU796  ALA797  LYS798  CYS799  TRP800  GLU811  SER814 

> <Gold.Protein.RotatedAtoms>
  151.1739  135.0330  159.8763 H   0  0  0  0  0  0  0  0  0  0  0  0  # atno 6907 bound_to 6896
  152.5448  134.1139  159.8380 H   0  0  0  0  0  0  0  0  0  0  0  0  # atno 6908 bound_to 6896
  151.1248  133.5032  159.2633 H   0  0  0  0  0  0  0  0  0  0  0  0  # atno 6909 bound_to 6896
  145.0956  140.8518  143.3957 H   0  0  0  0  0  0  0  0  0  0  0  0  # atno 7974 bound_to 7965
  156.2916  140.2245  156.4994 H   0  0  0  0  0  0  0  0  0  0  0  0  # atno 8008 bound_to 7997
  154.7703  140.0467  157.1067 H   0  0  0  0  0  0  0  0  0  0  0  0  # atno 8009 bound_to 7997
  154.9882  140.3087  155.4920 H   0  0  0  0  0  0  0  0  0  0  0  0  # atno 8010 bound_to 7997
  139.9196  143.6398  152.2557 H   0  0  0  0  0  0  0  0  0  0  0  0  # atno 10167 bound_to 10162
  157.6394  131.0967  150.6891 H   0  0  0  0  0  0  0  0  0  0  0  0  # atno 10718 bound_to 10713
  153.5099  135.3620  155.2581 H   0  0  0  0  0  0  0  0  0  0  0  0  # atno 10763 bound_to 10752
  154.8742  135.4020  154.3381 H   0  0  0  0  0  0  0  0  0  0  0  0  # atno 10764 bound_to 10752
  153.4032  135.7075  153.6478 H   0  0  0  0  0  0  0  0  0  0  0  0  # atno 10765 bound_to 10752
  141.1493  133.6707  156.6201 H   0  0  0  0  0  0  0  0  0  0  0  0  # atno 11005 bound_to 11000
  145.1015  139.2819  143.5684 LP  0  0  0  0  0  0  0  0  0  0  0  0  # atno 17320 bound_to 7965
  146.3531  140.0583  142.8631 LP  0  0  0  0  0  0  0  0  0  0  0  0  # atno 17321 bound_to 7965
  139.6873  144.7650  151.1501 LP  0  0  0  0  0  0  0  0  0  0  0  0  # atno 17342 bound_to 10162
  140.7665  143.5639  150.9069 LP  0  0  0  0  0  0  0  0  0  0  0  0  # atno 17343 bound_to 10162
  156.7217  130.4682  149.5521 LP  0  0  0  0  0  0  0  0  0  0  0  0  # atno 17370 bound_to 10713
  156.1661  130.6406  151.0779 LP  0  0  0  0  0  0  0  0  0  0  0  0  # atno 17371 bound_to 10713
  140.3547  134.7738  157.4492 LP  0  0  0  0  0  0  0  0  0  0  0  0  # atno 17394 bound_to 11000
  140.0832  134.5702  155.8519 LP  0  0  0  0  0  0  0  0  0  0  0  0  # atno 17395 bound_to 11000

$$$$
