AV-unprocessed.smi:2124|AV-procd|sdf|8661|dock2
  -GOLD-   2272011413D 1   1.00000     0.00000
 Structure written by MMmdl.
 47 49  0  0  0  0  0  0  0  0  1 V2000
  146.7658  136.8559  159.8825 C   0  0  0  0  0  0  0  0  0  0  0  0
  148.0628  137.1969  159.1818 C   0  0  0  0  0  0  0  0  0  0  0  0
  147.8882  137.7056  157.9053 N   0  0  0  0  0  0  0  0  0  0  0  0
  149.0188  138.0513  157.1862 C   0  0  0  0  0  0  0  0  0  0  0  0
  148.7407  138.5997  155.7975 C   0  0  0  0  0  0  0  0  0  0  0  0
  150.2604  137.8951  157.7117 C   0  0  0  0  0  0  0  0  0  0  0  0
  151.5339  138.2586  156.9486 C   0  0  0  0  0  0  0  0  0  0  0  0
  151.5864  139.6679  156.3525 C   0  0  0  0  0  0  0  0  0  0  0  0
  151.9540  139.8455  155.1907 O   0  0  0  0  0  0  0  0  0  0  0  0
  151.2092  140.6648  157.1676 N   0  0  0  0  0  0  0  0  0  0  0  0
  151.1854  142.0840  156.8170 C   0  0  1  0  0  0  0  0  0  0  0  0
  150.0101  142.3415  155.8556 C   0  0  0  0  0  0  0  0  0  0  0  0
  151.1024  142.9370  158.1074 C   0  0  1  0  0  0  0  0  0  0  0  0
  152.2513  142.6655  159.1126 C   0  0  0  0  0  0  0  0  0  0  0  0
  152.8313  144.0656  159.3783 C   0  0  2  0  0  0  0  0  0  0  0  0
  151.8187  144.9030  160.1805 C   0  0  0  0  0  0  0  0  0  0  0  0
  150.7270  145.2030  159.1367 C   0  0  0  0  0  0  0  0  0  0  0  0
  151.2404  144.4649  157.8851 C   0  0  1  0  0  0  0  0  0  0  0  0
  152.7445  144.6960  157.9955 C   0  0  0  0  0  0  0  0  0  0  0  0
  150.3838  137.3392  159.0798 C   0  0  0  0  0  0  0  0  0  0  0  0
  151.4816  137.1613  159.6062 O   0  0  0  0  0  0  0  0  0  0  0  0
  149.2054  137.0108  159.7695 N   0  0  0  0  0  0  0  0  0  0  0  0
  146.9834  137.8363  157.4761 H   0  0  0  0  0  0  0  0  0  0  0  0
  146.9556  136.4135  160.8615 H   0  0  0  0  0  0  0  0  0  0  0  0
  146.1903  136.1418  159.2926 H   0  0  0  0  0  0  0  0  0  0  0  0
  146.1642  137.7541  160.0244 H   0  0  0  0  0  0  0  0  0  0  0  0
  149.2383  137.9930  155.0406 H   0  0  0  0  0  0  0  0  0  0  0  0
  149.1044  139.6238  155.7127 H   0  0  0  0  0  0  0  0  0  0  0  0
  147.6733  138.6051  155.5734 H   0  0  0  0  0  0  0  0  0  0  0  0
  151.7205  137.5383  156.1513 H   0  0  0  0  0  0  0  0  0  0  0  0
  152.3824  138.1500  157.6244 H   0  0  0  0  0  0  0  0  0  0  0  0
  150.9245  140.4248  158.1061 H   0  0  0  0  0  0  0  0  0  0  0  0
  152.1132  142.3342  156.3000 H   0  0  0  0  0  0  0  0  0  0  0  0
  150.0002  143.3682  155.4926 H   0  0  0  0  0  0  0  0  0  0  0  0
  149.0522  142.1496  156.3398 H   0  0  0  0  0  0  0  0  0  0  0  0
  150.0715  141.6971  154.9777 H   0  0  0  0  0  0  0  0  0  0  0  0
  150.1455  142.7248  158.5875 H   0  0  0  0  0  0  0  0  0  0  0  0
  151.8992  142.1818  160.0244 H   0  0  0  0  0  0  0  0  0  0  0  0
  153.0226  142.0272  158.6791 H   0  0  0  0  0  0  0  0  0  0  0  0
  153.8298  144.0487  159.8158 H   0  0  0  0  0  0  0  0  0  0  0  0
  151.4315  144.3642  161.0459 H   0  0  0  0  0  0  0  0  0  0  0  0
  152.2729  145.8285  160.5366 H   0  0  0  0  0  0  0  0  0  0  0  0
  149.7410  144.8592  159.4517 H   0  0  0  0  0  0  0  0  0  0  0  0
  150.6607  146.2758  158.9517 H   0  0  0  0  0  0  0  0  0  0  0  0
  150.7913  144.8364  156.9651 H   0  0  0  0  0  0  0  0  0  0  0  0
  153.0230  145.7512  157.9835 H   0  0  0  0  0  0  0  0  0  0  0  0
  153.3265  144.1657  157.2401 H   0  0  0  0  0  0  0  0  0  0  0  0
  1 24  1  0  0  0  0
  1 25  1  0  0  0  0
  1 26  1  0  0  0  0
  1  2  1  0  0  0  0
  2  3  1  0  0  0  0
  2 22  2  0  0  0  0
  3  4  1  0  0  0  0
  3 23  1  0  0  0  0
  4  6  2  0  0  0  0
  4  5  1  0  0  0  0
  5 27  1  0  0  0  0
  5 28  1  0  0  0  0
  5 29  1  0  0  0  0
  6 20  1  0  0  0  0
  6  7  1  0  0  0  0
  7  8  1  0  0  0  0
  7 30  1  0  0  0  0
  7 31  1  0  0  0  0
  8  9  2  0  0  0  0
  8 10  1  0  0  0  0
 10 11  1  0  0  0  0
 10 32  1  0  0  0  0
 11 12  1  0  0  0  0
 11 13  1  0  0  0  0
 11 33  1  0  0  0  0
 12 34  1  0  0  0  0
 12 35  1  0  0  0  0
 12 36  1  0  0  0  0
 13 18  1  0  0  0  0
 13 14  1  0  0  0  0
 13 37  1  0  0  0  0
 14 15  1  0  0  0  0
 14 38  1  0  0  0  0
 14 39  1  0  0  0  0
 15 19  1  0  0  0  0
 15 16  1  0  0  0  0
 15 40  1  0  0  0  0
 16 17  1  0  0  0  0
 16 41  1  0  0  0  0
 16 42  1  0  0  0  0
 17 18  1  0  0  0  0
 17 43  1  0  0  0  0
 17 44  1  0  0  0  0
 18 19  1  0  0  0  0
 18 45  1  0  0  0  0
 19 46  1  0  0  0  0
 19 47  1  0  0  0  0
 20 21  2  0  0  0  0
 20 22  1  0  0  0  0
M  END
> <s_m_source_file>
AV-unprocessed.smi

> <i_m_source_file_index>
2124

> <i_lp_mmshare_version>
43012

> <i_f3d_flags>
0

> <s_epik_input>
W0NIM11jMW5jKFtDSDNdKWMoYyg9TylbbkhdMSlbQ0gyXUMoPU8pW05IXVtDQEhdKFtDSDNdKVtDQEhdKFtDSDJdW0NASF0yMylbQ0BIXShbQ0gyXTMpW0NIMl1bQ0gyXTI=

> <s_epik_cmdline>
J2VwaWtfcHl0aG9uJywgJy1waCcsICc3LjAnLCAnLXRuJywgJzgnLCAnLW1hJywgJzIwMCcsICctbWV0YWxfYmluZGluZycsICctaW1hZScsICc8aW5maWxlLm1hZT4nLCAnLW9tYWUnLCAnPG91dGZpbGUubWFlPic=

> <r_lp_tautomer_probability>
0.156392

> <r_epik_Ionization_Penalty>
0.0139374

> <r_epik_Ionization_Penalty_Charging>
0.0138122

> <r_epik_Ionization_Penalty_Neutral>
0.000125146

> <r_epik_State_Penalty>
1.15342

> <r_epik_Charging_Adjusted_Penalty>
1.16723

> <i_epik_Tot_Q>
0

> <i_epik_Tot_abs_Q>
0

> <r_epik_Metal_State_Penalty>
1.3173

> <b_epik_Metal_Only>
0

> <s_lp_Force_Field>
OPLS_2005

> <r_lp_Energy>
56.04

> <b_lp_Chiralities_Consistent>
1

> <s_lp_Variant>
AV-unprocessed.smi:2124-12

> <Gold.Version>
5.8.1

> <Gold.Id.Protein>
6NUR|6NUR_protein|mol2

> <Gold.PLP.Fitness>
42.5349

> <Gold.PLP.PLP>
-37.8600

> <Gold.PLP.part.hbond>
-2.7130

> <Gold.PLP.part.metal>
0.0000

> <Gold.PLP.part.buried>
-3.3976

> <Gold.PLP.part.nonpolar>
-31.9774

> <Gold.PLP.part.repulsive>
0.1643

> <Gold.PLP.ligand.clash>
0.0000

> <Gold.PLP.ligand.torsion>
0.4204

> <Gold.PLP.Chemscore.Hbond>
1.8300

> <Gold.PLP.Chemscore.CHOScore>
0.0000

> <Gold.PLP.Chemscore.Metal>
0.0000

> <Gold.Chemscore.Hbonds>
donor molecule, donor type, donor heavy atom, donor atom, acceptor molecule, acceptor atom, score
      P1  H  6896  6908       L1    21  0.88
      P1  H  7989  7998       L1     9  0.90

> <Gold.PLP.Chemscore.Internal.Correction>
0.0257

> <Gold.Rescore>
     Score         DG    S(hbond)    S(metal)    S(lipo)     H(rot)  DE(clash)    DE(int)     intcor
     18.77     -20.64       1.95        0.00     110.13       1.65       1.53       0.33       ----

> <Gold.Chemscore.Fitness>
18.7726

> <Gold.Chemscore.DG>
-20.6387

> <Gold.Chemscore.ZeroCoef>
-5.4800

> <Gold.Chemscore.Hbond>
1.9480

> <Gold.Chemscore.Metal>
0.0000

> <Gold.Chemscore.Lipo>
110.1282

> <Gold.Chemscore.Internal_Hbond>
0.0000

> <Gold.Chemscore.DEClash>
1.5316

> <Gold.Chemscore.DEInternal>
0.3345

> <Gold.Chemscore.Rot>
1.6534

> <Gold.Chemscore.Internal.Correction>
   9.000000E+99

> <Gold.Chemscore.Hbonds>
donor molecule, donor type, donor heavy atom, donor atom, acceptor molecule, acceptor atom, score
      P1  H  6896  6908       L1    21  0.16
      P1  H  6931  6943       L1    22  0.01
      P1  H  7989  7998       L1     9  0.85

> <Gold.Chemscore.Hbond.Weighted>
-6.5063

> <Gold.Chemscore.Metal.Weighted>
-0.0000

> <Gold.Chemscore.Lipo.Weighted>
-12.8850

> <Gold.Chemscore.Internal_Hbond.Weighted>
0.0000

> <Gold.Chemscore.DEClash.Weighted>
1.5316

> <Gold.Chemscore.DEInternal.Weighted>
0.3345

> <Gold.Chemscore.Rot.Weighted>
4.2326

> <Gold.Chemscore.Internal.Correction.Weighted>
   9.000000E+99

> <Gold.Protein.RotatedTorsions>
[ 6907 6896 6895 6894 ] final -135.80 input  -60.11 | X-H torsion
[ 7974 7965 7964 7962 ] final   24.10 input  175.53 | X-H torsion
[ 8008 7997 7996 7995 ] final -151.06 input   59.86 | X-H torsion
[ 10167 10162 10161 10158 ] final   -7.27 input  -65.29 | X-H torsion
[ 10718 10713 10712 10709 ] final   31.08 input   66.30 | X-H torsion
[ 10763 10752 10751 10750 ] final  -72.69 input  -60.55 | X-H torsion
[ 11005 11000 10999 10996 ] final   27.08 input  -57.11 | X-H torsion

> <Gold.Protein.ActiveResidues>
 VAL166  LYS551  ARG553  GLY616  TRP617  ASP618  TYR619  PRO620  LYS621  CYS622 
 ASP623  PHE694  ASN695  SER759  ASP760  ASP761  ALA762  ILE779  LEU786  VAL792 
 PHE793  MET794  SER795  GLU796  ALA797  LYS798  CYS799  TRP800  GLU811  SER814 

> <Gold.Protein.RotatedAtoms>
  151.0023  133.6044  159.2693 H   0  0  0  0  0  0  0  0  0  0  0  0  # atno 6907 bound_to 6896
  151.3226  135.0821  159.9321 H   0  0  0  0  0  0  0  0  0  0  0  0  # atno 6908 bound_to 6896
  152.5277  133.9667  159.7797 H   0  0  0  0  0  0  0  0  0  0  0  0  # atno 6909 bound_to 6896
  146.1953  139.7652  142.8801 H   0  0  0  0  0  0  0  0  0  0  0  0  # atno 7974 bound_to 7965
  155.6334  140.0694  157.2642 H   0  0  0  0  0  0  0  0  0  0  0  0  # atno 8008 bound_to 7997
  154.4200  140.1763  156.1545 H   0  0  0  0  0  0  0  0  0  0  0  0  # atno 8009 bound_to 7997
  155.9915  140.3344  155.6760 H   0  0  0  0  0  0  0  0  0  0  0  0  # atno 8010 bound_to 7997
  140.7024  143.6099  150.8714 H   0  0  0  0  0  0  0  0  0  0  0  0  # atno 10167 bound_to 10162
  157.2679  130.7193  149.6488 H   0  0  0  0  0  0  0  0  0  0  0  0  # atno 10718 bound_to 10713
  154.4491  135.5922  153.6180 H   0  0  0  0  0  0  0  0  0  0  0  0  # atno 10763 bound_to 10752
  152.9812  135.6016  154.3627 H   0  0  0  0  0  0  0  0  0  0  0  0  # atno 10764 bound_to 10752
  154.3486  135.2841  155.2363 H   0  0  0  0  0  0  0  0  0  0  0  0  # atno 10765 bound_to 10752
  140.3301  134.2447  155.7703 H   0  0  0  0  0  0  0  0  0  0  0  0  # atno 11005 bound_to 11000
  145.3662  141.0335  143.3257 LP  0  0  0  0  0  0  0  0  0  0  0  0  # atno 17320 bound_to 7965
  144.8569  139.5237  143.6830 LP  0  0  0  0  0  0  0  0  0  0  0  0  # atno 17321 bound_to 7965
  139.9822  143.5938  152.2939 LP  0  0  0  0  0  0  0  0  0  0  0  0  # atno 17342 bound_to 10162
  139.6563  144.7662  151.2048 LP  0  0  0  0  0  0  0  0  0  0  0  0  # atno 17343 bound_to 10162
  155.9663  130.4377  150.5185 LP  0  0  0  0  0  0  0  0  0  0  0  0  # atno 17370 bound_to 10713
  157.3104  131.0662  151.2005 LP  0  0  0  0  0  0  0  0  0  0  0  0  # atno 17371 bound_to 10713
  141.2065  133.7830  157.0171 LP  0  0  0  0  0  0  0  0  0  0  0  0  # atno 17394 bound_to 11000
  140.0868  134.9616  157.1712 LP  0  0  0  0  0  0  0  0  0  0  0  0  # atno 17395 bound_to 11000

$$$$
