AV-unprocessed.smi:389|AV-procd|sdf|2477|dock6
  -GOLD-   2262022413D 1   1.00000     0.00000
 Structure written by MMmdl.
 33 33  0  0  0  0  0  0  0  0  2 V2000
  152.7505  142.4551  160.6932 C   0  0  0  0  0  0  0  0  0  0  0  0
  152.4947  143.2570  159.4059 C   0  0  0  0  0  0  0  0  0  0  0  0
  152.1586  144.7177  159.7440 C   0  0  0  0  0  0  0  0  0  0  0  0
  151.3903  142.6310  158.5301 C   0  0  0  0  0  0  0  0  0  0  0  0
  151.2947  143.2349  157.1160 C   0  0  0  0  0  0  0  0  0  0  0  0
  150.4314  142.4421  156.2488 N   0  0  0  0  0  0  0  0  0  0  0  0
  150.6227  141.1501  155.9423 C   0  0  0  0  0  0  0  0  0  0  0  0
  151.5795  140.4941  156.3573 O   0  0  0  0  0  0  0  0  0  0  0  0
  149.5846  140.5223  155.0017 C   0  0  0  0  0  0  0  0  0  0  0  0
  148.2926  141.2273  155.0098 N   0  0  0  0  0  0  0  0  0  0  0  0
  147.7774  141.6598  153.7751 C   0  0  0  0  0  0  0  0  0  0  0  0
  146.6007  142.3081  153.6840 C   0  0  0  0  0  0  0  0  0  0  0  0
  145.8546  142.5597  154.9108 C   0  0  0  0  0  0  0  0  0  0  0  0
  144.7808  143.1552  154.8472 O   0  0  0  0  0  0  0  0  0  0  0  0
  146.3936  142.1155  156.0838 N   0  5  0  0  0  0  0  0  0  0  0  0
  147.5901  141.4537  156.1608 C   0  0  0  0  0  0  0  0  0  0  0  0
  148.0563  141.0571  157.2295 O   0  0  0  0  0  0  0  0  0  0  0  0
  151.8453  142.3754  161.2960 H   0  0  0  0  0  0  0  0  0  0  0  0
  153.5151  142.9326  161.3066 H   0  0  0  0  0  0  0  0  0  0  0  0
  153.0995  141.4456  160.4777 H   0  0  0  0  0  0  0  0  0  0  0  0
  153.4191  143.2660  158.8268 H   0  0  0  0  0  0  0  0  0  0  0  0
  151.2400  144.7889  160.3274 H   0  0  0  0  0  0  0  0  0  0  0  0
  152.0251  145.3114  158.8392 H   0  0  0  0  0  0  0  0  0  0  0  0
  152.9576  145.1812  160.3232 H   0  0  0  0  0  0  0  0  0  0  0  0
  151.5415  141.5527  158.4614 H   0  0  0  0  0  0  0  0  0  0  0  0
  150.4311  142.7671  159.0315 H   0  0  0  0  0  0  0  0  0  0  0  0
  150.9331  144.2637  157.1608 H   0  0  0  0  0  0  0  0  0  0  0  0
  152.2787  143.2702  156.6497 H   0  0  0  0  0  0  0  0  0  0  0  0
  149.6209  142.9050  155.8634 H   0  0  0  0  0  0  0  0  0  0  0  0
  149.9862  140.4851  153.9872 H   0  0  0  0  0  0  0  0  0  0  0  0
  149.4483  139.4801  155.2934 H   0  0  0  0  0  0  0  0  0  0  0  0
  148.3883  141.4269  152.9154 H   0  0  0  0  0  0  0  0  0  0  0  0
  146.2170  142.6301  152.7271 H   0  0  0  0  0  0  0  0  0  0  0  0
  1  2  1  0  0  0  0
  1 18  1  0  0  0  0
  1 19  1  0  0  0  0
  1 20  1  0  0  0  0
  2  3  1  0  0  0  0
  2  4  1  0  0  0  0
  2 21  1  0  0  0  0
  3 22  1  0  0  0  0
  3 23  1  0  0  0  0
  3 24  1  0  0  0  0
  4  5  1  0  0  0  0
  4 25  1  0  0  0  0
  4 26  1  0  0  0  0
  5  6  1  0  0  0  0
  5 27  1  0  0  0  0
  5 28  1  0  0  0  0
  6  7  1  0  0  0  0
  6 29  1  0  0  0  0
  7  8  2  0  0  0  0
  7  9  1  0  0  0  0
  9 10  1  0  0  0  0
  9 30  1  0  0  0  0
  9 31  1  0  0  0  0
 10 16  1  0  0  0  0
 10 11  1  0  0  0  0
 11 12  2  0  0  0  0
 11 32  1  0  0  0  0
 12 13  1  0  0  0  0
 12 33  1  0  0  0  0
 13 14  2  0  0  0  0
 13 15  1  0  0  0  0
 15 16  1  0  0  0  0
 16 17  2  0  0  0  0
M  CHG  1  15  -1
M  END
> <s_m_source_file>
AV-unprocessed.smi

> <i_m_source_file_index>
389

> <i_lp_mmshare_version>
43012

> <i_f3d_flags>
0

> <s_epik_input>
W0NIM11bQ0hdKFtDSDNdKVtDSDJdW0NIMl1bTkhdQyg9TylbQ0gyXW4xW2NIXVtjSF1jKD1PKVtuSF1jMT1P

> <s_epik_cmdline>
J2VwaWtfcHl0aG9uJywgJy1waCcsICc3LjAnLCAnLXRuJywgJzgnLCAnLW1hJywgJzIwMCcsICctbWV0YWxfYmluZGluZycsICctaW1hZScsICc8aW5maWxlLm1hZT4nLCAnLW9tYWUnLCAnPG91dGZpbGUubWFlPic=

> <r_lp_tautomer_probability>
0.999537

> <r_epik_Ionization_Penalty>
3.12283

> <r_epik_Ionization_Penalty_Charging>
2.83566e-08

> <r_epik_Ionization_Penalty_Neutral>
3.12283

> <r_epik_State_Penalty>
3.12192

> <r_epik_Charging_Adjusted_Penalty>
3.12192

> <i_epik_Tot_Q>
-1

> <i_epik_Tot_abs_Q>
1

> <r_epik_Metal_State_Penalty>
0.463748

> <b_epik_Metal_Only>
1

> <s_lp_Force_Field>
OPLS_2005

> <r_lp_Energy>
12.9702

> <b_lp_Chiralities_Consistent>
1

> <s_lp_Variant>
AV-unprocessed.smi:389-2

> <Gold.Version>
5.8.1

> <Gold.Id.Protein>
6NUR|6NUR_protein|mol2

> <Gold.PLP.Fitness>
40.2443

> <Gold.PLP.PLP>
-35.6779

> <Gold.PLP.part.hbond>
-1.0000

> <Gold.PLP.part.metal>
0.0000

> <Gold.PLP.part.buried>
-5.5776

> <Gold.PLP.part.nonpolar>
-28.8876

> <Gold.PLP.part.repulsive>
0.4570

> <Gold.PLP.ligand.clash>
0.0000

> <Gold.PLP.ligand.torsion>
0.4284

> <Gold.PLP.Chemscore.Hbond>
0.8160

> <Gold.PLP.Chemscore.CHOScore>
0.9881

> <Gold.PLP.Chemscore.Metal>
0.0000

> <Gold.Chemscore.Hbonds>
donor molecule, donor type, donor heavy atom, donor atom, acceptor molecule, acceptor atom, score
      L1  H     6    29       P1  8028  0.80
      L1  C    11    32       P1  7957  1.00

> <Gold.PLP.Chemscore.Internal.Correction>
0.0110

> <Gold.Rescore>
     Score         DG    S(hbond)    S(metal)    S(lipo)     H(rot)  DE(clash)    DE(int)     intcor
     11.31     -12.05       0.92        0.00      77.60       2.18       0.20       0.54       ----

> <Gold.Chemscore.Fitness>
11.3091

> <Gold.Chemscore.DG>
-12.0471

> <Gold.Chemscore.ZeroCoef>
-5.4800

> <Gold.Chemscore.Hbond>
0.9214

> <Gold.Chemscore.Metal>
0.0000

> <Gold.Chemscore.Lipo>
77.6007

> <Gold.Chemscore.Internal_Hbond>
0.0000

> <Gold.Chemscore.DEClash>
0.1976

> <Gold.Chemscore.DEInternal>
0.5405

> <Gold.Chemscore.Rot>
2.1834

> <Gold.Chemscore.Internal.Correction>
   9.000000E+99

> <Gold.Chemscore.Hbonds>
donor molecule, donor type, donor heavy atom, donor atom, acceptor molecule, acceptor atom, score
      L1  H     6    29       P1  8028  0.78

> <Gold.Chemscore.Hbond.Weighted>
-3.0773

> <Gold.Chemscore.Metal.Weighted>
-0.0000

> <Gold.Chemscore.Lipo.Weighted>
-9.0793

> <Gold.Chemscore.Internal_Hbond.Weighted>
0.0000

> <Gold.Chemscore.DEClash.Weighted>
0.1976

> <Gold.Chemscore.DEInternal.Weighted>
0.5405

> <Gold.Chemscore.Rot.Weighted>
5.5895

> <Gold.Chemscore.Internal.Correction.Weighted>
   9.000000E+99

> <Gold.Protein.RotatedTorsions>
[ 6907 6896 6895 6894 ] final  -34.58 input  -60.11 | X-H torsion
[ 7974 7965 7964 7962 ] final   97.34 input  175.53 | X-H torsion
[ 8008 7997 7996 7995 ] final  149.05 input   59.86 | X-H torsion
[ 10167 10162 10161 10158 ] final -151.75 input  -65.29 | X-H torsion
[ 10718 10713 10712 10709 ] final  -85.86 input   66.30 | X-H torsion
[ 10763 10752 10751 10750 ] final  -24.82 input  -60.55 | X-H torsion
[ 11005 11000 10999 10996 ] final  -65.75 input  -57.11 | X-H torsion

> <Gold.Protein.ActiveResidues>
 VAL166  LYS551  ARG553  GLY616  TRP617  ASP618  TYR619  PRO620  LYS621  CYS622 
 ASP623  PHE694  ASN695  SER759  ASP760  ASP761  ALA762  ILE779  LEU786  VAL792 
 PHE793  MET794  SER795  GLU796  ALA797  LYS798  CYS799  TRP800  GLU811  SER814 

> <Gold.Protein.RotatedAtoms>
  151.0508  134.9672  159.8210 H   0  0  0  0  0  0  0  0  0  0  0  0  # atno 6907 bound_to 6896
  152.5380  134.2539  159.8919 H   0  0  0  0  0  0  0  0  0  0  0  0  # atno 6908 bound_to 6896
  151.2555  133.4285  159.2647 H   0  0  0  0  0  0  0  0  0  0  0  0  # atno 6909 bound_to 6896
  145.4268  139.2315  143.3166 H   0  0  0  0  0  0  0  0  0  0  0  0  # atno 7974 bound_to 7965
  156.2769  140.2112  156.5795 H   0  0  0  0  0  0  0  0  0  0  0  0  # atno 8008 bound_to 7997
  154.7070  140.0515  157.0536 H   0  0  0  0  0  0  0  0  0  0  0  0  # atno 8009 bound_to 7997
  155.0657  140.3171  155.4649 H   0  0  0  0  0  0  0  0  0  0  0  0  # atno 8010 bound_to 7997
  139.7241  143.8911  152.2513 H   0  0  0  0  0  0  0  0  0  0  0  0  # atno 10167 bound_to 10162
  155.9993  130.4745  150.4626 H   0  0  0  0  0  0  0  0  0  0  0  0  # atno 10718 bound_to 10713
  153.6900  135.6962  153.5093 H   0  0  0  0  0  0  0  0  0  0  0  0  # atno 10763 bound_to 10752
  153.2420  135.4303  155.0707 H   0  0  0  0  0  0  0  0  0  0  0  0  # atno 10764 bound_to 10752
  154.8375  135.3510  154.6442 H   0  0  0  0  0  0  0  0  0  0  0  0  # atno 10765 bound_to 10752
  141.1463  133.6687  156.6034 H   0  0  0  0  0  0  0  0  0  0  0  0  # atno 11005 bound_to 11000
  146.2628  140.5000  142.8846 LP  0  0  0  0  0  0  0  0  0  0  0  0  # atno 17320 bound_to 7965
  144.8209  140.6548  143.6354 LP  0  0  0  0  0  0  0  0  0  0  0  0  # atno 17321 bound_to 7965
  139.8815  144.7015  150.8872 LP  0  0  0  0  0  0  0  0  0  0  0  0  # atno 17342 bound_to 10162
  140.7759  143.3657  151.1743 LP  0  0  0  0  0  0  0  0  0  0  0  0  # atno 17343 bound_to 10162
  157.2649  131.0575  151.2297 LP  0  0  0  0  0  0  0  0  0  0  0  0  # atno 17370 bound_to 10713
  157.3398  130.7027  149.6375 LP  0  0  0  0  0  0  0  0  0  0  0  0  # atno 17371 bound_to 10713
  140.3670  134.7638  157.4573 LP  0  0  0  0  0  0  0  0  0  0  0  0  # atno 17394 bound_to 11000
  140.0740  134.5823  155.8611 LP  0  0  0  0  0  0  0  0  0  0  0  0  # atno 17395 bound_to 11000

$$$$
