AV-unprocessed.smi:1605|AV-procd|sdf|6452|dock6
  -GOLD-   22720 7103D 1   1.00000     0.00000
 Structure written by MMmdl.
 51 53  0  0  0  0  0  0  0  0  2 V2000
  144.4414  135.5921  152.1097 C   0  0  0  0  0  0  0  0  0  0  0  0
  144.3381  136.4517  153.2340 O   0  0  0  0  0  0  0  0  0  0  0  0
  145.4784  137.2712  153.4540 C   0  0  2  0  0  0  0  0  0  0  0  0
  145.1067  138.3002  154.5316 C   0  0  0  0  0  0  0  0  0  0  0  0
  146.2472  139.3052  154.7618 C   0  0  0  0  0  0  0  0  0  0  0  0
  146.6147  139.9951  153.4982 N   0  3  1  0  0  0  0  0  0  0  0  0
  147.6100  141.0762  153.7183 C   0  0  0  0  0  0  0  0  0  0  0  0
  148.8885  140.5862  154.4356 C   0  0  1  0  0  0  0  0  0  0  0  0
  149.6952  139.8864  153.5077 O   0  0  0  0  0  0  0  0  0  0  0  0
  149.7166  141.7329  155.0582 C   0  0  0  0  0  0  0  0  0  0  0  0
  150.7378  141.2823  155.9908 N   0  0  0  0  0  0  0  0  0  0  0  0
  151.4829  140.1634  155.9006 C   0  0  0  0  0  0  0  0  0  0  0  0
  152.3587  139.9335  156.8738 N   0  0  0  0  0  0  0  0  0  0  0  0
  152.1721  141.0404  157.6842 C   0  0  0  0  0  0  0  0  0  0  0  0
  152.8016  141.4080  158.8936 C   0  0  0  0  0  0  0  0  0  0  0  0
  152.4496  142.6033  159.5601 C   0  0  0  0  0  0  0  0  0  0  0  0
  153.1518  142.9595  160.8589 C   0  0  0  0  0  0  0  0  0  0  0  0
  151.4547  143.4539  159.0148 C   0  0  0  0  0  0  0  0  0  0  0  0
  151.0618  144.7452  159.7105 C   0  0  0  0  0  0  0  0  0  0  0  0
  150.8141  143.1004  157.8091 C   0  0  0  0  0  0  0  0  0  0  0  0
  151.1698  141.9066  157.1568 C   0  0  0  0  0  0  0  0  0  0  0  0
  147.0190  139.0218  152.4484 C   0  0  0  0  0  0  0  0  0  0  0  0
  145.8956  138.0095  152.1682 C   0  0  0  0  0  0  0  0  0  0  0  0
  143.5463  134.9736  152.0446 H   0  0  0  0  0  0  0  0  0  0  0  0
  145.3002  134.9258  152.1987 H   0  0  0  0  0  0  0  0  0  0  0  0
  144.5248  136.1503  151.1773 H   0  0  0  0  0  0  0  0  0  0  0  0
  146.3081  136.6654  153.8235 H   0  0  0  0  0  0  0  0  0  0  0  0
  144.2050  138.8372  154.2335 H   0  0  0  0  0  0  0  0  0  0  0  0
  144.8677  137.7907  155.4657 H   0  0  0  0  0  0  0  0  0  0  0  0
  145.9289  140.0375  155.5048 H   0  0  0  0  0  0  0  0  0  0  0  0
  147.1227  138.7978  155.1705 H   0  0  0  0  0  0  0  0  0  0  0  0
  147.8935  141.5052  152.7561 H   0  0  0  0  0  0  0  0  0  0  0  0
  147.1408  141.8834  154.2830 H   0  0  0  0  0  0  0  0  0  0  0  0
  148.6373  139.8949  155.2389 H   0  0  0  0  0  0  0  0  0  0  0  0
  149.3196  139.9721  152.6451 H   0  0  0  0  0  0  0  0  0  0  0  0
  150.2070  142.3024  154.2675 H   0  0  0  0  0  0  0  0  0  0  0  0
  149.0616  142.4352  155.5759 H   0  0  0  0  0  0  0  0  0  0  0  0
  151.3685  139.4731  155.0776 H   0  0  0  0  0  0  0  0  0  0  0  0
  153.5618  140.7616  159.3069 H   0  0  0  0  0  0  0  0  0  0  0  0
  153.7229  143.8807  160.7425 H   0  0  0  0  0  0  0  0  0  0  0  0
  153.8416  142.1736  161.1674 H   0  0  0  0  0  0  0  0  0  0  0  0
  152.4271  143.0992  161.6614 H   0  0  0  0  0  0  0  0  0  0  0  0
  150.3252  145.3015  159.1302 H   0  0  0  0  0  0  0  0  0  0  0  0
  151.9321  145.3875  159.8481 H   0  0  0  0  0  0  0  0  0  0  0  0
  150.6279  144.5342  160.6882 H   0  0  0  0  0  0  0  0  0  0  0  0
  150.0524  143.7378  157.3849 H   0  0  0  0  0  0  0  0  0  0  0  0
  147.2640  139.5376  151.5210 H   0  0  0  0  0  0  0  0  0  0  0  0
  147.9232  138.4988  152.7640 H   0  0  0  0  0  0  0  0  0  0  0  0
  146.2323  137.3026  151.4102 H   0  0  0  0  0  0  0  0  0  0  0  0
  145.0338  138.5287  151.7463 H   0  0  0  0  0  0  0  0  0  0  0  0
  145.7719  140.4483  153.1750 H   0  0  0  0  0  0  0  0  0  0  0  0
  1  2  1  0  0  0  0
  1 24  1  0  0  0  0
  1 25  1  0  0  0  0
  1 26  1  0  0  0  0
  2  3  1  0  0  0  0
  3 23  1  0  0  0  0
  3  4  1  0  0  0  0
  3 27  1  0  0  0  0
  4  5  1  0  0  0  0
  4 28  1  0  0  0  0
  4 29  1  0  0  0  0
  5  6  1  0  0  0  0
  5 30  1  0  0  0  0
  5 31  1  0  0  0  0
  6  7  1  0  0  0  0
  6 22  1  0  0  0  0
  6 51  1  0  0  0  0
  7  8  1  0  0  0  0
  7 32  1  0  0  0  0
  7 33  1  0  0  0  0
  8  9  1  0  0  0  0
  8 10  1  0  0  0  0
  8 34  1  0  0  0  0
  9 35  1  0  0  0  0
 10 11  1  0  0  0  0
 10 36  1  0  0  0  0
 10 37  1  0  0  0  0
 11 21  1  0  0  0  0
 11 12  1  0  0  0  0
 12 13  2  0  0  0  0
 12 38  1  0  0  0  0
 13 14  1  0  0  0  0
 14 21  2  0  0  0  0
 14 15  1  0  0  0  0
 15 16  2  0  0  0  0
 15 39  1  0  0  0  0
 16 17  1  0  0  0  0
 16 18  1  0  0  0  0
 17 40  1  0  0  0  0
 17 41  1  0  0  0  0
 17 42  1  0  0  0  0
 18 19  1  0  0  0  0
 18 20  2  0  0  0  0
 19 43  1  0  0  0  0
 19 44  1  0  0  0  0
 19 45  1  0  0  0  0
 20 21  1  0  0  0  0
 20 46  1  0  0  0  0
 22 23  1  0  0  0  0
 22 47  1  0  0  0  0
 22 48  1  0  0  0  0
 23 49  1  0  0  0  0
 23 50  1  0  0  0  0
M  CHG  1   6   1
M  END
> <s_m_source_file>
AV-unprocessed.smi

> <i_m_source_file_index>
1605

> <i_lp_mmshare_version>
43012

> <i_f3d_flags>
0

> <s_epik_input>
W0NIM11PW0NIXTFbQ0gyXVtDSDJdTihbQ0gyXVtDSDJdMSlbQ0gyXVtDQEhdKFtPSF0pW0NIMl1uKFtjSF1uMiljKGMyMylbY0hdYyhbQ0gzXSljKFtjSF0zKVtDSDNd

> <s_epik_cmdline>
J2VwaWtfcHl0aG9uJywgJy1waCcsICc3LjAnLCAnLXRuJywgJzgnLCAnLW1hJywgJzIwMCcsICctbWV0YWxfYmluZGluZycsICctaW1hZScsICc8aW5maWxlLm1hZT4nLCAnLW9tYWUnLCAnPG91dGZpbGUubWFlPic=

> <r_epik_Ionization_Penalty>
0.110943

> <r_epik_Ionization_Penalty_Charging>
0.0229283

> <r_epik_Ionization_Penalty_Neutral>
0.0880146

> <r_epik_State_Penalty>
0.0947554

> <r_epik_Charging_Adjusted_Penalty>
0.117684

> <i_epik_Tot_Q>
1

> <i_epik_Tot_abs_Q>
1

> <r_epik_Metal_State_Penalty>
0.0192456

> <b_epik_Metal_Only>
0

> <s_lp_Force_Field>
OPLS_2005

> <r_lp_Energy>
23.4204

> <b_lp_Chiralities_Consistent>
1

> <s_lp_Variant>
AV-unprocessed.smi:1605-2

> <Gold.Version>
5.8.1

> <Gold.Id.Protein>
6NUR|6NUR_protein|mol2

> <Gold.PLP.Fitness>
55.1338

> <Gold.PLP.PLP>
-45.7928

> <Gold.PLP.part.hbond>
-3.0203

> <Gold.PLP.part.metal>
0.0000

> <Gold.PLP.part.buried>
-3.3592

> <Gold.PLP.part.nonpolar>
-39.6244

> <Gold.PLP.part.repulsive>
0.1057

> <Gold.PLP.ligand.clash>
0.0086

> <Gold.PLP.ligand.torsion>
0.6596

> <Gold.PLP.Chemscore.Hbond>
3.5437

> <Gold.PLP.Chemscore.CHOScore>
0.0000

> <Gold.PLP.Chemscore.Metal>
0.0000

> <Gold.Chemscore.Hbonds>
donor molecule, donor type, donor heavy atom, donor atom, acceptor molecule, acceptor atom, score
      L1  H     6    51       P1 10175  1.17
      L1  H     9    35       P1  7957  0.87
      P1  H  7989  7998       L1     9  0.47
      P1  H  7997  8008       L1    13  0.95

> <Gold.PLP.Chemscore.Internal.Correction>
0.0379

> <Gold.Rescore>
     Score         DG    S(hbond)    S(metal)    S(lipo)     H(rot)  DE(clash)    DE(int)     intcor
     19.94     -22.06       2.61        0.00     115.70       2.22       0.41       1.72       ----

> <Gold.Chemscore.Fitness>
19.9384

> <Gold.Chemscore.DG>
-22.0620

> <Gold.Chemscore.ZeroCoef>
-5.4800

> <Gold.Chemscore.Hbond>
2.6110

> <Gold.Chemscore.Metal>
0.0000

> <Gold.Chemscore.Lipo>
115.6977

> <Gold.Chemscore.Internal_Hbond>
0.0000

> <Gold.Chemscore.DEClash>
0.4069

> <Gold.Chemscore.DEInternal>
1.7167

> <Gold.Chemscore.Rot>
2.2169

> <Gold.Chemscore.Internal.Correction>
   9.000000E+99

> <Gold.Chemscore.Hbonds>
donor molecule, donor type, donor heavy atom, donor atom, acceptor molecule, acceptor atom, score
      L1  H     6    51       P1 10175  0.53
      L1  H     9    35       P1  7957  0.80
      P1  H  7989  7998       L1     9  0.17
      P1  H  7997  8008       L1    13  0.20

> <Gold.Chemscore.Hbond.Weighted>
-8.7207

> <Gold.Chemscore.Metal.Weighted>
-0.0000

> <Gold.Chemscore.Lipo.Weighted>
-13.5366

> <Gold.Chemscore.Internal_Hbond.Weighted>
0.0000

> <Gold.Chemscore.DEClash.Weighted>
0.4069

> <Gold.Chemscore.DEInternal.Weighted>
1.7167

> <Gold.Chemscore.Rot.Weighted>
5.6753

> <Gold.Chemscore.Internal.Correction.Weighted>
   9.000000E+99

> <Gold.Protein.RotatedTorsions>
[ 6907 6896 6895 6894 ] final   86.54 input  -60.11 | X-H torsion
[ 7974 7965 7964 7962 ] final  148.59 input  175.53 | X-H torsion
[ 8008 7997 7996 7995 ] final  -54.82 input   59.86 | X-H torsion
[ 10167 10162 10161 10158 ] final   94.69 input  -65.29 | X-H torsion
[ 10718 10713 10712 10709 ] final  143.58 input   66.30 | X-H torsion
[ 10763 10752 10751 10750 ] final  -46.36 input  -60.55 | X-H torsion
[ 11005 11000 10999 10996 ] final    6.78 input  -57.11 | X-H torsion

> <Gold.Protein.ActiveResidues>
 VAL166  LYS551  ARG553  GLY616  TRP617  ASP618  TYR619  PRO620  LYS621  CYS622 
 ASP623  PHE694  ASN695  SER759  ASP760  ASP761  ALA762  ILE779  LEU786  VAL792 
 PHE793  MET794  SER795  GLU796  ALA797  LYS798  CYS799  TRP800  GLU811  SER814 

> <Gold.Protein.RotatedAtoms>
  152.5396  134.2416  159.8863 H   0  0  0  0  0  0  0  0  0  0  0  0  # atno 6907 bound_to 6896
  151.2383  133.4406  159.2614 H   0  0  0  0  0  0  0  0  0  0  0  0  # atno 6908 bound_to 6896
  151.0651  134.9775  159.8336 H   0  0  0  0  0  0  0  0  0  0  0  0  # atno 6909 bound_to 6896
  144.8502  139.6174  143.5977 H   0  0  0  0  0  0  0  0  0  0  0  0  # atno 7974 bound_to 7965
  154.4175  140.1167  156.5377 H   0  0  0  0  0  0  0  0  0  0  0  0  # atno 8008 bound_to 7997
  155.6540  140.3496  155.4739 H   0  0  0  0  0  0  0  0  0  0  0  0  # atno 8009 bound_to 7997
  155.9768  140.1152  157.0752 H   0  0  0  0  0  0  0  0  0  0  0  0  # atno 8010 bound_to 7997
  139.8059  144.6794  150.9703 H   0  0  0  0  0  0  0  0  0  0  0  0  # atno 10167 bound_to 10162
  157.3672  131.0974  151.0861 H   0  0  0  0  0  0  0  0  0  0  0  0  # atno 10718 bound_to 10713
  154.0436  135.6640  153.4792 H   0  0  0  0  0  0  0  0  0  0  0  0  # atno 10763 bound_to 10752
  153.0491  135.5095  154.7818 H   0  0  0  0  0  0  0  0  0  0  0  0  # atno 10764 bound_to 10752
  154.6802  135.3044  154.9589 H   0  0  0  0  0  0  0  0  0  0  0  0  # atno 10765 bound_to 10752
  140.5556  134.0241  155.7953 H   0  0  0  0  0  0  0  0  0  0  0  0  # atno 11005 bound_to 11000
  146.2778  139.6798  142.9250 LP  0  0  0  0  0  0  0  0  0  0  0  0  # atno 17320 bound_to 7965
  145.4516  141.0428  143.2801 LP  0  0  0  0  0  0  0  0  0  0  0  0  # atno 17321 bound_to 7965
  140.7819  143.4233  151.0807 LP  0  0  0  0  0  0  0  0  0  0  0  0  # atno 17342 bound_to 10162
  139.7903  143.8228  152.3150 LP  0  0  0  0  0  0  0  0  0  0  0  0  # atno 17343 bound_to 10162
  157.1979  130.6381  149.5728 LP  0  0  0  0  0  0  0  0  0  0  0  0  # atno 17370 bound_to 10713
  155.9748  130.4701  150.6417 LP  0  0  0  0  0  0  0  0  0  0  0  0  # atno 17371 bound_to 10713
  141.1145  133.9562  157.2848 LP  0  0  0  0  0  0  0  0  0  0  0  0  # atno 17394 bound_to 11000
  139.9433  135.0188  156.8775 LP  0  0  0  0  0  0  0  0  0  0  0  0  # atno 17395 bound_to 11000

$$$$
