AV-unprocessed.smi:2727|AV-procd|sdf|10523|dock3
  -GOLD-   2272014563D 1   1.00000     0.00000
 Structure written by MMmdl.
 40 41  0  0  0  0  0  0  0  0  1 V2000
  150.3772  139.5214  154.1202 O   0  0  0  0  0  0  0  0  0  0  0  0
  150.9414  139.1045  155.1373 C   0  0  0  0  0  0  0  0  0  0  0  0
  151.1307  139.8939  156.2057 N   0  0  0  0  0  0  0  0  0  0  0  0
  150.7074  141.2864  156.3115 C   0  0  0  0  0  0  0  0  0  0  0  0
  150.7322  141.7768  157.7737 C   0  0  0  0  0  0  0  0  0  0  0  0
  152.0731  141.5263  158.4868 C   0  0  0  0  0  0  0  0  0  0  0  0
  152.5139  140.3769  158.5462 O   0  0  0  0  0  0  0  0  0  0  0  0
  152.7303  142.5751  159.0406 N   0  0  0  0  0  0  0  0  0  0  0  0
  153.9720  142.3853  159.8005 C   0  0  0  0  0  0  0  0  0  0  0  0
  153.6995  141.9613  161.2582 C   0  0  0  0  0  0  0  0  0  0  0  0
  152.4458  142.5788  161.9162 C   0  0  0  0  0  0  0  0  0  0  0  0
  152.2071  144.0703  161.6083 C   0  0  0  0  0  0  0  0  0  0  0  0
  151.4582  144.3177  160.2814 C   0  0  0  0  0  0  0  0  0  0  0  0
  152.2651  143.9693  159.0162 C   0  0  0  0  0  0  0  0  0  0  0  0
  151.4539  137.8381  155.3830 N   0  0  0  0  0  0  0  0  0  0  0  0
  150.6886  136.7947  155.2783 C   0  0  0  0  0  0  0  0  0  0  0  0
  149.3458  136.6308  154.9472 N   0  0  0  0  0  0  0  0  0  0  0  0
  149.0541  135.2964  154.9952 C   0  0  0  0  0  0  0  0  0  0  0  0
  150.1609  134.6456  155.3402 C   0  0  0  0  0  0  0  0  0  0  0  0
  151.1773  135.5355  155.5193 O   0  0  0  0  0  0  0  0  0  0  0  0
  151.5964  139.4965  157.0088 H   0  0  0  0  0  0  0  0  0  0  0  0
  151.3407  141.9112  155.6785 H   0  0  0  0  0  0  0  0  0  0  0  0
  149.6964  141.3610  155.9095 H   0  0  0  0  0  0  0  0  0  0  0  0
  150.5099  142.8441  157.8030 H   0  0  0  0  0  0  0  0  0  0  0  0
  149.9431  141.2701  158.3288 H   0  0  0  0  0  0  0  0  0  0  0  0
  154.6214  141.6562  159.3129 H   0  0  0  0  0  0  0  0  0  0  0  0
  154.5544  143.3071  159.8093 H   0  0  0  0  0  0  0  0  0  0  0  0
  153.6072  140.8755  161.3045 H   0  0  0  0  0  0  0  0  0  0  0  0
  154.5783  142.2059  161.8559 H   0  0  0  0  0  0  0  0  0  0  0  0
  151.5616  142.0074  161.6303 H   0  0  0  0  0  0  0  0  0  0  0  0
  152.5350  142.4487  162.9952 H   0  0  0  0  0  0  0  0  0  0  0  0
  151.5990  144.4871  162.4117 H   0  0  0  0  0  0  0  0  0  0  0  0
  153.1477  144.6218  161.6309 H   0  0  0  0  0  0  0  0  0  0  0  0
  150.5193  143.7636  160.2885 H   0  0  0  0  0  0  0  0  0  0  0  0
  151.1772  145.3700  160.2297 H   0  0  0  0  0  0  0  0  0  0  0  0
  153.1137  144.6490  158.9311 H   0  0  0  0  0  0  0  0  0  0  0  0
  151.6685  144.1789  158.1286 H   0  0  0  0  0  0  0  0  0  0  0  0
  148.6697  137.3422  154.7086 H   0  0  0  0  0  0  0  0  0  0  0  0
  148.0573  134.9460  154.7715 H   0  0  0  0  0  0  0  0  0  0  0  0
  150.3786  133.5989  155.4933 H   0  0  0  0  0  0  0  0  0  0  0  0
  1  2  2  0  0  0  0
  2 15  1  0  0  0  0
  2  3  1  0  0  0  0
  3  4  1  0  0  0  0
  3 21  1  0  0  0  0
  4  5  1  0  0  0  0
  4 22  1  0  0  0  0
  4 23  1  0  0  0  0
  5  6  1  0  0  0  0
  5 24  1  0  0  0  0
  5 25  1  0  0  0  0
  6  7  2  0  0  0  0
  6  8  1  0  0  0  0
  8 14  1  0  0  0  0
  8  9  1  0  0  0  0
  9 10  1  0  0  0  0
  9 26  1  0  0  0  0
  9 27  1  0  0  0  0
 10 11  1  0  0  0  0
 10 28  1  0  0  0  0
 10 29  1  0  0  0  0
 11 12  1  0  0  0  0
 11 30  1  0  0  0  0
 11 31  1  0  0  0  0
 12 13  1  0  0  0  0
 12 32  1  0  0  0  0
 12 33  1  0  0  0  0
 13 14  1  0  0  0  0
 13 34  1  0  0  0  0
 13 35  1  0  0  0  0
 14 36  1  0  0  0  0
 14 37  1  0  0  0  0
 15 16  2  0  0  0  0
 16 20  1  0  0  0  0
 16 17  1  0  0  0  0
 17 38  1  0  0  0  0
 17 18  1  0  0  0  0
 18 39  1  0  0  0  0
 18 19  2  0  0  0  0
 19 40  1  0  0  0  0
 19 20  1  0  0  0  0
M  END
> <s_m_source_file>
AV-unprocessed.smi

> <i_m_source_file_index>
2727

> <i_lp_mmshare_version>
43012

> <i_f3d_flags>
0

> <s_epik_input>
bzFbY0hdW2NIXW5jMVtOSF1DKD1PKVtOSF1bQ0gyXVtDSDJdQyg9TylOMltDSDJdW0NIMl1bQ0gyXVtDSDJdW0NIMl1bQ0gyXTI=

> <s_epik_cmdline>
J2VwaWtfcHl0aG9uJywgJy1waCcsICc3LjAnLCAnLXRuJywgJzgnLCAnLW1hJywgJzIwMCcsICctbWV0YWxfYmluZGluZycsICctaW1hZScsICc8aW5maWxlLm1hZT4nLCAnLW9tYWUnLCAnPG91dGZpbGUubWFlPic=

> <r_lp_tautomer_probability>
0.107061

> <r_epik_Ionization_Penalty>
0.376272

> <r_epik_Ionization_Penalty_Charging>
0.375918

> <r_epik_Ionization_Penalty_Neutral>
0.000353756

> <r_epik_State_Penalty>
2.48665

> <r_epik_Charging_Adjusted_Penalty>
2.86256

> <i_epik_Tot_Q>
0

> <i_epik_Tot_abs_Q>
0

> <r_epik_Metal_State_Penalty>
4.1171

> <b_epik_Metal_Only>
0

> <s_lp_Force_Field>
OPLS_2005

> <r_lp_Energy>
47.9019

> <b_lp_Chiralities_Consistent>
1

> <s_lp_Variant>
AV-unprocessed.smi:2727-3

> <Gold.Version>
5.8.1

> <Gold.Id.Protein>
6NUR|6NUR_protein|mol2

> <Gold.PLP.Fitness>
48.4269

> <Gold.PLP.PLP>
-43.7044

> <Gold.PLP.part.hbond>
-2.7499

> <Gold.PLP.part.metal>
0.0000

> <Gold.PLP.part.buried>
-5.8867

> <Gold.PLP.part.nonpolar>
-35.0298

> <Gold.PLP.part.repulsive>
0.6301

> <Gold.PLP.ligand.clash>
0.0000

> <Gold.PLP.ligand.torsion>
0.6479

> <Gold.PLP.Chemscore.Hbond>
2.0000

> <Gold.PLP.Chemscore.CHOScore>
0.0000

> <Gold.PLP.Chemscore.Metal>
0.0000

> <Gold.Chemscore.Hbonds>
donor molecule, donor type, donor heavy atom, donor atom, acceptor molecule, acceptor atom, score
      P1  H  7989  7998       L1     1  1.00
      P1  H 10752 10765       L1    20  1.00

> <Gold.PLP.Chemscore.Internal.Correction>
0.0182

> <Gold.Rescore>
     Score         DG    S(hbond)    S(metal)    S(lipo)     H(rot)  DE(clash)    DE(int)     intcor
     14.07     -16.17       1.20        0.00      94.38       1.70       0.12       1.98       ----

> <Gold.Chemscore.Fitness>
14.0700

> <Gold.Chemscore.DG>
-16.1653

> <Gold.Chemscore.ZeroCoef>
-5.4800

> <Gold.Chemscore.Hbond>
1.1979

> <Gold.Chemscore.Metal>
0.0000

> <Gold.Chemscore.Lipo>
94.3819

> <Gold.Chemscore.Internal_Hbond>
0.0000

> <Gold.Chemscore.DEClash>
0.1159

> <Gold.Chemscore.DEInternal>
1.9794

> <Gold.Chemscore.Rot>
1.7025

> <Gold.Chemscore.Internal.Correction>
   9.000000E+99

> <Gold.Chemscore.Hbonds>
donor molecule, donor type, donor heavy atom, donor atom, acceptor molecule, acceptor atom, score
      P1  H  7989  7998       L1     1  0.34
      P1  H 10752 10765       L1    20  0.49

> <Gold.Chemscore.Hbond.Weighted>
-4.0010

> <Gold.Chemscore.Metal.Weighted>
-0.0000

> <Gold.Chemscore.Lipo.Weighted>
-11.0427

> <Gold.Chemscore.Internal_Hbond.Weighted>
0.0000

> <Gold.Chemscore.DEClash.Weighted>
0.1159

> <Gold.Chemscore.DEInternal.Weighted>
1.9794

> <Gold.Chemscore.Rot.Weighted>
4.3584

> <Gold.Chemscore.Internal.Correction.Weighted>
   9.000000E+99

> <Gold.Protein.RotatedTorsions>
[ 6907 6896 6895 6894 ] final -115.85 input  -60.11 | X-H torsion
[ 7974 7965 7964 7962 ] final -161.85 input  175.53 | X-H torsion
[ 8008 7997 7996 7995 ] final   -8.31 input   59.86 | X-H torsion
[ 10167 10162 10161 10158 ] final -124.64 input  -65.29 | X-H torsion
[ 10718 10713 10712 10709 ] final -171.04 input   66.30 | X-H torsion
[ 10763 10752 10751 10750 ] final -171.59 input  -60.55 | X-H torsion
[ 11005 11000 10999 10996 ] final  -45.87 input  -57.11 | X-H torsion

> <Gold.Protein.ActiveResidues>
 VAL166  LYS551  ARG553  GLY616  TRP617  ASP618  TYR619  PRO620  LYS621  CYS622 
 ASP623  PHE694  ASN695  SER759  ASP760  ASP761  ALA762  ILE779  LEU786  VAL792 
 PHE793  MET794  SER795  GLU796  ALA797  LYS798  CYS799  TRP800  GLU811  SER814 

> <Gold.Protein.RotatedAtoms>
  150.8010  133.8600  159.3228 H   0  0  0  0  0  0  0  0  0  0  0  0  # atno 6907 bound_to 6896
  151.6412  135.1010  160.0151 H   0  0  0  0  0  0  0  0  0  0  0  0  # atno 6908 bound_to 6896
  152.4097  133.6904  159.6422 H   0  0  0  0  0  0  0  0  0  0  0  0  # atno 6909 bound_to 6896
  144.7377  140.3338  143.6148 H   0  0  0  0  0  0  0  0  0  0  0  0  # atno 7974 bound_to 7965
  154.5753  140.2384  155.8132 H   0  0  0  0  0  0  0  0  0  0  0  0  # atno 8008 bound_to 7997
  156.2138  140.3018  155.9750 H   0  0  0  0  0  0  0  0  0  0  0  0  # atno 8009 bound_to 7997
  155.2638  140.0415  157.2990 H   0  0  0  0  0  0  0  0  0  0  0  0  # atno 8010 bound_to 7997
  139.9906  143.5644  152.2343 H   0  0  0  0  0  0  0  0  0  0  0  0  # atno 10167 bound_to 10162
  156.7350  130.9321  151.3107 H   0  0  0  0  0  0  0  0  0  0  0  0  # atno 10718 bound_to 10713
  154.6288  135.2884  155.0241 H   0  0  0  0  0  0  0  0  0  0  0  0  # atno 10763 bound_to 10752
  154.1409  135.6518  153.4946 H   0  0  0  0  0  0  0  0  0  0  0  0  # atno 10764 bound_to 10752
  153.0270  135.5332  154.7107 H   0  0  0  0  0  0  0  0  0  0  0  0  # atno 10765 bound_to 10752
  141.0543  133.6731  156.3074 H   0  0  0  0  0  0  0  0  0  0  0  0  # atno 11005 bound_to 11000
  145.7445  139.1774  143.2357 LP  0  0  0  0  0  0  0  0  0  0  0  0  # atno 17320 bound_to 7965
  146.1109  140.7430  142.9504 LP  0  0  0  0  0  0  0  0  0  0  0  0  # atno 17321 bound_to 7965
  139.6342  144.7648  151.2472 LP  0  0  0  0  0  0  0  0  0  0  0  0  # atno 17342 bound_to 10162
  140.7456  143.6426  150.8321 LP  0  0  0  0  0  0  0  0  0  0  0  0  # atno 17343 bound_to 10162
  157.6843  130.9170  150.0345 LP  0  0  0  0  0  0  0  0  0  0  0  0  # atno 17370 bound_to 10713
  156.1503  130.3642  149.9448 LP  0  0  0  0  0  0  0  0  0  0  0  0  # atno 17371 bound_to 10713
  140.5995  134.5569  157.5515 LP  0  0  0  0  0  0  0  0  0  0  0  0  # atno 17394 bound_to 11000
  139.9376  134.7845  156.0761 LP  0  0  0  0  0  0  0  0  0  0  0  0  # atno 17395 bound_to 11000

$$$$
