AV-unprocessed.smi:2279|AV-procd|sdf|9188|dock10
  -GOLD-   2272012403D 1   1.00000     0.00000
 Structure written by MMmdl.
 57 59  0  0  0  0  0  0  0  0  2 V2000
  151.8666  145.9412  159.6839 C   0  0  0  0  0  0  0  0  0  0  0  0
  151.9610  144.4998  159.2295 C   0  0  0  0  0  0  0  0  0  0  0  0
  152.8810  143.6143  159.8226 C   0  0  0  0  0  0  0  0  0  0  0  0
  152.9215  142.2861  159.3551 C   0  0  0  0  0  0  0  0  0  0  0  0
  153.8856  141.2803  159.9482 C   0  0  0  0  0  0  0  0  0  0  0  0
  152.1244  141.8289  158.3659 N   0  0  0  0  0  0  0  0  0  0  0  0
  151.2355  142.6731  157.7860 C   0  0  0  0  0  0  0  0  0  0  0  0
  150.3510  142.2907  156.7428 N   0  0  0  0  0  0  0  0  0  0  0  0
  150.1947  141.0753  156.1889 C   0  0  0  0  0  0  0  0  0  0  0  0
  150.8335  140.0666  156.4903 O   0  0  0  0  0  0  0  0  0  0  0  0
  149.2442  141.0926  155.2429 N   0  0  0  0  0  0  0  0  0  0  0  0
  148.8333  139.9426  154.4426 C   0  0  0  0  0  0  0  0  0  0  0  0
  147.5338  140.2387  153.6826 C   0  0  0  0  0  0  0  0  0  0  0  0
  147.0257  138.9825  152.9552 C   0  0  0  0  0  0  0  0  0  0  0  0
  146.7644  137.8816  153.8974 N   0  0  0  0  0  0  0  0  0  0  0  0
  146.1364  136.7452  153.1878 C   0  0  2  0  0  0  0  0  0  0  0  0
  144.8941  137.1974  152.3786 C   0  0  0  0  0  0  0  0  0  0  0  0
  143.7002  137.5354  153.2904 C   0  0  0  0  0  0  0  0  0  0  0  0
  143.3411  136.3863  154.1566 N   0  3  2  0  0  0  0  0  0  0  0  0
  142.1378  136.6514  154.9739 C   0  0  0  0  0  0  0  0  0  0  0  0
  144.4884  135.9254  154.9750 C   0  0  0  0  0  0  0  0  0  0  0  0
  145.6899  135.5622  154.0847 C   0  0  0  0  0  0  0  0  0  0  0  0
  148.0356  137.5376  154.5533 C   0  0  0  0  0  0  0  0  0  0  0  0
  148.5986  138.7296  155.3481 C   0  0  0  0  0  0  0  0  0  0  0  0
  151.1280  144.0203  158.1984 C   0  0  0  0  0  0  0  0  0  0  0  0
  152.4261  146.1025  160.6058 H   0  0  0  0  0  0  0  0  0  0  0  0
  150.8271  146.2162  159.8649 H   0  0  0  0  0  0  0  0  0  0  0  0
  152.2701  146.6038  158.9181 H   0  0  0  0  0  0  0  0  0  0  0  0
  153.5383  143.9442  160.6140 H   0  0  0  0  0  0  0  0  0  0  0  0
  154.3483  141.6644  160.8576 H   0  0  0  0  0  0  0  0  0  0  0  0
  154.6757  141.0495  159.2333 H   0  0  0  0  0  0  0  0  0  0  0  0
  153.3662  140.3544  160.1973 H   0  0  0  0  0  0  0  0  0  0  0  0
  149.7660  143.0280  156.3791 H   0  0  0  0  0  0  0  0  0  0  0  0
  148.7700  141.9649  155.0616 H   0  0  0  0  0  0  0  0  0  0  0  0
  149.6205  139.6934  153.7283 H   0  0  0  0  0  0  0  0  0  0  0  0
  146.7666  140.5964  154.3712 H   0  0  0  0  0  0  0  0  0  0  0  0
  147.6977  141.0383  152.9592 H   0  0  0  0  0  0  0  0  0  0  0  0
  146.1284  139.2645  152.4102 H   0  0  0  0  0  0  0  0  0  0  0  0
  147.7545  138.6655  152.2073 H   0  0  0  0  0  0  0  0  0  0  0  0
  146.8802  136.3503  152.4937 H   0  0  0  0  0  0  0  0  0  0  0  0
  145.0992  138.0354  151.7160 H   0  0  0  0  0  0  0  0  0  0  0  0
  144.5995  136.3847  151.7135 H   0  0  0  0  0  0  0  0  0  0  0  0
  143.9322  138.4039  153.9090 H   0  0  0  0  0  0  0  0  0  0  0  0
  142.8410  137.8069  152.6760 H   0  0  0  0  0  0  0  0  0  0  0  0
  142.3152  137.4653  155.6780 H   0  0  0  0  0  0  0  0  0  0  0  0
  141.8538  135.7640  155.5406 H   0  0  0  0  0  0  0  0  0  0  0  0
  141.2936  136.9241  154.3399 H   0  0  0  0  0  0  0  0  0  0  0  0
  144.7660  136.7018  155.6897 H   0  0  0  0  0  0  0  0  0  0  0  0
  144.1907  135.0520  155.5563 H   0  0  0  0  0  0  0  0  0  0  0  0
  145.3908  134.7377  153.4357 H   0  0  0  0  0  0  0  0  0  0  0  0
  146.5075  135.1500  154.6747 H   0  0  0  0  0  0  0  0  0  0  0  0
  147.8927  136.7330  155.2720 H   0  0  0  0  0  0  0  0  0  0  0  0
  148.7597  137.1908  153.8146 H   0  0  0  0  0  0  0  0  0  0  0  0
  149.5324  138.4403  155.8316 H   0  0  0  0  0  0  0  0  0  0  0  0
  147.9032  138.9889  156.1482 H   0  0  0  0  0  0  0  0  0  0  0  0
  150.4152  144.6825  157.7283 H   0  0  0  0  0  0  0  0  0  0  0  0
  143.1049  135.6238  153.5378 H   0  0  0  0  0  0  0  0  0  0  0  0
  1  2  1  0  0  0  0
  1 26  1  0  0  0  0
  1 27  1  0  0  0  0
  1 28  1  0  0  0  0
  2 25  1  0  0  0  0
  2  3  2  0  0  0  0
  3  4  1  0  0  0  0
  3 29  1  0  0  0  0
  4  5  1  0  0  0  0
  4  6  2  0  0  0  0
  5 30  1  0  0  0  0
  5 31  1  0  0  0  0
  5 32  1  0  0  0  0
  6  7  1  0  0  0  0
  7  8  1  0  0  0  0
  7 25  2  0  0  0  0
  8  9  1  0  0  0  0
  8 33  1  0  0  0  0
  9 10  2  0  0  0  0
  9 11  1  0  0  0  0
 11 12  1  0  0  0  0
 11 34  1  0  0  0  0
 12 24  1  0  0  0  0
 12 13  1  0  0  0  0
 12 35  1  0  0  0  0
 13 14  1  0  0  0  0
 13 36  1  0  0  0  0
 13 37  1  0  0  0  0
 14 15  1  0  0  0  0
 14 38  1  0  0  0  0
 14 39  1  0  0  0  0
 15 16  1  0  0  0  0
 15 23  1  0  0  0  0
 16 22  1  0  0  0  0
 16 17  1  0  0  0  0
 16 40  1  0  0  0  0
 17 18  1  0  0  0  0
 17 41  1  0  0  0  0
 17 42  1  0  0  0  0
 18 19  1  0  0  0  0
 18 43  1  0  0  0  0
 18 44  1  0  0  0  0
 19 20  1  0  0  0  0
 19 21  1  0  0  0  0
 19 57  1  0  0  0  0
 20 45  1  0  0  0  0
 20 46  1  0  0  0  0
 20 47  1  0  0  0  0
 21 22  1  0  0  0  0
 21 48  1  0  0  0  0
 21 49  1  0  0  0  0
 22 50  1  0  0  0  0
 22 51  1  0  0  0  0
 23 24  1  0  0  0  0
 23 52  1  0  0  0  0
 23 53  1  0  0  0  0
 24 54  1  0  0  0  0
 24 55  1  0  0  0  0
 25 56  1  0  0  0  0
M  CHG  1  19   1
M  END
> <s_m_source_file>
AV-unprocessed.smi

> <i_m_source_file_index>
2279

> <i_lp_mmshare_version>
43012

> <i_f3d_flags>
0

> <s_epik_input>
W0NIM11jMVtjSF1jKFtDSDNdKW5jKFtjSF0xKVtOSF1DKD1PKVtOSF1bQ0hdMltDSDJdW0NIMl1OKFtDSDJdW0NIMl0yKVtDSF0zW0NIMl1bQ0gyXU4oW0NIM10pW0NIMl1bQ0gyXTM=

> <s_epik_cmdline>
J2VwaWtfcHl0aG9uJywgJy1waCcsICc3LjAnLCAnLXRuJywgJzgnLCAnLW1hJywgJzIwMCcsICctbWV0YWxfYmluZGluZycsICctaW1hZScsICc8aW5maWxlLm1hZT4nLCAnLW9tYWUnLCAnPG91dGZpbGUubWFlPic=

> <r_epik_Ionization_Penalty>
1.01001

> <r_epik_Ionization_Penalty_Charging>
0.000974969

> <r_epik_Ionization_Penalty_Neutral>
1.00904

> <r_epik_State_Penalty>
1.10286

> <r_epik_Charging_Adjusted_Penalty>
1.10383

> <i_epik_Tot_Q>
1

> <i_epik_Tot_abs_Q>
1

> <r_epik_Metal_State_Penalty>
1.10279

> <b_epik_Metal_Only>
0

> <s_lp_Force_Field>
OPLS_2005

> <r_lp_Energy>
36.6633

> <b_lp_Chiralities_Consistent>
1

> <s_lp_Variant>
AV-unprocessed.smi:2279-6

> <Gold.Version>
5.8.1

> <Gold.Id.Protein>
6NUR|6NUR_protein|mol2

> <Gold.PLP.Fitness>
39.6140

> <Gold.PLP.PLP>
-36.9790

> <Gold.PLP.part.hbond>
-0.9911

> <Gold.PLP.part.metal>
0.0000

> <Gold.PLP.part.buried>
0.3656

> <Gold.PLP.part.nonpolar>
-36.8596

> <Gold.PLP.part.repulsive>
0.3149

> <Gold.PLP.ligand.clash>
0.0000

> <Gold.PLP.ligand.torsion>
0.1716

> <Gold.PLP.Chemscore.Hbond>
0.9913

> <Gold.PLP.Chemscore.CHOScore>
0.0000

> <Gold.PLP.Chemscore.Metal>
0.0000

> <Gold.Chemscore.Hbonds>
donor molecule, donor type, donor heavy atom, donor atom, acceptor molecule, acceptor atom, score
      L1  H     8    33       P1  8028  0.98

> <Gold.PLP.Chemscore.Internal.Correction>
0.0045

> <Gold.Rescore>
     Score         DG    S(hbond)    S(metal)    S(lipo)     H(rot)  DE(clash)    DE(int)     intcor
     15.40     -18.27       0.98        0.00     107.62       1.20       0.05       2.82       ----

> <Gold.Chemscore.Fitness>
15.4031

> <Gold.Chemscore.DG>
-18.2717

> <Gold.Chemscore.ZeroCoef>
-5.4800

> <Gold.Chemscore.Hbond>
0.9784

> <Gold.Chemscore.Metal>
0.0000

> <Gold.Chemscore.Lipo>
107.6168

> <Gold.Chemscore.Internal_Hbond>
0.0000

> <Gold.Chemscore.DEClash>
0.0492

> <Gold.Chemscore.DEInternal>
2.8194

> <Gold.Chemscore.Rot>
1.1981

> <Gold.Chemscore.Internal.Correction>
   9.000000E+99

> <Gold.Chemscore.Hbonds>
donor molecule, donor type, donor heavy atom, donor atom, acceptor molecule, acceptor atom, score
      L1  H     8    33       P1  8028  0.92

> <Gold.Chemscore.Hbond.Weighted>
-3.2678

> <Gold.Chemscore.Metal.Weighted>
-0.0000

> <Gold.Chemscore.Lipo.Weighted>
-12.5912

> <Gold.Chemscore.Internal_Hbond.Weighted>
0.0000

> <Gold.Chemscore.DEClash.Weighted>
0.0492

> <Gold.Chemscore.DEInternal.Weighted>
2.8194

> <Gold.Chemscore.Rot.Weighted>
3.0673

> <Gold.Chemscore.Internal.Correction.Weighted>
   9.000000E+99

> <Gold.Protein.RotatedTorsions>
[ 6907 6896 6895 6894 ] final   20.01 input  -60.11 | X-H torsion
[ 7974 7965 7964 7962 ] final  133.04 input  175.53 | X-H torsion
[ 8008 7997 7996 7995 ] final -173.34 input   59.86 | X-H torsion
[ 10167 10162 10161 10158 ] final -179.68 input  -65.29 | X-H torsion
[ 10718 10713 10712 10709 ] final   92.98 input   66.30 | X-H torsion
[ 10763 10752 10751 10750 ] final   88.83 input  -60.55 | X-H torsion
[ 11005 11000 10999 10996 ] final  -49.93 input  -57.11 | X-H torsion

> <Gold.Protein.ActiveResidues>
 VAL166  LYS551  ARG553  GLY616  TRP617  ASP618  TYR619  PRO620  LYS621  CYS622 
 ASP623  PHE694  ASN695  SER759  ASP760  ASP761  ALA762  ILE779  LEU786  VAL792 
 PHE793  MET794  SER795  GLU796  ALA797  LYS798  CYS799  TRP800  GLU811  SER814 

> <Gold.Protein.RotatedAtoms>
  151.8898  135.0421  160.0496 H   0  0  0  0  0  0  0  0  0  0  0  0  # atno 6907 bound_to 6896
  152.2445  133.5159  159.5298 H   0  0  0  0  0  0  0  0  0  0  0  0  # atno 6908 bound_to 6896
  150.7064  134.0960  159.3991 H   0  0  0  0  0  0  0  0  0  0  0  0  # atno 6909 bound_to 6896
  144.9906  139.4410  143.5341 H   0  0  0  0  0  0  0  0  0  0  0  0  # atno 7974 bound_to 7965
  155.9561  140.1135  157.0935 H   0  0  0  0  0  0  0  0  0  0  0  0  # atno 8008 bound_to 7997
  154.4121  140.1191  156.5184 H   0  0  0  0  0  0  0  0  0  0  0  0  # atno 8009 bound_to 7997
  155.6780  140.3473  155.4846 H   0  0  0  0  0  0  0  0  0  0  0  0  # atno 8010 bound_to 7997
  139.5375  144.2455  152.0826 H   0  0  0  0  0  0  0  0  0  0  0  0  # atno 10167 bound_to 10162
  157.6956  131.0462  150.3965 H   0  0  0  0  0  0  0  0  0  0  0  0  # atno 10718 bound_to 10713
  153.1809  135.4492  155.0026 H   0  0  0  0  0  0  0  0  0  0  0  0  # atno 10763 bound_to 10752
  154.8029  135.3263  154.7507 H   0  0  0  0  0  0  0  0  0  0  0  0  # atno 10764 bound_to 10752
  153.7971  135.6965  153.4916 H   0  0  0  0  0  0  0  0  0  0  0  0  # atno 10765 bound_to 10752
  141.0787  133.6659  156.3657 H   0  0  0  0  0  0  0  0  0  0  0  0  # atno 11005 bound_to 11000
  146.3430  139.9235  142.8763 LP  0  0  0  0  0  0  0  0  0  0  0  0  # atno 17320 bound_to 7965
  145.2291  140.9966  143.4001 LP  0  0  0  0  0  0  0  0  0  0  0  0  # atno 17321 bound_to 7965
  140.1928  144.4735  150.6470 LP  0  0  0  0  0  0  0  0  0  0  0  0  # atno 17342 bound_to 10162
  140.6590  143.2246  151.5902 LP  0  0  0  0  0  0  0  0  0  0  0  0  # atno 17343 bound_to 10162
  156.4363  130.3982  149.6727 LP  0  0  0  0  0  0  0  0  0  0  0  0  # atno 17370 bound_to 10713
  156.3926  130.7635  151.2637 LP  0  0  0  0  0  0  0  0  0  0  0  0  # atno 17371 bound_to 10713
  140.5516  134.6022  157.5409 LP  0  0  0  0  0  0  0  0  0  0  0  0  # atno 17394 bound_to 11000
  139.9600  134.7469  156.0258 LP  0  0  0  0  0  0  0  0  0  0  0  0  # atno 17395 bound_to 11000

$$$$
