AV-unprocessed.smi:2724|AV-procd|sdf|10512|dock2
  -GOLD-   2272014553D 1   1.00000     0.00000
 Structure written by MMmdl.
 26 27  0  0  0  0  0  0  0  0  2 V2000
  152.7721  139.9495  157.8423 O   0  0  0  0  0  0  0  0  0  0  0  0
  152.9695  139.9761  159.2427 C   0  0  1  0  0  0  0  0  0  0  0  0
  154.4403  139.8367  159.6349 C   0  0  0  0  0  0  0  0  0  0  0  0
  154.4712  140.3557  161.0705 C   0  0  0  0  0  0  0  0  0  0  0  0
  153.4974  141.5380  161.0710 C   0  0  0  0  0  0  0  0  0  0  0  0
  152.4594  141.2473  159.9645 C   0  0  1  0  0  0  0  0  0  0  0  0
  152.2132  142.4570  159.0642 C   0  0  0  0  0  0  0  0  0  0  0  0
  153.0547  143.5899  159.1463 C   0  0  0  0  0  0  0  0  0  0  0  0
  152.8134  144.6985  158.3082 C   0  0  0  0  0  0  0  0  0  0  0  0
  151.7341  144.6531  157.4031 C   0  0  0  0  0  0  0  0  0  0  0  0
  150.9499  143.5549  157.3485 N   0  3  0  0  0  0  0  0  0  0  0  0
  151.1492  142.4731  158.1324 C   0  0  0  0  0  0  0  0  0  0  0  0
  151.8541  139.8043  157.6701 H   0  0  0  0  0  0  0  0  0  0  0  0
  152.4413  139.1166  159.6582 H   0  0  0  0  0  0  0  0  0  0  0  0
  154.8024  138.8114  159.5513 H   0  0  0  0  0  0  0  0  0  0  0  0
  155.0672  140.4657  159.0015 H   0  0  0  0  0  0  0  0  0  0  0  0
  154.1098  139.5807  161.7480 H   0  0  0  0  0  0  0  0  0  0  0  0
  155.4737  140.6381  161.3932 H   0  0  0  0  0  0  0  0  0  0  0  0
  153.0307  141.6867  162.0452 H   0  0  0  0  0  0  0  0  0  0  0  0
  154.0582  142.4468  160.8491 H   0  0  0  0  0  0  0  0  0  0  0  0
  151.5110  140.9927  160.4402 H   0  0  0  0  0  0  0  0  0  0  0  0
  153.8798  143.6140  159.8433 H   0  0  0  0  0  0  0  0  0  0  0  0
  153.4476  145.5715  158.3597 H   0  0  0  0  0  0  0  0  0  0  0  0
  151.4764  145.4553  156.7269 H   0  0  0  0  0  0  0  0  0  0  0  0
  150.4527  141.6591  157.9941 H   0  0  0  0  0  0  0  0  0  0  0  0
  150.1730  143.5413  156.6870 H   0  0  0  0  0  0  0  0  0  0  0  0
  1  2  1  0  0  0  0
  1 13  1  0  0  0  0
  2  6  1  0  0  0  0
  2  3  1  0  0  0  0
  2 14  1  0  0  0  0
  3  4  1  0  0  0  0
  3 15  1  0  0  0  0
  3 16  1  0  0  0  0
  4  5  1  0  0  0  0
  4 17  1  0  0  0  0
  4 18  1  0  0  0  0
  5  6  1  0  0  0  0
  5 19  1  0  0  0  0
  5 20  1  0  0  0  0
  6  7  1  0  0  0  0
  6 21  1  0  0  0  0
  7 12  1  0  0  0  0
  7  8  2  0  0  0  0
  8  9  1  0  0  0  0
  8 22  1  0  0  0  0
  9 10  2  0  0  0  0
  9 23  1  0  0  0  0
 10 11  1  0  0  0  0
 10 24  1  0  0  0  0
 11 12  2  0  0  0  0
 11 26  1  0  0  0  0
 12 25  1  0  0  0  0
M  CHG  1  11   1
M  END
> <s_m_source_file>
AV-unprocessed.smi

> <i_m_source_file_index>
2724

> <i_lp_mmshare_version>
43012

> <i_f3d_flags>
0

> <s_epik_input>
W09IXVtDQEBIXTFbQ0gyXVtDSDJdW0NIMl1bQ0BIXTFjMltjSF1bY0hdW2NIXW5bY0hdMg==

> <s_epik_cmdline>
J2VwaWtfcHl0aG9uJywgJy1waCcsICc3LjAnLCAnLXRuJywgJzgnLCAnLW1hJywgJzIwMCcsICctbWV0YWxfYmluZGluZycsICctaW1hZScsICc8aW5maWxlLm1hZT4nLCAnLW9tYWUnLCAnPG91dGZpbGUubWFlPic=

> <r_epik_Ionization_Penalty>
2.09455

> <r_epik_Ionization_Penalty_Charging>
2.09455

> <r_epik_Ionization_Penalty_Neutral>
5.26757e-08

> <r_epik_State_Penalty>
2.23025

> <r_epik_Charging_Adjusted_Penalty>
4.3248

> <i_epik_Tot_Q>
1

> <i_epik_Tot_abs_Q>
1

> <r_epik_Metal_State_Penalty>
6.30911

> <b_epik_Metal_Only>
0

> <s_lp_Force_Field>
OPLS_2005

> <r_lp_Energy>
31.4786

> <b_lp_Chiralities_Consistent>
1

> <s_lp_Variant>
AV-unprocessed.smi:2724-6

> <Gold.Version>
5.8.1

> <Gold.Id.Protein>
6NUR|6NUR_protein|mol2

> <Gold.PLP.Fitness>
38.9187

> <Gold.PLP.PLP>
-31.1060

> <Gold.PLP.part.hbond>
-2.0000

> <Gold.PLP.part.metal>
0.0000

> <Gold.PLP.part.buried>
-3.5071

> <Gold.PLP.part.nonpolar>
-26.2403

> <Gold.PLP.part.repulsive>
0.0000

> <Gold.PLP.ligand.clash>
0.0000

> <Gold.PLP.ligand.torsion>
0.1862

> <Gold.PLP.Chemscore.Hbond>
2.7280

> <Gold.PLP.Chemscore.CHOScore>
0.0000

> <Gold.PLP.Chemscore.Metal>
0.0000

> <Gold.Chemscore.Hbonds>
donor molecule, donor type, donor heavy atom, donor atom, acceptor molecule, acceptor atom, score
      L1  H    11    26       P1  8028  1.70
      P1  H  7997  8009       L1     1  1.00

> <Gold.PLP.Chemscore.Internal.Correction>
0.0012

> <Gold.Rescore>
     Score         DG    S(hbond)    S(metal)    S(lipo)     H(rot)  DE(clash)    DE(int)     intcor
     19.18     -20.39       1.93        0.00     101.89       1.35       0.74       0.47       ----

> <Gold.Chemscore.Fitness>
19.1756

> <Gold.Chemscore.DG>
-20.3852

> <Gold.Chemscore.ZeroCoef>
-5.4800

> <Gold.Chemscore.Hbond>
1.9280

> <Gold.Chemscore.Metal>
0.0000

> <Gold.Chemscore.Lipo>
101.8858

> <Gold.Chemscore.Internal_Hbond>
0.0000

> <Gold.Chemscore.DEClash>
0.7395

> <Gold.Chemscore.DEInternal>
0.4702

> <Gold.Chemscore.Rot>
1.3496

> <Gold.Chemscore.Internal.Correction>
   9.000000E+99

> <Gold.Chemscore.Hbonds>
donor molecule, donor type, donor heavy atom, donor atom, acceptor molecule, acceptor atom, score
      L1  H    11    26       P1  8028  0.80
      P1  H  7997  8009       L1     1  0.83

> <Gold.Chemscore.Hbond.Weighted>
-6.4396

> <Gold.Chemscore.Metal.Weighted>
-0.0000

> <Gold.Chemscore.Lipo.Weighted>
-11.9206

> <Gold.Chemscore.Internal_Hbond.Weighted>
0.0000

> <Gold.Chemscore.DEClash.Weighted>
0.7395

> <Gold.Chemscore.DEInternal.Weighted>
0.4702

> <Gold.Chemscore.Rot.Weighted>
3.4550

> <Gold.Chemscore.Internal.Correction.Weighted>
   9.000000E+99

> <Gold.Protein.RotatedTorsions>
[ 6907 6896 6895 6894 ] final -143.61 input  -60.11 | X-H torsion
[ 7974 7965 7964 7962 ] final -103.34 input  175.53 | X-H torsion
[ 8008 7997 7996 7995 ] final  169.98 input   59.86 | X-H torsion
[ 10167 10162 10161 10158 ] final  177.39 input  -65.29 | X-H torsion
[ 10718 10713 10712 10709 ] final  -43.37 input   66.30 | X-H torsion
[ 10763 10752 10751 10750 ] final -134.30 input  -60.55 | X-H torsion
[ 11005 11000 10999 10996 ] final  -20.43 input  -57.11 | X-H torsion

> <Gold.Protein.ActiveResidues>
 VAL166  LYS551  ARG553  GLY616  TRP617  ASP618  TYR619  PRO620  LYS621  CYS622 
 ASP623  PHE694  ASN695  SER759  ASP760  ASP761  ALA762  ILE779  LEU786  VAL792 
 PHE793  MET794  SER795  GLU796  ALA797  LYS798  CYS799  TRP800  GLU811  SER814 

> <Gold.Protein.RotatedAtoms>
  151.1027  133.5231  159.2608 H   0  0  0  0  0  0  0  0  0  0  0  0  # atno 6907 bound_to 6896
  151.2055  135.0460  159.8900 H   0  0  0  0  0  0  0  0  0  0  0  0  # atno 6908 bound_to 6896
  152.5444  134.0850  159.8305 H   0  0  0  0  0  0  0  0  0  0  0  0  # atno 6909 bound_to 6896
  145.2572  140.9257  143.3061 H   0  0  0  0  0  0  0  0  0  0  0  0  # atno 7974 bound_to 7965
  156.1408  140.1550  156.8923 H   0  0  0  0  0  0  0  0  0  0  0  0  # atno 8008 bound_to 7997
  154.4986  140.0831  156.7788 H   0  0  0  0  0  0  0  0  0  0  0  0  # atno 8009 bound_to 7997
  155.4082  140.3417  155.4264 H   0  0  0  0  0  0  0  0  0  0  0  0  # atno 8010 bound_to 7997
  139.5251  144.2804  152.0552 H   0  0  0  0  0  0  0  0  0  0  0  0  # atno 10167 bound_to 10162
  156.2497  130.4187  149.8664 H   0  0  0  0  0  0  0  0  0  0  0  0  # atno 10718 bound_to 10713
  154.8721  135.3739  154.4713 H   0  0  0  0  0  0  0  0  0  0  0  0  # atno 10763 bound_to 10752
  153.5373  135.7027  153.5659 H   0  0  0  0  0  0  0  0  0  0  0  0  # atno 10764 bound_to 10752
  153.3836  135.3990  155.1839 H   0  0  0  0  0  0  0  0  0  0  0  0  # atno 10765 bound_to 10752
  140.8464  133.7889  155.9917 H   0  0  0  0  0  0  0  0  0  0  0  0  # atno 11005 bound_to 11000
  144.9451  139.4145  143.6430 LP  0  0  0  0  0  0  0  0  0  0  0  0  # atno 17320 bound_to 7965
  146.3286  139.8430  142.8887 LP  0  0  0  0  0  0  0  0  0  0  0  0  # atno 17321 bound_to 7965
  140.2259  144.4418  150.6321 LP  0  0  0  0  0  0  0  0  0  0  0  0  # atno 17342 bound_to 10162
  140.6388  143.2199  151.6337 LP  0  0  0  0  0  0  0  0  0  0  0  0  # atno 17343 bound_to 10162
  156.6217  130.8629  151.3477 LP  0  0  0  0  0  0  0  0  0  0  0  0  # atno 17370 bound_to 10713
  157.7209  130.9558  150.1436 LP  0  0  0  0  0  0  0  0  0  0  0  0  # atno 17371 bound_to 10713
  140.8839  134.2578  157.5130 LP  0  0  0  0  0  0  0  0  0  0  0  0  # atno 17394 bound_to 11000
  139.8703  134.9628  156.4443 LP  0  0  0  0  0  0  0  0  0  0  0  0  # atno 17395 bound_to 11000

$$$$
