AV-unprocessed.smi:773|AV-procd|sdf|3690|dock10
  -GOLD-   22720 1113D 1   1.00000     0.00000
 Structure written by MMmdl.
 39 40  0  0  0  0  0  0  0  0  1 V2000
  153.0136  142.0299  159.9683 C   0  0  0  0  0  0  0  0  0  0  0  0
  152.2404  141.5496  158.7742 C   0  0  0  0  0  0  0  0  0  0  0  0
  152.1854  140.2554  158.5089 N   0  0  0  0  0  0  0  0  0  0  0  0
  151.4238  140.1363  157.3425 O   0  0  0  0  0  0  0  0  0  0  0  0
  151.0449  141.3785  156.9480 C   0  0  0  0  0  0  0  0  0  0  0  0
  150.2358  141.4686  155.6991 C   0  0  0  0  0  0  0  0  0  0  0  0
  151.5255  142.3216  157.8137 C   0  0  0  0  0  0  0  0  0  0  0  0
  151.3696  143.8219  157.7541 C   0  0  0  0  0  0  0  0  0  0  0  0
  151.0354  144.4548  159.1239 C   0  0  1  0  0  0  0  0  0  0  0  0
  151.9484  145.6480  159.4361 C   0  0  0  0  0  0  0  0  0  0  0  0
  149.6384  144.8872  159.1801 N   0  0  0  0  0  0  0  0  0  0  0  0
  148.8508  144.8475  160.2652 C   0  0  0  0  0  0  0  0  0  0  0  0
  149.2319  144.5155  161.3880 O   0  0  0  0  0  0  0  0  0  0  0  0
  147.5847  145.1675  159.9702 N   0  0  0  0  0  0  0  0  0  0  0  0
  146.4811  145.0872  160.9180 C   0  0  0  0  0  0  0  0  0  0  0  0
  146.3162  143.6956  161.5488 C   0  0  0  0  0  0  0  0  0  0  0  0
  144.8038  143.8803  161.3758 C   0  0  0  0  0  0  0  0  0  0  0  0
  145.1242  144.8594  160.2390 C   0  0  0  0  0  0  0  0  0  0  0  0
  153.6640  142.8629  159.7013 H   0  0  0  0  0  0  0  0  0  0  0  0
  153.6431  141.2431  160.3857 H   0  0  0  0  0  0  0  0  0  0  0  0
  152.3411  142.3716  160.7551 H   0  0  0  0  0  0  0  0  0  0  0  0
  149.3837  142.1342  155.8375 H   0  0  0  0  0  0  0  0  0  0  0  0
  149.8562  140.4902  155.4043 H   0  0  0  0  0  0  0  0  0  0  0  0
  150.8393  141.8575  154.8790 H   0  0  0  0  0  0  0  0  0  0  0  0
  152.2794  144.2802  157.3650 H   0  0  0  0  0  0  0  0  0  0  0  0
  150.5886  144.0887  157.0411 H   0  0  0  0  0  0  0  0  0  0  0  0
  151.2102  143.7021  159.8946 H   0  0  0  0  0  0  0  0  0  0  0  0
  152.9976  145.3518  159.4247 H   0  0  0  0  0  0  0  0  0  0  0  0
  151.7336  146.0588  160.4232 H   0  0  0  0  0  0  0  0  0  0  0  0
  151.8208  146.4490  158.7069 H   0  0  0  0  0  0  0  0  0  0  0  0
  149.2227  145.1796  158.3082 H   0  0  0  0  0  0  0  0  0  0  0  0
  147.3600  145.4286  159.0214 H   0  0  0  0  0  0  0  0  0  0  0  0
  146.4507  145.8928  161.6546 H   0  0  0  0  0  0  0  0  0  0  0  0
  146.7157  142.8855  160.9350 H   0  0  0  0  0  0  0  0  0  0  0  0
  146.6533  143.6214  162.5831 H   0  0  0  0  0  0  0  0  0  0  0  0
  144.2657  142.9828  161.0697 H   0  0  0  0  0  0  0  0  0  0  0  0
  144.3339  144.3635  162.2342 H   0  0  0  0  0  0  0  0  0  0  0  0
  144.4794  145.7378  160.1992 H   0  0  0  0  0  0  0  0  0  0  0  0
  145.1971  144.3655  159.2680 H   0  0  0  0  0  0  0  0  0  0  0  0
  1  2  1  0  0  0  0
  1 19  1  0  0  0  0
  1 20  1  0  0  0  0
  1 21  1  0  0  0  0
  2  7  1  0  0  0  0
  2  3  2  0  0  0  0
  3  4  1  0  0  0  0
  4  5  1  0  0  0  0
  5  6  1  0  0  0  0
  5  7  2  0  0  0  0
  6 22  1  0  0  0  0
  6 23  1  0  0  0  0
  6 24  1  0  0  0  0
  7  8  1  0  0  0  0
  8  9  1  0  0  0  0
  8 25  1  0  0  0  0
  8 26  1  0  0  0  0
  9 10  1  0  0  0  0
  9 11  1  0  0  0  0
  9 27  1  0  0  0  0
 10 28  1  0  0  0  0
 10 29  1  0  0  0  0
 10 30  1  0  0  0  0
 11 12  1  0  0  0  0
 11 31  1  0  0  0  0
 12 13  2  0  0  0  0
 12 14  1  0  0  0  0
 14 15  1  0  0  0  0
 14 32  1  0  0  0  0
 15 18  1  0  0  0  0
 15 16  1  0  0  0  0
 15 33  1  0  0  0  0
 16 17  1  0  0  0  0
 16 34  1  0  0  0  0
 16 35  1  0  0  0  0
 17 18  1  0  0  0  0
 17 36  1  0  0  0  0
 17 37  1  0  0  0  0
 18 38  1  0  0  0  0
 18 39  1  0  0  0  0
M  END
> <s_m_source_file>
AV-unprocessed.smi

> <i_m_source_file_index>
773

> <i_lp_mmshare_version>
43012

> <i_f3d_flags>
0

> <s_epik_input>
W0NIM11jMW5vYyhbQ0gzXSljMVtDSDJdW0NASF0oW0NIM10pW05IXUMoPU8pW05IXVtDSF0yW0NIMl1bQ0gyXVtDSDJdMg==

> <s_epik_cmdline>
J2VwaWtfcHl0aG9uJywgJy1waCcsICc3LjAnLCAnLXRuJywgJzgnLCAnLW1hJywgJzIwMCcsICctbWV0YWxfYmluZGluZycsICctaW1hZScsICc8aW5maWxlLm1hZT4nLCAnLW9tYWUnLCAnPG91dGZpbGUubWFlPic=

> <r_lp_tautomer_probability>
1

> <r_epik_Ionization_Penalty>
6.63278e-05

> <r_epik_Ionization_Penalty_Charging>
0

> <r_epik_Ionization_Penalty_Neutral>
6.63278e-05

> <r_epik_State_Penalty>
-0

> <r_epik_Charging_Adjusted_Penalty>
0

> <i_epik_Tot_Q>
0

> <i_epik_Tot_abs_Q>
0

> <r_epik_Metal_State_Penalty>
-0

> <b_epik_Metal_Only>
0

> <s_lp_Force_Field>
OPLS_2005

> <r_lp_Energy>
6.89309

> <b_lp_Chiralities_Consistent>
1

> <s_lp_Variant>
AV-unprocessed.smi:773-2

> <Gold.Version>
5.8.1

> <Gold.Id.Protein>
6NUR|6NUR_protein|mol2

> <Gold.PLP.Fitness>
44.5584

> <Gold.PLP.PLP>
-40.0727

> <Gold.PLP.part.hbond>
-3.0000

> <Gold.PLP.part.metal>
0.0000

> <Gold.PLP.part.buried>
-7.4707

> <Gold.PLP.part.nonpolar>
-31.6243

> <Gold.PLP.part.repulsive>
0.6473

> <Gold.PLP.ligand.clash>
0.0000

> <Gold.PLP.ligand.torsion>
1.4342

> <Gold.PLP.Chemscore.Hbond>
2.3666

> <Gold.PLP.Chemscore.CHOScore>
0.0000

> <Gold.PLP.Chemscore.Metal>
0.0000

> <Gold.Chemscore.Hbonds>
donor molecule, donor type, donor heavy atom, donor atom, acceptor molecule, acceptor atom, score
      L1  H    11    31       P1  8029  1.00
      L1  H    14    32       P1  8029  1.00
      P1  H  6933  6944       L1    13  0.23

> <Gold.PLP.Chemscore.Internal.Correction>
0.2544

> <Gold.Rescore>
     Score         DG    S(hbond)    S(metal)    S(lipo)     H(rot)  DE(clash)    DE(int)     intcor
     20.30     -21.52       2.65        0.00      95.73       1.56       0.04       1.18       ----

> <Gold.Chemscore.Fitness>
20.3048

> <Gold.Chemscore.DG>
-21.5186

> <Gold.Chemscore.ZeroCoef>
-5.4800

> <Gold.Chemscore.Hbond>
2.6460

> <Gold.Chemscore.Metal>
0.0000

> <Gold.Chemscore.Lipo>
95.7340

> <Gold.Chemscore.Internal_Hbond>
0.0000

> <Gold.Chemscore.DEClash>
0.0373

> <Gold.Chemscore.DEInternal>
1.1764

> <Gold.Chemscore.Rot>
1.5625

> <Gold.Chemscore.Internal.Correction>
   9.000000E+99

> <Gold.Chemscore.Hbonds>
donor molecule, donor type, donor heavy atom, donor atom, acceptor molecule, acceptor atom, score
      L1  H    11    31       P1  8029  0.69
      L1  H    14    32       P1  8029  0.96
      P1  H  6933  6944       L1    13  0.07

> <Gold.Chemscore.Hbond.Weighted>
-8.8378

> <Gold.Chemscore.Metal.Weighted>
-0.0000

> <Gold.Chemscore.Lipo.Weighted>
-11.2009

> <Gold.Chemscore.Internal_Hbond.Weighted>
0.0000

> <Gold.Chemscore.DEClash.Weighted>
0.0373

> <Gold.Chemscore.DEInternal.Weighted>
1.1764

> <Gold.Chemscore.Rot.Weighted>
4.0000

> <Gold.Chemscore.Internal.Correction.Weighted>
   9.000000E+99

> <Gold.Protein.RotatedTorsions>
[ 6907 6896 6895 6894 ] final   63.57 input  -60.11 | X-H torsion
[ 7974 7965 7964 7962 ] final  -37.79 input  175.53 | X-H torsion
[ 8008 7997 7996 7995 ] final  124.80 input   59.86 | X-H torsion
[ 10167 10162 10161 10158 ] final   46.88 input  -65.29 | X-H torsion
[ 10718 10713 10712 10709 ] final  -51.13 input   66.30 | X-H torsion
[ 10763 10752 10751 10750 ] final   74.75 input  -60.55 | X-H torsion
[ 11005 11000 10999 10996 ] final  -97.01 input  -57.11 | X-H torsion

> <Gold.Protein.ActiveResidues>
 VAL166  LYS551  ARG553  GLY616  TRP617  ASP618  TYR619  PRO620  LYS621  CYS622 
 ASP623  PHE694  ASN695  SER759  ASP760  ASP761  ALA762  ILE779  LEU786  VAL792 
 PHE793  MET794  SER795  GLU796  ALA797  LYS798  CYS799  TRP800  GLU811  SER814 

> <Gold.Protein.RotatedAtoms>
  152.4264  134.5861  159.9961 H   0  0  0  0  0  0  0  0  0  0  0  0  # atno 6907 bound_to 6896
  151.5996  133.3352  159.3052 H   0  0  0  0  0  0  0  0  0  0  0  0  # atno 6908 bound_to 6896
  150.8153  134.7369  159.6790 H   0  0  0  0  0  0  0  0  0  0  0  0  # atno 6909 bound_to 6896
  146.0543  140.6437  142.9027 H   0  0  0  0  0  0  0  0  0  0  0  0  # atno 7974 bound_to 7965
  156.2813  140.2731  156.1846 H   0  0  0  0  0  0  0  0  0  0  0  0  # atno 8008 bound_to 7997
  155.0520  140.0386  157.2565 H   0  0  0  0  0  0  0  0  0  0  0  0  # atno 8009 bound_to 7997
  154.7187  140.2683  155.6567 H   0  0  0  0  0  0  0  0  0  0  0  0  # atno 8010 bound_to 7997
  140.3093  144.2839  150.6203 H   0  0  0  0  0  0  0  0  0  0  0  0  # atno 10167 bound_to 10162
  156.1737  130.4149  149.9608 H   0  0  0  0  0  0  0  0  0  0  0  0  # atno 10718 bound_to 10713
  153.0608  135.5014  154.8088 H   0  0  0  0  0  0  0  0  0  0  0  0  # atno 10763 bound_to 10752
  154.6879  135.2979  154.9523 H   0  0  0  0  0  0  0  0  0  0  0  0  # atno 10764 bound_to 10752
  154.0288  135.6732  153.4831 H   0  0  0  0  0  0  0  0  0  0  0  0  # atno 10765 bound_to 10752
  141.1393  133.8139  157.0648 H   0  0  0  0  0  0  0  0  0  0  0  0  # atno 11005 bound_to 11000
  144.7140  140.4141  143.7059 LP  0  0  0  0  0  0  0  0  0  0  0  0  # atno 17320 bound_to 7965
  145.6670  139.1592  143.2776 LP  0  0  0  0  0  0  0  0  0  0  0  0  # atno 17321 bound_to 7965
  140.5582  143.2196  151.7811 LP  0  0  0  0  0  0  0  0  0  0  0  0  # atno 17342 bound_to 10162
  139.4897  144.4385  151.9792 LP  0  0  0  0  0  0  0  0  0  0  0  0  # atno 17343 bound_to 10162
  156.7401  130.9076  151.3631 LP  0  0  0  0  0  0  0  0  0  0  0  0  # atno 17370 bound_to 10713
  157.6821  130.9150  150.0293 LP  0  0  0  0  0  0  0  0  0  0  0  0  # atno 17371 bound_to 10713
  140.0548  134.9786  157.1201 LP  0  0  0  0  0  0  0  0  0  0  0  0  # atno 17394 bound_to 11000
  140.3935  134.2158  155.7165 LP  0  0  0  0  0  0  0  0  0  0  0  0  # atno 17395 bound_to 11000

$$$$
