AV-unprocessed.smi:2098|AV-procd|sdf|8568|dock6
  -GOLD-   2272011293D 1   1.00000     0.00000
 Structure written by MMmdl.
 37 39  0  0  0  0  0  0  0  0  2 V2000
  153.0987  139.8203  155.8274 O   0  0  0  0  0  0  0  0  0  0  0  0
  152.6333  138.8567  156.7517 C   0  0  1  0  0  0  0  0  0  0  0  0
  153.8384  138.0803  157.3013 C   0  0  0  0  0  0  0  0  0  0  0  0
  154.5020  138.8861  158.2664 O   0  0  0  0  0  0  0  0  0  0  0  0
  154.5773  138.4230  159.5623 C   0  0  0  0  0  0  0  0  0  0  0  0
  155.1176  139.3009  160.5251 C   0  0  0  0  0  0  0  0  0  0  0  0
  155.2359  138.9089  161.8726 C   0  0  0  0  0  0  0  0  0  0  0  0
  154.8102  137.6289  162.2723 C   0  0  0  0  0  0  0  0  0  0  0  0
  154.9241  137.2496  163.5670 F   0  0  0  0  0  0  0  0  0  0  0  0
  154.2658  136.7440  161.3234 C   0  0  0  0  0  0  0  0  0  0  0  0
  154.1488  137.1356  159.9754 C   0  0  0  0  0  0  0  0  0  0  0  0
  151.8232  139.5532  157.8641 C   0  0  0  0  0  0  0  0  0  0  0  0
  151.3882  140.9049  157.4903 N   0  0  0  0  0  0  0  0  0  0  0  0
  150.5203  141.3109  156.5242 C   0  0  0  0  0  0  0  0  0  0  0  0
  150.4498  142.6701  156.5801 N   0  3  0  0  0  0  0  0  0  0  0  0
  151.2870  143.1391  157.5951 C   0  0  0  0  0  0  0  0  0  0  0  0
  151.5530  144.4326  158.0336 C   0  0  0  0  0  0  0  0  0  0  0  0
  152.4644  144.5633  159.1024 C   0  0  0  0  0  0  0  0  0  0  0  0
  153.0726  143.4360  159.6921 C   0  0  0  0  0  0  0  0  0  0  0  0
  152.7965  142.1292  159.2387 C   0  0  0  0  0  0  0  0  0  0  0  0
  151.8938  142.0093  158.1829 C   0  0  0  0  0  0  0  0  0  0  0  0
  152.3522  140.2630  155.4535 H   0  0  0  0  0  0  0  0  0  0  0  0
  151.9903  138.1662  156.2049 H   0  0  0  0  0  0  0  0  0  0  0  0
  153.4962  137.1575  157.7733 H   0  0  0  0  0  0  0  0  0  0  0  0
  154.5153  137.8145  156.4874 H   0  0  0  0  0  0  0  0  0  0  0  0
  155.4476  140.2852  160.2268 H   0  0  0  0  0  0  0  0  0  0  0  0
  155.6536  139.5903  162.5989 H   0  0  0  0  0  0  0  0  0  0  0  0
  153.9369  135.7617  161.6289 H   0  0  0  0  0  0  0  0  0  0  0  0
  153.7252  136.4292  159.2779 H   0  0  0  0  0  0  0  0  0  0  0  0
  150.9391  138.9720  158.1292 H   0  0  0  0  0  0  0  0  0  0  0  0
  152.4201  139.6396  158.7732 H   0  0  0  0  0  0  0  0  0  0  0  0
  149.9824  140.6710  155.8398 H   0  0  0  0  0  0  0  0  0  0  0  0
  151.0888  145.2981  157.5840 H   0  0  0  0  0  0  0  0  0  0  0  0
  152.7015  145.5483  159.4776 H   0  0  0  0  0  0  0  0  0  0  0  0
  153.7652  143.5760  160.5094 H   0  0  0  0  0  0  0  0  0  0  0  0
  153.2657  141.2710  159.6971 H   0  0  0  0  0  0  0  0  0  0  0  0
  149.8714  143.2332  155.9698 H   0  0  0  0  0  0  0  0  0  0  0  0
  1  2  1  0  0  0  0
  1 22  1  0  0  0  0
  2  3  1  0  0  0  0
  2 12  1  0  0  0  0
  2 23  1  0  0  0  0
  3  4  1  0  0  0  0
  3 24  1  0  0  0  0
  3 25  1  0  0  0  0
  4  5  1  0  0  0  0
  5 11  1  0  0  0  0
  5  6  2  0  0  0  0
  6  7  1  0  0  0  0
  6 26  1  0  0  0  0
  7  8  2  0  0  0  0
  7 27  1  0  0  0  0
  8  9  1  0  0  0  0
  8 10  1  0  0  0  0
 10 11  2  0  0  0  0
 10 28  1  0  0  0  0
 11 29  1  0  0  0  0
 12 13  1  0  0  0  0
 12 30  1  0  0  0  0
 12 31  1  0  0  0  0
 13 21  1  0  0  0  0
 13 14  1  0  0  0  0
 14 15  2  0  0  0  0
 14 32  1  0  0  0  0
 15 16  1  0  0  0  0
 15 37  1  0  0  0  0
 16 21  2  0  0  0  0
 16 17  1  0  0  0  0
 17 18  2  0  0  0  0
 17 33  1  0  0  0  0
 18 19  1  0  0  0  0
 18 34  1  0  0  0  0
 19 20  2  0  0  0  0
 19 35  1  0  0  0  0
 20 21  1  0  0  0  0
 20 36  1  0  0  0  0
M  CHG  1  15   1
M  END
> <s_m_source_file>
AV-unprocessed.smi

> <i_m_source_file_index>
2098

> <i_lp_mmshare_version>
43012

> <i_f3d_flags>
0

> <s_epik_input>
W2NIXTFbY0hdW2NIXVtjSF1jKGMxMiluKFtjSF1uMilbQ0gyXVtDQEhdKFtPSF0pW0NIMl1PYzNbY0hdW2NIXWMoRilbY0hdW2NIXTM=

> <s_epik_cmdline>
J2VwaWtfcHl0aG9uJywgJy1waCcsICc3LjAnLCAnLXRuJywgJzgnLCAnLW1hJywgJzIwMCcsICctbWV0YWxfYmluZGluZycsICctaW1hZScsICc8aW5maWxlLm1hZT4nLCAnLW9tYWUnLCAnPG91dGZpbGUubWFlPic=

> <r_lp_tautomer_probability>
1

> <r_epik_Ionization_Penalty>
1.3832

> <r_epik_Ionization_Penalty_Charging>
1.38319

> <r_epik_Ionization_Penalty_Neutral>
2.3993e-06

> <r_epik_State_Penalty>
1.46389

> <r_epik_Charging_Adjusted_Penalty>
2.84709

> <i_epik_Tot_Q>
1

> <i_epik_Tot_abs_Q>
1

> <r_epik_Metal_State_Penalty>
5.50438

> <b_epik_Metal_Only>
0

> <s_lp_Force_Field>
OPLS_2005

> <r_lp_Energy>
18.1934

> <b_lp_Chiralities_Consistent>
1

> <s_lp_Variant>
AV-unprocessed.smi:2098-4

> <Gold.Version>
5.8.1

> <Gold.Id.Protein>
6NUR|6NUR_protein|mol2

> <Gold.PLP.Fitness>
53.6966

> <Gold.PLP.PLP>
-44.8932

> <Gold.PLP.part.hbond>
-3.0000

> <Gold.PLP.part.metal>
0.0000

> <Gold.PLP.part.buried>
-4.8650

> <Gold.PLP.part.nonpolar>
-37.1114

> <Gold.PLP.part.repulsive>
0.0525

> <Gold.PLP.ligand.clash>
0.0000

> <Gold.PLP.ligand.torsion>
1.1632

> <Gold.PLP.Chemscore.Hbond>
3.6960

> <Gold.PLP.Chemscore.CHOScore>
0.0000

> <Gold.PLP.Chemscore.Metal>
0.0000

> <Gold.Chemscore.Hbonds>
donor molecule, donor type, donor heavy atom, donor atom, acceptor molecule, acceptor atom, score
      L1  H    15    37       P1  8028  2.00
      P1  H  7997  8009       L1     4  0.91
      P1  H  7997  8010       L1     1  0.71

> <Gold.PLP.Chemscore.Internal.Correction>
0.0418

> <Gold.Rescore>
     Score         DG    S(hbond)    S(metal)    S(lipo)     H(rot)  DE(clash)    DE(int)     intcor
     20.64     -21.80       2.54        0.00     120.83       2.46       0.08       1.08       ----

> <Gold.Chemscore.Fitness>
20.6383

> <Gold.Chemscore.DG>
-21.8005

> <Gold.Chemscore.ZeroCoef>
-5.4800

> <Gold.Chemscore.Hbond>
2.5380

> <Gold.Chemscore.Metal>
0.0000

> <Gold.Chemscore.Lipo>
120.8314

> <Gold.Chemscore.Internal_Hbond>
0.0000

> <Gold.Chemscore.DEClash>
0.0815

> <Gold.Chemscore.DEInternal>
1.0807

> <Gold.Chemscore.Rot>
2.4584

> <Gold.Chemscore.Internal.Correction>
   9.000000E+99

> <Gold.Chemscore.Hbonds>
donor molecule, donor type, donor heavy atom, donor atom, acceptor molecule, acceptor atom, score
      L1  H    15    37       P1  8028  0.95
      P1  H  7997  8009       L1     4  0.35
      P1  H  7997  8010       L1     1  0.68

> <Gold.Chemscore.Hbond.Weighted>
-8.4768

> <Gold.Chemscore.Metal.Weighted>
-0.0000

> <Gold.Chemscore.Lipo.Weighted>
-14.1373

> <Gold.Chemscore.Internal_Hbond.Weighted>
0.0000

> <Gold.Chemscore.DEClash.Weighted>
0.0815

> <Gold.Chemscore.DEInternal.Weighted>
1.0807

> <Gold.Chemscore.Rot.Weighted>
6.2936

> <Gold.Chemscore.Internal.Correction.Weighted>
   9.000000E+99

> <Gold.Protein.RotatedTorsions>
[ 6907 6896 6895 6894 ] final  166.93 input  -60.11 | X-H torsion
[ 7974 7965 7964 7962 ] final  -46.71 input  175.53 | X-H torsion
[ 8008 7997 7996 7995 ] final  109.01 input   59.86 | X-H torsion
[ 10167 10162 10161 10158 ] final   16.10 input  -65.29 | X-H torsion
[ 10718 10713 10712 10709 ] final   40.09 input   66.30 | X-H torsion
[ 10763 10752 10751 10750 ] final -175.77 input  -60.55 | X-H torsion
[ 11005 11000 10999 10996 ] final   11.23 input  -57.11 | X-H torsion

> <Gold.Protein.ActiveResidues>
 VAL166  LYS551  ARG553  GLY616  TRP617  ASP618  TYR619  PRO620  LYS621  CYS622 
 ASP623  PHE694  ASN695  SER759  ASP760  ASP761  ALA762  ILE779  LEU786  VAL792 
 PHE793  MET794  SER795  GLU796  ALA797  LYS798  CYS799  TRP800  GLU811  SER814 

> <Gold.Protein.RotatedAtoms>
  151.8712  133.3476  159.3735 H   0  0  0  0  0  0  0  0  0  0  0  0  # atno 6907 bound_to 6896
  150.7152  134.5111  159.5617 H   0  0  0  0  0  0  0  0  0  0  0  0  # atno 6908 bound_to 6896
  152.2644  134.8000  160.0476 H   0  0  0  0  0  0  0  0  0  0  0  0  # atno 6909 bound_to 6896
  145.9691  140.7401  142.9419 H   0  0  0  0  0  0  0  0  0  0  0  0  # atno 7974 bound_to 7965
  156.1946  140.3066  155.9402 H   0  0  0  0  0  0  0  0  0  0  0  0  # atno 8008 bound_to 7997
  155.3094  140.0450  157.3051 H   0  0  0  0  0  0  0  0  0  0  0  0  # atno 8009 bound_to 7997
  154.5494  140.2287  155.8518 H   0  0  0  0  0  0  0  0  0  0  0  0  # atno 8010 bound_to 7997
  140.5821  143.8961  150.6798 H   0  0  0  0  0  0  0  0  0  0  0  0  # atno 10167 bound_to 10162
  157.3781  130.7738  149.7171 H   0  0  0  0  0  0  0  0  0  0  0  0  # atno 10718 bound_to 10713
  154.5804  135.2836  155.0738 H   0  0  0  0  0  0  0  0  0  0  0  0  # atno 10763 bound_to 10752
  154.2076  135.6413  153.5109 H   0  0  0  0  0  0  0  0  0  0  0  0  # atno 10764 bound_to 10752
  153.0086  135.5484  154.6456 H   0  0  0  0  0  0  0  0  0  0  0  0  # atno 10765 bound_to 10752
  140.5056  134.0703  155.7805 H   0  0  0  0  0  0  0  0  0  0  0  0  # atno 11005 bound_to 11000
  144.6832  140.2719  143.7304 LP  0  0  0  0  0  0  0  0  0  0  0  0  # atno 17320 bound_to 7965
  145.7932  139.1935  143.2091 LP  0  0  0  0  0  0  0  0  0  0  0  0  # atno 17321 bound_to 7965
  140.2463  143.3626  152.1444 LP  0  0  0  0  0  0  0  0  0  0  0  0  # atno 17342 bound_to 10162
  139.5176  144.6993  151.5539 LP  0  0  0  0  0  0  0  0  0  0  0  0  # atno 17343 bound_to 10162
  155.9769  130.4069  150.3744 LP  0  0  0  0  0  0  0  0  0  0  0  0  # atno 17370 bound_to 10713
  157.1844  131.0400  151.2732 LP  0  0  0  0  0  0  0  0  0  0  0  0  # atno 17371 bound_to 10713
  141.1412  133.9134  157.2320 LP  0  0  0  0  0  0  0  0  0  0  0  0  # atno 17394 bound_to 11000
  139.9688  135.0134  156.9458 LP  0  0  0  0  0  0  0  0  0  0  0  0  # atno 17395 bound_to 11000

$$$$
