AV-unprocessed.smi:1014|AV-procd|sdf|4431|dock2
  -GOLD-   22720 2383D 1   1.00000     0.00000
 Structure written by MMmdl.
 34 34  0  0  0  0  0  0  0  0  2 V2000
  146.5579  141.5353  154.4611 C   0  0  0  0  0  0  0  0  0  0  0  0
  147.8877  142.0469  153.8849 C   0  0  0  0  0  0  0  0  0  0  0  0
  149.1286  141.7432  154.7535 C   0  0  1  0  0  0  0  0  0  0  0  0
  148.8539  142.1492  156.1516 N   0  3  0  0  0  0  0  0  0  0  0  0
  149.7538  141.5646  157.1688 C   0  0  0  0  0  0  0  0  0  0  0  0
  151.2013  142.0281  156.9490 C   0  0  0  0  0  0  0  0  0  0  0  0
  151.6625  142.8935  158.0175 N   0  0  0  0  0  0  0  0  0  0  0  0
  151.3385  144.2123  158.2559 C   0  0  0  0  0  0  0  0  0  0  0  0
  152.0036  144.6015  159.3840 C   0  0  0  0  0  0  0  0  0  0  0  0
  151.9905  145.9393  160.0656 C   0  0  0  0  0  0  0  0  0  0  0  0
  152.7153  143.4299  159.7695 C   0  0  0  0  0  0  0  0  0  0  0  0
  152.5076  142.4102  158.9524 N   0  0  0  0  0  0  0  0  0  0  0  0
  149.5153  140.2567  154.6778 C   0  0  0  0  0  0  0  0  0  0  0  0
  148.5781  139.3626  155.0034 N   0  0  0  0  0  0  0  0  0  0  0  0
  150.6486  139.9216  154.3382 O   0  0  0  0  0  0  0  0  0  0  0  0
  145.7412  141.7184  153.7625 H   0  0  0  0  0  0  0  0  0  0  0  0
  146.3020  142.0349  155.3956 H   0  0  0  0  0  0  0  0  0  0  0  0
  146.5959  140.4625  154.6511 H   0  0  0  0  0  0  0  0  0  0  0  0
  148.0251  141.5900  152.9038 H   0  0  0  0  0  0  0  0  0  0  0  0
  147.8113  143.1203  153.7044 H   0  0  0  0  0  0  0  0  0  0  0  0
  149.9581  142.3501  154.3857 H   0  0  0  0  0  0  0  0  0  0  0  0
  148.9445  143.1534  156.2063 H   0  0  0  0  0  0  0  0  0  0  0  0
  149.4166  141.8566  158.1641 H   0  0  0  0  0  0  0  0  0  0  0  0
  149.7006  140.4763  157.1162 H   0  0  0  0  0  0  0  0  0  0  0  0
  151.8693  141.1679  156.8865 H   0  0  0  0  0  0  0  0  0  0  0  0
  151.2912  142.5694  156.0060 H   0  0  0  0  0  0  0  0  0  0  0  0
  150.6674  144.7604  157.6109 H   0  0  0  0  0  0  0  0  0  0  0  0
  152.7203  145.9900  160.8740 H   0  0  0  0  0  0  0  0  0  0  0  0
  151.0151  146.1593  160.5000 H   0  0  0  0  0  0  0  0  0  0  0  0
  152.2240  146.7471  159.3719 H   0  0  0  0  0  0  0  0  0  0  0  0
  153.3719  143.2908  160.6158 H   0  0  0  0  0  0  0  0  0  0  0  0
  148.7811  138.3743  154.9623 H   0  0  0  0  0  0  0  0  0  0  0  0
  147.6611  139.6797  155.2844 H   0  0  0  0  0  0  0  0  0  0  0  0
  147.9003  141.8989  156.3725 H   0  0  0  0  0  0  0  0  0  0  0  0
  1  2  1  0  0  0  0
  1 16  1  0  0  0  0
  1 17  1  0  0  0  0
  1 18  1  0  0  0  0
  2  3  1  0  0  0  0
  2 19  1  0  0  0  0
  2 20  1  0  0  0  0
  3  4  1  0  0  0  0
  3 13  1  0  0  0  0
  3 21  1  0  0  0  0
  4  5  1  0  0  0  0
  4 22  1  0  0  0  0
  4 34  1  0  0  0  0
  5  6  1  0  0  0  0
  5 23  1  0  0  0  0
  5 24  1  0  0  0  0
  6  7  1  0  0  0  0
  6 25  1  0  0  0  0
  6 26  1  0  0  0  0
  7 12  1  0  0  0  0
  7  8  1  0  0  0  0
  8  9  2  0  0  0  0
  8 27  1  0  0  0  0
  9 10  1  0  0  0  0
  9 11  1  0  0  0  0
 10 28  1  0  0  0  0
 10 29  1  0  0  0  0
 10 30  1  0  0  0  0
 11 12  2  0  0  0  0
 11 31  1  0  0  0  0
 13 14  1  0  0  0  0
 13 15  2  0  0  0  0
 14 32  1  0  0  0  0
 14 33  1  0  0  0  0
M  CHG  1   4   1
M  END
> <s_m_source_file>
AV-unprocessed.smi

> <i_m_source_file_index>
1014

> <i_lp_mmshare_version>
43012

> <i_f3d_flags>
0

> <s_epik_input>
W0NIM11bQ0gyXVtDQEBIXShDKD1PKVtOSDJdKVtOSF1bQ0gyXVtDSDJdbjFbY0hdYyhbQ0gzXSlbY0hdbjE=

> <s_epik_cmdline>
J2VwaWtfcHl0aG9uJywgJy1waCcsICc3LjAnLCAnLXRuJywgJzgnLCAnLW1hJywgJzIwMCcsICctbWV0YWxfYmluZGluZycsICctaW1hZScsICc8aW5maWxlLm1hZT4nLCAnLW9tYWUnLCAnPG91dGZpbGUubWFlPic=

> <r_lp_tautomer_probability>
1

> <r_epik_Ionization_Penalty>
0.19042

> <r_epik_Ionization_Penalty_Charging>
0.190412

> <r_epik_Ionization_Penalty_Neutral>
7.5834e-06

> <r_epik_State_Penalty>
0.180404

> <r_epik_Charging_Adjusted_Penalty>
0.370816

> <i_epik_Tot_Q>
1

> <i_epik_Tot_abs_Q>
1

> <r_epik_Metal_State_Penalty>
0.180563

> <b_epik_Metal_Only>
0

> <s_lp_Force_Field>
OPLS_2005

> <r_lp_Energy>
2.60817

> <b_lp_Chiralities_Consistent>
1

> <s_lp_Variant>
AV-unprocessed.smi:1014-2

> <Gold.Version>
5.8.1

> <Gold.Id.Protein>
6NUR|6NUR_protein|mol2

> <Gold.PLP.Fitness>
46.1337

> <Gold.PLP.PLP>
-35.7278

> <Gold.PLP.part.hbond>
-2.0000

> <Gold.PLP.part.metal>
0.0000

> <Gold.PLP.part.buried>
-3.9839

> <Gold.PLP.part.nonpolar>
-28.9685

> <Gold.PLP.part.repulsive>
0.1992

> <Gold.PLP.ligand.clash>
0.0000

> <Gold.PLP.ligand.torsion>
0.8612

> <Gold.PLP.Chemscore.Hbond>
3.0000

> <Gold.PLP.Chemscore.CHOScore>
0.9972

> <Gold.PLP.Chemscore.Metal>
0.0000

> <Gold.Chemscore.Hbonds>
donor molecule, donor type, donor heavy atom, donor atom, acceptor molecule, acceptor atom, score
      L1  H     4    22       P1  8028  2.00
      P1  H  7989  7998       L1    15  1.00
      L1  C     8    27       P1  8028  0.82

> <Gold.PLP.Chemscore.Internal.Correction>
0.1367

> <Gold.Rescore>
     Score         DG    S(hbond)    S(metal)    S(lipo)     H(rot)  DE(clash)    DE(int)     intcor
     14.48     -15.24       1.98        0.00      83.53       2.59       0.08       0.68       ----

> <Gold.Chemscore.Fitness>
14.4756

> <Gold.Chemscore.DG>
-15.2380

> <Gold.Chemscore.ZeroCoef>
-5.4800

> <Gold.Chemscore.Hbond>
1.9788

> <Gold.Chemscore.Metal>
0.0000

> <Gold.Chemscore.Lipo>
83.5339

> <Gold.Chemscore.Internal_Hbond>
0.0000

> <Gold.Chemscore.DEClash>
0.0793

> <Gold.Chemscore.DEInternal>
0.6831

> <Gold.Chemscore.Rot>
2.5878

> <Gold.Chemscore.Internal.Correction>
   9.000000E+99

> <Gold.Chemscore.Hbonds>
donor molecule, donor type, donor heavy atom, donor atom, acceptor molecule, acceptor atom, score
      L1  H     4    22       P1  8028  0.98
      P1  H  7989  7998       L1    15  0.98

> <Gold.Chemscore.Hbond.Weighted>
-6.6093

> <Gold.Chemscore.Metal.Weighted>
-0.0000

> <Gold.Chemscore.Lipo.Weighted>
-9.7735

> <Gold.Chemscore.Internal_Hbond.Weighted>
0.0000

> <Gold.Chemscore.DEClash.Weighted>
0.0793

> <Gold.Chemscore.DEInternal.Weighted>
0.6831

> <Gold.Chemscore.Rot.Weighted>
6.6247

> <Gold.Chemscore.Internal.Correction.Weighted>
   9.000000E+99

> <Gold.Protein.RotatedTorsions>
[ 6907 6896 6895 6894 ] final  -17.83 input  -60.11 | X-H torsion
[ 7974 7965 7964 7962 ] final  -14.02 input  175.53 | X-H torsion
[ 8008 7997 7996 7995 ] final   -5.84 input   59.86 | X-H torsion
[ 10167 10162 10161 10158 ] final   32.30 input  -65.29 | X-H torsion
[ 10718 10713 10712 10709 ] final   31.93 input   66.30 | X-H torsion
[ 10763 10752 10751 10750 ] final   87.00 input  -60.55 | X-H torsion
[ 11005 11000 10999 10996 ] final   20.09 input  -57.11 | X-H torsion

> <Gold.Protein.ActiveResidues>
 VAL166  LYS551  ARG553  GLY616  TRP617  ASP618  TYR619  PRO620  LYS621  CYS622 
 ASP623  PHE694  ASN695  SER759  ASP760  ASP761  ALA762  ILE779  LEU786  VAL792 
 PHE793  MET794  SER795  GLU796  ALA797  LYS798  CYS799  TRP800  GLU811  SER814 

> <Gold.Protein.RotatedAtoms>
  151.2874  135.0732  159.9191 H   0  0  0  0  0  0  0  0  0  0  0  0  # atno 6907 bound_to 6896
  152.5323  133.9967  159.7886 H   0  0  0  0  0  0  0  0  0  0  0  0  # atno 6908 bound_to 6896
  151.0231  133.5807  159.2699 H   0  0  0  0  0  0  0  0  0  0  0  0  # atno 6909 bound_to 6896
  146.2091  140.3287  142.8397 H   0  0  0  0  0  0  0  0  0  0  0  0  # atno 7974 bound_to 7965
  154.5998  140.2448  155.7808 H   0  0  0  0  0  0  0  0  0  0  0  0  # atno 8008 bound_to 7997
  156.2303  140.2969  156.0124 H   0  0  0  0  0  0  0  0  0  0  0  0  # atno 8009 bound_to 7997
  155.2231  140.0401  157.2941 H   0  0  0  0  0  0  0  0  0  0  0  0  # atno 8010 bound_to 7997
  140.4511  144.1047  150.6192 H   0  0  0  0  0  0  0  0  0  0  0  0  # atno 10167 bound_to 10162
  157.2788  130.7244  149.6545 H   0  0  0  0  0  0  0  0  0  0  0  0  # atno 10718 bound_to 10713
  153.1625  135.4560  154.9791 H   0  0  0  0  0  0  0  0  0  0  0  0  # atno 10763 bound_to 10752
  154.7908  135.3220  154.7784 H   0  0  0  0  0  0  0  0  0  0  0  0  # atno 10764 bound_to 10752
  153.8272  135.6941  153.4874 H   0  0  0  0  0  0  0  0  0  0  0  0  # atno 10765 bound_to 10752
  140.4064  134.1664  155.7665 H   0  0  0  0  0  0  0  0  0  0  0  0  # atno 11005 bound_to 11000
  144.8867  140.7472  143.5952 LP  0  0  0  0  0  0  0  0  0  0  0  0  # atno 17320 bound_to 7965
  145.3209  139.1789  143.4588 LP  0  0  0  0  0  0  0  0  0  0  0  0  # atno 17321 bound_to 7965
  140.4206  143.2613  151.9720 LP  0  0  0  0  0  0  0  0  0  0  0  0  # atno 17342 bound_to 10162
  139.4797  144.5834  151.7894 LP  0  0  0  0  0  0  0  0  0  0  0  0  # atno 17343 bound_to 10162
  155.9664  130.4344  150.5049 LP  0  0  0  0  0  0  0  0  0  0  0  0  # atno 17370 bound_to 10713
  157.2989  131.0641  151.2082 LP  0  0  0  0  0  0  0  0  0  0  0  0  # atno 17371 bound_to 10713
  141.1837  133.8358  157.1164 LP  0  0  0  0  0  0  0  0  0  0  0  0  # atno 17394 bound_to 11000
  140.0299  134.9906  157.0759 LP  0  0  0  0  0  0  0  0  0  0  0  0  # atno 17395 bound_to 11000

$$$$
