AV-unprocessed.smi:85|AV-procd|sdf|810|dock6
  -GOLD-   2262017203D 1   1.00000     0.00000
 Structure written by MMmdl.
 62 65  0  0  0  0  0  0  0  0  1 V2000
  148.7477  141.1283  154.8554 C   0  0  0  0  0  0  0  0  0  0  0  0
  149.3749  141.1294  156.2596 C   0  0  0  0  0  0  0  0  0  0  0  0
  150.8356  141.0242  156.2490 N   0  0  0  0  0  0  0  0  0  0  0  0
  151.3300  139.8243  155.8548 C   0  0  0  0  0  0  0  0  0  0  0  0
  152.1440  139.8170  154.7695 N   0  0  0  0  0  0  0  0  0  0  0  0
  152.6635  138.6681  154.3284 C   0  0  0  0  0  0  0  0  0  0  0  0
  152.5023  137.4373  154.8175 N   0  0  0  0  0  0  0  0  0  0  0  0
  151.6821  137.4388  155.9073 C   0  0  0  0  0  0  0  0  0  0  0  0
  151.0467  138.5761  156.4811 C   0  0  0  0  0  0  0  0  0  0  0  0
  150.2733  138.1855  157.5679 N   0  0  0  0  0  0  0  0  0  0  0  0
  150.4504  136.8953  157.6389 C   0  0  0  0  0  0  0  0  0  0  0  0
  151.2996  136.3654  156.6937 N   0  0  0  0  0  0  0  0  0  0  0  0
  151.6795  134.9666  156.5553 C   0  0  0  0  0  0  0  0  0  0  0  0
  150.5072  134.0011  156.2056 C   0  0  0  0  0  0  0  0  0  0  0  0
  149.3803  134.0816  157.2753 C   0  0  0  0  0  0  0  0  0  0  0  0
  149.8487  133.7646  158.5709 O   0  0  0  0  0  0  0  0  0  0  0  0
  149.9757  134.3715  154.7982 C   0  0  0  0  0  0  0  0  0  0  0  0
  149.0182  133.3146  154.2199 C   0  0  0  0  0  0  0  0  0  0  0  0
  149.6642  132.0491  154.1781 O   0  0  0  0  0  0  0  0  0  0  0  0
  150.0330  131.5761  155.4668 C   0  0  0  0  0  0  0  0  0  0  0  0
  151.0340  132.5459  156.1213 C   0  0  0  0  0  0  0  0  0  0  0  0
  151.5514  141.6982  157.3436 C   0  0  2  0  0  0  0  0  0  0  0  0
  151.8484  140.7935  158.5528 C   0  0  0  0  0  0  0  0  0  0  0  0
  152.6601  141.5646  159.6019 C   0  0  0  0  0  0  0  0  0  0  0  0
  151.9602  142.7408  160.0056 O   0  0  0  0  0  0  0  0  0  0  0  0
  151.6484  143.6817  158.9724 C   0  0  0  0  0  0  0  0  0  0  0  0
  150.7609  144.7403  159.6480 C   0  0  0  0  0  0  0  0  0  0  0  0
  152.9297  144.3644  158.4471 C   0  0  0  0  0  0  0  0  0  0  0  0
  150.8509  142.9758  157.8499 C   0  0  0  0  0  0  0  0  0  0  0  0
  147.6702  141.2809  154.9171 H   0  0  0  0  0  0  0  0  0  0  0  0
  148.9125  140.1846  154.3350 H   0  0  0  0  0  0  0  0  0  0  0  0
  149.1611  141.9288  154.2416 H   0  0  0  0  0  0  0  0  0  0  0  0
  149.1021  142.0591  156.7599 H   0  0  0  0  0  0  0  0  0  0  0  0
  148.9430  140.3285  156.8583 H   0  0  0  0  0  0  0  0  0  0  0  0
  153.3026  138.7467  153.4614 H   0  0  0  0  0  0  0  0  0  0  0  0
  149.9715  136.2917  158.3961 H   0  0  0  0  0  0  0  0  0  0  0  0
  152.4548  134.9077  155.7904 H   0  0  0  0  0  0  0  0  0  0  0  0
  152.1615  134.6569  157.4836 H   0  0  0  0  0  0  0  0  0  0  0  0
  148.9390  135.0755  157.3220 H   0  0  0  0  0  0  0  0  0  0  0  0
  148.5608  133.4062  157.0296 H   0  0  0  0  0  0  0  0  0  0  0  0
  149.5998  132.8750  158.7700 H   0  0  0  0  0  0  0  0  0  0  0  0
  149.4858  135.3456  154.8131 H   0  0  0  0  0  0  0  0  0  0  0  0
  150.8161  134.4739  154.1103 H   0  0  0  0  0  0  0  0  0  0  0  0
  148.0942  133.2503  154.7950 H   0  0  0  0  0  0  0  0  0  0  0  0
  148.7328  133.5912  153.2049 H   0  0  0  0  0  0  0  0  0  0  0  0
  149.1463  131.4342  156.0850 H   0  0  0  0  0  0  0  0  0  0  0  0
  150.4921  130.5935  155.3557 H   0  0  0  0  0  0  0  0  0  0  0  0
  151.9521  132.5265  155.5326 H   0  0  0  0  0  0  0  0  0  0  0  0
  151.2999  132.1751  157.1115 H   0  0  0  0  0  0  0  0  0  0  0  0
  152.5142  141.9874  156.9222 H   0  0  0  0  0  0  0  0  0  0  0  0
  150.9225  140.4486  159.0148 H   0  0  0  0  0  0  0  0  0  0  0  0
  152.3970  139.9052  158.2379 H   0  0  0  0  0  0  0  0  0  0  0  0
  152.8152  140.9389  160.4810 H   0  0  0  0  0  0  0  0  0  0  0  0
  153.6520  141.8118  159.2240 H   0  0  0  0  0  0  0  0  0  0  0  0
  150.4460  145.5061  158.9382 H   0  0  0  0  0  0  0  0  0  0  0  0
  151.2897  145.2392  160.4606 H   0  0  0  0  0  0  0  0  0  0  0  0
  149.8612  144.2920  160.0714 H   0  0  0  0  0  0  0  0  0  0  0  0
  152.6863  145.1467  157.7275 H   0  0  0  0  0  0  0  0  0  0  0  0
  153.6040  143.6712  157.9468 H   0  0  0  0  0  0  0  0  0  0  0  0
  153.4867  144.8298  159.2607 H   0  0  0  0  0  0  0  0  0  0  0  0
  150.6743  143.6713  157.0289 H   0  0  0  0  0  0  0  0  0  0  0  0
  149.8700  142.7086  158.2427 H   0  0  0  0  0  0  0  0  0  0  0  0
  1  2  1  0  0  0  0
  1 30  1  0  0  0  0
  1 31  1  0  0  0  0
  1 32  1  0  0  0  0
  2  3  1  0  0  0  0
  2 33  1  0  0  0  0
  2 34  1  0  0  0  0
  3  4  1  0  0  0  0
  3 22  1  0  0  0  0
  4  9  1  0  0  0  0
  4  5  2  0  0  0  0
  5  6  1  0  0  0  0
  6  7  2  0  0  0  0
  6 35  1  0  0  0  0
  7  8  1  0  0  0  0
  8 12  1  0  0  0  0
  8  9  2  0  0  0  0
  9 10  1  0  0  0  0
 10 11  2  0  0  0  0
 11 12  1  0  0  0  0
 11 36  1  0  0  0  0
 12 13  1  0  0  0  0
 13 14  1  0  0  0  0
 13 37  1  0  0  0  0
 13 38  1  0  0  0  0
 14 21  1  0  0  0  0
 14 15  1  0  0  0  0
 14 17  1  0  0  0  0
 15 16  1  0  0  0  0
 15 39  1  0  0  0  0
 15 40  1  0  0  0  0
 16 41  1  0  0  0  0
 17 18  1  0  0  0  0
 17 42  1  0  0  0  0
 17 43  1  0  0  0  0
 18 19  1  0  0  0  0
 18 44  1  0  0  0  0
 18 45  1  0  0  0  0
 19 20  1  0  0  0  0
 20 21  1  0  0  0  0
 20 46  1  0  0  0  0
 20 47  1  0  0  0  0
 21 48  1  0  0  0  0
 21 49  1  0  0  0  0
 22 29  1  0  0  0  0
 22 23  1  0  0  0  0
 22 50  1  0  0  0  0
 23 24  1  0  0  0  0
 23 51  1  0  0  0  0
 23 52  1  0  0  0  0
 24 25  1  0  0  0  0
 24 53  1  0  0  0  0
 24 54  1  0  0  0  0
 25 26  1  0  0  0  0
 26 27  1  0  0  0  0
 26 28  1  0  0  0  0
 26 29  1  0  0  0  0
 27 55  1  0  0  0  0
 27 56  1  0  0  0  0
 27 57  1  0  0  0  0
 28 58  1  0  0  0  0
 28 59  1  0  0  0  0
 28 60  1  0  0  0  0
 29 61  1  0  0  0  0
 29 62  1  0  0  0  0
M  END
> <s_m_source_file>
AV-unprocessed.smi

> <i_m_source_file_index>
85

> <i_lp_mmshare_version>
43012

> <i_f3d_flags>
0

> <s_epik_input>
W0NIM11DMShbQ0gzXSlPW0NIMl1bQ0gyXVtDQEhdKFtDSDJdMSlOKFtDSDJdW0NIM10pYyhuW2NIXW4yKWMoYzIzKW5bY0hdbjNbQ0gyXUM0KFtDSDJdW09IXSlbQ0gyXVtDSDJdT1tDSDJdW0NIMl00

> <s_epik_cmdline>
J2VwaWtfcHl0aG9uJywgJy1waCcsICc3LjAnLCAnLXRuJywgJzgnLCAnLW1hJywgJzIwMCcsICctbWV0YWxfYmluZGluZycsICctaW1hZScsICc8aW5maWxlLm1hZT4nLCAnLW9tYWUnLCAnPG91dGZpbGUubWFlPic=

> <r_lp_tautomer_probability>
1

> <r_epik_Ionization_Penalty>
0.00336056

> <r_epik_Ionization_Penalty_Charging>
0

> <r_epik_Ionization_Penalty_Neutral>
0.00336056

> <r_epik_State_Penalty>
0.00222191

> <r_epik_Charging_Adjusted_Penalty>
0.00222191

> <i_epik_Tot_Q>
0

> <i_epik_Tot_abs_Q>
0

> <r_epik_Metal_State_Penalty>
-0

> <b_epik_Metal_Only>
0

> <s_lp_Force_Field>
OPLS_2005

> <r_lp_Energy>
35.7443

> <b_lp_Chiralities_Consistent>
1

> <s_lp_Variant>
AV-unprocessed.smi:85-1

> <Gold.Version>
5.8.1

> <Gold.Id.Protein>
6NUR|6NUR_protein|mol2

> <Gold.PLP.Fitness>
55.7113

> <Gold.PLP.PLP>
-49.7933

> <Gold.PLP.part.hbond>
-3.3363

> <Gold.PLP.part.metal>
0.0000

> <Gold.PLP.part.buried>
-7.9124

> <Gold.PLP.part.nonpolar>
-38.4944

> <Gold.PLP.part.repulsive>
0.2762

> <Gold.PLP.ligand.clash>
0.0000

> <Gold.PLP.ligand.torsion>
1.0129

> <Gold.PLP.Chemscore.Hbond>
2.3600

> <Gold.PLP.Chemscore.CHOScore>
0.0000

> <Gold.PLP.Chemscore.Metal>
0.0000

> <Gold.Chemscore.Hbonds>
donor molecule, donor type, donor heavy atom, donor atom, acceptor molecule, acceptor atom, score
      P1  H  6896  6908       L1    16  0.03
      P1  H  7989  7998       L1     5  0.80
      P1  H 10752 10763       L1     7  0.59

> <Gold.PLP.Chemscore.Internal.Correction>
0.8637

> <Gold.Rescore>
     Score         DG    S(hbond)    S(metal)    S(lipo)     H(rot)  DE(clash)    DE(int)     intcor
     18.71     -20.32       2.57        0.00     111.43       2.65       0.06       1.56       ----

> <Gold.Chemscore.Fitness>
18.7090

> <Gold.Chemscore.DG>
-20.3220

> <Gold.Chemscore.ZeroCoef>
-5.4800

> <Gold.Chemscore.Hbond>
2.5692

> <Gold.Chemscore.Metal>
0.0000

> <Gold.Chemscore.Lipo>
111.4260

> <Gold.Chemscore.Internal_Hbond>
0.0000

> <Gold.Chemscore.DEClash>
0.0580

> <Gold.Chemscore.DEInternal>
1.5551

> <Gold.Chemscore.Rot>
2.6469

> <Gold.Chemscore.Internal.Correction>
   9.000000E+99

> <Gold.Chemscore.Hbonds>
donor molecule, donor type, donor heavy atom, donor atom, acceptor molecule, acceptor atom, score
      P1  H  6896  6908       L1    16  0.02
      P1  H  7989  7998       L1     5  0.62
      P1  H 10752 10763       L1     7  0.41

> <Gold.Chemscore.Hbond.Weighted>
-8.5812

> <Gold.Chemscore.Metal.Weighted>
-0.0000

> <Gold.Chemscore.Lipo.Weighted>
-13.0368

> <Gold.Chemscore.Internal_Hbond.Weighted>
0.0000

> <Gold.Chemscore.DEClash.Weighted>
0.0580

> <Gold.Chemscore.DEInternal.Weighted>
1.5551

> <Gold.Chemscore.Rot.Weighted>
6.7761

> <Gold.Chemscore.Internal.Correction.Weighted>
   9.000000E+99

> <Gold.Protein.RotatedTorsions>
[ 6907 6896 6895 6894 ] final  126.33 input  -60.11 | X-H torsion
[ 7974 7965 7964 7962 ] final  -92.89 input  175.53 | X-H torsion
[ 8008 7997 7996 7995 ] final    7.08 input   59.86 | X-H torsion
[ 10167 10162 10161 10158 ] final  106.63 input  -65.29 | X-H torsion
[ 10718 10713 10712 10709 ] final -146.64 input   66.30 | X-H torsion
[ 10763 10752 10751 10750 ] final   49.01 input  -60.55 | X-H torsion
[ 11005 11000 10999 10996 ] final  133.69 input  -57.11 | X-H torsion

> <Gold.Protein.ActiveResidues>
 VAL166  LYS551  ARG553  GLY616  TRP617  ASP618  TYR619  PRO620  LYS621  CYS622 
 ASP623  PHE694  ASN695  SER759  ASP760  ASP761  ALA762  ILE779  LEU786  VAL792 
 PHE793  MET794  SER795  GLU796  ALA797  LYS798  CYS799  TRP800  GLU811  SER814 

> <Gold.Protein.RotatedAtoms>
  152.3912  133.6682  159.6239 H   0  0  0  0  0  0  0  0  0  0  0  0  # atno 6907 bound_to 6896
  150.7820  133.8950  159.3333 H   0  0  0  0  0  0  0  0  0  0  0  0  # atno 6908 bound_to 6896
  151.6736  135.0974  160.0254 H   0  0  0  0  0  0  0  0  0  0  0  0  # atno 6909 bound_to 6896
  145.3938  140.9531  143.2325 H   0  0  0  0  0  0  0  0  0  0  0  0  # atno 7974 bound_to 7965
  154.7492  140.2763  155.6307 H   0  0  0  0  0  0  0  0  0  0  0  0  # atno 8008 bound_to 7997
  156.2892  140.2682  156.2167 H   0  0  0  0  0  0  0  0  0  0  0  0  # atno 8009 bound_to 7997
  155.0159  140.0372  157.2408 H   0  0  0  0  0  0  0  0  0  0  0  0  # atno 8010 bound_to 7997
  139.6993  144.7096  151.1213 H   0  0  0  0  0  0  0  0  0  0  0  0  # atno 10167 bound_to 10162
  156.3975  130.7917  151.2125 H   0  0  0  0  0  0  0  0  0  0  0  0  # atno 10718 bound_to 10713
  152.9789  135.5926  154.4019 H   0  0  0  0  0  0  0  0  0  0  0  0  # atno 10763 bound_to 10752
  154.3663  135.2767  155.2293 H   0  0  0  0  0  0  0  0  0  0  0  0  # atno 10764 bound_to 10752
  154.4268  135.6046  153.6099 H   0  0  0  0  0  0  0  0  0  0  0  0  # atno 10765 bound_to 10752
  139.9867  134.9529  156.9760 H   0  0  0  0  0  0  0  0  0  0  0  0  # atno 11005 bound_to 11000
  144.8421  139.5455  143.6895 LP  0  0  0  0  0  0  0  0  0  0  0  0  # atno 17320 bound_to 7965
  146.2785  139.6814  142.9246 LP  0  0  0  0  0  0  0  0  0  0  0  0  # atno 17321 bound_to 7965
  140.7705  143.5447  150.9273 LP  0  0  0  0  0  0  0  0  0  0  0  0  # atno 17342 bound_to 10162
  139.9128  143.6700  152.3112 LP  0  0  0  0  0  0  0  0  0  0  0  0  # atno 17343 bound_to 10162
  157.7502  131.0297  150.4103 LP  0  0  0  0  0  0  0  0  0  0  0  0  # atno 17370 bound_to 10713
  156.4377  130.3985  149.6718 LP  0  0  0  0  0  0  0  0  0  0  0  0  # atno 17371 bound_to 10713
  140.4988  134.1118  155.7246 LP  0  0  0  0  0  0  0  0  0  0  0  0  # atno 17394 bound_to 11000
  141.1531  133.8932  157.2047 LP  0  0  0  0  0  0  0  0  0  0  0  0  # atno 17395 bound_to 11000

$$$$
