AV-unprocessed.smi:2531|AV-procd|sdf|9966|dock9
  -GOLD-   2272014 13D 1   1.00000     0.00000
 Structure written by MMmdl.
 45 47  0  0  0  0  0  0  0  0  2 V2000
  150.3983  141.8063  155.7819 O   0  0  0  0  0  0  0  0  0  0  0  0
  150.0516  140.6813  155.4187 C   0  0  0  0  0  0  0  0  0  0  0  0
  148.5573  140.3037  155.3491 C   0  0  0  0  0  0  0  0  0  0  0  0
  148.1536  139.7289  153.9722 C   0  0  0  0  0  0  0  0  0  0  0  0
  147.2729  140.7812  153.2798 C   0  0  0  0  0  0  0  0  0  0  0  0
  147.3769  142.0479  154.1290 C   0  0  0  0  0  0  0  0  0  0  0  0
  147.6558  141.5348  155.5405 C   0  0  0  0  0  0  0  0  0  0  0  0
  150.9912  139.6831  155.1450 N   0  0  0  0  0  0  0  0  0  0  0  0
  152.3228  139.7329  155.7307 C   0  0  0  0  0  0  0  0  0  0  0  0
  152.2971  138.2029  155.6523 C   0  0  0  0  0  0  0  0  0  0  0  0
  152.9066  137.3975  157.2018 S   0  0  0  0  0  0  0  0  0  0  0  0
  151.6958  137.0237  157.9508 O   0  0  0  0  0  0  0  0  0  0  0  0
  153.7988  136.2986  156.7976 O   0  0  0  0  0  0  0  0  0  0  0  0
  153.7149  138.6327  157.8754 N   0  5  0  0  0  0  0  0  0  0  0  0
  153.0239  139.5391  158.7807 C   0  0  0  0  0  0  0  0  0  0  0  0
  154.0159  140.5269  159.4418 C   0  0  0  0  0  0  0  0  0  0  0  0
  153.3847  141.6988  160.1890 C   0  0  0  0  0  0  0  0  0  0  0  0
  153.4321  141.7576  161.6007 C   0  0  0  0  0  0  0  0  0  0  0  0
  152.8451  142.8598  162.2502 C   0  0  0  0  0  0  0  0  0  0  0  0
  152.2219  143.8532  161.4713 C   0  0  0  0  0  0  0  0  0  0  0  0
  152.2132  143.6985  160.0710 C   0  0  0  0  0  0  0  0  0  0  0  0
  152.7725  142.6458  159.4371 N   0  0  0  0  0  0  0  0  0  0  0  0
  150.7705  138.2937  155.5219 C   0  0  0  0  0  0  0  0  0  0  0  0
  148.3438  139.5627  156.1203 H   0  0  0  0  0  0  0  0  0  0  0  0
  149.0187  139.4864  153.3531 H   0  0  0  0  0  0  0  0  0  0  0  0
  147.5964  138.7997  154.0957 H   0  0  0  0  0  0  0  0  0  0  0  0
  147.5720  140.9574  152.2461 H   0  0  0  0  0  0  0  0  0  0  0  0
  146.2385  140.4358  153.2657 H   0  0  0  0  0  0  0  0  0  0  0  0
  148.2146  142.6555  153.7845 H   0  0  0  0  0  0  0  0  0  0  0  0
  146.4781  142.6630  154.0767 H   0  0  0  0  0  0  0  0  0  0  0  0
  146.7216  141.2313  156.0147 H   0  0  0  0  0  0  0  0  0  0  0  0
  148.1006  142.3065  156.1707 H   0  0  0  0  0  0  0  0  0  0  0  0
  153.0708  140.2067  155.0950 H   0  0  0  0  0  0  0  0  0  0  0  0
  152.3353  140.1168  156.7531 H   0  0  0  0  0  0  0  0  0  0  0  0
  152.8050  137.8148  154.7681 H   0  0  0  0  0  0  0  0  0  0  0  0
  152.2276  140.0980  158.2879 H   0  0  0  0  0  0  0  0  0  0  0  0
  152.5298  138.9767  159.5733 H   0  0  0  0  0  0  0  0  0  0  0  0
  154.6404  139.9770  160.1467 H   0  0  0  0  0  0  0  0  0  0  0  0
  154.7020  140.9166  158.6885 H   0  0  0  0  0  0  0  0  0  0  0  0
  153.9252  140.9840  162.1707 H   0  0  0  0  0  0  0  0  0  0  0  0
  152.8743  142.9423  163.3264 H   0  0  0  0  0  0  0  0  0  0  0  0
  151.7629  144.7134  161.9351 H   0  0  0  0  0  0  0  0  0  0  0  0
  151.7416  144.4396  159.4428 H   0  0  0  0  0  0  0  0  0  0  0  0
  150.2257  138.1787  156.4592 H   0  0  0  0  0  0  0  0  0  0  0  0
  150.3536  137.6812  154.7223 H   0  0  0  0  0  0  0  0  0  0  0  0
  1  2  2  0  0  0  0
  2  3  1  0  0  0  0
  2  8  1  0  0  0  0
  3  7  1  0  0  0  0
  3  4  1  0  0  0  0
  3 24  1  0  0  0  0
  4  5  1  0  0  0  0
  4 25  1  0  0  0  0
  4 26  1  0  0  0  0
  5  6  1  0  0  0  0
  5 27  1  0  0  0  0
  5 28  1  0  0  0  0
  6  7  1  0  0  0  0
  6 29  1  0  0  0  0
  6 30  1  0  0  0  0
  7 31  1  0  0  0  0
  7 32  1  0  0  0  0
  8 23  1  0  0  0  0
  8  9  1  0  0  0  0
  9 10  1  0  0  0  0
  9 33  1  0  0  0  0
  9 34  1  0  0  0  0
 10 11  1  0  0  0  0
 10 23  1  0  0  0  0
 10 35  1  0  0  0  0
 11 12  2  0  0  0  0
 11 13  2  0  0  0  0
 11 14  1  0  0  0  0
 14 15  1  0  0  0  0
 15 16  1  0  0  0  0
 15 36  1  0  0  0  0
 15 37  1  0  0  0  0
 16 17  1  0  0  0  0
 16 38  1  0  0  0  0
 16 39  1  0  0  0  0
 17 22  1  0  0  0  0
 17 18  2  0  0  0  0
 18 19  1  0  0  0  0
 18 40  1  0  0  0  0
 19 20  2  0  0  0  0
 19 41  1  0  0  0  0
 20 21  1  0  0  0  0
 20 42  1  0  0  0  0
 21 22  2  0  0  0  0
 21 43  1  0  0  0  0
 23 44  1  0  0  0  0
 23 45  1  0  0  0  0
M  CHG  1  14  -1
M  END
> <s_m_source_file>
AV-unprocessed.smi

> <i_m_source_file_index>
2531

> <i_lp_mmshare_version>
43012

> <i_f3d_flags>
0

> <s_epik_input>
W0NIMl0xW0NIMl1bQ0gyXVtDSDJdW0NIXTFDKD1PKU4yW0NIMl1bQ0hdKFtDSDJdMilTKD1PKSg9TylbTkhdW0NIMl1bQ0gyXWMzW2NIXVtjSF1bY0hdW2NIXW4z

> <s_epik_cmdline>
J2VwaWtfcHl0aG9uJywgJy1waCcsICc3LjAnLCAnLXRuJywgJzgnLCAnLW1hJywgJzIwMCcsICctbWV0YWxfYmluZGluZycsICctaW1hZScsICc8aW5maWxlLm1hZT4nLCAnLW9tYWUnLCAnPG91dGZpbGUubWFlPic=

> <r_epik_Ionization_Penalty>
5.87379

> <r_epik_Ionization_Penalty_Charging>
5.8024

> <r_epik_Ionization_Penalty_Neutral>
0.0713848

> <r_epik_State_Penalty>
5.81862

> <r_epik_Charging_Adjusted_Penalty>
11.621

> <i_epik_Tot_Q>
-1

> <i_epik_Tot_abs_Q>
1

> <r_epik_Metal_State_Penalty>
1.80653

> <b_epik_Metal_Only>
1

> <s_lp_Force_Field>
OPLS_2005

> <r_lp_Energy>
33.3625

> <b_lp_Chiralities_Consistent>
1

> <s_lp_Variant>
AV-unprocessed.smi:2531-3

> <Gold.Version>
5.8.1

> <Gold.Id.Protein>
6NUR|6NUR_protein|mol2

> <Gold.PLP.Fitness>
56.2282

> <Gold.PLP.PLP>
-47.7910

> <Gold.PLP.part.hbond>
-2.0000

> <Gold.PLP.part.metal>
0.0000

> <Gold.PLP.part.buried>
-2.9244

> <Gold.PLP.part.nonpolar>
-41.5246

> <Gold.PLP.part.repulsive>
0.1093

> <Gold.PLP.ligand.clash>
0.0000

> <Gold.PLP.ligand.torsion>
1.5472

> <Gold.PLP.Chemscore.Hbond>
3.0000

> <Gold.PLP.Chemscore.CHOScore>
0.0000

> <Gold.PLP.Chemscore.Metal>
0.0000

> <Gold.Chemscore.Hbonds>
donor molecule, donor type, donor heavy atom, donor atom, acceptor molecule, acceptor atom, score
      P1  H  7997  8009       L1    14  1.30
      P1  H 10752 10764       L1    13  1.00

> <Gold.PLP.Chemscore.Internal.Correction>
2.5317

> <Gold.Rescore>
     Score         DG    S(hbond)    S(metal)    S(lipo)     H(rot)  DE(clash)    DE(int)     intcor
     17.21     -18.80       1.11        0.00     117.41       1.61       0.10       1.49       ----

> <Gold.Chemscore.Fitness>
17.2120

> <Gold.Chemscore.DG>
-18.7953

> <Gold.Chemscore.ZeroCoef>
-5.4800

> <Gold.Chemscore.Hbond>
1.1087

> <Gold.Chemscore.Metal>
0.0000

> <Gold.Chemscore.Lipo>
117.4054

> <Gold.Chemscore.Internal_Hbond>
0.0000

> <Gold.Chemscore.DEClash>
0.0960

> <Gold.Chemscore.DEInternal>
1.4873

> <Gold.Chemscore.Rot>
1.6110

> <Gold.Chemscore.Internal.Correction>
   9.000000E+99

> <Gold.Chemscore.Hbonds>
donor molecule, donor type, donor heavy atom, donor atom, acceptor molecule, acceptor atom, score
      P1  H  7997  8009       L1    14  0.06
      P1  H 10752 10764       L1    13  0.96

> <Gold.Chemscore.Hbond.Weighted>
-3.7032

> <Gold.Chemscore.Metal.Weighted>
-0.0000

> <Gold.Chemscore.Lipo.Weighted>
-13.7364

> <Gold.Chemscore.Internal_Hbond.Weighted>
0.0000

> <Gold.Chemscore.DEClash.Weighted>
0.0960

> <Gold.Chemscore.DEInternal.Weighted>
1.4873

> <Gold.Chemscore.Rot.Weighted>
4.1243

> <Gold.Chemscore.Internal.Correction.Weighted>
   9.000000E+99

> <Gold.Protein.RotatedTorsions>
[ 6907 6896 6895 6894 ] final  -24.56 input  -60.11 | X-H torsion
[ 7974 7965 7964 7962 ] final  162.69 input  175.53 | X-H torsion
[ 8008 7997 7996 7995 ] final  155.26 input   59.86 | X-H torsion
[ 10167 10162 10161 10158 ] final   57.90 input  -65.29 | X-H torsion
[ 10718 10713 10712 10709 ] final  -36.84 input   66.30 | X-H torsion
[ 10763 10752 10751 10750 ] final   22.99 input  -60.55 | X-H torsion
[ 11005 11000 10999 10996 ] final -169.74 input  -57.11 | X-H torsion

> <Gold.Protein.ActiveResidues>
 VAL166  LYS551  ARG553  GLY616  TRP617  ASP618  TYR619  PRO620  LYS621  CYS622 
 ASP623  PHE694  ASN695  SER759  ASP760  ASP761  ALA762  ILE779  LEU786  VAL792 
 PHE793  MET794  SER795  GLU796  ALA797  LYS798  CYS799  TRP800  GLU811  SER814 

> <Gold.Protein.RotatedAtoms>
  151.1877  135.0389  159.8819 H   0  0  0  0  0  0  0  0  0  0  0  0  # atno 6907 bound_to 6896
  152.5441  134.0991  159.8320 H   0  0  0  0  0  0  0  0  0  0  0  0  # atno 6908 bound_to 6896
  151.1116  133.5122  159.2637 H   0  0  0  0  0  0  0  0  0  0  0  0  # atno 6909 bound_to 6896
  144.7625  139.8075  143.6327 H   0  0  0  0  0  0  0  0  0  0  0  0  # atno 7974 bound_to 7965
  156.2487  140.1944  156.6774 H   0  0  0  0  0  0  0  0  0  0  0  0  # atno 8008 bound_to 7997
  154.6347  140.0591  156.9800 H   0  0  0  0  0  0  0  0  0  0  0  0  # atno 8009 bound_to 7997
  155.1655  140.3263  155.4405 H   0  0  0  0  0  0  0  0  0  0  0  0  # atno 8010 bound_to 7997
  140.1930  144.4066  150.6563 H   0  0  0  0  0  0  0  0  0  0  0  0  # atno 10167 bound_to 10162
  156.3221  130.4267  149.7950 H   0  0  0  0  0  0  0  0  0  0  0  0  # atno 10718 bound_to 10713
  153.0872  135.6636  153.9925 H   0  0  0  0  0  0  0  0  0  0  0  0  # atno 10763 bound_to 10752
  153.9531  135.2982  155.3439 H   0  0  0  0  0  0  0  0  0  0  0  0  # atno 10764 bound_to 10752
  154.7282  135.5134  153.8993 H   0  0  0  0  0  0  0  0  0  0  0  0  # atno 10765 bound_to 10752
  140.5273  134.5651  157.5065 H   0  0  0  0  0  0  0  0  0  0  0  0  # atno 11005 bound_to 11000
  146.1701  139.4848  142.9933 LP  0  0  0  0  0  0  0  0  0  0  0  0  # atno 17320 bound_to 7965
  145.6574  141.0248  143.1727 LP  0  0  0  0  0  0  0  0  0  0  0  0  # atno 17321 bound_to 7965
  140.6443  143.2210  151.6221 LP  0  0  0  0  0  0  0  0  0  0  0  0  # atno 17342 bound_to 10162
  139.5248  144.3093  152.1007 LP  0  0  0  0  0  0  0  0  0  0  0  0  # atno 17343 bound_to 10162
  156.5254  130.8234  151.3218 LP  0  0  0  0  0  0  0  0  0  0  0  0  # atno 17370 bound_to 10713
  157.7414  130.9869  150.2442 LP  0  0  0  0  0  0  0  0  0  0  0  0  # atno 17371 bound_to 10713
  139.9573  134.7513  156.0313 LP  0  0  0  0  0  0  0  0  0  0  0  0  # atno 17394 bound_to 11000
  141.1301  133.6589  156.3441 LP  0  0  0  0  0  0  0  0  0  0  0  0  # atno 17395 bound_to 11000

$$$$
