AV-unprocessed.smi:3058|AV-procd|sdf|11676|dock8
  -GOLD-   2272017 83D 1   1.00000     0.00000
 Structure written by MMmdl.
 39 41  0  0  0  0  0  0  0  0  2 V2000
  151.4138  140.7556  157.8069 O   0  0  0  0  0  0  0  0  0  0  0  0
  150.9188  141.8753  157.6743 C   0  0  0  0  0  0  0  0  0  0  0  0
  150.2955  142.2702  156.5521 N   0  0  0  0  0  0  0  0  0  0  0  0
  150.0665  141.4399  155.3711 C   0  0  0  0  0  0  0  0  0  0  0  0
  148.7543  141.8013  154.6460 C   0  0  0  0  0  0  0  0  0  0  0  0
  147.9927  140.5944  154.1242 C   0  0  0  0  0  0  0  0  0  0  0  0
  148.5429  139.2966  154.2224 C   0  0  0  0  0  0  0  0  0  0  0  0
  147.8304  138.2010  153.6930 C   0  0  0  0  0  0  0  0  0  0  0  0
  146.5814  138.4268  153.0793 C   0  0  0  0  0  0  0  0  0  0  0  0
  146.0844  139.6812  153.0077 N   0  3  0  0  0  0  0  0  0  0  0  0
  146.7354  140.7565  153.5031 C   0  0  0  0  0  0  0  0  0  0  0  0
  150.9554  142.8952  158.8252 C   0  0  1  0  0  0  0  0  0  0  0  0
  152.1904  142.7233  159.7448 C   0  0  0  0  0  0  0  0  0  0  0  0
  152.8383  144.1219  159.7312 C   0  0  2  0  0  0  0  0  0  0  0  0
  151.9309  145.1147  160.4831 C   0  0  0  0  0  0  0  0  0  0  0  0
  150.7520  145.3031  159.5082 C   0  0  0  0  0  0  0  0  0  0  0  0
  151.1219  144.3602  158.3468 C   0  0  1  0  0  0  0  0  0  0  0  0
  152.6375  144.5512  158.2846 C   0  0  0  0  0  0  0  0  0  0  0  0
  149.9248  143.2093  156.5249 H   0  0  0  0  0  0  0  0  0  0  0  0
  150.9075  141.5752  154.6907 H   0  0  0  0  0  0  0  0  0  0  0  0
  150.0661  140.3826  155.6416 H   0  0  0  0  0  0  0  0  0  0  0  0
  148.1086  142.3659  155.3199 H   0  0  0  0  0  0  0  0  0  0  0  0
  148.9711  142.4662  153.8092 H   0  0  0  0  0  0  0  0  0  0  0  0
  149.5066  139.1418  154.6854 H   0  0  0  0  0  0  0  0  0  0  0  0
  148.2386  137.2027  153.7523 H   0  0  0  0  0  0  0  0  0  0  0  0
  145.9705  137.6484  152.6456 H   0  0  0  0  0  0  0  0  0  0  0  0
  146.2418  141.7087  153.3737 H   0  0  0  0  0  0  0  0  0  0  0  0
  150.0369  142.7965  159.4067 H   0  0  0  0  0  0  0  0  0  0  0  0
  151.9100  142.4140  160.7523 H   0  0  0  0  0  0  0  0  0  0  0  0
  152.8915  141.9792  159.3623 H   0  0  0  0  0  0  0  0  0  0  0  0
  153.8732  144.1287  160.0747 H   0  0  0  0  0  0  0  0  0  0  0  0
  151.6129  144.7297  161.4529 H   0  0  0  0  0  0  0  0  0  0  0  0
  152.4441  146.0624  160.6507 H   0  0  0  0  0  0  0  0  0  0  0  0
  149.7907  145.0566  159.9605 H   0  0  0  0  0  0  0  0  0  0  0  0
  150.7020  146.3373  159.1650 H   0  0  0  0  0  0  0  0  0  0  0  0
  150.5963  144.5898  157.4189 H   0  0  0  0  0  0  0  0  0  0  0  0
  152.9350  145.5845  158.0960 H   0  0  0  0  0  0  0  0  0  0  0  0
  153.1447  143.9053  157.5677 H   0  0  0  0  0  0  0  0  0  0  0  0
  145.1808  139.8233  152.5554 H   0  0  0  0  0  0  0  0  0  0  0  0
  1  2  2  0  0  0  0
  2  3  1  0  0  0  0
  2 12  1  0  0  0  0
  3  4  1  0  0  0  0
  3 19  1  0  0  0  0
  4  5  1  0  0  0  0
  4 20  1  0  0  0  0
  4 21  1  0  0  0  0
  5  6  1  0  0  0  0
  5 22  1  0  0  0  0
  5 23  1  0  0  0  0
  6 11  1  0  0  0  0
  6  7  2  0  0  0  0
  7  8  1  0  0  0  0
  7 24  1  0  0  0  0
  8  9  2  0  0  0  0
  8 25  1  0  0  0  0
  9 10  1  0  0  0  0
  9 26  1  0  0  0  0
 10 11  2  0  0  0  0
 10 39  1  0  0  0  0
 11 27  1  0  0  0  0
 12 17  1  0  0  0  0
 12 13  1  0  0  0  0
 12 28  1  0  0  0  0
 13 14  1  0  0  0  0
 13 29  1  0  0  0  0
 13 30  1  0  0  0  0
 14 18  1  0  0  0  0
 14 15  1  0  0  0  0
 14 31  1  0  0  0  0
 15 16  1  0  0  0  0
 15 32  1  0  0  0  0
 15 33  1  0  0  0  0
 16 17  1  0  0  0  0
 16 34  1  0  0  0  0
 16 35  1  0  0  0  0
 17 18  1  0  0  0  0
 17 36  1  0  0  0  0
 18 37  1  0  0  0  0
 18 38  1  0  0  0  0
M  CHG  1  10   1
M  END
> <s_m_source_file>
AV-unprocessed.smi

> <i_m_source_file_index>
3058

> <i_lp_mmshare_version>
43012

> <i_f3d_flags>
0

> <s_epik_input>
W0NIMl0xW0NIMl1bQ0BIXShbQ0gyXTIpW0NAQEhdKFtDSDJdW0NAQEhdMTIpQyg9TylbTkhdW0NIMl1bQ0gyXWMzW2NIXVtjSF1bY0hdbltjSF0z

> <s_epik_cmdline>
J2VwaWtfcHl0aG9uJywgJy1waCcsICc3LjAnLCAnLXRuJywgJzgnLCAnLW1hJywgJzIwMCcsICctbWV0YWxfYmluZGluZycsICctaW1hZScsICc8aW5maWxlLm1hZT4nLCAnLW9tYWUnLCAnPG91dGZpbGUubWFlPic=

> <r_epik_Ionization_Penalty>
2.24375

> <r_epik_Ionization_Penalty_Charging>
2.24375

> <r_epik_Ionization_Penalty_Neutral>
1.89995e-08

> <r_epik_State_Penalty>
2.39035

> <r_epik_Charging_Adjusted_Penalty>
4.63411

> <i_epik_Tot_Q>
1

> <i_epik_Tot_abs_Q>
1

> <r_epik_Metal_State_Penalty>
2.40369

> <b_epik_Metal_Only>
0

> <s_lp_Force_Field>
OPLS_2005

> <r_lp_Energy>
53.8629

> <b_lp_Chiralities_Consistent>
1

> <s_lp_Variant>
AV-unprocessed.smi:3058-8

> <Gold.Version>
5.8.1

> <Gold.Id.Protein>
6NUR|6NUR_protein|mol2

> <Gold.PLP.Fitness>
46.8550

> <Gold.PLP.PLP>
-40.2610

> <Gold.PLP.part.hbond>
-2.0000

> <Gold.PLP.part.metal>
0.0000

> <Gold.PLP.part.buried>
0.7121

> <Gold.PLP.part.nonpolar>
-38.4100

> <Gold.PLP.part.repulsive>
0.0708

> <Gold.PLP.ligand.clash>
0.0000

> <Gold.PLP.ligand.torsion>
1.1958

> <Gold.PLP.Chemscore.Hbond>
2.9840

> <Gold.PLP.Chemscore.CHOScore>
0.0000

> <Gold.PLP.Chemscore.Metal>
0.0000

> <Gold.Chemscore.Hbonds>
donor molecule, donor type, donor heavy atom, donor atom, acceptor molecule, acceptor atom, score
      L1  H     3    19       P1  8028  1.00
      L1  H    10    39       P1 10175  2.00

> <Gold.PLP.Chemscore.Internal.Correction>
0.0336

> <Gold.Rescore>
     Score         DG    S(hbond)    S(metal)    S(lipo)     H(rot)  DE(clash)    DE(int)     intcor
     21.26     -22.73       1.95        0.00     123.62       1.45       0.25       1.22       ----

> <Gold.Chemscore.Fitness>
21.2590

> <Gold.Chemscore.DG>
-22.7286

> <Gold.Chemscore.ZeroCoef>
-5.4800

> <Gold.Chemscore.Hbond>
1.9487

> <Gold.Chemscore.Metal>
0.0000

> <Gold.Chemscore.Lipo>
123.6241

> <Gold.Chemscore.Internal_Hbond>
0.0000

> <Gold.Chemscore.DEClash>
0.2535

> <Gold.Chemscore.DEInternal>
1.2160

> <Gold.Chemscore.Rot>
1.4548

> <Gold.Chemscore.Internal.Correction>
   9.000000E+99

> <Gold.Chemscore.Hbonds>
donor molecule, donor type, donor heavy atom, donor atom, acceptor molecule, acceptor atom, score
      L1  H     3    19       P1  8028  0.91
      L1  H    10    39       P1 10175  0.97

> <Gold.Chemscore.Hbond.Weighted>
-6.5087

> <Gold.Chemscore.Metal.Weighted>
-0.0000

> <Gold.Chemscore.Lipo.Weighted>
-14.4640

> <Gold.Chemscore.Internal_Hbond.Weighted>
0.0000

> <Gold.Chemscore.DEClash.Weighted>
0.2535

> <Gold.Chemscore.DEInternal.Weighted>
1.2160

> <Gold.Chemscore.Rot.Weighted>
3.7242

> <Gold.Chemscore.Internal.Correction.Weighted>
   9.000000E+99

> <Gold.Protein.RotatedTorsions>
[ 6907 6896 6895 6894 ] final  -42.36 input  -60.11 | X-H torsion
[ 7974 7965 7964 7962 ] final  -89.28 input  175.53 | X-H torsion
[ 8008 7997 7996 7995 ] final   93.01 input   59.86 | X-H torsion
[ 10167 10162 10161 10158 ] final  152.88 input  -65.29 | X-H torsion
[ 10718 10713 10712 10709 ] final  -15.26 input   66.30 | X-H torsion
[ 10763 10752 10751 10750 ] final  -10.83 input  -60.55 | X-H torsion
[ 11005 11000 10999 10996 ] final  -70.61 input  -57.11 | X-H torsion

> <Gold.Protein.ActiveResidues>
 VAL166  LYS551  ARG553  GLY616  TRP617  ASP618  TYR619  PRO620  LYS621  CYS622 
 ASP623  PHE694  ASN695  SER759  ASP760  ASP761  ALA762  ILE779  LEU786  VAL792 
 PHE793  MET794  SER795  GLU796  ALA797  LYS798  CYS799  TRP800  GLU811  SER814 

> <Gold.Protein.RotatedAtoms>
  150.9561  134.8955  159.7701 H   0  0  0  0  0  0  0  0  0  0  0  0  # atno 6907 bound_to 6896
  152.5138  134.3738  159.9337 H   0  0  0  0  0  0  0  0  0  0  0  0  # atno 6908 bound_to 6896
  151.3752  133.3800  159.2739 H   0  0  0  0  0  0  0  0  0  0  0  0  # atno 6909 bound_to 6896
  145.4419  140.9559  143.2070 H   0  0  0  0  0  0  0  0  0  0  0  0  # atno 7974 bound_to 7965
  156.0419  140.3318  155.7253 H   0  0  0  0  0  0  0  0  0  0  0  0  # atno 8008 bound_to 7997
  155.5732  140.0630  157.2819 H   0  0  0  0  0  0  0  0  0  0  0  0  # atno 8009 bound_to 7997
  154.4397  140.1857  156.0889 H   0  0  0  0  0  0  0  0  0  0  0  0  # atno 8010 bound_to 7997
  139.4830  144.5320  151.7707 H   0  0  0  0  0  0  0  0  0  0  0  0  # atno 10167 bound_to 10162
  156.6043  130.4832  149.6227 H   0  0  0  0  0  0  0  0  0  0  0  0  # atno 10718 bound_to 10713
  153.4749  135.7017  153.5972 H   0  0  0  0  0  0  0  0  0  0  0  0  # atno 10763 bound_to 10752
  153.4210  135.3825  155.2111 H   0  0  0  0  0  0  0  0  0  0  0  0  # atno 10764 bound_to 10752
  154.8724  135.3927  154.4191 H   0  0  0  0  0  0  0  0  0  0  0  0  # atno 10765 bound_to 10752
  141.1577  133.6794  156.6779 H   0  0  0  0  0  0  0  0  0  0  0  0  # atno 11005 bound_to 11000
  144.8116  139.5952  143.7027 LP  0  0  0  0  0  0  0  0  0  0  0  0  # atno 17320 bound_to 7965
  146.2551  139.6285  142.9400 LP  0  0  0  0  0  0  0  0  0  0  0  0  # atno 17321 bound_to 7965
  140.4848  144.1397  150.5939 LP  0  0  0  0  0  0  0  0  0  0  0  0  # atno 17342 bound_to 10162
  140.4238  143.2599  151.9682 LP  0  0  0  0  0  0  0  0  0  0  0  0  # atno 17343 bound_to 10162
  156.2443  130.6869  151.1585 LP  0  0  0  0  0  0  0  0  0  0  0  0  # atno 17370 bound_to 10713
  157.7271  131.0641  150.5879 LP  0  0  0  0  0  0  0  0  0  0  0  0  # atno 17371 bound_to 10713
  140.3125  134.8074  157.4187 LP  0  0  0  0  0  0  0  0  0  0  0  0  # atno 17394 bound_to 11000
  140.1166  134.5274  155.8219 LP  0  0  0  0  0  0  0  0  0  0  0  0  # atno 17395 bound_to 11000

$$$$
