AV-unprocessed.smi:229|AV-procd|sdf|1756|dock4
  -GOLD-   2262020283D 1   1.00000     0.00000
 Structure written by MMmdl.
 58 62  0  0  0  0  0  0  0  0  1 V2000
  152.6132  143.3277  160.1191 C   0  0  0  0  0  0  0  0  0  0  0  0
  153.3849  142.0806  159.6703 C   0  0  0  0  0  0  0  0  0  0  0  0
  152.4749  140.9994  159.0687 C   0  0  1  0  0  0  0  0  0  0  0  0
  151.5798  141.5608  157.9510 C   0  0  0  0  0  0  0  0  0  0  0  0
  150.8136  140.4801  157.3406 N   0  0  0  0  0  0  0  0  0  0  0  0
  149.7467  140.8005  156.5656 C   0  0  0  0  0  0  0  0  0  0  0  0
  149.7623  140.5147  155.2357 N   0  0  0  0  0  0  0  0  0  0  0  0
  148.7177  140.8292  154.4639 C   0  0  0  0  0  0  0  0  0  0  0  0
  147.5761  141.4283  154.8080 N   0  0  0  0  0  0  0  0  0  0  0  0
  147.5566  141.7228  156.1390 C   0  0  0  0  0  0  0  0  0  0  0  0
  148.5868  141.4452  157.0815 C   0  0  0  0  0  0  0  0  0  0  0  0
  148.2110  141.9042  158.3394 N   0  0  0  0  0  0  0  0  0  0  0  0
  147.0246  142.4148  158.1527 C   0  0  0  0  0  0  0  0  0  0  0  0
  146.5593  142.3552  156.8586 N   0  0  0  0  0  0  0  0  0  0  0  0
  145.2912  142.8605  156.3621 C   0  0  0  0  0  0  0  0  0  0  0  0
  144.4107  143.4429  157.4891 C   0  0  2  0  0  0  0  0  0  0  0  0
  143.3880  142.5073  157.7736 O   0  0  0  0  0  0  0  0  0  0  0  0
  143.7370  144.7756  157.1058 C   0  0  2  0  0  0  0  0  0  0  0  0
  143.2300  144.8481  155.6631 C   0  0  0  0  0  0  0  0  0  0  0  0
  143.2410  146.3355  155.3466 C   0  0  0  0  0  0  0  0  0  0  0  0
  144.1192  146.9387  156.4448 C   0  0  0  0  0  0  0  0  0  0  0  0
  144.6973  145.8221  157.1047 O   0  0  0  0  0  0  0  0  0  0  0  0
  151.6574  139.4050  156.8328 C   0  0  0  0  0  0  0  0  0  0  0  0
  152.5880  138.8694  157.9448 C   0  0  2  0  0  0  0  0  0  0  0  0
  153.6167  137.8969  157.3769 C   0  0  0  0  0  0  0  0  0  0  0  0
  152.9808  136.5361  157.6174 C   0  0  0  0  0  0  0  0  0  0  0  0
  152.4115  136.6913  158.9034 O   0  0  0  0  0  0  0  0  0  0  0  0
  151.8486  137.9958  158.9858 C   0  0  0  0  0  0  0  0  0  0  0  0
  153.3000  139.9610  158.5356 O   0  0  0  0  0  0  0  0  0  0  0  0
  153.2908  144.0743  160.5333 H   0  0  0  0  0  0  0  0  0  0  0  0
  151.8784  143.0840  160.8867 H   0  0  0  0  0  0  0  0  0  0  0  0
  152.0847  143.7863  159.2829 H   0  0  0  0  0  0  0  0  0  0  0  0
  154.1296  142.3780  158.9311 H   0  0  0  0  0  0  0  0  0  0  0  0
  153.9386  141.6691  160.5151 H   0  0  0  0  0  0  0  0  0  0  0  0
  151.8402  140.6027  159.8616 H   0  0  0  0  0  0  0  0  0  0  0  0
  150.9071  142.3135  158.3647 H   0  0  0  0  0  0  0  0  0  0  0  0
  152.1879  142.0489  157.1879 H   0  0  0  0  0  0  0  0  0  0  0  0
  148.8108  140.5641  153.4212 H   0  0  0  0  0  0  0  0  0  0  0  0
  146.4582  142.8628  158.9564 H   0  0  0  0  0  0  0  0  0  0  0  0
  145.5068  143.6195  155.6099 H   0  0  0  0  0  0  0  0  0  0  0  0
  144.7697  142.0519  155.8481 H   0  0  0  0  0  0  0  0  0  0  0  0
  145.0166  143.5835  158.3853 H   0  0  0  0  0  0  0  0  0  0  0  0
  143.7447  141.6372  157.6787 H   0  0  0  0  0  0  0  0  0  0  0  0
  142.9249  145.0185  157.7947 H   0  0  0  0  0  0  0  0  0  0  0  0
  143.9215  144.3313  154.9959 H   0  0  0  0  0  0  0  0  0  0  0  0
  142.2442  144.3990  155.5392 H   0  0  0  0  0  0  0  0  0  0  0  0
  143.6502  146.5199  154.3526 H   0  0  0  0  0  0  0  0  0  0  0  0
  142.2372  146.7603  155.3821 H   0  0  0  0  0  0  0  0  0  0  0  0
  144.8886  147.6031  156.0506 H   0  0  0  0  0  0  0  0  0  0  0  0
  143.5135  147.5022  157.1559 H   0  0  0  0  0  0  0  0  0  0  0  0
  151.0703  138.5888  156.4138 H   0  0  0  0  0  0  0  0  0  0  0  0
  152.2542  139.8073  156.0129 H   0  0  0  0  0  0  0  0  0  0  0  0
  153.8585  138.0747  156.3286 H   0  0  0  0  0  0  0  0  0  0  0  0
  154.5465  137.9583  157.9449 H   0  0  0  0  0  0  0  0  0  0  0  0
  152.1969  136.3313  156.8864 H   0  0  0  0  0  0  0  0  0  0  0  0
  153.7035  135.7204  157.5923 H   0  0  0  0  0  0  0  0  0  0  0  0
  151.9642  138.3598  160.0064 H   0  0  0  0  0  0  0  0  0  0  0  0
  150.7800  137.9406  158.7734 H   0  0  0  0  0  0  0  0  0  0  0  0
  1  2  1  0  0  0  0
  1 30  1  0  0  0  0
  1 31  1  0  0  0  0
  1 32  1  0  0  0  0
  2  3  1  0  0  0  0
  2 33  1  0  0  0  0
  2 34  1  0  0  0  0
  3 29  1  0  0  0  0
  3  4  1  0  0  0  0
  3 35  1  0  0  0  0
  4  5  1  0  0  0  0
  4 36  1  0  0  0  0
  4 37  1  0  0  0  0
  5  6  1  0  0  0  0
  5 23  1  0  0  0  0
  6 11  1  0  0  0  0
  6  7  2  0  0  0  0
  7  8  1  0  0  0  0
  8  9  2  0  0  0  0
  8 38  1  0  0  0  0
  9 10  1  0  0  0  0
 10 14  1  0  0  0  0
 10 11  2  0  0  0  0
 11 12  1  0  0  0  0
 12 13  2  0  0  0  0
 13 14  1  0  0  0  0
 13 39  1  0  0  0  0
 14 15  1  0  0  0  0
 15 16  1  0  0  0  0
 15 40  1  0  0  0  0
 15 41  1  0  0  0  0
 16 17  1  0  0  0  0
 16 18  1  0  0  0  0
 16 42  1  0  0  0  0
 17 43  1  0  0  0  0
 18 22  1  0  0  0  0
 18 19  1  0  0  0  0
 18 44  1  0  0  0  0
 19 20  1  0  0  0  0
 19 45  1  0  0  0  0
 19 46  1  0  0  0  0
 20 21  1  0  0  0  0
 20 47  1  0  0  0  0
 20 48  1  0  0  0  0
 21 22  1  0  0  0  0
 21 49  1  0  0  0  0
 21 50  1  0  0  0  0
 23 24  1  0  0  0  0
 23 51  1  0  0  0  0
 23 52  1  0  0  0  0
 24 28  1  0  0  0  0
 24 25  1  0  0  0  0
 24 29  1  0  0  0  0
 25 26  1  0  0  0  0
 25 53  1  0  0  0  0
 25 54  1  0  0  0  0
 26 27  1  0  0  0  0
 26 55  1  0  0  0  0
 26 56  1  0  0  0  0
 27 28  1  0  0  0  0
 28 57  1  0  0  0  0
 28 58  1  0  0  0  0
M  END
> <s_m_source_file>
AV-unprocessed.smi

> <i_m_source_file_index>
229

> <i_lp_mmshare_version>
43012

> <i_f3d_flags>
0

> <s_epik_input>
W0NIMl0xT1tDSDJdW0NIMl1bQ0BdMTJbQ0gyXU4oW0NIMl1bQ0BIXShPMilbQ0gyXVtDSDNdKWMobltjSF1uMyljKGMzNCluW2NIXW40W0NIMl1bQ0BIXShbT0hdKVtDQEBIXTVbQ0gyXVtDSDJdW0NIMl1PNQ==

> <s_epik_cmdline>
J2VwaWtfcHl0aG9uJywgJy1waCcsICc3LjAnLCAnLXRuJywgJzgnLCAnLW1hJywgJzIwMCcsICctbWV0YWxfYmluZGluZycsICctaW1hZScsICc8aW5maWxlLm1hZT4nLCAnLW9tYWUnLCAnPG91dGZpbGUubWFlPic=

> <r_lp_tautomer_probability>
1

> <r_epik_Ionization_Penalty>
0.00318402

> <r_epik_Ionization_Penalty_Charging>
0

> <r_epik_Ionization_Penalty_Neutral>
0.00318402

> <r_epik_State_Penalty>
0.00215642

> <r_epik_Charging_Adjusted_Penalty>
0.00215642

> <i_epik_Tot_Q>
0

> <i_epik_Tot_abs_Q>
0

> <r_epik_Metal_State_Penalty>
-0

> <b_epik_Metal_Only>
0

> <s_lp_Force_Field>
OPLS_2005

> <r_lp_Energy>
55.2871

> <b_lp_Chiralities_Consistent>
1

> <s_lp_Variant>
AV-unprocessed.smi:229-10

> <Gold.Version>
5.8.1

> <Gold.Id.Protein>
6NUR|6NUR_protein|mol2

> <Gold.PLP.Fitness>
44.4353

> <Gold.PLP.PLP>
-38.2422

> <Gold.PLP.part.hbond>
-2.0000

> <Gold.PLP.part.metal>
0.0000

> <Gold.PLP.part.buried>
-7.0427

> <Gold.PLP.part.nonpolar>
-30.2754

> <Gold.PLP.part.repulsive>
0.5081

> <Gold.PLP.ligand.clash>
0.0000

> <Gold.PLP.ligand.torsion>
1.2998

> <Gold.PLP.Chemscore.Hbond>
1.8000

> <Gold.PLP.Chemscore.CHOScore>
1.0000

> <Gold.PLP.Chemscore.Metal>
0.0000

> <Gold.Chemscore.Hbonds>
donor molecule, donor type, donor heavy atom, donor atom, acceptor molecule, acceptor atom, score
      P1  H  6896  6908       L1    27  0.83
      P1  H  7997  8010       L1    29  0.85
      L1  C     8    38       P1  7957  1.00

> <Gold.PLP.Chemscore.Internal.Correction>
0.3927

> <Gold.Rescore>
     Score         DG    S(hbond)    S(metal)    S(lipo)     H(rot)  DE(clash)    DE(int)     intcor
     13.05     -14.61       1.53        0.00      88.09       2.46       0.23       1.33       ----

> <Gold.Chemscore.Fitness>
13.0523

> <Gold.Chemscore.DG>
-14.6106

> <Gold.Chemscore.ZeroCoef>
-5.4800

> <Gold.Chemscore.Hbond>
1.5329

> <Gold.Chemscore.Metal>
0.0000

> <Gold.Chemscore.Lipo>
88.0864

> <Gold.Chemscore.Internal_Hbond>
0.0000

> <Gold.Chemscore.DEClash>
0.2282

> <Gold.Chemscore.DEInternal>
1.3301

> <Gold.Chemscore.Rot>
2.4591

> <Gold.Chemscore.Internal.Correction>
   9.000000E+99

> <Gold.Chemscore.Hbonds>
donor molecule, donor type, donor heavy atom, donor atom, acceptor molecule, acceptor atom, score
      P1  H  6896  6908       L1    27  0.78
      P1  H  7997  8010       L1    29  0.14

> <Gold.Chemscore.Hbond.Weighted>
-5.1198

> <Gold.Chemscore.Metal.Weighted>
-0.0000

> <Gold.Chemscore.Lipo.Weighted>
-10.3061

> <Gold.Chemscore.Internal_Hbond.Weighted>
0.0000

> <Gold.Chemscore.DEClash.Weighted>
0.2282

> <Gold.Chemscore.DEInternal.Weighted>
1.3301

> <Gold.Chemscore.Rot.Weighted>
6.2953

> <Gold.Chemscore.Internal.Correction.Weighted>
   9.000000E+99

> <Gold.Protein.RotatedTorsions>
[ 6907 6896 6895 6894 ] final -110.58 input  -60.11 | X-H torsion
[ 7974 7965 7964 7962 ] final -104.96 input  175.53 | X-H torsion
[ 8008 7997 7996 7995 ] final   20.89 input   59.86 | X-H torsion
[ 10167 10162 10161 10158 ] final  -36.44 input  -65.29 | X-H torsion
[ 10718 10713 10712 10709 ] final   64.28 input   66.30 | X-H torsion
[ 10763 10752 10751 10750 ] final   71.95 input  -60.55 | X-H torsion
[ 11005 11000 10999 10996 ] final   25.21 input  -57.11 | X-H torsion

> <Gold.Protein.ActiveResidues>
 VAL166  LYS551  ARG553  GLY616  TRP617  ASP618  TYR619  PRO620  LYS621  CYS622 
 ASP623  PHE694  ASN695  SER759  ASP760  ASP761  ALA762  ILE779  LEU786  VAL792 
 PHE793  MET794  SER795  GLU796  ALA797  LYS798  CYS799  TRP800  GLU811  SER814 

> <Gold.Protein.RotatedAtoms>
  150.7634  133.9361  159.3441 H   0  0  0  0  0  0  0  0  0  0  0  0  # atno 6907 bound_to 6896
  151.7265  135.0882  160.0302 H   0  0  0  0  0  0  0  0  0  0  0  0  # atno 6908 bound_to 6896
  152.3617  133.6268  159.6056 H   0  0  0  0  0  0  0  0  0  0  0  0  # atno 6909 bound_to 6896
  145.2366  140.9190  143.3174 H   0  0  0  0  0  0  0  0  0  0  0  0  # atno 7974 bound_to 7965
  154.9424  140.3055  155.5114 H   0  0  0  0  0  0  0  0  0  0  0  0  # atno 8008 bound_to 7997
  156.2995  140.2334  156.4431 H   0  0  0  0  0  0  0  0  0  0  0  0  # atno 8009 bound_to 7997
  154.8133  140.0427  157.1347 H   0  0  0  0  0  0  0  0  0  0  0  0  # atno 8010 bound_to 7997
  140.7142  143.3408  151.2361 H   0  0  0  0  0  0  0  0  0  0  0  0  # atno 10167 bound_to 10162
  157.6029  130.9151  149.9825 H   0  0  0  0  0  0  0  0  0  0  0  0  # atno 10718 bound_to 10713
  153.0429  135.5118  154.7671 H   0  0  0  0  0  0  0  0  0  0  0  0  # atno 10763 bound_to 10752
  154.6594  135.2936  154.9889 H   0  0  0  0  0  0  0  0  0  0  0  0  # atno 10764 bound_to 10752
  154.0745  135.6673  153.4881 H   0  0  0  0  0  0  0  0  0  0  0  0  # atno 10765 bound_to 10752
  140.3503  134.2236  155.7680 H   0  0  0  0  0  0  0  0  0  0  0  0  # atno 11005 bound_to 11000
  144.9628  139.3962  143.6347 LP  0  0  0  0  0  0  0  0  0  0  0  0  # atno 17320 bound_to 7965
  146.3339  139.8689  142.8843 LP  0  0  0  0  0  0  0  0  0  0  0  0  # atno 17321 bound_to 7965
  139.6915  143.9683  152.2862 LP  0  0  0  0  0  0  0  0  0  0  0  0  # atno 17342 bound_to 10162
  139.9347  144.6719  150.8327 LP  0  0  0  0  0  0  0  0  0  0  0  0  # atno 17343 bound_to 10162
  156.1107  130.3650  150.0055 LP  0  0  0  0  0  0  0  0  0  0  0  0  # atno 17370 bound_to 10713
  156.8154  130.9339  151.3643 LP  0  0  0  0  0  0  0  0  0  0  0  0  # atno 17371 bound_to 10713
  141.2014  133.7964  157.0443 LP  0  0  0  0  0  0  0  0  0  0  0  0  # atno 17394 bound_to 11000
  140.0709  134.9703  157.1465 LP  0  0  0  0  0  0  0  0  0  0  0  0  # atno 17395 bound_to 11000

$$$$
