AV-unprocessed.smi:118|AV-procd|sdf|1132|dock4
  -GOLD-   2262018263D 1   1.00000     0.00000
 Structure written by MMmdl.
 41 44  0  0  0  0  0  0  0  0  1 V2000
  148.0248  137.8700  159.9653 O   0  0  0  0  0  0  0  0  0  0  0  0
  148.7647  137.1774  159.2652 C   0  0  0  0  0  0  0  0  0  0  0  0
  149.5505  137.8069  158.1038 C   0  0  0  0  0  0  0  0  0  0  0  0
  150.5883  138.7616  158.5514 N   0  0  0  0  0  0  0  0  0  0  0  0
  151.5973  138.3110  159.4382 C   0  0  0  0  0  0  0  0  0  0  0  0
  151.6320  137.1424  159.8264 O   0  0  0  0  0  0  0  0  0  0  0  0
  152.5671  139.3186  159.8522 C   0  0  0  0  0  0  0  0  0  0  0  0
  153.5712  138.9762  160.6773 F   0  0  0  0  0  0  0  0  0  0  0  0
  152.4741  140.5930  159.4197 C   0  0  0  0  0  0  0  0  0  0  0  0
  151.4689  141.0251  158.5723 N   0  0  0  0  0  0  0  0  0  0  0  0
  151.3748  142.4613  158.0984 C   0  0  1  0  0  0  0  0  0  0  0  0
  150.0734  143.1181  158.6017 C   0  0  0  0  0  0  0  0  0  0  0  0
  150.5713  144.3735  159.2904 C   0  0  0  0  0  0  0  0  0  0  0  0
  151.9640  143.9579  159.7386 C   0  0  0  0  0  0  0  0  0  0  0  0
  152.4338  143.2075  158.6267 O   0  0  0  0  0  0  0  0  0  0  0  0
  150.5067  140.1026  158.1069 C   0  0  0  0  0  0  0  0  0  0  0  0
  149.6126  140.4628  157.3377 O   0  0  0  0  0  0  0  0  0  0  0  0
  148.9468  135.8549  159.4287 N   0  0  0  0  0  0  0  0  0  0  0  0
  148.3515  134.9929  160.3910 C   0  0  0  0  0  0  0  0  0  0  0  0
  147.5111  135.4529  161.4376 C   0  0  0  0  0  0  0  0  0  0  0  0
  146.9615  134.5495  162.3746 C   0  0  0  0  0  0  0  0  0  0  0  0
  147.2458  133.1709  162.2967 C   0  0  0  0  0  0  0  0  0  0  0  0
  148.0928  132.7125  161.2721 C   0  0  0  0  0  0  0  0  0  0  0  0
  148.6446  133.6124  160.3311 C   0  0  0  0  0  0  0  0  0  0  0  0
  149.4614  132.9934  159.3861 N   0  0  0  0  0  0  0  0  0  0  0  0
  149.3648  131.5394  159.8481 S   0  0  0  0  0  0  0  0  0  0  0  0
  148.4678  131.3876  161.0765 N   0  0  0  0  0  0  0  0  0  0  0  0
  149.9787  137.0008  157.5064 H   0  0  0  0  0  0  0  0  0  0  0  0
  148.8512  138.2962  157.4233 H   0  0  0  0  0  0  0  0  0  0  0  0
  153.2266  141.2869  159.7613 H   0  0  0  0  0  0  0  0  0  0  0  0
  151.4623  142.4154  157.0114 H   0  0  0  0  0  0  0  0  0  0  0  0
  149.3949  143.3248  157.7736 H   0  0  0  0  0  0  0  0  0  0  0  0
  149.5701  142.4662  159.3178 H   0  0  0  0  0  0  0  0  0  0  0  0
  150.6388  145.1930  158.5738 H   0  0  0  0  0  0  0  0  0  0  0  0
  149.9329  144.6901  160.1154 H   0  0  0  0  0  0  0  0  0  0  0  0
  152.6111  144.8084  159.9531 H   0  0  0  0  0  0  0  0  0  0  0  0
  151.9151  143.3270  160.6272 H   0  0  0  0  0  0  0  0  0  0  0  0
  149.5098  135.3961  158.7273 H   0  0  0  0  0  0  0  0  0  0  0  0
  147.2832  136.5015  161.5502 H   0  0  0  0  0  0  0  0  0  0  0  0
  146.3212  134.9196  163.1617 H   0  0  0  0  0  0  0  0  0  0  0  0
  146.8258  132.4818  163.0146 H   0  0  0  0  0  0  0  0  0  0  0  0
  1  2  2  0  0  0  0
  2  3  1  0  0  0  0
  2 18  1  0  0  0  0
  3  4  1  0  0  0  0
  3 28  1  0  0  0  0
  3 29  1  0  0  0  0
  4 16  1  0  0  0  0
  4  5  1  0  0  0  0
  5  6  2  0  0  0  0
  5  7  1  0  0  0  0
  7  8  1  0  0  0  0
  7  9  2  0  0  0  0
  9 10  1  0  0  0  0
  9 30  1  0  0  0  0
 10 11  1  0  0  0  0
 10 16  1  0  0  0  0
 11 15  1  0  0  0  0
 11 12  1  0  0  0  0
 11 31  1  0  0  0  0
 12 13  1  0  0  0  0
 12 32  1  0  0  0  0
 12 33  1  0  0  0  0
 13 14  1  0  0  0  0
 13 34  1  0  0  0  0
 13 35  1  0  0  0  0
 14 15  1  0  0  0  0
 14 36  1  0  0  0  0
 14 37  1  0  0  0  0
 16 17  2  0  0  0  0
 18 19  1  0  0  0  0
 18 38  1  0  0  0  0
 19 24  1  0  0  0  0
 19 20  2  0  0  0  0
 20 21  1  0  0  0  0
 20 39  1  0  0  0  0
 21 22  2  0  0  0  0
 21 40  1  0  0  0  0
 22 23  1  0  0  0  0
 22 41  1  0  0  0  0
 23 27  1  0  0  0  0
 23 24  2  0  0  0  0
 24 25  1  0  0  0  0
 25 26  2  0  0  0  0
 26 27  2  0  0  0  0
M  END
> <s_m_source_file>
AV-unprocessed.smi

> <i_m_source_file_index>
118

> <i_lp_mmshare_version>
43012

> <i_f3d_flags>
0

> <s_epik_input>
TjE9Uz1OYyhjMTIpYyhbY0hdW2NIXVtjSF0yKVtOSF1DKD1PKVtDSDJdbjNjKD1PKWMoRilbY0hdbihjMz1PKVtDQEBIXTRbQ0gyXVtDSDJdW0NIMl1PNA==

> <s_epik_cmdline>
J2VwaWtfcHl0aG9uJywgJy1waCcsICc3LjAnLCAnLXRuJywgJzgnLCAnLW1hJywgJzIwMCcsICctbWV0YWxfYmluZGluZycsICctaW1hZScsICc8aW5maWxlLm1hZT4nLCAnLW9tYWUnLCAnPG91dGZpbGUubWFlPic=

> <r_lp_tautomer_probability>
1

> <r_epik_Ionization_Penalty>
1.81156e-06

> <r_epik_Ionization_Penalty_Charging>
3.88729e-08

> <r_epik_Ionization_Penalty_Neutral>
1.77269e-06

> <r_epik_State_Penalty>
-0

> <r_epik_Charging_Adjusted_Penalty>
3.88729e-08

> <i_epik_Tot_Q>
0

> <i_epik_Tot_abs_Q>
0

> <r_epik_Metal_State_Penalty>
-0

> <b_epik_Metal_Only>
0

> <s_epik_Chemistry_Notes>
This compound contains an acetal/aminal-like group ( X-CH(R)-Y where X, Y are N, S, or O) that may be acid/base labile, releasing an aldehyde.

> <s_lp_Force_Field>
OPLS_2005

> <r_lp_Energy>
52.0747

> <b_lp_Chiralities_Consistent>
1

> <s_lp_Variant>
AV-unprocessed.smi:118-2

> <Gold.Version>
5.8.1

> <Gold.Id.Protein>
6NUR|6NUR_protein|mol2

> <Gold.PLP.Fitness>
45.5261

> <Gold.PLP.PLP>
-37.9197

> <Gold.PLP.part.hbond>
-3.7160

> <Gold.PLP.part.metal>
0.0000

> <Gold.PLP.part.buried>
-4.7545

> <Gold.PLP.part.nonpolar>
-29.8917

> <Gold.PLP.part.repulsive>
0.1628

> <Gold.PLP.ligand.clash>
0.0000

> <Gold.PLP.ligand.torsion>
0.0655

> <Gold.PLP.Chemscore.Hbond>
2.5751

> <Gold.PLP.Chemscore.CHOScore>
0.0000

> <Gold.PLP.Chemscore.Metal>
0.0000

> <Gold.Chemscore.Hbonds>
donor molecule, donor type, donor heavy atom, donor atom, acceptor molecule, acceptor atom, score
      P1  H  6896  6908       L1    25  0.70
      P1  H  6896  6909       L1     6  1.00
      P1  H  6931  6943       L1     1  0.18
      P1  H  6934  6947       L1     1  0.50

> <Gold.PLP.Chemscore.Internal.Correction>
0.0122

> <Gold.Rescore>
     Score         DG    S(hbond)    S(metal)    S(lipo)     H(rot)  DE(clash)    DE(int)     intcor
     14.26     -17.17       2.02        0.00      81.57       1.80       0.15       2.76       ----

> <Gold.Chemscore.Fitness>
14.2600

> <Gold.Chemscore.DG>
-17.1736

> <Gold.Chemscore.ZeroCoef>
-5.4800

> <Gold.Chemscore.Hbond>
2.0217

> <Gold.Chemscore.Metal>
0.0000

> <Gold.Chemscore.Lipo>
81.5668

> <Gold.Chemscore.Internal_Hbond>
0.0000

> <Gold.Chemscore.DEClash>
0.1504

> <Gold.Chemscore.DEInternal>
2.7632

> <Gold.Chemscore.Rot>
1.7977

> <Gold.Chemscore.Internal.Correction>
   9.000000E+99

> <Gold.Chemscore.Hbonds>
donor molecule, donor type, donor heavy atom, donor atom, acceptor molecule, acceptor atom, score
      P1  H  6896  6908       L1    25  0.50
      P1  H  6896  6909       L1     6  0.98
      P1  H  6931  6943       L1     1  0.13
      P1  H  6934  6947       L1     1  0.48

> <Gold.Chemscore.Hbond.Weighted>
-6.7525

> <Gold.Chemscore.Metal.Weighted>
-0.0000

> <Gold.Chemscore.Lipo.Weighted>
-9.5433

> <Gold.Chemscore.Internal_Hbond.Weighted>
0.0000

> <Gold.Chemscore.DEClash.Weighted>
0.1504

> <Gold.Chemscore.DEInternal.Weighted>
2.7632

> <Gold.Chemscore.Rot.Weighted>
4.6022

> <Gold.Chemscore.Internal.Correction.Weighted>
   9.000000E+99

> <Gold.Protein.RotatedTorsions>
[ 6907 6896 6895 6894 ] final  114.34 input  -60.11 | X-H torsion
[ 7974 7965 7964 7962 ] final   23.14 input  175.53 | X-H torsion
[ 8008 7997 7996 7995 ] final  -25.78 input   59.86 | X-H torsion
[ 10167 10162 10161 10158 ] final -131.77 input  -65.29 | X-H torsion
[ 10718 10713 10712 10709 ] final   94.35 input   66.30 | X-H torsion
[ 10763 10752 10751 10750 ] final  -29.21 input  -60.55 | X-H torsion
[ 11005 11000 10999 10996 ] final  -32.69 input  -57.11 | X-H torsion

> <Gold.Protein.ActiveResidues>
 VAL166  LYS551  ARG553  GLY616  TRP617  ASP618  TYR619  PRO620  LYS621  CYS622 
 ASP623  PHE694  ASN695  SER759  ASP760  ASP761  ALA762  ILE779  LEU786  VAL792 
 PHE793  MET794  SER795  GLU796  ALA797  LYS798  CYS799  TRP800  GLU811  SER814 

> <Gold.Protein.RotatedAtoms>
  152.4808  133.8250  159.7072 H   0  0  0  0  0  0  0  0  0  0  0  0  # atno 6907 bound_to 6896
  150.8857  133.7302  159.2925 H   0  0  0  0  0  0  0  0  0  0  0  0  # atno 6908 bound_to 6896
  151.4792  135.1054  159.9825 H   0  0  0  0  0  0  0  0  0  0  0  0  # atno 6909 bound_to 6896
  146.1998  139.7787  142.8770 H   0  0  0  0  0  0  0  0  0  0  0  0  # atno 7974 bound_to 7965
  154.4458  140.1917  156.0673 H   0  0  0  0  0  0  0  0  0  0  0  0  # atno 8008 bound_to 7997
  156.0538  140.3305  155.7354 H   0  0  0  0  0  0  0  0  0  0  0  0  # atno 8009 bound_to 7997
  155.5517  140.0595  157.2839 H   0  0  0  0  0  0  0  0  0  0  0  0  # atno 8010 bound_to 7997
  139.9154  143.6444  152.2566 H   0  0  0  0  0  0  0  0  0  0  0  0  # atno 10167 bound_to 10162
  157.6948  131.0509  150.4172 H   0  0  0  0  0  0  0  0  0  0  0  0  # atno 10718 bound_to 10713
  153.7609  135.6919  153.4925 H   0  0  0  0  0  0  0  0  0  0  0  0  # atno 10763 bound_to 10752
  153.1939  135.4461  155.0182 H   0  0  0  0  0  0  0  0  0  0  0  0  # atno 10764 bound_to 10752
  154.8153  135.3396  154.7125 H   0  0  0  0  0  0  0  0  0  0  0  0  # atno 10765 bound_to 10752
  140.9573  133.7185  156.1313 H   0  0  0  0  0  0  0  0  0  0  0  0  # atno 11005 bound_to 11000
  145.3523  141.0310  143.3331 LP  0  0  0  0  0  0  0  0  0  0  0  0  # atno 17320 bound_to 7965
  144.8658  139.5110  143.6791 LP  0  0  0  0  0  0  0  0  0  0  0  0  # atno 17321 bound_to 7965
  139.6906  144.7647  151.1445 LP  0  0  0  0  0  0  0  0  0  0  0  0  # atno 17342 bound_to 10162
  140.7675  143.5594  150.9116 LP  0  0  0  0  0  0  0  0  0  0  0  0  # atno 17343 bound_to 10162
  156.4551  130.4020  149.6611 LP  0  0  0  0  0  0  0  0  0  0  0  0  # atno 17370 bound_to 10713
  156.3747  130.7548  151.2535 LP  0  0  0  0  0  0  0  0  0  0  0  0  # atno 17371 bound_to 10713
  140.7518  134.4036  157.5540 LP  0  0  0  0  0  0  0  0  0  0  0  0  # atno 17394 bound_to 11000
  139.8866  134.8905  156.2574 LP  0  0  0  0  0  0  0  0  0  0  0  0  # atno 17395 bound_to 11000

$$$$
