AV-unprocessed.smi:1953|AV-procd|sdf|7893|dock3
  -GOLD-   2272010 53D 1   1.00000     0.00000
 Structure written by MMmdl.
 43 45  0  0  0  0  0  0  0  0  1 V2000
  145.4160  140.8917  160.3056 N   0  0  0  0  0  0  0  0  0  0  0  0
  145.6066  141.2308  159.2154 C   0  0  0  0  0  0  0  0  0  0  0  0
  145.8701  141.6582  157.8814 C   0  0  0  0  0  0  0  0  0  0  0  0
  145.0427  142.5000  157.2284 C   0  0  0  0  0  0  0  0  0  0  0  0
  145.2902  142.9344  155.9445 N   0  0  0  0  0  0  0  0  0  0  0  0
  144.3299  143.7146  155.2162 C   0  0  0  0  0  0  0  0  0  0  0  0
  143.8088  145.0146  155.7979 C   0  0  0  0  0  0  0  0  0  0  0  0
  142.9101  143.8046  155.7322 C   0  0  0  0  0  0  0  0  0  0  0  0
  146.3994  142.4357  155.2278 C   0  0  0  0  0  0  0  0  0  0  0  0
  146.5934  142.7523  154.0512 O   0  0  0  0  0  0  0  0  0  0  0  0
  147.2840  141.5580  155.9010 N   0  0  0  0  0  0  0  0  0  0  0  0
  148.4836  141.0816  155.1784 C   0  0  0  0  0  0  0  0  0  0  0  0
  149.7741  141.2332  155.9969 C   0  0  0  0  0  0  0  0  0  0  0  0
  150.5249  140.2726  156.1738 O   0  0  0  0  0  0  0  0  0  0  0  0
  150.0215  142.4588  156.4831 N   0  0  0  0  0  0  0  0  0  0  0  0
  151.1736  142.8269  157.3005 C   0  0  0  0  0  0  0  0  0  0  0  0
  151.1978  142.0067  158.6082 C   0  0  0  0  0  0  0  0  0  0  0  0
  152.3548  142.4389  159.5232 C   0  0  0  0  0  0  0  0  0  0  0  0
  152.2979  143.9451  159.8205 C   0  0  0  0  0  0  0  0  0  0  0  0
  152.2838  144.7649  158.5210 C   0  0  0  0  0  0  0  0  0  0  0  0
  151.1269  144.3366  157.6039 C   0  0  0  0  0  0  0  0  0  0  0  0
  147.0785  141.1427  157.2417 C   0  0  0  0  0  0  0  0  0  0  0  0
  147.8801  140.3968  157.8065 O   0  0  0  0  0  0  0  0  0  0  0  0
  144.1559  142.8566  157.7325 H   0  0  0  0  0  0  0  0  0  0  0  0
  144.4388  143.6912  154.1333 H   0  0  0  0  0  0  0  0  0  0  0  0
  144.1623  145.3170  156.7820 H   0  0  0  0  0  0  0  0  0  0  0  0
  143.6090  145.8290  155.1047 H   0  0  0  0  0  0  0  0  0  0  0  0
  142.1094  143.8135  154.9957 H   0  0  0  0  0  0  0  0  0  0  0  0
  142.6724  143.3101  156.6721 H   0  0  0  0  0  0  0  0  0  0  0  0
  148.3900  140.0353  154.8850 H   0  0  0  0  0  0  0  0  0  0  0  0
  148.5915  141.6120  154.2304 H   0  0  0  0  0  0  0  0  0  0  0  0
  149.3542  143.1899  156.2837 H   0  0  0  0  0  0  0  0  0  0  0  0
  152.0860  142.6215  156.7370 H   0  0  0  0  0  0  0  0  0  0  0  0
  150.2524  142.1293  159.1388 H   0  0  0  0  0  0  0  0  0  0  0  0
  151.2900  140.9428  158.3866 H   0  0  0  0  0  0  0  0  0  0  0  0
  152.3220  141.8738  160.4549 H   0  0  0  0  0  0  0  0  0  0  0  0
  153.3058  142.1957  159.0474 H   0  0  0  0  0  0  0  0  0  0  0  0
  151.4045  144.1696  160.4047 H   0  0  0  0  0  0  0  0  0  0  0  0
  153.1505  144.2356  160.4350 H   0  0  0  0  0  0  0  0  0  0  0  0
  152.2002  145.8271  158.7526 H   0  0  0  0  0  0  0  0  0  0  0  0
  153.2320  144.6361  157.9973 H   0  0  0  0  0  0  0  0  0  0  0  0
  151.1660  144.9062  156.6745 H   0  0  0  0  0  0  0  0  0  0  0  0
  150.1785  144.5886  158.0808 H   0  0  0  0  0  0  0  0  0  0  0  0
  1  2  3  0  0  0  0
  2  3  1  0  0  0  0
  3 22  1  0  0  0  0
  3  4  2  0  0  0  0
  4  5  1  0  0  0  0
  4 24  1  0  0  0  0
  5  6  1  0  0  0  0
  5  9  1  0  0  0  0
  6  8  1  0  0  0  0
  6  7  1  0  0  0  0
  6 25  1  0  0  0  0
  7  8  1  0  0  0  0
  7 26  1  0  0  0  0
  7 27  1  0  0  0  0
  8 28  1  0  0  0  0
  8 29  1  0  0  0  0
  9 10  2  0  0  0  0
  9 11  1  0  0  0  0
 11 12  1  0  0  0  0
 11 22  1  0  0  0  0
 12 13  1  0  0  0  0
 12 30  1  0  0  0  0
 12 31  1  0  0  0  0
 13 14  2  0  0  0  0
 13 15  1  0  0  0  0
 15 16  1  0  0  0  0
 15 32  1  0  0  0  0
 16 21  1  0  0  0  0
 16 17  1  0  0  0  0
 16 33  1  0  0  0  0
 17 18  1  0  0  0  0
 17 34  1  0  0  0  0
 17 35  1  0  0  0  0
 18 19  1  0  0  0  0
 18 36  1  0  0  0  0
 18 37  1  0  0  0  0
 19 20  1  0  0  0  0
 19 38  1  0  0  0  0
 19 39  1  0  0  0  0
 20 21  1  0  0  0  0
 20 40  1  0  0  0  0
 20 41  1  0  0  0  0
 21 42  1  0  0  0  0
 21 43  1  0  0  0  0
 22 23  2  0  0  0  0
M  END
> <s_m_source_file>
AV-unprocessed.smi

> <i_m_source_file_index>
1953

> <i_lp_mmshare_version>
43012

> <i_f3d_flags>
0

> <s_epik_input>
TiNDYzFbY0hdbihbQ0hdMltDSDJdW0NIMl0yKWMoPU8pbihjMT1PKVtDSDJdQyg9TylbTkhdW0NIXTNbQ0gyXVtDSDJdW0NIMl1bQ0gyXVtDSDJdMw==

> <s_epik_cmdline>
J2VwaWtfcHl0aG9uJywgJy1waCcsICc3LjAnLCAnLXRuJywgJzgnLCAnLW1hJywgJzIwMCcsICctbWV0YWxfYmluZGluZycsICctaW1hZScsICc8aW5maWxlLm1hZT4nLCAnLW9tYWUnLCAnPG91dGZpbGUubWFlPic=

> <r_lp_tautomer_probability>
1

> <r_epik_Ionization_Penalty>
1.91355e-08

> <r_epik_Ionization_Penalty_Charging>
8.86257e-11

> <r_epik_Ionization_Penalty_Neutral>
1.90469e-08

> <r_epik_State_Penalty>
-0

> <r_epik_Charging_Adjusted_Penalty>
8.86257e-11

> <i_epik_Tot_Q>
0

> <i_epik_Tot_abs_Q>
0

> <r_epik_Metal_State_Penalty>
-0

> <b_epik_Metal_Only>
0

> <s_lp_Force_Field>
OPLS_2005

> <r_lp_Energy>
34.5376

> <b_lp_Chiralities_Consistent>
1

> <s_lp_Variant>
AV-unprocessed.smi:1953-1

> <Gold.Version>
5.8.1

> <Gold.Id.Protein>
6NUR|6NUR_protein|mol2

> <Gold.PLP.Fitness>
43.6218

> <Gold.PLP.PLP>
-38.4706

> <Gold.PLP.part.hbond>
-2.3100

> <Gold.PLP.part.metal>
0.0000

> <Gold.PLP.part.buried>
-3.8113

> <Gold.PLP.part.nonpolar>
-32.1280

> <Gold.PLP.part.repulsive>
0.2934

> <Gold.PLP.ligand.clash>
0.0073

> <Gold.PLP.ligand.torsion>
0.5217

> <Gold.PLP.Chemscore.Hbond>
2.0000

> <Gold.PLP.Chemscore.CHOScore>
0.0000

> <Gold.PLP.Chemscore.Metal>
0.0000

> <Gold.Chemscore.Hbonds>
donor molecule, donor type, donor heavy atom, donor atom, acceptor molecule, acceptor atom, score
      L1  H    15    32       P1  8028  1.00
      P1  H  6934  6946       L1     1  0.52

> <Gold.PLP.Chemscore.Internal.Correction>
0.2018

> <Gold.Rescore>
     Score         DG    S(hbond)    S(metal)    S(lipo)     H(rot)  DE(clash)    DE(int)     intcor
     13.79     -17.18       1.64        0.00      91.09       1.73       1.51       1.87       ----

> <Gold.Chemscore.Fitness>
13.7905

> <Gold.Chemscore.DG>
-17.1802

> <Gold.Chemscore.ZeroCoef>
-5.4800

> <Gold.Chemscore.Hbond>
1.6380

> <Gold.Chemscore.Metal>
0.0000

> <Gold.Chemscore.Lipo>
91.0897

> <Gold.Chemscore.Internal_Hbond>
0.0000

> <Gold.Chemscore.DEClash>
1.5147

> <Gold.Chemscore.DEInternal>
1.8749

> <Gold.Chemscore.Rot>
1.7298

> <Gold.Chemscore.Internal.Correction>
   9.000000E+99

> <Gold.Chemscore.Hbonds>
donor molecule, donor type, donor heavy atom, donor atom, acceptor molecule, acceptor atom, score
      L1  H    15    32       P1  8028  0.98
      P1  H  6934  6946       L1     1  0.09

> <Gold.Chemscore.Hbond.Weighted>
-5.4710

> <Gold.Chemscore.Metal.Weighted>
-0.0000

> <Gold.Chemscore.Lipo.Weighted>
-10.6575

> <Gold.Chemscore.Internal_Hbond.Weighted>
0.0000

> <Gold.Chemscore.DEClash.Weighted>
1.5147

> <Gold.Chemscore.DEInternal.Weighted>
1.8749

> <Gold.Chemscore.Rot.Weighted>
4.4284

> <Gold.Chemscore.Internal.Correction.Weighted>
   9.000000E+99

> <Gold.Protein.RotatedTorsions>
[ 6907 6896 6895 6894 ] final   -5.61 input  -60.11 | X-H torsion
[ 7974 7965 7964 7962 ] final   95.90 input  175.53 | X-H torsion
[ 8008 7997 7996 7995 ] final   38.24 input   59.86 | X-H torsion
[ 10167 10162 10161 10158 ] final  -78.76 input  -65.29 | X-H torsion
[ 10718 10713 10712 10709 ] final -113.12 input   66.30 | X-H torsion
[ 10763 10752 10751 10750 ] final -125.04 input  -60.55 | X-H torsion
[ 11005 11000 10999 10996 ] final  133.81 input  -57.11 | X-H torsion

> <Gold.Protein.ActiveResidues>
 VAL166  LYS551  ARG553  GLY616  TRP617  ASP618  TYR619  PRO620  LYS621  CYS622 
 ASP623  PHE694  ASN695  SER759  ASP760  ASP761  ALA762  ILE779  LEU786  VAL792 
 PHE793  MET794  SER795  GLU796  ALA797  LYS798  CYS799  TRP800  GLU811  SER814 

> <Gold.Protein.RotatedAtoms>
  151.4789  135.1051  159.9771 H   0  0  0  0  0  0  0  0  0  0  0  0  # atno 6907 bound_to 6896
  152.4787  133.8197  159.7057 H   0  0  0  0  0  0  0  0  0  0  0  0  # atno 6908 bound_to 6896
  150.8843  133.7268  159.2949 H   0  0  0  0  0  0  0  0  0  0  0  0  # atno 6909 bound_to 6896
  145.4460  139.2297  143.3066 H   0  0  0  0  0  0  0  0  0  0  0  0  # atno 7974 bound_to 7965
  155.2169  140.3328  155.4321 H   0  0  0  0  0  0  0  0  0  0  0  0  # atno 8008 bound_to 7997
  156.2348  140.1867  156.7195 H   0  0  0  0  0  0  0  0  0  0  0  0  # atno 8009 bound_to 7997
  154.6041  140.0619  156.9393 H   0  0  0  0  0  0  0  0  0  0  0  0  # atno 8010 bound_to 7997
  140.4654  143.2441  151.8286 H   0  0  0  0  0  0  0  0  0  0  0  0  # atno 10167 bound_to 10162
  156.0747  130.5956  150.8600 H   0  0  0  0  0  0  0  0  0  0  0  0  # atno 10718 bound_to 10713
  154.8731  135.4043  154.3204 H   0  0  0  0  0  0  0  0  0  0  0  0  # atno 10763 bound_to 10752
  153.4033  135.7018  153.6416 H   0  0  0  0  0  0  0  0  0  0  0  0  # atno 10764 bound_to 10752
  153.5149  135.3699  155.2575 H   0  0  0  0  0  0  0  0  0  0  0  0  # atno 10765 bound_to 10752
  139.9875  134.9527  156.9777 H   0  0  0  0  0  0  0  0  0  0  0  0  # atno 11005 bound_to 11000
  146.2531  140.5213  142.8885 LP  0  0  0  0  0  0  0  0  0  0  0  0  # atno 17320 bound_to 7965
  144.8092  140.6354  143.6427 LP  0  0  0  0  0  0  0  0  0  0  0  0  # atno 17321 bound_to 7965
  139.4811  144.4957  151.9126 LP  0  0  0  0  0  0  0  0  0  0  0  0  # atno 17342 bound_to 10162
  140.4043  144.2453  150.5891 LP  0  0  0  0  0  0  0  0  0  0  0  0  # atno 17343 bound_to 10162
  157.5836  131.0946  150.9231 LP  0  0  0  0  0  0  0  0  0  0  0  0  # atno 17370 bound_to 10713
  156.9422  130.5388  149.5280 LP  0  0  0  0  0  0  0  0  0  0  0  0  # atno 17371 bound_to 10713
  140.4974  134.1132  155.7244 LP  0  0  0  0  0  0  0  0  0  0  0  0  # atno 17394 bound_to 11000
  141.1537  133.8922  157.2032 LP  0  0  0  0  0  0  0  0  0  0  0  0  # atno 17395 bound_to 11000

$$$$
