AV-unprocessed.smi:1591|AV-procd|sdf|6399|dock10
  -GOLD-   22720 7 33D 1   1.00000     0.00000
 Structure written by MMmdl.
 51 54  0  0  0  0  0  0  0  0  2 V2000
  146.5544  138.2470  155.1843 C   0  0  0  0  0  0  0  0  0  0  0  0
  146.6568  138.0144  156.6996 C   0  0  0  0  0  0  0  0  0  0  0  0
  148.1023  137.7674  157.1991 C   0  0  2  0  0  0  0  0  0  0  0  0
  148.0719  137.5442  158.6465 N   0  0  0  0  0  0  0  0  0  0  0  0
  148.4310  136.4205  159.2867 C   0  0  0  0  0  0  0  0  0  0  0  0
  148.7602  135.3826  158.7132 O   0  0  0  0  0  0  0  0  0  0  0  0
  148.4300  136.4936  160.8159 C   0  0  0  0  0  0  0  0  0  0  0  0
  147.1480  136.0194  161.3586 N   0  0  0  0  0  0  0  0  0  0  0  0
  147.1571  134.7906  162.0428 C   0  0  0  0  0  0  0  0  0  0  0  0
  146.0330  134.2488  162.5480 C   0  0  0  0  0  0  0  0  0  0  0  0
  144.7798  134.9712  162.3705 C   0  0  0  0  0  0  0  0  0  0  0  0
  143.7428  134.4911  162.8242 O   0  0  0  0  0  0  0  0  0  0  0  0
  144.8219  136.1598  161.7002 N   0  5  0  0  0  0  0  0  0  0  0  0
  145.9730  136.6977  161.1892 C   0  0  0  0  0  0  0  0  0  0  0  0
  145.9853  137.7693  160.5834 O   0  0  0  0  0  0  0  0  0  0  0  0
  149.1400  138.8859  156.8391 C   0  0  0  0  0  0  0  0  0  0  0  0
  149.4795  138.9057  155.3198 C   0  0  0  0  0  0  0  0  0  0  0  0
  150.4865  140.0325  155.0000 C   0  0  1  0  0  0  0  0  0  0  0  0
  149.8778  141.3975  155.3808 C   0  0  0  0  0  0  0  0  0  0  0  0
  149.5701  141.4095  156.8917 C   0  0  2  0  0  0  0  0  0  0  0  0
  150.8675  141.1899  157.6931 C   0  0  0  0  0  0  0  0  0  0  0  0
  151.4705  139.8262  157.3052 C   0  0  2  0  0  0  0  0  0  0  0  0
  151.7889  139.8079  155.7958 C   0  0  0  0  0  0  0  0  0  0  0  0
  150.4667  138.6998  157.6321 C   0  0  0  0  0  0  0  0  0  0  0  0
  148.5654  140.2862  157.2172 C   0  0  0  0  0  0  0  0  0  0  0  0
  145.5297  138.4873  154.9000 H   0  0  0  0  0  0  0  0  0  0  0  0
  146.8514  137.3637  154.6185 H   0  0  0  0  0  0  0  0  0  0  0  0
  147.1887  139.0766  154.8707 H   0  0  0  0  0  0  0  0  0  0  0  0
  146.2362  138.8929  157.1856 H   0  0  0  0  0  0  0  0  0  0  0  0
  146.0127  137.1772  156.9684 H   0  0  0  0  0  0  0  0  0  0  0  0
  148.4390  136.8539  156.7056 H   0  0  0  0  0  0  0  0  0  0  0  0
  147.8119  138.3369  159.2150 H   0  0  0  0  0  0  0  0  0  0  0  0
  149.2519  135.8998  161.2198 H   0  0  0  0  0  0  0  0  0  0  0  0
  148.6411  137.5183  161.1249 H   0  0  0  0  0  0  0  0  0  0  0  0
  148.1248  134.3172  162.1227 H   0  0  0  0  0  0  0  0  0  0  0  0
  146.0577  133.3025  163.0677 H   0  0  0  0  0  0  0  0  0  0  0  0
  149.9021  137.9506  155.0077 H   0  0  0  0  0  0  0  0  0  0  0  0
  148.5779  139.0500  154.7234 H   0  0  0  0  0  0  0  0  0  0  0  0
  150.7098  140.0229  153.9327 H   0  0  0  0  0  0  0  0  0  0  0  0
  150.5678  142.2037  155.1287 H   0  0  0  0  0  0  0  0  0  0  0  0
  148.9673  141.5794  154.8081 H   0  0  0  0  0  0  0  0  0  0  0  0
  149.1361  142.3723  157.1639 H   0  0  0  0  0  0  0  0  0  0  0  0
  151.5789  141.9915  157.4901 H   0  0  0  0  0  0  0  0  0  0  0  0
  150.6618  141.2224  158.7636 H   0  0  0  0  0  0  0  0  0  0  0  0
  152.3895  139.6654  157.8696 H   0  0  0  0  0  0  0  0  0  0  0  0
  152.2449  138.8575  155.5161 H   0  0  0  0  0  0  0  0  0  0  0  0
  152.5178  140.5826  155.5541 H   0  0  0  0  0  0  0  0  0  0  0  0
  150.2666  138.6789  158.7044 H   0  0  0  0  0  0  0  0  0  0  0  0
  150.9384  137.7487  157.3884 H   0  0  0  0  0  0  0  0  0  0  0  0
  147.6405  140.4908  156.6777 H   0  0  0  0  0  0  0  0  0  0  0  0
  148.3084  140.3150  158.2770 H   0  0  0  0  0  0  0  0  0  0  0  0
  1  2  1  0  0  0  0
  1 26  1  0  0  0  0
  1 27  1  0  0  0  0
  1 28  1  0  0  0  0
  2  3  1  0  0  0  0
  2 29  1  0  0  0  0
  2 30  1  0  0  0  0
  3  4  1  0  0  0  0
  3 16  1  0  0  0  0
  3 31  1  0  0  0  0
  4  5  1  0  0  0  0
  4 32  1  0  0  0  0
  5  6  2  0  0  0  0
  5  7  1  0  0  0  0
  7  8  1  0  0  0  0
  7 33  1  0  0  0  0
  7 34  1  0  0  0  0
  8 14  1  0  0  0  0
  8  9  1  0  0  0  0
  9 10  2  0  0  0  0
  9 35  1  0  0  0  0
 10 11  1  0  0  0  0
 10 36  1  0  0  0  0
 11 12  2  0  0  0  0
 11 13  1  0  0  0  0
 13 14  1  0  0  0  0
 14 15  2  0  0  0  0
 16 24  1  0  0  0  0
 16 25  1  0  0  0  0
 16 17  1  0  0  0  0
 17 18  1  0  0  0  0
 17 37  1  0  0  0  0
 17 38  1  0  0  0  0
 18 23  1  0  0  0  0
 18 19  1  0  0  0  0
 18 39  1  0  0  0  0
 19 20  1  0  0  0  0
 19 40  1  0  0  0  0
 19 41  1  0  0  0  0
 20 21  1  0  0  0  0
 20 25  1  0  0  0  0
 20 42  1  0  0  0  0
 21 22  1  0  0  0  0
 21 43  1  0  0  0  0
 21 44  1  0  0  0  0
 22 23  1  0  0  0  0
 22 24  1  0  0  0  0
 22 45  1  0  0  0  0
 23 46  1  0  0  0  0
 23 47  1  0  0  0  0
 24 48  1  0  0  0  0
 24 49  1  0  0  0  0
 25 50  1  0  0  0  0
 25 51  1  0  0  0  0
M  CHG  1  13  -1
M  END
> <s_m_source_file>
AV-unprocessed.smi

> <i_m_source_file_index>
1591

> <i_lp_mmshare_version>
43012

> <i_f3d_flags>
0

> <s_epik_input>
W0NIMl0xW0NASF0oW0NIMl0yKVtDSDJdW0NASF0oW0NIMl0zKVtDSDJdW0NAQEhdMVtDSDJdQzIzW0NASF0oW0NIMl1bQ0gzXSlbTkhdQyg9TylbQ0gyXW40W2NIXVtjSF1jKD1PKVtuSF1jND1P

> <s_epik_cmdline>
J2VwaWtfcHl0aG9uJywgJy1waCcsICc3LjAnLCAnLXRuJywgJzgnLCAnLW1hJywgJzIwMCcsICctbWV0YWxfYmluZGluZycsICctaW1hZScsICc8aW5maWxlLm1hZT4nLCAnLW9tYWUnLCAnPG91dGZpbGUubWFlPic=

> <r_lp_tautomer_probability>
0.999537

> <r_epik_Ionization_Penalty>
3.13902

> <r_epik_Ionization_Penalty_Charging>
2.97334e-08

> <r_epik_Ionization_Penalty_Neutral>
3.13902

> <r_epik_State_Penalty>
3.13814

> <r_epik_Charging_Adjusted_Penalty>
3.13814

> <i_epik_Tot_Q>
-1

> <i_epik_Tot_abs_Q>
1

> <r_epik_Metal_State_Penalty>
0.465244

> <b_epik_Metal_Only>
1

> <s_lp_Force_Field>
OPLS_2005

> <r_lp_Energy>
48.864

> <b_lp_Chiralities_Consistent>
1

> <s_lp_Variant>
AV-unprocessed.smi:1591-3

> <Gold.Version>
5.8.1

> <Gold.Id.Protein>
6NUR|6NUR_protein|mol2

> <Gold.PLP.Fitness>
39.3674

> <Gold.PLP.PLP>
-34.7427

> <Gold.PLP.part.hbond>
-2.0000

> <Gold.PLP.part.metal>
0.0000

> <Gold.PLP.part.buried>
-4.0093

> <Gold.PLP.part.nonpolar>
-29.1812

> <Gold.PLP.part.repulsive>
0.2282

> <Gold.PLP.ligand.clash>
0.0000

> <Gold.PLP.ligand.torsion>
0.7319

> <Gold.PLP.Chemscore.Hbond>
2.0000

> <Gold.PLP.Chemscore.CHOScore>
0.0000

> <Gold.PLP.Chemscore.Metal>
0.0000

> <Gold.Chemscore.Hbonds>
donor molecule, donor type, donor heavy atom, donor atom, acceptor molecule, acceptor atom, score
      P1  H  6896  6907       L1     6  0.47
      P1  H  6934  6947       L1    15  1.00

> <Gold.PLP.Chemscore.Internal.Correction>
0.0884

> <Gold.Rescore>
     Score         DG    S(hbond)    S(metal)    S(lipo)     H(rot)  DE(clash)    DE(int)     intcor
     13.91     -15.05       2.00        0.00      68.29       1.99       0.05       1.09       ----

> <Gold.Chemscore.Fitness>
13.9105

> <Gold.Chemscore.DG>
-15.0509

> <Gold.Chemscore.ZeroCoef>
-5.4800

> <Gold.Chemscore.Hbond>
1.9953

> <Gold.Chemscore.Metal>
0.0000

> <Gold.Chemscore.Lipo>
68.2917

> <Gold.Chemscore.Internal_Hbond>
0.0000

> <Gold.Chemscore.DEClash>
0.0491

> <Gold.Chemscore.DEInternal>
1.0913

> <Gold.Chemscore.Rot>
1.9858

> <Gold.Chemscore.Internal.Correction>
   9.000000E+99

> <Gold.Chemscore.Hbonds>
donor molecule, donor type, donor heavy atom, donor atom, acceptor molecule, acceptor atom, score
      P1  H  6896  6907       L1     6  0.43
      P1  H  6934  6947       L1    15  0.98

> <Gold.Chemscore.Hbond.Weighted>
-6.6644

> <Gold.Chemscore.Metal.Weighted>
-0.0000

> <Gold.Chemscore.Lipo.Weighted>
-7.9901

> <Gold.Chemscore.Internal_Hbond.Weighted>
0.0000

> <Gold.Chemscore.DEClash.Weighted>
0.0491

> <Gold.Chemscore.DEInternal.Weighted>
1.0913

> <Gold.Chemscore.Rot.Weighted>
5.0836

> <Gold.Chemscore.Internal.Correction.Weighted>
   9.000000E+99

> <Gold.Protein.RotatedTorsions>
[ 6907 6896 6895 6894 ] final  -79.43 input  -60.11 | X-H torsion
[ 7974 7965 7964 7962 ] final  -15.14 input  175.53 | X-H torsion
[ 8008 7997 7996 7995 ] final -124.58 input   59.86 | X-H torsion
[ 10167 10162 10161 10158 ] final -133.36 input  -65.29 | X-H torsion
[ 10718 10713 10712 10709 ] final -179.25 input   66.30 | X-H torsion
[ 10763 10752 10751 10750 ] final  166.14 input  -60.55 | X-H torsion
[ 11005 11000 10999 10996 ] final -125.78 input  -57.11 | X-H torsion

> <Gold.Protein.ActiveResidues>
 VAL166  LYS551  ARG553  GLY616  TRP617  ASP618  TYR619  PRO620  LYS621  CYS622 
 ASP623  PHE694  ASN695  SER759  ASP760  ASP761  ALA762  ILE779  LEU786  VAL792 
 PHE793  MET794  SER795  GLU796  ALA797  LYS798  CYS799  TRP800  GLU811  SER814 

> <Gold.Protein.RotatedAtoms>
  150.6950  134.4123  159.5166 H   0  0  0  0  0  0  0  0  0  0  0  0  # atno 6907 bound_to 6896
  152.1879  134.8695  160.0529 H   0  0  0  0  0  0  0  0  0  0  0  0  # atno 6908 bound_to 6896
  151.9661  133.3676  159.4090 H   0  0  0  0  0  0  0  0  0  0  0  0  # atno 6909 bound_to 6896
  146.2045  140.3450  142.8412 H   0  0  0  0  0  0  0  0  0  0  0  0  # atno 7974 bound_to 7965
  155.1992  140.0415  157.2914 H   0  0  0  0  0  0  0  0  0  0  0  0  # atno 8008 bound_to 7997
  154.6086  140.2471  155.7669 H   0  0  0  0  0  0  0  0  0  0  0  0  # atno 8009 bound_to 7997
  156.2365  140.2919  156.0337 H   0  0  0  0  0  0  0  0  0  0  0  0  # atno 8010 bound_to 7997
  139.8991  143.6629  152.2598 H   0  0  0  0  0  0  0  0  0  0  0  0  # atno 10167 bound_to 10162
  156.8564  130.9736  151.3087 H   0  0  0  0  0  0  0  0  0  0  0  0  # atno 10718 bound_to 10713
  154.3345  135.2754  155.2454 H   0  0  0  0  0  0  0  0  0  0  0  0  # atno 10763 bound_to 10752
  154.4751  135.5873  153.6353 H   0  0  0  0  0  0  0  0  0  0  0  0  # atno 10764 bound_to 10752
  152.9863  135.6098  154.3541 H   0  0  0  0  0  0  0  0  0  0  0  0  # atno 10765 bound_to 10752
  140.9735  134.0773  157.3844 H   0  0  0  0  0  0  0  0  0  0  0  0  # atno 11005 bound_to 11000
  144.8759  140.7335  143.6017 LP  0  0  0  0  0  0  0  0  0  0  0  0  # atno 17320 bound_to 7965
  145.3370  139.1743  143.4506 LP  0  0  0  0  0  0  0  0  0  0  0  0  # atno 17321 bound_to 7965
  139.7041  144.7630  151.1222 LP  0  0  0  0  0  0  0  0  0  0  0  0  # atno 17342 bound_to 10162
  140.7710  143.5418  150.9304 LP  0  0  0  0  0  0  0  0  0  0  0  0  # atno 17343 bound_to 10162
  157.6275  130.8703  149.9215 LP  0  0  0  0  0  0  0  0  0  0  0  0  # atno 17370 bound_to 10713
  156.0800  130.3674  150.0599 LP  0  0  0  0  0  0  0  0  0  0  0  0  # atno 17371 bound_to 10713
  139.8921  135.0123  156.6828 LP  0  0  0  0  0  0  0  0  0  0  0  0  # atno 17394 bound_to 11000
  140.7294  133.9072  155.8201 LP  0  0  0  0  0  0  0  0  0  0  0  0  # atno 17395 bound_to 11000

$$$$
