AV-unprocessed.smi:1830|AV-procd|sdf|7447|dock1
  -GOLD-   22720 9133D 1   1.00000     0.00000
 Structure written by MMmdl.
 54 57  0  0  0  0  0  0  0  0  3 V2000
  146.7321  140.9426  154.4554 O   0  0  0  0  0  0  0  0  0  0  0  0
  147.1498  142.0214  154.8748 C   0  0  0  0  0  0  0  0  0  0  0  0
  146.3911  143.1218  154.9712 N   0  0  0  0  0  0  0  0  0  0  0  0
  144.9906  143.2108  154.5677 C   0  0  0  0  0  0  0  0  0  0  0  0
  144.3538  144.5746  154.9011 C   0  0  1  0  0  0  0  0  0  0  0  0
  142.8952  144.6972  154.4231 C   0  0  0  0  0  0  0  0  0  0  0  0
  142.2998  145.9990  154.8191 N   0  3  1  0  0  0  0  0  0  0  0  0
  140.8308  146.0207  154.6404 C   0  0  0  0  0  0  0  0  0  0  0  0
  140.2125  145.7334  156.0210 C   0  0  0  0  0  0  0  0  0  0  0  0
  141.3937  145.6398  156.9931 C   0  0  0  0  0  0  0  0  0  0  0  0
  142.5288  146.3348  156.2416 C   0  0  1  0  0  0  0  0  0  0  0  0
  143.9575  146.0125  156.7239 C   0  0  0  0  0  0  0  0  0  0  0  0
  144.3575  144.7123  156.3153 O   0  0  0  0  0  0  0  0  0  0  0  0
  148.3992  142.2484  155.3128 N   0  0  0  0  0  0  0  0  0  0  0  0
  149.4715  141.3169  155.4124 C   0  0  0  0  0  0  0  0  0  0  0  0
  149.5453  140.1703  154.5803 C   0  0  0  0  0  0  0  0  0  0  0  0
  150.6458  139.2984  154.6861 C   0  0  0  0  0  0  0  0  0  0  0  0
  151.6614  139.5911  155.6134 C   0  0  0  0  0  0  0  0  0  0  0  0
  151.5693  140.6984  156.3789 N   0  3  0  0  0  0  0  0  0  0  0  0
  150.5353  141.5738  156.3208 C   0  0  0  0  0  0  0  0  0  0  0  0
  150.5347  142.6874  157.1880 N   0  0  0  0  0  0  0  0  0  0  0  0
  150.4295  142.3493  158.6049 C   0  0  0  0  0  0  0  0  0  0  0  0
  151.2536  143.3933  159.3602 C   0  0  0  0  0  0  0  0  0  0  0  0
  152.3042  143.8070  158.3374 C   0  0  0  0  0  0  0  0  0  0  0  0
  151.5301  143.7461  157.0216 C   0  0  0  0  0  0  0  0  0  0  0  0
  146.8154  143.9661  155.3274 H   0  0  0  0  0  0  0  0  0  0  0  0
  144.9377  143.0302  153.4937 H   0  0  0  0  0  0  0  0  0  0  0  0
  144.4247  142.4070  155.0415 H   0  0  0  0  0  0  0  0  0  0  0  0
  144.9581  145.3688  154.4592 H   0  0  0  0  0  0  0  0  0  0  0  0
  142.8364  144.6040  153.3381 H   0  0  0  0  0  0  0  0  0  0  0  0
  142.3084  143.8784  154.8431 H   0  0  0  0  0  0  0  0  0  0  0  0
  140.5405  147.0190  154.3106 H   0  0  0  0  0  0  0  0  0  0  0  0
  140.4919  145.3183  153.8773 H   0  0  0  0  0  0  0  0  0  0  0  0
  139.5407  146.5435  156.3067 H   0  0  0  0  0  0  0  0  0  0  0  0
  139.6320  144.8104  156.0209 H   0  0  0  0  0  0  0  0  0  0  0  0
  141.1831  146.1024  157.9579 H   0  0  0  0  0  0  0  0  0  0  0  0
  141.6446  144.5935  157.1731 H   0  0  0  0  0  0  0  0  0  0  0  0
  142.3739  147.4103  156.3447 H   0  0  0  0  0  0  0  0  0  0  0  0
  144.6631  146.7459  156.3307 H   0  0  0  0  0  0  0  0  0  0  0  0
  144.0140  146.0807  157.8104 H   0  0  0  0  0  0  0  0  0  0  0  0
  148.5745  143.1591  155.7120 H   0  0  0  0  0  0  0  0  0  0  0  0
  148.7816  139.9539  153.8486 H   0  0  0  0  0  0  0  0  0  0  0  0
  150.7124  138.4213  154.0588 H   0  0  0  0  0  0  0  0  0  0  0  0
  152.5404  138.9809  155.7625 H   0  0  0  0  0  0  0  0  0  0  0  0
  149.3917  142.3515  158.9380 H   0  0  0  0  0  0  0  0  0  0  0  0
  150.8367  141.3525  158.7821 H   0  0  0  0  0  0  0  0  0  0  0  0
  150.6270  144.2504  159.6113 H   0  0  0  0  0  0  0  0  0  0  0  0
  151.6842  143.0072  160.2844 H   0  0  0  0  0  0  0  0  0  0  0  0
  152.7301  144.7910  158.5345 H   0  0  0  0  0  0  0  0  0  0  0  0
  153.1175  143.0802  158.3253 H   0  0  0  0  0  0  0  0  0  0  0  0
  152.1969  143.6193  156.1690 H   0  0  0  0  0  0  0  0  0  0  0  0
  150.9931  144.6821  156.8646 H   0  0  0  0  0  0  0  0  0  0  0  0
  142.7223  146.7135  154.2435 H   0  0  0  0  0  0  0  0  0  0  0  0
  152.3213  140.8848  157.0427 H   0  0  0  0  0  0  0  0  0  0  0  0
  1  2  2  0  0  0  0
  2  3  1  0  0  0  0
  2 14  1  0  0  0  0
  3  4  1  0  0  0  0
  3 26  1  0  0  0  0
  4  5  1  0  0  0  0
  4 27  1  0  0  0  0
  4 28  1  0  0  0  0
  5 13  1  0  0  0  0
  5  6  1  0  0  0  0
  5 29  1  0  0  0  0
  6  7  1  0  0  0  0
  6 30  1  0  0  0  0
  6 31  1  0  0  0  0
  7 11  1  0  0  0  0
  7  8  1  0  0  0  0
  7 53  1  0  0  0  0
  8  9  1  0  0  0  0
  8 32  1  0  0  0  0
  8 33  1  0  0  0  0
  9 10  1  0  0  0  0
  9 34  1  0  0  0  0
  9 35  1  0  0  0  0
 10 11  1  0  0  0  0
 10 36  1  0  0  0  0
 10 37  1  0  0  0  0
 11 12  1  0  0  0  0
 11 38  1  0  0  0  0
 12 13  1  0  0  0  0
 12 39  1  0  0  0  0
 12 40  1  0  0  0  0
 14 15  1  0  0  0  0
 14 41  1  0  0  0  0
 15 20  1  0  0  0  0
 15 16  2  0  0  0  0
 16 17  1  0  0  0  0
 16 42  1  0  0  0  0
 17 18  2  0  0  0  0
 17 43  1  0  0  0  0
 18 19  1  0  0  0  0
 18 44  1  0  0  0  0
 19 20  2  0  0  0  0
 19 54  1  0  0  0  0
 20 21  1  0  0  0  0
 21 25  1  0  0  0  0
 21 22  1  0  0  0  0
 22 23  1  0  0  0  0
 22 45  1  0  0  0  0
 22 46  1  0  0  0  0
 23 24  1  0  0  0  0
 23 47  1  0  0  0  0
 23 48  1  0  0  0  0
 24 25  1  0  0  0  0
 24 49  1  0  0  0  0
 24 50  1  0  0  0  0
 25 51  1  0  0  0  0
 25 52  1  0  0  0  0
M  CHG  1   7   1
M  CHG  1  19   1
M  END
> <s_m_source_file>
AV-unprocessed.smi

> <i_m_source_file_index>
1830

> <i_lp_mmshare_version>
43012

> <i_f3d_flags>
0

> <s_epik_input>
W0NIMl0xW0NIMl1bQ0gyXVtDQEhdKE4xMilbQ0gyXU9bQ0BASF0oW0NIMl0yKVtDSDJdW05IXUMoPU8pW05IXWMzW2NIXVtjSF1bY0hdbmMzTjRbQ0gyXVtDSDJdW0NIMl1bQ0gyXTQ=

> <s_epik_cmdline>
J2VwaWtfcHl0aG9uJywgJy1waCcsICc3LjAnLCAnLXRuJywgJzgnLCAnLW1hJywgJzIwMCcsICctbWV0YWxfYmluZGluZycsICctaW1hZScsICc8aW5maWxlLm1hZT4nLCAnLW9tYWUnLCAnPG91dGZpbGUubWFlPic=

> <r_lp_tautomer_probability>
0.999994

> <r_epik_Ionization_Penalty>
1.29113

> <r_epik_Ionization_Penalty_Charging>
1.29111

> <r_epik_Ionization_Penalty_Neutral>
1.88144e-05

> <r_epik_State_Penalty>
1.32676

> <r_epik_Charging_Adjusted_Penalty>
2.61787

> <i_epik_Tot_Q>
2

> <i_epik_Tot_abs_Q>
2

> <r_epik_Metal_State_Penalty>
1.40425

> <b_epik_Metal_Only>
0

> <s_lp_Force_Field>
OPLS_2005

> <r_lp_Energy>
75.2676

> <b_lp_Chiralities_Consistent>
1

> <s_lp_Variant>
AV-unprocessed.smi:1830-16

> <Gold.Version>
5.8.1

> <Gold.Id.Protein>
6NUR|6NUR_protein|mol2

> <Gold.PLP.Fitness>
43.4792

> <Gold.PLP.PLP>
-40.7428

> <Gold.PLP.part.hbond>
-1.9009

> <Gold.PLP.part.metal>
0.0000

> <Gold.PLP.part.buried>
-2.9958

> <Gold.PLP.part.nonpolar>
-36.7164

> <Gold.PLP.part.repulsive>
1.6639

> <Gold.PLP.ligand.clash>
0.0000

> <Gold.PLP.ligand.torsion>
0.2269

> <Gold.PLP.Chemscore.Hbond>
1.0000

> <Gold.PLP.Chemscore.CHOScore>
0.0000

> <Gold.PLP.Chemscore.Metal>
0.0000

> <Gold.Chemscore.Hbonds>
donor molecule, donor type, donor heavy atom, donor atom, acceptor molecule, acceptor atom, score
      L1  H    14    41       P1  8028  1.00

> <Gold.PLP.Chemscore.Internal.Correction>
0.1903

> <Gold.Rescore>
     Score         DG    S(hbond)    S(metal)    S(lipo)     H(rot)  DE(clash)    DE(int)     intcor
     16.81     -18.59       0.99        0.00     115.02       1.43       0.32       1.45       ----

> <Gold.Chemscore.Fitness>
16.8144

> <Gold.Chemscore.DG>
-18.5858

> <Gold.Chemscore.ZeroCoef>
-5.4800

> <Gold.Chemscore.Hbond>
0.9890

> <Gold.Chemscore.Metal>
0.0000

> <Gold.Chemscore.Lipo>
115.0222

> <Gold.Chemscore.Internal_Hbond>
0.0000

> <Gold.Chemscore.DEClash>
0.3190

> <Gold.Chemscore.DEInternal>
1.4524

> <Gold.Chemscore.Rot>
1.4278

> <Gold.Chemscore.Internal.Correction>
   9.000000E+99

> <Gold.Chemscore.Hbonds>
donor molecule, donor type, donor heavy atom, donor atom, acceptor molecule, acceptor atom, score
      L1  H    14    41       P1  8028  0.95

> <Gold.Chemscore.Hbond.Weighted>
-3.3032

> <Gold.Chemscore.Metal.Weighted>
-0.0000

> <Gold.Chemscore.Lipo.Weighted>
-13.4576

> <Gold.Chemscore.Internal_Hbond.Weighted>
0.0000

> <Gold.Chemscore.DEClash.Weighted>
0.3190

> <Gold.Chemscore.DEInternal.Weighted>
1.4524

> <Gold.Chemscore.Rot.Weighted>
3.6551

> <Gold.Chemscore.Internal.Correction.Weighted>
   9.000000E+99

> <Gold.Protein.RotatedTorsions>
[ 6907 6896 6895 6894 ] final   72.38 input  -60.11 | X-H torsion
[ 7974 7965 7964 7962 ] final  128.94 input  175.53 | X-H torsion
[ 8008 7997 7996 7995 ] final   51.96 input   59.86 | X-H torsion
[ 10167 10162 10161 10158 ] final -139.03 input  -65.29 | X-H torsion
[ 10718 10713 10712 10709 ] final  -41.53 input   66.30 | X-H torsion
[ 10763 10752 10751 10750 ] final -121.15 input  -60.55 | X-H torsion
[ 11005 11000 10999 10996 ] final   68.92 input  -57.11 | X-H torsion

> <Gold.Protein.ActiveResidues>
 VAL166  LYS551  ARG553  GLY616  TRP617  ASP618  TYR619  PRO620  LYS621  CYS622 
 ASP623  PHE694  ASN695  SER759  ASP760  ASP761  ALA762  ILE779  LEU786  VAL792 
 PHE793  MET794  SER795  GLU796  ALA797  LYS798  CYS799  TRP800  GLU811  SER814 

> <Gold.Protein.RotatedAtoms>
  152.4864  134.4580  159.9595 H   0  0  0  0  0  0  0  0  0  0  0  0  # atno 6907 bound_to 6896
  151.4575  133.3595  159.2812 H   0  0  0  0  0  0  0  0  0  0  0  0  # atno 6908 bound_to 6896
  150.8979  134.8414  159.7400 H   0  0  0  0  0  0  0  0  0  0  0  0  # atno 6909 bound_to 6896
  145.0340  139.4021  143.5135 H   0  0  0  0  0  0  0  0  0  0  0  0  # atno 7974 bound_to 7965
  155.4439  140.3455  155.4293 H   0  0  0  0  0  0  0  0  0  0  0  0  # atno 8008 bound_to 7997
  156.1262  140.1501  156.9163 H   0  0  0  0  0  0  0  0  0  0  0  0  # atno 8009 bound_to 7997
  154.4860  140.0855  156.7467 H   0  0  0  0  0  0  0  0  0  0  0  0  # atno 8010 bound_to 7997
  139.8420  143.7310  152.2662 H   0  0  0  0  0  0  0  0  0  0  0  0  # atno 10167 bound_to 10162
  156.2693  130.4205  149.8455 H   0  0  0  0  0  0  0  0  0  0  0  0  # atno 10718 bound_to 10713
  154.8661  135.4178  154.2574 H   0  0  0  0  0  0  0  0  0  0  0  0  # atno 10763 bound_to 10752
  153.3509  135.6998  153.6795 H   0  0  0  0  0  0  0  0  0  0  0  0  # atno 10764 bound_to 10752
  153.5736  135.3586  155.2820 H   0  0  0  0  0  0  0  0  0  0  0  0  # atno 10765 bound_to 10752
  139.9683  134.6943  156.0499 H   0  0  0  0  0  0  0  0  0  0  0  0  # atno 11005 bound_to 11000
  146.3502  139.9906  142.8686 LP  0  0  0  0  0  0  0  0  0  0  0  0  # atno 17320 bound_to 7965
  145.1733  140.9731  143.4309 LP  0  0  0  0  0  0  0  0  0  0  0  0  # atno 17321 bound_to 7965
  139.7550  144.7523  151.0450 LP  0  0  0  0  0  0  0  0  0  0  0  0  # atno 17342 bound_to 10162
  140.7797  143.4816  151.0010 LP  0  0  0  0  0  0  0  0  0  0  0  0  # atno 17343 bound_to 10162
  156.5942  130.8519  151.3416 LP  0  0  0  0  0  0  0  0  0  0  0  0  # atno 17370 bound_to 10713
  157.7278  130.9648  150.1716 LP  0  0  0  0  0  0  0  0  0  0  0  0  # atno 17371 bound_to 10713
  141.1363  133.6574  156.3603 LP  0  0  0  0  0  0  0  0  0  0  0  0  # atno 17394 bound_to 11000
  140.5348  134.6178  157.5361 LP  0  0  0  0  0  0  0  0  0  0  0  0  # atno 17395 bound_to 11000

$$$$
