AV-unprocessed.smi:1854|AV-procd|sdf|7530|dock2
  -GOLD-   22720 9243D 1   1.00000     0.00000
 Structure written by MMmdl.
 40 42  0  0  0  0  0  0  0  0  2 V2000
  149.3243  132.6820  154.9626 O   0  0  0  0  0  0  0  0  0  0  0  0
  149.1093  133.3950  153.9839 C   0  0  0  0  0  0  0  0  0  0  0  0
  148.4855  134.5807  154.0360 N   0  0  0  0  0  0  0  0  0  0  0  0
  148.0188  135.2258  155.2598 C   0  0  0  0  0  0  0  0  0  0  0  0
  148.5808  136.5972  155.4912 C   0  0  0  0  0  0  0  0  0  0  0  0
  149.2710  137.3659  154.5987 N   0  3  0  0  0  0  0  0  0  0  0  0
  149.6307  138.5766  155.1915 C   0  0  0  0  0  0  0  0  0  0  0  0
  150.3345  139.6663  154.6877 C   0  0  0  0  0  0  0  0  0  0  0  0
  150.5352  140.7510  155.5667 C   0  0  0  0  0  0  0  0  0  0  0  0
  150.0444  140.7255  156.8886 C   0  0  0  0  0  0  0  0  0  0  0  0
  149.3302  139.6160  157.3871 C   0  0  0  0  0  0  0  0  0  0  0  0
  149.1356  138.5490  156.5105 C   0  0  0  0  0  0  0  0  0  0  0  0
  148.4911  137.3150  156.6475 N   0  0  0  0  0  0  0  0  0  0  0  0
  147.8524  136.9784  157.9259 C   0  0  0  0  0  0  0  0  0  0  0  0
  148.7870  137.2244  159.1162 C   0  0  0  0  0  0  0  0  0  0  0  0
  147.9964  137.3115  160.2921 O   0  0  0  0  0  0  0  0  0  0  0  0
  147.5627  136.1417  160.8804 C   0  0  0  0  0  0  0  0  0  0  0  0
  147.7689  134.8533  160.3238 C   0  0  0  0  0  0  0  0  0  0  0  0
  147.2953  133.7042  160.9862 C   0  0  0  0  0  0  0  0  0  0  0  0
  146.6110  133.8253  162.2090 C   0  0  0  0  0  0  0  0  0  0  0  0
  146.4009  135.0981  162.7699 C   0  0  0  0  0  0  0  0  0  0  0  0
  146.8742  136.2491  162.1098 C   0  0  0  0  0  0  0  0  0  0  0  0
  146.6035  137.7996  162.8213 Cl  0  0  0  0  0  0  0  0  0  0  0  0
  149.3979  133.1464  152.9509 H   0  0  0  0  0  0  0  0  0  0  0  0
  148.3544  135.0877  153.1725 H   0  0  0  0  0  0  0  0  0  0  0  0
  146.9289  135.2822  155.2649 H   0  0  0  0  0  0  0  0  0  0  0  0
  148.2987  134.5896  156.0998 H   0  0  0  0  0  0  0  0  0  0  0  0
  150.7118  139.6873  153.6758 H   0  0  0  0  0  0  0  0  0  0  0  0
  151.0771  141.6193  155.2207 H   0  0  0  0  0  0  0  0  0  0  0  0
  150.2190  141.5742  157.5341 H   0  0  0  0  0  0  0  0  0  0  0  0
  148.9590  139.6051  158.4012 H   0  0  0  0  0  0  0  0  0  0  0  0
  146.9307  137.5532  158.0228 H   0  0  0  0  0  0  0  0  0  0  0  0
  147.5599  135.9287  157.8882 H   0  0  0  0  0  0  0  0  0  0  0  0
  149.5007  136.4033  159.2002 H   0  0  0  0  0  0  0  0  0  0  0  0
  149.3449  138.1502  158.9669 H   0  0  0  0  0  0  0  0  0  0  0  0
  148.2885  134.7178  159.3877 H   0  0  0  0  0  0  0  0  0  0  0  0
  147.4575  132.7277  160.5541 H   0  0  0  0  0  0  0  0  0  0  0  0
  146.2474  132.9435  162.7158 H   0  0  0  0  0  0  0  0  0  0  0  0
  145.8753  135.1915  163.7088 H   0  0  0  0  0  0  0  0  0  0  0  0
  149.4746  137.0790  153.6499 H   0  0  0  0  0  0  0  0  0  0  0  0
  1  2  2  0  0  0  0
  2  3  1  0  0  0  0
  2 24  1  0  0  0  0
  3  4  1  0  0  0  0
  3 25  1  0  0  0  0
  4  5  1  0  0  0  0
  4 26  1  0  0  0  0
  4 27  1  0  0  0  0
  5 13  1  0  0  0  0
  5  6  2  0  0  0  0
  6  7  1  0  0  0  0
  6 40  1  0  0  0  0
  7 12  2  0  0  0  0
  7  8  1  0  0  0  0
  8  9  2  0  0  0  0
  8 28  1  0  0  0  0
  9 10  1  0  0  0  0
  9 29  1  0  0  0  0
 10 11  2  0  0  0  0
 10 30  1  0  0  0  0
 11 12  1  0  0  0  0
 11 31  1  0  0  0  0
 12 13  1  0  0  0  0
 13 14  1  0  0  0  0
 14 15  1  0  0  0  0
 14 32  1  0  0  0  0
 14 33  1  0  0  0  0
 15 16  1  0  0  0  0
 15 34  1  0  0  0  0
 15 35  1  0  0  0  0
 16 17  1  0  0  0  0
 17 22  1  0  0  0  0
 17 18  2  0  0  0  0
 18 19  1  0  0  0  0
 18 36  1  0  0  0  0
 19 20  2  0  0  0  0
 19 37  1  0  0  0  0
 20 21  1  0  0  0  0
 20 38  1  0  0  0  0
 21 22  2  0  0  0  0
 21 39  1  0  0  0  0
 22 23  1  0  0  0  0
M  CHG  1   6   1
M  END
> <s_m_source_file>
AV-unprocessed.smi

> <i_m_source_file_index>
1854

> <i_lp_mmshare_version>
43012

> <i_f3d_flags>
0

> <s_epik_input>
Tz1bQ0hdW05IXVtDSDJdYyhuMSluKGMoYzEyKVtjSF1bY0hdW2NIXVtjSF0yKVtDSDJdW0NIMl1PYzNbY0hdW2NIXVtjSF1bY0hdYzNDbA==

> <s_epik_cmdline>
J2VwaWtfcHl0aG9uJywgJy1waCcsICc3LjAnLCAnLXRuJywgJzgnLCAnLW1hJywgJzIwMCcsICctbWV0YWxfYmluZGluZycsICctaW1hZScsICc8aW5maWxlLm1hZT4nLCAnLW9tYWUnLCAnPG91dGZpbGUubWFlPic=

> <r_lp_tautomer_probability>
1

> <r_epik_Ionization_Penalty>
1.43948

> <r_epik_Ionization_Penalty_Charging>
1.43948

> <r_epik_Ionization_Penalty_Neutral>
7.38905e-08

> <r_epik_State_Penalty>
1.52475

> <r_epik_Charging_Adjusted_Penalty>
2.96423

> <i_epik_Tot_Q>
1

> <i_epik_Tot_abs_Q>
1

> <r_epik_Metal_State_Penalty>
1.5754

> <b_epik_Metal_Only>
0

> <s_lp_Force_Field>
OPLS_2005

> <r_lp_Energy>
16.1695

> <b_lp_Chiralities_Consistent>
1

> <s_lp_Variant>
AV-unprocessed.smi:1854-2

> <Gold.Version>
5.8.1

> <Gold.Id.Protein>
6NUR|6NUR_protein|mol2

> <Gold.PLP.Fitness>
50.1625

> <Gold.PLP.PLP>
-38.7509

> <Gold.PLP.part.hbond>
-4.0000

> <Gold.PLP.part.metal>
0.0000

> <Gold.PLP.part.buried>
-2.5104

> <Gold.PLP.part.nonpolar>
-31.9144

> <Gold.PLP.part.repulsive>
0.0160

> <Gold.PLP.ligand.clash>
0.0000

> <Gold.PLP.ligand.torsion>
0.4463

> <Gold.PLP.Chemscore.Hbond>
4.0644

> <Gold.PLP.Chemscore.CHOScore>
0.0000

> <Gold.PLP.Chemscore.Metal>
0.0000

> <Gold.Chemscore.Hbonds>
donor molecule, donor type, donor heavy atom, donor atom, acceptor molecule, acceptor atom, score
      L1  H     3    25       P1  7948  1.00
      L1  H     6    40       P1  7948  2.00
      P1  H  6931  6943       L1    16  0.49
      P1  H  6934  6947       L1    16  0.72

> <Gold.PLP.Chemscore.Internal.Correction>
0.1109

> <Gold.Rescore>
     Score         DG    S(hbond)    S(metal)    S(lipo)     H(rot)  DE(clash)    DE(int)     intcor
     16.49     -17.95       2.59        0.00      87.13       2.49       0.02       1.43       ----

> <Gold.Chemscore.Fitness>
16.4934

> <Gold.Chemscore.DG>
-17.9472

> <Gold.Chemscore.ZeroCoef>
-5.4800

> <Gold.Chemscore.Hbond>
2.5856

> <Gold.Chemscore.Metal>
0.0000

> <Gold.Chemscore.Lipo>
87.1286

> <Gold.Chemscore.Internal_Hbond>
0.0000

> <Gold.Chemscore.DEClash>
0.0224

> <Gold.Chemscore.DEInternal>
1.4314

> <Gold.Chemscore.Rot>
2.4854

> <Gold.Chemscore.Internal.Correction>
   9.000000E+99

> <Gold.Chemscore.Hbonds>
donor molecule, donor type, donor heavy atom, donor atom, acceptor molecule, acceptor atom, score
      L1  H     3    25       P1  7948  0.86
      L1  H     6    40       P1  7948  0.83
      P1  H  6931  6943       L1    16  0.16
      P1  H  6934  6947       L1    16  0.66

> <Gold.Chemscore.Hbond.Weighted>
-8.6358

> <Gold.Chemscore.Metal.Weighted>
-0.0000

> <Gold.Chemscore.Lipo.Weighted>
-10.1940

> <Gold.Chemscore.Internal_Hbond.Weighted>
0.0000

> <Gold.Chemscore.DEClash.Weighted>
0.0224

> <Gold.Chemscore.DEInternal.Weighted>
1.4314

> <Gold.Chemscore.Rot.Weighted>
6.3627

> <Gold.Chemscore.Internal.Correction.Weighted>
   9.000000E+99

> <Gold.Protein.RotatedTorsions>
[ 6907 6896 6895 6894 ] final  118.54 input  -60.11 | X-H torsion
[ 7974 7965 7964 7962 ] final -148.67 input  175.53 | X-H torsion
[ 8008 7997 7996 7995 ] final -149.54 input   59.86 | X-H torsion
[ 10167 10162 10161 10158 ] final  135.09 input  -65.29 | X-H torsion
[ 10718 10713 10712 10709 ] final  -28.44 input   66.30 | X-H torsion
[ 10763 10752 10751 10750 ] final   64.81 input  -60.55 | X-H torsion
[ 11005 11000 10999 10996 ] final  -47.23 input  -57.11 | X-H torsion

> <Gold.Protein.ActiveResidues>
 VAL166  LYS551  ARG553  GLY616  TRP617  ASP618  TYR619  PRO620  LYS621  CYS622 
 ASP623  PHE694  ASN695  SER759  ASP760  ASP761  ALA762  ILE779  LEU786  VAL792 
 PHE793  MET794  SER795  GLU796  ALA797  LYS798  CYS799  TRP800  GLU811  SER814 

> <Gold.Protein.RotatedAtoms>
  152.4535  133.7677  159.6781 H   0  0  0  0  0  0  0  0  0  0  0  0  # atno 6907 bound_to 6896
  150.8454  133.7859  159.3051 H   0  0  0  0  0  0  0  0  0  0  0  0  # atno 6908 bound_to 6896
  151.5471  135.1070  159.9992 H   0  0  0  0  0  0  0  0  0  0  0  0  # atno 6909 bound_to 6896
  144.8015  140.5165  143.5704 H   0  0  0  0  0  0  0  0  0  0  0  0  # atno 7974 bound_to 7965
  155.6092  140.0670  157.2711 H   0  0  0  0  0  0  0  0  0  0  0  0  # atno 8008 bound_to 7997
  154.4258  140.1804  156.1302 H   0  0  0  0  0  0  0  0  0  0  0  0  # atno 8009 bound_to 7997
  156.0098  140.3328  155.6932 H   0  0  0  0  0  0  0  0  0  0  0  0  # atno 8010 bound_to 7997
  139.5230  144.6534  151.5233 H   0  0  0  0  0  0  0  0  0  0  0  0  # atno 10167 bound_to 10162
  156.4253  130.4434  149.7155 H   0  0  0  0  0  0  0  0  0  0  0  0  # atno 10718 bound_to 10713
  153.0071  135.5379  154.6569 H   0  0  0  0  0  0  0  0  0  0  0  0  # atno 10763 bound_to 10752
  154.5787  135.2848  155.0757 H   0  0  0  0  0  0  0  0  0  0  0  0  # atno 10764 bound_to 10752
  154.1894  135.6503  153.5108 H   0  0  0  0  0  0  0  0  0  0  0  0  # atno 10765 bound_to 10752
  141.0628  133.6703  156.3268 H   0  0  0  0  0  0  0  0  0  0  0  0  # atno 11005 bound_to 11000
  145.5543  139.1477  143.3377 LP  0  0  0  0  0  0  0  0  0  0  0  0  # atno 17320 bound_to 7965
  146.2297  140.5680  142.8981 LP  0  0  0  0  0  0  0  0  0  0  0  0  # atno 17321 bound_to 7965
  140.6349  143.9003  150.6638 LP  0  0  0  0  0  0  0  0  0  0  0  0  # atno 17342 bound_to 10162
  140.2319  143.3729  152.1558 LP  0  0  0  0  0  0  0  0  0  0  0  0  # atno 17343 bound_to 10162
  156.4080  130.7708  151.2719 LP  0  0  0  0  0  0  0  0  0  0  0  0  # atno 17370 bound_to 10713
  157.7508  131.0220  150.3773 LP  0  0  0  0  0  0  0  0  0  0  0  0  # atno 17371 bound_to 10713
  140.5834  134.5723  157.5484 LP  0  0  0  0  0  0  0  0  0  0  0  0  # atno 17394 bound_to 11000
  139.9448  134.7721  156.0589 LP  0  0  0  0  0  0  0  0  0  0  0  0  # atno 17395 bound_to 11000

$$$$
