AV-unprocessed.smi:2973|AV-procd|sdf|11343|dock8
  -GOLD-   2272016253D 1   1.00000     0.00000
 Structure written by MMmdl.
 50 52  0  0  0  0  0  0  0  0  2 V2000
  149.5491  138.7762  157.3178 C   0  0  0  0  0  0  0  0  0  0  0  0
  150.5259  139.9713  157.3110 C   0  0  2  0  0  0  0  0  0  0  0  0
  150.9479  140.3211  158.7547 C   0  0  0  0  0  0  0  0  0  0  0  0
  151.9721  141.4665  158.7952 C   0  0  0  0  0  0  0  0  0  0  0  0
  151.4398  142.7158  158.0802 C   0  0  0  0  0  0  0  0  0  0  0  0
  151.0338  142.3875  156.6354 C   0  0  0  0  0  0  0  0  0  0  0  0
  149.9986  141.2386  156.5698 C   0  0  2  0  0  0  0  0  0  0  0  0
  148.7066  141.6774  157.0711 N   0  0  0  0  0  0  0  0  0  0  0  0
  147.7602  141.7030  156.1239 C   0  0  0  0  0  0  0  0  0  0  0  0
  146.5972  142.0643  156.2945 O   0  0  0  0  0  0  0  0  0  0  0  0
  148.3049  141.2748  154.9705 N   0  0  0  0  0  0  0  0  0  0  0  0
  147.5966  141.2138  153.6858 C   0  0  0  0  0  0  0  0  0  0  0  0
  147.3156  139.7697  153.2496 C   0  0  0  0  0  0  0  0  0  0  0  0
  147.3263  138.8545  154.0741 O   0  0  0  0  0  0  0  0  0  0  0  0
  147.0601  139.5793  151.9457 N   0  0  0  0  0  0  0  0  0  0  0  0
  146.7246  138.2977  151.3284 C   0  0  0  0  0  0  0  0  0  0  0  0
  145.7592  137.4588  152.1907 C   0  0  0  0  0  0  0  0  0  0  0  0
  145.5845  136.0281  151.7093 C   0  0  0  0  0  0  0  0  0  0  0  0
  144.3345  135.5242  151.2880 C   0  0  0  0  0  0  0  0  0  0  0  0
  144.2361  134.1779  150.8801 C   0  0  0  0  0  0  0  0  0  0  0  0
  145.3873  133.3640  150.9014 C   0  0  0  0  0  0  0  0  0  0  0  0
  146.6110  133.9197  151.3263 C   0  0  0  0  0  0  0  0  0  0  0  0
  146.6657  135.2151  151.7069 N   0  3  0  0  0  0  0  0  0  0  0  0
  149.6009  140.9708  155.1243 C   0  0  0  0  0  0  0  0  0  0  0  0
  150.3739  140.5551  154.2606 O   0  0  0  0  0  0  0  0  0  0  0  0
  148.6168  139.0205  157.8272 H   0  0  0  0  0  0  0  0  0  0  0  0
  149.9871  137.9210  157.8330 H   0  0  0  0  0  0  0  0  0  0  0  0
  149.3025  138.4471  156.3085 H   0  0  0  0  0  0  0  0  0  0  0  0
  151.4248  139.6384  156.7891 H   0  0  0  0  0  0  0  0  0  0  0  0
  150.0708  140.5971  159.3416 H   0  0  0  0  0  0  0  0  0  0  0  0
  151.3745  139.4424  159.2401 H   0  0  0  0  0  0  0  0  0  0  0  0
  152.2186  141.7082  159.8295 H   0  0  0  0  0  0  0  0  0  0  0  0
  152.9009  141.1434  158.3236 H   0  0  0  0  0  0  0  0  0  0  0  0
  150.5846  143.1166  158.6256 H   0  0  0  0  0  0  0  0  0  0  0  0
  152.2005  143.4969  158.0829 H   0  0  0  0  0  0  0  0  0  0  0  0
  150.6421  143.2854  156.1540 H   0  0  0  0  0  0  0  0  0  0  0  0
  151.9280  142.1094  156.0755 H   0  0  0  0  0  0  0  0  0  0  0  0
  148.5577  141.9512  158.0314 H   0  0  0  0  0  0  0  0  0  0  0  0
  146.6600  141.7703  153.7568 H   0  0  0  0  0  0  0  0  0  0  0  0
  148.1771  141.7054  152.9037 H   0  0  0  0  0  0  0  0  0  0  0  0
  147.0832  140.3856  151.3376 H   0  0  0  0  0  0  0  0  0  0  0  0
  146.2636  138.4993  150.3614 H   0  0  0  0  0  0  0  0  0  0  0  0
  147.6308  137.7280  151.1159 H   0  0  0  0  0  0  0  0  0  0  0  0
  146.1152  137.4422  153.2217 H   0  0  0  0  0  0  0  0  0  0  0  0
  144.7812  137.9406  152.2187 H   0  0  0  0  0  0  0  0  0  0  0  0
  143.4572  136.1545  151.2905 H   0  0  0  0  0  0  0  0  0  0  0  0
  143.2861  133.7724  150.5643 H   0  0  0  0  0  0  0  0  0  0  0  0
  145.3309  132.3281  150.6005 H   0  0  0  0  0  0  0  0  0  0  0  0
  147.5399  133.3705  151.3765 H   0  0  0  0  0  0  0  0  0  0  0  0
  147.5607  135.5932  152.0186 H   0  0  0  0  0  0  0  0  0  0  0  0
  1  2  1  0  0  0  0
  1 26  1  0  0  0  0
  1 27  1  0  0  0  0
  1 28  1  0  0  0  0
  2  7  1  0  0  0  0
  2  3  1  0  0  0  0
  2 29  1  0  0  0  0
  3  4  1  0  0  0  0
  3 30  1  0  0  0  0
  3 31  1  0  0  0  0
  4  5  1  0  0  0  0
  4 32  1  0  0  0  0
  4 33  1  0  0  0  0
  5  6  1  0  0  0  0
  5 34  1  0  0  0  0
  5 35  1  0  0  0  0
  6  7  1  0  0  0  0
  6 36  1  0  0  0  0
  6 37  1  0  0  0  0
  7 24  1  0  0  0  0
  7  8  1  0  0  0  0
  8  9  1  0  0  0  0
  8 38  1  0  0  0  0
  9 10  2  0  0  0  0
  9 11  1  0  0  0  0
 11 12  1  0  0  0  0
 11 24  1  0  0  0  0
 12 13  1  0  0  0  0
 12 39  1  0  0  0  0
 12 40  1  0  0  0  0
 13 14  2  0  0  0  0
 13 15  1  0  0  0  0
 15 16  1  0  0  0  0
 15 41  1  0  0  0  0
 16 17  1  0  0  0  0
 16 42  1  0  0  0  0
 16 43  1  0  0  0  0
 17 18  1  0  0  0  0
 17 44  1  0  0  0  0
 17 45  1  0  0  0  0
 18 23  1  0  0  0  0
 18 19  2  0  0  0  0
 19 20  1  0  0  0  0
 19 46  1  0  0  0  0
 20 21  2  0  0  0  0
 20 47  1  0  0  0  0
 21 22  1  0  0  0  0
 21 48  1  0  0  0  0
 22 23  2  0  0  0  0
 22 49  1  0  0  0  0
 23 50  1  0  0  0  0
 24 25  2  0  0  0  0
M  CHG  1  23   1
M  END
> <s_m_source_file>
AV-unprocessed.smi

> <i_m_source_file_index>
2973

> <i_lp_mmshare_version>
43012

> <i_f3d_flags>
0

> <s_epik_input>
W0NIMl0xW0NIMl1bQ0gyXVtDSDJdW0NAQEhdKFtDSDNdKVtDQF0xMltOSF1DKD1PKU4oQzI9TylbQ0gyXUMoPU8pW05IXVtDSDJdW0NIMl1jM1tjSF1bY0hdW2NIXVtjSF1uMw==

> <s_epik_cmdline>
J2VwaWtfcHl0aG9uJywgJy1waCcsICc3LjAnLCAnLXRuJywgJzgnLCAnLW1hJywgJzIwMCcsICctbWV0YWxfYmluZGluZycsICctaW1hZScsICc8aW5maWxlLm1hZT4nLCAnLW9tYWUnLCAnPG91dGZpbGUubWFlPic=

> <r_lp_tautomer_probability>
1

> <r_epik_Ionization_Penalty>
1.90043

> <r_epik_Ionization_Penalty_Charging>
1.90039

> <r_epik_Ionization_Penalty_Neutral>
4.65525e-05

> <r_epik_State_Penalty>
2.02162

> <r_epik_Charging_Adjusted_Penalty>
3.922

> <i_epik_Tot_Q>
1

> <i_epik_Tot_abs_Q>
1

> <r_epik_Metal_State_Penalty>
2.06631

> <b_epik_Metal_Only>
0

> <s_lp_Force_Field>
OPLS_2005

> <r_lp_Energy>
26.4657

> <b_lp_Chiralities_Consistent>
1

> <s_lp_Variant>
AV-unprocessed.smi:2973-7

> <Gold.Version>
5.8.1

> <Gold.Id.Protein>
6NUR|6NUR_protein|mol2

> <Gold.PLP.Fitness>
49.2038

> <Gold.PLP.PLP>
-41.9365

> <Gold.PLP.part.hbond>
-2.7917

> <Gold.PLP.part.metal>
0.0000

> <Gold.PLP.part.buried>
-4.8333

> <Gold.PLP.part.nonpolar>
-34.9961

> <Gold.PLP.part.repulsive>
0.5889

> <Gold.PLP.ligand.clash>
0.0000

> <Gold.PLP.ligand.torsion>
0.5774

> <Gold.PLP.Chemscore.Hbond>
2.8000

> <Gold.PLP.Chemscore.CHOScore>
0.0000

> <Gold.PLP.Chemscore.Metal>
0.0000

> <Gold.Chemscore.Hbonds>
donor molecule, donor type, donor heavy atom, donor atom, acceptor molecule, acceptor atom, score
      L1  H    23    50       P1  7948  1.89
      P1  H  7989  7998       L1    25  0.80

> <Gold.PLP.Chemscore.Internal.Correction>
0.0220

> <Gold.Rescore>
     Score         DG    S(hbond)    S(metal)    S(lipo)     H(rot)  DE(clash)    DE(int)     intcor
     15.38     -17.59       1.70        0.00      97.84       1.96       0.23       1.98       ----

> <Gold.Chemscore.Fitness>
15.3798

> <Gold.Chemscore.DG>
-17.5903

> <Gold.Chemscore.ZeroCoef>
-5.4800

> <Gold.Chemscore.Hbond>
1.7038

> <Gold.Chemscore.Metal>
0.0000

> <Gold.Chemscore.Lipo>
97.8390

> <Gold.Chemscore.Internal_Hbond>
0.0000

> <Gold.Chemscore.DEClash>
0.2336

> <Gold.Chemscore.DEInternal>
1.9769

> <Gold.Chemscore.Rot>
1.9638

> <Gold.Chemscore.Internal.Correction>
   9.000000E+99

> <Gold.Chemscore.Hbonds>
donor molecule, donor type, donor heavy atom, donor atom, acceptor molecule, acceptor atom, score
      L1  H    23    50       P1  7948  0.88
      P1  H  7989  7998       L1    25  0.75

> <Gold.Chemscore.Hbond.Weighted>
-5.6905

> <Gold.Chemscore.Metal.Weighted>
-0.0000

> <Gold.Chemscore.Lipo.Weighted>
-11.4472

> <Gold.Chemscore.Internal_Hbond.Weighted>
0.0000

> <Gold.Chemscore.DEClash.Weighted>
0.2336

> <Gold.Chemscore.DEInternal.Weighted>
1.9769

> <Gold.Chemscore.Rot.Weighted>
5.0274

> <Gold.Chemscore.Internal.Correction.Weighted>
   9.000000E+99

> <Gold.Protein.RotatedTorsions>
[ 6907 6896 6895 6894 ] final -118.39 input  -60.11 | X-H torsion
[ 7974 7965 7964 7962 ] final -100.54 input  175.53 | X-H torsion
[ 8008 7997 7996 7995 ] final -144.59 input   59.86 | X-H torsion
[ 10167 10162 10161 10158 ] final -127.20 input  -65.29 | X-H torsion
[ 10718 10713 10712 10709 ] final  -13.97 input   66.30 | X-H torsion
[ 10763 10752 10751 10750 ] final -102.56 input  -60.55 | X-H torsion
[ 11005 11000 10999 10996 ] final -110.40 input  -57.11 | X-H torsion

> <Gold.Protein.ActiveResidues>
 VAL166  LYS551  ARG553  GLY616  TRP617  ASP618  TYR619  PRO620  LYS621  CYS622 
 ASP623  PHE694  ASN695  SER759  ASP760  ASP761  ALA762  ILE779  LEU786  VAL792 
 PHE793  MET794  SER795  GLU796  ALA797  LYS798  CYS799  TRP800  GLU811  SER814 

> <Gold.Protein.RotatedAtoms>
  150.8216  133.8243  159.3136 H   0  0  0  0  0  0  0  0  0  0  0  0  # atno 6907 bound_to 6896
  151.5999  135.1046  160.0067 H   0  0  0  0  0  0  0  0  0  0  0  0  # atno 6908 bound_to 6896
  152.4304  133.7228  159.6599 H   0  0  0  0  0  0  0  0  0  0  0  0  # atno 6909 bound_to 6896
  145.2933  140.9358  143.2865 H   0  0  0  0  0  0  0  0  0  0  0  0  # atno 7974 bound_to 7965
  155.5294  140.0598  157.2892 H   0  0  0  0  0  0  0  0  0  0  0  0  # atno 8008 bound_to 7997
  154.4490  140.1938  156.0524 H   0  0  0  0  0  0  0  0  0  0  0  0  # atno 8009 bound_to 7997
  156.0663  140.3266  155.7525 H   0  0  0  0  0  0  0  0  0  0  0  0  # atno 8010 bound_to 7997
  139.9633  143.5925  152.2437 H   0  0  0  0  0  0  0  0  0  0  0  0  # atno 10167 bound_to 10162
  156.6227  130.4880  149.6158 H   0  0  0  0  0  0  0  0  0  0  0  0  # atno 10718 bound_to 10713
  154.7743  135.4856  153.9712 H   0  0  0  0  0  0  0  0  0  0  0  0  # atno 10763 bound_to 10752
  153.1408  135.6772  153.9038 H   0  0  0  0  0  0  0  0  0  0  0  0  # atno 10764 bound_to 10752
  153.8713  135.3143  155.3420 H   0  0  0  0  0  0  0  0  0  0  0  0  # atno 10765 bound_to 10752
  141.0794  133.9246  157.2321 H   0  0  0  0  0  0  0  0  0  0  0  0  # atno 11005 bound_to 11000
  144.9155  139.4476  143.6566 LP  0  0  0  0  0  0  0  0  0  0  0  0  # atno 17320 bound_to 7965
  146.3177  139.7986  142.8970 LP  0  0  0  0  0  0  0  0  0  0  0  0  # atno 17321 bound_to 7965
  139.6537  144.7661  151.2098 LP  0  0  0  0  0  0  0  0  0  0  0  0  # atno 17342 bound_to 10162
  140.7546  143.6120  150.8596 LP  0  0  0  0  0  0  0  0  0  0  0  0  # atno 17343 bound_to 10162
  156.2298  130.6788  151.1453 LP  0  0  0  0  0  0  0  0  0  0  0  0  # atno 17370 bound_to 10713
  157.7223  131.0673  150.6083 LP  0  0  0  0  0  0  0  0  0  0  0  0  # atno 17371 bound_to 10713
  139.9607  135.0155  156.9253 LP  0  0  0  0  0  0  0  0  0  0  0  0  # atno 17394 bound_to 11000
  140.5502  134.0635  155.7367 LP  0  0  0  0  0  0  0  0  0  0  0  0  # atno 17395 bound_to 11000

$$$$
