AV-unprocessed.smi:2822|AV-procd|sdf|10871|dock8
  -GOLD-   2272015313D 1   1.00000     0.00000
 Structure written by MMmdl.
 40 42  0  0  0  0  0  0  0  0  2 V2000
  146.5648  142.0969  154.9964 Cl  0  0  0  0  0  0  0  0  0  0  0  0
  147.7688  140.8597  154.8933 C   0  0  0  0  0  0  0  0  0  0  0  0
  149.1349  141.2085  154.9088 C   0  0  0  0  0  0  0  0  0  0  0  0
  150.1340  140.3043  154.8337 N   0  0  0  0  0  0  0  0  0  0  0  0
  149.7968  139.0012  154.7393 C   0  0  0  0  0  0  0  0  0  0  0  0
  148.4638  138.5443  154.7164 C   0  0  0  0  0  0  0  0  0  0  0  0
  147.4181  139.4936  154.7947 C   0  0  0  0  0  0  0  0  0  0  0  0
  146.0636  139.1297  154.7784 N   0  0  0  0  0  0  0  0  0  0  0  0
  145.6473  137.7407  154.6467 C   0  0  0  0  0  0  0  0  0  0  0  0
  146.1994  137.0880  153.3682 C   0  0  1  0  0  0  0  0  0  0  0  0
  146.0293  135.5552  153.3379 C   0  0  0  0  0  0  0  0  0  0  0  0
  146.5265  135.0006  152.0545 N   0  3  1  0  0  0  0  0  0  0  0  0
  146.4282  133.5204  151.9622 C   0  0  0  0  0  0  0  0  0  0  0  0
  144.9817  133.0454  151.7225 C   0  0  0  0  0  0  0  0  0  0  0  0
  144.3687  133.7348  150.4956 C   0  0  0  0  0  0  0  0  0  0  0  0
  144.4792  135.2607  150.6256 C   0  0  0  0  0  0  0  0  0  0  0  0
  145.9423  135.6902  150.8709 C   0  0  1  0  0  0  0  0  0  0  0  0
  146.1005  137.2170  151.0095 C   0  0  0  0  0  0  0  0  0  0  0  0
  145.5495  137.6663  152.2412 O   0  0  0  0  0  0  0  0  0  0  0  0
  149.4345  142.2434  154.9844 H   0  0  0  0  0  0  0  0  0  0  0  0
  150.6150  138.2990  154.6796 H   0  0  0  0  0  0  0  0  0  0  0  0
  148.2702  137.4852  154.6372 H   0  0  0  0  0  0  0  0  0  0  0  0
  145.3560  139.8471  154.8521 H   0  0  0  0  0  0  0  0  0  0  0  0
  145.9867  137.1821  155.5197 H   0  0  0  0  0  0  0  0  0  0  0  0
  144.5578  137.6928  154.6374 H   0  0  0  0  0  0  0  0  0  0  0  0
  147.2632  137.3258  153.3124 H   0  0  0  0  0  0  0  0  0  0  0  0
  146.5801  135.1057  154.1650 H   0  0  0  0  0  0  0  0  0  0  0  0
  144.9819  135.2882  153.4762 H   0  0  0  0  0  0  0  0  0  0  0  0
  147.0588  133.1876  151.1367 H   0  0  0  0  0  0  0  0  0  0  0  0
  146.8368  133.0628  152.8640 H   0  0  0  0  0  0  0  0  0  0  0  0
  144.9668  131.9639  151.5842 H   0  0  0  0  0  0  0  0  0  0  0  0
  144.3684  133.2451  152.6014 H   0  0  0  0  0  0  0  0  0  0  0  0
  144.8860  133.4049  149.5937 H   0  0  0  0  0  0  0  0  0  0  0  0
  143.3247  133.4416  150.3813 H   0  0  0  0  0  0  0  0  0  0  0  0
  144.1013  135.7315  149.7174 H   0  0  0  0  0  0  0  0  0  0  0  0
  143.8381  135.6087  151.4364 H   0  0  0  0  0  0  0  0  0  0  0  0
  146.5235  135.3804  150.0009 H   0  0  0  0  0  0  0  0  0  0  0  0
  147.1528  137.4998  150.9535 H   0  0  0  0  0  0  0  0  0  0  0  0
  145.5978  137.7278  150.1878 H   0  0  0  0  0  0  0  0  0  0  0  0
  147.5137  135.2139  152.0394 H   0  0  0  0  0  0  0  0  0  0  0  0
  1  2  1  0  0  0  0
  2  7  1  0  0  0  0
  2  3  2  0  0  0  0
  3  4  1  0  0  0  0
  3 20  1  0  0  0  0
  4  5  2  0  0  0  0
  5  6  1  0  0  0  0
  5 21  1  0  0  0  0
  6  7  2  0  0  0  0
  6 22  1  0  0  0  0
  7  8  1  0  0  0  0
  8  9  1  0  0  0  0
  8 23  1  0  0  0  0
  9 10  1  0  0  0  0
  9 24  1  0  0  0  0
  9 25  1  0  0  0  0
 10 19  1  0  0  0  0
 10 11  1  0  0  0  0
 10 26  1  0  0  0  0
 11 12  1  0  0  0  0
 11 27  1  0  0  0  0
 11 28  1  0  0  0  0
 12 17  1  0  0  0  0
 12 13  1  0  0  0  0
 12 40  1  0  0  0  0
 13 14  1  0  0  0  0
 13 29  1  0  0  0  0
 13 30  1  0  0  0  0
 14 15  1  0  0  0  0
 14 31  1  0  0  0  0
 14 32  1  0  0  0  0
 15 16  1  0  0  0  0
 15 33  1  0  0  0  0
 15 34  1  0  0  0  0
 16 17  1  0  0  0  0
 16 35  1  0  0  0  0
 16 36  1  0  0  0  0
 17 18  1  0  0  0  0
 17 37  1  0  0  0  0
 18 19  1  0  0  0  0
 18 38  1  0  0  0  0
 18 39  1  0  0  0  0
M  CHG  1  12   1
M  END
> <s_m_source_file>
AV-unprocessed.smi

> <i_m_source_file_index>
2822

> <i_lp_mmshare_version>
43012

> <i_f3d_flags>
0

> <s_epik_input>
Q2xjMVtjSF1uW2NIXVtjSF1jMVtOSF1bQ0gyXVtDQEhdKFtDSDJdMilPW0NIMl1bQ0BASF0oTjIzKVtDSDJdW0NIMl1bQ0gyXVtDSDJdMw==

> <s_epik_cmdline>
J2VwaWtfcHl0aG9uJywgJy1waCcsICc3LjAnLCAnLXRuJywgJzgnLCAnLW1hJywgJzIwMCcsICctbWV0YWxfYmluZGluZycsICctaW1hZScsICc8aW5maWxlLm1hZT4nLCAnLW9tYWUnLCAnPG91dGZpbGUubWFlPic=

> <r_lp_tautomer_probability>
0.999999

> <r_epik_Ionization_Penalty>
0.88937

> <r_epik_Ionization_Penalty_Charging>
0.0803403

> <r_epik_Ionization_Penalty_Neutral>
0.80903

> <r_epik_State_Penalty>
0.931884

> <r_epik_Charging_Adjusted_Penalty>
1.01222

> <i_epik_Tot_Q>
1

> <i_epik_Tot_abs_Q>
1

> <r_epik_Metal_State_Penalty>
0.0782275

> <b_epik_Metal_Only>
0

> <s_lp_Force_Field>
OPLS_2005

> <r_lp_Energy>
33.0779

> <b_lp_Chiralities_Consistent>
1

> <s_lp_Variant>
AV-unprocessed.smi:2822-12

> <Gold.Version>
5.8.1

> <Gold.Id.Protein>
6NUR|6NUR_protein|mol2

> <Gold.PLP.Fitness>
40.7457

> <Gold.PLP.PLP>
-29.4697

> <Gold.PLP.part.hbond>
-2.6605

> <Gold.PLP.part.metal>
0.0000

> <Gold.PLP.part.buried>
-1.2725

> <Gold.PLP.part.nonpolar>
-27.8274

> <Gold.PLP.part.repulsive>
2.3952

> <Gold.PLP.ligand.clash>
0.0000

> <Gold.PLP.ligand.torsion>
0.0616

> <Gold.PLP.Chemscore.Hbond>
2.8000

> <Gold.PLP.Chemscore.CHOScore>
0.9991

> <Gold.PLP.Chemscore.Metal>
0.0000

> <Gold.Chemscore.Hbonds>
donor molecule, donor type, donor heavy atom, donor atom, acceptor molecule, acceptor atom, score
      L1  H    12    40       P1  7948  2.00
      P1  H  7989  7998       L1     4  0.88
      L1  C     3    20       P1  8028  0.78

> <Gold.PLP.Chemscore.Internal.Correction>
0.0018

> <Gold.Rescore>
     Score         DG    S(hbond)    S(metal)    S(lipo)     H(rot)  DE(clash)    DE(int)     intcor
     15.83     -17.41       1.84        0.00      75.17       1.17       1.37       0.22       ----

> <Gold.Chemscore.Fitness>
15.8251

> <Gold.Chemscore.DG>
-17.4121

> <Gold.Chemscore.ZeroCoef>
-5.4800

> <Gold.Chemscore.Hbond>
1.8353

> <Gold.Chemscore.Metal>
0.0000

> <Gold.Chemscore.Lipo>
75.1745

> <Gold.Chemscore.Internal_Hbond>
0.0000

> <Gold.Chemscore.DEClash>
1.3667

> <Gold.Chemscore.DEInternal>
0.2202

> <Gold.Chemscore.Rot>
1.1693

> <Gold.Chemscore.Internal.Correction>
   9.000000E+99

> <Gold.Chemscore.Hbonds>
donor molecule, donor type, donor heavy atom, donor atom, acceptor molecule, acceptor atom, score
      L1  H    12    40       P1  7948  0.97
      P1  H  7989  7998       L1     4  0.60

> <Gold.Chemscore.Hbond.Weighted>
-6.1300

> <Gold.Chemscore.Metal.Weighted>
-0.0000

> <Gold.Chemscore.Lipo.Weighted>
-8.7954

> <Gold.Chemscore.Internal_Hbond.Weighted>
0.0000

> <Gold.Chemscore.DEClash.Weighted>
1.3667

> <Gold.Chemscore.DEInternal.Weighted>
0.2202

> <Gold.Chemscore.Rot.Weighted>
2.9934

> <Gold.Chemscore.Internal.Correction.Weighted>
   9.000000E+99

> <Gold.Protein.RotatedTorsions>
[ 6907 6896 6895 6894 ] final   86.55 input  -60.11 | X-H torsion
[ 7974 7965 7964 7962 ] final  -19.47 input  175.53 | X-H torsion
[ 8008 7997 7996 7995 ] final   45.96 input   59.86 | X-H torsion
[ 10167 10162 10161 10158 ] final  121.46 input  -65.29 | X-H torsion
[ 10718 10713 10712 10709 ] final  148.87 input   66.30 | X-H torsion
[ 10763 10752 10751 10750 ] final  155.90 input  -60.55 | X-H torsion
[ 11005 11000 10999 10996 ] final   67.85 input  -57.11 | X-H torsion

> <Gold.Protein.ActiveResidues>
 VAL166  LYS551  ARG553  GLY616  TRP617  ASP618  TYR619  PRO620  LYS621  CYS622 
 ASP623  PHE694  ASN695  SER759  ASP760  ASP761  ALA762  ILE779  LEU786  VAL792 
 PHE793  MET794  SER795  GLU796  ALA797  LYS798  CYS799  TRP800  GLU811  SER814 

> <Gold.Protein.RotatedAtoms>
  152.5396  134.2413  159.8862 H   0  0  0  0  0  0  0  0  0  0  0  0  # atno 6907 bound_to 6896
  151.2380  133.4408  159.2614 H   0  0  0  0  0  0  0  0  0  0  0  0  # atno 6908 bound_to 6896
  151.0653  134.9777  159.8337 H   0  0  0  0  0  0  0  0  0  0  0  0  # atno 6909 bound_to 6896
  146.1839  140.4066  142.8483 H   0  0  0  0  0  0  0  0  0  0  0  0  # atno 7974 bound_to 7965
  155.3446  140.3410  155.4239 H   0  0  0  0  0  0  0  0  0  0  0  0  # atno 8008 bound_to 7997
  156.1796  140.1659  156.8335 H   0  0  0  0  0  0  0  0  0  0  0  0  # atno 8009 bound_to 7997
  154.5319  140.0743  156.8342 H   0  0  0  0  0  0  0  0  0  0  0  0  # atno 8010 bound_to 7997
  139.5918  144.7028  151.3271 H   0  0  0  0  0  0  0  0  0  0  0  0  # atno 10167 bound_to 10162
  157.3032  131.0874  151.1374 H   0  0  0  0  0  0  0  0  0  0  0  0  # atno 10718 bound_to 10713
  154.1758  135.2802  155.3067 H   0  0  0  0  0  0  0  0  0  0  0  0  # atno 10763 bound_to 10752
  154.6040  135.5520  153.7407 H   0  0  0  0  0  0  0  0  0  0  0  0  # atno 10764 bound_to 10752
  153.0152  135.6399  154.1897 H   0  0  0  0  0  0  0  0  0  0  0  0  # atno 10765 bound_to 10752
  139.9746  134.6843  156.0379 H   0  0  0  0  0  0  0  0  0  0  0  0  # atno 11005 bound_to 11000
  144.8363  140.6788  143.6258 LP  0  0  0  0  0  0  0  0  0  0  0  0  # atno 17320 bound_to 7965
  145.3995  139.1600  143.4185 LP  0  0  0  0  0  0  0  0  0  0  0  0  # atno 17321 bound_to 7965
  140.7180  143.7215  150.7692 LP  0  0  0  0  0  0  0  0  0  0  0  0  # atno 17342 bound_to 10162
  140.0772  143.5003  152.2549 LP  0  0  0  0  0  0  0  0  0  0  0  0  # atno 17343 bound_to 10162
  157.2725  130.6711  149.6026 LP  0  0  0  0  0  0  0  0  0  0  0  0  # atno 17370 bound_to 10713
  155.9673  130.4475  150.5581 LP  0  0  0  0  0  0  0  0  0  0  0  0  # atno 17371 bound_to 10713
  141.1424  133.6562  156.3768 LP  0  0  0  0  0  0  0  0  0  0  0  0  # atno 17394 bound_to 11000
  140.5221  134.6294  157.5322 LP  0  0  0  0  0  0  0  0  0  0  0  0  # atno 17395 bound_to 11000

$$$$
