AV-unprocessed.smi:2730|AV-procd|sdf|10528|dock4
  -GOLD-   2272014573D 1   1.00000     0.00000
 Structure written by MMmdl.
 43 44  0  0  0  0  0  0  0  0  1 V2000
  146.9765  132.8023  159.7792 C   0  0  0  0  0  0  0  0  0  0  0  0
  147.0856  134.1495  159.0499 C   0  0  0  0  0  0  0  0  0  0  0  0
  147.5828  135.3028  159.9450 C   0  0  2  0  0  0  0  0  0  0  0  0
  146.6099  135.6103  161.0982 C   0  0  0  0  0  0  0  0  0  0  0  0
  147.1515  136.5464  162.0957 C   0  0  0  0  0  0  0  0  0  0  0  0
  147.5772  137.2823  162.8805 N   0  0  0  0  0  0  0  0  0  0  0  0
  147.7955  136.5049  159.1422 N   0  0  0  0  0  0  0  0  0  0  0  0
  148.9870  137.0641  158.8866 C   0  0  0  0  0  0  0  0  0  0  0  0
  150.0511  136.6210  159.3194 O   0  0  0  0  0  0  0  0  0  0  0  0
  148.8555  138.1525  158.1086 N   0  0  0  0  0  0  0  0  0  0  0  0
  149.8745  139.0131  157.6244 C   0  0  0  0  0  0  0  0  0  0  0  0
  150.5720  138.8078  156.4653 N   0  0  0  0  0  0  0  0  0  0  0  0
  151.3620  139.8726  156.5032 C   0  0  0  0  0  0  0  0  0  0  0  0
  151.1737  140.6523  157.5719 N   0  0  0  0  0  0  0  0  0  0  0  0
  151.8368  141.8878  157.9599 C   0  0  0  0  0  0  0  0  0  0  0  0
  152.3513  141.8230  159.4131 C   0  0  0  0  0  0  0  0  0  0  0  0
  153.0599  143.1277  159.8125 C   0  0  0  0  0  0  0  0  0  0  0  0
  152.1450  144.3453  159.6040 C   0  0  0  0  0  0  0  0  0  0  0  0
  151.6303  144.4143  158.1572 C   0  0  0  0  0  0  0  0  0  0  0  0
  150.9191  143.1115  157.7561 C   0  0  0  0  0  0  0  0  0  0  0  0
  150.1917  140.0987  158.3264 N   0  0  0  0  0  0  0  0  0  0  0  0
  146.5758  132.0357  159.1156 H   0  0  0  0  0  0  0  0  0  0  0  0
  146.3121  132.8752  160.6405 H   0  0  0  0  0  0  0  0  0  0  0  0
  147.9475  132.4550  160.1325 H   0  0  0  0  0  0  0  0  0  0  0  0
  147.7465  134.0415  158.1890 H   0  0  0  0  0  0  0  0  0  0  0  0
  146.1040  134.3991  158.6469 H   0  0  0  0  0  0  0  0  0  0  0  0
  148.5385  134.9994  160.3772 H   0  0  0  0  0  0  0  0  0  0  0  0
  145.6866  136.0463  160.7155 H   0  0  0  0  0  0  0  0  0  0  0  0
  146.3374  134.6930  161.6210 H   0  0  0  0  0  0  0  0  0  0  0  0
  146.9734  136.9361  158.7455 H   0  0  0  0  0  0  0  0  0  0  0  0
  147.9168  138.3948  157.8284 H   0  0  0  0  0  0  0  0  0  0  0  0
  152.0921  140.0879  155.7370 H   0  0  0  0  0  0  0  0  0  0  0  0
  152.7007  142.0035  157.3030 H   0  0  0  0  0  0  0  0  0  0  0  0
  151.5213  141.6430  160.0977 H   0  0  0  0  0  0  0  0  0  0  0  0
  153.0363  140.9824  159.5302 H   0  0  0  0  0  0  0  0  0  0  0  0
  153.3757  143.0745  160.8547 H   0  0  0  0  0  0  0  0  0  0  0  0
  153.9677  143.2470  159.2197 H   0  0  0  0  0  0  0  0  0  0  0  0
  151.2988  144.2881  160.2899 H   0  0  0  0  0  0  0  0  0  0  0  0
  152.6824  145.2612  159.8516 H   0  0  0  0  0  0  0  0  0  0  0  0
  150.9500  145.2589  158.0449 H   0  0  0  0  0  0  0  0  0  0  0  0
  152.4657  144.5981  157.4802 H   0  0  0  0  0  0  0  0  0  0  0  0
  150.6022  143.1717  156.7142 H   0  0  0  0  0  0  0  0  0  0  0  0
  150.0101  143.0024  158.3497 H   0  0  0  0  0  0  0  0  0  0  0  0
  1  2  1  0  0  0  0
  1 22  1  0  0  0  0
  1 23  1  0  0  0  0
  1 24  1  0  0  0  0
  2  3  1  0  0  0  0
  2 25  1  0  0  0  0
  2 26  1  0  0  0  0
  3  4  1  0  0  0  0
  3  7  1  0  0  0  0
  3 27  1  0  0  0  0
  4  5  1  0  0  0  0
  4 28  1  0  0  0  0
  4 29  1  0  0  0  0
  5  6  3  0  0  0  0
  7  8  1  0  0  0  0
  7 30  1  0  0  0  0
  8  9  2  0  0  0  0
  8 10  1  0  0  0  0
 10 11  1  0  0  0  0
 10 31  1  0  0  0  0
 11 21  2  0  0  0  0
 11 12  1  0  0  0  0
 12 13  2  0  0  0  0
 13 14  1  0  0  0  0
 13 32  1  0  0  0  0
 14 15  1  0  0  0  0
 14 21  1  0  0  0  0
 15 20  1  0  0  0  0
 15 16  1  0  0  0  0
 15 33  1  0  0  0  0
 16 17  1  0  0  0  0
 16 34  1  0  0  0  0
 16 35  1  0  0  0  0
 17 18  1  0  0  0  0
 17 36  1  0  0  0  0
 17 37  1  0  0  0  0
 18 19  1  0  0  0  0
 18 38  1  0  0  0  0
 18 39  1  0  0  0  0
 19 20  1  0  0  0  0
 19 40  1  0  0  0  0
 19 41  1  0  0  0  0
 20 42  1  0  0  0  0
 20 43  1  0  0  0  0
M  END
> <s_m_source_file>
AV-unprocessed.smi

> <i_m_source_file_index>
2730

> <i_lp_mmshare_version>
43012

> <i_f3d_flags>
0

> <s_epik_input>
TiNDW0NIMl1bQ0BASF0oW0NIMl1bQ0gzXSlbTkhdQyg9TylbTkhdYzFuW2NIXW4objEpW0NIXTJbQ0gyXVtDSDJdW0NIMl1bQ0gyXVtDSDJdMg==

> <s_epik_cmdline>
J2VwaWtfcHl0aG9uJywgJy1waCcsICc3LjAnLCAnLXRuJywgJzgnLCAnLW1hJywgJzIwMCcsICctbWV0YWxfYmluZGluZycsICctaW1hZScsICc8aW5maWxlLm1hZT4nLCAnLW9tYWUnLCAnPG91dGZpbGUubWFlPic=

> <r_lp_tautomer_probability>
1

> <r_epik_Ionization_Penalty>
7.18854e-05

> <r_epik_Ionization_Penalty_Charging>
0

> <r_epik_Ionization_Penalty_Neutral>
7.18854e-05

> <r_epik_State_Penalty>
-0

> <r_epik_Charging_Adjusted_Penalty>
0

> <i_epik_Tot_Q>
0

> <i_epik_Tot_abs_Q>
0

> <r_epik_Metal_State_Penalty>
-0

> <b_epik_Metal_Only>
0

> <s_lp_Force_Field>
OPLS_2005

> <r_lp_Energy>
15.2848

> <b_lp_Chiralities_Consistent>
1

> <s_lp_Variant>
AV-unprocessed.smi:2730-1

> <Gold.Version>
5.8.1

> <Gold.Id.Protein>
6NUR|6NUR_protein|mol2

> <Gold.PLP.Fitness>
41.6120

> <Gold.PLP.PLP>
-38.7051

> <Gold.PLP.part.hbond>
-2.0000

> <Gold.PLP.part.metal>
0.0000

> <Gold.PLP.part.buried>
-6.1068

> <Gold.PLP.part.nonpolar>
-31.8567

> <Gold.PLP.part.repulsive>
0.3051

> <Gold.PLP.ligand.clash>
0.0000

> <Gold.PLP.ligand.torsion>
1.0601

> <Gold.PLP.Chemscore.Hbond>
1.6560

> <Gold.PLP.Chemscore.CHOScore>
0.0000

> <Gold.PLP.Chemscore.Metal>
0.0000

> <Gold.Chemscore.Hbonds>
donor molecule, donor type, donor heavy atom, donor atom, acceptor molecule, acceptor atom, score
      P1  H  6896  6907       L1     9  1.00
      P1  H  6931  6943       L1     6  0.67

> <Gold.PLP.Chemscore.Internal.Correction>
0.0591

> <Gold.Rescore>
     Score         DG    S(hbond)    S(metal)    S(lipo)     H(rot)  DE(clash)    DE(int)     intcor
     15.55     -16.49       1.93        0.00      79.06       1.82       0.01       0.94       ----

> <Gold.Chemscore.Fitness>
15.5503

> <Gold.Chemscore.DG>
-16.4944

> <Gold.Chemscore.ZeroCoef>
-5.4800

> <Gold.Chemscore.Hbond>
1.9270

> <Gold.Chemscore.Metal>
0.0000

> <Gold.Chemscore.Lipo>
79.0601

> <Gold.Chemscore.Internal_Hbond>
0.0000

> <Gold.Chemscore.DEClash>
0.0073

> <Gold.Chemscore.DEInternal>
0.9367

> <Gold.Chemscore.Rot>
1.8249

> <Gold.Chemscore.Internal.Correction>
   9.000000E+99

> <Gold.Chemscore.Hbonds>
donor molecule, donor type, donor heavy atom, donor atom, acceptor molecule, acceptor atom, score
      P1  H  6896  6907       L1     9  0.99
      P1  H  6931  6943       L1     6  0.37

> <Gold.Chemscore.Hbond.Weighted>
-6.4362

> <Gold.Chemscore.Metal.Weighted>
-0.0000

> <Gold.Chemscore.Lipo.Weighted>
-9.2500

> <Gold.Chemscore.Internal_Hbond.Weighted>
0.0000

> <Gold.Chemscore.DEClash.Weighted>
0.0073

> <Gold.Chemscore.DEInternal.Weighted>
0.9367

> <Gold.Chemscore.Rot.Weighted>
4.6718

> <Gold.Chemscore.Internal.Correction.Weighted>
   9.000000E+99

> <Gold.Protein.RotatedTorsions>
[ 6907 6896 6895 6894 ] final  -43.86 input  -60.11 | X-H torsion
[ 7974 7965 7964 7962 ] final -129.91 input  175.53 | X-H torsion
[ 8008 7997 7996 7995 ] final   40.37 input   59.86 | X-H torsion
[ 10167 10162 10161 10158 ] final  123.19 input  -65.29 | X-H torsion
[ 10718 10713 10712 10709 ] final   10.27 input   66.30 | X-H torsion
[ 10763 10752 10751 10750 ] final  137.80 input  -60.55 | X-H torsion
[ 11005 11000 10999 10996 ] final   77.46 input  -57.11 | X-H torsion

> <Gold.Protein.ActiveResidues>
 VAL166  LYS551  ARG553  GLY616  TRP617  ASP618  TYR619  PRO620  LYS621  CYS622 
 ASP623  PHE694  ASN695  SER759  ASP760  ASP761  ALA762  ILE779  LEU786  VAL792 
 PHE793  MET794  SER795  GLU796  ALA797  LYS798  CYS799  TRP800  GLU811  SER814 

> <Gold.Protein.RotatedAtoms>
  150.9392  134.8802  159.7600 H   0  0  0  0  0  0  0  0  0  0  0  0  # atno 6907 bound_to 6896
  152.5072  134.3967  159.9412 H   0  0  0  0  0  0  0  0  0  0  0  0  # atno 6908 bound_to 6896
  151.3989  133.3724  159.2764 H   0  0  0  0  0  0  0  0  0  0  0  0  # atno 6909 bound_to 6896
  144.9526  140.7361  143.4778 H   0  0  0  0  0  0  0  0  0  0  0  0  # atno 7974 bound_to 7965
  155.2520  140.3353  155.4281 H   0  0  0  0  0  0  0  0  0  0  0  0  # atno 8008 bound_to 7997
  156.2211  140.1809  156.7517 H   0  0  0  0  0  0  0  0  0  0  0  0  # atno 8009 bound_to 7997
  154.5827  140.0651  156.9112 H   0  0  0  0  0  0  0  0  0  0  0  0  # atno 8010 bound_to 7997
  139.5814  144.6988  151.3519 H   0  0  0  0  0  0  0  0  0  0  0  0  # atno 10167 bound_to 10162
  156.9785  130.5996  149.5674 H   0  0  0  0  0  0  0  0  0  0  0  0  # atno 10718 bound_to 10713
  153.8790  135.3046  155.3444 H   0  0  0  0  0  0  0  0  0  0  0  0  # atno 10763 bound_to 10752
  154.7770  135.4856  153.9769 H   0  0  0  0  0  0  0  0  0  0  0  0  # atno 10764 bound_to 10752
  153.1362  135.6814  153.9195 H   0  0  0  0  0  0  0  0  0  0  0  0  # atno 10765 bound_to 10752
  139.9253  134.7685  156.1525 H   0  0  0  0  0  0  0  0  0  0  0  0  # atno 11005 bound_to 11000
  145.2821  139.1914  143.4785 LP  0  0  0  0  0  0  0  0  0  0  0  0  # atno 17320 bound_to 7965
  146.3326  140.2785  142.8609 LP  0  0  0  0  0  0  0  0  0  0  0  0  # atno 17321 bound_to 7965
  140.7092  143.7436  150.7535 LP  0  0  0  0  0  0  0  0  0  0  0  0  # atno 17342 bound_to 10162
  140.0969  143.4824  152.2447 LP  0  0  0  0  0  0  0  0  0  0  0  0  # atno 17343 bound_to 10162
  156.0254  130.5348  150.8391 LP  0  0  0  0  0  0  0  0  0  0  0  0  # atno 17370 bound_to 10713
  157.5542  131.0944  150.9651 LP  0  0  0  0  0  0  0  0  0  0  0  0  # atno 17371 bound_to 10713
  141.0806  133.6756  156.2329 LP  0  0  0  0  0  0  0  0  0  0  0  0  # atno 17394 bound_to 11000
  140.6353  134.5221  157.5564 LP  0  0  0  0  0  0  0  0  0  0  0  0  # atno 17395 bound_to 11000

$$$$
