AV-unprocessed.smi:102|AV-procd|sdf|949|dock6
  -GOLD-   2262017473D 1   1.00000     0.00000
 Structure written by MMmdl.
 44 45  0  0  0  0  0  0  0  0  1 V2000
  145.4156  136.7473  160.2406 C   0  0  0  0  0  0  0  0  0  0  0  0
  146.9116  136.5038  160.0879 C   0  0  0  0  0  0  0  0  0  0  0  0
  147.6788  136.6005  161.0460 O   0  0  0  0  0  0  0  0  0  0  0  0
  147.2561  136.1847  158.8311 O   0  0  0  0  0  0  0  0  0  0  0  0
  148.5498  135.6667  158.5695 C   0  0  0  0  0  0  0  0  0  0  0  0
  148.6328  135.2331  157.1029 C   0  0  2  0  0  0  0  0  0  0  0  0
  149.4717  134.0938  156.9745 O   0  0  0  0  0  0  0  0  0  0  0  0
  149.8974  134.0029  155.6537 C   0  0  1  0  0  0  0  0  0  0  0  0
  148.9111  133.1234  154.8985 N   0  0  0  0  0  0  0  0  0  0  0  0
  147.9197  133.6419  154.0691 C   0  0  0  0  0  0  0  0  0  0  0  0
  146.9879  132.8741  153.4566 C   0  0  0  0  0  0  0  0  0  0  0  0
  146.0628  133.4534  152.6726 F   0  0  0  0  0  0  0  0  0  0  0  0
  146.9604  131.4301  153.6611 C   0  0  0  0  0  0  0  0  0  0  0  0
  146.1656  130.6507  153.1399 O   0  0  0  0  0  0  0  0  0  0  0  0
  147.9327  130.9575  154.5451 N   0  0  0  0  0  0  0  0  0  0  0  0
  148.8903  131.7396  155.1927 C   0  0  0  0  0  0  0  0  0  0  0  0
  149.6720  131.2113  155.9825 O   0  0  0  0  0  0  0  0  0  0  0  0
  149.9908  135.4424  155.1101 C   0  0  2  0  0  0  0  0  0  0  0  0
  151.3471  135.8492  154.9780 O   0  0  0  0  0  0  0  0  0  0  0  0
  151.6555  136.9583  154.2836 C   0  0  0  0  0  0  0  0  0  0  0  0
  153.0883  136.9430  153.7679 C   0  0  0  0  0  0  0  0  0  0  0  0
  150.9003  137.9036  154.0567 O   0  0  0  0  0  0  0  0  0  0  0  0
  149.3133  136.2710  156.2025 C   0  0  1  0  0  0  0  0  0  0  0  0
  148.3481  137.1521  155.6429 O   0  0  0  0  0  0  0  0  0  0  0  0
  147.7752  138.1001  156.4060 C   0  0  0  0  0  0  0  0  0  0  0  0
  146.7733  138.9456  155.6311 C   0  0  0  0  0  0  0  0  0  0  0  0
  148.0047  138.3078  157.5975 O   0  0  0  0  0  0  0  0  0  0  0  0
  147.9351  129.9670  154.7415 H   0  0  0  0  0  0  0  0  0  0  0  0
  144.9578  136.9661  159.2755 H   0  0  0  0  0  0  0  0  0  0  0  0
  145.2354  137.5921  160.9057 H   0  0  0  0  0  0  0  0  0  0  0  0
  144.9316  135.8660  160.6614 H   0  0  0  0  0  0  0  0  0  0  0  0
  149.2869  136.4469  158.7651 H   0  0  0  0  0  0  0  0  0  0  0  0
  148.7736  134.8285  159.2310 H   0  0  0  0  0  0  0  0  0  0  0  0
  147.6384  134.9955  156.7218 H   0  0  0  0  0  0  0  0  0  0  0  0
  150.8596  133.4906  155.5981 H   0  0  0  0  0  0  0  0  0  0  0  0
  147.8490  134.7049  153.8997 H   0  0  0  0  0  0  0  0  0  0  0  0
  149.4834  135.5362  154.1505 H   0  0  0  0  0  0  0  0  0  0  0  0
  153.7515  136.4690  154.4920 H   0  0  0  0  0  0  0  0  0  0  0  0
  153.4409  137.9598  153.5933 H   0  0  0  0  0  0  0  0  0  0  0  0
  153.1460  136.3909  152.8299 H   0  0  0  0  0  0  0  0  0  0  0  0
  150.0603  136.8138  156.7849 H   0  0  0  0  0  0  0  0  0  0  0  0
  146.2987  138.3569  154.8457 H   0  0  0  0  0  0  0  0  0  0  0  0
  147.2752  139.7968  155.1712 H   0  0  0  0  0  0  0  0  0  0  0  0
  145.9960  139.3203  156.2976 H   0  0  0  0  0  0  0  0  0  0  0  0
  1  2  1  0  0  0  0
  1 29  1  0  0  0  0
  1 30  1  0  0  0  0
  1 31  1  0  0  0  0
  2  3  2  0  0  0  0
  2  4  1  0  0  0  0
  4  5  1  0  0  0  0
  5  6  1  0  0  0  0
  5 32  1  0  0  0  0
  5 33  1  0  0  0  0
  6 23  1  0  0  0  0
  6  7  1  0  0  0  0
  6 34  1  0  0  0  0
  7  8  1  0  0  0  0
  8  9  1  0  0  0  0
  8 18  1  0  0  0  0
  8 35  1  0  0  0  0
  9 16  1  0  0  0  0
  9 10  1  0  0  0  0
 10 11  2  0  0  0  0
 10 36  1  0  0  0  0
 11 12  1  0  0  0  0
 11 13  1  0  0  0  0
 13 14  2  0  0  0  0
 13 15  1  0  0  0  0
 15 28  1  0  0  0  0
 15 16  1  0  0  0  0
 16 17  2  0  0  0  0
 18 19  1  0  0  0  0
 18 23  1  0  0  0  0
 18 37  1  0  0  0  0
 19 20  1  0  0  0  0
 20 21  1  0  0  0  0
 20 22  2  0  0  0  0
 21 38  1  0  0  0  0
 21 39  1  0  0  0  0
 21 40  1  0  0  0  0
 23 24  1  0  0  0  0
 23 41  1  0  0  0  0
 24 25  1  0  0  0  0
 25 26  1  0  0  0  0
 25 27  2  0  0  0  0
 26 42  1  0  0  0  0
 26 43  1  0  0  0  0
 26 44  1  0  0  0  0
M  END
> <s_m_source_file>
AV-unprocessed.smi

> <i_m_source_file_index>
102

> <i_lp_mmshare_version>
43012

> <i_f3d_flags>
0

> <s_epik_input>
W0NIM11DKD1PKU9bQ0gyXVtDQEBIXTFPW0NASF0oW0NAQEhdKE9DKD1PKVtDSDNdKVtDQEhdMU9DKD1PKVtDSDNdKW4yW2NIXWMoRiljKD1PKVtuSF1jMj1P

> <s_epik_cmdline>
J2VwaWtfcHl0aG9uJywgJy1waCcsICc3LjAnLCAnLXRuJywgJzgnLCAnLW1hJywgJzIwMCcsICctbWV0YWxfYmluZGluZycsICctaW1hZScsICc8aW5maWxlLm1hZT4nLCAnLW9tYWUnLCAnPG91dGZpbGUubWFlPic=

> <r_lp_tautomer_probability>
0.999537

> <r_epik_Ionization_Penalty>
0.058267

> <r_epik_Ionization_Penalty_Charging>
0.058267

> <r_epik_Ionization_Penalty_Neutral>
6.57791e-16

> <r_epik_State_Penalty>
0.0503774

> <r_epik_Charging_Adjusted_Penalty>
0.108644

> <i_epik_Tot_Q>
0

> <i_epik_Tot_abs_Q>
0

> <r_epik_Metal_State_Penalty>
2.6644

> <b_epik_Metal_Only>
0

> <s_epik_Chemistry_Notes>
This compound has an ester and may undergo hydrolysis at high or low pH. This compound contains an acetal/aminal-like group ( X-CH(R)-Y where X, Y are N, S, or O) that may be acid/base labile, releasing an aldehyde.

> <s_lp_Force_Field>
OPLS_2005

> <r_lp_Energy>
9.37948

> <b_lp_Chiralities_Consistent>
1

> <s_lp_Variant>
AV-unprocessed.smi:102-5

> <Gold.Version>
5.8.1

> <Gold.Id.Protein>
6NUR|6NUR_protein|mol2

> <Gold.PLP.Fitness>
41.5144

> <Gold.PLP.PLP>
-33.0362

> <Gold.PLP.part.hbond>
-4.9619

> <Gold.PLP.part.metal>
0.0000

> <Gold.PLP.part.buried>
-2.9811

> <Gold.PLP.part.nonpolar>
-23.3402

> <Gold.PLP.part.repulsive>
0.3240

> <Gold.PLP.ligand.clash>
0.0000

> <Gold.PLP.ligand.torsion>
1.5254

> <Gold.PLP.Chemscore.Hbond>
2.8096

> <Gold.PLP.Chemscore.CHOScore>
0.9404

> <Gold.PLP.Chemscore.Metal>
0.0000

> <Gold.Chemscore.Hbonds>
donor molecule, donor type, donor heavy atom, donor atom, acceptor molecule, acceptor atom, score
      P1  H  6931  6943       L1     3  0.32
      L1  C    10    36       P1  7948  0.43

> <Gold.PLP.Chemscore.Internal.Correction>
0.2793

> <Gold.Rescore>
     Score         DG    S(hbond)    S(metal)    S(lipo)     H(rot)  DE(clash)    DE(int)     intcor
      4.09      -6.84       2.22        0.00      36.96       4.05       0.32       2.43       ----

> <Gold.Chemscore.Fitness>
4.0943

> <Gold.Chemscore.DG>
-6.8423

> <Gold.Chemscore.ZeroCoef>
-5.4800

> <Gold.Chemscore.Hbond>
2.2190

> <Gold.Chemscore.Metal>
0.0000

> <Gold.Chemscore.Lipo>
36.9568

> <Gold.Chemscore.Internal_Hbond>
0.0000

> <Gold.Chemscore.DEClash>
0.3226

> <Gold.Chemscore.DEInternal>
2.4254

> <Gold.Chemscore.Rot>
4.0520

> <Gold.Chemscore.Internal.Correction>
   9.000000E+99

> <Gold.Chemscore.Hbonds>
donor molecule, donor type, donor heavy atom, donor atom, acceptor molecule, acceptor atom, score
      P1  H  6931  6943       L1     3  0.33

> <Gold.Chemscore.Hbond.Weighted>
-7.4115

> <Gold.Chemscore.Metal.Weighted>
-0.0000

> <Gold.Chemscore.Lipo.Weighted>
-4.3239

> <Gold.Chemscore.Internal_Hbond.Weighted>
0.0000

> <Gold.Chemscore.DEClash.Weighted>
0.3226

> <Gold.Chemscore.DEInternal.Weighted>
2.4254

> <Gold.Chemscore.Rot.Weighted>
10.3732

> <Gold.Chemscore.Internal.Correction.Weighted>
   9.000000E+99

> <Gold.Protein.RotatedTorsions>
[ 6907 6896 6895 6894 ] final   25.43 input  -60.11 | X-H torsion
[ 7974 7965 7964 7962 ] final   69.13 input  175.53 | X-H torsion
[ 8008 7997 7996 7995 ] final  -86.60 input   59.86 | X-H torsion
[ 10167 10162 10161 10158 ] final   11.91 input  -65.29 | X-H torsion
[ 10718 10713 10712 10709 ] final -112.57 input   66.30 | X-H torsion
[ 10763 10752 10751 10750 ] final  174.30 input  -60.55 | X-H torsion
[ 11005 11000 10999 10996 ] final    7.56 input  -57.11 | X-H torsion

> <Gold.Protein.ActiveResidues>
 VAL166  LYS551  ARG553  GLY616  TRP617  ASP618  TYR619  PRO620  LYS621  CYS622 
 ASP623  PHE694  ASN695  SER759  ASP760  ASP761  ALA762  ILE779  LEU786  VAL792 
 PHE793  MET794  SER795  GLU796  ALA797  LYS798  CYS799  TRP800  GLU811  SER814 

> <Gold.Protein.RotatedAtoms>
  151.9723  135.0070  160.0553 H   0  0  0  0  0  0  0  0  0  0  0  0  # atno 6907 bound_to 6896
  152.1771  133.4678  159.4947 H   0  0  0  0  0  0  0  0  0  0  0  0  # atno 6908 bound_to 6896
  150.6911  134.1797  159.4287 H   0  0  0  0  0  0  0  0  0  0  0  0  # atno 6909 bound_to 6896
  145.7941  139.2949  143.1193 H   0  0  0  0  0  0  0  0  0  0  0  0  # atno 7974 bound_to 7965
  154.6537  140.0576  156.9984 H   0  0  0  0  0  0  0  0  0  0  0  0  # atno 8008 bound_to 7997
  155.1332  140.3258  155.4450 H   0  0  0  0  0  0  0  0  0  0  0  0  # atno 8009 bound_to 7997
  156.2587  140.1977  156.6451 H   0  0  0  0  0  0  0  0  0  0  0  0  # atno 8010 bound_to 7997
  140.6102  143.8424  150.7057 H   0  0  0  0  0  0  0  0  0  0  0  0  # atno 10167 bound_to 10162
  156.0714  130.5927  150.8527 H   0  0  0  0  0  0  0  0  0  0  0  0  # atno 10718 bound_to 10713
  154.4521  135.2765  155.1774 H   0  0  0  0  0  0  0  0  0  0  0  0  # atno 10763 bound_to 10752
  154.3597  135.6132  153.5688 H   0  0  0  0  0  0  0  0  0  0  0  0  # atno 10764 bound_to 10752
  152.9848  135.5831  154.4867 H   0  0  0  0  0  0  0  0  0  0  0  0  # atno 10765 bound_to 10752
  140.5468  134.0321  155.7923 H   0  0  0  0  0  0  0  0  0  0  0  0  # atno 11005 bound_to 11000
  145.9946  140.8573  143.0049 LP  0  0  0  0  0  0  0  0  0  0  0  0  # atno 17320 bound_to 7965
  144.6777  140.2265  143.7360 LP  0  0  0  0  0  0  0  0  0  0  0  0  # atno 17321 bound_to 7965
  140.1991  143.3974  152.1805 LP  0  0  0  0  0  0  0  0  0  0  0  0  # atno 17342 bound_to 10162
  139.5355  144.7205  151.4908 LP  0  0  0  0  0  0  0  0  0  0  0  0  # atno 17343 bound_to 10162
  157.5786  131.0946  150.9306 LP  0  0  0  0  0  0  0  0  0  0  0  0  # atno 17370 bound_to 10713
  156.9506  130.5418  149.5282 LP  0  0  0  0  0  0  0  0  0  0  0  0  # atno 17371 bound_to 10713
  141.1195  133.9485  157.2758 LP  0  0  0  0  0  0  0  0  0  0  0  0  # atno 17394 bound_to 11000
  139.9475  135.0181  156.8896 LP  0  0  0  0  0  0  0  0  0  0  0  0  # atno 17395 bound_to 11000

$$$$
