AV-unprocessed.smi:171|AV-procd|sdf|1417|dock3
  -GOLD-   2262019183D 1   1.00000     0.00000
 Structure written by MMmdl.
 56 59  0  0  0  0  0  0  0  0  1 V2000
  151.3387  144.9633  159.3300 C   0  0  0  0  0  0  0  0  0  0  0  0
  151.7729  143.5002  159.1387 C   0  0  0  0  0  0  0  0  0  0  0  0
  153.2944  143.3659  159.3022 C   0  0  0  0  0  0  0  0  0  0  0  0
  151.3195  142.9166  157.7796 C   0  0  0  0  0  0  0  0  0  0  0  0
  150.4935  141.6093  157.8591 C   0  0  1  0  0  0  0  0  0  0  0  0
  149.1326  141.7917  157.1495 C   0  0  0  0  0  0  0  0  0  0  0  0
  148.2853  142.5315  157.6455 O   0  0  0  0  0  0  0  0  0  0  0  0
  148.8976  141.1332  156.0001 N   0  0  0  0  0  0  0  0  0  0  0  0
  149.8220  140.2157  155.3338 C   0  0  0  0  0  0  0  0  0  0  0  0
  151.2660  140.3490  155.8466 C   0  0  0  0  0  0  0  0  0  0  0  0
  151.2701  140.4930  157.2988 N   0  0  0  0  0  0  0  0  0  0  0  0
  151.3274  139.3255  157.9867 C   0  0  0  0  0  0  0  0  0  0  0  0
  152.5231  138.8399  158.4139 N   0  0  0  0  0  0  0  0  0  0  0  0
  152.5768  137.6935  159.0981 C   0  0  0  0  0  0  0  0  0  0  0  0
  151.5749  136.8889  159.4588 N   0  0  0  0  0  0  0  0  0  0  0  0
  150.3727  137.3743  159.0349 C   0  0  0  0  0  0  0  0  0  0  0  0
  150.1621  138.5746  158.3005 C   0  0  0  0  0  0  0  0  0  0  0  0
  148.8087  138.7392  158.0355 N   0  0  0  0  0  0  0  0  0  0  0  0
  148.2498  137.6952  158.5840 C   0  0  0  0  0  0  0  0  0  0  0  0
  149.1137  136.8274  159.2146 N   0  0  0  0  0  0  0  0  0  0  0  0
  148.7650  135.5889  159.8958 C   0  0  0  0  0  0  0  0  0  0  0  0
  147.7533  135.7676  161.0550 C   0  0  2  0  0  0  0  0  0  0  0  0
  147.9722  137.0348  161.6529 O   0  0  0  0  0  0  0  0  0  0  0  0
  147.8500  134.6952  162.1500 C   0  0  0  0  0  0  0  0  0  0  0  0
  146.4915  133.9993  162.1226 C   0  0  0  0  0  0  0  0  0  0  0  0
  145.6132  134.9937  161.6265 O   0  0  0  0  0  0  0  0  0  0  0  0
  146.2909  135.6475  160.5650 C   0  0  1  0  0  0  0  0  0  0  0  0
  145.5758  136.9500  160.1707 C   0  0  0  0  0  0  0  0  0  0  0  0
  151.7177  145.5979  158.5285 H   0  0  0  0  0  0  0  0  0  0  0  0
  151.7116  145.3619  160.2739 H   0  0  0  0  0  0  0  0  0  0  0  0
  150.2533  145.0607  159.3510 H   0  0  0  0  0  0  0  0  0  0  0  0
  151.3193  142.9133  159.9383 H   0  0  0  0  0  0  0  0  0  0  0  0
  153.8267  143.9353  158.5395 H   0  0  0  0  0  0  0  0  0  0  0  0
  153.6093  142.3252  159.2212 H   0  0  0  0  0  0  0  0  0  0  0  0
  153.6193  143.7305  160.2772 H   0  0  0  0  0  0  0  0  0  0  0  0
  150.7386  143.6748  157.2520 H   0  0  0  0  0  0  0  0  0  0  0  0
  152.2028  142.7453  157.1622 H   0  0  0  0  0  0  0  0  0  0  0  0
  150.2708  141.4289  158.9114 H   0  0  0  0  0  0  0  0  0  0  0  0
  147.9998  141.2709  155.5592 H   0  0  0  0  0  0  0  0  0  0  0  0
  149.4631  139.2017  155.5142 H   0  0  0  0  0  0  0  0  0  0  0  0
  149.7841  140.3756  154.2561 H   0  0  0  0  0  0  0  0  0  0  0  0
  151.8641  139.5002  155.5127 H   0  0  0  0  0  0  0  0  0  0  0  0
  151.7323  141.2335  155.4121 H   0  0  0  0  0  0  0  0  0  0  0  0
  153.5639  137.3757  159.3997 H   0  0  0  0  0  0  0  0  0  0  0  0
  147.1831  137.5290  158.5454 H   0  0  0  0  0  0  0  0  0  0  0  0
  148.3670  134.8953  159.1541 H   0  0  0  0  0  0  0  0  0  0  0  0
  149.6843  135.1368  160.2700 H   0  0  0  0  0  0  0  0  0  0  0  0
  147.5629  137.0354  162.5051 H   0  0  0  0  0  0  0  0  0  0  0  0
  148.6542  133.9777  161.9926 H   0  0  0  0  0  0  0  0  0  0  0  0
  148.0108  135.1443  163.1314 H   0  0  0  0  0  0  0  0  0  0  0  0
  146.5046  133.1505  161.4370 H   0  0  0  0  0  0  0  0  0  0  0  0
  146.1814  133.6415  163.1047 H   0  0  0  0  0  0  0  0  0  0  0  0
  146.2550  134.9679  159.7115 H   0  0  0  0  0  0  0  0  0  0  0  0
  146.1189  137.4709  159.3818 H   0  0  0  0  0  0  0  0  0  0  0  0
  145.4744  137.6292  161.0175 H   0  0  0  0  0  0  0  0  0  0  0  0
  144.5724  136.7415  159.7993 H   0  0  0  0  0  0  0  0  0  0  0  0
  1  2  1  0  0  0  0
  1 29  1  0  0  0  0
  1 30  1  0  0  0  0
  1 31  1  0  0  0  0
  2  3  1  0  0  0  0
  2  4  1  0  0  0  0
  2 32  1  0  0  0  0
  3 33  1  0  0  0  0
  3 34  1  0  0  0  0
  3 35  1  0  0  0  0
  4  5  1  0  0  0  0
  4 36  1  0  0  0  0
  4 37  1  0  0  0  0
  5 11  1  0  0  0  0
  5  6  1  0  0  0  0
  5 38  1  0  0  0  0
  6  7  2  0  0  0  0
  6  8  1  0  0  0  0
  8  9  1  0  0  0  0
  8 39  1  0  0  0  0
  9 10  1  0  0  0  0
  9 40  1  0  0  0  0
  9 41  1  0  0  0  0
 10 11  1  0  0  0  0
 10 42  1  0  0  0  0
 10 43  1  0  0  0  0
 11 12  1  0  0  0  0
 12 17  1  0  0  0  0
 12 13  2  0  0  0  0
 13 14  1  0  0  0  0
 14 15  2  0  0  0  0
 14 44  1  0  0  0  0
 15 16  1  0  0  0  0
 16 20  1  0  0  0  0
 16 17  2  0  0  0  0
 17 18  1  0  0  0  0
 18 19  2  0  0  0  0
 19 20  1  0  0  0  0
 19 45  1  0  0  0  0
 20 21  1  0  0  0  0
 21 22  1  0  0  0  0
 21 46  1  0  0  0  0
 21 47  1  0  0  0  0
 22 27  1  0  0  0  0
 22 23  1  0  0  0  0
 22 24  1  0  0  0  0
 23 48  1  0  0  0  0
 24 25  1  0  0  0  0
 24 49  1  0  0  0  0
 24 50  1  0  0  0  0
 25 26  1  0  0  0  0
 25 51  1  0  0  0  0
 25 52  1  0  0  0  0
 26 27  1  0  0  0  0
 27 28  1  0  0  0  0
 27 53  1  0  0  0  0
 28 54  1  0  0  0  0
 28 55  1  0  0  0  0
 28 56  1  0  0  0  0
M  END
> <s_m_source_file>
AV-unprocessed.smi

> <i_m_source_file_index>
171

> <i_lp_mmshare_version>
43012

> <i_f3d_flags>
0

> <s_epik_input>
W0NIM11bQ0hdKFtDSDNdKVtDSDJdW0NAQEhdMUMoPU8pW05IXVtDSDJdW0NIMl1OMWMobltjSF1uMiljKGMyMyluW2NIXW4zW0NIMl1bQ0BAXTQoW09IXSlbQ0gyXVtDSDJdT1tDQEhdNFtDSDNd

> <s_epik_cmdline>
J2VwaWtfcHl0aG9uJywgJy1waCcsICc3LjAnLCAnLXRuJywgJzgnLCAnLW1hJywgJzIwMCcsICctbWV0YWxfYmluZGluZycsICctaW1hZScsICc8aW5maWxlLm1hZT4nLCAnLW9tYWUnLCAnPG91dGZpbGUubWFlPic=

> <r_lp_tautomer_probability>
1

> <r_epik_Ionization_Penalty>
0.000670584

> <r_epik_Ionization_Penalty_Charging>
0

> <r_epik_Ionization_Penalty_Neutral>
0.000670584

> <r_epik_State_Penalty>
0.000304767

> <r_epik_Charging_Adjusted_Penalty>
0.000304767

> <i_epik_Tot_Q>
0

> <i_epik_Tot_abs_Q>
0

> <r_epik_Metal_State_Penalty>
-0

> <b_epik_Metal_Only>
0

> <s_lp_Force_Field>
OPLS_2005

> <r_lp_Energy>
42.7698

> <b_lp_Chiralities_Consistent>
1

> <s_lp_Variant>
AV-unprocessed.smi:171-4

> <Gold.Version>
5.8.1

> <Gold.Id.Protein>
6NUR|6NUR_protein|mol2

> <Gold.PLP.Fitness>
48.7046

> <Gold.PLP.PLP>
-47.2023

> <Gold.PLP.part.hbond>
-3.0000

> <Gold.PLP.part.metal>
0.0000

> <Gold.PLP.part.buried>
-6.3376

> <Gold.PLP.part.nonpolar>
-38.4285

> <Gold.PLP.part.repulsive>
1.5926

> <Gold.PLP.ligand.clash>
0.0000

> <Gold.PLP.ligand.torsion>
3.2665

> <Gold.PLP.Chemscore.Hbond>
2.5756

> <Gold.PLP.Chemscore.CHOScore>
0.0000

> <Gold.PLP.Chemscore.Metal>
0.0000

> <Gold.Chemscore.Hbonds>
donor molecule, donor type, donor heavy atom, donor atom, acceptor molecule, acceptor atom, score
      P1  H  6896  6907       L1    15  1.00
      P1  H  6931  6943       L1    23  0.90
      P1  H  6934  6947       L1    23  0.27

> <Gold.PLP.Chemscore.Internal.Correction>
0.3085

> <Gold.Rescore>
     Score         DG    S(hbond)    S(metal)    S(lipo)     H(rot)  DE(clash)    DE(int)     intcor
     13.84     -17.31       1.85        0.00      98.39       2.29       0.15       3.32       ----

> <Gold.Chemscore.Fitness>
13.8414

> <Gold.Chemscore.DG>
-17.3079

> <Gold.Chemscore.ZeroCoef>
-5.4800

> <Gold.Chemscore.Hbond>
1.8519

> <Gold.Chemscore.Metal>
0.0000

> <Gold.Chemscore.Lipo>
98.3950

> <Gold.Chemscore.Internal_Hbond>
0.0000

> <Gold.Chemscore.DEClash>
0.1465

> <Gold.Chemscore.DEInternal>
3.3200

> <Gold.Chemscore.Rot>
2.2928

> <Gold.Chemscore.Internal.Correction>
   9.000000E+99

> <Gold.Chemscore.Hbonds>
donor molecule, donor type, donor heavy atom, donor atom, acceptor molecule, acceptor atom, score
      P1  H  6896  6907       L1    15  0.65
      P1  H  6931  6943       L1    23  0.18
      P1  H  6934  6947       L1    23  0.05

> <Gold.Chemscore.Hbond.Weighted>
-6.1853

> <Gold.Chemscore.Metal.Weighted>
-0.0000

> <Gold.Chemscore.Lipo.Weighted>
-11.5122

> <Gold.Chemscore.Internal_Hbond.Weighted>
0.0000

> <Gold.Chemscore.DEClash.Weighted>
0.1465

> <Gold.Chemscore.DEInternal.Weighted>
3.3200

> <Gold.Chemscore.Rot.Weighted>
5.8696

> <Gold.Chemscore.Internal.Correction.Weighted>
   9.000000E+99

> <Gold.Protein.RotatedTorsions>
[ 6907 6896 6895 6894 ] final  -15.02 input  -60.11 | X-H torsion
[ 7974 7965 7964 7962 ] final   37.68 input  175.53 | X-H torsion
[ 8008 7997 7996 7995 ] final  130.17 input   59.86 | X-H torsion
[ 10167 10162 10161 10158 ] final  169.43 input  -65.29 | X-H torsion
[ 10718 10713 10712 10709 ] final -103.09 input   66.30 | X-H torsion
[ 10763 10752 10751 10750 ] final   66.23 input  -60.55 | X-H torsion
[ 11005 11000 10999 10996 ] final   -0.75 input  -57.11 | X-H torsion

> <Gold.Protein.ActiveResidues>
 VAL166  LYS551  ARG553  GLY616  TRP617  ASP618  TYR619  PRO620  LYS621  CYS622 
 ASP623  PHE694  ASN695  SER759  ASP760  ASP761  ALA762  ILE779  LEU786  VAL792 
 PHE793  MET794  SER795  GLU796  ALA797  LYS798  CYS799  TRP800  GLU811  SER814 

> <Gold.Protein.RotatedAtoms>
  151.3305  135.0840  159.9336 H   0  0  0  0  0  0  0  0  0  0  0  0  # atno 6907 bound_to 6896
  152.5236  133.9548  159.7699 H   0  0  0  0  0  0  0  0  0  0  0  0  # atno 6908 bound_to 6896
  150.9886  133.6120  159.2741 H   0  0  0  0  0  0  0  0  0  0  0  0  # atno 6909 bound_to 6896
  146.1119  139.5864  142.9346 H   0  0  0  0  0  0  0  0  0  0  0  0  # atno 7974 bound_to 7965
  156.2950  140.2602  156.2719 H   0  0  0  0  0  0  0  0  0  0  0  0  # atno 8008 bound_to 7997
  154.9687  140.0391  157.2242 H   0  0  0  0  0  0  0  0  0  0  0  0  # atno 8009 bound_to 7997
  154.7879  140.2806  155.6018 H   0  0  0  0  0  0  0  0  0  0  0  0  # atno 8010 bound_to 7997
  139.4992  144.3707  151.9728 H   0  0  0  0  0  0  0  0  0  0  0  0  # atno 10167 bound_to 10162
  156.0252  130.5451  150.7202 H   0  0  0  0  0  0  0  0  0  0  0  0  # atno 10718 bound_to 10713
  153.0131  135.5328  154.6792 H   0  0  0  0  0  0  0  0  0  0  0  0  # atno 10763 bound_to 10752
  154.5956  135.2863  155.0591 H   0  0  0  0  0  0  0  0  0  0  0  0  # atno 10764 bound_to 10752
  154.1668  135.6538  153.5052 H   0  0  0  0  0  0  0  0  0  0  0  0  # atno 10765 bound_to 10752
  140.6397  133.9501  155.8319 H   0  0  0  0  0  0  0  0  0  0  0  0  # atno 11005 bound_to 11000
  145.5646  141.0401  143.2207 LP  0  0  0  0  0  0  0  0  0  0  0  0  # atno 17320 bound_to 7965
  144.7519  139.7172  143.7269 LP  0  0  0  0  0  0  0  0  0  0  0  0  # atno 17321 bound_to 7965
  140.3143  144.3502  150.6025 LP  0  0  0  0  0  0  0  0  0  0  0  0  # atno 17342 bound_to 10162
  140.5774  143.2175  151.7491 LP  0  0  0  0  0  0  0  0  0  0  0  0  # atno 17343 bound_to 10162
  157.4820  131.0903  151.0526 LP  0  0  0  0  0  0  0  0  0  0  0  0  # atno 17370 bound_to 10713
  157.0956  130.5960  149.5449 LP  0  0  0  0  0  0  0  0  0  0  0  0  # atno 17371 bound_to 10713
  141.0616  134.0338  157.3651 LP  0  0  0  0  0  0  0  0  0  0  0  0  # atno 17394 bound_to 11000
  139.9085  135.0185  156.7589 LP  0  0  0  0  0  0  0  0  0  0  0  0  # atno 17395 bound_to 11000

$$$$
