AV-unprocessed.smi:600|AV-procd|sdf|3030|dock7
  -GOLD-   2262023543D 1   1.00000     0.00000
 Structure written by MMmdl.
 33 34  0  0  0  0  0  0  0  0  1 V2000
  152.5689  138.5974  155.4801 C   0  0  0  0  0  0  0  0  0  0  0  0
  153.1836  137.4220  155.9764 O   0  0  0  0  0  0  0  0  0  0  0  0
  153.8165  137.6279  157.2285 C   0  0  0  0  0  0  0  0  0  0  0  0
  152.8358  137.3116  158.3693 C   0  0  0  0  0  0  0  0  0  0  0  0
  153.3652  137.7292  159.6725 N   0  0  0  0  0  0  0  0  0  0  0  0
  153.4415  139.1027  159.8316 N   0  0  0  0  0  0  0  0  0  0  0  0
  153.9103  139.6121  160.9239 C   0  0  0  0  0  0  0  0  0  0  0  0
  153.9937  141.0983  161.0694 C   0  0  0  0  0  0  0  0  0  0  0  0
  154.3202  141.5602  162.1686 O   0  0  0  0  0  0  0  0  0  0  0  0
  153.6803  141.8136  159.9131 N   0  0  0  0  0  0  0  0  0  0  0  0
  153.0741  142.9624  159.9560 C   0  0  0  0  0  0  0  0  0  0  0  0
  152.6421  143.6802  161.0668 N   0  0  0  0  0  0  0  0  0  0  0  0
  151.6939  144.7557  160.8419 C   0  0  0  0  0  0  0  0  0  0  0  0
  151.9758  145.3286  159.4558 C   0  0  0  0  0  0  0  0  0  0  0  0
  152.6287  143.9475  158.5009 S   0  0  0  0  0  0  0  0  0  0  0  0
  154.3573  138.7465  162.0099 C   0  0  0  0  0  0  0  0  0  0  0  0
  154.2778  137.4089  161.8384 C   0  0  0  0  0  0  0  0  0  0  0  0
  153.7606  136.8130  160.6065 C   0  0  0  0  0  0  0  0  0  0  0  0
  153.6910  135.5976  160.4268 O   0  0  0  0  0  0  0  0  0  0  0  0
  152.0939  138.3861  154.5223 H   0  0  0  0  0  0  0  0  0  0  0  0
  153.3023  139.3896  155.3244 H   0  0  0  0  0  0  0  0  0  0  0  0
  151.8012  138.9603  156.1646 H   0  0  0  0  0  0  0  0  0  0  0  0
  154.7103  137.0073  157.3114 H   0  0  0  0  0  0  0  0  0  0  0  0
  154.1368  138.6680  157.3037 H   0  0  0  0  0  0  0  0  0  0  0  0
  151.8976  137.8379  158.1861 H   0  0  0  0  0  0  0  0  0  0  0  0
  152.5742  136.2523  158.3588 H   0  0  0  0  0  0  0  0  0  0  0  0
  150.6851  144.3441  160.8882 H   0  0  0  0  0  0  0  0  0  0  0  0
  151.7791  145.5192  161.6154 H   0  0  0  0  0  0  0  0  0  0  0  0
  151.0891  145.7603  158.9915 H   0  0  0  0  0  0  0  0  0  0  0  0
  152.7437  146.1006  159.5121 H   0  0  0  0  0  0  0  0  0  0  0  0
  154.7449  139.1390  162.9382 H   0  0  0  0  0  0  0  0  0  0  0  0
  154.6057  136.7570  162.6346 H   0  0  0  0  0  0  0  0  0  0  0  0
  152.7450  143.3494  162.0158 H   0  0  0  0  0  0  0  0  0  0  0  0
  1  2  1  0  0  0  0
  1 20  1  0  0  0  0
  1 21  1  0  0  0  0
  1 22  1  0  0  0  0
  2  3  1  0  0  0  0
  3  4  1  0  0  0  0
  3 23  1  0  0  0  0
  3 24  1  0  0  0  0
  4  5  1  0  0  0  0
  4 25  1  0  0  0  0
  4 26  1  0  0  0  0
  5 18  1  0  0  0  0
  5  6  1  0  0  0  0
  6  7  2  0  0  0  0
  7  8  1  0  0  0  0
  7 16  1  0  0  0  0
  8  9  2  0  0  0  0
  8 10  1  0  0  0  0
 10 11  2  0  0  0  0
 11 15  1  0  0  0  0
 11 12  1  0  0  0  0
 12 13  1  0  0  0  0
 12 33  1  0  0  0  0
 13 14  1  0  0  0  0
 13 27  1  0  0  0  0
 13 28  1  0  0  0  0
 14 15  1  0  0  0  0
 14 29  1  0  0  0  0
 14 30  1  0  0  0  0
 16 17  2  0  0  0  0
 16 31  1  0  0  0  0
 17 18  1  0  0  0  0
 17 32  1  0  0  0  0
 18 19  2  0  0  0  0
M  END
> <s_m_source_file>
AV-unprocessed.smi

> <i_m_source_file_index>
600

> <i_lp_mmshare_version>
43012

> <i_f3d_flags>
0

> <s_epik_input>
W0NIM11PW0NIMl1bQ0gyXW4xbmMoW2NIXVtjSF1jMT1PKUMoPU8pW05IXUMyPU5bQ0gyXVtDSDJdUzI=

> <s_epik_cmdline>
J2VwaWtfcHl0aG9uJywgJy1waCcsICc3LjAnLCAnLXRuJywgJzgnLCAnLW1hJywgJzIwMCcsICctbWV0YWxfYmluZGluZycsICctaW1hZScsICc8aW5maWxlLm1hZT4nLCAnLW9tYWUnLCAnPG91dGZpbGUubWFlPic=

> <r_epik_Ionization_Penalty>
0.0115713

> <r_epik_Ionization_Penalty_Charging>
8.15052e-11

> <r_epik_Ionization_Penalty_Neutral>
0.0115713

> <r_epik_State_Penalty>
0.0066973

> <r_epik_Charging_Adjusted_Penalty>
0.0066973

> <i_epik_Tot_Q>
0

> <i_epik_Tot_abs_Q>
0

> <r_epik_Metal_State_Penalty>
-0

> <b_epik_Metal_Only>
0

> <s_epik_Chemistry_Notes>
This compound has an imine and may undergo hydrolysis.

> <s_lp_Force_Field>
OPLS_2005

> <r_lp_Energy>
40.8102

> <b_lp_Chiralities_Consistent>
1

> <s_lp_Variant>
AV-unprocessed.smi:600-1

> <Gold.Version>
5.8.1

> <Gold.Id.Protein>
6NUR|6NUR_protein|mol2

> <Gold.PLP.Fitness>
39.4343

> <Gold.PLP.PLP>
-36.2278

> <Gold.PLP.part.hbond>
-3.0000

> <Gold.PLP.part.metal>
0.0000

> <Gold.PLP.part.buried>
-5.5222

> <Gold.PLP.part.nonpolar>
-28.5291

> <Gold.PLP.part.repulsive>
0.0487

> <Gold.PLP.ligand.clash>
0.0000

> <Gold.PLP.ligand.torsion>
0.5788

> <Gold.PLP.Chemscore.Hbond>
1.4480

> <Gold.PLP.Chemscore.CHOScore>
0.0000

> <Gold.PLP.Chemscore.Metal>
0.0000

> <Gold.Chemscore.Hbonds>
donor molecule, donor type, donor heavy atom, donor atom, acceptor molecule, acceptor atom, score
      P1  H  6896  6909       L1    19  1.00
      P1  H 10752 10765       L1     2  0.39

> <Gold.PLP.Chemscore.Internal.Correction>
0.0202

> <Gold.Rescore>
     Score         DG    S(hbond)    S(metal)    S(lipo)     H(rot)  DE(clash)    DE(int)     intcor
     14.22     -15.12       1.46        0.00      74.55       1.54       0.49       0.41       ----

> <Gold.Chemscore.Fitness>
14.2169

> <Gold.Chemscore.DG>
-15.1212

> <Gold.Chemscore.ZeroCoef>
-5.4800

> <Gold.Chemscore.Hbond>
1.4574

> <Gold.Chemscore.Metal>
0.0000

> <Gold.Chemscore.Lipo>
74.5510

> <Gold.Chemscore.Internal_Hbond>
0.0000

> <Gold.Chemscore.DEClash>
0.4936

> <Gold.Chemscore.DEInternal>
0.4107

> <Gold.Chemscore.Rot>
1.5425

> <Gold.Chemscore.Internal.Correction>
   9.000000E+99

> <Gold.Chemscore.Hbonds>
donor molecule, donor type, donor heavy atom, donor atom, acceptor molecule, acceptor atom, score
      P1  H  6896  6909       L1    19  0.98
      P1  H 10752 10765       L1     2  0.36

> <Gold.Chemscore.Hbond.Weighted>
-4.8676

> <Gold.Chemscore.Metal.Weighted>
-0.0000

> <Gold.Chemscore.Lipo.Weighted>
-8.7225

> <Gold.Chemscore.Internal_Hbond.Weighted>
0.0000

> <Gold.Chemscore.DEClash.Weighted>
0.4936

> <Gold.Chemscore.DEInternal.Weighted>
0.4107

> <Gold.Chemscore.Rot.Weighted>
3.9489

> <Gold.Chemscore.Internal.Correction.Weighted>
   9.000000E+99

> <Gold.Protein.RotatedTorsions>
[ 6907 6896 6895 6894 ] final  167.95 input  -60.11 | X-H torsion
[ 7974 7965 7964 7962 ] final  -39.29 input  175.53 | X-H torsion
[ 8008 7997 7996 7995 ] final -159.35 input   59.86 | X-H torsion
[ 10167 10162 10161 10158 ] final -154.69 input  -65.29 | X-H torsion
[ 10718 10713 10712 10709 ] final  -18.03 input   66.30 | X-H torsion
[ 10763 10752 10751 10750 ] final -137.08 input  -60.55 | X-H torsion
[ 11005 11000 10999 10996 ] final  141.02 input  -57.11 | X-H torsion

> <Gold.Protein.ActiveResidues>
 VAL166  LYS551  ARG553  GLY616  TRP617  ASP618  TYR619  PRO620  LYS621  CYS622 
 ASP623  PHE694  ASN695  SER759  ASP760  ASP761  ALA762  ILE779  LEU786  VAL792 
 PHE793  MET794  SER795  GLU796  ALA797  LYS798  CYS799  TRP800  GLU811  SER814 

> <Gold.Protein.RotatedAtoms>
  151.8553  133.3447  159.3685 H   0  0  0  0  0  0  0  0  0  0  0  0  # atno 6907 bound_to 6896
  150.7194  134.5259  159.5686 H   0  0  0  0  0  0  0  0  0  0  0  0  # atno 6908 bound_to 6896
  152.2761  134.7880  160.0456 H   0  0  0  0  0  0  0  0  0  0  0  0  # atno 6909 bound_to 6896
  146.0410  140.6609  142.9087 H   0  0  0  0  0  0  0  0  0  0  0  0  # atno 7974 bound_to 7965
  155.7612  140.0839  157.2154 H   0  0  0  0  0  0  0  0  0  0  0  0  # atno 8008 bound_to 7997
  154.4003  140.1542  156.2891 H   0  0  0  0  0  0  0  0  0  0  0  0  # atno 8009 bound_to 7997
  155.8838  140.3419  155.5909 H   0  0  0  0  0  0  0  0  0  0  0  0  # atno 8010 bound_to 7997
  139.6992  143.9291  152.2421 H   0  0  0  0  0  0  0  0  0  0  0  0  # atno 10167 bound_to 10162
  156.5652  130.4735  149.6388 H   0  0  0  0  0  0  0  0  0  0  0  0  # atno 10718 bound_to 10713
  154.8670  135.3653  154.5166 H   0  0  0  0  0  0  0  0  0  0  0  0  # atno 10763 bound_to 10752
  153.5798  135.7018  153.5473 H   0  0  0  0  0  0  0  0  0  0  0  0  # atno 10764 bound_to 10752
  153.3467  135.4083  155.1577 H   0  0  0  0  0  0  0  0  0  0  0  0  # atno 10765 bound_to 10752
  140.0371  134.9323  157.0772 H   0  0  0  0  0  0  0  0  0  0  0  0  # atno 11005 bound_to 11000
  144.7074  140.3908  143.7107 LP  0  0  0  0  0  0  0  0  0  0  0  0  # atno 17320 bound_to 7965
  145.6884  139.1634  143.2660 LP  0  0  0  0  0  0  0  0  0  0  0  0  # atno 17321 bound_to 7965
  139.9129  144.6846  150.8543 LP  0  0  0  0  0  0  0  0  0  0  0  0  # atno 17342 bound_to 10162
  140.7705  143.3430  151.2168 LP  0  0  0  0  0  0  0  0  0  0  0  0  # atno 17343 bound_to 10162
  156.2763  130.7045  151.1857 LP  0  0  0  0  0  0  0  0  0  0  0  0  # atno 17370 bound_to 10713
  157.7360  131.0567  150.5439 LP  0  0  0  0  0  0  0  0  0  0  0  0  # atno 17371 bound_to 10713
  140.4130  134.1961  155.7163 LP  0  0  0  0  0  0  0  0  0  0  0  0  # atno 17394 bound_to 11000
  141.1863  133.8305  157.1074 LP  0  0  0  0  0  0  0  0  0  0  0  0  # atno 17395 bound_to 11000

$$$$
