AV-unprocessed.smi:1381|AV-procd|sdf|5605|dock6
  -GOLD-   22720 5213D 1   1.00000     0.00000
 Structure written by MMmdl.
 43 44  0  0  0  0  0  0  0  0  2 V2000
  137.4038  137.4545  154.0483 C   0  0  0  0  0  0  0  0  0  0  0  0
  138.8893  137.3432  154.0043 C   0  0  0  0  0  0  0  0  0  0  0  0
  139.8482  137.9731  153.2618 C   0  0  0  0  0  0  0  0  0  0  0  0
  141.0528  137.3846  153.7300 C   0  0  0  0  0  0  0  0  0  0  0  0
  142.3085  137.7753  153.1987 N   0  0  0  0  0  0  0  0  0  0  0  0
  143.3331  136.9781  152.8514 C   0  0  0  0  0  0  0  0  0  0  0  0
  143.3398  135.7498  152.9399 O   0  0  0  0  0  0  0  0  0  0  0  0
  144.3722  137.6882  152.3886 N   0  0  0  0  0  0  0  0  0  0  0  0
  145.6288  137.1134  151.9227 C   0  0  0  0  0  0  0  0  0  0  0  0
  146.2918  136.2457  153.0098 C   0  0  0  0  0  0  0  0  0  0  0  0
  146.8301  134.9730  152.4684 N   0  3  1  0  0  0  0  0  0  0  0  0
  147.1020  133.9775  153.5323 C   0  0  0  0  0  0  0  0  0  0  0  0
  147.7134  132.6971  152.9329 C   0  0  1  0  0  0  0  0  0  0  0  0
  147.9399  131.6134  153.9928 C   0  0  0  0  0  0  0  0  0  0  0  0
  146.8276  132.1775  151.9475 O   0  0  0  0  0  0  0  0  0  0  0  0
  146.6181  133.0817  150.8684 C   0  0  1  0  0  0  0  0  0  0  0  0
  145.7281  132.3891  149.8307 C   0  0  0  0  0  0  0  0  0  0  0  0
  145.9794  134.3748  151.4099 C   0  0  0  0  0  0  0  0  0  0  0  0
  140.8484  136.4790  154.6742 N   0  0  0  0  0  0  0  0  0  0  0  0
  139.4605  136.4472  154.8542 O   0  0  0  0  0  0  0  0  0  0  0  0
  137.0581  138.2922  153.4425 H   0  0  0  0  0  0  0  0  0  0  0  0
  137.0576  137.6106  155.0700 H   0  0  0  0  0  0  0  0  0  0  0  0
  136.9374  136.5462  153.6668 H   0  0  0  0  0  0  0  0  0  0  0  0
  139.7066  138.7311  152.5058 H   0  0  0  0  0  0  0  0  0  0  0  0
  142.4381  138.7676  153.0681 H   0  0  0  0  0  0  0  0  0  0  0  0
  144.2845  138.6933  152.3469 H   0  0  0  0  0  0  0  0  0  0  0  0
  145.4419  136.5426  151.0127 H   0  0  0  0  0  0  0  0  0  0  0  0
  146.2934  137.9317  151.6446 H   0  0  0  0  0  0  0  0  0  0  0  0
  147.1078  136.8216  153.4493 H   0  0  0  0  0  0  0  0  0  0  0  0
  145.5965  136.0299  153.8223 H   0  0  0  0  0  0  0  0  0  0  0  0
  147.7883  134.4016  154.2665 H   0  0  0  0  0  0  0  0  0  0  0  0
  146.1741  133.7441  154.0576 H   0  0  0  0  0  0  0  0  0  0  0  0
  148.6720  132.9306  152.4661 H   0  0  0  0  0  0  0  0  0  0  0  0
  148.6218  131.9599  154.7699 H   0  0  0  0  0  0  0  0  0  0  0  0
  148.3728  130.7173  153.5476 H   0  0  0  0  0  0  0  0  0  0  0  0
  147.0034  131.3272  154.4728 H   0  0  0  0  0  0  0  0  0  0  0  0
  147.5777  133.3130  150.4025 H   0  0  0  0  0  0  0  0  0  0  0  0
  145.5467  133.0378  148.9734 H   0  0  0  0  0  0  0  0  0  0  0  0
  144.7612  132.1188  150.2564 H   0  0  0  0  0  0  0  0  0  0  0  0
  146.1966  131.4759  149.4628 H   0  0  0  0  0  0  0  0  0  0  0  0
  144.9888  134.1629  151.8159 H   0  0  0  0  0  0  0  0  0  0  0  0
  145.8429  135.0784  150.5896 H   0  0  0  0  0  0  0  0  0  0  0  0
  147.7222  135.1897  152.0474 H   0  0  0  0  0  0  0  0  0  0  0  0
  1  2  1  0  0  0  0
  1 21  1  0  0  0  0
  1 22  1  0  0  0  0
  1 23  1  0  0  0  0
  2 20  1  0  0  0  0
  2  3  2  0  0  0  0
  3  4  1  0  0  0  0
  3 24  1  0  0  0  0
  4  5  1  0  0  0  0
  4 19  2  0  0  0  0
  5  6  1  0  0  0  0
  5 25  1  0  0  0  0
  6  7  2  0  0  0  0
  6  8  1  0  0  0  0
  8  9  1  0  0  0  0
  8 26  1  0  0  0  0
  9 10  1  0  0  0  0
  9 27  1  0  0  0  0
  9 28  1  0  0  0  0
 10 11  1  0  0  0  0
 10 29  1  0  0  0  0
 10 30  1  0  0  0  0
 11 18  1  0  0  0  0
 11 12  1  0  0  0  0
 11 43  1  0  0  0  0
 12 13  1  0  0  0  0
 12 31  1  0  0  0  0
 12 32  1  0  0  0  0
 13 14  1  0  0  0  0
 13 15  1  0  0  0  0
 13 33  1  0  0  0  0
 14 34  1  0  0  0  0
 14 35  1  0  0  0  0
 14 36  1  0  0  0  0
 15 16  1  0  0  0  0
 16 17  1  0  0  0  0
 16 18  1  0  0  0  0
 16 37  1  0  0  0  0
 17 38  1  0  0  0  0
 17 39  1  0  0  0  0
 17 40  1  0  0  0  0
 18 41  1  0  0  0  0
 18 42  1  0  0  0  0
 19 20  1  0  0  0  0
M  CHG  1  11   1
M  END
> <s_m_source_file>
AV-unprocessed.smi

> <i_m_source_file_index>
1381

> <i_lp_mmshare_version>
43012

> <i_f3d_flags>
0

> <s_epik_input>
W0NIM11jMVtjSF1jKG5vMSlbTkhdQyg9TylbTkhdW0NIMl1bQ0gyXU4yW0NIMl1bQ0BASF0oW0NIM10pT1tDQEBIXShbQ0gzXSlbQ0gyXTI=

> <s_epik_cmdline>
J2VwaWtfcHl0aG9uJywgJy1waCcsICc3LjAnLCAnLXRuJywgJzgnLCAnLW1hJywgJzIwMCcsICctbWV0YWxfYmluZGluZycsICctaW1hZScsICc8aW5maWxlLm1hZT4nLCAnLW9tYWUnLCAnPG91dGZpbGUubWFlPic=

> <r_epik_Ionization_Penalty>
0.707076

> <r_epik_Ionization_Penalty_Charging>
0.707039

> <r_epik_Ionization_Penalty_Neutral>
3.6548e-05

> <r_epik_State_Penalty>
0.730276

> <r_epik_Charging_Adjusted_Penalty>
1.43732

> <i_epik_Tot_Q>
1

> <i_epik_Tot_abs_Q>
1

> <r_epik_Metal_State_Penalty>
0.743132

> <b_epik_Metal_Only>
0

> <s_lp_Force_Field>
OPLS_2005

> <r_lp_Energy>
11.2606

> <b_lp_Chiralities_Consistent>
1

> <s_lp_Variant>
AV-unprocessed.smi:1381-4

> <Gold.Version>
5.8.1

> <Gold.Id.Protein>
6NUR|6NUR_protein|mol2

> <Gold.PLP.Fitness>
44.5286

> <Gold.PLP.PLP>
-33.7592

> <Gold.PLP.part.hbond>
-5.5262

> <Gold.PLP.part.metal>
0.0000

> <Gold.PLP.part.buried>
-3.1239

> <Gold.PLP.part.nonpolar>
-25.9716

> <Gold.PLP.part.repulsive>
0.5674

> <Gold.PLP.ligand.clash>
0.0000

> <Gold.PLP.ligand.torsion>
0.8508

> <Gold.PLP.Chemscore.Hbond>
4.1518

> <Gold.PLP.Chemscore.CHOScore>
0.0000

> <Gold.PLP.Chemscore.Metal>
0.0000

> <Gold.Chemscore.Hbonds>
donor molecule, donor type, donor heavy atom, donor atom, acceptor molecule, acceptor atom, score
      L1  H     5    25       P1 10175  0.76
      L1  H     8    26       P1 10175  1.00
      L1  H    11    43       P1  7948  2.00
      P1  H 11000 11005       L1    20  0.16

> <Gold.PLP.Chemscore.Internal.Correction>
0.0158

> <Gold.Rescore>
     Score         DG    S(hbond)    S(metal)    S(lipo)     H(rot)  DE(clash)    DE(int)     intcor
     16.81     -18.94       2.89        0.00      67.74       1.61       0.38       1.75       ----

> <Gold.Chemscore.Fitness>
16.8095

> <Gold.Chemscore.DG>
-18.9438

> <Gold.Chemscore.ZeroCoef>
-5.4800

> <Gold.Chemscore.Hbond>
2.8908

> <Gold.Chemscore.Metal>
0.0000

> <Gold.Chemscore.Lipo>
67.7361

> <Gold.Chemscore.Internal_Hbond>
0.0000

> <Gold.Chemscore.DEClash>
0.3812

> <Gold.Chemscore.DEInternal>
1.7531

> <Gold.Chemscore.Rot>
1.6081

> <Gold.Chemscore.Internal.Correction>
   9.000000E+99

> <Gold.Chemscore.Hbonds>
donor molecule, donor type, donor heavy atom, donor atom, acceptor molecule, acceptor atom, score
      L1  H     5    25       P1 10175  0.74
      L1  H     8    26       P1 10175  1.00
      L1  H    11    43       P1  7948  0.86

> <Gold.Chemscore.Hbond.Weighted>
-9.6554

> <Gold.Chemscore.Metal.Weighted>
-0.0000

> <Gold.Chemscore.Lipo.Weighted>
-7.9251

> <Gold.Chemscore.Internal_Hbond.Weighted>
0.0000

> <Gold.Chemscore.DEClash.Weighted>
0.3812

> <Gold.Chemscore.DEInternal.Weighted>
1.7531

> <Gold.Chemscore.Rot.Weighted>
4.1167

> <Gold.Chemscore.Internal.Correction.Weighted>
   9.000000E+99

> <Gold.Protein.RotatedTorsions>
[ 6907 6896 6895 6894 ] final  114.16 input  -60.11 | X-H torsion
[ 7974 7965 7964 7962 ] final -169.75 input  175.53 | X-H torsion
[ 8008 7997 7996 7995 ] final  172.83 input   59.86 | X-H torsion
[ 10167 10162 10161 10158 ] final  123.97 input  -65.29 | X-H torsion
[ 10718 10713 10712 10709 ] final  -73.25 input   66.30 | X-H torsion
[ 10763 10752 10751 10750 ] final -167.97 input  -60.55 | X-H torsion
[ 11005 11000 10999 10996 ] final   96.58 input  -57.11 | X-H torsion

> <Gold.Protein.ActiveResidues>
 VAL166  LYS551  ARG553  GLY616  TRP617  ASP618  TYR619  PRO620  LYS621  CYS622 
 ASP623  PHE694  ASN695  SER759  ASP760  ASP761  ALA762  ILE779  LEU786  VAL792 
 PHE793  MET794  SER795  GLU796  ALA797  LYS798  CYS799  TRP800  GLU811  SER814 

> <Gold.Protein.RotatedAtoms>
  152.4819  133.8274  159.7085 H   0  0  0  0  0  0  0  0  0  0  0  0  # atno 6907 bound_to 6896
  150.8874  133.7279  159.2921 H   0  0  0  0  0  0  0  0  0  0  0  0  # atno 6908 bound_to 6896
  151.4763  135.1053  159.9817 H   0  0  0  0  0  0  0  0  0  0  0  0  # atno 6909 bound_to 6896
  144.7180  140.2174  143.6320 H   0  0  0  0  0  0  0  0  0  0  0  0  # atno 7974 bound_to 7965
  156.1135  140.1475  156.9305 H   0  0  0  0  0  0  0  0  0  0  0  0  # atno 8008 bound_to 7997
  154.4784  140.0887  156.7361 H   0  0  0  0  0  0  0  0  0  0  0  0  # atno 8009 bound_to 7997
  155.4554  140.3436  155.4308 H   0  0  0  0  0  0  0  0  0  0  0  0  # atno 8010 bound_to 7997
  139.5768  144.6967  151.3631 H   0  0  0  0  0  0  0  0  0  0  0  0  # atno 10167 bound_to 10162
  156.0288  130.4390  150.2713 H   0  0  0  0  0  0  0  0  0  0  0  0  # atno 10718 bound_to 10713
  154.6677  135.2934  154.9783 H   0  0  0  0  0  0  0  0  0  0  0  0  # atno 10763 bound_to 10752
  154.0821  135.6603  153.4843 H   0  0  0  0  0  0  0  0  0  0  0  0  # atno 10764 bound_to 10752
  153.0467  135.5200  154.7658 H   0  0  0  0  0  0  0  0  0  0  0  0  # atno 10765 bound_to 10752
  139.8781  134.8958  156.4179 H   0  0  0  0  0  0  0  0  0  0  0  0  # atno 11005 bound_to 11000
  145.8533  139.2186  143.1759 LP  0  0  0  0  0  0  0  0  0  0  0  0  # atno 17320 bound_to 7965
  146.0241  140.8321  142.9909 LP  0  0  0  0  0  0  0  0  0  0  0  0  # atno 17321 bound_to 7965
  140.7050  143.7536  150.7467 LP  0  0  0  0  0  0  0  0  0  0  0  0  # atno 17342 bound_to 10162
  140.1058  143.4745  152.2399 LP  0  0  0  0  0  0  0  0  0  0  0  0  # atno 17343 bound_to 10162
  157.0816  131.0145  151.3154 LP  0  0  0  0  0  0  0  0  0  0  0  0  # atno 17370 bound_to 10713
  157.4922  130.7829  149.7520 LP  0  0  0  0  0  0  0  0  0  0  0  0  # atno 17371 bound_to 10713
  140.9154  133.7682  155.9842 LP  0  0  0  0  0  0  0  0  0  0  0  0  # atno 17394 bound_to 11000
  140.8499  134.2966  157.5279 LP  0  0  0  0  0  0  0  0  0  0  0  0  # atno 17395 bound_to 11000

$$$$
