AV-unprocessed.smi:3018|AV-procd|sdf|11483|dock7
  -GOLD-   2272016423D 1   1.00000     0.00000
 Structure written by MMmdl.
 44 45  0  0  0  0  0  0  0  0  2 V2000
  152.0857  138.6022  155.2215 C   0  0  0  0  0  0  0  0  0  0  0  0
  151.5243  139.7969  156.0026 C   0  0  0  0  0  0  0  0  0  0  0  0
  151.3863  139.5114  157.5092 C   0  0  2  0  0  0  0  0  0  0  0  0
  150.8965  140.6968  158.1347 O   0  0  0  0  0  0  0  0  0  0  0  0
  151.7721  141.8217  158.1548 C   0  0  0  0  0  0  0  0  0  0  0  0
  152.3049  142.0677  159.5813 C   0  0  0  0  0  0  0  0  0  0  0  0
  153.1382  143.3581  159.6509 C   0  0  0  0  0  0  0  0  0  0  0  0
  152.3380  144.5690  159.1447 C   0  0  0  0  0  0  0  0  0  0  0  0
  151.7993  144.3261  157.7260 C   0  0  0  0  0  0  0  0  0  0  0  0
  150.9660  143.0362  157.6629 C   0  0  0  0  0  0  0  0  0  0  0  0
  152.7415  139.1216  158.1187 C   0  0  0  0  0  0  0  0  0  0  0  0
  153.7339  139.0107  157.3985 O   0  0  0  0  0  0  0  0  0  0  0  0
  152.7618  138.9240  159.4463 N   0  0  0  0  0  0  0  0  0  0  0  0
  153.9235  138.5018  160.2257 C   0  0  0  0  0  0  0  0  0  0  0  0
  153.6207  137.2698  161.1033 C   0  0  0  0  0  0  0  0  0  0  0  0
  154.7480  136.2696  161.1130 C   0  0  0  0  0  0  0  0  0  0  0  0
  155.9107  136.4465  161.6207 N   0  0  0  0  0  0  0  0  0  0  0  0
  156.5206  135.2717  161.3938 N   0  0  0  0  0  0  0  0  0  0  0  0
  155.7228  134.4136  160.7539 C   0  0  0  0  0  0  0  0  0  0  0  0
  156.0629  133.2753  160.4388 O   0  0  0  0  0  0  0  0  0  0  0  0
  154.5533  135.0463  160.5527 N   0  5  0  0  0  0  0  0  0  0  0  0
  157.4708  135.1238  161.7002 H   0  0  0  0  0  0  0  0  0  0  0  0
  152.1851  138.8435  154.1630 H   0  0  0  0  0  0  0  0  0  0  0  0
  151.4321  137.7335  155.3045 H   0  0  0  0  0  0  0  0  0  0  0  0
  153.0707  138.3173  155.5919 H   0  0  0  0  0  0  0  0  0  0  0  0
  152.1834  140.6532  155.8497 H   0  0  0  0  0  0  0  0  0  0  0  0
  150.5565  140.0780  155.5847 H   0  0  0  0  0  0  0  0  0  0  0  0
  150.6790  138.6915  157.6417 H   0  0  0  0  0  0  0  0  0  0  0  0
  152.6120  141.6787  157.4740 H   0  0  0  0  0  0  0  0  0  0  0  0
  151.4684  142.1361  160.2779 H   0  0  0  0  0  0  0  0  0  0  0  0
  152.9152  141.2286  159.9140 H   0  0  0  0  0  0  0  0  0  0  0  0
  153.4677  143.5334  160.6754 H   0  0  0  0  0  0  0  0  0  0  0  0
  154.0419  143.2412  159.0513 H   0  0  0  0  0  0  0  0  0  0  0  0
  151.5059  144.7652  159.8224 H   0  0  0  0  0  0  0  0  0  0  0  0
  152.9643  145.4614  159.1576 H   0  0  0  0  0  0  0  0  0  0  0  0
  151.1945  145.1756  157.4075 H   0  0  0  0  0  0  0  0  0  0  0  0
  152.6315  144.2585  157.0241 H   0  0  0  0  0  0  0  0  0  0  0  0
  150.6260  142.8647  156.6411 H   0  0  0  0  0  0  0  0  0  0  0  0
  150.0682  143.1530  158.2715 H   0  0  0  0  0  0  0  0  0  0  0  0
  151.8968  139.0439  159.9525 H   0  0  0  0  0  0  0  0  0  0  0  0
  154.7920  138.3209  159.5894 H   0  0  0  0  0  0  0  0  0  0  0  0
  154.1965  139.3368  160.8709 H   0  0  0  0  0  0  0  0  0  0  0  0
  153.4226  137.5997  162.1241 H   0  0  0  0  0  0  0  0  0  0  0  0
  152.7020  136.7894  160.7644 H   0  0  0  0  0  0  0  0  0  0  0  0
  1  2  1  0  0  0  0
  1 23  1  0  0  0  0
  1 24  1  0  0  0  0
  1 25  1  0  0  0  0
  2  3  1  0  0  0  0
  2 26  1  0  0  0  0
  2 27  1  0  0  0  0
  3  4  1  0  0  0  0
  3 11  1  0  0  0  0
  3 28  1  0  0  0  0
  4  5  1  0  0  0  0
  5 10  1  0  0  0  0
  5  6  1  0  0  0  0
  5 29  1  0  0  0  0
  6  7  1  0  0  0  0
  6 30  1  0  0  0  0
  6 31  1  0  0  0  0
  7  8  1  0  0  0  0
  7 32  1  0  0  0  0
  7 33  1  0  0  0  0
  8  9  1  0  0  0  0
  8 34  1  0  0  0  0
  8 35  1  0  0  0  0
  9 10  1  0  0  0  0
  9 36  1  0  0  0  0
  9 37  1  0  0  0  0
 10 38  1  0  0  0  0
 10 39  1  0  0  0  0
 11 12  2  0  0  0  0
 11 13  1  0  0  0  0
 13 14  1  0  0  0  0
 13 40  1  0  0  0  0
 14 15  1  0  0  0  0
 14 41  1  0  0  0  0
 14 42  1  0  0  0  0
 15 16  1  0  0  0  0
 15 43  1  0  0  0  0
 15 44  1  0  0  0  0
 16 21  1  0  0  0  0
 16 17  2  0  0  0  0
 17 18  1  0  0  0  0
 18 22  1  0  0  0  0
 18 19  1  0  0  0  0
 19 20  2  0  0  0  0
 19 21  1  0  0  0  0
M  CHG  1  21  -1
M  END
> <s_m_source_file>
AV-unprocessed.smi

> <i_m_source_file_index>
3018

> <i_lp_mmshare_version>
43012

> <i_f3d_flags>
0

> <s_epik_input>
W0NIMl0xW0NIMl1bQ0gyXVtDSDJdW0NIMl1bQ0hdMU9bQ0BASF0oW0NIMl1bQ0gzXSlDKD1PKVtOSF1bQ0gyXVtDSDJdYzJuW25IXWMoPU8pW25IXTI=

> <s_epik_cmdline>
J2VwaWtfcHl0aG9uJywgJy1waCcsICc3LjAnLCAnLXRuJywgJzgnLCAnLW1hJywgJzIwMCcsICctbWV0YWxfYmluZGluZycsICctaW1hZScsICc8aW5maWxlLm1hZT4nLCAnLW9tYWUnLCAnPG91dGZpbGUubWFlPic=

> <r_lp_tautomer_probability>
1

> <r_epik_Ionization_Penalty>
13.7173

> <r_epik_Ionization_Penalty_Charging>
13.7173

> <r_epik_Ionization_Penalty_Neutral>
5.37575e-06

> <r_epik_State_Penalty>
4.05785

> <r_epik_Charging_Adjusted_Penalty>
17.7751

> <i_epik_Tot_Q>
-1

> <i_epik_Tot_abs_Q>
1

> <r_epik_Metal_State_Penalty>
0.460256

> <b_epik_Metal_Only>
1

> <s_lp_Force_Field>
OPLS_2005

> <r_lp_Energy>
25.0633

> <b_lp_Chiralities_Consistent>
1

> <s_lp_Variant>
AV-unprocessed.smi:3018-5

> <Gold.Version>
5.8.1

> <Gold.Id.Protein>
6NUR|6NUR_protein|mol2

> <Gold.PLP.Fitness>
43.9002

> <Gold.PLP.PLP>
-37.1319

> <Gold.PLP.part.hbond>
-1.7039

> <Gold.PLP.part.metal>
0.0000

> <Gold.PLP.part.buried>
-4.7684

> <Gold.PLP.part.nonpolar>
-32.4366

> <Gold.PLP.part.repulsive>
0.0889

> <Gold.PLP.ligand.clash>
0.0000

> <Gold.PLP.ligand.torsion>
1.0932

> <Gold.PLP.Chemscore.Hbond>
2.9672

> <Gold.PLP.Chemscore.CHOScore>
0.0000

> <Gold.PLP.Chemscore.Metal>
0.0000

> <Gold.Chemscore.Hbonds>
donor molecule, donor type, donor heavy atom, donor atom, acceptor molecule, acceptor atom, score
      P1  H  6896  6909       L1    21  1.27
      P1  H  7997  8009       L1    12  0.67

> <Gold.PLP.Chemscore.Internal.Correction>
0.0533

> <Gold.Rescore>
     Score         DG    S(hbond)    S(metal)    S(lipo)     H(rot)  DE(clash)    DE(int)     intcor
     13.94     -16.14       1.97        0.00      99.97       2.98       0.00       2.20       ----

> <Gold.Chemscore.Fitness>
13.9410

> <Gold.Chemscore.DG>
-16.1415

> <Gold.Chemscore.ZeroCoef>
-5.4800

> <Gold.Chemscore.Hbond>
1.9721

> <Gold.Chemscore.Metal>
0.0000

> <Gold.Chemscore.Lipo>
99.9696

> <Gold.Chemscore.Internal_Hbond>
0.0000

> <Gold.Chemscore.DEClash>
0.0038

> <Gold.Chemscore.DEInternal>
2.1968

> <Gold.Chemscore.Rot>
2.9772

> <Gold.Chemscore.Internal.Correction>
   9.000000E+99

> <Gold.Chemscore.Hbonds>
donor molecule, donor type, donor heavy atom, donor atom, acceptor molecule, acceptor atom, score
      P1  H  6896  6909       L1    21  0.58
      P1  H  7997  8009       L1    12  0.64

> <Gold.Chemscore.Hbond.Weighted>
-6.5867

> <Gold.Chemscore.Metal.Weighted>
-0.0000

> <Gold.Chemscore.Lipo.Weighted>
-11.6964

> <Gold.Chemscore.Internal_Hbond.Weighted>
0.0000

> <Gold.Chemscore.DEClash.Weighted>
0.0038

> <Gold.Chemscore.DEInternal.Weighted>
2.1968

> <Gold.Chemscore.Rot.Weighted>
7.6216

> <Gold.Chemscore.Internal.Correction.Weighted>
   9.000000E+99

> <Gold.Protein.RotatedTorsions>
[ 6907 6896 6895 6894 ] final -176.43 input  -60.11 | X-H torsion
[ 7974 7965 7964 7962 ] final  133.78 input  175.53 | X-H torsion
[ 8008 7997 7996 7995 ] final  173.06 input   59.86 | X-H torsion
[ 10167 10162 10161 10158 ] final   82.71 input  -65.29 | X-H torsion
[ 10718 10713 10712 10709 ] final  -13.46 input   66.30 | X-H torsion
[ 10763 10752 10751 10750 ] final -166.16 input  -60.55 | X-H torsion
[ 11005 11000 10999 10996 ] final  128.92 input  -57.11 | X-H torsion

> <Gold.Protein.ActiveResidues>
 VAL166  LYS551  ARG553  GLY616  TRP617  ASP618  TYR619  PRO620  LYS621  CYS622 
 ASP623  PHE694  ASN695  SER759  ASP760  ASP761  ALA762  ILE779  LEU786  VAL792 
 PHE793  MET794  SER795  GLU796  ALA797  LYS798  CYS799  TRP800  GLU811  SER814 

> <Gold.Protein.RotatedAtoms>
  151.6046  133.3353  159.3054 H   0  0  0  0  0  0  0  0  0  0  0  0  # atno 6907 bound_to 6896
  150.8189  134.7389  159.6766 H   0  0  0  0  0  0  0  0  0  0  0  0  # atno 6908 bound_to 6896
  152.4283  134.5831  160.0005 H   0  0  0  0  0  0  0  0  0  0  0  0  # atno 6909 bound_to 6896
  144.9830  139.4484  143.5377 H   0  0  0  0  0  0  0  0  0  0  0  0  # atno 7974 bound_to 7965
  156.1112  140.1470  156.9335 H   0  0  0  0  0  0  0  0  0  0  0  0  # atno 8008 bound_to 7997
  154.4768  140.0892  156.7326 H   0  0  0  0  0  0  0  0  0  0  0  0  # atno 8009 bound_to 7997
  155.4592  140.3437  155.4313 H   0  0  0  0  0  0  0  0  0  0  0  0  # atno 8010 bound_to 7997
  139.9259  144.6183  150.8393 H   0  0  0  0  0  0  0  0  0  0  0  0  # atno 10167 bound_to 10162
  156.6299  130.4898  149.6133 H   0  0  0  0  0  0  0  0  0  0  0  0  # atno 10718 bound_to 10713
  154.6861  135.2962  154.9546 H   0  0  0  0  0  0  0  0  0  0  0  0  # atno 10763 bound_to 10752
  154.0525  135.6642  153.4806 H   0  0  0  0  0  0  0  0  0  0  0  0  # atno 10764 bound_to 10752
  153.0580  135.5133  154.7928 H   0  0  0  0  0  0  0  0  0  0  0  0  # atno 10765 bound_to 10752
  139.9587  134.9607  156.9072 H   0  0  0  0  0  0  0  0  0  0  0  0  # atno 11005 bound_to 11000
  146.3413  139.9115  142.8779 LP  0  0  0  0  0  0  0  0  0  0  0  0  # atno 17320 bound_to 7965
  145.2393  141.0003  143.3945 LP  0  0  0  0  0  0  0  0  0  0  0  0  # atno 17321 bound_to 7965
  140.7650  143.3264  151.2507 LP  0  0  0  0  0  0  0  0  0  0  0  0  # atno 17342 bound_to 10162
  139.6822  143.9835  152.2815 LP  0  0  0  0  0  0  0  0  0  0  0  0  # atno 17343 bound_to 10162
  156.2243  130.6756  151.1400 LP  0  0  0  0  0  0  0  0  0  0  0  0  # atno 17370 bound_to 10713
  157.7203  131.0685  150.6163 LP  0  0  0  0  0  0  0  0  0  0  0  0  # atno 17371 bound_to 10713
  140.5550  134.0590  155.7381 LP  0  0  0  0  0  0  0  0  0  0  0  0  # atno 17394 bound_to 11000
  141.1261  133.9380  157.2631 LP  0  0  0  0  0  0  0  0  0  0  0  0  # atno 17395 bound_to 11000

$$$$
