AV-unprocessed.smi:1251|AV-procd|sdf|5259|dock2
  -GOLD-   22720 4373D 1   1.00000     0.00000
 Structure written by MMmdl.
 39 40  0  0  0  0  0  0  0  0  1 V2000
  151.2918  142.6987  158.5790 C   0  0  0  0  0  0  0  0  0  0  0  0
  150.6164  141.6376  157.7037 C   0  0  0  0  0  0  0  0  0  0  0  0
  150.9027  141.8383  156.2090 C   0  0  0  0  0  0  0  0  0  0  0  0
  150.3995  140.7096  155.3722 C   0  0  0  0  0  0  0  0  0  0  0  0
  151.2167  139.8793  154.7119 N   0  0  0  0  0  0  0  0  0  0  0  0
  150.5247  138.8924  154.0233 N   0  0  0  0  0  0  0  0  0  0  0  0
  149.2042  138.9960  154.1962 C   0  0  0  0  0  0  0  0  0  0  0  0
  148.3712  138.0488  153.5500 N   0  0  0  0  0  0  0  0  0  0  0  0
  147.1200  137.6891  153.8780 C   0  0  0  0  0  0  0  0  0  0  0  0
  146.4764  138.1375  154.8265 O   0  0  0  0  0  0  0  0  0  0  0  0
  146.6493  136.7595  153.0335 N   0  0  0  0  0  0  0  0  0  0  0  0
  145.3254  136.1413  153.0882 C   0  0  1  0  0  0  0  0  0  0  0  0
  144.2630  137.2503  153.0912 C   0  0  0  0  0  0  0  0  0  0  0  0
  145.1350  135.1682  151.9063 C   0  0  1  0  0  0  0  0  0  0  0  0
  146.1332  134.0099  151.8518 C   0  0  0  0  0  0  0  0  0  0  0  0
  145.3812  133.0002  151.0164 C   0  0  0  0  0  0  0  0  0  0  0  0
  143.9498  133.1861  151.5122 C   0  0  0  0  0  0  0  0  0  0  0  0
  143.8626  134.5295  151.9820 O   0  0  0  0  0  0  0  0  0  0  0  0
  148.6881  140.3267  155.2322 S   0  0  0  0  0  0  0  0  0  0  0  0
  151.0701  142.5308  159.6332 H   0  0  0  0  0  0  0  0  0  0  0  0
  150.9460  143.7003  158.3218 H   0  0  0  0  0  0  0  0  0  0  0  0
  152.3752  142.6763  158.4591 H   0  0  0  0  0  0  0  0  0  0  0  0
  150.9588  140.6489  158.0116 H   0  0  0  0  0  0  0  0  0  0  0  0
  149.5398  141.6598  157.8767 H   0  0  0  0  0  0  0  0  0  0  0  0
  150.4406  142.7623  155.8597 H   0  0  0  0  0  0  0  0  0  0  0  0
  151.9759  141.9448  156.0442 H   0  0  0  0  0  0  0  0  0  0  0  0
  148.7751  137.5953  152.7440 H   0  0  0  0  0  0  0  0  0  0  0  0
  147.2569  136.4504  152.2888 H   0  0  0  0  0  0  0  0  0  0  0  0
  145.2159  135.5802  154.0181 H   0  0  0  0  0  0  0  0  0  0  0  0
  143.2585  136.8336  153.1695 H   0  0  0  0  0  0  0  0  0  0  0  0
  144.3059  137.8445  152.1777 H   0  0  0  0  0  0  0  0  0  0  0  0
  144.4020  137.9258  153.9360 H   0  0  0  0  0  0  0  0  0  0  0  0
  145.1755  135.7133  150.9614 H   0  0  0  0  0  0  0  0  0  0  0  0
  147.0931  134.2920  151.4182 H   0  0  0  0  0  0  0  0  0  0  0  0
  146.3123  133.6082  152.8503 H   0  0  0  0  0  0  0  0  0  0  0  0
  145.4515  133.2639  149.9601 H   0  0  0  0  0  0  0  0  0  0  0  0
  145.7474  131.9807  151.1398 H   0  0  0  0  0  0  0  0  0  0  0  0
  143.2151  132.9910  150.7307 H   0  0  0  0  0  0  0  0  0  0  0  0
  143.7431  132.5150  152.3466 H   0  0  0  0  0  0  0  0  0  0  0  0
  1  2  1  0  0  0  0
  1 20  1  0  0  0  0
  1 21  1  0  0  0  0
  1 22  1  0  0  0  0
  2  3  1  0  0  0  0
  2 23  1  0  0  0  0
  2 24  1  0  0  0  0
  3  4  1  0  0  0  0
  3 25  1  0  0  0  0
  3 26  1  0  0  0  0
  4 19  1  0  0  0  0
  4  5  2  0  0  0  0
  5  6  1  0  0  0  0
  6  7  2  0  0  0  0
  7  8  1  0  0  0  0
  7 19  1  0  0  0  0
  8  9  1  0  0  0  0
  8 27  1  0  0  0  0
  9 10  2  0  0  0  0
  9 11  1  0  0  0  0
 11 12  1  0  0  0  0
 11 28  1  0  0  0  0
 12 13  1  0  0  0  0
 12 14  1  0  0  0  0
 12 29  1  0  0  0  0
 13 30  1  0  0  0  0
 13 31  1  0  0  0  0
 13 32  1  0  0  0  0
 14 18  1  0  0  0  0
 14 15  1  0  0  0  0
 14 33  1  0  0  0  0
 15 16  1  0  0  0  0
 15 34  1  0  0  0  0
 15 35  1  0  0  0  0
 16 17  1  0  0  0  0
 16 36  1  0  0  0  0
 16 37  1  0  0  0  0
 17 18  1  0  0  0  0
 17 38  1  0  0  0  0
 17 39  1  0  0  0  0
M  END
> <s_m_source_file>
AV-unprocessed.smi

> <i_m_source_file_index>
1251

> <i_lp_mmshare_version>
43012

> <i_f3d_flags>
0

> <s_epik_input>
W0NIM11bQ0gyXVtDSDJdYzFubmMoczEpW05IXUMoPU8pW05IXVtDQEhdKFtDSDNdKVtDQEBIXTJbQ0gyXVtDSDJdW0NIMl1PMg==

> <s_epik_cmdline>
J2VwaWtfcHl0aG9uJywgJy1waCcsICc3LjAnLCAnLXRuJywgJzgnLCAnLW1hJywgJzIwMCcsICctbWV0YWxfYmluZGluZycsICctaW1hZScsICc8aW5maWxlLm1hZT4nLCAnLW9tYWUnLCAnPG91dGZpbGUubWFlPic=

> <r_lp_tautomer_probability>
1

> <r_epik_Ionization_Penalty>
0.000503621

> <r_epik_Ionization_Penalty_Charging>
0

> <r_epik_Ionization_Penalty_Neutral>
0.000503621

> <r_epik_State_Penalty>
-0

> <r_epik_Charging_Adjusted_Penalty>
0

> <i_epik_Tot_Q>
0

> <i_epik_Tot_abs_Q>
0

> <r_epik_Metal_State_Penalty>
0.219912

> <b_epik_Metal_Only>
0

> <s_lp_Force_Field>
OPLS_2005

> <r_lp_Energy>
11.0911

> <b_lp_Chiralities_Consistent>
1

> <s_lp_Variant>
AV-unprocessed.smi:1251-4

> <Gold.Version>
5.8.1

> <Gold.Id.Protein>
6NUR|6NUR_protein|mol2

> <Gold.PLP.Fitness>
36.1679

> <Gold.PLP.PLP>
-27.7513

> <Gold.PLP.part.hbond>
-3.1077

> <Gold.PLP.part.metal>
0.0000

> <Gold.PLP.part.buried>
-4.3082

> <Gold.PLP.part.nonpolar>
-20.7963

> <Gold.PLP.part.repulsive>
0.5533

> <Gold.PLP.ligand.clash>
0.0000

> <Gold.PLP.ligand.torsion>
0.1773

> <Gold.PLP.Chemscore.Hbond>
2.9120

> <Gold.PLP.Chemscore.CHOScore>
0.0000

> <Gold.PLP.Chemscore.Metal>
0.0000

> <Gold.Chemscore.Hbonds>
donor molecule, donor type, donor heavy atom, donor atom, acceptor molecule, acceptor atom, score
      L1  H     8    27       P1  7948  0.99
      L1  H    11    28       P1  7948  0.88
      P1  H  7989  7998       L1     5  0.95

> <Gold.PLP.Chemscore.Internal.Correction>
0.0351

> <Gold.Rescore>
     Score         DG    S(hbond)    S(metal)    S(lipo)     H(rot)  DE(clash)    DE(int)     intcor
     14.25     -15.35       2.03        0.00      61.03       1.58       0.02       1.08       ----

> <Gold.Chemscore.Fitness>
14.2505

> <Gold.Chemscore.DG>
-15.3519

> <Gold.Chemscore.ZeroCoef>
-5.4800

> <Gold.Chemscore.Hbond>
2.0320

> <Gold.Chemscore.Metal>
0.0000

> <Gold.Chemscore.Lipo>
61.0309

> <Gold.Chemscore.Internal_Hbond>
0.0000

> <Gold.Chemscore.DEClash>
0.0197

> <Gold.Chemscore.DEInternal>
1.0817

> <Gold.Chemscore.Rot>
1.5843

> <Gold.Chemscore.Internal.Correction>
   9.000000E+99

> <Gold.Chemscore.Hbonds>
donor molecule, donor type, donor heavy atom, donor atom, acceptor molecule, acceptor atom, score
      L1  H     8    27       P1  7948  0.93
      L1  H    11    28       P1  7948  0.87
      P1  H  7989  7998       L1     5  0.06

> <Gold.Chemscore.Hbond.Weighted>
-6.7870

> <Gold.Chemscore.Metal.Weighted>
-0.0000

> <Gold.Chemscore.Lipo.Weighted>
-7.1406

> <Gold.Chemscore.Internal_Hbond.Weighted>
0.0000

> <Gold.Chemscore.DEClash.Weighted>
0.0197

> <Gold.Chemscore.DEInternal.Weighted>
1.0817

> <Gold.Chemscore.Rot.Weighted>
4.0558

> <Gold.Chemscore.Internal.Correction.Weighted>
   9.000000E+99

> <Gold.Protein.RotatedTorsions>
[ 6907 6896 6895 6894 ] final  -29.80 input  -60.11 | X-H torsion
[ 7974 7965 7964 7962 ] final  -18.71 input  175.53 | X-H torsion
[ 8008 7997 7996 7995 ] final  178.50 input   59.86 | X-H torsion
[ 10167 10162 10161 10158 ] final   52.46 input  -65.29 | X-H torsion
[ 10718 10713 10712 10709 ] final -112.28 input   66.30 | X-H torsion
[ 10763 10752 10751 10750 ] final   -7.62 input  -60.55 | X-H torsion
[ 11005 11000 10999 10996 ] final  118.32 input  -57.11 | X-H torsion

> <Gold.Protein.ActiveResidues>
 VAL166  LYS551  ARG553  GLY616  TRP617  ASP618  TYR619  PRO620  LYS621  CYS622 
 ASP623  PHE694  ASN695  SER759  ASP760  ASP761  ALA762  ILE779  LEU786  VAL792 
 PHE793  MET794  SER795  GLU796  ALA797  LYS798  CYS799  TRP800  GLU811  SER814 

> <Gold.Protein.RotatedAtoms>
  151.1142  135.0043  159.8507 H   0  0  0  0  0  0  0  0  0  0  0  0  # atno 6907 bound_to 6896
  152.5445  134.1799  159.8641 H   0  0  0  0  0  0  0  0  0  0  0  0  # atno 6908 bound_to 6896
  151.1852  133.4656  159.2627 H   0  0  0  0  0  0  0  0  0  0  0  0  # atno 6909 bound_to 6896
  146.1879  140.3959  142.8469 H   0  0  0  0  0  0  0  0  0  0  0  0  # atno 7974 bound_to 7965
  156.0539  140.1332  157.0019 H   0  0  0  0  0  0  0  0  0  0  0  0  # atno 8008 bound_to 7997
  154.4448  140.1005  156.6488 H   0  0  0  0  0  0  0  0  0  0  0  0  # atno 8009 bound_to 7997
  155.5481  140.3462  155.4464 H   0  0  0  0  0  0  0  0  0  0  0  0  # atno 8010 bound_to 7997
  140.2511  144.3477  150.6348 H   0  0  0  0  0  0  0  0  0  0  0  0  # atno 10167 bound_to 10162
  156.0696  130.5912  150.8487 H   0  0  0  0  0  0  0  0  0  0  0  0  # atno 10718 bound_to 10713
  153.4290  135.7011  153.6243 H   0  0  0  0  0  0  0  0  0  0  0  0  # atno 10763 bound_to 10752
  153.4666  135.3724  155.2368 H   0  0  0  0  0  0  0  0  0  0  0  0  # atno 10764 bound_to 10752
  154.8725  135.4033  154.3670 H   0  0  0  0  0  0  0  0  0  0  0  0  # atno 10765 bound_to 10752
  139.9105  134.9619  156.7485 H   0  0  0  0  0  0  0  0  0  0  0  0  # atno 11005 bound_to 11000
  144.8430  140.6887  143.6217 LP  0  0  0  0  0  0  0  0  0  0  0  0  # atno 17320 bound_to 7965
  145.3884  139.1622  143.4242 LP  0  0  0  0  0  0  0  0  0  0  0  0  # atno 17321 bound_to 7965
  140.6039  143.2167  151.7018 LP  0  0  0  0  0  0  0  0  0  0  0  0  # atno 17342 bound_to 10162
  139.5046  144.3749  152.0434 LP  0  0  0  0  0  0  0  0  0  0  0  0  # atno 17343 bound_to 10162
  157.5759  131.0946  150.9346 LP  0  0  0  0  0  0  0  0  0  0  0  0  # atno 17370 bound_to 10713
  156.9552  130.5434  149.5284 LP  0  0  0  0  0  0  0  0  0  0  0  0  # atno 17371 bound_to 10713
  140.6792  133.9489  155.7900 LP  0  0  0  0  0  0  0  0  0  0  0  0  # atno 17394 bound_to 11000
  141.0522  134.0468  157.3768 LP  0  0  0  0  0  0  0  0  0  0  0  0  # atno 17395 bound_to 11000

$$$$
