AV-unprocessed.smi:152|AV-procd|sdf|1249|dock5
  -GOLD-   2262018473D 1   1.00000     0.00000
 Structure written by MMmdl.
 58 61  0  0  0  0  0  0  0  0  2 V2000
  141.8136  134.8210  153.3127 C   0  0  0  0  0  0  0  0  0  0  0  0
  143.3413  134.9588  153.2642 C   0  0  0  0  0  0  0  0  0  0  0  0
  144.0075  133.6691  152.9583 N   0  3  1  0  0  0  0  0  0  0  0  0
  143.6487  133.0890  151.6392 C   0  0  0  0  0  0  0  0  0  0  0  0
  144.9613  132.7620  150.9220 C   0  0  0  0  0  0  0  0  0  0  0  0
  145.9770  132.6639  152.0504 C   0  0  0  0  0  0  0  0  0  0  0  0
  145.4860  133.7159  153.0479 C   0  0  2  0  0  0  0  0  0  0  0  0
  145.9797  133.4619  154.4898 C   0  0  0  0  0  0  0  0  0  0  0  0
  147.4141  133.1916  154.5797 N   0  0  0  0  0  0  0  0  0  0  0  0
  147.8527  131.8403  154.2594 C   0  0  0  0  0  0  0  0  0  0  0  0
  148.1128  133.7236  155.6114 C   0  0  0  0  0  0  0  0  0  0  0  0
  149.4175  133.3669  155.7155 N   0  0  0  0  0  0  0  0  0  0  0  0
  150.1725  133.8583  156.7022 C   0  0  0  0  0  0  0  0  0  0  0  0
  149.8264  134.7020  157.6758 N   0  0  0  0  0  0  0  0  0  0  0  0
  148.5111  135.0500  157.5876 C   0  0  0  0  0  0  0  0  0  0  0  0
  147.5880  134.6128  156.5951 C   0  0  0  0  0  0  0  0  0  0  0  0
  146.3406  135.1794  156.8332 N   0  0  0  0  0  0  0  0  0  0  0  0
  146.5173  135.9107  157.8991 C   0  0  0  0  0  0  0  0  0  0  0  0
  147.7896  135.8852  158.4228 N   0  0  0  0  0  0  0  0  0  0  0  0
  148.2600  136.5999  159.5994 C   0  0  0  0  0  0  0  0  0  0  0  0
  147.5841  136.1573  160.9216 C   0  0  0  0  0  0  0  0  0  0  0  0
  148.0821  136.9815  161.9608 O   0  0  0  0  0  0  0  0  0  0  0  0
  146.0576  136.3562  160.8332 C   0  0  0  0  0  0  0  0  0  0  0  0
  145.3235  135.7739  162.0540 C   0  0  0  0  0  0  0  0  0  0  0  0
  145.6580  134.4004  162.2111 O   0  0  0  0  0  0  0  0  0  0  0  0
  147.0410  134.1984  162.4745 C   0  0  0  0  0  0  0  0  0  0  0  0
  147.8851  134.6862  161.2833 C   0  0  0  0  0  0  0  0  0  0  0  0
  141.3506  135.7713  153.5797 H   0  0  0  0  0  0  0  0  0  0  0  0
  141.5084  134.0839  154.0559 H   0  0  0  0  0  0  0  0  0  0  0  0
  141.4031  134.5166  152.3499 H   0  0  0  0  0  0  0  0  0  0  0  0
  143.6358  135.7138  152.5337 H   0  0  0  0  0  0  0  0  0  0  0  0
  143.6836  135.3166  154.2356 H   0  0  0  0  0  0  0  0  0  0  0  0
  143.0699  132.1813  151.8122 H   0  0  0  0  0  0  0  0  0  0  0  0
  143.0362  133.7585  151.0336 H   0  0  0  0  0  0  0  0  0  0  0  0
  144.9018  131.8517  150.3245 H   0  0  0  0  0  0  0  0  0  0  0  0
  145.2325  133.5824  150.2560 H   0  0  0  0  0  0  0  0  0  0  0  0
  145.9380  131.6682  152.4945 H   0  0  0  0  0  0  0  0  0  0  0  0
  146.9993  132.8434  151.7154 H   0  0  0  0  0  0  0  0  0  0  0  0
  145.8064  134.6956  152.6904 H   0  0  0  0  0  0  0  0  0  0  0  0
  145.7324  134.3016  155.1384 H   0  0  0  0  0  0  0  0  0  0  0  0
  145.4427  132.6072  154.9024 H   0  0  0  0  0  0  0  0  0  0  0  0
  147.7251  131.1799  155.1184 H   0  0  0  0  0  0  0  0  0  0  0  0
  148.9043  131.8290  153.9704 H   0  0  0  0  0  0  0  0  0  0  0  0
  147.2769  131.4322  153.4286 H   0  0  0  0  0  0  0  0  0  0  0  0
  151.2007  133.5276  156.7147 H   0  0  0  0  0  0  0  0  0  0  0  0
  145.7171  136.4867  158.3412 H   0  0  0  0  0  0  0  0  0  0  0  0
  149.3420  136.4776  159.6662 H   0  0  0  0  0  0  0  0  0  0  0  0
  148.0861  137.6638  159.4326 H   0  0  0  0  0  0  0  0  0  0  0  0
  147.9600  136.5348  162.7846 H   0  0  0  0  0  0  0  0  0  0  0  0
  145.8147  137.4135  160.7188 H   0  0  0  0  0  0  0  0  0  0  0  0
  145.6812  135.8588  159.9385 H   0  0  0  0  0  0  0  0  0  0  0  0
  145.5668  136.3270  162.9624 H   0  0  0  0  0  0  0  0  0  0  0  0
  144.2455  135.8580  161.9147 H   0  0  0  0  0  0  0  0  0  0  0  0
  147.3255  134.7116  163.3943 H   0  0  0  0  0  0  0  0  0  0  0  0
  147.2139  133.1352  162.6423 H   0  0  0  0  0  0  0  0  0  0  0  0
  147.6684  134.0532  160.4220 H   0  0  0  0  0  0  0  0  0  0  0  0
  148.9437  134.5487  161.5072 H   0  0  0  0  0  0  0  0  0  0  0  0
  143.7049  133.0021  153.6537 H   0  0  0  0  0  0  0  0  0  0  0  0
  1  2  1  0  0  0  0
  1 28  1  0  0  0  0
  1 29  1  0  0  0  0
  1 30  1  0  0  0  0
  2  3  1  0  0  0  0
  2 31  1  0  0  0  0
  2 32  1  0  0  0  0
  3  7  1  0  0  0  0
  3  4  1  0  0  0  0
  3 58  1  0  0  0  0
  4  5  1  0  0  0  0
  4 33  1  0  0  0  0
  4 34  1  0  0  0  0
  5  6  1  0  0  0  0
  5 35  1  0  0  0  0
  5 36  1  0  0  0  0
  6  7  1  0  0  0  0
  6 37  1  0  0  0  0
  6 38  1  0  0  0  0
  7  8  1  0  0  0  0
  7 39  1  0  0  0  0
  8  9  1  0  0  0  0
  8 40  1  0  0  0  0
  8 41  1  0  0  0  0
  9 10  1  0  0  0  0
  9 11  1  0  0  0  0
 10 42  1  0  0  0  0
 10 43  1  0  0  0  0
 10 44  1  0  0  0  0
 11 16  1  0  0  0  0
 11 12  2  0  0  0  0
 12 13  1  0  0  0  0
 13 14  2  0  0  0  0
 13 45  1  0  0  0  0
 14 15  1  0  0  0  0
 15 19  1  0  0  0  0
 15 16  2  0  0  0  0
 16 17  1  0  0  0  0
 17 18  2  0  0  0  0
 18 19  1  0  0  0  0
 18 46  1  0  0  0  0
 19 20  1  0  0  0  0
 20 21  1  0  0  0  0
 20 47  1  0  0  0  0
 20 48  1  0  0  0  0
 21 27  1  0  0  0  0
 21 22  1  0  0  0  0
 21 23  1  0  0  0  0
 22 49  1  0  0  0  0
 23 24  1  0  0  0  0
 23 50  1  0  0  0  0
 23 51  1  0  0  0  0
 24 25  1  0  0  0  0
 24 52  1  0  0  0  0
 24 53  1  0  0  0  0
 25 26  1  0  0  0  0
 26 27  1  0  0  0  0
 26 54  1  0  0  0  0
 26 55  1  0  0  0  0
 27 56  1  0  0  0  0
 27 57  1  0  0  0  0
M  CHG  1   3   1
M  END
> <s_m_source_file>
AV-unprocessed.smi

> <i_m_source_file_index>
152

> <i_lp_mmshare_version>
43012

> <i_f3d_flags>
0

> <s_epik_input>
W0NIM11bQ0gyXU4xW0NIMl1bQ0gyXVtDSDJdW0NASF0xW0NIMl1OKFtDSDNdKWMobltjSF1uMiljKGMyMyluW2NIXW4zW0NIMl1DNChbT0hdKVtDSDJdW0NIMl1PW0NIMl1bQ0gyXTQ=

> <s_epik_cmdline>
J2VwaWtfcHl0aG9uJywgJy1waCcsICc3LjAnLCAnLXRuJywgJzgnLCAnLW1hJywgJzIwMCcsICctbWV0YWxfYmluZGluZycsICctaW1hZScsICc8aW5maWxlLm1hZT4nLCAnLW9tYWUnLCAnPG91dGZpbGUubWFlPic=

> <r_lp_tautomer_probability>
1

> <r_epik_Ionization_Penalty>
0.00152183

> <r_epik_Ionization_Penalty_Charging>
0.00112577

> <r_epik_Ionization_Penalty_Neutral>
0.000396066

> <r_epik_State_Penalty>
-0

> <r_epik_Charging_Adjusted_Penalty>
0.00112577

> <i_epik_Tot_Q>
1

> <i_epik_Tot_abs_Q>
1

> <r_epik_Metal_State_Penalty>
-0

> <b_epik_Metal_Only>
0

> <s_lp_Force_Field>
OPLS_2005

> <r_lp_Energy>
45.0855

> <b_lp_Chiralities_Consistent>
1

> <s_lp_Variant>
AV-unprocessed.smi:152-4

> <Gold.Version>
5.8.1

> <Gold.Id.Protein>
6NUR|6NUR_protein|mol2

> <Gold.PLP.Fitness>
46.3638

> <Gold.PLP.PLP>
-34.3685

> <Gold.PLP.part.hbond>
-4.0000

> <Gold.PLP.part.metal>
0.0000

> <Gold.PLP.part.buried>
-6.2819

> <Gold.PLP.part.nonpolar>
-23.6379

> <Gold.PLP.part.repulsive>
0.0568

> <Gold.PLP.ligand.clash>
0.0000

> <Gold.PLP.ligand.torsion>
0.8611

> <Gold.PLP.Chemscore.Hbond>
4.2806

> <Gold.PLP.Chemscore.CHOScore>
0.0000

> <Gold.PLP.Chemscore.Metal>
0.0000

> <Gold.Chemscore.Hbonds>
donor molecule, donor type, donor heavy atom, donor atom, acceptor molecule, acceptor atom, score
      L1  H     3    58       P1 10957  2.00
      P1  H  6896  6909       L1    14  0.94
      P1  H  6931  6943       L1    22  1.00

> <Gold.PLP.Chemscore.Internal.Correction>
0.8756

> <Gold.Rescore>
     Score         DG    S(hbond)    S(metal)    S(lipo)     H(rot)  DE(clash)    DE(int)     intcor
     14.53     -16.88       2.84        0.00      76.07       2.73       0.01       2.34       ----

> <Gold.Chemscore.Fitness>
14.5263

> <Gold.Chemscore.DG>
-16.8773

> <Gold.Chemscore.ZeroCoef>
-5.4800

> <Gold.Chemscore.Hbond>
2.8439

> <Gold.Chemscore.Metal>
0.0000

> <Gold.Chemscore.Lipo>
76.0667

> <Gold.Chemscore.Internal_Hbond>
0.0000

> <Gold.Chemscore.DEClash>
0.0126

> <Gold.Chemscore.DEInternal>
2.3384

> <Gold.Chemscore.Rot>
2.7348

> <Gold.Chemscore.Internal.Correction>
   9.000000E+99

> <Gold.Chemscore.Hbonds>
donor molecule, donor type, donor heavy atom, donor atom, acceptor molecule, acceptor atom, score
      L1  H     3    58       P1 10957  0.91
      P1  H  6896  6909       L1    14  0.73
      P1  H  6931  6943       L1    22  0.94

> <Gold.Chemscore.Hbond.Weighted>
-9.4985

> <Gold.Chemscore.Metal.Weighted>
-0.0000

> <Gold.Chemscore.Lipo.Weighted>
-8.8998

> <Gold.Chemscore.Internal_Hbond.Weighted>
0.0000

> <Gold.Chemscore.DEClash.Weighted>
0.0126

> <Gold.Chemscore.DEInternal.Weighted>
2.3384

> <Gold.Chemscore.Rot.Weighted>
7.0010

> <Gold.Chemscore.Internal.Correction.Weighted>
   9.000000E+99

> <Gold.Protein.RotatedTorsions>
[ 6907 6896 6895 6894 ] final   27.89 input  -60.11 | X-H torsion
[ 7974 7965 7964 7962 ] final  106.50 input  175.53 | X-H torsion
[ 8008 7997 7996 7995 ] final  -42.62 input   59.86 | X-H torsion
[ 10167 10162 10161 10158 ] final -179.50 input  -65.29 | X-H torsion
[ 10718 10713 10712 10709 ] final -164.92 input   66.30 | X-H torsion
[ 10763 10752 10751 10750 ] final -172.77 input  -60.55 | X-H torsion
[ 11005 11000 10999 10996 ] final  123.99 input  -57.11 | X-H torsion

> <Gold.Protein.ActiveResidues>
 VAL166  LYS551  ARG553  GLY616  TRP617  ASP618  TYR619  PRO620  LYS621  CYS622 
 ASP623  PHE694  ASN695  SER759  ASP760  ASP761  ALA762  ILE779  LEU786  VAL792 
 PHE793  MET794  SER795  GLU796  ALA797  LYS798  CYS799  TRP800  GLU811  SER814 

> <Gold.Protein.RotatedAtoms>
  152.0089  134.9887  160.0567 H   0  0  0  0  0  0  0  0  0  0  0  0  # atno 6907 bound_to 6896
  152.1448  133.4481  159.4793 H   0  0  0  0  0  0  0  0  0  0  0  0  # atno 6908 bound_to 6896
  150.6869  134.2179  159.4428 H   0  0  0  0  0  0  0  0  0  0  0  0  # atno 6909 bound_to 6896
  145.3059  139.2555  143.3789 H   0  0  0  0  0  0  0  0  0  0  0  0  # atno 7974 bound_to 7965
  154.3998  140.1468  156.3386 H   0  0  0  0  0  0  0  0  0  0  0  0  # atno 8008 bound_to 7997
  155.8378  140.3463  155.5591 H   0  0  0  0  0  0  0  0  0  0  0  0  # atno 8009 bound_to 7997
  155.8120  140.0885  157.1889 H   0  0  0  0  0  0  0  0  0  0  0  0  # atno 8010 bound_to 7997
  139.5383  144.2434  152.0842 H   0  0  0  0  0  0  0  0  0  0  0  0  # atno 10167 bound_to 10162
  156.6459  130.8988  151.3004 H   0  0  0  0  0  0  0  0  0  0  0  0  # atno 10718 bound_to 10713
  154.6155  135.2869  155.0384 H   0  0  0  0  0  0  0  0  0  0  0  0  # atno 10763 bound_to 10752
  154.1599  135.6490  153.4987 H   0  0  0  0  0  0  0  0  0  0  0  0  # atno 10764 bound_to 10752
  153.0213  135.5375  154.6925 H   0  0  0  0  0  0  0  0  0  0  0  0  # atno 10765 bound_to 10752
  139.9338  134.9640  156.8343 H   0  0  0  0  0  0  0  0  0  0  0  0  # atno 11005 bound_to 11000
  146.3135  140.3583  142.8662 LP  0  0  0  0  0  0  0  0  0  0  0  0  # atno 17320 bound_to 7965
  144.9056  140.7695  143.5840 LP  0  0  0  0  0  0  0  0  0  0  0  0  # atno 17321 bound_to 7965
  140.1908  144.4753  150.6480 LP  0  0  0  0  0  0  0  0  0  0  0  0  # atno 17342 bound_to 10162
  140.6601  143.2249  151.5876 LP  0  0  0  0  0  0  0  0  0  0  0  0  # atno 17343 bound_to 10162
  157.7156  130.9493  150.1244 LP  0  0  0  0  0  0  0  0  0  0  0  0  # atno 17370 bound_to 10713
  156.2122  130.3667  149.8656 LP  0  0  0  0  0  0  0  0  0  0  0  0  # atno 17371 bound_to 10713
  140.6130  134.0064  155.7585 LP  0  0  0  0  0  0  0  0  0  0  0  0  # atno 17394 bound_to 11000
  141.0941  133.9871  157.3189 LP  0  0  0  0  0  0  0  0  0  0  0  0  # atno 17395 bound_to 11000

$$$$
