AV-unprocessed.smi:1486|AV-procd|sdf|6006|dock3
  -GOLD-   22720 6103D 1   1.00000     0.00000
 Structure written by MMmdl.
 39 40  0  0  0  0  0  0  0  0  1 V2000
  149.2416  133.1498  154.9240 C   0  0  0  0  0  0  0  0  0  0  0  0
  149.2062  134.2398  155.8282 O   0  0  0  0  0  0  0  0  0  0  0  0
  148.7536  135.4377  155.2174 C   0  0  0  0  0  0  0  0  0  0  0  0
  148.7621  136.5739  156.2512 C   0  0  1  0  0  0  0  0  0  0  0  0
  149.2404  136.0812  157.6263 C   0  0  0  0  0  0  0  0  0  0  0  0
  149.6210  137.6581  155.7823 N   0  0  0  0  0  0  0  0  0  0  0  0
  150.9336  137.5509  155.5222 C   0  0  0  0  0  0  0  0  0  0  0  0
  151.5699  136.5058  155.6569 O   0  0  0  0  0  0  0  0  0  0  0  0
  151.6379  138.8153  155.0292 C   0  0  0  0  0  0  0  0  0  0  0  0
  151.3408  139.9669  155.9460 C   0  0  0  0  0  0  0  0  0  0  0  0
  150.3419  140.8992  155.8018 C   0  0  0  0  0  0  0  0  0  0  0  0
  150.3500  142.0718  157.0895 S   0  0  0  0  0  0  0  0  0  0  0  0
  151.7444  141.2438  157.7892 C   0  0  0  0  0  0  0  0  0  0  0  0
  152.4432  141.6192  158.9755 N   0  0  0  0  0  0  0  0  0  0  0  0
  152.0795  142.8099  159.7379 C   0  0  0  0  0  0  0  0  0  0  0  0
  152.8830  142.7367  161.0407 C   0  0  0  0  0  0  0  0  0  0  0  0
  153.9697  141.6946  160.7856 C   0  0  0  0  0  0  0  0  0  0  0  0
  153.4958  140.9882  159.5260 C   0  0  0  0  0  0  0  0  0  0  0  0
  154.0523  139.9724  159.1120 O   0  0  0  0  0  0  0  0  0  0  0  0
  152.1321  140.1773  157.0808 N   0  0  0  0  0  0  0  0  0  0  0  0
  149.5960  132.2571  155.4393 H   0  0  0  0  0  0  0  0  0  0  0  0
  149.9187  133.3490  154.0925 H   0  0  0  0  0  0  0  0  0  0  0  0
  148.2494  132.9367  154.5241 H   0  0  0  0  0  0  0  0  0  0  0  0
  149.4144  135.6897  154.3861 H   0  0  0  0  0  0  0  0  0  0  0  0
  147.7514  135.3007  154.8076 H   0  0  0  0  0  0  0  0  0  0  0  0
  147.7393  136.9413  156.3537 H   0  0  0  0  0  0  0  0  0  0  0  0
  148.6045  135.2769  157.9967 H   0  0  0  0  0  0  0  0  0  0  0  0
  149.2162  136.8829  158.3652 H   0  0  0  0  0  0  0  0  0  0  0  0
  150.2622  135.7028  157.5790 H   0  0  0  0  0  0  0  0  0  0  0  0
  149.1835  138.5581  155.6466 H   0  0  0  0  0  0  0  0  0  0  0  0
  152.7112  138.6307  154.9629 H   0  0  0  0  0  0  0  0  0  0  0  0
  151.3025  139.0398  154.0160 H   0  0  0  0  0  0  0  0  0  0  0  0
  149.6010  140.9626  155.0184 H   0  0  0  0  0  0  0  0  0  0  0  0
  152.3521  143.6975  159.1652 H   0  0  0  0  0  0  0  0  0  0  0  0
  151.0076  142.8498  159.9370 H   0  0  0  0  0  0  0  0  0  0  0  0
  153.2990  143.7061  161.3170 H   0  0  0  0  0  0  0  0  0  0  0  0
  152.2413  142.4080  161.8595 H   0  0  0  0  0  0  0  0  0  0  0  0
  154.9348  142.1651  160.5943 H   0  0  0  0  0  0  0  0  0  0  0  0
  154.0778  140.9991  161.6184 H   0  0  0  0  0  0  0  0  0  0  0  0
  1  2  1  0  0  0  0
  1 21  1  0  0  0  0
  1 22  1  0  0  0  0
  1 23  1  0  0  0  0
  2  3  1  0  0  0  0
  3  4  1  0  0  0  0
  3 24  1  0  0  0  0
  3 25  1  0  0  0  0
  4  5  1  0  0  0  0
  4  6  1  0  0  0  0
  4 26  1  0  0  0  0
  5 27  1  0  0  0  0
  5 28  1  0  0  0  0
  5 29  1  0  0  0  0
  6  7  1  0  0  0  0
  6 30  1  0  0  0  0
  7  8  2  0  0  0  0
  7  9  1  0  0  0  0
  9 10  1  0  0  0  0
  9 31  1  0  0  0  0
  9 32  1  0  0  0  0
 10 20  1  0  0  0  0
 10 11  2  0  0  0  0
 11 12  1  0  0  0  0
 11 33  1  0  0  0  0
 12 13  1  0  0  0  0
 13 14  1  0  0  0  0
 13 20  2  0  0  0  0
 14 18  1  0  0  0  0
 14 15  1  0  0  0  0
 15 16  1  0  0  0  0
 15 34  1  0  0  0  0
 15 35  1  0  0  0  0
 16 17  1  0  0  0  0
 16 36  1  0  0  0  0
 16 37  1  0  0  0  0
 17 18  1  0  0  0  0
 17 38  1  0  0  0  0
 17 39  1  0  0  0  0
 18 19  2  0  0  0  0
M  END
> <s_m_source_file>
AV-unprocessed.smi

> <i_m_source_file_index>
1486

> <i_lp_mmshare_version>
43012

> <i_f3d_flags>
0

> <s_epik_input>
W0NIM11PW0NIMl1bQ0BIXShbQ0gzXSlbTkhdQyg9TylbQ0gyXWMxW2NIXXNjKG4xKU4yW0NIMl1bQ0gyXVtDSDJdQzI9Tw==

> <s_epik_cmdline>
J2VwaWtfcHl0aG9uJywgJy1waCcsICc3LjAnLCAnLXRuJywgJzgnLCAnLW1hJywgJzIwMCcsICctbWV0YWxfYmluZGluZycsICctaW1hZScsICc8aW5maWxlLm1hZT4nLCAnLW9tYWUnLCAnPG91dGZpbGUubWFlPic=

> <r_lp_tautomer_probability>
1

> <r_epik_Ionization_Penalty>
3.00988e-05

> <r_epik_Ionization_Penalty_Charging>
0

> <r_epik_Ionization_Penalty_Neutral>
3.00988e-05

> <r_epik_State_Penalty>
-0

> <r_epik_Charging_Adjusted_Penalty>
0

> <i_epik_Tot_Q>
0

> <i_epik_Tot_abs_Q>
0

> <r_epik_Metal_State_Penalty>
-0

> <b_epik_Metal_Only>
0

> <s_lp_Force_Field>
OPLS_2005

> <r_lp_Energy>
17.9426

> <b_lp_Chiralities_Consistent>
1

> <s_lp_Variant>
AV-unprocessed.smi:1486-2

> <Gold.Version>
5.8.1

> <Gold.Id.Protein>
6NUR|6NUR_protein|mol2

> <Gold.PLP.Fitness>
42.6144

> <Gold.PLP.PLP>
-38.8342

> <Gold.PLP.part.hbond>
-2.9807

> <Gold.PLP.part.metal>
0.0000

> <Gold.PLP.part.buried>
-3.4482

> <Gold.PLP.part.nonpolar>
-32.1579

> <Gold.PLP.part.repulsive>
0.1130

> <Gold.PLP.ligand.clash>
0.0000

> <Gold.PLP.ligand.torsion>
1.1922

> <Gold.PLP.Chemscore.Hbond>
2.0000

> <Gold.PLP.Chemscore.CHOScore>
0.0000

> <Gold.PLP.Chemscore.Metal>
0.0000

> <Gold.Chemscore.Hbonds>
donor molecule, donor type, donor heavy atom, donor atom, acceptor molecule, acceptor atom, score
      P1  H  7997  8008       L1    19  0.96
      P1  H 10752 10763       L1     8  1.00

> <Gold.PLP.Chemscore.Internal.Correction>
0.1646

> <Gold.Rescore>
     Score         DG    S(hbond)    S(metal)    S(lipo)     H(rot)  DE(clash)    DE(int)     intcor
     12.17     -15.89       1.89        0.00      77.47       1.94       0.08       3.63       ----

> <Gold.Chemscore.Fitness>
12.1726

> <Gold.Chemscore.DG>
-15.8874

> <Gold.Chemscore.ZeroCoef>
-5.4800

> <Gold.Chemscore.Hbond>
1.8872

> <Gold.Chemscore.Metal>
0.0000

> <Gold.Chemscore.Lipo>
77.4674

> <Gold.Chemscore.Internal_Hbond>
0.0000

> <Gold.Chemscore.DEClash>
0.0805

> <Gold.Chemscore.DEInternal>
3.6343

> <Gold.Chemscore.Rot>
1.9373

> <Gold.Chemscore.Internal.Correction>
   9.000000E+99

> <Gold.Chemscore.Hbonds>
donor molecule, donor type, donor heavy atom, donor atom, acceptor molecule, acceptor atom, score
      P1  H  7997  8008       L1    19  0.84
      P1  H 10752 10763       L1     8  1.00

> <Gold.Chemscore.Hbond.Weighted>
-6.3032

> <Gold.Chemscore.Metal.Weighted>
-0.0000

> <Gold.Chemscore.Lipo.Weighted>
-9.0637

> <Gold.Chemscore.Internal_Hbond.Weighted>
0.0000

> <Gold.Chemscore.DEClash.Weighted>
0.0805

> <Gold.Chemscore.DEInternal.Weighted>
3.6343

> <Gold.Chemscore.Rot.Weighted>
4.9594

> <Gold.Chemscore.Internal.Correction.Weighted>
   9.000000E+99

> <Gold.Protein.RotatedTorsions>
[ 6907 6896 6895 6894 ] final    2.27 input  -60.11 | X-H torsion
[ 7974 7965 7964 7962 ] final  -55.67 input  175.53 | X-H torsion
[ 8008 7997 7996 7995 ] final -116.89 input   59.86 | X-H torsion
[ 10167 10162 10161 10158 ] final -178.02 input  -65.29 | X-H torsion
[ 10718 10713 10712 10709 ] final   73.36 input   66.30 | X-H torsion
[ 10763 10752 10751 10750 ] final   77.52 input  -60.55 | X-H torsion
[ 11005 11000 10999 10996 ] final   29.30 input  -57.11 | X-H torsion

> <Gold.Protein.ActiveResidues>
 VAL166  LYS551  ARG553  GLY616  TRP617  ASP618  TYR619  PRO620  LYS621  CYS622 
 ASP623  PHE694  ASN695  SER759  ASP760  ASP761  ALA762  ILE779  LEU786  VAL792 
 PHE793  MET794  SER795  GLU796  ALA797  LYS798  CYS799  TRP800  GLU811  SER814 

> <Gold.Protein.RotatedAtoms>
  151.6062  135.1043  160.0070 H   0  0  0  0  0  0  0  0  0  0  0  0  # atno 6907 bound_to 6896
  152.4232  133.7147  159.6509 H   0  0  0  0  0  0  0  0  0  0  0  0  # atno 6908 bound_to 6896
  150.8120  133.8332  159.3200 H   0  0  0  0  0  0  0  0  0  0  0  0  # atno 6909 bound_to 6896
  145.8715  140.8212  142.9886 H   0  0  0  0  0  0  0  0  0  0  0  0  # atno 7974 bound_to 7965
  155.0750  140.0394  157.2621 H   0  0  0  0  0  0  0  0  0  0  0  0  # atno 8008 bound_to 7997
  154.6952  140.2662  155.6748 H   0  0  0  0  0  0  0  0  0  0  0  0  # atno 8009 bound_to 7997
  156.2742  140.2751  156.1544 H   0  0  0  0  0  0  0  0  0  0  0  0  # atno 8010 bound_to 7997
  139.5452  144.2254  152.0974 H   0  0  0  0  0  0  0  0  0  0  0  0  # atno 10167 bound_to 10162
  157.6544  130.9624  150.1058 H   0  0  0  0  0  0  0  0  0  0  0  0  # atno 10718 bound_to 10713
  153.0805  135.4911  154.8493 H   0  0  0  0  0  0  0  0  0  0  0  0  # atno 10763 bound_to 10752
  154.7144  135.3026  154.9149 H   0  0  0  0  0  0  0  0  0  0  0  0  # atno 10764 bound_to 10752
  153.9832  135.6787  153.4804 H   0  0  0  0  0  0  0  0  0  0  0  0  # atno 10765 bound_to 10752
  140.3064  134.2698  155.7743 H   0  0  0  0  0  0  0  0  0  0  0  0  # atno 11005 bound_to 11000
  144.6726  140.1246  143.7447 LP  0  0  0  0  0  0  0  0  0  0  0  0  # atno 17320 bound_to 7965
  145.9131  139.2499  143.1426 LP  0  0  0  0  0  0  0  0  0  0  0  0  # atno 17321 bound_to 7965
  140.1740  144.4908  150.6564 LP  0  0  0  0  0  0  0  0  0  0  0  0  # atno 17342 bound_to 10162
  140.6698  143.2281  151.5654 LP  0  0  0  0  0  0  0  0  0  0  0  0  # atno 17343 bound_to 10162
  156.1968  130.3658  149.8839 LP  0  0  0  0  0  0  0  0  0  0  0  0  # atno 17370 bound_to 10713
  156.6753  130.8836  151.3568 LP  0  0  0  0  0  0  0  0  0  0  0  0  # atno 17371 bound_to 10713
  141.2117  133.7680  156.9843 LP  0  0  0  0  0  0  0  0  0  0  0  0  # atno 17394 bound_to 11000
  140.1063  134.9504  157.1999 LP  0  0  0  0  0  0  0  0  0  0  0  0  # atno 17395 bound_to 11000

$$$$
