AV-unprocessed.smi:1800|AV-procd|sdf|7266|dock1
  -GOLD-   22720 8523D 1   1.00000     0.00000
 Structure written by MMmdl.
 35 36  0  0  0  0  0  0  0  0  2 V2000
  153.2359  138.4330  160.4508 C   0  0  0  0  0  0  0  0  0  0  0  0
  153.3599  139.5127  159.3669 C   0  0  1  0  0  0  0  0  0  0  0  0
  154.2843  140.6744  159.8130 C   0  0  0  0  0  0  0  0  0  0  0  0
  153.5835  141.8080  160.4111 N   0  0  0  0  0  0  0  0  0  0  0  0
  153.3903  142.0991  161.7486 C   0  0  0  0  0  0  0  0  0  0  0  0
  152.6862  143.2668  161.8170 C   0  0  0  0  0  0  0  0  0  0  0  0
  152.5011  143.6294  160.4542 C   0  0  0  0  0  0  0  0  0  0  0  0
  153.0515  142.7664  159.6168 N   0  0  0  0  0  0  0  0  0  0  0  0
  153.8743  138.9023  158.1486 N   0  5  0  0  0  0  0  0  0  0  0  0
  152.8687  138.0887  157.1697 S   0  0  0  0  0  0  0  0  0  0  0  0
  153.4537  136.8184  156.7108 O   0  0  0  0  0  0  0  0  0  0  0  0
  151.4911  138.0355  157.6873 O   0  0  0  0  0  0  0  0  0  0  0  0
  152.8438  139.2244  155.6988 C   0  0  0  0  0  0  0  0  0  0  0  0
  151.4206  139.7019  155.3805 C   0  0  0  0  0  0  0  0  0  0  0  0
  150.8222  138.6710  154.4111 C   0  0  0  0  0  0  0  0  0  0  0  0
  151.9894  137.7957  153.9312 C   0  0  0  0  0  0  0  0  0  0  0  0
  153.2603  138.4956  154.4171 C   0  0  0  0  0  0  0  0  0  0  0  0
  152.8390  138.8527  161.3752 H   0  0  0  0  0  0  0  0  0  0  0  0
  154.2031  137.9831  160.6794 H   0  0  0  0  0  0  0  0  0  0  0  0
  152.5613  137.6352  160.1373 H   0  0  0  0  0  0  0  0  0  0  0  0
  152.3610  139.9252  159.2169 H   0  0  0  0  0  0  0  0  0  0  0  0
  154.9978  140.3080  160.5519 H   0  0  0  0  0  0  0  0  0  0  0  0
  154.8790  141.0301  158.9697 H   0  0  0  0  0  0  0  0  0  0  0  0
  153.7579  141.4507  162.5300 H   0  0  0  0  0  0  0  0  0  0  0  0
  152.3519  143.7812  162.7051 H   0  0  0  0  0  0  0  0  0  0  0  0
  151.9915  144.4919  160.0508 H   0  0  0  0  0  0  0  0  0  0  0  0
  153.5195  140.0532  155.9110 H   0  0  0  0  0  0  0  0  0  0  0  0
  150.8123  139.8343  156.2756 H   0  0  0  0  0  0  0  0  0  0  0  0
  151.4720  140.6714  154.8840 H   0  0  0  0  0  0  0  0  0  0  0  0
  150.0683  138.0589  154.9078 H   0  0  0  0  0  0  0  0  0  0  0  0
  150.3336  139.1720  153.5750 H   0  0  0  0  0  0  0  0  0  0  0  0
  151.9181  136.8080  154.3884 H   0  0  0  0  0  0  0  0  0  0  0  0
  151.9858  137.6551  152.8502 H   0  0  0  0  0  0  0  0  0  0  0  0
  153.5726  139.2298  153.6735 H   0  0  0  0  0  0  0  0  0  0  0  0
  154.0923  137.8055  154.5561 H   0  0  0  0  0  0  0  0  0  0  0  0
  1  2  1  0  0  0  0
  1 18  1  0  0  0  0
  1 19  1  0  0  0  0
  1 20  1  0  0  0  0
  2  3  1  0  0  0  0
  2  9  1  0  0  0  0
  2 21  1  0  0  0  0
  3  4  1  0  0  0  0
  3 22  1  0  0  0  0
  3 23  1  0  0  0  0
  4  8  1  0  0  0  0
  4  5  1  0  0  0  0
  5  6  2  0  0  0  0
  5 24  1  0  0  0  0
  6  7  1  0  0  0  0
  6 25  1  0  0  0  0
  7  8  2  0  0  0  0
  7 26  1  0  0  0  0
  9 10  1  0  0  0  0
 10 11  2  0  0  0  0
 10 12  2  0  0  0  0
 10 13  1  0  0  0  0
 13 17  1  0  0  0  0
 13 14  1  0  0  0  0
 13 27  1  0  0  0  0
 14 15  1  0  0  0  0
 14 28  1  0  0  0  0
 14 29  1  0  0  0  0
 15 16  1  0  0  0  0
 15 30  1  0  0  0  0
 15 31  1  0  0  0  0
 16 17  1  0  0  0  0
 16 32  1  0  0  0  0
 16 33  1  0  0  0  0
 17 34  1  0  0  0  0
 17 35  1  0  0  0  0
M  CHG  1   9  -1
M  END
> <s_m_source_file>
AV-unprocessed.smi

> <i_m_source_file_index>
1800

> <i_lp_mmshare_version>
43012

> <i_f3d_flags>
0

> <s_epik_input>
bjFbY0hdW2NIXVtjSF1uMVtDSDJdW0NAQEhdKFtDSDNdKVtOSF1TKD1PKSg9TylbQ0hdMltDSDJdW0NIMl1bQ0gyXVtDSDJdMg==

> <s_epik_cmdline>
J2VwaWtfcHl0aG9uJywgJy1waCcsICc3LjAnLCAnLXRuJywgJzgnLCAnLW1hJywgJzIwMCcsICctbWV0YWxfYmluZGluZycsICctaW1hZScsICc8aW5maWxlLm1hZT4nLCAnLW9tYWUnLCAnPG91dGZpbGUubWFlPic=

> <r_lp_tautomer_probability>
1

> <r_epik_Ionization_Penalty>
6.58538

> <r_epik_Ionization_Penalty_Charging>
6.58536

> <r_epik_Ionization_Penalty_Neutral>
2.3841e-05

> <r_epik_State_Penalty>
6.58535

> <r_epik_Charging_Adjusted_Penalty>
13.1707

> <i_epik_Tot_Q>
-1

> <i_epik_Tot_abs_Q>
1

> <r_epik_Metal_State_Penalty>
2.50999

> <b_epik_Metal_Only>
1

> <s_lp_Force_Field>
OPLS_2005

> <r_lp_Energy>
15.5507

> <b_lp_Chiralities_Consistent>
1

> <s_lp_Variant>
AV-unprocessed.smi:1800-4

> <Gold.Version>
5.8.1

> <Gold.Id.Protein>
6NUR|6NUR_protein|mol2

> <Gold.PLP.Fitness>
45.2657

> <Gold.PLP.PLP>
-38.9478

> <Gold.PLP.part.hbond>
-2.0000

> <Gold.PLP.part.metal>
0.0000

> <Gold.PLP.part.buried>
-3.9352

> <Gold.PLP.part.nonpolar>
-32.6516

> <Gold.PLP.part.repulsive>
0.0000

> <Gold.PLP.ligand.clash>
0.0000

> <Gold.PLP.ligand.torsion>
1.6635

> <Gold.PLP.Chemscore.Hbond>
2.8320

> <Gold.PLP.Chemscore.CHOScore>
0.0000

> <Gold.PLP.Chemscore.Metal>
0.0000

> <Gold.Chemscore.Hbonds>
donor molecule, donor type, donor heavy atom, donor atom, acceptor molecule, acceptor atom, score
      P1  H  7997  8009       L1     9  2.00
      P1  H 10752 10764       L1    11  0.86

> <Gold.PLP.Chemscore.Internal.Correction>
1.1489

> <Gold.Rescore>
     Score         DG    S(hbond)    S(metal)    S(lipo)     H(rot)  DE(clash)    DE(int)     intcor
     16.41     -18.02       1.57        0.00      95.54       1.51       0.01       1.61       ----

> <Gold.Chemscore.Fitness>
16.4057

> <Gold.Chemscore.DG>
-18.0208

> <Gold.Chemscore.ZeroCoef>
-5.4800

> <Gold.Chemscore.Hbond>
1.5689

> <Gold.Chemscore.Metal>
0.0000

> <Gold.Chemscore.Lipo>
95.5395

> <Gold.Chemscore.Internal_Hbond>
0.0000

> <Gold.Chemscore.DEClash>
0.0071

> <Gold.Chemscore.DEInternal>
1.6079

> <Gold.Chemscore.Rot>
1.5146

> <Gold.Chemscore.Internal.Correction>
   9.000000E+99

> <Gold.Chemscore.Hbonds>
donor molecule, donor type, donor heavy atom, donor atom, acceptor molecule, acceptor atom, score
      P1  H  7997  8009       L1     9  0.56
      P1  H 10752 10764       L1    11  0.83

> <Gold.Chemscore.Hbond.Weighted>
-5.2400

> <Gold.Chemscore.Metal.Weighted>
-0.0000

> <Gold.Chemscore.Lipo.Weighted>
-11.1781

> <Gold.Chemscore.Internal_Hbond.Weighted>
0.0000

> <Gold.Chemscore.DEClash.Weighted>
0.0071

> <Gold.Chemscore.DEInternal.Weighted>
1.6079

> <Gold.Chemscore.Rot.Weighted>
3.8773

> <Gold.Chemscore.Internal.Correction.Weighted>
   9.000000E+99

> <Gold.Protein.RotatedTorsions>
[ 6907 6896 6895 6894 ] final  -55.64 input  -60.11 | X-H torsion
[ 7974 7965 7964 7962 ] final -164.63 input  175.53 | X-H torsion
[ 8008 7997 7996 7995 ] final  139.94 input   59.86 | X-H torsion
[ 10167 10162 10161 10158 ] final   -4.41 input  -65.29 | X-H torsion
[ 10718 10713 10712 10709 ] final -112.12 input   66.30 | X-H torsion
[ 10763 10752 10751 10750 ] final    3.52 input  -60.55 | X-H torsion
[ 11005 11000 10999 10996 ] final  136.39 input  -57.11 | X-H torsion

> <Gold.Protein.ActiveResidues>
 VAL166  LYS551  ARG553  GLY616  TRP617  ASP618  TYR619  PRO620  LYS621  CYS622 
 ASP623  PHE694  ASN695  SER759  ASP760  ASP761  ALA762  ILE779  LEU786  VAL792 
 PHE793  MET794  SER795  GLU796  ALA797  LYS798  CYS799  TRP800  GLU811  SER814 

> <Gold.Protein.RotatedAtoms>
  150.8234  134.7454  159.6791 H   0  0  0  0  0  0  0  0  0  0  0  0  # atno 6907 bound_to 6896
  152.4348  134.5705  159.9929 H   0  0  0  0  0  0  0  0  0  0  0  0  # atno 6908 bound_to 6896
  151.5883  133.3332  159.3058 H   0  0  0  0  0  0  0  0  0  0  0  0  # atno 6909 bound_to 6896
  144.7292  140.2933  143.6217 H   0  0  0  0  0  0  0  0  0  0  0  0  # atno 7974 bound_to 7965
  156.2984  140.2354  156.4319 H   0  0  0  0  0  0  0  0  0  0  0  0  # atno 8008 bound_to 7997
  154.8263  140.0435  157.1466 H   0  0  0  0  0  0  0  0  0  0  0  0  # atno 8009 bound_to 7997
  154.9258  140.3010  155.5196 H   0  0  0  0  0  0  0  0  0  0  0  0  # atno 8010 bound_to 7997
  140.6926  143.6427  150.8421 H   0  0  0  0  0  0  0  0  0  0  0  0  # atno 10167 bound_to 10162
  156.0687  130.5903  150.8466 H   0  0  0  0  0  0  0  0  0  0  0  0  # atno 10718 bound_to 10713
  153.2824  135.6941  153.7373 H   0  0  0  0  0  0  0  0  0  0  0  0  # atno 10763 bound_to 10752
  153.6355  135.3402  155.3056 H   0  0  0  0  0  0  0  0  0  0  0  0  # atno 10764 bound_to 10752
  154.8499  135.4419  154.1881 H   0  0  0  0  0  0  0  0  0  0  0  0  # atno 10765 bound_to 10752
  140.0043  134.9466  157.0140 H   0  0  0  0  0  0  0  0  0  0  0  0  # atno 11005 bound_to 11000
  145.7833  139.1899  143.2145 LP  0  0  0  0  0  0  0  0  0  0  0  0  # atno 17320 bound_to 7965
  146.0816  140.7758  142.9639 LP  0  0  0  0  0  0  0  0  0  0  0  0  # atno 17321 bound_to 7965
  140.0141  143.5611  152.2827 LP  0  0  0  0  0  0  0  0  0  0  0  0  # atno 17342 bound_to 10162
  139.6346  144.7648  151.2465 LP  0  0  0  0  0  0  0  0  0  0  0  0  # atno 17343 bound_to 10162
  157.5745  131.0946  150.9367 LP  0  0  0  0  0  0  0  0  0  0  0  0  # atno 17370 bound_to 10713
  156.9576  130.5443  149.5284 LP  0  0  0  0  0  0  0  0  0  0  0  0  # atno 17371 bound_to 10713
  140.4670  134.1425  155.7198 LP  0  0  0  0  0  0  0  0  0  0  0  0  # atno 17394 bound_to 11000
  141.1665  133.8692  157.1699 LP  0  0  0  0  0  0  0  0  0  0  0  0  # atno 17395 bound_to 11000

$$$$
