AV-unprocessed.smi:2595|AV-procd|sdf|10168|dock3
  -GOLD-   2272014183D 1   1.00000     0.00000
 Structure written by MMmdl.
 31 32  0  0  0  0  0  0  0  0  1 V2000
  146.7235  130.8565  152.5092 C   0  0  0  0  0  0  0  0  0  0  0  0
  147.8345  131.5738  153.1507 C   0  0  0  0  0  0  0  0  0  0  0  0
  148.7481  132.1762  153.6925 C   0  0  0  0  0  0  0  0  0  0  0  0
  149.8343  132.9165  154.3569 C   0  0  0  0  0  0  0  0  0  0  0  0
  149.8206  134.3417  154.0452 N   0  0  0  0  0  0  0  0  0  0  0  0
  150.2248  135.3195  154.8696 C   0  0  0  0  0  0  0  0  0  0  0  0
  150.6576  135.1161  156.0035 O   0  0  0  0  0  0  0  0  0  0  0  0
  150.0786  136.5270  154.2984 N   0  0  0  0  0  0  0  0  0  0  0  0
  150.3978  137.8015  154.8383 C   0  0  0  0  0  0  0  0  0  0  0  0
  150.3296  139.0271  154.1307 C   0  0  0  0  0  0  0  0  0  0  0  0
  150.6325  140.2039  154.7205 N   0  0  0  0  0  0  0  0  0  0  0  0
  151.0066  140.1617  156.0021 C   0  0  0  0  0  0  0  0  0  0  0  0
  151.3051  141.4739  156.6583 C   0  0  0  0  0  0  0  0  0  0  0  0
  151.9156  141.5269  158.0440 C   0  0  0  0  0  0  0  0  0  0  0  0
  150.4887  141.9544  157.8406 C   0  0  0  0  0  0  0  0  0  0  0  0
  151.0848  139.0735  156.7730 N   0  0  0  0  0  0  0  0  0  0  0  0
  150.7813  137.8929  156.1927 C   0  0  0  0  0  0  0  0  0  0  0  0
  146.4528  129.9859  153.1067 H   0  0  0  0  0  0  0  0  0  0  0  0
  147.0221  130.5285  151.5136 H   0  0  0  0  0  0  0  0  0  0  0  0
  145.8590  131.5152  152.4249 H   0  0  0  0  0  0  0  0  0  0  0  0
  149.7180  132.7901  155.4332 H   0  0  0  0  0  0  0  0  0  0  0  0
  150.7871  132.4620  154.0811 H   0  0  0  0  0  0  0  0  0  0  0  0
  149.4773  134.6022  153.1323 H   0  0  0  0  0  0  0  0  0  0  0  0
  149.6435  136.5386  153.3875 H   0  0  0  0  0  0  0  0  0  0  0  0
  150.0145  139.0918  153.1012 H   0  0  0  0  0  0  0  0  0  0  0  0
  151.6299  142.2150  155.9306 H   0  0  0  0  0  0  0  0  0  0  0  0
  152.0862  140.5841  158.5607 H   0  0  0  0  0  0  0  0  0  0  0  0
  152.6523  142.3040  158.2362 H   0  0  0  0  0  0  0  0  0  0  0  0
  150.2685  143.0184  157.8978 H   0  0  0  0  0  0  0  0  0  0  0  0
  149.7105  141.2964  158.2224 H   0  0  0  0  0  0  0  0  0  0  0  0
  150.8473  137.0136  156.8167 H   0  0  0  0  0  0  0  0  0  0  0  0
  1  2  1  0  0  0  0
  1 18  1  0  0  0  0
  1 19  1  0  0  0  0
  1 20  1  0  0  0  0
  2  3  3  0  0  0  0
  3  4  1  0  0  0  0
  4  5  1  0  0  0  0
  4 21  1  0  0  0  0
  4 22  1  0  0  0  0
  5  6  1  0  0  0  0
  5 23  1  0  0  0  0
  6  7  2  0  0  0  0
  6  8  1  0  0  0  0
  8  9  1  0  0  0  0
  8 24  1  0  0  0  0
  9 17  1  0  0  0  0
  9 10  2  0  0  0  0
 10 11  1  0  0  0  0
 10 25  1  0  0  0  0
 11 12  2  0  0  0  0
 12 13  1  0  0  0  0
 12 16  1  0  0  0  0
 13 15  1  0  0  0  0
 13 14  1  0  0  0  0
 13 26  1  0  0  0  0
 14 15  1  0  0  0  0
 14 27  1  0  0  0  0
 14 28  1  0  0  0  0
 15 29  1  0  0  0  0
 15 30  1  0  0  0  0
 16 17  2  0  0  0  0
 17 31  1  0  0  0  0
M  END
> <s_m_source_file>
AV-unprocessed.smi

> <i_m_source_file_index>
2595

> <i_lp_mmshare_version>
43012

> <i_f3d_flags>
0

> <s_epik_input>
W0NIM11DI0NbQ0gyXVtOSF1DKD1PKVtOSF1jMVtjSF1uYyhuW2NIXTEpW0NIXTJbQ0gyXVtDSDJdMg==

> <s_epik_cmdline>
J2VwaWtfcHl0aG9uJywgJy1waCcsICc3LjAnLCAnLXRuJywgJzgnLCAnLW1hJywgJzIwMCcsICctbWV0YWxfYmluZGluZycsICctaW1hZScsICc8aW5maWxlLm1hZT4nLCAnLW9tYWUnLCAnPG91dGZpbGUubWFlPic=

> <r_lp_tautomer_probability>
1

> <r_epik_Ionization_Penalty>
2.31413e-05

> <r_epik_Ionization_Penalty_Charging>
0

> <r_epik_Ionization_Penalty_Neutral>
2.31413e-05

> <r_epik_State_Penalty>
-0

> <r_epik_Charging_Adjusted_Penalty>
0

> <i_epik_Tot_Q>
0

> <i_epik_Tot_abs_Q>
0

> <r_epik_Metal_State_Penalty>
-0

> <b_epik_Metal_Only>
0

> <s_lp_Force_Field>
OPLS_2005

> <r_lp_Energy>
1.44064

> <b_lp_Chiralities_Consistent>
1

> <s_lp_Variant>
AV-unprocessed.smi:2595-1

> <Gold.Version>
5.8.1

> <Gold.Id.Protein>
6NUR|6NUR_protein|mol2

> <Gold.PLP.Fitness>
37.8215

> <Gold.PLP.PLP>
-28.3955

> <Gold.PLP.part.hbond>
-3.6806

> <Gold.PLP.part.metal>
0.0000

> <Gold.PLP.part.buried>
-3.2877

> <Gold.PLP.part.nonpolar>
-21.4962

> <Gold.PLP.part.repulsive>
0.1920

> <Gold.PLP.ligand.clash>
0.0000

> <Gold.PLP.ligand.torsion>
0.2907

> <Gold.PLP.Chemscore.Hbond>
2.2956

> <Gold.PLP.Chemscore.CHOScore>
1.0000

> <Gold.PLP.Chemscore.Metal>
0.0000

> <Gold.Chemscore.Hbonds>
donor molecule, donor type, donor heavy atom, donor atom, acceptor molecule, acceptor atom, score
      L1  H     5    23       P1  7948  0.12
      L1  H     8    24       P1  7948  1.00
      P1  H  7989  7998       L1    11  0.95
      L1  C    10    25       P1  7957  1.00

> <Gold.PLP.Chemscore.Internal.Correction>
0.1207

> <Gold.Rescore>
     Score         DG    S(hbond)    S(metal)    S(lipo)     H(rot)  DE(clash)    DE(int)     intcor
     13.61     -15.39       1.89        0.00      56.99       1.20       0.06       1.71       ----

> <Gold.Chemscore.Fitness>
13.6126

> <Gold.Chemscore.DG>
-15.3893

> <Gold.Chemscore.ZeroCoef>
-5.4800

> <Gold.Chemscore.Hbond>
1.8903

> <Gold.Chemscore.Metal>
0.0000

> <Gold.Chemscore.Lipo>
56.9894

> <Gold.Chemscore.Internal_Hbond>
0.0000

> <Gold.Chemscore.DEClash>
0.0621

> <Gold.Chemscore.DEInternal>
1.7145

> <Gold.Chemscore.Rot>
1.2001

> <Gold.Chemscore.Internal.Correction>
   9.000000E+99

> <Gold.Chemscore.Hbonds>
donor molecule, donor type, donor heavy atom, donor atom, acceptor molecule, acceptor atom, score
      L1  H     8    24       P1  7948  0.50
      P1  H  7989  7998       L1    11  0.21

> <Gold.Chemscore.Hbond.Weighted>
-6.3138

> <Gold.Chemscore.Metal.Weighted>
-0.0000

> <Gold.Chemscore.Lipo.Weighted>
-6.6678

> <Gold.Chemscore.Internal_Hbond.Weighted>
0.0000

> <Gold.Chemscore.DEClash.Weighted>
0.0621

> <Gold.Chemscore.DEInternal.Weighted>
1.7145

> <Gold.Chemscore.Rot.Weighted>
3.0723

> <Gold.Chemscore.Internal.Correction.Weighted>
   9.000000E+99

> <Gold.Protein.RotatedTorsions>
[ 6907 6896 6895 6894 ] final   47.54 input  -60.11 | X-H torsion
[ 7974 7965 7964 7962 ] final -157.09 input  175.53 | X-H torsion
[ 8008 7997 7996 7995 ] final  121.80 input   59.86 | X-H torsion
[ 10167 10162 10161 10158 ] final  -32.80 input  -65.29 | X-H torsion
[ 10718 10713 10712 10709 ] final   17.74 input   66.30 | X-H torsion
[ 10763 10752 10751 10750 ] final  163.04 input  -60.55 | X-H torsion
[ 11005 11000 10999 10996 ] final   35.02 input  -57.11 | X-H torsion

> <Gold.Protein.ActiveResidues>
 VAL166  LYS551  ARG553  GLY616  TRP617  ASP618  TYR619  PRO620  LYS621  CYS622 
 ASP623  PHE694  ASN695  SER759  ASP760  ASP761  ALA762  ILE779  LEU786  VAL792 
 PHE793  MET794  SER795  GLU796  ALA797  LYS798  CYS799  TRP800  GLU811  SER814 

> <Gold.Protein.RotatedAtoms>
  152.2692  134.7951  160.0416 H   0  0  0  0  0  0  0  0  0  0  0  0  # atno 6907 bound_to 6896
  151.8570  133.3445  159.3699 H   0  0  0  0  0  0  0  0  0  0  0  0  # atno 6908 bound_to 6896
  150.7145  134.5171  159.5680 H   0  0  0  0  0  0  0  0  0  0  0  0  # atno 6909 bound_to 6896
  144.7563  140.4017  143.6009 H   0  0  0  0  0  0  0  0  0  0  0  0  # atno 7974 bound_to 7965
  156.2702  140.2800  156.1366 H   0  0  0  0  0  0  0  0  0  0  0  0  # atno 8008 bound_to 7997
  155.0998  140.0389  157.2711 H   0  0  0  0  0  0  0  0  0  0  0  0  # atno 8009 bound_to 7997
  154.6824  140.2611  155.6900 H   0  0  0  0  0  0  0  0  0  0  0  0  # atno 8010 bound_to 7997
  140.7215  143.3668  151.1856 H   0  0  0  0  0  0  0  0  0  0  0  0  # atno 10167 bound_to 10162
  157.0864  130.6409  149.5838 H   0  0  0  0  0  0  0  0  0  0  0  0  # atno 10718 bound_to 10713
  154.2877  135.2761  155.2669 H   0  0  0  0  0  0  0  0  0  0  0  0  # atno 10763 bound_to 10752
  154.5162  135.5769  153.6647 H   0  0  0  0  0  0  0  0  0  0  0  0  # atno 10764 bound_to 10752
  152.9919  135.6193  154.3040 H   0  0  0  0  0  0  0  0  0  0  0  0  # atno 10765 bound_to 10752
  140.2469  134.3349  155.7904 H   0  0  0  0  0  0  0  0  0  0  0  0  # atno 11005 bound_to 11000
  145.6767  139.1610  143.2724 LP  0  0  0  0  0  0  0  0  0  0  0  0  # atno 17320 bound_to 7965
  146.1577  140.6833  142.9292 LP  0  0  0  0  0  0  0  0  0  0  0  0  # atno 17321 bound_to 7965
  139.7231  143.9192  152.2992 LP  0  0  0  0  0  0  0  0  0  0  0  0  # atno 17342 bound_to 10162
  139.8955  144.6941  150.8722 LP  0  0  0  0  0  0  0  0  0  0  0  0  # atno 17343 bound_to 10162
  155.9909  130.4962  150.7279 LP  0  0  0  0  0  0  0  0  0  0  0  0  # atno 17370 bound_to 10713
  157.4757  131.0897  151.0592 LP  0  0  0  0  0  0  0  0  0  0  0  0  # atno 17371 bound_to 10713
  141.2205  133.7331  156.8975 LP  0  0  0  0  0  0  0  0  0  0  0  0  # atno 17394 bound_to 11000
  140.1597  134.9174  157.2699 LP  0  0  0  0  0  0  0  0  0  0  0  0  # atno 17395 bound_to 11000

$$$$
