AV-unprocessed.smi:2065|AV-procd|sdf|8417|dock6
  -GOLD-   2272011113D 1   1.00000     0.00000
 Structure written by MMmdl.
 38 39  0  0  0  0  0  0  0  0  1 V2000
  153.9622  141.3917  161.4984 C   0  0  0  0  0  0  0  0  0  0  0  0
  153.1246  142.1114  160.4833 C   0  0  0  0  0  0  0  0  0  0  0  0
  152.2547  141.5476  159.5053 C   0  0  0  0  0  0  0  0  0  0  0  0
  151.7597  142.6534  158.8699 C   0  0  0  0  0  0  0  0  0  0  0  0
  150.8691  142.7240  157.8456 N   0  0  0  0  0  0  0  0  0  0  0  0
  150.1744  141.7297  157.2663 C   0  0  0  0  0  0  0  0  0  0  0  0
  150.2355  140.5397  157.5768 O   0  0  0  0  0  0  0  0  0  0  0  0
  149.3929  142.1986  156.2830 N   0  0  0  0  0  0  0  0  0  0  0  0
  148.4895  141.4001  155.4549 C   0  0  2  0  0  0  0  0  0  0  0  0
  147.5262  140.5683  156.3403 C   0  0  0  0  0  0  0  0  0  0  0  0
  146.9438  139.2934  155.6952 C   0  0  0  0  0  0  0  0  0  0  0  0
  146.2503  139.4953  154.3326 C   0  0  0  0  0  0  0  0  0  0  0  0
  147.0859  140.1723  153.2193 C   0  0  0  0  0  0  0  0  0  0  0  0
  148.5331  140.0464  153.3880 N   0  0  0  0  0  0  0  0  0  0  0  0
  149.2512  140.6026  154.3788 C   0  0  0  0  0  0  0  0  0  0  0  0
  150.4724  140.4654  154.4423 O   0  0  0  0  0  0  0  0  0  0  0  0
  152.3062  143.7792  159.4443 N   0  0  0  0  0  0  0  0  0  0  0  0
  152.0880  145.1757  159.1214 C   0  0  0  0  0  0  0  0  0  0  0  0
  153.1514  143.4389  160.4413 N   0  0  0  0  0  0  0  0  0  0  0  0
  153.7925  140.3155  161.4573 H   0  0  0  0  0  0  0  0  0  0  0  0
  153.7277  141.7252  162.5096 H   0  0  0  0  0  0  0  0  0  0  0  0
  155.0243  141.5666  161.3258 H   0  0  0  0  0  0  0  0  0  0  0  0
  152.0418  140.5054  159.3213 H   0  0  0  0  0  0  0  0  0  0  0  0
  150.7205  143.6483  157.4681 H   0  0  0  0  0  0  0  0  0  0  0  0
  149.4033  143.1916  156.1003 H   0  0  0  0  0  0  0  0  0  0  0  0
  147.8826  142.1159  154.8991 H   0  0  0  0  0  0  0  0  0  0  0  0
  148.0443  140.2655  157.2515 H   0  0  0  0  0  0  0  0  0  0  0  0
  146.7075  141.2098  156.6689 H   0  0  0  0  0  0  0  0  0  0  0  0
  147.7329  138.5475  155.5900 H   0  0  0  0  0  0  0  0  0  0  0  0
  146.2285  138.8492  156.3880 H   0  0  0  0  0  0  0  0  0  0  0  0
  145.9377  138.5132  153.9763 H   0  0  0  0  0  0  0  0  0  0  0  0
  145.3277  140.0595  154.4736 H   0  0  0  0  0  0  0  0  0  0  0  0
  146.8147  139.7474  152.2525 H   0  0  0  0  0  0  0  0  0  0  0  0
  146.8269  141.2293  153.1487 H   0  0  0  0  0  0  0  0  0  0  0  0
  149.0295  139.5121  152.6893 H   0  0  0  0  0  0  0  0  0  0  0  0
  152.2808  145.3411  158.0610 H   0  0  0  0  0  0  0  0  0  0  0  0
  152.7533  145.8141  159.7044 H   0  0  0  0  0  0  0  0  0  0  0  0
  151.0547  145.4444  159.3423 H   0  0  0  0  0  0  0  0  0  0  0  0
  1  2  1  0  0  0  0
  1 20  1  0  0  0  0
  1 21  1  0  0  0  0
  1 22  1  0  0  0  0
  2 19  2  0  0  0  0
  2  3  1  0  0  0  0
  3  4  2  0  0  0  0
  3 23  1  0  0  0  0
  4  5  1  0  0  0  0
  4 17  1  0  0  0  0
  5  6  1  0  0  0  0
  5 24  1  0  0  0  0
  6  7  2  0  0  0  0
  6  8  1  0  0  0  0
  8  9  1  0  0  0  0
  8 25  1  0  0  0  0
  9 15  1  0  0  0  0
  9 10  1  0  0  0  0
  9 26  1  0  0  0  0
 10 11  1  0  0  0  0
 10 27  1  0  0  0  0
 10 28  1  0  0  0  0
 11 12  1  0  0  0  0
 11 29  1  0  0  0  0
 11 30  1  0  0  0  0
 12 13  1  0  0  0  0
 12 31  1  0  0  0  0
 12 32  1  0  0  0  0
 13 14  1  0  0  0  0
 13 33  1  0  0  0  0
 13 34  1  0  0  0  0
 14 15  1  0  0  0  0
 14 35  1  0  0  0  0
 15 16  2  0  0  0  0
 17 18  1  0  0  0  0
 17 19  1  0  0  0  0
 18 36  1  0  0  0  0
 18 37  1  0  0  0  0
 18 38  1  0  0  0  0
M  END
> <s_m_source_file>
AV-unprocessed.smi

> <i_m_source_file_index>
2065

> <i_lp_mmshare_version>
43012

> <i_f3d_flags>
0

> <s_epik_input>
W0NIM11jMVtjSF1jKG4objEpW0NIM10pW05IXUMoPU8pW05IXVtDQEBIXTJbQ0gyXVtDSDJdW0NIMl1bQ0gyXVtOSF1DMj1P

> <s_epik_cmdline>
J2VwaWtfcHl0aG9uJywgJy1waCcsICc3LjAnLCAnLXRuJywgJzgnLCAnLW1hJywgJzIwMCcsICctbWV0YWxfYmluZGluZycsICctaW1hZScsICc8aW5maWxlLm1hZT4nLCAnLW9tYWUnLCAnPG91dGZpbGUubWFlPic=

> <r_lp_tautomer_probability>
1

> <r_epik_Ionization_Penalty>
8.1752e-05

> <r_epik_Ionization_Penalty_Charging>
0

> <r_epik_Ionization_Penalty_Neutral>
8.1752e-05

> <r_epik_State_Penalty>
-0

> <r_epik_Charging_Adjusted_Penalty>
0

> <i_epik_Tot_Q>
0

> <i_epik_Tot_abs_Q>
0

> <r_epik_Metal_State_Penalty>
-0

> <b_epik_Metal_Only>
0

> <s_lp_Force_Field>
OPLS_2005

> <r_lp_Energy>
15.6016

> <b_lp_Chiralities_Consistent>
1

> <s_lp_Variant>
AV-unprocessed.smi:2065-1

> <Gold.Version>
5.8.1

> <Gold.Id.Protein>
6NUR|6NUR_protein|mol2

> <Gold.PLP.Fitness>
43.1143

> <Gold.PLP.PLP>
-35.6582

> <Gold.PLP.part.hbond>
-2.7551

> <Gold.PLP.part.metal>
0.0000

> <Gold.PLP.part.buried>
-4.1378

> <Gold.PLP.part.nonpolar>
-28.8639

> <Gold.PLP.part.repulsive>
0.3524

> <Gold.PLP.ligand.clash>
0.0000

> <Gold.PLP.ligand.torsion>
0.1379

> <Gold.PLP.Chemscore.Hbond>
2.5600

> <Gold.PLP.Chemscore.CHOScore>
0.0000

> <Gold.PLP.Chemscore.Metal>
0.0000

> <Gold.Chemscore.Hbonds>
donor molecule, donor type, donor heavy atom, donor atom, acceptor molecule, acceptor atom, score
      L1  H     8    25       P1  8028  1.00
      L1  H    14    35       P1  7957  0.58
      P1  H  7989  7998       L1    16  1.00

> <Gold.PLP.Chemscore.Internal.Correction>
0.0519

> <Gold.Rescore>
     Score         DG    S(hbond)    S(metal)    S(lipo)     H(rot)  DE(clash)    DE(int)     intcor
     16.60     -19.16       2.70        0.00      61.79       1.00       0.19       2.37       ----

> <Gold.Chemscore.Fitness>
16.6000

> <Gold.Chemscore.DG>
-19.1605

> <Gold.Chemscore.ZeroCoef>
-5.4800

> <Gold.Chemscore.Hbond>
2.6978

> <Gold.Chemscore.Metal>
0.0000

> <Gold.Chemscore.Lipo>
61.7931

> <Gold.Chemscore.Internal_Hbond>
0.0000

> <Gold.Chemscore.DEClash>
0.1922

> <Gold.Chemscore.DEInternal>
2.3683

> <Gold.Chemscore.Rot>
1.0000

> <Gold.Chemscore.Internal.Correction>
   9.000000E+99

> <Gold.Chemscore.Hbonds>
donor molecule, donor type, donor heavy atom, donor atom, acceptor molecule, acceptor atom, score
      L1  H     8    25       P1  8028  1.00
      L1  H    14    35       P1  7957  0.58
      P1  H  7989  7998       L1    16  0.90

> <Gold.Chemscore.Hbond.Weighted>
-9.0107

> <Gold.Chemscore.Metal.Weighted>
-0.0000

> <Gold.Chemscore.Lipo.Weighted>
-7.2298

> <Gold.Chemscore.Internal_Hbond.Weighted>
0.0000

> <Gold.Chemscore.DEClash.Weighted>
0.1922

> <Gold.Chemscore.DEInternal.Weighted>
2.3683

> <Gold.Chemscore.Rot.Weighted>
2.5600

> <Gold.Chemscore.Internal.Correction.Weighted>
   9.000000E+99

> <Gold.Protein.RotatedTorsions>
[ 6907 6896 6895 6894 ] final -122.31 input  -60.11 | X-H torsion
[ 7974 7965 7964 7962 ] final -169.06 input  175.53 | X-H torsion
[ 8008 7997 7996 7995 ] final -128.14 input   59.86 | X-H torsion
[ 10167 10162 10161 10158 ] final  -59.56 input  -65.29 | X-H torsion
[ 10718 10713 10712 10709 ] final  -92.78 input   66.30 | X-H torsion
[ 10763 10752 10751 10750 ] final   58.09 input  -60.55 | X-H torsion
[ 11005 11000 10999 10996 ] final  110.57 input  -57.11 | X-H torsion

> <Gold.Protein.ActiveResidues>
 VAL166  LYS551  ARG553  GLY616  TRP617  ASP618  TYR619  PRO620  LYS621  CYS622 
 ASP623  PHE694  ASN695  SER759  ASP760  ASP761  ALA762  ILE779  LEU786  VAL792 
 PHE793  MET794  SER795  GLU796  ALA797  LYS798  CYS799  TRP800  GLU811  SER814 

> <Gold.Protein.RotatedAtoms>
  150.8564  133.7709  159.3007 H   0  0  0  0  0  0  0  0  0  0  0  0  # atno 6907 bound_to 6896
  151.5365  135.1067  159.9925 H   0  0  0  0  0  0  0  0  0  0  0  0  # atno 6908 bound_to 6896
  152.4593  133.7744  159.6872 H   0  0  0  0  0  0  0  0  0  0  0  0  # atno 6909 bound_to 6896
  144.7192  140.2278  143.6308 H   0  0  0  0  0  0  0  0  0  0  0  0  # atno 7974 bound_to 7965
  155.2578  140.0435  157.2994 H   0  0  0  0  0  0  0  0  0  0  0  0  # atno 8008 bound_to 7997
  154.5729  140.2379  155.8134 H   0  0  0  0  0  0  0  0  0  0  0  0  # atno 8009 bound_to 7997
  156.2136  140.2991  155.9797 H   0  0  0  0  0  0  0  0  0  0  0  0  # atno 8010 bound_to 7997
  140.6127  143.2392  151.5671 H   0  0  0  0  0  0  0  0  0  0  0  0  # atno 10167 bound_to 10162
  156.0006  130.5000  150.5677 H   0  0  0  0  0  0  0  0  0  0  0  0  # atno 10718 bound_to 10713
  152.9863  135.5619  154.5496 H   0  0  0  0  0  0  0  0  0  0  0  0  # atno 10763 bound_to 10752
  154.4935  135.2794  155.1480 H   0  0  0  0  0  0  0  0  0  0  0  0  # atno 10764 bound_to 10752
  154.2939  135.6321  153.5450 H   0  0  0  0  0  0  0  0  0  0  0  0  # atno 10765 bound_to 10752
  139.8884  134.9487  156.6299 H   0  0  0  0  0  0  0  0  0  0  0  0  # atno 11005 bound_to 11000
  145.8440  139.2143  143.1811 LP  0  0  0  0  0  0  0  0  0  0  0  0  # atno 17320 bound_to 7965
  146.0321  140.8248  142.9871 LP  0  0  0  0  0  0  0  0  0  0  0  0  # atno 17321 bound_to 7965
  139.5374  144.2743  152.1280 LP  0  0  0  0  0  0  0  0  0  0  0  0  # atno 17342 bound_to 10162
  140.1945  144.4718  150.6462 LP  0  0  0  0  0  0  0  0  0  0  0  0  # atno 17343 bound_to 10162
  157.3576  131.0744  151.1662 LP  0  0  0  0  0  0  0  0  0  0  0  0  # atno 17370 bound_to 10713
  157.2458  130.6590  149.5909 LP  0  0  0  0  0  0  0  0  0  0  0  0  # atno 17371 bound_to 10713
  140.7675  133.8766  155.8465 LP  0  0  0  0  0  0  0  0  0  0  0  0  # atno 17394 bound_to 11000
  140.9870  134.1329  157.4443 LP  0  0  0  0  0  0  0  0  0  0  0  0  # atno 17395 bound_to 11000

$$$$
