AV-unprocessed.smi:2922|AV-procd|sdf|11199|dock10
  -GOLD-   2272016 93D 1   1.00000     0.00000
 Structure written by MMmdl.
 30 31  0  0  0  0  0  0  0  0  1 V2000
  149.9927  138.3501  153.1293 N   0  0  0  0  0  0  0  0  0  0  0  0
  150.4745  138.7252  154.3177 C   0  0  0  0  0  0  0  0  0  0  0  0
  150.6774  137.9145  155.2198 O   0  0  0  0  0  0  0  0  0  0  0  0
  150.7467  140.2214  154.5358 C   0  0  1  0  0  0  0  0  0  0  0  0
  149.5215  141.1315  154.3237 C   0  0  0  0  0  0  0  0  0  0  0  0
  149.3413  141.8208  155.6643 C   0  0  0  0  0  0  0  0  0  0  0  0
  150.7410  141.7500  156.2682 C   0  0  1  0  0  0  0  0  0  0  0  0
  150.7828  141.8886  157.7956 C   0  0  0  0  0  0  0  0  0  0  0  0
  152.0886  141.5369  158.3330 N   0  0  0  0  0  0  0  0  0  0  0  0
  152.5080  141.8404  159.6141 C   0  0  0  0  0  0  0  0  0  0  0  0
  153.4910  141.1057  160.1498 N   0  0  0  0  0  0  0  0  0  0  0  0
  153.8831  141.4243  161.4030 C   0  0  0  0  0  0  0  0  0  0  0  0
  153.2855  142.4831  162.1152 C   0  0  0  0  0  0  0  0  0  0  0  0
  153.7824  142.8962  163.7147 Cl  0  0  0  0  0  0  0  0  0  0  0  0
  152.2607  143.1873  161.4522 C   0  0  0  0  0  0  0  0  0  0  0  0
  151.8744  142.8609  160.1988 N   0  0  0  0  0  0  0  0  0  0  0  0
  151.1587  140.4509  155.8833 O   0  0  0  0  0  0  0  0  0  0  0  0
  149.8046  137.3751  152.9469 H   0  0  0  0  0  0  0  0  0  0  0  0
  149.8226  139.0460  152.4173 H   0  0  0  0  0  0  0  0  0  0  0  0
  151.5532  140.5310  153.8696 H   0  0  0  0  0  0  0  0  0  0  0  0
  149.7378  141.8654  153.5464 H   0  0  0  0  0  0  0  0  0  0  0  0
  148.6143  140.6018  154.0299 H   0  0  0  0  0  0  0  0  0  0  0  0
  148.9680  142.8410  155.5717 H   0  0  0  0  0  0  0  0  0  0  0  0
  148.6375  141.2555  156.2770 H   0  0  0  0  0  0  0  0  0  0  0  0
  151.3990  142.4821  155.7958 H   0  0  0  0  0  0  0  0  0  0  0  0
  150.5279  142.9076  158.0894 H   0  0  0  0  0  0  0  0  0  0  0  0
  150.0364  141.2309  158.2423 H   0  0  0  0  0  0  0  0  0  0  0  0
  152.7266  141.0192  157.7460 H   0  0  0  0  0  0  0  0  0  0  0  0
  154.6759  140.8325  161.8363 H   0  0  0  0  0  0  0  0  0  0  0  0
  151.7497  144.0127  161.9254 H   0  0  0  0  0  0  0  0  0  0  0  0
  1  2  1  0  0  0  0
  1 18  1  0  0  0  0
  1 19  1  0  0  0  0
  2  3  2  0  0  0  0
  2  4  1  0  0  0  0
  4 17  1  0  0  0  0
  4  5  1  0  0  0  0
  4 20  1  0  0  0  0
  5  6  1  0  0  0  0
  5 21  1  0  0  0  0
  5 22  1  0  0  0  0
  6  7  1  0  0  0  0
  6 23  1  0  0  0  0
  6 24  1  0  0  0  0
  7  8  1  0  0  0  0
  7 17  1  0  0  0  0
  7 25  1  0  0  0  0
  8  9  1  0  0  0  0
  8 26  1  0  0  0  0
  8 27  1  0  0  0  0
  9 10  1  0  0  0  0
  9 28  1  0  0  0  0
 10 16  1  0  0  0  0
 10 11  2  0  0  0  0
 11 12  1  0  0  0  0
 12 13  2  0  0  0  0
 12 29  1  0  0  0  0
 13 14  1  0  0  0  0
 13 15  1  0  0  0  0
 15 16  2  0  0  0  0
 15 30  1  0  0  0  0
M  END
> <s_m_source_file>
AV-unprocessed.smi

> <i_m_source_file_index>
2922

> <i_lp_mmshare_version>
43012

> <i_f3d_flags>
0

> <s_epik_input>
W05IMl1DKD1PKVtDQEBIXTFbQ0gyXVtDSDJdW0NASF0oTzEpW0NIMl1bTkhdYzJuW2NIXWMoQ2wpW2NIXW4y

> <s_epik_cmdline>
J2VwaWtfcHl0aG9uJywgJy1waCcsICc3LjAnLCAnLXRuJywgJzgnLCAnLW1hJywgJzIwMCcsICctbWV0YWxfYmluZGluZycsICctaW1hZScsICc8aW5maWxlLm1hZT4nLCAnLW9tYWUnLCAnPG91dGZpbGUubWFlPic=

> <r_lp_tautomer_probability>
1

> <r_epik_Ionization_Penalty>
6.13883e-06

> <r_epik_Ionization_Penalty_Charging>
0

> <r_epik_Ionization_Penalty_Neutral>
6.13883e-06

> <r_epik_State_Penalty>
-0

> <r_epik_Charging_Adjusted_Penalty>
0

> <i_epik_Tot_Q>
0

> <i_epik_Tot_abs_Q>
0

> <r_epik_Metal_State_Penalty>
-0

> <b_epik_Metal_Only>
0

> <s_lp_Force_Field>
OPLS_2005

> <r_lp_Energy>
9.86334

> <b_lp_Chiralities_Consistent>
1

> <s_lp_Variant>
AV-unprocessed.smi:2922-2

> <Gold.Version>
5.8.1

> <Gold.Id.Protein>
6NUR|6NUR_protein|mol2

> <Gold.PLP.Fitness>
41.0941

> <Gold.PLP.PLP>
-35.9205

> <Gold.PLP.part.hbond>
-2.4627

> <Gold.PLP.part.metal>
0.0000

> <Gold.PLP.part.buried>
-0.3057

> <Gold.PLP.part.nonpolar>
-32.0254

> <Gold.PLP.part.repulsive>
0.3147

> <Gold.PLP.ligand.clash>
0.0000

> <Gold.PLP.ligand.torsion>
0.2677

> <Gold.PLP.Chemscore.Hbond>
1.8960

> <Gold.PLP.Chemscore.CHOScore>
0.0000

> <Gold.PLP.Chemscore.Metal>
0.0000

> <Gold.Chemscore.Hbonds>
donor molecule, donor type, donor heavy atom, donor atom, acceptor molecule, acceptor atom, score
      L1  H     1    18       P1  7948  0.90
      L1  H     1    19       P1  7957  1.00

> <Gold.PLP.Chemscore.Internal.Correction>
0.0211

> <Gold.Rescore>
     Score         DG    S(hbond)    S(metal)    S(lipo)     H(rot)  DE(clash)    DE(int)     intcor
     13.48     -16.01       1.79        0.00      80.83       1.91       2.28       0.25       ----

> <Gold.Chemscore.Fitness>
13.4795

> <Gold.Chemscore.DG>
-16.0124

> <Gold.Chemscore.ZeroCoef>
-5.4800

> <Gold.Chemscore.Hbond>
1.7891

> <Gold.Chemscore.Metal>
0.0000

> <Gold.Chemscore.Lipo>
80.8286

> <Gold.Chemscore.Internal_Hbond>
0.0000

> <Gold.Chemscore.DEClash>
2.2833

> <Gold.Chemscore.DEInternal>
0.2497

> <Gold.Chemscore.Rot>
1.9142

> <Gold.Chemscore.Internal.Correction>
   9.000000E+99

> <Gold.Chemscore.Hbonds>
donor molecule, donor type, donor heavy atom, donor atom, acceptor molecule, acceptor atom, score
      L1  H     1    18       P1  7948  0.30
      L1  H     1    19       P1  7957  0.69

> <Gold.Chemscore.Hbond.Weighted>
-5.9757

> <Gold.Chemscore.Metal.Weighted>
-0.0000

> <Gold.Chemscore.Lipo.Weighted>
-9.4569

> <Gold.Chemscore.Internal_Hbond.Weighted>
0.0000

> <Gold.Chemscore.DEClash.Weighted>
2.2833

> <Gold.Chemscore.DEInternal.Weighted>
0.2497

> <Gold.Chemscore.Rot.Weighted>
4.9002

> <Gold.Chemscore.Internal.Correction.Weighted>
   9.000000E+99

> <Gold.Protein.RotatedTorsions>
[ 6907 6896 6895 6894 ] final  126.25 input  -60.11 | X-H torsion
[ 7974 7965 7964 7962 ] final  -63.62 input  175.53 | X-H torsion
[ 8008 7997 7996 7995 ] final -119.71 input   59.86 | X-H torsion
[ 10167 10162 10161 10158 ] final   76.58 input  -65.29 | X-H torsion
[ 10718 10713 10712 10709 ] final -132.79 input   66.30 | X-H torsion
[ 10763 10752 10751 10750 ] final -160.31 input  -60.55 | X-H torsion
[ 11005 11000 10999 10996 ] final -146.80 input  -57.11 | X-H torsion

> <Gold.Protein.ActiveResidues>
 VAL166  LYS551  ARG553  GLY616  TRP617  ASP618  TYR619  PRO620  LYS621  CYS622 
 ASP623  PHE694  ASN695  SER759  ASP760  ASP761  ALA762  ILE779  LEU786  VAL792 
 PHE793  MET794  SER795  GLU796  ALA797  LYS798  CYS799  TRP800  GLU811  SER814 

> <Gold.Protein.RotatedAtoms>
  152.3920  133.6692  159.6244 H   0  0  0  0  0  0  0  0  0  0  0  0  # atno 6907 bound_to 6896
  150.7826  133.8939  159.3330 H   0  0  0  0  0  0  0  0  0  0  0  0  # atno 6908 bound_to 6896
  151.6723  135.0975  160.0251 H   0  0  0  0  0  0  0  0  0  0  0  0  # atno 6909 bound_to 6896
  145.7768  140.8783  143.0351 H   0  0  0  0  0  0  0  0  0  0  0  0  # atno 7974 bound_to 7965
  155.1201  140.0398  157.2747 H   0  0  0  0  0  0  0  0  0  0  0  0  # atno 8008 bound_to 7997
  154.6620  140.2593  155.7073 H   0  0  0  0  0  0  0  0  0  0  0  0  # atno 8009 bound_to 7997
  156.2623  140.2815  156.1096 H   0  0  0  0  0  0  0  0  0  0  0  0  # atno 8010 bound_to 7997
  139.9908  144.5758  150.7820 H   0  0  0  0  0  0  0  0  0  0  0  0  # atno 10167 bound_to 10162
  156.2382  130.7080  151.0930 H   0  0  0  0  0  0  0  0  0  0  0  0  # atno 10718 bound_to 10713
  154.7401  135.3066  154.8743 H   0  0  0  0  0  0  0  0  0  0  0  0  # atno 10763 bound_to 10752
  153.9560  135.6758  153.4748 H   0  0  0  0  0  0  0  0  0  0  0  0  # atno 10764 bound_to 10752
  153.1000  135.4916  154.8774 H   0  0  0  0  0  0  0  0  0  0  0  0  # atno 10765 bound_to 10752
  140.7782  134.3109  157.5054 H   0  0  0  0  0  0  0  0  0  0  0  0  # atno 11005 bound_to 11000
  144.6803  139.9933  143.7484 LP  0  0  0  0  0  0  0  0  0  0  0  0  # atno 17320 bound_to 7965
  146.0114  139.3173  143.0868 LP  0  0  0  0  0  0  0  0  0  0  0  0  # atno 17321 bound_to 7965
  140.7455  143.2877  151.3417 LP  0  0  0  0  0  0  0  0  0  0  0  0  # atno 17342 bound_to 10162
  139.6341  144.0663  152.2501 LP  0  0  0  0  0  0  0  0  0  0  0  0  # atno 17343 bound_to 10162
  157.7164  131.0707  150.6311 LP  0  0  0  0  0  0  0  0  0  0  0  0  # atno 17370 bound_to 10713
  156.6382  130.4451  149.5762 LP  0  0  0  0  0  0  0  0  0  0  0  0  # atno 17371 bound_to 10713
  139.8746  134.9302  156.3497 LP  0  0  0  0  0  0  0  0  0  0  0  0  # atno 17394 bound_to 11000
  140.9508  133.7452  156.0269 LP  0  0  0  0  0  0  0  0  0  0  0  0  # atno 17395 bound_to 11000

$$$$
