AV-unprocessed.smi:3240|AV-procd|sdf|12381|dock9
  -GOLD-   2272018243D 1   1.00000     0.00000
 Structure written by MMmdl.
 44 45  0  0  0  0  0  0  0  0  2 V2000
  143.8175  143.8338  155.2886 C   0  0  0  0  0  0  0  0  0  0  0  0
  145.0608  142.9942  155.3477 C   0  0  0  0  0  0  0  0  0  0  0  0
  145.5080  142.1645  156.4151 C   0  0  0  0  0  0  0  0  0  0  0  0
  146.6522  141.5565  156.1477 N   0  0  0  0  0  0  0  0  0  0  0  0
  146.9722  141.9690  154.9029 N   0  0  0  0  0  0  0  0  0  0  0  0
  148.1986  141.5045  154.2775 C   0  0  0  0  0  0  0  0  0  0  0  0
  149.2202  140.9532  155.2933 C   0  0  2  0  0  0  0  0  0  0  0  0
  148.7497  139.6014  155.8553 C   0  0  0  0  0  0  0  0  0  0  0  0
  149.4390  141.9373  156.3781 N   0  3  0  0  0  0  0  0  0  0  0  0
  150.7378  141.8342  157.0799 C   0  0  0  0  0  0  0  0  0  0  0  0
  151.0915  143.1276  157.8470 C   0  0  0  0  0  0  0  0  0  0  0  0
  151.1805  144.1697  156.8911 O   0  0  0  0  0  0  0  0  0  0  0  0
  150.0182  143.4882  158.9044 C   0  0  0  0  0  0  0  0  0  0  0  0
  150.4167  144.6904  159.7795 C   0  0  0  0  0  0  0  0  0  0  0  0
  151.7818  144.4704  160.4457 C   0  0  0  0  0  0  0  0  0  0  0  0
  152.8620  144.1786  159.3954 C   0  0  0  0  0  0  0  0  0  0  0  0
  152.4773  142.9736  158.5186 C   0  0  0  0  0  0  0  0  0  0  0  0
  146.0335  142.8449  154.4002 C   0  0  0  0  0  0  0  0  0  0  0  0
  143.2324  143.7580  156.2056 H   0  0  0  0  0  0  0  0  0  0  0  0
  143.1675  143.5319  154.4672 H   0  0  0  0  0  0  0  0  0  0  0  0
  144.0508  144.8887  155.1431 H   0  0  0  0  0  0  0  0  0  0  0  0
  145.0380  141.9889  157.3716 H   0  0  0  0  0  0  0  0  0  0  0  0
  147.9453  140.7408  153.5406 H   0  0  0  0  0  0  0  0  0  0  0  0
  148.6288  142.3402  153.7240 H   0  0  0  0  0  0  0  0  0  0  0  0
  150.1675  140.7968  154.7749 H   0  0  0  0  0  0  0  0  0  0  0  0
  148.5627  138.8898  155.0504 H   0  0  0  0  0  0  0  0  0  0  0  0
  147.8251  139.7072  156.4239 H   0  0  0  0  0  0  0  0  0  0  0  0
  149.4954  139.1513  156.5103 H   0  0  0  0  0  0  0  0  0  0  0  0
  149.4067  142.8581  155.9632 H   0  0  0  0  0  0  0  0  0  0  0  0
  150.7066  140.9950  157.7749 H   0  0  0  0  0  0  0  0  0  0  0  0
  151.5180  141.6110  156.3503 H   0  0  0  0  0  0  0  0  0  0  0  0
  150.3092  144.3692  156.5825 H   0  0  0  0  0  0  0  0  0  0  0  0
  149.0612  143.6980  158.4251 H   0  0  0  0  0  0  0  0  0  0  0  0
  149.8492  142.6268  159.5521 H   0  0  0  0  0  0  0  0  0  0  0  0
  150.4481  145.5964  159.1730 H   0  0  0  0  0  0  0  0  0  0  0  0
  149.6566  144.8598  160.5427 H   0  0  0  0  0  0  0  0  0  0  0  0
  152.0579  145.3491  161.0296 H   0  0  0  0  0  0  0  0  0  0  0  0
  151.7181  143.6389  161.1488 H   0  0  0  0  0  0  0  0  0  0  0  0
  153.0140  145.0595  158.7706 H   0  0  0  0  0  0  0  0  0  0  0  0
  153.8149  143.9861  159.8893 H   0  0  0  0  0  0  0  0  0  0  0  0
  152.4747  142.0796  159.1442 H   0  0  0  0  0  0  0  0  0  0  0  0
  153.2479  142.8089  157.7642 H   0  0  0  0  0  0  0  0  0  0  0  0
  146.1320  143.2851  153.4186 H   0  0  0  0  0  0  0  0  0  0  0  0
  148.6893  141.8634  157.0503 H   0  0  0  0  0  0  0  0  0  0  0  0
  1  2  1  0  0  0  0
  1 19  1  0  0  0  0
  1 20  1  0  0  0  0
  1 21  1  0  0  0  0
  2 18  2  0  0  0  0
  2  3  1  0  0  0  0
  3  4  2  0  0  0  0
  3 22  1  0  0  0  0
  4  5  1  0  0  0  0
  5  6  1  0  0  0  0
  5 18  1  0  0  0  0
  6  7  1  0  0  0  0
  6 23  1  0  0  0  0
  6 24  1  0  0  0  0
  7  8  1  0  0  0  0
  7  9  1  0  0  0  0
  7 25  1  0  0  0  0
  8 26  1  0  0  0  0
  8 27  1  0  0  0  0
  8 28  1  0  0  0  0
  9 10  1  0  0  0  0
  9 29  1  0  0  0  0
  9 44  1  0  0  0  0
 10 11  1  0  0  0  0
 10 30  1  0  0  0  0
 10 31  1  0  0  0  0
 11 17  1  0  0  0  0
 11 12  1  0  0  0  0
 11 13  1  0  0  0  0
 12 32  1  0  0  0  0
 13 14  1  0  0  0  0
 13 33  1  0  0  0  0
 13 34  1  0  0  0  0
 14 15  1  0  0  0  0
 14 35  1  0  0  0  0
 14 36  1  0  0  0  0
 15 16  1  0  0  0  0
 15 37  1  0  0  0  0
 15 38  1  0  0  0  0
 16 17  1  0  0  0  0
 16 39  1  0  0  0  0
 16 40  1  0  0  0  0
 17 41  1  0  0  0  0
 17 42  1  0  0  0  0
 18 43  1  0  0  0  0
M  CHG  1   9   1
M  END
> <s_m_source_file>
AV-unprocessed.smi

> <i_m_source_file_index>
3240

> <i_lp_mmshare_version>
43012

> <i_f3d_flags>
0

> <s_epik_input>
W0NIM11jMVtjSF1ubihbY0hdMSlbQ0gyXVtDQEhdKFtDSDNdKVtOSF1bQ0gyXUMyKFtPSF0pW0NIMl1bQ0gyXVtDSDJdW0NIMl1bQ0gyXTI=

> <s_epik_cmdline>
J2VwaWtfcHl0aG9uJywgJy1waCcsICc3LjAnLCAnLXRuJywgJzgnLCAnLW1hJywgJzIwMCcsICctbWV0YWxfYmluZGluZycsICctaW1hZScsICc8aW5maWxlLm1hZT4nLCAnLW9tYWUnLCAnPG91dGZpbGUubWFlPic=

> <r_lp_tautomer_probability>
1

> <r_epik_Ionization_Penalty>
0.0111573

> <r_epik_Ionization_Penalty_Charging>
0.0111472

> <r_epik_Ionization_Penalty_Neutral>
1.01652e-05

> <r_epik_State_Penalty>
0.00856328

> <r_epik_Charging_Adjusted_Penalty>
0.0197104

> <i_epik_Tot_Q>
1

> <i_epik_Tot_abs_Q>
1

> <r_epik_Metal_State_Penalty>
0.00856448

> <b_epik_Metal_Only>
0

> <s_lp_Force_Field>
OPLS_2005

> <r_lp_Energy>
16.744

> <b_lp_Chiralities_Consistent>
1

> <s_lp_Variant>
AV-unprocessed.smi:3240-1

> <Gold.Version>
5.8.1

> <Gold.Id.Protein>
6NUR|6NUR_protein|mol2

> <Gold.PLP.Fitness>
47.8611

> <Gold.PLP.PLP>
-40.1449

> <Gold.PLP.part.hbond>
-2.0000

> <Gold.PLP.part.metal>
0.0000

> <Gold.PLP.part.buried>
-6.8269

> <Gold.PLP.part.nonpolar>
-32.9681

> <Gold.PLP.part.repulsive>
0.1694

> <Gold.PLP.ligand.clash>
0.0000

> <Gold.PLP.ligand.torsion>
0.6574

> <Gold.PLP.Chemscore.Hbond>
3.0000

> <Gold.PLP.Chemscore.CHOScore>
0.0000

> <Gold.PLP.Chemscore.Metal>
0.0000

> <Gold.Chemscore.Hbonds>
donor molecule, donor type, donor heavy atom, donor atom, acceptor molecule, acceptor atom, score
      L1  H     9    29       P1  8028  2.00
      L1  H    12    32       P1  8028  1.00

> <Gold.PLP.Chemscore.Internal.Correction>
0.0311

> <Gold.Rescore>
     Score         DG    S(hbond)    S(metal)    S(lipo)     H(rot)  DE(clash)    DE(int)     intcor
     17.08     -19.02       1.93        0.00     106.97       2.12       0.08       1.85       ----

> <Gold.Chemscore.Fitness>
17.0808

> <Gold.Chemscore.DG>
-19.0181

> <Gold.Chemscore.ZeroCoef>
-5.4800

> <Gold.Chemscore.Hbond>
1.9306

> <Gold.Chemscore.Metal>
0.0000

> <Gold.Chemscore.Lipo>
106.9671

> <Gold.Chemscore.Internal_Hbond>
0.0000

> <Gold.Chemscore.DEClash>
0.0837

> <Gold.Chemscore.DEInternal>
1.8536

> <Gold.Chemscore.Rot>
2.1193

> <Gold.Chemscore.Internal.Correction>
   9.000000E+99

> <Gold.Chemscore.Hbonds>
donor molecule, donor type, donor heavy atom, donor atom, acceptor molecule, acceptor atom, score
      L1  H     9    29       P1  8028  0.98
      L1  H    12    32       P1  8028  0.99

> <Gold.Chemscore.Hbond.Weighted>
-6.4483

> <Gold.Chemscore.Metal.Weighted>
-0.0000

> <Gold.Chemscore.Lipo.Weighted>
-12.5151

> <Gold.Chemscore.Internal_Hbond.Weighted>
0.0000

> <Gold.Chemscore.DEClash.Weighted>
0.0837

> <Gold.Chemscore.DEInternal.Weighted>
1.8536

> <Gold.Chemscore.Rot.Weighted>
5.4254

> <Gold.Chemscore.Internal.Correction.Weighted>
   9.000000E+99

> <Gold.Protein.RotatedTorsions>
[ 6907 6896 6895 6894 ] final  -22.38 input  -60.11 | X-H torsion
[ 7974 7965 7964 7962 ] final  -73.00 input  175.53 | X-H torsion
[ 8008 7997 7996 7995 ] final  -42.20 input   59.86 | X-H torsion
[ 10167 10162 10161 10158 ] final -176.00 input  -65.29 | X-H torsion
[ 10718 10713 10712 10709 ] final   46.86 input   66.30 | X-H torsion
[ 10763 10752 10751 10750 ] final  -83.21 input  -60.55 | X-H torsion
[ 11005 11000 10999 10996 ] final   84.63 input  -57.11 | X-H torsion

> <Gold.Protein.ActiveResidues>
 VAL166  LYS551  ARG553  GLY616  TRP617  ASP618  TYR619  PRO620  LYS621  CYS622 
 ASP623  PHE694  ASN695  SER759  ASP760  ASP761  ALA762  ILE779  LEU786  VAL792 
 PHE793  MET794  SER795  GLU796  ALA797  LYS798  CYS799  TRP800  GLU811  SER814 

> <Gold.Protein.RotatedAtoms>
  151.2194  135.0512  159.8943 H   0  0  0  0  0  0  0  0  0  0  0  0  # atno 6907 bound_to 6896
  152.5417  134.0657  159.8182 H   0  0  0  0  0  0  0  0  0  0  0  0  # atno 6908 bound_to 6896
  151.0821  133.5334  159.2652 H   0  0  0  0  0  0  0  0  0  0  0  0  # atno 6909 bound_to 6896
  145.6579  140.9262  143.0950 H   0  0  0  0  0  0  0  0  0  0  0  0  # atno 7974 bound_to 7965
  154.4000  140.1479  156.3316 H   0  0  0  0  0  0  0  0  0  0  0  0  # atno 8008 bound_to 7997
  155.8438  140.3461  155.5628 H   0  0  0  0  0  0  0  0  0  0  0  0  # atno 8009 bound_to 7997
  155.8058  140.0877  157.1922 H   0  0  0  0  0  0  0  0  0  0  0  0  # atno 8010 bound_to 7997
  139.5552  144.2008  152.1146 H   0  0  0  0  0  0  0  0  0  0  0  0  # atno 10167 bound_to 10162
  157.4525  130.8147  149.7803 H   0  0  0  0  0  0  0  0  0  0  0  0  # atno 10718 bound_to 10713
  154.5850  135.5564  153.7223 H   0  0  0  0  0  0  0  0  0  0  0  0  # atno 10763 bound_to 10752
  153.0095  135.6329  154.1928 H   0  0  0  0  0  0  0  0  0  0  0  0  # atno 10764 bound_to 10752
  154.1869  135.2884  155.3014 H   0  0  0  0  0  0  0  0  0  0  0  0  # atno 10765 bound_to 10752
  139.8994  134.8230  156.2472 H   0  0  0  0  0  0  0  0  0  0  0  0  # atno 11005 bound_to 11000
  144.7099  139.8410  143.7418 LP  0  0  0  0  0  0  0  0  0  0  0  0  # atno 17320 bound_to 7965
  146.1150  139.4160  143.0264 LP  0  0  0  0  0  0  0  0  0  0  0  0  # atno 17321 bound_to 7965
  140.1511  144.5114  150.6687 LP  0  0  0  0  0  0  0  0  0  0  0  0  # atno 17342 bound_to 10162
  140.6823  143.2333  151.5352 LP  0  0  0  0  0  0  0  0  0  0  0  0  # atno 17343 bound_to 10162
  155.9993  130.3889  150.2668 LP  0  0  0  0  0  0  0  0  0  0  0  0  # atno 17370 bound_to 10713
  157.0841  131.0151  151.3146 LP  0  0  0  0  0  0  0  0  0  0  0  0  # atno 17371 bound_to 10713
  141.0247  133.7021  156.1328 LP  0  0  0  0  0  0  0  0  0  0  0  0  # atno 17394 bound_to 11000
  140.7183  134.4386  157.5577 LP  0  0  0  0  0  0  0  0  0  0  0  0  # atno 17395 bound_to 11000

$$$$
