AV-unprocessed.smi:1554|AV-procd|sdf|6256|dock1
  -GOLD-   22720 6443D 1   1.00000     0.00000
 Structure written by MMmdl.
 49 51  0  0  0  0  0  0  0  0  3 V2000
  152.2322  144.7280  160.2609 C   0  0  0  0  0  0  0  0  0  0  0  0
  152.0627  143.5611  159.3028 C   0  0  0  0  0  0  0  0  0  0  0  0
  151.2806  143.7502  158.1412 C   0  0  0  0  0  0  0  0  0  0  0  0
  151.1406  142.6631  157.2866 C   0  0  0  0  0  0  0  0  0  0  0  0
  150.4442  142.5296  156.0838 N   0  3  0  0  0  0  0  0  0  0  0  0
  150.5984  141.2636  155.6067 C   0  0  0  0  0  0  0  0  0  0  0  0
  151.3813  140.5844  156.4890 N   0  0  0  0  0  0  0  0  0  0  0  0
  151.8518  139.1918  156.4464 C   0  0  0  0  0  0  0  0  0  0  0  0
  152.3813  138.7778  155.0588 C   0  0  2  0  0  0  0  0  0  0  0  0
  153.3143  139.7369  154.6003 O   0  0  0  0  0  0  0  0  0  0  0  0
  151.2417  138.6664  154.0261 C   0  0  0  0  0  0  0  0  0  0  0  0
  150.3861  137.4704  154.2363 N   0  3  1  0  0  0  0  0  0  0  0  0
  151.1401  136.2589  154.6437 C   0  0  0  0  0  0  0  0  0  0  0  0
  150.1872  135.0624  154.7997 C   0  0  0  0  0  0  0  0  0  0  0  0
  149.1676  135.3822  155.7380 O   0  0  0  0  0  0  0  0  0  0  0  0
  148.3745  136.4864  155.3173 C   0  0  1  0  0  0  0  0  0  0  0  0
  147.2549  136.6914  156.3438 C   0  0  0  0  0  0  0  0  0  0  0  0
  149.2755  137.7293  155.1835 C   0  0  0  0  0  0  0  0  0  0  0  0
  151.7474  141.4199  157.5518 C   0  0  0  0  0  0  0  0  0  0  0  0
  152.5233  141.2179  158.6911 C   0  0  0  0  0  0  0  0  0  0  0  0
  152.6760  142.3107  159.5742 C   0  0  0  0  0  0  0  0  0  0  0  0
  153.5146  142.1176  160.8263 C   0  0  0  0  0  0  0  0  0  0  0  0
  151.7227  145.6206  159.8968 H   0  0  0  0  0  0  0  0  0  0  0  0
  153.2871  144.9739  160.3840 H   0  0  0  0  0  0  0  0  0  0  0  0
  151.8166  144.4832  161.2388 H   0  0  0  0  0  0  0  0  0  0  0  0
  150.8101  144.6992  157.9285 H   0  0  0  0  0  0  0  0  0  0  0  0
  150.1764  140.8708  154.6928 H   0  0  0  0  0  0  0  0  0  0  0  0
  152.6484  139.1030  157.1862 H   0  0  0  0  0  0  0  0  0  0  0  0
  151.0521  138.5309  156.7819 H   0  0  0  0  0  0  0  0  0  0  0  0
  152.8982  137.8239  155.1606 H   0  0  0  0  0  0  0  0  0  0  0  0
  153.8976  139.3181  153.9853 H   0  0  0  0  0  0  0  0  0  0  0  0
  150.6181  139.5617  154.0452 H   0  0  0  0  0  0  0  0  0  0  0  0
  151.6836  138.6261  153.0290 H   0  0  0  0  0  0  0  0  0  0  0  0
  151.9027  136.0141  153.9056 H   0  0  0  0  0  0  0  0  0  0  0  0
  151.6565  136.4478  155.5862 H   0  0  0  0  0  0  0  0  0  0  0  0
  149.7445  134.7878  153.8409 H   0  0  0  0  0  0  0  0  0  0  0  0
  150.7350  134.1908  155.1578 H   0  0  0  0  0  0  0  0  0  0  0  0
  147.9209  136.2555  154.3516 H   0  0  0  0  0  0  0  0  0  0  0  0
  146.6083  137.5218  156.0591 H   0  0  0  0  0  0  0  0  0  0  0  0
  147.6594  136.9062  157.3334 H   0  0  0  0  0  0  0  0  0  0  0  0
  146.6327  135.7998  156.4252 H   0  0  0  0  0  0  0  0  0  0  0  0
  149.6850  138.0072  156.1561 H   0  0  0  0  0  0  0  0  0  0  0  0
  148.6824  138.5745  154.8314 H   0  0  0  0  0  0  0  0  0  0  0  0
  152.9886  140.2665  158.9021 H   0  0  0  0  0  0  0  0  0  0  0  0
  153.8831  141.0946  160.9066 H   0  0  0  0  0  0  0  0  0  0  0  0
  152.9260  142.3288  161.7194 H   0  0  0  0  0  0  0  0  0  0  0  0
  154.3781  142.7830  160.8138 H   0  0  0  0  0  0  0  0  0  0  0  0
  149.9553  137.2684  153.3448 H   0  0  0  0  0  0  0  0  0  0  0  0
  149.9045  143.2490  155.6193 H   0  0  0  0  0  0  0  0  0  0  0  0
  1  2  1  0  0  0  0
  1 23  1  0  0  0  0
  1 24  1  0  0  0  0
  1 25  1  0  0  0  0
  2 21  1  0  0  0  0
  2  3  2  0  0  0  0
  3  4  1  0  0  0  0
  3 26  1  0  0  0  0
  4 19  2  0  0  0  0
  4  5  1  0  0  0  0
  5  6  2  0  0  0  0
  5 49  1  0  0  0  0
  6  7  1  0  0  0  0
  6 27  1  0  0  0  0
  7  8  1  0  0  0  0
  7 19  1  0  0  0  0
  8  9  1  0  0  0  0
  8 28  1  0  0  0  0
  8 29  1  0  0  0  0
  9 10  1  0  0  0  0
  9 11  1  0  0  0  0
  9 30  1  0  0  0  0
 10 31  1  0  0  0  0
 11 12  1  0  0  0  0
 11 32  1  0  0  0  0
 11 33  1  0  0  0  0
 12 18  1  0  0  0  0
 12 13  1  0  0  0  0
 12 48  1  0  0  0  0
 13 14  1  0  0  0  0
 13 34  1  0  0  0  0
 13 35  1  0  0  0  0
 14 15  1  0  0  0  0
 14 36  1  0  0  0  0
 14 37  1  0  0  0  0
 15 16  1  0  0  0  0
 16 17  1  0  0  0  0
 16 18  1  0  0  0  0
 16 38  1  0  0  0  0
 17 39  1  0  0  0  0
 17 40  1  0  0  0  0
 17 41  1  0  0  0  0
 18 42  1  0  0  0  0
 18 43  1  0  0  0  0
 19 20  1  0  0  0  0
 20 21  2  0  0  0  0
 20 44  1  0  0  0  0
 21 22  1  0  0  0  0
 22 45  1  0  0  0  0
 22 46  1  0  0  0  0
 22 47  1  0  0  0  0
M  CHG  1   5   1
M  CHG  1  12   1
M  END
> <s_m_source_file>
AV-unprocessed.smi

> <i_m_source_file_index>
1554

> <i_lp_mmshare_version>
43012

> <i_f3d_flags>
0

> <s_epik_input>
W0NIM11jKFtjSF0xKWMoW0NIM10pW2NIXWMoYzEyKW4oW2NIXW4yKVtDSDJdW0NASF0oW09IXSlbQ0gyXU4zW0NIMl1bQ0gyXU9bQ0BASF0oW0NIM10pW0NIMl0z

> <s_epik_cmdline>
J2VwaWtfcHl0aG9uJywgJy1waCcsICc3LjAnLCAnLXRuJywgJzgnLCAnLW1hJywgJzIwMCcsICctbWV0YWxfYmluZGluZycsICctaW1hZScsICc8aW5maWxlLm1hZT4nLCAnLW9tYWUnLCAnPG91dGZpbGUubWFlPic=

> <r_epik_Ionization_Penalty>
1.8848

> <r_epik_Ionization_Penalty_Charging>
1.88479

> <r_epik_Ionization_Penalty_Neutral>
1.42224e-05

> <r_epik_State_Penalty>
1.94551

> <r_epik_Charging_Adjusted_Penalty>
3.8303

> <i_epik_Tot_Q>
2

> <i_epik_Tot_abs_Q>
2

> <r_epik_Metal_State_Penalty>
5.95849

> <b_epik_Metal_Only>
0

> <s_lp_Force_Field>
OPLS_2005

> <r_lp_Energy>
29.8274

> <b_lp_Chiralities_Consistent>
1

> <s_lp_Variant>
AV-unprocessed.smi:1554-17

> <Gold.Version>
5.8.1

> <Gold.Id.Protein>
6NUR|6NUR_protein|mol2

> <Gold.PLP.Fitness>
60.2646

> <Gold.PLP.PLP>
-45.6631

> <Gold.PLP.part.hbond>
-4.0000

> <Gold.PLP.part.metal>
0.0000

> <Gold.PLP.part.buried>
-6.6999

> <Gold.PLP.part.nonpolar>
-36.1468

> <Gold.PLP.part.repulsive>
0.1859

> <Gold.PLP.ligand.clash>
0.0000

> <Gold.PLP.ligand.torsion>
0.5844

> <Gold.PLP.Chemscore.Hbond>
5.2371

> <Gold.PLP.Chemscore.CHOScore>
0.0000

> <Gold.PLP.Chemscore.Metal>
0.0000

> <Gold.Chemscore.Hbonds>
donor molecule, donor type, donor heavy atom, donor atom, acceptor molecule, acceptor atom, score
      L1  H     5    49       P1  8028  2.00
      L1  H    12    48       P1  7948  2.00
      P1  H  7989  7998       L1    10  0.05
      P1  H  7997  8010       L1    10  0.93

> <Gold.PLP.Chemscore.Internal.Correction>
0.0589

> <Gold.Rescore>
     Score         DG    S(hbond)    S(metal)    S(lipo)     H(rot)  DE(clash)    DE(int)     intcor
     20.82     -21.81       2.55        0.00     113.04       2.11       0.21       0.78       ----

> <Gold.Chemscore.Fitness>
20.8213

> <Gold.Chemscore.DG>
-21.8063

> <Gold.Chemscore.ZeroCoef>
-5.4800

> <Gold.Chemscore.Hbond>
2.5473

> <Gold.Chemscore.Metal>
0.0000

> <Gold.Chemscore.Lipo>
113.0388

> <Gold.Chemscore.Internal_Hbond>
0.0000

> <Gold.Chemscore.DEClash>
0.2056

> <Gold.Chemscore.DEInternal>
0.7793

> <Gold.Chemscore.Rot>
2.1122

> <Gold.Chemscore.Internal.Correction>
   9.000000E+99

> <Gold.Chemscore.Hbonds>
donor molecule, donor type, donor heavy atom, donor atom, acceptor molecule, acceptor atom, score
      L1  H     5    49       P1  8028  0.96
      L1  H    12    48       P1  7948  0.32
      P1  H  7997  8010       L1    10  0.27

> <Gold.Chemscore.Hbond.Weighted>
-8.5080

> <Gold.Chemscore.Metal.Weighted>
-0.0000

> <Gold.Chemscore.Lipo.Weighted>
-13.2255

> <Gold.Chemscore.Internal_Hbond.Weighted>
0.0000

> <Gold.Chemscore.DEClash.Weighted>
0.2056

> <Gold.Chemscore.DEInternal.Weighted>
0.7793

> <Gold.Chemscore.Rot.Weighted>
5.4073

> <Gold.Chemscore.Internal.Correction.Weighted>
   9.000000E+99

> <Gold.Protein.RotatedTorsions>
[ 6907 6896 6895 6894 ] final  164.77 input  -60.11 | X-H torsion
[ 7974 7965 7964 7962 ] final -110.33 input  175.53 | X-H torsion
[ 8008 7997 7996 7995 ] final   91.76 input   59.86 | X-H torsion
[ 10167 10162 10161 10158 ] final -123.91 input  -65.29 | X-H torsion
[ 10718 10713 10712 10709 ] final  132.45 input   66.30 | X-H torsion
[ 10763 10752 10751 10750 ] final  112.06 input  -60.55 | X-H torsion
[ 11005 11000 10999 10996 ] final  -61.78 input  -57.11 | X-H torsion

> <Gold.Protein.ActiveResidues>
 VAL166  LYS551  ARG553  GLY616  TRP617  ASP618  TYR619  PRO620  LYS621  CYS622 
 ASP623  PHE694  ASN695  SER759  ASP760  ASP761  ALA762  ILE779  LEU786  VAL792 
 PHE793  MET794  SER795  GLU796  ALA797  LYS798  CYS799  TRP800  GLU811  SER814 

> <Gold.Protein.RotatedAtoms>
  151.9047  133.3546  159.3842 H   0  0  0  0  0  0  0  0  0  0  0  0  # atno 6907 bound_to 6896
  150.7072  134.4792  159.5471 H   0  0  0  0  0  0  0  0  0  0  0  0  # atno 6908 bound_to 6896
  152.2387  134.8250  160.0514 H   0  0  0  0  0  0  0  0  0  0  0  0  # atno 6909 bound_to 6896
  145.1696  140.8919  143.3543 H   0  0  0  0  0  0  0  0  0  0  0  0  # atno 7974 bound_to 7965
  156.0276  140.3333  155.7105 H   0  0  0  0  0  0  0  0  0  0  0  0  # atno 8008 bound_to 7997
  155.5932  140.0648  157.2770 H   0  0  0  0  0  0  0  0  0  0  0  0  # atno 8009 bound_to 7997
  154.4340  140.1823  156.1084 H   0  0  0  0  0  0  0  0  0  0  0  0  # atno 8010 bound_to 7997
  139.9985  143.5566  152.2313 H   0  0  0  0  0  0  0  0  0  0  0  0  # atno 10167 bound_to 10162
  157.4870  131.1088  150.9607 H   0  0  0  0  0  0  0  0  0  0  0  0  # atno 10718 bound_to 10713
  153.4724  135.3697  155.2398 H   0  0  0  0  0  0  0  0  0  0  0  0  # atno 10763 bound_to 10752
  154.8756  135.3934  154.3796 H   0  0  0  0  0  0  0  0  0  0  0  0  # atno 10764 bound_to 10752
  153.4386  135.7083  153.6248 H   0  0  0  0  0  0  0  0  0  0  0  0  # atno 10765 bound_to 10752
  141.1336  133.6633  156.5427 H   0  0  0  0  0  0  0  0  0  0  0  0  # atno 11005 bound_to 11000
  145.0247  139.3393  143.6055 LP  0  0  0  0  0  0  0  0  0  0  0  0  # atno 17320 bound_to 7965
  146.3470  139.9561  142.8723 LP  0  0  0  0  0  0  0  0  0  0  0  0  # atno 17321 bound_to 7965
  139.6289  144.7641  151.2579 LP  0  0  0  0  0  0  0  0  0  0  0  0  # atno 17342 bound_to 10162
  140.7428  143.6515  150.8245 LP  0  0  0  0  0  0  0  0  0  0  0  0  # atno 17343 bound_to 10162
  157.0321  130.5715  149.5344 LP  0  0  0  0  0  0  0  0  0  0  0  0  # atno 17370 bound_to 10713
  156.0152  130.5246  150.8113 LP  0  0  0  0  0  0  0  0  0  0  0  0  # atno 17371 bound_to 10713
  140.4126  134.7258  157.4845 LP  0  0  0  0  0  0  0  0  0  0  0  0  # atno 17394 bound_to 11000
  140.0416  134.6259  155.8973 LP  0  0  0  0  0  0  0  0  0  0  0  0  # atno 17395 bound_to 11000

$$$$
