AV-unprocessed.smi:3303|AV-procd|sdf|12676|dock6
  -GOLD-   2272019 13D 1   1.00000     0.00000
 Structure written by MMmdl.
 44 45  0  0  0  0  0  0  0  0  2 V2000
  142.2747  137.4713  153.1067 C   0  0  0  0  0  0  0  0  0  0  0  0
  143.4065  136.4310  153.1290 C   0  0  1  0  0  0  0  0  0  0  0  0
  143.3389  135.4718  151.9254 C   0  0  0  0  0  0  0  0  0  0  0  0
  144.3447  134.4115  152.0371 N   0  0  0  0  0  0  0  0  0  0  0  0
  144.1441  133.5054  150.9090 C   0  0  0  0  0  0  0  0  0  0  0  0
  145.7065  134.9749  152.0560 C   0  0  2  0  0  0  0  0  0  0  0  0
  146.7837  133.8759  152.1550 C   0  0  0  0  0  0  0  0  0  0  0  0
  145.8546  135.9445  153.2521 C   0  0  0  0  0  0  0  0  0  0  0  0
  144.8058  137.0657  153.2404 C   0  0  1  0  0  0  0  0  0  0  0  0
  145.0740  138.0120  152.1317 N   0  3  0  0  0  0  0  0  0  0  0  0
  146.4763  138.4607  152.0218 C   0  0  0  0  0  0  0  0  0  0  0  0
  146.6222  139.9224  152.4653 C   0  0  0  0  0  0  0  0  0  0  0  0
  147.7412  140.1072  153.4723 C   0  0  0  0  0  0  0  0  0  0  0  0
  148.5167  139.0082  153.8992 C   0  0  0  0  0  0  0  0  0  0  0  0
  149.5471  139.2368  154.8320 C   0  0  0  0  0  0  0  0  0  0  0  0
  149.7610  140.5482  155.2984 C   0  0  0  0  0  0  0  0  0  0  0  0
  148.9329  141.5777  154.8082 C   0  0  0  0  0  0  0  0  0  0  0  0
  147.9434  141.3695  153.9122 N   0  0  0  0  0  0  0  0  0  0  0  0
  142.3168  138.0968  152.2148 H   0  0  0  0  0  0  0  0  0  0  0  0
  142.3263  138.1258  153.9771 H   0  0  0  0  0  0  0  0  0  0  0  0
  141.2988  136.9852  153.1197 H   0  0  0  0  0  0  0  0  0  0  0  0
  143.2522  135.8299  154.0273 H   0  0  0  0  0  0  0  0  0  0  0  0
  142.3466  135.0194  151.8908 H   0  0  0  0  0  0  0  0  0  0  0  0
  143.4689  136.0189  150.9902 H   0  0  0  0  0  0  0  0  0  0  0  0
  144.7658  132.6151  150.9959 H   0  0  0  0  0  0  0  0  0  0  0  0
  144.3712  133.9950  149.9607 H   0  0  0  0  0  0  0  0  0  0  0  0
  143.1108  133.1585  150.8723 H   0  0  0  0  0  0  0  0  0  0  0  0
  145.8684  135.5297  151.1303 H   0  0  0  0  0  0  0  0  0  0  0  0
  147.7716  134.3131  152.3026 H   0  0  0  0  0  0  0  0  0  0  0  0
  146.8460  133.2758  151.2475 H   0  0  0  0  0  0  0  0  0  0  0  0
  146.5937  133.2048  152.9935 H   0  0  0  0  0  0  0  0  0  0  0  0
  145.7625  135.3821  154.1828 H   0  0  0  0  0  0  0  0  0  0  0  0
  146.8552  136.3791  153.2636 H   0  0  0  0  0  0  0  0  0  0  0  0
  144.8707  137.6007  154.1895 H   0  0  0  0  0  0  0  0  0  0  0  0
  144.8125  137.5665  151.2638 H   0  0  0  0  0  0  0  0  0  0  0  0
  147.1084  137.8217  152.6402 H   0  0  0  0  0  0  0  0  0  0  0  0
  146.8076  138.3450  150.9888 H   0  0  0  0  0  0  0  0  0  0  0  0
  146.8178  140.5586  151.6006 H   0  0  0  0  0  0  0  0  0  0  0  0
  145.6863  140.2756  152.9005 H   0  0  0  0  0  0  0  0  0  0  0  0
  148.3295  138.0130  153.5232 H   0  0  0  0  0  0  0  0  0  0  0  0
  150.1615  138.4212  155.1840 H   0  0  0  0  0  0  0  0  0  0  0  0
  150.5407  140.7605  156.0150 H   0  0  0  0  0  0  0  0  0  0  0  0
  149.0690  142.5950  155.1439 H   0  0  0  0  0  0  0  0  0  0  0  0
  144.4881  138.8239  152.2634 H   0  0  0  0  0  0  0  0  0  0  0  0
  1  2  1  0  0  0  0
  1 19  1  0  0  0  0
  1 20  1  0  0  0  0
  1 21  1  0  0  0  0
  2  9  1  0  0  0  0
  2  3  1  0  0  0  0
  2 22  1  0  0  0  0
  3  4  1  0  0  0  0
  3 23  1  0  0  0  0
  3 24  1  0  0  0  0
  4  5  1  0  0  0  0
  4  6  1  0  0  0  0
  5 25  1  0  0  0  0
  5 26  1  0  0  0  0
  5 27  1  0  0  0  0
  6  7  1  0  0  0  0
  6  8  1  0  0  0  0
  6 28  1  0  0  0  0
  7 29  1  0  0  0  0
  7 30  1  0  0  0  0
  7 31  1  0  0  0  0
  8  9  1  0  0  0  0
  8 32  1  0  0  0  0
  8 33  1  0  0  0  0
  9 10  1  0  0  0  0
  9 34  1  0  0  0  0
 10 11  1  0  0  0  0
 10 35  1  0  0  0  0
 10 44  1  0  0  0  0
 11 12  1  0  0  0  0
 11 36  1  0  0  0  0
 11 37  1  0  0  0  0
 12 13  1  0  0  0  0
 12 38  1  0  0  0  0
 12 39  1  0  0  0  0
 13 18  1  0  0  0  0
 13 14  2  0  0  0  0
 14 15  1  0  0  0  0
 14 40  1  0  0  0  0
 15 16  2  0  0  0  0
 15 41  1  0  0  0  0
 16 17  1  0  0  0  0
 16 42  1  0  0  0  0
 17 18  2  0  0  0  0
 17 43  1  0  0  0  0
M  CHG  1  10   1
M  END
> <s_m_source_file>
AV-unprocessed.smi

> <i_m_source_file_index>
3303

> <i_lp_mmshare_version>
43012

> <i_f3d_flags>
0

> <s_epik_input>
W0NIM11bQ0BASF0xW0NIMl1OKFtDSDNdKVtDQEBIXShbQ0gzXSlbQ0gyXVtDQEhdMVtOSF1bQ0gyXVtDSDJdYzJbY0hdW2NIXVtjSF1bY0hdbjI=

> <s_epik_cmdline>
J2VwaWtfcHl0aG9uJywgJy1waCcsICc3LjAnLCAnLXRuJywgJzgnLCAnLW1hJywgJzIwMCcsICctbWV0YWxfYmluZGluZycsICctaW1hZScsICc8aW5maWxlLm1hZT4nLCAnLW9tYWUnLCAnPG91dGZpbGUubWFlPic=

> <r_epik_Ionization_Penalty>
1.37325

> <r_epik_Ionization_Penalty_Charging>
0.000251572

> <r_epik_Ionization_Penalty_Neutral>
1.373

> <r_epik_State_Penalty>
1.46343

> <r_epik_Charging_Adjusted_Penalty>
1.46368

> <i_epik_Tot_Q>
1

> <i_epik_Tot_abs_Q>
1

> <r_epik_Metal_State_Penalty>
1.46331

> <b_epik_Metal_Only>
0

> <s_lp_Force_Field>
OPLS_2005

> <r_lp_Energy>
25.9316

> <b_lp_Chiralities_Consistent>
1

> <s_lp_Variant>
AV-unprocessed.smi:3303-20

> <Gold.Version>
5.8.1

> <Gold.Id.Protein>
6NUR|6NUR_protein|mol2

> <Gold.PLP.Fitness>
39.3481

> <Gold.PLP.PLP>
-30.5601

> <Gold.PLP.part.hbond>
-2.1271

> <Gold.PLP.part.metal>
0.0000

> <Gold.PLP.part.buried>
2.3146

> <Gold.PLP.part.nonpolar>
-31.6883

> <Gold.PLP.part.repulsive>
0.2859

> <Gold.PLP.ligand.clash>
0.0000

> <Gold.PLP.ligand.torsion>
0.7587

> <Gold.PLP.Chemscore.Hbond>
2.4320

> <Gold.PLP.Chemscore.CHOScore>
1.0000

> <Gold.PLP.Chemscore.Metal>
0.0000

> <Gold.Chemscore.Hbonds>
donor molecule, donor type, donor heavy atom, donor atom, acceptor molecule, acceptor atom, score
      L1  H    10    35       P1 10171  0.43
      L1  H    10    44       P1 10175  2.00
      L1  C    17    43       P1  8028  1.00

> <Gold.PLP.Chemscore.Internal.Correction>
0.0095

> <Gold.Rescore>
     Score         DG    S(hbond)    S(metal)    S(lipo)     H(rot)  DE(clash)    DE(int)     intcor
     15.93     -16.93       1.60        0.00      81.42       1.33       0.22       0.78       ----

> <Gold.Chemscore.Fitness>
15.9316

> <Gold.Chemscore.DG>
-16.9329

> <Gold.Chemscore.ZeroCoef>
-5.4800

> <Gold.Chemscore.Hbond>
1.5962

> <Gold.Chemscore.Metal>
0.0000

> <Gold.Chemscore.Lipo>
81.4167

> <Gold.Chemscore.Internal_Hbond>
0.0000

> <Gold.Chemscore.DEClash>
0.2236

> <Gold.Chemscore.DEInternal>
0.7778

> <Gold.Chemscore.Rot>
1.3298

> <Gold.Chemscore.Internal.Correction>
   9.000000E+99

> <Gold.Chemscore.Hbonds>
donor molecule, donor type, donor heavy atom, donor atom, acceptor molecule, acceptor atom, score
      L1  H    10    35       P1 10171  0.40
      L1  H    10    44       P1 10175  1.00

> <Gold.Chemscore.Hbond.Weighted>
-5.3315

> <Gold.Chemscore.Metal.Weighted>
-0.0000

> <Gold.Chemscore.Lipo.Weighted>
-9.5257

> <Gold.Chemscore.Internal_Hbond.Weighted>
0.0000

> <Gold.Chemscore.DEClash.Weighted>
0.2236

> <Gold.Chemscore.DEInternal.Weighted>
0.7778

> <Gold.Chemscore.Rot.Weighted>
3.4043

> <Gold.Chemscore.Internal.Correction.Weighted>
   9.000000E+99

> <Gold.Protein.RotatedTorsions>
[ 6907 6896 6895 6894 ] final   62.22 input  -60.11 | X-H torsion
[ 7974 7965 7964 7962 ] final   77.08 input  175.53 | X-H torsion
[ 8008 7997 7996 7995 ] final   41.60 input   59.86 | X-H torsion
[ 10167 10162 10161 10158 ] final -177.07 input  -65.29 | X-H torsion
[ 10718 10713 10712 10709 ] final  178.26 input   66.30 | X-H torsion
[ 10763 10752 10751 10750 ] final   44.91 input  -60.55 | X-H torsion
[ 11005 11000 10999 10996 ] final  102.15 input  -57.11 | X-H torsion

> <Gold.Protein.ActiveResidues>
 VAL166  LYS551  ARG553  GLY616  TRP617  ASP618  TYR619  PRO620  LYS621  CYS622 
 ASP623  PHE694  ASN695  SER759  ASP760  ASP761  ALA762  ILE779  LEU786  VAL792 
 PHE793  MET794  SER795  GLU796  ALA797  LYS798  CYS799  TRP800  GLU811  SER814 

> <Gold.Protein.RotatedAtoms>
  152.4154  134.6051  160.0010 H   0  0  0  0  0  0  0  0  0  0  0  0  # atno 6907 bound_to 6896
  151.6216  133.3333  159.3097 H   0  0  0  0  0  0  0  0  0  0  0  0  # atno 6908 bound_to 6896
  150.8043  134.7197  159.6695 H   0  0  0  0  0  0  0  0  0  0  0  0  # atno 6909 bound_to 6896
  145.6946  139.2563  143.1740 H   0  0  0  0  0  0  0  0  0  0  0  0  # atno 7974 bound_to 7965
  155.2723  140.3367  155.4264 H   0  0  0  0  0  0  0  0  0  0  0  0  # atno 8008 bound_to 7997
  156.2127  140.1776  156.7700 H   0  0  0  0  0  0  0  0  0  0  0  0  # atno 8009 bound_to 7997
  154.5709  140.0670  156.8947 H   0  0  0  0  0  0  0  0  0  0  0  0  # atno 8010 bound_to 7997
  139.5498  144.2139  152.1056 H   0  0  0  0  0  0  0  0  0  0  0  0  # atno 10167 bound_to 10162
  156.8933  130.9854  151.3046 H   0  0  0  0  0  0  0  0  0  0  0  0  # atno 10718 bound_to 10713
  152.9833  135.6056  154.3350 H   0  0  0  0  0  0  0  0  0  0  0  0  # atno 10763 bound_to 10752
  154.3051  135.2772  155.2594 H   0  0  0  0  0  0  0  0  0  0  0  0  # atno 10764 bound_to 10752
  154.4829  135.5912  153.6459 H   0  0  0  0  0  0  0  0  0  0  0  0  # atno 10765 bound_to 10752
  139.8776  134.9212  156.5015 H   0  0  0  0  0  0  0  0  0  0  0  0  # atno 11005 bound_to 11000
  146.0851  140.7720  142.9622 LP  0  0  0  0  0  0  0  0  0  0  0  0  # atno 17320 bound_to 7965
  144.6986  140.3550  143.7174 LP  0  0  0  0  0  0  0  0  0  0  0  0  # atno 17321 bound_to 7965
  140.1632  144.5006  150.6621 LP  0  0  0  0  0  0  0  0  0  0  0  0  # atno 17342 bound_to 10162
  140.6757  143.2304  151.5512 LP  0  0  0  0  0  0  0  0  0  0  0  0  # atno 17343 bound_to 10162
  157.6071  130.8555  149.8892 LP  0  0  0  0  0  0  0  0  0  0  0  0  # atno 17370 bound_to 10713
  156.0618  130.3698  150.0965 LP  0  0  0  0  0  0  0  0  0  0  0  0  # atno 17371 bound_to 10713
  140.8586  133.8077  155.9241 LP  0  0  0  0  0  0  0  0  0  0  0  0  # atno 17394 bound_to 11000
  140.9072  134.2305  157.5007 LP  0  0  0  0  0  0  0  0  0  0  0  0  # atno 17395 bound_to 11000

$$$$
