AV-unprocessed.smi:2717|AV-procd|sdf|10484|dock10
  -GOLD-   2272014533D 1   1.00000     0.00000
 Structure written by MMmdl.
 43 44  0  0  0  0  0  0  0  0  1 V2000
  153.0015  138.6441  154.6586 C   0  0  0  0  0  0  0  0  0  0  0  0
  152.1941  139.1520  155.8577 C   0  0  0  0  0  0  0  0  0  0  0  0
  150.9569  139.8790  155.4489 C   0  0  0  0  0  0  0  0  0  0  0  0
  150.0179  139.3477  154.6618 N   0  0  0  0  0  0  0  0  0  0  0  0
  148.9732  140.2370  154.3919 C   0  0  0  0  0  0  0  0  0  0  0  0
  147.8249  139.8012  153.5327 C   0  0  0  0  0  0  0  0  0  0  0  0
  147.0026  138.6791  154.1875 C   0  0  0  0  0  0  0  0  0  0  0  0
  147.0837  137.4387  153.4243 N   0  0  0  0  0  0  0  0  0  0  0  0
  146.0480  136.6280  153.1662 C   0  0  0  0  0  0  0  0  0  0  0  0
  144.8954  136.8393  153.5440 O   0  0  0  0  0  0  0  0  0  0  0  0
  146.4199  135.5574  152.4499 N   0  0  0  0  0  0  0  0  0  0  0  0
  145.5275  134.4914  152.0036 C   0  0  2  0  0  0  0  0  0  0  0  0
  146.3234  133.3648  151.3111 C   0  0  0  0  0  0  0  0  0  0  0  0
  145.3908  132.2705  150.7666 C   0  0  0  0  0  0  0  0  0  0  0  0
  144.3357  132.8621  149.8163 C   0  0  1  0  0  0  0  0  0  0  0  0
  143.4553  131.8422  149.3936 O   0  0  0  0  0  0  0  0  0  0  0  0
  143.5333  133.9767  150.5091 C   0  0  0  0  0  0  0  0  0  0  0  0
  144.4638  135.0731  151.0526 C   0  0  0  0  0  0  0  0  0  0  0  0
  149.1413  141.4640  154.9843 C   0  0  0  0  0  0  0  0  0  0  0  0
  150.6222  141.5472  155.8986 S   0  0  0  0  0  0  0  0  0  0  0  0
  153.8956  138.1151  154.9887 H   0  0  0  0  0  0  0  0  0  0  0  0
  153.3185  139.4691  154.0200 H   0  0  0  0  0  0  0  0  0  0  0  0
  152.4127  137.9568  154.0506 H   0  0  0  0  0  0  0  0  0  0  0  0
  151.9153  138.3155  156.4996 H   0  0  0  0  0  0  0  0  0  0  0  0
  152.8077  139.8194  156.4634 H   0  0  0  0  0  0  0  0  0  0  0  0
  147.1751  140.6516  153.3228 H   0  0  0  0  0  0  0  0  0  0  0  0
  148.1984  139.4657  152.5642 H   0  0  0  0  0  0  0  0  0  0  0  0
  147.3325  138.5098  155.2141 H   0  0  0  0  0  0  0  0  0  0  0  0
  145.9540  138.9730  154.2437 H   0  0  0  0  0  0  0  0  0  0  0  0
  147.9930  137.1793  153.0709 H   0  0  0  0  0  0  0  0  0  0  0  0
  147.3916  135.4747  152.1893 H   0  0  0  0  0  0  0  0  0  0  0  0
  145.0130  134.0761  152.8724 H   0  0  0  0  0  0  0  0  0  0  0  0
  146.9131  133.7782  150.4916 H   0  0  0  0  0  0  0  0  0  0  0  0
  147.0346  132.9207  152.0085 H   0  0  0  0  0  0  0  0  0  0  0  0
  145.9775  131.5097  150.2508 H   0  0  0  0  0  0  0  0  0  0  0  0
  144.8983  131.7695  151.6016 H   0  0  0  0  0  0  0  0  0  0  0  0
  144.8299  133.2678  148.9326 H   0  0  0  0  0  0  0  0  0  0  0  0
  142.5968  132.2176  149.2705 H   0  0  0  0  0  0  0  0  0  0  0  0
  142.8175  134.4131  149.8115 H   0  0  0  0  0  0  0  0  0  0  0  0
  142.9502  133.5583  151.3309 H   0  0  0  0  0  0  0  0  0  0  0  0
  143.8735  135.8304  151.5702 H   0  0  0  0  0  0  0  0  0  0  0  0
  144.9504  135.5780  150.2167 H   0  0  0  0  0  0  0  0  0  0  0  0
  148.4878  142.3222  154.9361 H   0  0  0  0  0  0  0  0  0  0  0  0
  1  2  1  0  0  0  0
  1 21  1  0  0  0  0
  1 22  1  0  0  0  0
  1 23  1  0  0  0  0
  2  3  1  0  0  0  0
  2 24  1  0  0  0  0
  2 25  1  0  0  0  0
  3 20  1  0  0  0  0
  3  4  2  0  0  0  0
  4  5  1  0  0  0  0
  5  6  1  0  0  0  0
  5 19  2  0  0  0  0
  6  7  1  0  0  0  0
  6 26  1  0  0  0  0
  6 27  1  0  0  0  0
  7  8  1  0  0  0  0
  7 28  1  0  0  0  0
  7 29  1  0  0  0  0
  8  9  1  0  0  0  0
  8 30  1  0  0  0  0
  9 10  2  0  0  0  0
  9 11  1  0  0  0  0
 11 12  1  0  0  0  0
 11 31  1  0  0  0  0
 12 18  1  0  0  0  0
 12 13  1  0  0  0  0
 12 32  1  0  0  0  0
 13 14  1  0  0  0  0
 13 33  1  0  0  0  0
 13 34  1  0  0  0  0
 14 15  1  0  0  0  0
 14 35  1  0  0  0  0
 14 36  1  0  0  0  0
 15 16  1  0  0  0  0
 15 17  1  0  0  0  0
 15 37  1  0  0  0  0
 16 38  1  0  0  0  0
 17 18  1  0  0  0  0
 17 39  1  0  0  0  0
 17 40  1  0  0  0  0
 18 41  1  0  0  0  0
 18 42  1  0  0  0  0
 19 20  1  0  0  0  0
 19 43  1  0  0  0  0
M  END
> <s_m_source_file>
AV-unprocessed.smi

> <i_m_source_file_index>
2717

> <i_lp_mmshare_version>
43012

> <i_f3d_flags>
0

> <s_epik_input>
W0NIM11bQ0gyXWMxbmMoW2NIXXMxKVtDSDJdW0NIMl1bTkhdQyg9TylbTkhdW0NAQEhdMltDSDJdW0NIMl1bQ0BASF0oW09IXSlbQ0gyXVtDSDJdMg==

> <s_epik_cmdline>
J2VwaWtfcHl0aG9uJywgJy1waCcsICc3LjAnLCAnLXRuJywgJzgnLCAnLW1hJywgJzIwMCcsICctbWV0YWxfYmluZGluZycsICctaW1hZScsICc8aW5maWxlLm1hZT4nLCAnLW9tYWUnLCAnPG91dGZpbGUubWFlPic=

> <r_epik_Ionization_Penalty>
0.00202099

> <r_epik_Ionization_Penalty_Charging>
0

> <r_epik_Ionization_Penalty_Neutral>
0.00202099

> <r_epik_State_Penalty>
0.00133629

> <r_epik_Charging_Adjusted_Penalty>
0.00133629

> <i_epik_Tot_Q>
0

> <i_epik_Tot_abs_Q>
0

> <r_epik_Metal_State_Penalty>
-0

> <b_epik_Metal_Only>
0

> <s_lp_Force_Field>
OPLS_2005

> <r_lp_Energy>
-3.71108

> <b_lp_Chiralities_Consistent>
1

> <s_lp_Variant>
AV-unprocessed.smi:2717-1

> <Gold.Version>
5.8.1

> <Gold.Id.Protein>
6NUR|6NUR_protein|mol2

> <Gold.PLP.Fitness>
47.2813

> <Gold.PLP.PLP>
-36.4742

> <Gold.PLP.part.hbond>
-3.8946

> <Gold.PLP.part.metal>
0.0000

> <Gold.PLP.part.buried>
-1.5638

> <Gold.PLP.part.nonpolar>
-32.0775

> <Gold.PLP.part.repulsive>
0.2641

> <Gold.PLP.ligand.clash>
0.0000

> <Gold.PLP.ligand.torsion>
0.5412

> <Gold.PLP.Chemscore.Hbond>
2.9520

> <Gold.PLP.Chemscore.CHOScore>
1.0000

> <Gold.PLP.Chemscore.Metal>
0.0000

> <Gold.Chemscore.Hbonds>
donor molecule, donor type, donor heavy atom, donor atom, acceptor molecule, acceptor atom, score
      L1  H     8    30       P1  7948  0.96
      L1  H    11    31       P1  7948  1.00
      P1  H 10785 10796       L1    16  1.00
      L1  C    19    43       P1  8028  1.00

> <Gold.PLP.Chemscore.Internal.Correction>
0.0335

> <Gold.Rescore>
     Score         DG    S(hbond)    S(metal)    S(lipo)     H(rot)  DE(clash)    DE(int)     intcor
     19.41     -22.44       3.34        0.00      97.94       2.21       2.45       0.57       ----

> <Gold.Chemscore.Fitness>
19.4100

> <Gold.Chemscore.DG>
-22.4356

> <Gold.Chemscore.ZeroCoef>
-5.4800

> <Gold.Chemscore.Hbond>
3.3385

> <Gold.Chemscore.Metal>
0.0000

> <Gold.Chemscore.Lipo>
97.9364

> <Gold.Chemscore.Internal_Hbond>
0.0000

> <Gold.Chemscore.DEClash>
2.4528

> <Gold.Chemscore.DEInternal>
0.5728

> <Gold.Chemscore.Rot>
2.2084

> <Gold.Chemscore.Internal.Correction>
   9.000000E+99

> <Gold.Chemscore.Hbonds>
donor molecule, donor type, donor heavy atom, donor atom, acceptor molecule, acceptor atom, score
      L1  H     8    30       P1  7948  0.92
      L1  H    11    31       P1  7948  0.95
      P1  H 10785 10796       L1    16  0.29

> <Gold.Chemscore.Hbond.Weighted>
-11.1506

> <Gold.Chemscore.Metal.Weighted>
-0.0000

> <Gold.Chemscore.Lipo.Weighted>
-11.4586

> <Gold.Chemscore.Internal_Hbond.Weighted>
0.0000

> <Gold.Chemscore.DEClash.Weighted>
2.4528

> <Gold.Chemscore.DEInternal.Weighted>
0.5728

> <Gold.Chemscore.Rot.Weighted>
5.6535

> <Gold.Chemscore.Internal.Correction.Weighted>
   9.000000E+99

> <Gold.Protein.RotatedTorsions>
[ 6907 6896 6895 6894 ] final  -46.90 input  -60.11 | X-H torsion
[ 7974 7965 7964 7962 ] final -136.13 input  175.53 | X-H torsion
[ 8008 7997 7996 7995 ] final   51.10 input   59.86 | X-H torsion
[ 10167 10162 10161 10158 ] final  -72.27 input  -65.29 | X-H torsion
[ 10718 10713 10712 10709 ] final   81.40 input   66.30 | X-H torsion
[ 10763 10752 10751 10750 ] final   66.83 input  -60.55 | X-H torsion
[ 11005 11000 10999 10996 ] final    3.05 input  -57.11 | X-H torsion

> <Gold.Protein.ActiveResidues>
 VAL166  LYS551  ARG553  GLY616  TRP617  ASP618  TYR619  PRO620  LYS621  CYS622 
 ASP623  PHE694  ASN695  SER759  ASP760  ASP761  ALA762  ILE779  LEU786  VAL792 
 PHE793  MET794  SER795  GLU796  ALA797  LYS798  CYS799  TRP800  GLU811  SER814 

> <Gold.Protein.RotatedAtoms>
  150.9064  134.8479  159.7394 H   0  0  0  0  0  0  0  0  0  0  0  0  # atno 6907 bound_to 6896
  152.4920  134.4425  159.9558 H   0  0  0  0  0  0  0  0  0  0  0  0  # atno 6908 bound_to 6896
  151.4472  133.3588  159.2825 H   0  0  0  0  0  0  0  0  0  0  0  0  # atno 6909 bound_to 6896
  144.8953  140.6699  143.5119 H   0  0  0  0  0  0  0  0  0  0  0  0  # atno 7974 bound_to 7965
  155.4298  140.3450  155.4279 H   0  0  0  0  0  0  0  0  0  0  0  0  # atno 8008 bound_to 7997
  156.1343  140.1523  156.9048 H   0  0  0  0  0  0  0  0  0  0  0  0  # atno 8009 bound_to 7997
  154.4919  140.0838  156.7594 H   0  0  0  0  0  0  0  0  0  0  0  0  # atno 8010 bound_to 7997
  140.5206  143.2332  151.7436 H   0  0  0  0  0  0  0  0  0  0  0  0  # atno 10167 bound_to 10162
  157.6832  131.0002  150.2221 H   0  0  0  0  0  0  0  0  0  0  0  0  # atno 10718 bound_to 10713
  153.0158  135.5306  154.6884 H   0  0  0  0  0  0  0  0  0  0  0  0  # atno 10763 bound_to 10752
  154.6025  135.2870  155.0522 H   0  0  0  0  0  0  0  0  0  0  0  0  # atno 10764 bound_to 10752
  154.1573  135.6553  153.5030 H   0  0  0  0  0  0  0  0  0  0  0  0  # atno 10765 bound_to 10752
  140.5974  133.9867  155.8116 H   0  0  0  0  0  0  0  0  0  0  0  0  # atno 11005 bound_to 11000
  145.3710  139.1658  143.4332 LP  0  0  0  0  0  0  0  0  0  0  0  0  # atno 17320 bound_to 7965
  146.3078  140.3782  142.8681 LP  0  0  0  0  0  0  0  0  0  0  0  0  # atno 17321 bound_to 7965
  139.4922  144.4260  151.9925 LP  0  0  0  0  0  0  0  0  0  0  0  0  # atno 17342 bound_to 10162
  140.3357  144.3264  150.5978 LP  0  0  0  0  0  0  0  0  0  0  0  0  # atno 17343 bound_to 10162
  156.2870  130.3741  149.7878 LP  0  0  0  0  0  0  0  0  0  0  0  0  # atno 17370 bound_to 10713
  156.5549  130.8358  151.3311 LP  0  0  0  0  0  0  0  0  0  0  0  0  # atno 17371 bound_to 10713
  141.0895  133.9939  157.3260 LP  0  0  0  0  0  0  0  0  0  0  0  0  # atno 17394 bound_to 11000
  139.9247  135.0201  156.8192 LP  0  0  0  0  0  0  0  0  0  0  0  0  # atno 17395 bound_to 11000

$$$$
