AV-unprocessed.smi:1336|AV-procd|sdf|5497|dock9
  -GOLD-   22720 5 83D 1   1.00000     0.00000
 Structure written by MMmdl.
 43 43  0  0  0  0  0  0  0  0  1 V2000
  149.5346  132.5415  154.7838 C   0  0  0  0  0  0  0  0  0  0  0  0
  149.3681  133.9003  154.0953 C   0  0  0  0  0  0  0  0  0  0  0  0
  148.9397  135.0054  155.0743 C   0  0  0  0  0  0  0  0  0  0  0  0
  148.9934  136.3238  154.4539 N   0  0  0  0  0  0  0  0  0  0  0  0
  148.9405  137.4904  155.1146 C   0  0  0  0  0  0  0  0  0  0  0  0
  148.8254  137.5679  156.3392 O   0  0  0  0  0  0  0  0  0  0  0  0
  149.0109  138.7621  154.2529 C   0  0  1  0  0  0  0  0  0  0  0  0
  147.6311  138.9826  153.6112 C   0  0  0  0  0  0  0  0  0  0  0  0
  149.3191  139.9304  155.0767 N   0  0  0  0  0  0  0  0  0  0  0  0
  150.5507  140.4161  155.3027 C   0  0  0  0  0  0  0  0  0  0  0  0
  151.5699  139.9206  154.8204 O   0  0  0  0  0  0  0  0  0  0  0  0
  150.6456  141.6423  156.2147 C   0  0  0  0  0  0  0  0  0  0  0  0
  151.3712  141.3010  157.4839 C   0  0  0  0  0  0  0  0  0  0  0  0
  151.6629  140.0448  157.9556 C   0  0  0  0  0  0  0  0  0  0  0  0
  152.5175  140.1021  159.4728 S   0  0  0  0  0  0  0  0  0  0  0  0
  152.4541  141.8601  159.4093 C   0  0  0  0  0  0  0  0  0  0  0  0
  153.0333  142.7418  160.4708 C   0  0  0  0  0  0  0  0  0  0  0  0
  153.7590  141.9350  161.5574 C   0  0  0  0  0  0  0  0  0  0  0  0
  151.9949  143.7191  161.0402 C   0  0  0  0  0  0  0  0  0  0  0  0
  151.8346  142.3224  158.3193 N   0  0  0  0  0  0  0  0  0  0  0  0
  149.8421  131.7785  154.0687 H   0  0  0  0  0  0  0  0  0  0  0  0
  148.5992  132.2139  155.2385 H   0  0  0  0  0  0  0  0  0  0  0  0
  150.2909  132.5872  155.5679 H   0  0  0  0  0  0  0  0  0  0  0  0
  150.3080  134.1781  153.6169 H   0  0  0  0  0  0  0  0  0  0  0  0
  148.6317  133.8057  153.2965 H   0  0  0  0  0  0  0  0  0  0  0  0
  147.9359  134.8117  155.4561 H   0  0  0  0  0  0  0  0  0  0  0  0
  149.6037  135.0133  155.9391 H   0  0  0  0  0  0  0  0  0  0  0  0
  149.0869  136.3518  153.4488 H   0  0  0  0  0  0  0  0  0  0  0  0
  149.7646  138.6494  153.4708 H   0  0  0  0  0  0  0  0  0  0  0  0
  147.3526  138.1432  152.9727 H   0  0  0  0  0  0  0  0  0  0  0  0
  147.6303  139.8772  152.9876 H   0  0  0  0  0  0  0  0  0  0  0  0
  146.8479  139.1038  154.3613 H   0  0  0  0  0  0  0  0  0  0  0  0
  148.5384  140.3918  155.5203 H   0  0  0  0  0  0  0  0  0  0  0  0
  151.1519  142.4583  155.6969 H   0  0  0  0  0  0  0  0  0  0  0  0
  149.6356  141.9944  156.4274 H   0  0  0  0  0  0  0  0  0  0  0  0
  151.4241  139.0925  157.5060 H   0  0  0  0  0  0  0  0  0  0  0  0
  153.7936  143.3519  159.9816 H   0  0  0  0  0  0  0  0  0  0  0  0
  154.5441  141.3134  161.1258 H   0  0  0  0  0  0  0  0  0  0  0  0
  153.0700  141.2791  162.0905 H   0  0  0  0  0  0  0  0  0  0  0  0
  154.2248  142.5939  162.2905 H   0  0  0  0  0  0  0  0  0  0  0  0
  151.5619  144.3351  160.2516 H   0  0  0  0  0  0  0  0  0  0  0  0
  152.4462  144.3890  161.7725 H   0  0  0  0  0  0  0  0  0  0  0  0
  151.1804  143.1885  161.5343 H   0  0  0  0  0  0  0  0  0  0  0  0
  1  2  1  0  0  0  0
  1 21  1  0  0  0  0
  1 22  1  0  0  0  0
  1 23  1  0  0  0  0
  2  3  1  0  0  0  0
  2 24  1  0  0  0  0
  2 25  1  0  0  0  0
  3  4  1  0  0  0  0
  3 26  1  0  0  0  0
  3 27  1  0  0  0  0
  4  5  1  0  0  0  0
  4 28  1  0  0  0  0
  5  6  2  0  0  0  0
  5  7  1  0  0  0  0
  7  8  1  0  0  0  0
  7  9  1  0  0  0  0
  7 29  1  0  0  0  0
  8 30  1  0  0  0  0
  8 31  1  0  0  0  0
  8 32  1  0  0  0  0
  9 10  1  0  0  0  0
  9 33  1  0  0  0  0
 10 11  2  0  0  0  0
 10 12  1  0  0  0  0
 12 13  1  0  0  0  0
 12 34  1  0  0  0  0
 12 35  1  0  0  0  0
 13 20  1  0  0  0  0
 13 14  2  0  0  0  0
 14 15  1  0  0  0  0
 14 36  1  0  0  0  0
 15 16  1  0  0  0  0
 16 17  1  0  0  0  0
 16 20  2  0  0  0  0
 17 18  1  0  0  0  0
 17 19  1  0  0  0  0
 17 37  1  0  0  0  0
 18 38  1  0  0  0  0
 18 39  1  0  0  0  0
 18 40  1  0  0  0  0
 19 41  1  0  0  0  0
 19 42  1  0  0  0  0
 19 43  1  0  0  0  0
M  END
> <s_m_source_file>
AV-unprocessed.smi

> <i_m_source_file_index>
1336

> <i_lp_mmshare_version>
43012

> <i_f3d_flags>
0

> <s_epik_input>
W0NIM11bQ0gyXVtDSDJdW05IXUMoPU8pW0NASF0oW0NIM10pW05IXUMoPU8pW0NIMl1jMVtjSF1zYyhuMSlbQ0hdKFtDSDNdKVtDSDNd

> <s_epik_cmdline>
J2VwaWtfcHl0aG9uJywgJy1waCcsICc3LjAnLCAnLXRuJywgJzgnLCAnLW1hJywgJzIwMCcsICctbWV0YWxfYmluZGluZycsICctaW1hZScsICc8aW5maWxlLm1hZT4nLCAnLW9tYWUnLCAnPG91dGZpbGUubWFlPic=

> <r_lp_tautomer_probability>
1

> <r_epik_Ionization_Penalty>
3.10785e-05

> <r_epik_Ionization_Penalty_Charging>
0

> <r_epik_Ionization_Penalty_Neutral>
3.10785e-05

> <r_epik_State_Penalty>
-0

> <r_epik_Charging_Adjusted_Penalty>
0

> <i_epik_Tot_Q>
0

> <i_epik_Tot_abs_Q>
0

> <r_epik_Metal_State_Penalty>
-0

> <b_epik_Metal_Only>
0

> <s_lp_Force_Field>
OPLS_2005

> <r_lp_Energy>
-5.85781

> <b_lp_Chiralities_Consistent>
1

> <s_lp_Variant>
AV-unprocessed.smi:1336-2

> <Gold.Version>
5.8.1

> <Gold.Id.Protein>
6NUR|6NUR_protein|mol2

> <Gold.PLP.Fitness>
42.6043

> <Gold.PLP.PLP>
-38.9529

> <Gold.PLP.part.hbond>
-2.0000

> <Gold.PLP.part.metal>
0.0000

> <Gold.PLP.part.buried>
-3.8401

> <Gold.PLP.part.nonpolar>
-33.0540

> <Gold.PLP.part.repulsive>
0.1729

> <Gold.PLP.ligand.clash>
0.0000

> <Gold.PLP.ligand.torsion>
1.1714

> <Gold.PLP.Chemscore.Hbond>
1.9500

> <Gold.PLP.Chemscore.CHOScore>
0.0000

> <Gold.PLP.Chemscore.Metal>
0.0000

> <Gold.Chemscore.Hbonds>
donor molecule, donor type, donor heavy atom, donor atom, acceptor molecule, acceptor atom, score
      L1  H     4    28       P1  7948  1.00
      P1  H  7989  7998       L1    11  0.85

> <Gold.PLP.Chemscore.Internal.Correction>
0.1443

> <Gold.Rescore>
     Score         DG    S(hbond)    S(metal)    S(lipo)     H(rot)  DE(clash)    DE(int)     intcor
     16.59     -17.69       1.96        0.00      92.91       2.04       0.01       1.10       ----

> <Gold.Chemscore.Fitness>
16.5895

> <Gold.Chemscore.DG>
-17.6925

> <Gold.Chemscore.ZeroCoef>
-5.4800

> <Gold.Chemscore.Hbond>
1.9618

> <Gold.Chemscore.Metal>
0.0000

> <Gold.Chemscore.Lipo>
92.9105

> <Gold.Chemscore.Internal_Hbond>
0.0000

> <Gold.Chemscore.DEClash>
0.0075

> <Gold.Chemscore.DEInternal>
1.0955

> <Gold.Chemscore.Rot>
2.0353

> <Gold.Chemscore.Internal.Correction>
   9.000000E+99

> <Gold.Chemscore.Hbonds>
donor molecule, donor type, donor heavy atom, donor atom, acceptor molecule, acceptor atom, score
      L1  H     4    28       P1  7948  0.95
      P1  H  7989  7998       L1    11  0.14

> <Gold.Chemscore.Hbond.Weighted>
-6.5524

> <Gold.Chemscore.Metal.Weighted>
-0.0000

> <Gold.Chemscore.Lipo.Weighted>
-10.8705

> <Gold.Chemscore.Internal_Hbond.Weighted>
0.0000

> <Gold.Chemscore.DEClash.Weighted>
0.0075

> <Gold.Chemscore.DEInternal.Weighted>
1.0955

> <Gold.Chemscore.Rot.Weighted>
5.2104

> <Gold.Chemscore.Internal.Correction.Weighted>
   9.000000E+99

> <Gold.Protein.RotatedTorsions>
[ 6907 6896 6895 6894 ] final -143.81 input  -60.11 | X-H torsion
[ 7974 7965 7964 7962 ] final  124.33 input  175.53 | X-H torsion
[ 8008 7997 7996 7995 ] final -163.15 input   59.86 | X-H torsion
[ 10167 10162 10161 10158 ] final   75.25 input  -65.29 | X-H torsion
[ 10718 10713 10712 10709 ] final -156.21 input   66.30 | X-H torsion
[ 10763 10752 10751 10750 ] final  106.21 input  -60.55 | X-H torsion
[ 11005 11000 10999 10996 ] final  142.67 input  -57.11 | X-H torsion

> <Gold.Protein.ActiveResidues>
 VAL166  LYS551  ARG553  GLY616  TRP617  ASP618  TYR619  PRO620  LYS621  CYS622 
 ASP623  PHE694  ASN695  SER759  ASP760  ASP761  ALA762  ILE779  LEU786  VAL792 
 PHE793  MET794  SER795  GLU796  ALA797  LYS798  CYS799  TRP800  GLU811  SER814 

> <Gold.Protein.RotatedAtoms>
  151.1055  133.5211  159.2607 H   0  0  0  0  0  0  0  0  0  0  0  0  # atno 6907 bound_to 6896
  151.2026  135.0448  159.8888 H   0  0  0  0  0  0  0  0  0  0  0  0  # atno 6908 bound_to 6896
  152.5446  134.0881  159.8318 H   0  0  0  0  0  0  0  0  0  0  0  0  # atno 6909 bound_to 6896
  145.0856  139.3624  143.4887 H   0  0  0  0  0  0  0  0  0  0  0  0  # atno 7974 bound_to 7965
  155.8171  140.0914  157.1871 H   0  0  0  0  0  0  0  0  0  0  0  0  # atno 8008 bound_to 7997
  154.3979  140.1444  156.3515 H   0  0  0  0  0  0  0  0  0  0  0  0  # atno 8009 bound_to 7997
  155.8305  140.3443  155.5572 H   0  0  0  0  0  0  0  0  0  0  0  0  # atno 8010 bound_to 7997
  140.0049  144.5658  150.7706 H   0  0  0  0  0  0  0  0  0  0  0  0  # atno 10167 bound_to 10162
  156.5235  130.8488  151.2690 H   0  0  0  0  0  0  0  0  0  0  0  0  # atno 10718 bound_to 10713
  153.3899  135.3884  155.1916 H   0  0  0  0  0  0  0  0  0  0  0  0  # atno 10763 bound_to 10752
  154.8718  135.3746  154.4751 H   0  0  0  0  0  0  0  0  0  0  0  0  # atno 10764 bound_to 10752
  153.5236  135.7086  153.5780 H   0  0  0  0  0  0  0  0  0  0  0  0  # atno 10765 bound_to 10752
  140.0495  134.9263  157.0991 H   0  0  0  0  0  0  0  0  0  0  0  0  # atno 11005 bound_to 11000
  146.3531  140.0667  142.8626 LP  0  0  0  0  0  0  0  0  0  0  0  0  # atno 17320 bound_to 7965
  145.1126  140.9414  143.4647 LP  0  0  0  0  0  0  0  0  0  0  0  0  # atno 17321 bound_to 7965
  140.7404  143.2804  151.3615 LP  0  0  0  0  0  0  0  0  0  0  0  0  # atno 17342 bound_to 10162
  139.6245  144.0841  152.2422 LP  0  0  0  0  0  0  0  0  0  0  0  0  # atno 17343 bound_to 10162
  157.7433  130.9909  150.2583 LP  0  0  0  0  0  0  0  0  0  0  0  0  # atno 17370 bound_to 10713
  156.3127  130.3774  149.7646 LP  0  0  0  0  0  0  0  0  0  0  0  0  # atno 17371 bound_to 10713
  140.3940  134.2154  155.7165 LP  0  0  0  0  0  0  0  0  0  0  0  0  # atno 17394 bound_to 11000
  141.1923  133.8175  157.0844 LP  0  0  0  0  0  0  0  0  0  0  0  0  # atno 17395 bound_to 11000

$$$$
