AV-unprocessed.smi:1857|AV-procd|sdf|7541|dock9
  -GOLD-   22720 9253D 1   1.00000     0.00000
 Structure written by MMmdl.
 45 46  0  0  0  0  0  0  0  0  1 V2000
  149.8396  135.0657  155.1713 C   0  0  0  0  0  0  0  0  0  0  0  0
  149.8627  136.5830  155.4753 C   0  0  0  0  0  0  0  0  0  0  0  0
  150.9910  137.2058  154.6296 C   0  0  0  0  0  0  0  0  0  0  0  0
  148.4861  137.1221  155.0294 C   0  0  0  0  0  0  0  0  0  0  0  0
  150.1215  136.8219  156.9551 C   0  0  0  0  0  0  0  0  0  0  0  0
  150.2247  135.8453  157.8550 N   0  0  0  0  0  0  0  0  0  0  0  0
  150.5237  136.4845  159.0366 N   0  0  0  0  0  0  0  0  0  0  0  0
  150.6269  137.7651  158.8605 N   0  0  0  0  0  0  0  0  0  0  0  0
  150.3866  138.0080  157.5463 N   0  0  0  0  0  0  0  0  0  0  0  0
  150.4783  139.3817  157.0681 C   0  0  0  0  0  0  0  0  0  0  0  0
  151.6845  140.1141  157.6666 C   0  0  0  0  0  0  0  0  0  0  0  0
  152.8108  139.6217  157.5950 O   0  0  0  0  0  0  0  0  0  0  0  0
  151.4324  141.2948  158.2533 N   0  0  0  0  0  0  0  0  0  0  0  0
  152.4283  142.1674  158.8726 C   0  0  0  0  0  0  0  0  0  0  0  0
  152.4219  141.9586  160.4036 C   0  0  0  0  0  0  0  0  0  0  0  0
  153.1393  143.0460  161.2202 C   0  0  0  0  0  0  0  0  0  0  0  0
  152.2137  144.2205  161.5844 C   0  0  0  0  0  0  0  0  0  0  0  0
  151.8580  145.1511  160.4146 C   0  0  0  0  0  0  0  0  0  0  0  0
  151.2112  144.4531  159.2050 C   0  0  0  0  0  0  0  0  0  0  0  0
  152.2174  143.6196  158.3929 C   0  0  0  0  0  0  0  0  0  0  0  0
  149.6454  134.8720  154.1157 H   0  0  0  0  0  0  0  0  0  0  0  0
  149.0631  134.5549  155.7424 H   0  0  0  0  0  0  0  0  0  0  0  0
  150.7919  134.5903  155.4103 H   0  0  0  0  0  0  0  0  0  0  0  0
  151.9612  136.7869  154.8993 H   0  0  0  0  0  0  0  0  0  0  0  0
  151.0578  138.2847  154.7583 H   0  0  0  0  0  0  0  0  0  0  0  0
  150.8383  137.0182  153.5663 H   0  0  0  0  0  0  0  0  0  0  0  0
  148.2700  136.8424  153.9975 H   0  0  0  0  0  0  0  0  0  0  0  0
  148.4166  138.2055  155.0659 H   0  0  0  0  0  0  0  0  0  0  0  0
  147.6851  136.7176  155.6493 H   0  0  0  0  0  0  0  0  0  0  0  0
  150.5573  139.3584  155.9798 H   0  0  0  0  0  0  0  0  0  0  0  0
  149.5647  139.9273  157.2870 H   0  0  0  0  0  0  0  0  0  0  0  0
  150.4769  141.6210  158.2645 H   0  0  0  0  0  0  0  0  0  0  0  0
  153.4106  141.8715  158.4993 H   0  0  0  0  0  0  0  0  0  0  0  0
  151.3984  141.8544  160.7668 H   0  0  0  0  0  0  0  0  0  0  0  0
  152.8968  140.9991  160.6127 H   0  0  0  0  0  0  0  0  0  0  0  0
  153.4817  142.5952  162.1523 H   0  0  0  0  0  0  0  0  0  0  0  0
  154.0382  143.3937  160.7098 H   0  0  0  0  0  0  0  0  0  0  0  0
  151.2985  143.8390  162.0386 H   0  0  0  0  0  0  0  0  0  0  0  0
  152.6969  144.8176  162.3585 H   0  0  0  0  0  0  0  0  0  0  0  0
  151.1708  145.9130  160.7843 H   0  0  0  0  0  0  0  0  0  0  0  0
  152.7488  145.6924  160.0937 H   0  0  0  0  0  0  0  0  0  0  0  0
  150.3525  143.8522  159.5071 H   0  0  0  0  0  0  0  0  0  0  0  0
  150.8148  145.2300  158.5506 H   0  0  0  0  0  0  0  0  0  0  0  0
  153.1777  144.1364  158.3828 H   0  0  0  0  0  0  0  0  0  0  0  0
  151.9039  143.6033  157.3480 H   0  0  0  0  0  0  0  0  0  0  0  0
  1  2  1  0  0  0  0
  1 21  1  0  0  0  0
  1 22  1  0  0  0  0
  1 23  1  0  0  0  0
  2  3  1  0  0  0  0
  2  4  1  0  0  0  0
  2  5  1  0  0  0  0
  3 24  1  0  0  0  0
  3 25  1  0  0  0  0
  3 26  1  0  0  0  0
  4 27  1  0  0  0  0
  4 28  1  0  0  0  0
  4 29  1  0  0  0  0
  5  9  1  0  0  0  0
  5  6  2  0  0  0  0
  6  7  1  0  0  0  0
  7  8  2  0  0  0  0
  8  9  1  0  0  0  0
  9 10  1  0  0  0  0
 10 11  1  0  0  0  0
 10 30  1  0  0  0  0
 10 31  1  0  0  0  0
 11 12  2  0  0  0  0
 11 13  1  0  0  0  0
 13 14  1  0  0  0  0
 13 32  1  0  0  0  0
 14 20  1  0  0  0  0
 14 15  1  0  0  0  0
 14 33  1  0  0  0  0
 15 16  1  0  0  0  0
 15 34  1  0  0  0  0
 15 35  1  0  0  0  0
 16 17  1  0  0  0  0
 16 36  1  0  0  0  0
 16 37  1  0  0  0  0
 17 18  1  0  0  0  0
 17 38  1  0  0  0  0
 17 39  1  0  0  0  0
 18 19  1  0  0  0  0
 18 40  1  0  0  0  0
 18 41  1  0  0  0  0
 19 20  1  0  0  0  0
 19 42  1  0  0  0  0
 19 43  1  0  0  0  0
 20 44  1  0  0  0  0
 20 45  1  0  0  0  0
M  END
> <s_m_source_file>
AV-unprocessed.smi

> <i_m_source_file_index>
1857

> <i_lp_mmshare_version>
43012

> <i_f3d_flags>
0

> <s_epik_input>
W0NIM11DKFtDSDNdKShbQ0gzXSljMW5ubm4xW0NIMl1DKD1PKVtOSF1bQ0hdMltDSDJdW0NIMl1bQ0gyXVtDSDJdW0NIMl1bQ0gyXTI=

> <s_epik_cmdline>
J2VwaWtfcHl0aG9uJywgJy1waCcsICc3LjAnLCAnLXRuJywgJzgnLCAnLW1hJywgJzIwMCcsICctbWV0YWxfYmluZGluZycsICctaW1hZScsICc8aW5maWxlLm1hZT4nLCAnLW9tYWUnLCAnPG91dGZpbGUubWFlPic=

> <r_lp_tautomer_probability>
1

> <r_epik_Ionization_Penalty>
4.53904e-07

> <r_epik_Ionization_Penalty_Charging>
0

> <r_epik_Ionization_Penalty_Neutral>
4.53904e-07

> <r_epik_State_Penalty>
-0

> <r_epik_Charging_Adjusted_Penalty>
0

> <i_epik_Tot_Q>
0

> <i_epik_Tot_abs_Q>
0

> <r_epik_Metal_State_Penalty>
-0

> <b_epik_Metal_Only>
0

> <s_lp_Force_Field>
OPLS_2005

> <r_lp_Energy>
25.0233

> <b_lp_Chiralities_Consistent>
1

> <s_lp_Variant>
AV-unprocessed.smi:1857-1

> <Gold.Version>
5.8.1

> <Gold.Id.Protein>
6NUR|6NUR_protein|mol2

> <Gold.PLP.Fitness>
41.5042

> <Gold.PLP.PLP>
-36.9238

> <Gold.PLP.part.hbond>
-3.0000

> <Gold.PLP.part.metal>
0.0000

> <Gold.PLP.part.buried>
-5.8083

> <Gold.PLP.part.nonpolar>
-28.7161

> <Gold.PLP.part.repulsive>
0.0900

> <Gold.PLP.ligand.clash>
0.0000

> <Gold.PLP.ligand.torsion>
0.6788

> <Gold.PLP.Chemscore.Hbond>
1.9440

> <Gold.PLP.Chemscore.CHOScore>
0.0000

> <Gold.PLP.Chemscore.Metal>
0.0000

> <Gold.Chemscore.Hbonds>
donor molecule, donor type, donor heavy atom, donor atom, acceptor molecule, acceptor atom, score
      P1  H  6896  6907       L1     7  0.90
      P1  H  7997  8008       L1    12  1.00

> <Gold.PLP.Chemscore.Internal.Correction>
0.1061

> <Gold.Rescore>
     Score         DG    S(hbond)    S(metal)    S(lipo)     H(rot)  DE(clash)    DE(int)     intcor
     18.43     -19.26       1.71        0.00     102.94       1.55       0.03       0.80       ----

> <Gold.Chemscore.Fitness>
18.4265

> <Gold.Chemscore.DG>
-19.2575

> <Gold.Chemscore.ZeroCoef>
-5.4800

> <Gold.Chemscore.Hbond>
1.7084

> <Gold.Chemscore.Metal>
0.0000

> <Gold.Chemscore.Lipo>
102.9449

> <Gold.Chemscore.Internal_Hbond>
0.0000

> <Gold.Chemscore.DEClash>
0.0321

> <Gold.Chemscore.DEInternal>
0.7989

> <Gold.Chemscore.Rot>
1.5520

> <Gold.Chemscore.Internal.Correction>
   9.000000E+99

> <Gold.Chemscore.Hbonds>
donor molecule, donor type, donor heavy atom, donor atom, acceptor molecule, acceptor atom, score
      P1  H  6896  6907       L1     7  0.20
      P1  H  7997  8008       L1    12  1.00

> <Gold.Chemscore.Hbond.Weighted>
-5.7060

> <Gold.Chemscore.Metal.Weighted>
-0.0000

> <Gold.Chemscore.Lipo.Weighted>
-12.0445

> <Gold.Chemscore.Internal_Hbond.Weighted>
0.0000

> <Gold.Chemscore.DEClash.Weighted>
0.0321

> <Gold.Chemscore.DEInternal.Weighted>
0.7989

> <Gold.Chemscore.Rot.Weighted>
3.9731

> <Gold.Chemscore.Internal.Correction.Weighted>
   9.000000E+99

> <Gold.Protein.RotatedTorsions>
[ 6907 6896 6895 6894 ] final  -14.40 input  -60.11 | X-H torsion
[ 7974 7965 7964 7962 ] final  -16.78 input  175.53 | X-H torsion
[ 8008 7997 7996 7995 ] final  -72.46 input   59.86 | X-H torsion
[ 10167 10162 10161 10158 ] final  149.49 input  -65.29 | X-H torsion
[ 10718 10713 10712 10709 ] final -112.80 input   66.30 | X-H torsion
[ 10763 10752 10751 10750 ] final  -86.65 input  -60.55 | X-H torsion
[ 11005 11000 10999 10996 ] final   44.22 input  -57.11 | X-H torsion

> <Gold.Protein.ActiveResidues>
 VAL166  LYS551  ARG553  GLY616  TRP617  ASP618  TYR619  PRO620  LYS621  CYS622 
 ASP623  PHE694  ASN695  SER759  ASP760  ASP761  ALA762  ILE779  LEU786  VAL792 
 PHE793  MET794  SER795  GLU796  ALA797  LYS798  CYS799  TRP800  GLU811  SER814 

> <Gold.Protein.RotatedAtoms>
  151.3400  135.0861  159.9367 H   0  0  0  0  0  0  0  0  0  0  0  0  # atno 6907 bound_to 6896
  152.5214  133.9456  159.7658 H   0  0  0  0  0  0  0  0  0  0  0  0  # atno 6908 bound_to 6896
  150.9812  133.6191  159.2752 H   0  0  0  0  0  0  0  0  0  0  0  0  # atno 6909 bound_to 6896
  146.1972  140.3685  142.8436 H   0  0  0  0  0  0  0  0  0  0  0  0  # atno 7974 bound_to 7965
  154.5168  140.0797  156.8096 H   0  0  0  0  0  0  0  0  0  0  0  0  # atno 8008 bound_to 7997
  155.3663  140.3420  155.4224 H   0  0  0  0  0  0  0  0  0  0  0  0  # atno 8009 bound_to 7997
  156.1636  140.1596  156.8556 H   0  0  0  0  0  0  0  0  0  0  0  0  # atno 8010 bound_to 7997
  139.4861  144.5597  151.7253 H   0  0  0  0  0  0  0  0  0  0  0  0  # atno 10167 bound_to 10162
  156.0728  130.5939  150.8557 H   0  0  0  0  0  0  0  0  0  0  0  0  # atno 10718 bound_to 10713
  154.6249  135.5441  153.7616 H   0  0  0  0  0  0  0  0  0  0  0  0  # atno 10763 bound_to 10752
  153.0256  135.6421  154.1387 H   0  0  0  0  0  0  0  0  0  0  0  0  # atno 10764 bound_to 10752
  154.1319  135.2913  155.3163 H   0  0  0  0  0  0  0  0  0  0  0  0  # atno 10765 bound_to 10752
  140.1572  134.4387  155.8342 H   0  0  0  0  0  0  0  0  0  0  0  0  # atno 11005 bound_to 11000
  144.8605  140.7132  143.6110 LP  0  0  0  0  0  0  0  0  0  0  0  0  # atno 17320 bound_to 7965
  145.3605  139.1683  143.4386 LP  0  0  0  0  0  0  0  0  0  0  0  0  # atno 17321 bound_to 7965
  140.5165  144.0945  150.6010 LP  0  0  0  0  0  0  0  0  0  0  0  0  # atno 17342 bound_to 10162
  140.3888  143.2763  152.0084 LP  0  0  0  0  0  0  0  0  0  0  0  0  # atno 17343 bound_to 10162
  157.5807  131.0946  150.9275 LP  0  0  0  0  0  0  0  0  0  0  0  0  # atno 17370 bound_to 10713
  156.9471  130.5406  149.5281 LP  0  0  0  0  0  0  0  0  0  0  0  0  # atno 17371 bound_to 10713
  141.2205  133.6897  156.7528 LP  0  0  0  0  0  0  0  0  0  0  0  0  # atno 17394 bound_to 11000
  140.2534  134.8523  157.3689 LP  0  0  0  0  0  0  0  0  0  0  0  0  # atno 17395 bound_to 11000

$$$$
