AV-unprocessed.smi:1464|AV-procd|sdf|5949|dock6
  -GOLD-   22720 6 33D 1   1.00000     0.00000
 Structure written by MMmdl.
 41 42  0  0  0  0  0  0  0  0  1 V2000
  148.0153  132.7744  161.9252 C   0  0  0  0  0  0  0  0  0  0  0  0
  147.7275  134.2837  161.8637 C   0  0  2  0  0  0  0  0  0  0  0  0
  146.3711  134.6365  162.5079 C   0  0  0  0  0  0  0  0  0  0  0  0
  146.1381  136.1557  162.5332 C   0  0  0  0  0  0  0  0  0  0  0  0
  146.2802  136.7752  161.1342 C   0  0  0  0  0  0  0  0  0  0  0  0
  147.6390  136.4186  160.5012 C   0  0  2  0  0  0  0  0  0  0  0  0
  147.7616  137.0531  159.1905 N   0  0  0  0  0  0  0  0  0  0  0  0
  148.8108  136.9278  158.3634 C   0  0  0  0  0  0  0  0  0  0  0  0
  149.7945  136.2326  158.6211 O   0  0  0  0  0  0  0  0  0  0  0  0
  148.7152  137.6879  157.0328 C   0  0  0  0  0  0  0  0  0  0  0  0
  150.0236  138.1053  156.5078 N   0  0  0  0  0  0  0  0  0  0  0  0
  150.4264  137.4178  155.3725 N   0  0  0  0  0  0  0  0  0  0  0  0
  151.5640  137.6867  154.8263 C   0  0  0  0  0  0  0  0  0  0  0  0
  151.9256  136.9802  153.7056 O   0  0  0  0  0  0  0  0  0  0  0  0
  152.4368  138.7017  155.3740 C   0  0  0  0  0  0  0  0  0  0  0  0
  152.0345  139.3682  156.4779 C   0  0  0  0  0  0  0  0  0  0  0  0
  150.7499  139.0891  157.1227 C   0  0  0  0  0  0  0  0  0  0  0  0
  150.3568  139.6833  158.1265 O   0  0  0  0  0  0  0  0  0  0  0  0
  147.8550  134.8818  160.4373 C   0  0  2  0  0  0  0  0  0  0  0  0
  146.9561  134.1826  159.3909 C   0  0  0  0  0  0  0  0  0  0  0  0
  151.1156  136.6613  153.3384 H   0  0  0  0  0  0  0  0  0  0  0  0
  147.2358  132.1920  161.4338 H   0  0  0  0  0  0  0  0  0  0  0  0
  148.0725  132.4325  162.9589 H   0  0  0  0  0  0  0  0  0  0  0  0
  148.9664  132.5356  161.4486 H   0  0  0  0  0  0  0  0  0  0  0  0
  148.4988  134.7599  162.4713 H   0  0  0  0  0  0  0  0  0  0  0  0
  145.5590  134.1485  161.9685 H   0  0  0  0  0  0  0  0  0  0  0  0
  146.3328  134.2503  163.5271 H   0  0  0  0  0  0  0  0  0  0  0  0
  145.1492  136.3736  162.9375 H   0  0  0  0  0  0  0  0  0  0  0  0
  146.8563  136.6206  163.2097 H   0  0  0  0  0  0  0  0  0  0  0  0
  145.4636  136.4334  160.4975 H   0  0  0  0  0  0  0  0  0  0  0  0
  146.1767  137.8587  161.2069 H   0  0  0  0  0  0  0  0  0  0  0  0
  148.4112  136.8426  161.1467 H   0  0  0  0  0  0  0  0  0  0  0  0
  146.9926  137.6365  158.8945 H   0  0  0  0  0  0  0  0  0  0  0  0
  148.2076  137.0428  156.3135 H   0  0  0  0  0  0  0  0  0  0  0  0
  148.0683  138.5593  157.1515 H   0  0  0  0  0  0  0  0  0  0  0  0
  153.3859  138.9139  154.9044 H   0  0  0  0  0  0  0  0  0  0  0  0
  152.6768  140.1278  156.8989 H   0  0  0  0  0  0  0  0  0  0  0  0
  148.8838  134.7152  160.1147 H   0  0  0  0  0  0  0  0  0  0  0  0
  145.8977  134.2673  159.6347 H   0  0  0  0  0  0  0  0  0  0  0  0
  147.1907  133.1219  159.3089 H   0  0  0  0  0  0  0  0  0  0  0  0
  147.0976  134.6043  158.3959 H   0  0  0  0  0  0  0  0  0  0  0  0
  1  2  1  0  0  0  0
  1 22  1  0  0  0  0
  1 23  1  0  0  0  0
  1 24  1  0  0  0  0
  2 19  1  0  0  0  0
  2  3  1  0  0  0  0
  2 25  1  0  0  0  0
  3  4  1  0  0  0  0
  3 26  1  0  0  0  0
  3 27  1  0  0  0  0
  4  5  1  0  0  0  0
  4 28  1  0  0  0  0
  4 29  1  0  0  0  0
  5  6  1  0  0  0  0
  5 30  1  0  0  0  0
  5 31  1  0  0  0  0
  6  7  1  0  0  0  0
  6 19  1  0  0  0  0
  6 32  1  0  0  0  0
  7  8  1  0  0  0  0
  7 33  1  0  0  0  0
  8  9  2  0  0  0  0
  8 10  1  0  0  0  0
 10 34  1  0  0  0  0
 10 35  1  0  0  0  0
 10 11  1  0  0  0  0
 11 12  1  0  0  0  0
 11 17  1  0  0  0  0
 12 13  2  0  0  0  0
 13 14  1  0  0  0  0
 13 15  1  0  0  0  0
 14 21  1  0  0  0  0
 15 36  1  0  0  0  0
 15 16  2  0  0  0  0
 16 37  1  0  0  0  0
 16 17  1  0  0  0  0
 17 18  2  0  0  0  0
 19 20  1  0  0  0  0
 19 38  1  0  0  0  0
 20 39  1  0  0  0  0
 20 40  1  0  0  0  0
 20 41  1  0  0  0  0
M  END
> <s_m_source_file>
AV-unprocessed.smi

> <i_m_source_file_index>
1464

> <i_lp_mmshare_version>
43012

> <i_f3d_flags>
0

> <s_epik_input>
W0NIM11bQ0BASF0xW0NIMl1bQ0gyXVtDSDJdW0NASF0oW0NASF0xW0NIM10pW05IXUMoPU8pW0NIMl1uMltuSF1jKD1PKVtjSF1bY0hdYzI9Tw==

> <s_epik_cmdline>
J2VwaWtfcHl0aG9uJywgJy1waCcsICc3LjAnLCAnLXRuJywgJzgnLCAnLW1hJywgJzIwMCcsICctbWV0YWxfYmluZGluZycsICctaW1hZScsICc8aW5maWxlLm1hZT4nLCAnLW9tYWUnLCAnPG91dGZpbGUubWFlPic=

> <r_lp_tautomer_probability>
0.9996

> <r_epik_Ionization_Penalty>
2.10335

> <r_epik_Ionization_Penalty_Charging>
3.98079e-08

> <r_epik_Ionization_Penalty_Neutral>
2.10335

> <r_epik_State_Penalty>
1.67957

> <r_epik_Charging_Adjusted_Penalty>
1.67957

> <i_epik_Tot_Q>
0

> <i_epik_Tot_abs_Q>
0

> <r_epik_Metal_State_Penalty>
1.67957

> <b_epik_Metal_Only>
0

> <s_lp_Force_Field>
OPLS_2005

> <r_lp_Energy>
25.7664

> <b_lp_Chiralities_Consistent>
1

> <s_lp_Variant>
AV-unprocessed.smi:1464-15

> <Gold.Version>
5.8.1

> <Gold.Id.Protein>
6NUR|6NUR_protein|mol2

> <Gold.PLP.Fitness>
36.2117

> <Gold.PLP.PLP>
-30.1841

> <Gold.PLP.part.hbond>
-3.0000

> <Gold.PLP.part.metal>
0.0000

> <Gold.PLP.part.buried>
-5.1014

> <Gold.PLP.part.nonpolar>
-22.9558

> <Gold.PLP.part.repulsive>
0.2369

> <Gold.PLP.ligand.clash>
0.0000

> <Gold.PLP.ligand.torsion>
0.4903

> <Gold.PLP.Chemscore.Hbond>
2.3312

> <Gold.PLP.Chemscore.CHOScore>
0.0000

> <Gold.PLP.Chemscore.Metal>
0.0000

> <Gold.Chemscore.Hbonds>
donor molecule, donor type, donor heavy atom, donor atom, acceptor molecule, acceptor atom, score
      L1  H    14    21       P1  7949  0.35
      P1  H  6896  6908       L1     9  1.00
      P1  H 10752 10763       L1    14  1.00

> <Gold.PLP.Chemscore.Internal.Correction>
0.0145

> <Gold.Rescore>
     Score         DG    S(hbond)    S(metal)    S(lipo)     H(rot)  DE(clash)    DE(int)     intcor
     13.34     -15.06       2.05        0.00      71.97       2.22       0.08       1.64       ----

> <Gold.Chemscore.Fitness>
13.3434

> <Gold.Chemscore.DG>
-15.0610

> <Gold.Chemscore.ZeroCoef>
-5.4800

> <Gold.Chemscore.Hbond>
2.0510

> <Gold.Chemscore.Metal>
0.0000

> <Gold.Chemscore.Lipo>
71.9652

> <Gold.Chemscore.Internal_Hbond>
0.0000

> <Gold.Chemscore.DEClash>
0.0807

> <Gold.Chemscore.DEInternal>
1.6369

> <Gold.Chemscore.Rot>
2.2224

> <Gold.Chemscore.Internal.Correction>
   9.000000E+99

> <Gold.Chemscore.Hbonds>
donor molecule, donor type, donor heavy atom, donor atom, acceptor molecule, acceptor atom, score
      L1  H    14    21       P1  7949  0.13
      P1  H  6896  6908       L1     9  0.93
      P1  H 10752 10763       L1    14  0.72

> <Gold.Chemscore.Hbond.Weighted>
-6.8504

> <Gold.Chemscore.Metal.Weighted>
-0.0000

> <Gold.Chemscore.Lipo.Weighted>
-8.4199

> <Gold.Chemscore.Internal_Hbond.Weighted>
0.0000

> <Gold.Chemscore.DEClash.Weighted>
0.0807

> <Gold.Chemscore.DEInternal.Weighted>
1.6369

> <Gold.Chemscore.Rot.Weighted>
5.6893

> <Gold.Chemscore.Internal.Correction.Weighted>
   9.000000E+99

> <Gold.Protein.RotatedTorsions>
[ 6907 6896 6895 6894 ] final -174.05 input  -60.11 | X-H torsion
[ 7974 7965 7964 7962 ] final  -55.61 input  175.53 | X-H torsion
[ 8008 7997 7996 7995 ] final -137.53 input   59.86 | X-H torsion
[ 10167 10162 10161 10158 ] final   70.21 input  -65.29 | X-H torsion
[ 10718 10713 10712 10709 ] final -130.07 input   66.30 | X-H torsion
[ 10763 10752 10751 10750 ] final   25.70 input  -60.55 | X-H torsion
[ 11005 11000 10999 10996 ] final  169.96 input  -57.11 | X-H torsion

> <Gold.Protein.ActiveResidues>
 VAL166  LYS551  ARG553  GLY616  TRP617  ASP618  TYR619  PRO620  LYS621  CYS622 
 ASP623  PHE694  ASN695  SER759  ASP760  ASP761  ALA762  ILE779  LEU786  VAL792 
 PHE793  MET794  SER795  GLU796  ALA797  LYS798  CYS799  TRP800  GLU811  SER814 

> <Gold.Protein.RotatedAtoms>
  151.5661  133.3396  159.2980 H   0  0  0  0  0  0  0  0  0  0  0  0  # atno 6907 bound_to 6896
  150.8394  134.7684  159.6931 H   0  0  0  0  0  0  0  0  0  0  0  0  # atno 6908 bound_to 6896
  152.4465  134.5491  159.9913 H   0  0  0  0  0  0  0  0  0  0  0  0  # atno 6909 bound_to 6896
  145.8722  140.8207  142.9882 H   0  0  0  0  0  0  0  0  0  0  0  0  # atno 7974 bound_to 7965
  155.4134  140.0513  157.3030 H   0  0  0  0  0  0  0  0  0  0  0  0  # atno 8008 bound_to 7997
  154.4936  140.2129  155.9455 H   0  0  0  0  0  0  0  0  0  0  0  0  # atno 8009 bound_to 7997
  156.1375  140.3160  155.8449 H   0  0  0  0  0  0  0  0  0  0  0  0  # atno 8010 bound_to 7997
  140.0594  144.5245  150.7305 H   0  0  0  0  0  0  0  0  0  0  0  0  # atno 10167 bound_to 10162
  156.2109  130.6917  151.0648 H   0  0  0  0  0  0  0  0  0  0  0  0  # atno 10718 bound_to 10713
  153.0673  135.6577  154.0325 H   0  0  0  0  0  0  0  0  0  0  0  0  # atno 10763 bound_to 10752
  153.9979  135.2940  155.3407 H   0  0  0  0  0  0  0  0  0  0  0  0  # atno 10764 bound_to 10752
  154.7036  135.5234  153.8631 H   0  0  0  0  0  0  0  0  0  0  0  0  # atno 10765 bound_to 10752
  140.3033  134.7577  157.3933 H   0  0  0  0  0  0  0  0  0  0  0  0  # atno 11005 bound_to 11000
  144.6726  140.1256  143.7447 LP  0  0  0  0  0  0  0  0  0  0  0  0  # atno 17320 bound_to 7965
  145.9123  139.2495  143.1430 LP  0  0  0  0  0  0  0  0  0  0  0  0  # atno 17321 bound_to 7965
  140.7179  143.2561  151.4375 LP  0  0  0  0  0  0  0  0  0  0  0  0  # atno 17342 bound_to 10162
  139.5903  144.1514  152.2080 LP  0  0  0  0  0  0  0  0  0  0  0  0  # atno 17343 bound_to 10162
  157.7037  131.0765  150.6736 LP  0  0  0  0  0  0  0  0  0  0  0  0  # atno 17370 bound_to 10713
  156.6795  130.4563  149.5632 LP  0  0  0  0  0  0  0  0  0  0  0  0  # atno 17371 bound_to 10713
  140.1089  134.5371  155.8284 LP  0  0  0  0  0  0  0  0  0  0  0  0  # atno 17394 bound_to 11000
  141.2123  133.6718  156.6652 LP  0  0  0  0  0  0  0  0  0  0  0  0  # atno 17395 bound_to 11000

$$$$
