AV-unprocessed.smi:2923|AV-procd|sdf|11204|dock1
  -GOLD-   2272016 93D 1   1.00000     0.00000
 Structure written by MMmdl.
 47 49  0  0  0  0  0  0  0  0  2 V2000
  145.9800  138.2299  151.3777 C   0  0  0  0  0  0  0  0  0  0  0  0
  146.0181  138.1427  152.8317 N   0  0  0  0  0  0  0  0  0  0  0  0
  145.2239  137.1385  153.5308 C   0  0  0  0  0  0  0  0  0  0  0  0
  146.7830  139.0711  153.5708 C   0  0  0  0  0  0  0  0  0  0  0  0
  147.9839  138.7294  154.2396 C   0  0  0  0  0  0  0  0  0  0  0  0
  148.6918  139.7148  154.9578 C   0  0  0  0  0  0  0  0  0  0  0  0
  148.2062  141.0382  155.0002 C   0  0  0  0  0  0  0  0  0  0  0  0
  148.9465  141.9928  155.7488 N   0  0  0  0  0  0  0  0  0  0  0  0
  149.9871  141.7845  156.5738 C   0  0  0  0  0  0  0  0  0  0  0  0
  150.4563  140.6847  156.8649 O   0  0  0  0  0  0  0  0  0  0  0  0
  150.4581  142.9395  157.0624 N   0  0  0  0  0  0  0  0  0  0  0  0
  151.5865  143.0447  157.9822 C   0  0  2  0  0  0  0  0  0  0  0  0
  151.5327  141.9941  159.1022 C   0  0  1  0  0  0  0  0  0  0  0  0
  152.5931  140.9296  159.1835 C   0  0  0  0  0  0  0  0  0  0  0  0
  153.5899  141.5160  160.1873 C   0  0  0  0  0  0  0  0  0  0  0  0
  153.3480  142.9206  160.1553 O   0  0  0  0  0  0  0  0  0  0  0  0
  151.9389  143.1108  160.0520 C   0  0  1  0  0  0  0  0  0  0  0  0
  151.4569  144.1713  159.0397 C   0  0  0  0  0  0  0  0  0  0  0  0
  152.3726  145.3817  158.8506 C   0  0  0  0  0  0  0  0  0  0  0  0
  150.0516  144.7200  159.3259 C   0  0  0  0  0  0  0  0  0  0  0  0
  146.9962  141.3279  154.3259 C   0  0  0  0  0  0  0  0  0  0  0  0
  146.3496  140.3528  153.6515 N   0  3  0  0  0  0  0  0  0  0  0  0
  145.5783  139.1933  151.0617 H   0  0  0  0  0  0  0  0  0  0  0  0
  145.3501  137.4497  150.9503 H   0  0  0  0  0  0  0  0  0  0  0  0
  146.9808  138.1147  150.9605 H   0  0  0  0  0  0  0  0  0  0  0  0
  145.8649  136.4970  154.1369 H   0  0  0  0  0  0  0  0  0  0  0  0
  144.6822  136.5023  152.8304 H   0  0  0  0  0  0  0  0  0  0  0  0
  144.4918  137.6153  154.1837 H   0  0  0  0  0  0  0  0  0  0  0  0
  148.3767  137.7239  154.2155 H   0  0  0  0  0  0  0  0  0  0  0  0
  149.6065  139.4517  155.4691 H   0  0  0  0  0  0  0  0  0  0  0  0
  148.6267  142.9472  155.6721 H   0  0  0  0  0  0  0  0  0  0  0  0
  150.0152  143.8011  156.7793 H   0  0  0  0  0  0  0  0  0  0  0  0
  152.5593  143.0543  157.4853 H   0  0  0  0  0  0  0  0  0  0  0  0
  150.5186  141.6453  159.3063 H   0  0  0  0  0  0  0  0  0  0  0  0
  152.2010  139.9701  159.5217 H   0  0  0  0  0  0  0  0  0  0  0  0
  153.0650  140.7755  158.2126 H   0  0  0  0  0  0  0  0  0  0  0  0
  153.3852  141.1441  161.1924 H   0  0  0  0  0  0  0  0  0  0  0  0
  154.6255  141.2811  159.9405 H   0  0  0  0  0  0  0  0  0  0  0  0
  151.4222  143.0892  161.0127 H   0  0  0  0  0  0  0  0  0  0  0  0
  152.4210  145.9918  159.7530 H   0  0  0  0  0  0  0  0  0  0  0  0
  152.0281  146.0203  158.0366 H   0  0  0  0  0  0  0  0  0  0  0  0
  153.3925  145.0808  158.6095 H   0  0  0  0  0  0  0  0  0  0  0  0
  150.0406  145.3348  160.2263 H   0  0  0  0  0  0  0  0  0  0  0  0
  149.3276  143.9190  159.4785 H   0  0  0  0  0  0  0  0  0  0  0  0
  149.6847  145.3378  158.5057 H   0  0  0  0  0  0  0  0  0  0  0  0
  146.5087  142.2908  154.3043 H   0  0  0  0  0  0  0  0  0  0  0  0
  145.4806  140.5972  153.1762 H   0  0  0  0  0  0  0  0  0  0  0  0
  1  2  1  0  0  0  0
  1 23  1  0  0  0  0
  1 24  1  0  0  0  0
  1 25  1  0  0  0  0
  2  3  1  0  0  0  0
  2  4  1  0  0  0  0
  3 26  1  0  0  0  0
  3 27  1  0  0  0  0
  3 28  1  0  0  0  0
  4 22  1  0  0  0  0
  4  5  2  0  0  0  0
  5  6  1  0  0  0  0
  5 29  1  0  0  0  0
  6  7  2  0  0  0  0
  6 30  1  0  0  0  0
  7  8  1  0  0  0  0
  7 21  1  0  0  0  0
  8  9  1  0  0  0  0
  8 31  1  0  0  0  0
  9 10  2  0  0  0  0
  9 11  1  0  0  0  0
 11 12  1  0  0  0  0
 11 32  1  0  0  0  0
 12 18  1  0  0  0  0
 12 13  1  0  0  0  0
 12 33  1  0  0  0  0
 13 17  1  0  0  0  0
 13 14  1  0  0  0  0
 13 34  1  0  0  0  0
 14 15  1  0  0  0  0
 14 35  1  0  0  0  0
 14 36  1  0  0  0  0
 15 16  1  0  0  0  0
 15 37  1  0  0  0  0
 15 38  1  0  0  0  0
 16 17  1  0  0  0  0
 17 18  1  0  0  0  0
 17 39  1  0  0  0  0
 18 19  1  0  0  0  0
 18 20  1  0  0  0  0
 19 40  1  0  0  0  0
 19 41  1  0  0  0  0
 19 42  1  0  0  0  0
 20 43  1  0  0  0  0
 20 44  1  0  0  0  0
 20 45  1  0  0  0  0
 21 22  2  0  0  0  0
 21 46  1  0  0  0  0
 22 47  1  0  0  0  0
M  CHG  1  22   1
M  END
> <s_m_source_file>
AV-unprocessed.smi

> <i_m_source_file_index>
2923

> <i_lp_mmshare_version>
43012

> <i_f3d_flags>
0

> <s_epik_input>
W0NIM11OKFtDSDNdKWMxW2NIXVtjSF1jKFtjSF1uMSlbTkhdQyg9TylbTkhdW0NASF0yQyhbQ0gzXSkoW0NIM10pW0NAQEhdKFtDQEhdMjMpT1tDSDJdW0NIMl0z

> <s_epik_cmdline>
J2VwaWtfcHl0aG9uJywgJy1waCcsICc3LjAnLCAnLXRuJywgJzgnLCAnLW1hJywgJzIwMCcsICctbWV0YWxfYmluZGluZycsICctaW1hZScsICc8aW5maWxlLm1hZT4nLCAnLW9tYWUnLCAnPG91dGZpbGUubWFlPic=

> <r_lp_tautomer_probability>
0.999994

> <r_epik_Ionization_Penalty>
0.252205

> <r_epik_Ionization_Penalty_Charging>
0.252185

> <r_epik_Ionization_Penalty_Neutral>
1.99479e-05

> <r_epik_State_Penalty>
0.243573

> <r_epik_Charging_Adjusted_Penalty>
0.495758

> <i_epik_Tot_Q>
1

> <i_epik_Tot_abs_Q>
1

> <r_epik_Metal_State_Penalty>
0.534372

> <b_epik_Metal_Only>
0

> <s_lp_Force_Field>
OPLS_2005

> <r_lp_Energy>
44.365

> <b_lp_Chiralities_Consistent>
1

> <s_lp_Variant>
AV-unprocessed.smi:2923-3

> <Gold.Version>
5.8.1

> <Gold.Id.Protein>
6NUR|6NUR_protein|mol2

> <Gold.PLP.Fitness>
53.4677

> <Gold.PLP.PLP>
-44.8834

> <Gold.PLP.part.hbond>
-3.0000

> <Gold.PLP.part.metal>
0.0000

> <Gold.PLP.part.buried>
-1.4601

> <Gold.PLP.part.nonpolar>
-42.7744

> <Gold.PLP.part.repulsive>
0.1958

> <Gold.PLP.ligand.clash>
0.0000

> <Gold.PLP.ligand.torsion>
1.6640

> <Gold.PLP.Chemscore.Hbond>
3.9105

> <Gold.PLP.Chemscore.CHOScore>
0.0000

> <Gold.PLP.Chemscore.Metal>
0.0000

> <Gold.Chemscore.Hbonds>
donor molecule, donor type, donor heavy atom, donor atom, acceptor molecule, acceptor atom, score
      L1  H     8    31       P1  8028  1.00
      L1  H    11    32       P1  8028  1.00
      L1  H    22    47       P1 10175  2.00

> <Gold.PLP.Chemscore.Internal.Correction>
0.1808

> <Gold.Rescore>
     Score         DG    S(hbond)    S(metal)    S(lipo)     H(rot)  DE(clash)    DE(int)     intcor
     20.54     -26.33       2.82        0.00     119.43       1.00       1.59       4.20       ----

> <Gold.Chemscore.Fitness>
20.5390

> <Gold.Chemscore.DG>
-26.3257

> <Gold.Chemscore.ZeroCoef>
-5.4800

> <Gold.Chemscore.Hbond>
2.8242

> <Gold.Chemscore.Metal>
0.0000

> <Gold.Chemscore.Lipo>
119.4270

> <Gold.Chemscore.Internal_Hbond>
0.0000

> <Gold.Chemscore.DEClash>
1.5871

> <Gold.Chemscore.DEInternal>
4.1996

> <Gold.Chemscore.Rot>
1.0000

> <Gold.Chemscore.Internal.Correction>
   9.000000E+99

> <Gold.Chemscore.Hbonds>
donor molecule, donor type, donor heavy atom, donor atom, acceptor molecule, acceptor atom, score
      L1  H     8    31       P1  8028  0.97
      L1  H    11    32       P1  8028  0.95
      L1  H    22    47       P1 10175  0.85

> <Gold.Chemscore.Hbond.Weighted>
-9.4327

> <Gold.Chemscore.Metal.Weighted>
-0.0000

> <Gold.Chemscore.Lipo.Weighted>
-13.9730

> <Gold.Chemscore.Internal_Hbond.Weighted>
0.0000

> <Gold.Chemscore.DEClash.Weighted>
1.5871

> <Gold.Chemscore.DEInternal.Weighted>
4.1996

> <Gold.Chemscore.Rot.Weighted>
2.5600

> <Gold.Chemscore.Internal.Correction.Weighted>
   9.000000E+99

> <Gold.Protein.RotatedTorsions>
[ 6907 6896 6895 6894 ] final  -42.05 input  -60.11 | X-H torsion
[ 7974 7965 7964 7962 ] final -136.40 input  175.53 | X-H torsion
[ 8008 7997 7996 7995 ] final  -72.50 input   59.86 | X-H torsion
[ 10167 10162 10161 10158 ] final -172.35 input  -65.29 | X-H torsion
[ 10718 10713 10712 10709 ] final  -32.53 input   66.30 | X-H torsion
[ 10763 10752 10751 10750 ] final -118.52 input  -60.55 | X-H torsion
[ 11005 11000 10999 10996 ] final -115.89 input  -57.11 | X-H torsion

> <Gold.Protein.ActiveResidues>
 VAL166  LYS551  ARG553  GLY616  TRP617  ASP618  TYR619  PRO620  LYS621  CYS622 
 ASP623  PHE694  ASN695  SER759  ASP760  ASP761  ALA762  ILE779  LEU786  VAL792 
 PHE793  MET794  SER795  GLU796  ALA797  LYS798  CYS799  TRP800  GLU811  SER814 

> <Gold.Protein.RotatedAtoms>
  150.9597  134.8987  159.7722 H   0  0  0  0  0  0  0  0  0  0  0  0  # atno 6907 bound_to 6896
  152.5151  134.3690  159.9321 H   0  0  0  0  0  0  0  0  0  0  0  0  # atno 6908 bound_to 6896
  151.3702  133.3817  159.2733 H   0  0  0  0  0  0  0  0  0  0  0  0  # atno 6909 bound_to 6896
  144.8930  140.6668  143.5133 H   0  0  0  0  0  0  0  0  0  0  0  0  # atno 7974 bound_to 7965
  154.5171  140.0796  156.8102 H   0  0  0  0  0  0  0  0  0  0  0  0  # atno 8008 bound_to 7997
  155.3656  140.3420  155.4223 H   0  0  0  0  0  0  0  0  0  0  0  0  # atno 8009 bound_to 7997
  156.1640  140.1598  156.8550 H   0  0  0  0  0  0  0  0  0  0  0  0  # atno 8010 bound_to 7997
  139.5749  144.1555  152.1437 H   0  0  0  0  0  0  0  0  0  0  0  0  # atno 10167 bound_to 10162
  156.3738  130.4344  149.7524 H   0  0  0  0  0  0  0  0  0  0  0  0  # atno 10718 bound_to 10713
  154.8590  135.4271  154.2153 H   0  0  0  0  0  0  0  0  0  0  0  0  # atno 10763 bound_to 10752
  153.3169  135.6979  153.7071 H   0  0  0  0  0  0  0  0  0  0  0  0  # atno 10764 bound_to 10752
  153.6141  135.3514  155.2962 H   0  0  0  0  0  0  0  0  0  0  0  0  # atno 10765 bound_to 10752
  141.0458  133.9765  157.2920 H   0  0  0  0  0  0  0  0  0  0  0  0  # atno 11005 bound_to 11000
  145.3749  139.1650  143.4312 LP  0  0  0  0  0  0  0  0  0  0  0  0  # atno 17320 bound_to 7965
  146.3065  140.3825  142.8685 LP  0  0  0  0  0  0  0  0  0  0  0  0  # atno 17321 bound_to 7965
  140.1096  144.5469  150.6934 LP  0  0  0  0  0  0  0  0  0  0  0  0  # atno 17342 bound_to 10162
  140.7032  143.2449  151.4802 LP  0  0  0  0  0  0  0  0  0  0  0  0  # atno 17343 bound_to 10162
  156.4641  130.7965  151.2985 LP  0  0  0  0  0  0  0  0  0  0  0  0  # atno 17370 bound_to 10713
  157.7486  131.0056  150.3122 LP  0  0  0  0  0  0  0  0  0  0  0  0  # atno 17371 bound_to 10713
  139.9311  135.0200  156.8401 LP  0  0  0  0  0  0  0  0  0  0  0  0  # atno 17394 bound_to 11000
  140.6149  134.0047  155.7593 LP  0  0  0  0  0  0  0  0  0  0  0  0  # atno 17395 bound_to 11000

$$$$
