AV-unprocessed.smi:164|AV-procd|sdf|1383|dock9
  -GOLD-   2262019113D 1   1.00000     0.00000
 Structure written by MMmdl.
 53 55  0  0  0  0  0  0  0  0  1 V2000
  152.4126  143.5629  159.8380 C   0  0  0  0  0  0  0  0  0  0  0  0
  152.4948  142.0618  159.6198 C   0  0  0  0  0  0  0  0  0  0  0  0
  153.4982  141.3293  160.2865 C   0  0  0  0  0  0  0  0  0  0  0  0
  153.6063  139.9395  160.1035 C   0  0  0  0  0  0  0  0  0  0  0  0
  152.7049  139.2647  159.2578 C   0  0  0  0  0  0  0  0  0  0  0  0
  152.8350  137.7650  159.0646 C   0  0  0  0  0  0  0  0  0  0  0  0
  151.6853  139.9878  158.5969 C   0  0  0  0  0  0  0  0  0  0  0  0
  150.8109  139.3170  157.7812 O   0  0  0  0  0  0  0  0  0  0  0  0
  149.5399  139.0901  158.3735 C   0  0  0  0  0  0  0  0  0  0  0  0
  149.2598  137.5789  158.3845 C   0  0  1  0  0  0  0  0  0  0  0  0
  149.8925  137.0485  159.5323 O   0  0  0  0  0  0  0  0  0  0  0  0
  147.7469  137.2779  158.4829 C   0  0  0  0  0  0  0  0  0  0  0  0
  147.4537  136.0000  159.1121 N   0  0  0  0  0  0  0  0  0  0  0  0
  146.9637  136.0214  160.4414 C   0  0  0  0  0  0  0  0  0  0  0  0
  146.8079  137.0735  161.0645 O   0  0  0  0  0  0  0  0  0  0  0  0
  146.6478  134.7083  160.9922 C   0  0  0  0  0  0  0  0  0  0  0  0
  146.1631  134.6105  162.2417 F   0  0  0  0  0  0  0  0  0  0  0  0
  146.8273  133.5856  160.2634 C   0  0  0  0  0  0  0  0  0  0  0  0
  147.3232  133.5920  158.9724 N   0  0  0  0  0  0  0  0  0  0  0  0
  147.4351  132.2864  158.2196 C   0  0  2  0  0  0  0  0  0  0  0  0
  146.5190  132.2053  156.9838 C   0  0  0  0  0  0  0  0  0  0  0  0
  145.6642  130.9825  157.2737 C   0  0  0  0  0  0  0  0  0  0  0  0
  146.5000  130.2176  158.2942 C   0  0  0  0  0  0  0  0  0  0  0  0
  147.0820  131.2467  159.0787 O   0  0  0  0  0  0  0  0  0  0  0  0
  147.6235  134.8233  158.3438 C   0  0  0  0  0  0  0  0  0  0  0  0
  148.0070  134.8629  157.1732 O   0  0  0  0  0  0  0  0  0  0  0  0
  151.5872  141.3927  158.7608 C   0  0  0  0  0  0  0  0  0  0  0  0
  150.5133  142.1779  158.0196 C   0  0  0  0  0  0  0  0  0  0  0  0
  153.0861  143.8864  160.6322 H   0  0  0  0  0  0  0  0  0  0  0  0
  151.4015  143.8577  160.1197 H   0  0  0  0  0  0  0  0  0  0  0  0
  152.6892  144.0942  158.9270 H   0  0  0  0  0  0  0  0  0  0  0  0
  154.1957  141.8324  160.9403 H   0  0  0  0  0  0  0  0  0  0  0  0
  154.3851  139.3941  160.6158 H   0  0  0  0  0  0  0  0  0  0  0  0
  152.7683  137.5061  158.0077 H   0  0  0  0  0  0  0  0  0  0  0  0
  152.0387  137.2446  159.5968 H   0  0  0  0  0  0  0  0  0  0  0  0
  153.7909  137.3983  159.4393 H   0  0  0  0  0  0  0  0  0  0  0  0
  149.4729  139.5121  159.3783 H   0  0  0  0  0  0  0  0  0  0  0  0
  148.7918  139.6014  157.7663 H   0  0  0  0  0  0  0  0  0  0  0  0
  149.6813  137.1263  157.4860 H   0  0  0  0  0  0  0  0  0  0  0  0
  150.3936  136.2895  159.2759 H   0  0  0  0  0  0  0  0  0  0  0  0
  147.1949  138.0657  158.9983 H   0  0  0  0  0  0  0  0  0  0  0  0
  147.2873  137.2366  157.4938 H   0  0  0  0  0  0  0  0  0  0  0  0
  146.5695  132.6410  160.7195 H   0  0  0  0  0  0  0  0  0  0  0  0
  148.4868  132.1843  157.9479 H   0  0  0  0  0  0  0  0  0  0  0  0
  145.9309  133.1117  156.8366 H   0  0  0  0  0  0  0  0  0  0  0  0
  147.1402  132.0498  156.1010 H   0  0  0  0  0  0  0  0  0  0  0  0
  144.7166  131.2836  157.7208 H   0  0  0  0  0  0  0  0  0  0  0  0
  145.4439  130.3959  156.3816 H   0  0  0  0  0  0  0  0  0  0  0  0
  145.9044  129.5364  158.9019 H   0  0  0  0  0  0  0  0  0  0  0  0
  147.2873  129.6444  157.8020 H   0  0  0  0  0  0  0  0  0  0  0  0
  150.0677  141.6030  157.2079 H   0  0  0  0  0  0  0  0  0  0  0  0
  150.9288  143.0825  157.5760 H   0  0  0  0  0  0  0  0  0  0  0  0
  149.7173  142.4652  158.7069 H   0  0  0  0  0  0  0  0  0  0  0  0
  1  2  1  0  0  0  0
  1 29  1  0  0  0  0
  1 30  1  0  0  0  0
  1 31  1  0  0  0  0
  2 27  1  0  0  0  0
  2  3  2  0  0  0  0
  3  4  1  0  0  0  0
  3 32  1  0  0  0  0
  4  5  2  0  0  0  0
  4 33  1  0  0  0  0
  5  6  1  0  0  0  0
  5  7  1  0  0  0  0
  6 34  1  0  0  0  0
  6 35  1  0  0  0  0
  6 36  1  0  0  0  0
  7  8  1  0  0  0  0
  7 27  2  0  0  0  0
  8  9  1  0  0  0  0
  9 10  1  0  0  0  0
  9 37  1  0  0  0  0
  9 38  1  0  0  0  0
 10 11  1  0  0  0  0
 10 12  1  0  0  0  0
 10 39  1  0  0  0  0
 11 40  1  0  0  0  0
 12 13  1  0  0  0  0
 12 41  1  0  0  0  0
 12 42  1  0  0  0  0
 13 25  1  0  0  0  0
 13 14  1  0  0  0  0
 14 15  2  0  0  0  0
 14 16  1  0  0  0  0
 16 17  1  0  0  0  0
 16 18  2  0  0  0  0
 18 19  1  0  0  0  0
 18 43  1  0  0  0  0
 19 20  1  0  0  0  0
 19 25  1  0  0  0  0
 20 24  1  0  0  0  0
 20 21  1  0  0  0  0
 20 44  1  0  0  0  0
 21 22  1  0  0  0  0
 21 45  1  0  0  0  0
 21 46  1  0  0  0  0
 22 23  1  0  0  0  0
 22 47  1  0  0  0  0
 22 48  1  0  0  0  0
 23 24  1  0  0  0  0
 23 49  1  0  0  0  0
 23 50  1  0  0  0  0
 25 26  2  0  0  0  0
 27 28  1  0  0  0  0
 28 51  1  0  0  0  0
 28 52  1  0  0  0  0
 28 53  1  0  0  0  0
M  END
> <s_m_source_file>
AV-unprocessed.smi

> <i_m_source_file_index>
164

> <i_lp_mmshare_version>
43012

> <i_f3d_flags>
0

> <s_epik_input>
W0NIM11jMVtjSF1bY0hdYyhbQ0gzXSljKGMxW0NIM10pT1tDSDJdW0NASF0oW09IXSlbQ0gyXW4yYyg9TyljKEYpW2NIXW4oYzI9TylbQ0BASF0zW0NIMl1bQ0gyXVtDSDJdTzM=

> <s_epik_cmdline>
J2VwaWtfcHl0aG9uJywgJy1waCcsICc3LjAnLCAnLXRuJywgJzgnLCAnLW1hJywgJzIwMCcsICctbWV0YWxfYmluZGluZycsICctaW1hZScsICc8aW5maWxlLm1hZT4nLCAnLW9tYWUnLCAnPG91dGZpbGUubWFlPic=

> <r_lp_tautomer_probability>
1

> <r_epik_Ionization_Penalty>
1.45842e-07

> <r_epik_Ionization_Penalty_Charging>
2.86622e-08

> <r_epik_Ionization_Penalty_Neutral>
1.1718e-07

> <r_epik_State_Penalty>
-0

> <r_epik_Charging_Adjusted_Penalty>
2.86622e-08

> <i_epik_Tot_Q>
0

> <i_epik_Tot_abs_Q>
0

> <r_epik_Metal_State_Penalty>
-0

> <b_epik_Metal_Only>
0

> <s_epik_Chemistry_Notes>
This compound contains an acetal/aminal-like group ( X-CH(R)-Y where X, Y are N, S, or O) that may be acid/base labile, releasing an aldehyde.

> <s_lp_Force_Field>
OPLS_2005

> <r_lp_Energy>
41.2459

> <b_lp_Chiralities_Consistent>
1

> <s_lp_Variant>
AV-unprocessed.smi:164-2

> <Gold.Version>
5.8.1

> <Gold.Id.Protein>
6NUR|6NUR_protein|mol2

> <Gold.PLP.Fitness>
48.0366

> <Gold.PLP.PLP>
-44.4902

> <Gold.PLP.part.hbond>
-3.1321

> <Gold.PLP.part.metal>
0.0000

> <Gold.PLP.part.buried>
-5.5453

> <Gold.PLP.part.nonpolar>
-36.2578

> <Gold.PLP.part.repulsive>
0.0000

> <Gold.PLP.ligand.clash>
0.0000

> <Gold.PLP.ligand.torsion>
1.3963

> <Gold.PLP.Chemscore.Hbond>
2.0521

> <Gold.PLP.Chemscore.CHOScore>
0.0000

> <Gold.PLP.Chemscore.Metal>
0.0000

> <Gold.Chemscore.Hbonds>
donor molecule, donor type, donor heavy atom, donor atom, acceptor molecule, acceptor atom, score
      P1  H  6934  6947       L1    15  1.00

> <Gold.PLP.Chemscore.Internal.Correction>
0.1829

> <Gold.Rescore>
     Score         DG    S(hbond)    S(metal)    S(lipo)     H(rot)  DE(clash)    DE(int)     intcor
     15.78     -17.21       1.88        0.00     106.32       2.73       0.07       1.35       ----

> <Gold.Chemscore.Fitness>
15.7804

> <Gold.Chemscore.DG>
-17.2092

> <Gold.Chemscore.ZeroCoef>
-5.4800

> <Gold.Chemscore.Hbond>
1.8809

> <Gold.Chemscore.Metal>
0.0000

> <Gold.Chemscore.Lipo>
106.3219

> <Gold.Chemscore.Internal_Hbond>
0.0000

> <Gold.Chemscore.DEClash>
0.0747

> <Gold.Chemscore.DEInternal>
1.3542

> <Gold.Chemscore.Rot>
2.7315

> <Gold.Chemscore.Internal.Correction>
   9.000000E+99

> <Gold.Chemscore.Hbonds>
donor molecule, donor type, donor heavy atom, donor atom, acceptor molecule, acceptor atom, score
      P1  H  6934  6947       L1    15  0.97

> <Gold.Chemscore.Hbond.Weighted>
-6.2821

> <Gold.Chemscore.Metal.Weighted>
-0.0000

> <Gold.Chemscore.Lipo.Weighted>
-12.4397

> <Gold.Chemscore.Internal_Hbond.Weighted>
0.0000

> <Gold.Chemscore.DEClash.Weighted>
0.0747

> <Gold.Chemscore.DEInternal.Weighted>
1.3542

> <Gold.Chemscore.Rot.Weighted>
6.9925

> <Gold.Chemscore.Internal.Correction.Weighted>
   9.000000E+99

> <Gold.Protein.RotatedTorsions>
[ 6907 6896 6895 6894 ] final  123.03 input  -60.11 | X-H torsion
[ 7974 7965 7964 7962 ] final   87.45 input  175.53 | X-H torsion
[ 8008 7997 7996 7995 ] final  -84.08 input   59.86 | X-H torsion
[ 10167 10162 10161 10158 ] final   13.37 input  -65.29 | X-H torsion
[ 10718 10713 10712 10709 ] final  -79.39 input   66.30 | X-H torsion
[ 10763 10752 10751 10750 ] final -130.09 input  -60.55 | X-H torsion
[ 11005 11000 10999 10996 ] final -161.42 input  -57.11 | X-H torsion

> <Gold.Protein.ActiveResidues>
 VAL166  LYS551  ARG553  GLY616  TRP617  ASP618  TYR619  PRO620  LYS621  CYS622 
 ASP623  PHE694  ASN695  SER759  ASP760  ASP761  ALA762  ILE779  LEU786  VAL792 
 PHE793  MET794  SER795  GLU796  ALA797  LYS798  CYS799  TRP800  GLU811  SER814 

> <Gold.Protein.RotatedAtoms>
  152.4195  133.7093  159.6468 H   0  0  0  0  0  0  0  0  0  0  0  0  # atno 6907 bound_to 6896
  150.8071  133.8479  159.3206 H   0  0  0  0  0  0  0  0  0  0  0  0  # atno 6908 bound_to 6896
  151.6199  135.1035  160.0151 H   0  0  0  0  0  0  0  0  0  0  0  0  # atno 6909 bound_to 6896
  145.5588  139.2302  143.2471 H   0  0  0  0  0  0  0  0  0  0  0  0  # atno 7974 bound_to 7965
  154.6260  140.0610  156.9673 H   0  0  0  0  0  0  0  0  0  0  0  0  # atno 8008 bound_to 7997
  155.1742  140.3293  155.4368 H   0  0  0  0  0  0  0  0  0  0  0  0  # atno 8009 bound_to 7997
  156.2457  140.1909  156.6842 H   0  0  0  0  0  0  0  0  0  0  0  0  # atno 8010 bound_to 7997
  140.6007  143.8611  150.6962 H   0  0  0  0  0  0  0  0  0  0  0  0  # atno 10167 bound_to 10162
  156.0094  130.4544  150.3642 H   0  0  0  0  0  0  0  0  0  0  0  0  # atno 10718 bound_to 10713
  154.8756  135.3874  154.4026 H   0  0  0  0  0  0  0  0  0  0  0  0  # atno 10763 bound_to 10752
  153.4749  135.7030  153.5977 H   0  0  0  0  0  0  0  0  0  0  0  0  # atno 10764 bound_to 10752
  153.4418  135.3854  155.2200 H   0  0  0  0  0  0  0  0  0  0  0  0  # atno 10765 bound_to 10752
  140.6206  134.4755  157.5223 H   0  0  0  0  0  0  0  0  0  0  0  0  # atno 11005 bound_to 11000
  146.1866  140.6412  142.9165 LP  0  0  0  0  0  0  0  0  0  0  0  0  # atno 17320 bound_to 7965
  144.7493  140.5150  143.6813 LP  0  0  0  0  0  0  0  0  0  0  0  0  # atno 17321 bound_to 7965
  140.2156  143.3849  152.1684 LP  0  0  0  0  0  0  0  0  0  0  0  0  # atno 17342 bound_to 10162
  139.5289  144.7135  151.5128 LP  0  0  0  0  0  0  0  0  0  0  0  0  # atno 17343 bound_to 10162
  157.1729  131.0373  151.2786 LP  0  0  0  0  0  0  0  0  0  0  0  0  # atno 17370 bound_to 10713
  157.4213  130.7439  149.6916 LP  0  0  0  0  0  0  0  0  0  0  0  0  # atno 17371 bound_to 10713
  139.9155  134.8255  156.1381 LP  0  0  0  0  0  0  0  0  0  0  0  0  # atno 17394 bound_to 11000
  141.0745  133.6782  156.2208 LP  0  0  0  0  0  0  0  0  0  0  0  0  # atno 17395 bound_to 11000

$$$$
