AV-unprocessed.smi:1980|AV-procd|sdf|8017|dock8
  -GOLD-   2272010213D 1   1.00000     0.00000
 Structure written by MMmdl.
 44 45  0  0  0  0  0  0  0  0  1 V2000
  148.1228  135.6042  156.6845 C   0  0  0  0  0  0  0  0  0  0  0  0
  148.8715  135.0680  155.4548 C   0  0  2  0  0  0  0  0  0  0  0  0
  149.4448  133.8129  155.8128 O   0  0  0  0  0  0  0  0  0  0  0  0
  149.8166  132.9730  154.7242 C   0  0  0  0  0  0  0  0  0  0  0  0
  149.7168  131.5051  155.1558 C   0  0  0  0  0  0  0  0  0  0  0  0
  150.7182  131.2246  155.9886 F   0  0  0  0  0  0  0  0  0  0  0  0
  148.5629  131.2871  155.7857 F   0  0  0  0  0  0  0  0  0  0  0  0
  149.8066  130.7051  154.0937 F   0  0  0  0  0  0  0  0  0  0  0  0
  149.9632  136.0458  154.9899 C   0  0  0  0  0  0  0  0  0  0  0  0
  151.1501  135.7227  155.0415 O   0  0  0  0  0  0  0  0  0  0  0  0
  149.5407  137.2332  154.5281 N   0  0  0  0  0  0  0  0  0  0  0  0
  150.3960  138.3094  154.0401 C   0  0  0  0  0  0  0  0  0  0  0  0
  150.7820  139.2900  155.1330 C   0  0  0  0  0  0  0  0  0  0  0  0
  149.8152  140.1172  155.7363 C   0  0  0  0  0  0  0  0  0  0  0  0
  150.2161  141.0108  156.7477 C   0  0  0  0  0  0  0  0  0  0  0  0
  151.5788  141.0587  157.1285 C   0  0  0  0  0  0  0  0  0  0  0  0
  152.0052  141.9496  158.1385 N   0  0  0  0  0  0  0  0  0  0  0  0
  151.6452  143.3604  158.0056 C   0  0  0  0  0  0  0  0  0  0  0  0
  152.4284  144.2125  159.0187 C   0  0  0  0  0  0  0  0  0  0  0  0
  152.2147  143.7120  160.3341 O   0  0  0  0  0  0  0  0  0  0  0  0
  152.6769  142.3726  160.4710 C   0  0  0  0  0  0  0  0  0  0  0  0
  151.9038  141.4539  159.5093 C   0  0  0  0  0  0  0  0  0  0  0  0
  152.5044  140.2549  156.5475 N   0  0  0  0  0  0  0  0  0  0  0  0
  152.1149  139.4000  155.5784 C   0  0  0  0  0  0  0  0  0  0  0  0
  147.6761  136.5788  156.4839 H   0  0  0  0  0  0  0  0  0  0  0  0
  148.7860  135.7095  157.5441 H   0  0  0  0  0  0  0  0  0  0  0  0
  147.3188  134.9269  156.9726 H   0  0  0  0  0  0  0  0  0  0  0  0
  148.1448  134.9195  154.6534 H   0  0  0  0  0  0  0  0  0  0  0  0
  149.1574  133.1517  153.8734 H   0  0  0  0  0  0  0  0  0  0  0  0
  150.8352  133.1855  154.3976 H   0  0  0  0  0  0  0  0  0  0  0  0
  148.5461  137.4073  154.5194 H   0  0  0  0  0  0  0  0  0  0  0  0
  151.3031  137.9165  153.5780 H   0  0  0  0  0  0  0  0  0  0  0  0
  149.8583  138.8343  153.2501 H   0  0  0  0  0  0  0  0  0  0  0  0
  148.7790  140.0674  155.4354 H   0  0  0  0  0  0  0  0  0  0  0  0
  149.4748  141.6335  157.2255 H   0  0  0  0  0  0  0  0  0  0  0  0
  151.8607  143.7133  156.9962 H   0  0  0  0  0  0  0  0  0  0  0  0
  150.5730  143.4762  158.1704 H   0  0  0  0  0  0  0  0  0  0  0  0
  153.4947  144.2116  158.7862 H   0  0  0  0  0  0  0  0  0  0  0  0
  152.0939  145.2488  158.9746 H   0  0  0  0  0  0  0  0  0  0  0  0
  153.7498  142.3247  160.2770 H   0  0  0  0  0  0  0  0  0  0  0  0
  152.5258  142.0491  161.5009 H   0  0  0  0  0  0  0  0  0  0  0  0
  150.8510  141.4193  159.7926 H   0  0  0  0  0  0  0  0  0  0  0  0
  152.2903  140.4406  159.6050 H   0  0  0  0  0  0  0  0  0  0  0  0
  152.8924  138.7870  155.1471 H   0  0  0  0  0  0  0  0  0  0  0  0
  1  2  1  0  0  0  0
  1 25  1  0  0  0  0
  1 26  1  0  0  0  0
  1 27  1  0  0  0  0
  2  3  1  0  0  0  0
  2  9  1  0  0  0  0
  2 28  1  0  0  0  0
  3  4  1  0  0  0  0
  4  5  1  0  0  0  0
  4 29  1  0  0  0  0
  4 30  1  0  0  0  0
  5  6  1  0  0  0  0
  5  7  1  0  0  0  0
  5  8  1  0  0  0  0
  9 10  2  0  0  0  0
  9 11  1  0  0  0  0
 11 12  1  0  0  0  0
 11 31  1  0  0  0  0
 12 13  1  0  0  0  0
 12 32  1  0  0  0  0
 12 33  1  0  0  0  0
 13 24  1  0  0  0  0
 13 14  2  0  0  0  0
 14 15  1  0  0  0  0
 14 34  1  0  0  0  0
 15 16  2  0  0  0  0
 15 35  1  0  0  0  0
 16 17  1  0  0  0  0
 16 23  1  0  0  0  0
 17 22  1  0  0  0  0
 17 18  1  0  0  0  0
 18 19  1  0  0  0  0
 18 36  1  0  0  0  0
 18 37  1  0  0  0  0
 19 20  1  0  0  0  0
 19 38  1  0  0  0  0
 19 39  1  0  0  0  0
 20 21  1  0  0  0  0
 21 22  1  0  0  0  0
 21 40  1  0  0  0  0
 21 41  1  0  0  0  0
 22 42  1  0  0  0  0
 22 43  1  0  0  0  0
 23 24  2  0  0  0  0
 24 44  1  0  0  0  0
M  END
> <s_m_source_file>
AV-unprocessed.smi

> <i_m_source_file_index>
1980

> <i_lp_mmshare_version>
43012

> <i_f3d_flags>
0

> <s_epik_input>
RkMoRikoRilbQ0gyXU9bQ0BASF0oW0NIM10pQyg9TylbTkhdW0NIMl1jMVtjSF1bY0hdYyhuW2NIXTEpTjJbQ0gyXVtDSDJdT1tDSDJdW0NIMl0y

> <s_epik_cmdline>
J2VwaWtfcHl0aG9uJywgJy1waCcsICc3LjAnLCAnLXRuJywgJzgnLCAnLW1hJywgJzIwMCcsICctbWV0YWxfYmluZGluZycsICctaW1hZScsICc8aW5maWxlLm1hZT4nLCAnLW9tYWUnLCAnPG91dGZpbGUubWFlPic=

> <r_lp_tautomer_probability>
1

> <r_epik_Ionization_Penalty>
0.00436425

> <r_epik_Ionization_Penalty_Charging>
0

> <r_epik_Ionization_Penalty_Neutral>
0.00436425

> <r_epik_State_Penalty>
0.00314317

> <r_epik_Charging_Adjusted_Penalty>
0.00314317

> <i_epik_Tot_Q>
0

> <i_epik_Tot_abs_Q>
0

> <r_epik_Metal_State_Penalty>
-0

> <b_epik_Metal_Only>
0

> <s_lp_Force_Field>
OPLS_2005

> <r_lp_Energy>
19.3234

> <b_lp_Chiralities_Consistent>
1

> <s_lp_Variant>
AV-unprocessed.smi:1980-1

> <Gold.Version>
5.8.1

> <Gold.Id.Protein>
6NUR|6NUR_protein|mol2

> <Gold.PLP.Fitness>
43.9495

> <Gold.PLP.PLP>
-39.8076

> <Gold.PLP.part.hbond>
-3.0000

> <Gold.PLP.part.metal>
0.0000

> <Gold.PLP.part.buried>
-2.7253

> <Gold.PLP.part.nonpolar>
-33.9914

> <Gold.PLP.part.repulsive>
0.2187

> <Gold.PLP.ligand.clash>
0.0000

> <Gold.PLP.ligand.torsion>
1.1530

> <Gold.PLP.Chemscore.Hbond>
2.0000

> <Gold.PLP.Chemscore.CHOScore>
0.0000

> <Gold.PLP.Chemscore.Metal>
0.0000

> <Gold.Chemscore.Hbonds>
donor molecule, donor type, donor heavy atom, donor atom, acceptor molecule, acceptor atom, score
      P1  H  7997  8008       L1    23  1.00
      P1  H 10752 10764       L1    10  1.00

> <Gold.PLP.Chemscore.Internal.Correction>
0.4480

> <Gold.Rescore>
     Score         DG    S(hbond)    S(metal)    S(lipo)     H(rot)  DE(clash)    DE(int)     intcor
     12.95     -15.56       1.62        0.00      94.33       2.49       1.39       1.22       ----

> <Gold.Chemscore.Fitness>
12.9451

> <Gold.Chemscore.DG>
-15.5608

> <Gold.Chemscore.ZeroCoef>
-5.4800

> <Gold.Chemscore.Hbond>
1.6222

> <Gold.Chemscore.Metal>
0.0000

> <Gold.Chemscore.Lipo>
94.3318

> <Gold.Chemscore.Internal_Hbond>
0.0000

> <Gold.Chemscore.DEClash>
1.3926

> <Gold.Chemscore.DEInternal>
1.2231

> <Gold.Chemscore.Rot>
2.4899

> <Gold.Chemscore.Internal.Correction>
   9.000000E+99

> <Gold.Chemscore.Hbonds>
donor molecule, donor type, donor heavy atom, donor atom, acceptor molecule, acceptor atom, score
      P1  H  7997  8008       L1    23  0.29
      P1  H 10752 10764       L1    10  1.00

> <Gold.Chemscore.Hbond.Weighted>
-5.4182

> <Gold.Chemscore.Metal.Weighted>
-0.0000

> <Gold.Chemscore.Lipo.Weighted>
-11.0368

> <Gold.Chemscore.Internal_Hbond.Weighted>
0.0000

> <Gold.Chemscore.DEClash.Weighted>
1.3926

> <Gold.Chemscore.DEInternal.Weighted>
1.2231

> <Gold.Chemscore.Rot.Weighted>
6.3741

> <Gold.Chemscore.Internal.Correction.Weighted>
   9.000000E+99

> <Gold.Protein.RotatedTorsions>
[ 6907 6896 6895 6894 ] final -160.91 input  -60.11 | X-H torsion
[ 7974 7965 7964 7962 ] final  -46.74 input  175.53 | X-H torsion
[ 8008 7997 7996 7995 ] final  -45.77 input   59.86 | X-H torsion
[ 10167 10162 10161 10158 ] final  -87.37 input  -65.29 | X-H torsion
[ 10718 10713 10712 10709 ] final  133.38 input   66.30 | X-H torsion
[ 10763 10752 10751 10750 ] final  -54.09 input  -60.55 | X-H torsion
[ 11005 11000 10999 10996 ] final  -87.14 input  -57.11 | X-H torsion

> <Gold.Protein.ActiveResidues>
 VAL166  LYS551  ARG553  GLY616  TRP617  ASP618  TYR619  PRO620  LYS621  CYS622 
 ASP623  PHE694  ASN695  SER759  ASP760  ASP761  ALA762  ILE779  LEU786  VAL792 
 PHE793  MET794  SER795  GLU796  ALA797  LYS798  CYS799  TRP800  GLU811  SER814 

> <Gold.Protein.RotatedAtoms>
  151.3564  133.3906  159.2684 H   0  0  0  0  0  0  0  0  0  0  0  0  # atno 6907 bound_to 6896
  150.9761  134.9126  159.7827 H   0  0  0  0  0  0  0  0  0  0  0  0  # atno 6908 bound_to 6896
  152.5201  134.3526  159.9309 H   0  0  0  0  0  0  0  0  0  0  0  0  # atno 6909 bound_to 6896
  145.9688  140.7404  142.9420 H   0  0  0  0  0  0  0  0  0  0  0  0  # atno 7974 bound_to 7965
  154.4003  140.1388  156.3901 H   0  0  0  0  0  0  0  0  0  0  0  0  # atno 8008 bound_to 7997
  155.7922  140.3478  155.5335 H   0  0  0  0  0  0  0  0  0  0  0  0  # atno 8009 bound_to 7997
  155.8567  140.0950  157.1630 H   0  0  0  0  0  0  0  0  0  0  0  0  # atno 8010 bound_to 7997
  140.3851  143.2730  151.9335 H   0  0  0  0  0  0  0  0  0  0  0  0  # atno 10167 bound_to 10162
  157.4779  131.1084  150.9720 H   0  0  0  0  0  0  0  0  0  0  0  0  # atno 10718 bound_to 10713
  154.1693  135.6462  153.5005 H   0  0  0  0  0  0  0  0  0  0  0  0  # atno 10763 bound_to 10752
  153.0089  135.5379  154.6629 H   0  0  0  0  0  0  0  0  0  0  0  0  # atno 10764 bound_to 10752
  154.5964  135.2939  155.0554 H   0  0  0  0  0  0  0  0  0  0  0  0  # atno 10765 bound_to 10752
  141.1621  133.7494  156.9264 H   0  0  0  0  0  0  0  0  0  0  0  0  # atno 11005 bound_to 11000
  144.6832  140.2714  143.7305 LP  0  0  0  0  0  0  0  0  0  0  0  0  # atno 17320 bound_to 7965
  145.7935  139.1936  143.2089 LP  0  0  0  0  0  0  0  0  0  0  0  0  # atno 17321 bound_to 7965
  139.4792  144.5781  151.7977 LP  0  0  0  0  0  0  0  0  0  0  0  0  # atno 17342 bound_to 10162
  140.4898  144.1328  150.5948 LP  0  0  0  0  0  0  0  0  0  0  0  0  # atno 17343 bound_to 10162
  157.0463  130.5769  149.5363 LP  0  0  0  0  0  0  0  0  0  0  0  0  # atno 17370 bound_to 10713
  156.0106  130.5197  150.7976 LP  0  0  0  0  0  0  0  0  0  0  0  0  # atno 17371 bound_to 10713
  140.1416  134.9289  157.2475 LP  0  0  0  0  0  0  0  0  0  0  0  0  # atno 17394 bound_to 11000
  140.2829  134.3329  155.7337 LP  0  0  0  0  0  0  0  0  0  0  0  0  # atno 17395 bound_to 11000

$$$$
