AV-unprocessed.smi:1046|AV-procd|sdf|4551|dock9
  -GOLD-   22720 2583D 1   1.00000     0.00000
 Structure written by MMmdl.
 53 55  0  0  0  0  0  0  0  0  2 V2000
  153.0618  142.6877  160.4204 C   0  0  0  0  0  0  0  0  0  0  0  0
  152.2757  142.3195  159.1744 C   0  0  0  0  0  0  0  0  0  0  0  0
  152.0265  140.9562  158.8974 C   0  0  0  0  0  0  0  0  0  0  0  0
  151.2993  140.5716  157.7497 C   0  0  0  0  0  0  0  0  0  0  0  0
  150.9431  139.3152  157.2897 N   0  0  0  0  0  0  0  0  0  0  0  0
  150.2778  139.6155  156.1778 C   0  0  0  0  0  0  0  0  0  0  0  0
  150.1613  140.9200  155.8626 N   0  0  0  0  0  0  0  0  0  0  0  0
  149.4849  141.4904  154.7116 C   0  0  0  0  0  0  0  0  0  0  0  0
  147.9626  141.6003  154.9196 C   0  0  1  0  0  0  0  0  0  0  0  0
  147.5277  142.8781  154.4970 O   0  0  0  0  0  0  0  0  0  0  0  0
  147.2046  140.5223  154.1189 C   0  0  0  0  0  0  0  0  0  0  0  0
  148.0404  139.6093  153.3284 N   0  0  0  0  0  0  0  0  0  0  0  0
  148.4615  138.4318  154.0870 C   0  0  0  0  0  0  0  0  0  0  0  0
  147.3156  137.4310  154.3448 C   0  0  0  0  0  0  0  0  0  0  0  0
  146.6997  137.0031  153.0621 N   0  3  0  0  0  0  0  0  0  0  0  0
  145.6349  135.9867  153.2565 C   0  0  0  0  0  0  0  0  0  0  0  0
  145.0214  135.5087  151.9293 C   0  0  0  0  0  0  0  0  0  0  0  0
  143.9565  136.3572  151.5556 O   0  0  0  0  0  0  0  0  0  0  0  0
  146.2634  138.1827  152.2680 C   0  0  0  0  0  0  0  0  0  0  0  0
  147.4416  139.1570  152.0696 C   0  0  0  0  0  0  0  0  0  0  0  0
  150.8244  141.5965  156.8803 C   0  0  0  0  0  0  0  0  0  0  0  0
  151.0662  142.9562  157.1444 C   0  0  0  0  0  0  0  0  0  0  0  0
  151.7951  143.3230  158.2951 C   0  0  0  0  0  0  0  0  0  0  0  0
  152.0527  144.7936  158.5714 C   0  0  0  0  0  0  0  0  0  0  0  0
  153.3455  141.8016  160.9885 H   0  0  0  0  0  0  0  0  0  0  0  0
  152.4668  143.3265  161.0735 H   0  0  0  0  0  0  0  0  0  0  0  0
  153.9747  143.2196  160.1526 H   0  0  0  0  0  0  0  0  0  0  0  0
  152.3929  140.1916  159.5665 H   0  0  0  0  0  0  0  0  0  0  0  0
  149.8519  138.8425  155.5551 H   0  0  0  0  0  0  0  0  0  0  0  0
  149.9169  142.4695  154.4984 H   0  0  0  0  0  0  0  0  0  0  0  0
  149.7018  140.8595  153.8486 H   0  0  0  0  0  0  0  0  0  0  0  0
  147.7574  141.5029  155.9847 H   0  0  0  0  0  0  0  0  0  0  0  0
  147.9442  143.5328  155.0361 H   0  0  0  0  0  0  0  0  0  0  0  0
  146.6101  139.9382  154.8229 H   0  0  0  0  0  0  0  0  0  0  0  0
  146.4816  141.0153  153.4701 H   0  0  0  0  0  0  0  0  0  0  0  0
  149.2575  137.9234  153.5407 H   0  0  0  0  0  0  0  0  0  0  0  0
  148.9047  138.7402  155.0346 H   0  0  0  0  0  0  0  0  0  0  0  0
  147.7135  136.5597  154.8663 H   0  0  0  0  0  0  0  0  0  0  0  0
  146.5562  137.8660  154.9960 H   0  0  0  0  0  0  0  0  0  0  0  0
  146.0451  135.1200  153.7774 H   0  0  0  0  0  0  0  0  0  0  0  0
  144.8595  136.3937  153.9072 H   0  0  0  0  0  0  0  0  0  0  0  0
  145.7754  135.5430  151.1425 H   0  0  0  0  0  0  0  0  0  0  0  0
  144.6718  134.4783  151.9828 H   0  0  0  0  0  0  0  0  0  0  0  0
  144.2673  136.9606  150.8970 H   0  0  0  0  0  0  0  0  0  0  0  0
  145.9046  137.8652  151.2897 H   0  0  0  0  0  0  0  0  0  0  0  0
  145.4260  138.6790  152.7600 H   0  0  0  0  0  0  0  0  0  0  0  0
  147.1276  140.0049  151.4631 H   0  0  0  0  0  0  0  0  0  0  0  0
  148.2092  138.6551  151.4785 H   0  0  0  0  0  0  0  0  0  0  0  0
  150.6940  143.7094  156.4662 H   0  0  0  0  0  0  0  0  0  0  0  0
  151.6289  145.4253  157.7903 H   0  0  0  0  0  0  0  0  0  0  0  0
  153.1237  144.9920  158.6176 H   0  0  0  0  0  0  0  0  0  0  0  0
  151.6043  145.0882  159.5205 H   0  0  0  0  0  0  0  0  0  0  0  0
  147.4339  136.5494  152.5367 H   0  0  0  0  0  0  0  0  0  0  0  0
  1  2  1  0  0  0  0
  1 25  1  0  0  0  0
  1 26  1  0  0  0  0
  1 27  1  0  0  0  0
  2 23  1  0  0  0  0
  2  3  2  0  0  0  0
  3  4  1  0  0  0  0
  3 28  1  0  0  0  0
  4 21  2  0  0  0  0
  4  5  1  0  0  0  0
  5  6  2  0  0  0  0
  6  7  1  0  0  0  0
  6 29  1  0  0  0  0
  7  8  1  0  0  0  0
  7 21  1  0  0  0  0
  8  9  1  0  0  0  0
  8 30  1  0  0  0  0
  8 31  1  0  0  0  0
  9 10  1  0  0  0  0
  9 11  1  0  0  0  0
  9 32  1  0  0  0  0
 10 33  1  0  0  0  0
 11 12  1  0  0  0  0
 11 34  1  0  0  0  0
 11 35  1  0  0  0  0
 12 20  1  0  0  0  0
 12 13  1  0  0  0  0
 13 14  1  0  0  0  0
 13 36  1  0  0  0  0
 13 37  1  0  0  0  0
 14 15  1  0  0  0  0
 14 38  1  0  0  0  0
 14 39  1  0  0  0  0
 15 16  1  0  0  0  0
 15 19  1  0  0  0  0
 15 53  1  0  0  0  0
 16 17  1  0  0  0  0
 16 40  1  0  0  0  0
 16 41  1  0  0  0  0
 17 18  1  0  0  0  0
 17 42  1  0  0  0  0
 17 43  1  0  0  0  0
 18 44  1  0  0  0  0
 19 20  1  0  0  0  0
 19 45  1  0  0  0  0
 19 46  1  0  0  0  0
 20 47  1  0  0  0  0
 20 48  1  0  0  0  0
 21 22  1  0  0  0  0
 22 23  2  0  0  0  0
 22 49  1  0  0  0  0
 23 24  1  0  0  0  0
 24 50  1  0  0  0  0
 24 51  1  0  0  0  0
 24 52  1  0  0  0  0
M  CHG  1  15   1
M  END
> <s_m_source_file>
AV-unprocessed.smi

> <i_m_source_file_index>
1046

> <i_lp_mmshare_version>
43012

> <i_f3d_flags>
0

> <s_epik_input>
W0NIM11jKFtjSF0xKWMoW0NIM10pW2NIXWMoYzEyKW4oW2NIXW4yKVtDSDJdW0NASF0oW09IXSlbQ0gyXU4zW0NIMl1bQ0gyXU4oW0NIMl1bQ0gyXTMpW0NIMl1bQ0gyXVtPSF0=

> <s_epik_cmdline>
J2VwaWtfcHl0aG9uJywgJy1waCcsICc3LjAnLCAnLXRuJywgJzgnLCAnLW1hJywgJzIwMCcsICctbWV0YWxfYmluZGluZycsICctaW1hZScsICc8aW5maWxlLm1hZT4nLCAnLW9tYWUnLCAnPG91dGZpbGUubWFlPic=

> <r_epik_Ionization_Penalty>
0.218081

> <r_epik_Ionization_Penalty_Charging>
0.0909554

> <r_epik_Ionization_Penalty_Neutral>
0.127126

> <r_epik_State_Penalty>
0.825642

> <r_epik_Charging_Adjusted_Penalty>
0.916597

> <i_epik_Tot_Q>
1

> <i_epik_Tot_abs_Q>
1

> <r_epik_Metal_State_Penalty>
0.740189

> <b_epik_Metal_Only>
0

> <s_lp_Force_Field>
OPLS_2005

> <r_lp_Energy>
34.993

> <b_lp_Chiralities_Consistent>
1

> <s_lp_Variant>
AV-unprocessed.smi:1046-4

> <Gold.Version>
5.8.1

> <Gold.Id.Protein>
6NUR|6NUR_protein|mol2

> <Gold.PLP.Fitness>
48.8979

> <Gold.PLP.PLP>
-41.3851

> <Gold.PLP.part.hbond>
-3.5132

> <Gold.PLP.part.metal>
0.0000

> <Gold.PLP.part.buried>
0.6187

> <Gold.PLP.part.nonpolar>
-41.1893

> <Gold.PLP.part.repulsive>
2.4503

> <Gold.PLP.ligand.clash>
0.0000

> <Gold.PLP.ligand.torsion>
2.2753

> <Gold.PLP.Chemscore.Hbond>
4.0000

> <Gold.PLP.Chemscore.CHOScore>
0.0000

> <Gold.PLP.Chemscore.Metal>
0.0000

> <Gold.Chemscore.Hbonds>
donor molecule, donor type, donor heavy atom, donor atom, acceptor molecule, acceptor atom, score
      L1  H    10    33       P1  8028  1.00
      L1  H    15    53       P1  7948  2.00
      L1  H    18    44       P1 10171  0.93

> <Gold.PLP.Chemscore.Internal.Correction>
0.0634

> <Gold.Rescore>
     Score         DG    S(hbond)    S(metal)    S(lipo)     H(rot)  DE(clash)    DE(int)     intcor
     15.85     -22.33       2.86        0.00     132.41       3.21       4.03       2.45       ----

> <Gold.Chemscore.Fitness>
15.8532

> <Gold.Chemscore.DG>
-22.3257

> <Gold.Chemscore.ZeroCoef>
-5.4800

> <Gold.Chemscore.Hbond>
2.8625

> <Gold.Chemscore.Metal>
0.0000

> <Gold.Chemscore.Lipo>
132.4088

> <Gold.Chemscore.Internal_Hbond>
0.0000

> <Gold.Chemscore.DEClash>
4.0254

> <Gold.Chemscore.DEInternal>
2.4471

> <Gold.Chemscore.Rot>
3.2058

> <Gold.Chemscore.Internal.Correction>
   9.000000E+99

> <Gold.Chemscore.Hbonds>
donor molecule, donor type, donor heavy atom, donor atom, acceptor molecule, acceptor atom, score
      L1  H    10    33       P1  8028  0.59
      L1  H    15    53       P1  7948  1.00
      L1  H    18    44       P1 10171  0.87

> <Gold.Chemscore.Hbond.Weighted>
-9.5606

> <Gold.Chemscore.Metal.Weighted>
-0.0000

> <Gold.Chemscore.Lipo.Weighted>
-15.4918

> <Gold.Chemscore.Internal_Hbond.Weighted>
0.0000

> <Gold.Chemscore.DEClash.Weighted>
4.0254

> <Gold.Chemscore.DEInternal.Weighted>
2.4471

> <Gold.Chemscore.Rot.Weighted>
8.2067

> <Gold.Chemscore.Internal.Correction.Weighted>
   9.000000E+99

> <Gold.Protein.RotatedTorsions>
[ 6907 6896 6895 6894 ] final   98.18 input  -60.11 | X-H torsion
[ 7974 7965 7964 7962 ] final -102.68 input  175.53 | X-H torsion
[ 8008 7997 7996 7995 ] final  -90.51 input   59.86 | X-H torsion
[ 10167 10162 10161 10158 ] final   -5.49 input  -65.29 | X-H torsion
[ 10718 10713 10712 10709 ] final  -54.43 input   66.30 | X-H torsion
[ 10763 10752 10751 10750 ] final   97.81 input  -60.55 | X-H torsion
[ 11005 11000 10999 10996 ] final  -69.44 input  -57.11 | X-H torsion

> <Gold.Protein.ActiveResidues>
 VAL166  LYS551  ARG553  GLY616  TRP617  ASP618  TYR619  PRO620  LYS621  CYS622 
 ASP623  PHE694  ASN695  SER759  ASP760  ASP761  ALA762  ILE779  LEU786  VAL792 
 PHE793  MET794  SER795  GLU796  ALA797  LYS798  CYS799  TRP800  GLU811  SER814 

> <Gold.Protein.RotatedAtoms>
  152.5413  134.0619  159.8155 H   0  0  0  0  0  0  0  0  0  0  0  0  # atno 6907 bound_to 6896
  151.0746  133.5431  159.2632 H   0  0  0  0  0  0  0  0  0  0  0  0  # atno 6908 bound_to 6896
  151.2281  135.0552  159.9031 H   0  0  0  0  0  0  0  0  0  0  0  0  # atno 6909 bound_to 6896
  145.2657  140.9283  143.3015 H   0  0  0  0  0  0  0  0  0  0  0  0  # atno 7974 bound_to 7965
  154.6994  140.0529  157.0443 H   0  0  0  0  0  0  0  0  0  0  0  0  # atno 8008 bound_to 7997
  155.0705  140.3199  155.4613 H   0  0  0  0  0  0  0  0  0  0  0  0  # atno 8009 bound_to 7997
  156.2755  140.2082  156.5833 H   0  0  0  0  0  0  0  0  0  0  0  0  # atno 8010 bound_to 7997
  140.6965  143.6302  150.8530 H   0  0  0  0  0  0  0  0  0  0  0  0  # atno 10167 bound_to 10162
  156.1451  130.4153  150.0037 H   0  0  0  0  0  0  0  0  0  0  0  0  # atno 10718 bound_to 10713
  153.2814  135.4170  155.1082 H   0  0  0  0  0  0  0  0  0  0  0  0  # atno 10763 bound_to 10752
  154.8490  135.3496  154.6107 H   0  0  0  0  0  0  0  0  0  0  0  0  # atno 10764 bound_to 10752
  153.6527  135.7052  153.5261 H   0  0  0  0  0  0  0  0  0  0  0  0  # atno 10765 bound_to 10752
  141.1554  133.6764  156.6600 H   0  0  0  0  0  0  0  0  0  0  0  0  # atno 11005 bound_to 11000
  144.9379  139.4222  143.6463 LP  0  0  0  0  0  0  0  0  0  0  0  0  # atno 17320 bound_to 7965
  146.3262  139.8324  142.8906 LP  0  0  0  0  0  0  0  0  0  0  0  0  # atno 17321 bound_to 7965
  140.0021  143.5733  152.2872 LP  0  0  0  0  0  0  0  0  0  0  0  0  # atno 17342 bound_to 10162
  139.6426  144.7656  151.2307 LP  0  0  0  0  0  0  0  0  0  0  0  0  # atno 17343 bound_to 10162
  156.7911  130.9256  151.3646 LP  0  0  0  0  0  0  0  0  0  0  0  0  # atno 17370 bound_to 10713
  157.6610  130.8966  149.9829 LP  0  0  0  0  0  0  0  0  0  0  0  0  # atno 17371 bound_to 10713
  140.3254  134.7973  157.4285 LP  0  0  0  0  0  0  0  0  0  0  0  0  # atno 17394 bound_to 11000
  140.1061  134.5407  155.8308 LP  0  0  0  0  0  0  0  0  0  0  0  0  # atno 17395 bound_to 11000

$$$$
