AV-unprocessed.smi:196|AV-procd|sdf|1534|dock3
  -GOLD-   2262019383D 1   1.00000     0.00000
 Structure written by MMmdl.
 47 50  0  0  0  0  0  0  0  0  1 V2000
  146.1702  138.3592  155.6857 C   0  0  0  0  0  0  0  0  0  0  0  0
  147.3720  139.3168  155.7552 C   0  0  2  0  0  0  0  0  0  0  0  0
  146.9112  140.5154  156.3815 O   0  0  0  0  0  0  0  0  0  0  0  0
  147.3236  141.6511  155.6365 C   0  0  0  0  0  0  0  0  0  0  0  0
  147.3771  141.1349  154.2080 C   0  0  0  0  0  0  0  0  0  0  0  0
  147.9753  139.7443  154.3916 C   0  0  2  0  0  0  0  0  0  0  0  0
  147.5529  138.9226  153.3165 O   0  0  0  0  0  0  0  0  0  0  0  0
  149.5267  139.7247  154.4395 C   0  0  0  0  0  0  0  0  0  0  0  0
  150.0949  140.3500  155.6237 N   0  0  0  0  0  0  0  0  0  0  0  0
  150.3174  141.6938  155.8237 C   0  0  0  0  0  0  0  0  0  0  0  0
  150.8406  142.0054  156.9781 N   0  0  0  0  0  0  0  0  0  0  0  0
  151.0007  140.7834  157.6185 C   0  0  0  0  0  0  0  0  0  0  0  0
  151.5085  140.3891  158.8855 C   0  0  0  0  0  0  0  0  0  0  0  0
  151.9460  141.2889  159.8008 N   0  0  0  0  0  0  0  0  0  0  0  0
  151.3519  142.6230  159.7475 C   0  0  0  0  0  0  0  0  0  0  0  0
  152.4492  143.5316  159.2092 C   0  0  1  0  0  0  0  0  0  0  0  0
  152.2698  144.8093  159.5429 F   0  0  0  0  0  0  0  0  0  0  0  0
  153.6954  142.9298  159.8431 C   0  0  0  0  0  0  0  0  0  0  0  0
  153.4127  141.4134  159.8527 C   0  0  1  0  0  0  0  0  0  0  0  0
  154.0569  140.7321  161.0735 C   0  0  0  0  0  0  0  0  0  0  0  0
  154.6572  141.4931  161.9941 N   0  0  0  0  0  0  0  0  0  0  0  0
  154.0057  139.5093  161.1841 O   0  0  0  0  0  0  0  0  0  0  0  0
  151.5096  139.0614  159.1800 N   0  0  0  0  0  0  0  0  0  0  0  0
  151.0542  138.1758  158.2888 C   0  0  0  0  0  0  0  0  0  0  0  0
  150.5547  138.3989  157.0714 N   0  0  0  0  0  0  0  0  0  0  0  0
  150.5454  139.7306  156.7765 C   0  0  0  0  0  0  0  0  0  0  0  0
  152.5034  143.4711  158.1211 H   0  0  0  0  0  0  0  0  0  0  0  0
  153.8569  140.9757  158.9554 H   0  0  0  0  0  0  0  0  0  0  0  0
  146.4528  137.3985  155.2546 H   0  0  0  0  0  0  0  0  0  0  0  0
  145.3633  138.7768  155.0826 H   0  0  0  0  0  0  0  0  0  0  0  0
  145.7716  138.1660  156.6817 H   0  0  0  0  0  0  0  0  0  0  0  0
  148.1382  138.8670  156.3883 H   0  0  0  0  0  0  0  0  0  0  0  0
  146.6309  142.4840  155.7588 H   0  0  0  0  0  0  0  0  0  0  0  0
  148.3096  141.9728  155.9740 H   0  0  0  0  0  0  0  0  0  0  0  0
  146.3583  141.0623  153.8231 H   0  0  0  0  0  0  0  0  0  0  0  0
  147.9319  141.7873  153.5351 H   0  0  0  0  0  0  0  0  0  0  0  0
  148.2615  138.8554  152.6953 H   0  0  0  0  0  0  0  0  0  0  0  0
  149.8952  138.6994  154.3897 H   0  0  0  0  0  0  0  0  0  0  0  0
  149.9337  140.2292  153.5620 H   0  0  0  0  0  0  0  0  0  0  0  0
  150.0743  142.4416  155.0825 H   0  0  0  0  0  0  0  0  0  0  0  0
  150.4388  142.6846  159.1529 H   0  0  0  0  0  0  0  0  0  0  0  0
  151.0877  142.9099  160.7661 H   0  0  0  0  0  0  0  0  0  0  0  0
  154.6030  143.1839  159.2944 H   0  0  0  0  0  0  0  0  0  0  0  0
  153.8054  143.3137  160.8595 H   0  0  0  0  0  0  0  0  0  0  0  0
  155.0911  141.0617  162.7974 H   0  0  0  0  0  0  0  0  0  0  0  0
  154.6807  142.4957  161.8788 H   0  0  0  0  0  0  0  0  0  0  0  0
  151.0928  137.1412  158.5964 H   0  0  0  0  0  0  0  0  0  0  0  0
  1  2  1  0  0  0  0
  1 29  1  0  0  0  0
  1 30  1  0  0  0  0
  1 31  1  0  0  0  0
  2  6  1  0  0  0  0
  2  3  1  0  0  0  0
  2 32  1  0  0  0  0
  3  4  1  0  0  0  0
  4  5  1  0  0  0  0
  4 33  1  0  0  0  0
  4 34  1  0  0  0  0
  5  6  1  0  0  0  0
  5 35  1  0  0  0  0
  5 36  1  0  0  0  0
  6  7  1  0  0  0  0
  6  8  1  0  0  0  0
  7 37  1  0  0  0  0
  8  9  1  0  0  0  0
  8 38  1  0  0  0  0
  8 39  1  0  0  0  0
  9 26  1  0  0  0  0
  9 10  1  0  0  0  0
 10 11  2  0  0  0  0
 10 40  1  0  0  0  0
 11 12  1  0  0  0  0
 12 26  2  0  0  0  0
 12 13  1  0  0  0  0
 13 14  1  0  0  0  0
 13 23  2  0  0  0  0
 14 19  1  0  0  0  0
 14 15  1  0  0  0  0
 15 16  1  0  0  0  0
 15 41  1  0  0  0  0
 15 42  1  0  0  0  0
 16 27  1  0  0  0  0
 16 17  1  0  0  0  0
 16 18  1  0  0  0  0
 18 19  1  0  0  0  0
 18 43  1  0  0  0  0
 18 44  1  0  0  0  0
 19 28  1  0  0  0  0
 19 20  1  0  0  0  0
 20 21  1  0  0  0  0
 20 22  2  0  0  0  0
 21 45  1  0  0  0  0
 21 46  1  0  0  0  0
 23 24  1  0  0  0  0
 24 25  2  0  0  0  0
 24 47  1  0  0  0  0
 25 26  1  0  0  0  0
M  END
> <s_m_source_file>
AV-unprocessed.smi

> <i_m_source_file_index>
196

> <i_lp_mmshare_version>
43012

> <i_f3d_flags>
0

> <s_epik_input>
W0NIMl0xW0NIMl1PW0NAQEhdKFtDSDNdKVtDQEBdMShbT0hdKVtDSDJdbihbY0hdbjIpYyhjMjMpbltjSF1uYzNONFtDSDJdW0NASF0oRilbQ0gyXVtDQEhdNEMoPU8pW05IMl0=

> <s_epik_cmdline>
J2VwaWtfcHl0aG9uJywgJy1waCcsICc3LjAnLCAnLXRuJywgJzgnLCAnLW1hJywgJzIwMCcsICctbWV0YWxfYmluZGluZycsICctaW1hZScsICc8aW5maWxlLm1hZT4nLCAnLW9tYWUnLCAnPG91dGZpbGUubWFlPic=

> <r_lp_tautomer_probability>
1

> <r_epik_Ionization_Penalty>
0.000857933

> <r_epik_Ionization_Penalty_Charging>
0

> <r_epik_Ionization_Penalty_Neutral>
0.000857933

> <r_epik_State_Penalty>
0.000462053

> <r_epik_Charging_Adjusted_Penalty>
0.000462053

> <i_epik_Tot_Q>
0

> <i_epik_Tot_abs_Q>
0

> <r_epik_Metal_State_Penalty>
-0

> <b_epik_Metal_Only>
0

> <s_lp_Force_Field>
OPLS_2005

> <r_lp_Energy>
47.3735

> <b_lp_Chiralities_Consistent>
1

> <s_lp_Variant>
AV-unprocessed.smi:196-7

> <Gold.Version>
5.8.1

> <Gold.Id.Protein>
6NUR|6NUR_protein|mol2

> <Gold.PLP.Fitness>
43.0130

> <Gold.PLP.PLP>
-39.5721

> <Gold.PLP.part.hbond>
-2.0000

> <Gold.PLP.part.metal>
0.0000

> <Gold.PLP.part.buried>
-2.8513

> <Gold.PLP.part.nonpolar>
-33.9385

> <Gold.PLP.part.repulsive>
0.1059

> <Gold.PLP.ligand.clash>
0.0022

> <Gold.PLP.ligand.torsion>
1.1107

> <Gold.PLP.Chemscore.Hbond>
1.0000

> <Gold.PLP.Chemscore.CHOScore>
0.8501

> <Gold.PLP.Chemscore.Metal>
0.0000

> <Gold.Chemscore.Hbonds>
donor molecule, donor type, donor heavy atom, donor atom, acceptor molecule, acceptor atom, score
      L1  H     7    37       P1  7957  0.19
      L1  C    10    40       P1  8028  0.67

> <Gold.PLP.Chemscore.Internal.Correction>
0.1143

> <Gold.Rescore>
     Score         DG    S(hbond)    S(metal)    S(lipo)     H(rot)  DE(clash)    DE(int)     intcor
      4.78      -9.57       0.99        0.00      73.33       3.04       1.43       3.36       ----

> <Gold.Chemscore.Fitness>
4.7793

> <Gold.Chemscore.DG>
-9.5665

> <Gold.Chemscore.ZeroCoef>
-5.4800

> <Gold.Chemscore.Hbond>
0.9858

> <Gold.Chemscore.Metal>
0.0000

> <Gold.Chemscore.Lipo>
73.3288

> <Gold.Chemscore.Internal_Hbond>
0.0000

> <Gold.Chemscore.DEClash>
1.4298

> <Gold.Chemscore.DEInternal>
3.3574

> <Gold.Chemscore.Rot>
3.0413

> <Gold.Chemscore.Internal.Correction>
   9.000000E+99

> <Gold.Chemscore.Hbonds>
donor molecule, donor type, donor heavy atom, donor atom, acceptor molecule, acceptor atom, score
      L1  H     7    37       P1  7957  0.21

> <Gold.Chemscore.Hbond.Weighted>
-3.2927

> <Gold.Chemscore.Metal.Weighted>
-0.0000

> <Gold.Chemscore.Lipo.Weighted>
-8.5795

> <Gold.Chemscore.Internal_Hbond.Weighted>
0.0000

> <Gold.Chemscore.DEClash.Weighted>
1.4298

> <Gold.Chemscore.DEInternal.Weighted>
3.3574

> <Gold.Chemscore.Rot.Weighted>
7.7856

> <Gold.Chemscore.Internal.Correction.Weighted>
   9.000000E+99

> <Gold.Protein.RotatedTorsions>
[ 6907 6896 6895 6894 ] final  159.31 input  -60.11 | X-H torsion
[ 7974 7965 7964 7962 ] final  170.33 input  175.53 | X-H torsion
[ 8008 7997 7996 7995 ] final  -24.44 input   59.86 | X-H torsion
[ 10167 10162 10161 10158 ] final   30.11 input  -65.29 | X-H torsion
[ 10718 10713 10712 10709 ] final   -5.45 input   66.30 | X-H torsion
[ 10763 10752 10751 10750 ] final -121.03 input  -60.55 | X-H torsion
[ 11005 11000 10999 10996 ] final   95.51 input  -57.11 | X-H torsion

> <Gold.Protein.ActiveResidues>
 VAL166  LYS551  ARG553  GLY616  TRP617  ASP618  TYR619  PRO620  LYS621  CYS622 
 ASP623  PHE694  ASN695  SER759  ASP760  ASP761  ALA762  ILE779  LEU786  VAL792 
 PHE793  MET794  SER795  GLU796  ALA797  LYS798  CYS799  TRP800  GLU811  SER814 

> <Gold.Protein.RotatedAtoms>
  151.9875  133.3779  159.4131 H   0  0  0  0  0  0  0  0  0  0  0  0  # atno 6907 bound_to 6896
  150.6926  134.3972  159.5112 H   0  0  0  0  0  0  0  0  0  0  0  0  # atno 6908 bound_to 6896
  152.1701  134.8841  160.0586 H   0  0  0  0  0  0  0  0  0  0  0  0  # atno 6909 bound_to 6896
  144.7327  139.9186  143.6419 H   0  0  0  0  0  0  0  0  0  0  0  0  # atno 7974 bound_to 7965
  154.4529  140.1953  156.0464 H   0  0  0  0  0  0  0  0  0  0  0  0  # atno 8008 bound_to 7997
  156.0686  140.3287  155.7521 H   0  0  0  0  0  0  0  0  0  0  0  0  # atno 8009 bound_to 7997
  155.5298  140.0577  157.2882 H   0  0  0  0  0  0  0  0  0  0  0  0  # atno 8010 bound_to 7997
  140.4707  144.0767  150.6236 H   0  0  0  0  0  0  0  0  0  0  0  0  # atno 10167 bound_to 10162
  156.7463  130.5225  149.5813 H   0  0  0  0  0  0  0  0  0  0  0  0  # atno 10718 bound_to 10713
  154.8658  135.4182  154.2554 H   0  0  0  0  0  0  0  0  0  0  0  0  # atno 10763 bound_to 10752
  153.3492  135.6998  153.6808 H   0  0  0  0  0  0  0  0  0  0  0  0  # atno 10764 bound_to 10752
  153.5755  135.3583  155.2827 H   0  0  0  0  0  0  0  0  0  0  0  0  # atno 10765 bound_to 10752
  139.8788  134.8902  156.4021 H   0  0  0  0  0  0  0  0  0  0  0  0  # atno 11005 bound_to 11000
  146.0947  139.3938  143.0384 LP  0  0  0  0  0  0  0  0  0  0  0  0  # atno 17320 bound_to 7965
  145.7662  140.9915  143.1173 LP  0  0  0  0  0  0  0  0  0  0  0  0  # atno 17321 bound_to 7965
  140.3981  143.2718  151.9981 LP  0  0  0  0  0  0  0  0  0  0  0  0  # atno 17342 bound_to 10162
  139.4818  144.6021  151.7587 LP  0  0  0  0  0  0  0  0  0  0  0  0  # atno 17343 bound_to 10162
  156.1431  130.6258  151.0494 LP  0  0  0  0  0  0  0  0  0  0  0  0  # atno 17370 bound_to 10713
  157.6796  131.0841  150.7404 LP  0  0  0  0  0  0  0  0  0  0  0  0  # atno 17371 bound_to 10713
  140.9259  133.7612  155.9964 LP  0  0  0  0  0  0  0  0  0  0  0  0  # atno 17394 bound_to 11000
  140.8386  134.3093  157.5322 LP  0  0  0  0  0  0  0  0  0  0  0  0  # atno 17395 bound_to 11000

$$$$
