AV-unprocessed.smi:1261|AV-procd|sdf|5306|dock9
  -GOLD-   22720 4433D 1   1.00000     0.00000
 Structure written by MMmdl.
 50 51  0  0  0  0  0  0  0  0  2 V2000
  151.9561  145.1751  159.2517 C   0  0  0  0  0  0  0  0  0  0  0  0
  152.4667  143.7583  158.9523 C   0  0  1  0  0  0  0  0  0  0  0  0
  153.0659  143.1006  160.2066 C   0  0  0  0  0  0  0  0  0  0  0  0
  153.5504  141.6754  159.8923 C   0  0  1  0  0  0  0  0  0  0  0  0
  154.1343  140.9936  161.1378 C   0  0  0  0  0  0  0  0  0  0  0  0
  152.4044  140.8472  159.2797 C   0  0  0  0  0  0  0  0  0  0  0  0
  151.8517  141.5017  158.0657 N   0  3  1  0  0  0  0  0  0  0  0  0
  150.8489  140.6503  157.3765 C   0  0  0  0  0  0  0  0  0  0  0  0
  149.4111  140.9486  157.8338 C   0  0  0  0  0  0  0  0  0  0  0  0
  148.4243  139.8464  157.4155 C   0  0  0  0  0  0  0  0  0  0  0  0
  148.8891  138.5305  157.8352 N   0  0  0  0  0  0  0  0  0  0  0  0
  148.1267  137.5864  158.4135 C   0  0  0  0  0  0  0  0  0  0  0  0
  146.9345  137.7586  158.6655 O   0  0  0  0  0  0  0  0  0  0  0  0
  148.7761  136.2345  158.7590 C   0  0  0  0  0  0  0  0  0  0  0  0
  148.3898  135.6717  160.0635 N   0  0  0  0  0  0  0  0  0  0  0  0
  148.1392  136.6244  161.0397 N   0  0  0  0  0  0  0  0  0  0  0  0
  147.7875  136.2562  162.2253 C   0  0  0  0  0  0  0  0  0  0  0  0
  147.5505  137.2321  163.1621 O   0  0  0  0  0  0  0  0  0  0  0  0
  147.6457  134.8568  162.5632 C   0  0  0  0  0  0  0  0  0  0  0  0
  147.8933  133.9358  161.6062 C   0  0  0  0  0  0  0  0  0  0  0  0
  148.2983  134.3190  160.2524 C   0  0  0  0  0  0  0  0  0  0  0  0
  148.5453  133.5018  159.3660 O   0  0  0  0  0  0  0  0  0  0  0  0
  151.3527  142.8707  158.3644 C   0  0  0  0  0  0  0  0  0  0  0  0
  147.6101  138.0506  162.6940 H   0  0  0  0  0  0  0  0  0  0  0  0
  151.1572  145.1611  159.9940 H   0  0  0  0  0  0  0  0  0  0  0  0
  151.5652  145.6509  158.3517 H   0  0  0  0  0  0  0  0  0  0  0  0
  152.7566  145.8076  159.6363 H   0  0  0  0  0  0  0  0  0  0  0  0
  153.2574  143.8462  158.2054 H   0  0  0  0  0  0  0  0  0  0  0  0
  153.8959  143.7011  160.5813 H   0  0  0  0  0  0  0  0  0  0  0  0
  152.3195  143.0713  161.0022 H   0  0  0  0  0  0  0  0  0  0  0  0
  154.3495  141.7451  159.1524 H   0  0  0  0  0  0  0  0  0  0  0  0
  153.3849  140.8916  161.9233 H   0  0  0  0  0  0  0  0  0  0  0  0
  154.9671  141.5675  161.5452 H   0  0  0  0  0  0  0  0  0  0  0  0
  154.5073  139.9966  160.9019 H   0  0  0  0  0  0  0  0  0  0  0  0
  152.7802  139.8565  159.0197 H   0  0  0  0  0  0  0  0  0  0  0  0
  151.6058  140.7021  160.0096 H   0  0  0  0  0  0  0  0  0  0  0  0
  150.9014  140.8328  156.3022 H   0  0  0  0  0  0  0  0  0  0  0  0
  151.0927  139.5965  157.5214 H   0  0  0  0  0  0  0  0  0  0  0  0
  149.3764  141.0623  158.9168 H   0  0  0  0  0  0  0  0  0  0  0  0
  149.0867  141.9015  157.4134 H   0  0  0  0  0  0  0  0  0  0  0  0
  147.4513  140.0226  157.8749 H   0  0  0  0  0  0  0  0  0  0  0  0
  148.2660  139.8613  156.3356 H   0  0  0  0  0  0  0  0  0  0  0  0
  149.8608  138.3126  157.6665 H   0  0  0  0  0  0  0  0  0  0  0  0
  148.5230  135.5314  157.9634 H   0  0  0  0  0  0  0  0  0  0  0  0
  149.8606  136.3460  158.7074 H   0  0  0  0  0  0  0  0  0  0  0  0
  147.3477  134.5636  163.5591 H   0  0  0  0  0  0  0  0  0  0  0  0
  147.7903  132.8874  161.8444 H   0  0  0  0  0  0  0  0  0  0  0  0
  150.5129  142.8078  159.0586 H   0  0  0  0  0  0  0  0  0  0  0  0
  150.9737  143.3384  157.4564 H   0  0  0  0  0  0  0  0  0  0  0  0
  152.6269  141.6032  157.4261 H   0  0  0  0  0  0  0  0  0  0  0  0
  1  2  1  0  0  0  0
  1 25  1  0  0  0  0
  1 26  1  0  0  0  0
  1 27  1  0  0  0  0
  2 23  1  0  0  0  0
  2  3  1  0  0  0  0
  2 28  1  0  0  0  0
  3  4  1  0  0  0  0
  3 29  1  0  0  0  0
  3 30  1  0  0  0  0
  4  5  1  0  0  0  0
  4  6  1  0  0  0  0
  4 31  1  0  0  0  0
  5 32  1  0  0  0  0
  5 33  1  0  0  0  0
  5 34  1  0  0  0  0
  6  7  1  0  0  0  0
  6 35  1  0  0  0  0
  6 36  1  0  0  0  0
  7  8  1  0  0  0  0
  7 23  1  0  0  0  0
  7 50  1  0  0  0  0
  8  9  1  0  0  0  0
  8 37  1  0  0  0  0
  8 38  1  0  0  0  0
  9 10  1  0  0  0  0
  9 39  1  0  0  0  0
  9 40  1  0  0  0  0
 10 11  1  0  0  0  0
 10 41  1  0  0  0  0
 10 42  1  0  0  0  0
 11 12  1  0  0  0  0
 11 43  1  0  0  0  0
 12 13  2  0  0  0  0
 12 14  1  0  0  0  0
 14 44  1  0  0  0  0
 14 45  1  0  0  0  0
 14 15  1  0  0  0  0
 15 16  1  0  0  0  0
 15 21  1  0  0  0  0
 16 17  2  0  0  0  0
 17 18  1  0  0  0  0
 17 19  1  0  0  0  0
 18 24  1  0  0  0  0
 19 46  1  0  0  0  0
 19 20  2  0  0  0  0
 20 47  1  0  0  0  0
 20 21  1  0  0  0  0
 21 22  2  0  0  0  0
 23 48  1  0  0  0  0
 23 49  1  0  0  0  0
M  CHG  1   7   1
M  END
> <s_m_source_file>
AV-unprocessed.smi

> <i_m_source_file_index>
1261

> <i_lp_mmshare_version>
43012

> <i_f3d_flags>
0

> <s_epik_input>
W0NIM11bQ0BASF0xW0NIMl1bQ0BASF0oW0NIM10pW0NIMl1OKFtDSDJdMSlbQ0gyXVtDSDJdW0NIMl1bTkhdQyg9TylbQ0gyXW4yW25IXWMoPU8pW2NIXVtjSF1jMj1P

> <s_epik_cmdline>
J2VwaWtfcHl0aG9uJywgJy1waCcsICc3LjAnLCAnLXRuJywgJzgnLCAnLW1hJywgJzIwMCcsICctbWV0YWxfYmluZGluZycsICctaW1hZScsICc8aW5maWxlLm1hZT4nLCAnLW9tYWUnLCAnPG91dGZpbGUubWFlPic=

> <r_lp_tautomer_probability>
0.9996

> <r_epik_Ionization_Penalty>
2.1425

> <r_epik_Ionization_Penalty_Charging>
0.000312112

> <r_epik_Ionization_Penalty_Neutral>
2.14218

> <r_epik_State_Penalty>
1.71978

> <r_epik_Charging_Adjusted_Penalty>
1.72009

> <i_epik_Tot_Q>
1

> <i_epik_Tot_abs_Q>
1

> <r_epik_Metal_State_Penalty>
1.71978

> <b_epik_Metal_Only>
0

> <s_lp_Force_Field>
OPLS_2005

> <r_lp_Energy>
26.9224

> <b_lp_Chiralities_Consistent>
1

> <s_lp_Variant>
AV-unprocessed.smi:1261-6

> <Gold.Version>
5.8.1

> <Gold.Id.Protein>
6NUR|6NUR_protein|mol2

> <Gold.PLP.Fitness>
51.1451

> <Gold.PLP.PLP>
-49.1817

> <Gold.PLP.part.hbond>
-4.6879

> <Gold.PLP.part.metal>
0.0000

> <Gold.PLP.part.buried>
-5.1389

> <Gold.PLP.part.nonpolar>
-40.6792

> <Gold.PLP.part.repulsive>
0.2032

> <Gold.PLP.ligand.clash>
0.0000

> <Gold.PLP.ligand.torsion>
1.1461

> <Gold.PLP.Chemscore.Hbond>
1.3980

> <Gold.PLP.Chemscore.CHOScore>
0.0000

> <Gold.PLP.Chemscore.Metal>
0.0000

> <Gold.Chemscore.Hbonds>
donor molecule, donor type, donor heavy atom, donor atom, acceptor molecule, acceptor atom, score
      P1  H  6931  6943       L1    16  0.38

> <Gold.PLP.Chemscore.Internal.Correction>
0.0616

> <Gold.Rescore>
     Score         DG    S(hbond)    S(metal)    S(lipo)     H(rot)  DE(clash)    DE(int)     intcor
     10.80     -13.29       0.88        0.00     110.12       3.14       0.14       2.35       ----

> <Gold.Chemscore.Fitness>
10.7969

> <Gold.Chemscore.DG>
-13.2855

> <Gold.Chemscore.ZeroCoef>
-5.4800

> <Gold.Chemscore.Hbond>
0.8824

> <Gold.Chemscore.Metal>
0.0000

> <Gold.Chemscore.Lipo>
110.1226

> <Gold.Chemscore.Internal_Hbond>
0.0000

> <Gold.Chemscore.DEClash>
0.1428

> <Gold.Chemscore.DEInternal>
2.3458

> <Gold.Chemscore.Rot>
3.1352

> <Gold.Chemscore.Internal.Correction>
   9.000000E+99

> <Gold.Chemscore.Hbonds>
donor molecule, donor type, donor heavy atom, donor atom, acceptor molecule, acceptor atom, score
      P1  H  6931  6943       L1    16  0.01

> <Gold.Chemscore.Hbond.Weighted>
-2.9472

> <Gold.Chemscore.Metal.Weighted>
-0.0000

> <Gold.Chemscore.Lipo.Weighted>
-12.8843

> <Gold.Chemscore.Internal_Hbond.Weighted>
0.0000

> <Gold.Chemscore.DEClash.Weighted>
0.1428

> <Gold.Chemscore.DEInternal.Weighted>
2.3458

> <Gold.Chemscore.Rot.Weighted>
8.0260

> <Gold.Chemscore.Internal.Correction.Weighted>
   9.000000E+99

> <Gold.Protein.RotatedTorsions>
[ 6907 6896 6895 6894 ] final -144.77 input  -60.11 | X-H torsion
[ 7974 7965 7964 7962 ] final   22.50 input  175.53 | X-H torsion
[ 8008 7997 7996 7995 ] final  121.45 input   59.86 | X-H torsion
[ 10167 10162 10161 10158 ] final -112.28 input  -65.29 | X-H torsion
[ 10718 10713 10712 10709 ] final  -17.90 input   66.30 | X-H torsion
[ 10763 10752 10751 10750 ] final -170.12 input  -60.55 | X-H torsion
[ 11005 11000 10999 10996 ] final  -64.18 input  -57.11 | X-H torsion

> <Gold.Protein.ActiveResidues>
 VAL166  LYS551  ARG553  GLY616  TRP617  ASP618  TYR619  PRO620  LYS621  CYS622 
 ASP623  PHE694  ASN695  SER759  ASP760  ASP761  ALA762  ILE779  LEU786  VAL792 
 PHE793  MET794  SER795  GLU796  ALA797  LYS798  CYS799  TRP800  GLU811  SER814 

> <Gold.Protein.RotatedAtoms>
  151.1185  133.5121  159.2602 H   0  0  0  0  0  0  0  0  0  0  0  0  # atno 6907 bound_to 6896
  151.1887  135.0393  159.8833 H   0  0  0  0  0  0  0  0  0  0  0  0  # atno 6908 bound_to 6896
  152.5454  134.1028  159.8378 H   0  0  0  0  0  0  0  0  0  0  0  0  # atno 6909 bound_to 6896
  146.2026  139.7876  142.8750 H   0  0  0  0  0  0  0  0  0  0  0  0  # atno 7974 bound_to 7965
  156.2687  140.2808  156.1310 H   0  0  0  0  0  0  0  0  0  0  0  0  # atno 8008 bound_to 7997
  155.1054  140.0390  157.2726 H   0  0  0  0  0  0  0  0  0  0  0  0  # atno 8009 bound_to 7997
  154.6783  140.2603  155.6940 H   0  0  0  0  0  0  0  0  0  0  0  0  # atno 8010 bound_to 7997
  140.1245  143.4415  152.1669 H   0  0  0  0  0  0  0  0  0  0  0  0  # atno 10167 bound_to 10162
  156.5671  130.4740  149.6380 H   0  0  0  0  0  0  0  0  0  0  0  0  # atno 10718 bound_to 10713
  154.6450  135.2903  155.0057 H   0  0  0  0  0  0  0  0  0  0  0  0  # atno 10763 bound_to 10752
  154.1170  135.6554  153.4899 H   0  0  0  0  0  0  0  0  0  0  0  0  # atno 10764 bound_to 10752
  153.0346  135.5279  154.7333 H   0  0  0  0  0  0  0  0  0  0  0  0  # atno 10765 bound_to 10752
  141.1417  133.6662  156.5794 H   0  0  0  0  0  0  0  0  0  0  0  0  # atno 11005 bound_to 11000
  145.3432  141.0292  143.3380 LP  0  0  0  0  0  0  0  0  0  0  0  0  # atno 17320 bound_to 7965
  144.8717  139.5028  143.6764 LP  0  0  0  0  0  0  0  0  0  0  0  0  # atno 17321 bound_to 7965
  139.5551  144.7367  151.4317 LP  0  0  0  0  0  0  0  0  0  0  0  0  # atno 17342 bound_to 10162
  140.6853  143.7988  150.7177 LP  0  0  0  0  0  0  0  0  0  0  0  0  # atno 17343 bound_to 10162
  156.2747  130.7037  151.1844 LP  0  0  0  0  0  0  0  0  0  0  0  0  # atno 17370 bound_to 10713
  157.7356  131.0570  150.5460 LP  0  0  0  0  0  0  0  0  0  0  0  0  # atno 17371 bound_to 10713
  140.3850  134.7490  157.4685 LP  0  0  0  0  0  0  0  0  0  0  0  0  # atno 17394 bound_to 11000
  140.0609  134.5997  155.8750 LP  0  0  0  0  0  0  0  0  0  0  0  0  # atno 17395 bound_to 11000

$$$$
