AV-unprocessed.smi:2751|AV-procd|sdf|10604|dock3
  -GOLD-   2272015 53D 1   1.00000     0.00000
 Structure written by MMmdl.
 33 34  0  0  0  0  0  0  0  0  2 V2000
  152.0234  139.9938  154.7472 O   0  0  0  0  0  0  0  0  0  0  0  0
  150.8848  139.9869  155.2213 C   0  0  0  0  0  0  0  0  0  0  0  0
  150.6597  140.5283  156.4275 N   0  0  0  0  0  0  0  0  0  0  0  0
  151.6611  141.1570  157.2828 C   0  0  0  0  0  0  0  0  0  0  0  0
  151.2936  142.6152  157.6077 C   0  0  0  0  0  0  0  0  0  0  0  0
  152.0799  143.1778  158.8023 C   0  0  1  0  0  0  0  0  0  0  0  0
  151.4208  144.4458  159.3798 C   0  0  0  0  0  0  0  0  0  0  0  0
  152.1869  144.9387  160.6127 C   0  0  0  0  0  0  0  0  0  0  0  0
  152.3354  143.7938  161.6205 C   0  0  0  0  0  0  0  0  0  0  0  0
  152.9386  142.5561  160.9373 C   0  0  0  0  0  0  0  0  0  0  0  0
  152.1385  142.1801  159.8205 O   0  0  0  0  0  0  0  0  0  0  0  0
  149.7775  139.4735  154.6387 N   0  5  0  0  0  0  0  0  0  0  0  0
  148.7068  140.2571  154.4321 C   0  0  0  0  0  0  0  0  0  0  0  0
  148.7244  141.5459  154.0878 N   0  0  0  0  0  0  0  0  0  0  0  0
  147.3961  141.9286  153.9827 C   0  0  0  0  0  0  0  0  0  0  0  0
  146.6214  140.8365  154.2632 C   0  0  0  0  0  0  0  0  0  0  0  0
  147.4365  139.7753  154.5452 O   0  0  0  0  0  0  0  0  0  0  0  0
  149.7136  140.5005  156.7783 H   0  0  0  0  0  0  0  0  0  0  0  0
  151.7279  140.5752  158.2022 H   0  0  0  0  0  0  0  0  0  0  0  0
  152.6438  141.1039  156.8113 H   0  0  0  0  0  0  0  0  0  0  0  0
  151.4892  143.2359  156.7322 H   0  0  0  0  0  0  0  0  0  0  0  0
  150.2232  142.6911  157.8038 H   0  0  0  0  0  0  0  0  0  0  0  0
  153.0931  143.4164  158.4735 H   0  0  0  0  0  0  0  0  0  0  0  0
  151.3857  145.2319  158.6249 H   0  0  0  0  0  0  0  0  0  0  0  0
  150.3874  144.2304  159.6551 H   0  0  0  0  0  0  0  0  0  0  0  0
  153.1734  145.2954  160.3136 H   0  0  0  0  0  0  0  0  0  0  0  0
  151.6716  145.7841  161.0689 H   0  0  0  0  0  0  0  0  0  0  0  0
  152.9598  144.1059  162.4580 H   0  0  0  0  0  0  0  0  0  0  0  0
  151.3585  143.5409  162.0343 H   0  0  0  0  0  0  0  0  0  0  0  0
  153.9631  142.7489  160.6155 H   0  0  0  0  0  0  0  0  0  0  0  0
  152.9774  141.7225  161.6384 H   0  0  0  0  0  0  0  0  0  0  0  0
  147.1108  142.9358  153.7176 H   0  0  0  0  0  0  0  0  0  0  0  0
  145.5574  140.6582  154.3033 H   0  0  0  0  0  0  0  0  0  0  0  0
  1  2  2  0  0  0  0
  2 12  1  0  0  0  0
  2  3  1  0  0  0  0
  3  4  1  0  0  0  0
  3 18  1  0  0  0  0
  4  5  1  0  0  0  0
  4 19  1  0  0  0  0
  4 20  1  0  0  0  0
  5  6  1  0  0  0  0
  5 21  1  0  0  0  0
  5 22  1  0  0  0  0
  6 11  1  0  0  0  0
  6  7  1  0  0  0  0
  6 23  1  0  0  0  0
  7  8  1  0  0  0  0
  7 24  1  0  0  0  0
  7 25  1  0  0  0  0
  8  9  1  0  0  0  0
  8 26  1  0  0  0  0
  8 27  1  0  0  0  0
  9 10  1  0  0  0  0
  9 28  1  0  0  0  0
  9 29  1  0  0  0  0
 10 11  1  0  0  0  0
 10 30  1  0  0  0  0
 10 31  1  0  0  0  0
 12 13  1  0  0  0  0
 13 17  1  0  0  0  0
 13 14  2  0  0  0  0
 14 15  1  0  0  0  0
 15 32  1  0  0  0  0
 15 16  2  0  0  0  0
 16 33  1  0  0  0  0
 16 17  1  0  0  0  0
M  CHG  1  12  -1
M  END
> <s_m_source_file>
AV-unprocessed.smi

> <i_m_source_file_index>
2751

> <i_lp_mmshare_version>
43012

> <i_f3d_flags>
0

> <s_epik_input>
bzFbY0hdW2NIXW5jMVtOSF1DKD1PKVtOSF1bQ0gyXVtDSDJdW0NAQEhdMltDSDJdW0NIMl1bQ0gyXVtDSDJdTzI=

> <s_epik_cmdline>
J2VwaWtfcHl0aG9uJywgJy1waCcsICc3LjAnLCAnLXRuJywgJzgnLCAnLW1hJywgJzIwMCcsICctbWV0YWxfYmluZGluZycsICctaW1hZScsICc8aW5maWxlLm1hZT4nLCAnLW9tYWUnLCAnPG91dGZpbGUubWFlPic=

> <r_lp_tautomer_probability>
0.107061

> <r_epik_Ionization_Penalty>
11.077

> <r_epik_Ionization_Penalty_Charging>
7.79122

> <r_epik_Ionization_Penalty_Neutral>
3.28583

> <r_epik_State_Penalty>
5.8984

> <r_epik_Charging_Adjusted_Penalty>
13.6896

> <i_epik_Tot_Q>
-1

> <i_epik_Tot_abs_Q>
1

> <r_epik_Metal_State_Penalty>
1.82322

> <b_epik_Metal_Only>
1

> <s_lp_Force_Field>
OPLS_2005

> <r_lp_Energy>
3.95886

> <b_lp_Chiralities_Consistent>
1

> <s_lp_Variant>
AV-unprocessed.smi:2751-10

> <Gold.Version>
5.8.1

> <Gold.Id.Protein>
6NUR|6NUR_protein|mol2

> <Gold.PLP.Fitness>
42.0162

> <Gold.PLP.PLP>
-37.4010

> <Gold.PLP.part.hbond>
-2.0000

> <Gold.PLP.part.metal>
0.0000

> <Gold.PLP.part.buried>
-6.8639

> <Gold.PLP.part.nonpolar>
-28.6553

> <Gold.PLP.part.repulsive>
0.5059

> <Gold.PLP.ligand.clash>
0.0000

> <Gold.PLP.ligand.torsion>
1.0013

> <Gold.PLP.Chemscore.Hbond>
1.1888

> <Gold.PLP.Chemscore.CHOScore>
1.0000

> <Gold.PLP.Chemscore.Metal>
0.0000

> <Gold.Chemscore.Hbonds>
donor molecule, donor type, donor heavy atom, donor atom, acceptor molecule, acceptor atom, score
      P1  H  7989  7998       L1     1  0.67
      P1  H  8011  8017       L1    14  0.31
      L1  C    16    33       P1 10175  0.78

> <Gold.PLP.Chemscore.Internal.Correction>
0.0513

> <Gold.Rescore>
     Score         DG    S(hbond)    S(metal)    S(lipo)     H(rot)  DE(clash)    DE(int)     intcor
     13.28     -14.57       1.00        0.00      84.37       1.60       0.05       1.24       ----

> <Gold.Chemscore.Fitness>
13.2766

> <Gold.Chemscore.DG>
-14.5709

> <Gold.Chemscore.ZeroCoef>
-5.4800

> <Gold.Chemscore.Hbond>
0.9964

> <Gold.Chemscore.Metal>
0.0000

> <Gold.Chemscore.Lipo>
84.3672

> <Gold.Chemscore.Internal_Hbond>
0.0000

> <Gold.Chemscore.DEClash>
0.0493

> <Gold.Chemscore.DEInternal>
1.2450

> <Gold.Chemscore.Rot>
1.6048

> <Gold.Chemscore.Internal.Correction>
   9.000000E+99

> <Gold.Chemscore.Hbonds>
donor molecule, donor type, donor heavy atom, donor atom, acceptor molecule, acceptor atom, score
      P1  H  7989  7998       L1     1  0.09
      P1  H  8011  8017       L1    14  0.19

> <Gold.Chemscore.Hbond.Weighted>
-3.3281

> <Gold.Chemscore.Metal.Weighted>
-0.0000

> <Gold.Chemscore.Lipo.Weighted>
-9.8710

> <Gold.Chemscore.Internal_Hbond.Weighted>
0.0000

> <Gold.Chemscore.DEClash.Weighted>
0.0493

> <Gold.Chemscore.DEInternal.Weighted>
1.2450

> <Gold.Chemscore.Rot.Weighted>
4.1082

> <Gold.Chemscore.Internal.Correction.Weighted>
   9.000000E+99

> <Gold.Protein.RotatedTorsions>
[ 6907 6896 6895 6894 ] final  144.79 input  -60.11 | X-H torsion
[ 7974 7965 7964 7962 ] final   41.64 input  175.53 | X-H torsion
[ 8008 7997 7996 7995 ] final   67.32 input   59.86 | X-H torsion
[ 10167 10162 10161 10158 ] final   11.35 input  -65.29 | X-H torsion
[ 10718 10713 10712 10709 ] final   10.57 input   66.30 | X-H torsion
[ 10763 10752 10751 10750 ] final   77.18 input  -60.55 | X-H torsion
[ 11005 11000 10999 10996 ] final  -64.49 input  -57.11 | X-H torsion

> <Gold.Protein.ActiveResidues>
 VAL166  LYS551  ARG553  GLY616  TRP617  ASP618  TYR619  PRO620  LYS621  CYS622 
 ASP623  PHE694  ASN695  SER759  ASP760  ASP761  ALA762  ILE779  LEU786  VAL792 
 PHE793  MET794  SER795  GLU796  ALA797  LYS798  CYS799  TRP800  GLU811  SER814 

> <Gold.Protein.RotatedAtoms>
  152.1892  133.4761  159.4998 H   0  0  0  0  0  0  0  0  0  0  0  0  # atno 6907 bound_to 6896
  150.6948  134.1734  159.4230 H   0  0  0  0  0  0  0  0  0  0  0  0  # atno 6908 bound_to 6896
  151.9648  135.0105  160.0600 H   0  0  0  0  0  0  0  0  0  0  0  0  # atno 6909 bound_to 6896
  146.0806  139.5392  142.9539 H   0  0  0  0  0  0  0  0  0  0  0  0  # atno 7974 bound_to 7965
  155.6910  140.3496  155.4893 H   0  0  0  0  0  0  0  0  0  0  0  0  # atno 8008 bound_to 7997
  155.9524  140.1122  157.0988 H   0  0  0  0  0  0  0  0  0  0  0  0  # atno 8009 bound_to 7997
  154.4125  140.1191  156.5056 H   0  0  0  0  0  0  0  0  0  0  0  0  # atno 8010 bound_to 7997
  140.6137  143.8353  150.7094 H   0  0  0  0  0  0  0  0  0  0  0  0  # atno 10167 bound_to 10162
  156.9828  130.6012  149.5678 H   0  0  0  0  0  0  0  0  0  0  0  0  # atno 10718 bound_to 10713
  153.0779  135.4924  154.8443 H   0  0  0  0  0  0  0  0  0  0  0  0  # atno 10763 bound_to 10752
  154.7112  135.3020  154.9196 H   0  0  0  0  0  0  0  0  0  0  0  0  # atno 10764 bound_to 10752
  153.9889  135.6780  153.4806 H   0  0  0  0  0  0  0  0  0  0  0  0  # atno 10765 bound_to 10752
  141.1426  133.6666  156.5842 H   0  0  0  0  0  0  0  0  0  0  0  0  # atno 11005 bound_to 11000
  145.6224  141.0320  143.1907 LP  0  0  0  0  0  0  0  0  0  0  0  0  # atno 17320 bound_to 7965
  144.7291  139.7782  143.7354 LP  0  0  0  0  0  0  0  0  0  0  0  0  # atno 17321 bound_to 7965
  140.1927  143.4023  152.1851 LP  0  0  0  0  0  0  0  0  0  0  0  0  # atno 17342 bound_to 10162
  139.5382  144.7230  151.4823 LP  0  0  0  0  0  0  0  0  0  0  0  0  # atno 17343 bound_to 10162
  156.0237  130.5332  150.8348 LP  0  0  0  0  0  0  0  0  0  0  0  0  # atno 17370 bound_to 10713
  157.5514  131.0944  150.9690 LP  0  0  0  0  0  0  0  0  0  0  0  0  # atno 17371 bound_to 10713
  140.3814  134.7520  157.4663 LP  0  0  0  0  0  0  0  0  0  0  0  0  # atno 17394 bound_to 11000
  140.0635  134.5962  155.8722 LP  0  0  0  0  0  0  0  0  0  0  0  0  # atno 17395 bound_to 11000

$$$$
