AV-unprocessed.smi:160|AV-procd|sdf|1353|dock8
  -GOLD-   2262019 63D 1   1.00000     0.00000
 Structure written by MMmdl.
 29 30  0  0  0  0  0  0  0  0  1 V2000
  154.2596  138.0885  159.0452 N   0  0  0  0  0  0  0  0  0  0  0  0
  152.9892  137.8205  158.7255 C   0  0  0  0  0  0  0  0  0  0  0  0
  152.3321  136.9568  159.3045 O   0  0  0  0  0  0  0  0  0  0  0  0
  152.3986  138.6385  157.6105 C   0  0  0  0  0  0  0  0  0  0  0  0
  152.5127  139.9997  157.5967 N   0  0  0  0  0  0  0  0  0  0  0  0
  151.8616  140.2519  156.4687 C   0  0  0  0  0  0  0  0  0  0  0  0
  151.3986  139.1626  155.8473 N   0  0  0  0  0  0  0  0  0  0  0  0
  150.6264  139.0472  154.5662 C   0  0  2  0  0  0  0  0  0  0  0  0
  150.1350  140.3103  154.2303 O   0  0  0  0  0  0  0  0  0  0  0  0
  148.7485  140.3868  154.5443 C   0  0  1  0  0  0  0  0  0  0  0  0
  148.0629  141.5265  153.7704 C   0  0  0  0  0  0  0  0  0  0  0  0
  148.5925  142.7724  154.1710 O   0  0  0  0  0  0  0  0  0  0  0  0
  148.2544  138.9707  154.2169 C   0  0  1  0  0  0  0  0  0  0  0  0
  148.0233  138.8207  152.8274 O   0  0  0  0  0  0  0  0  0  0  0  0
  149.4156  138.0857  154.6582 C   0  0  2  0  0  0  0  0  0  0  0  0
  149.1713  137.5702  155.9557 O   0  0  0  0  0  0  0  0  0  0  0  0
  151.7429  138.0809  156.5912 N   0  0  0  0  0  0  0  0  0  0  0  0
  151.3687  138.7336  153.8314 H   0  0  0  0  0  0  0  0  0  0  0  0
  148.6318  140.5456  155.6177 H   0  0  0  0  0  0  0  0  0  0  0  0
  147.3251  138.7357  154.7379 H   0  0  0  0  0  0  0  0  0  0  0  0
  149.5685  137.2438  153.9816 H   0  0  0  0  0  0  0  0  0  0  0  0
  154.7126  137.5727  159.7853 H   0  0  0  0  0  0  0  0  0  0  0  0
  154.7585  138.8077  158.5412 H   0  0  0  0  0  0  0  0  0  0  0  0
  151.7223  141.2519  156.0851 H   0  0  0  0  0  0  0  0  0  0  0  0
  148.1716  141.3990  152.6928 H   0  0  0  0  0  0  0  0  0  0  0  0
  146.9954  141.5416  153.9919 H   0  0  0  0  0  0  0  0  0  0  0  0
  148.4856  142.8583  155.1060 H   0  0  0  0  0  0  0  0  0  0  0  0
  148.7204  139.2529  152.3581 H   0  0  0  0  0  0  0  0  0  0  0  0
  148.6672  138.2046  156.4419 H   0  0  0  0  0  0  0  0  0  0  0  0
  1  2  1  0  0  0  0
  1 22  1  0  0  0  0
  1 23  1  0  0  0  0
  2  3  2  0  0  0  0
  2  4  1  0  0  0  0
  4 17  2  0  0  0  0
  4  5  1  0  0  0  0
  5  6  2  0  0  0  0
  6  7  1  0  0  0  0
  6 24  1  0  0  0  0
  7  8  1  0  0  0  0
  7 17  1  0  0  0  0
  8 18  1  0  0  0  0
  8 15  1  0  0  0  0
  8  9  1  0  0  0  0
  9 10  1  0  0  0  0
 10 19  1  0  0  0  0
 10 11  1  0  0  0  0
 10 13  1  0  0  0  0
 11 12  1  0  0  0  0
 11 25  1  0  0  0  0
 11 26  1  0  0  0  0
 12 27  1  0  0  0  0
 13 20  1  0  0  0  0
 13 14  1  0  0  0  0
 13 15  1  0  0  0  0
 14 28  1  0  0  0  0
 15 21  1  0  0  0  0
 15 16  1  0  0  0  0
 16 29  1  0  0  0  0
M  END
> <s_m_source_file>
AV-unprocessed.smi

> <i_m_source_file_index>
160

> <i_lp_mmshare_version>
43012

> <i_f3d_flags>
0

> <s_epik_input>
W05IMl1DKD1PKWMxbltjSF1uKG4xKVtDQEBIXTJPW0NASF0oW0NIMl1bT0hdKVtDQEBIXShbT0hdKVtDQEhdMltPSF0=

> <s_epik_cmdline>
J2VwaWtfcHl0aG9uJywgJy1waCcsICc3LjAnLCAnLXRuJywgJzgnLCAnLW1hJywgJzIwMCcsICctbWV0YWxfYmluZGluZycsICctaW1hZScsICc8aW5maWxlLm1hZT4nLCAnLW9tYWUnLCAnPG91dGZpbGUubWFlPic=

> <r_lp_tautomer_probability>
1

> <r_epik_Ionization_Penalty>
1.06932e-05

> <r_epik_Ionization_Penalty_Charging>
0

> <r_epik_Ionization_Penalty_Neutral>
1.06932e-05

> <r_epik_State_Penalty>
-0

> <r_epik_Charging_Adjusted_Penalty>
0

> <i_epik_Tot_Q>
0

> <i_epik_Tot_abs_Q>
0

> <r_epik_Metal_State_Penalty>
0.0142097

> <b_epik_Metal_Only>
0

> <s_epik_Chemistry_Notes>
This compound contains an acetal/aminal-like group ( X-CH(R)-Y where X, Y are N, S, or O) that may be acid/base labile, releasing an aldehyde.

> <s_lp_Force_Field>
OPLS_2005

> <r_lp_Energy>
42.6693

> <b_lp_Chiralities_Consistent>
1

> <s_lp_Variant>
AV-unprocessed.smi:160-11

> <Gold.Version>
5.8.1

> <Gold.Id.Protein>
6NUR|6NUR_protein|mol2

> <Gold.PLP.Fitness>
38.0058

> <Gold.PLP.PLP>
-25.3577

> <Gold.PLP.part.hbond>
-7.5666

> <Gold.PLP.part.metal>
0.0000

> <Gold.PLP.part.buried>
-2.9045

> <Gold.PLP.part.nonpolar>
-15.5621

> <Gold.PLP.part.repulsive>
0.2074

> <Gold.PLP.ligand.clash>
0.0000

> <Gold.PLP.ligand.torsion>
1.2222

> <Gold.PLP.Chemscore.Hbond>
5.0296

> <Gold.PLP.Chemscore.CHOScore>
0.0000

> <Gold.PLP.Chemscore.Metal>
0.0000

> <Gold.Chemscore.Hbonds>
donor molecule, donor type, donor heavy atom, donor atom, acceptor molecule, acceptor atom, score
      L1  H    12    27       P1  8028  0.18
      L1  H    14    28       P1  7957  1.00
      P1  H  6896  6908       L1     3  0.98
      P1  H  7989  7998       L1     9  0.74
      P1  H  7997  8009       L1     5  0.70
      P1  H  8022  8030       L1    12  0.93

> <Gold.PLP.Chemscore.Internal.Correction>
0.0038

> <Gold.Rescore>
     Score         DG    S(hbond)    S(metal)    S(lipo)     H(rot)  DE(clash)    DE(int)     intcor
      5.63      -8.34       3.21        0.00      21.56       4.06       0.03       2.69       ----

> <Gold.Chemscore.Fitness>
5.6267

> <Gold.Chemscore.DG>
-8.3422

> <Gold.Chemscore.ZeroCoef>
-5.4800

> <Gold.Chemscore.Hbond>
3.2134

> <Gold.Chemscore.Metal>
0.0000

> <Gold.Chemscore.Lipo>
21.5629

> <Gold.Chemscore.Internal_Hbond>
0.0000

> <Gold.Chemscore.DEClash>
0.0272

> <Gold.Chemscore.DEInternal>
2.6883

> <Gold.Chemscore.Rot>
4.0600

> <Gold.Chemscore.Internal.Correction>
   9.000000E+99

> <Gold.Chemscore.Hbonds>
donor molecule, donor type, donor heavy atom, donor atom, acceptor molecule, acceptor atom, score
      L1  H    12    27       P1  8028  0.18
      L1  H    14    28       P1  7957  1.00
      P1  H  6896  6908       L1     3  0.88
      P1  H  7989  7998       L1     9  0.11
      P1  H  7997  8009       L1     5  0.03
      P1  H  8022  8030       L1    12  0.26

> <Gold.Chemscore.Hbond.Weighted>
-10.7329

> <Gold.Chemscore.Metal.Weighted>
-0.0000

> <Gold.Chemscore.Lipo.Weighted>
-2.5229

> <Gold.Chemscore.Internal_Hbond.Weighted>
0.0000

> <Gold.Chemscore.DEClash.Weighted>
0.0272

> <Gold.Chemscore.DEInternal.Weighted>
2.6883

> <Gold.Chemscore.Rot.Weighted>
10.3936

> <Gold.Chemscore.Internal.Correction.Weighted>
   9.000000E+99

> <Gold.Protein.RotatedTorsions>
[ 6907 6896 6895 6894 ] final  -97.13 input  -60.11 | X-H torsion
[ 7974 7965 7964 7962 ] final -169.58 input  175.53 | X-H torsion
[ 8008 7997 7996 7995 ] final  162.50 input   59.86 | X-H torsion
[ 10167 10162 10161 10158 ] final   -0.19 input  -65.29 | X-H torsion
[ 10718 10713 10712 10709 ] final -175.08 input   66.30 | X-H torsion
[ 10763 10752 10751 10750 ] final   19.25 input  -60.55 | X-H torsion
[ 11005 11000 10999 10996 ] final  176.88 input  -57.11 | X-H torsion

> <Gold.Protein.ActiveResidues>
 VAL166  LYS551  ARG553  GLY616  TRP617  ASP618  TYR619  PRO620  LYS621  CYS622 
 ASP623  PHE694  ASN695  SER759  ASP760  ASP761  ALA762  ILE779  LEU786  VAL792 
 PHE793  MET794  SER795  GLU796  ALA797  LYS798  CYS799  TRP800  GLU811  SER814 

> <Gold.Protein.RotatedAtoms>
  150.7007  134.1397  159.4099 H   0  0  0  0  0  0  0  0  0  0  0  0  # atno 6907 bound_to 6896
  151.9381  135.0223  160.0543 H   0  0  0  0  0  0  0  0  0  0  0  0  # atno 6908 bound_to 6896
  152.2117  133.4881  159.5150 H   0  0  0  0  0  0  0  0  0  0  0  0  # atno 6909 bound_to 6896
  144.7183  140.2200  143.6317 H   0  0  0  0  0  0  0  0  0  0  0  0  # atno 7974 bound_to 7965
  156.2026  140.1748  156.7867 H   0  0  0  0  0  0  0  0  0  0  0  0  # atno 8008 bound_to 7997
  154.5612  140.0699  156.8853 H   0  0  0  0  0  0  0  0  0  0  0  0  # atno 8009 bound_to 7997
  155.2844  140.3351  155.4258 H   0  0  0  0  0  0  0  0  0  0  0  0  # atno 8010 bound_to 7997
  140.6756  143.6924  150.8017 H   0  0  0  0  0  0  0  0  0  0  0  0  # atno 10167 bound_to 10162
  156.7945  130.9530  151.3120 H   0  0  0  0  0  0  0  0  0  0  0  0  # atno 10718 bound_to 10713
  153.1178  135.6712  153.9387 H   0  0  0  0  0  0  0  0  0  0  0  0  # atno 10763 bound_to 10752
  153.8912  135.3047  155.3448 H   0  0  0  0  0  0  0  0  0  0  0  0  # atno 10764 bound_to 10752
  154.7593  135.4996  153.9512 H   0  0  0  0  0  0  0  0  0  0  0  0  # atno 10765 bound_to 10752
  140.3779  134.6972  157.4433 H   0  0  0  0  0  0  0  0  0  0  0  0  # atno 11005 bound_to 11000
  145.8510  139.2175  143.1772 LP  0  0  0  0  0  0  0  0  0  0  0  0  # atno 17320 bound_to 7965
  146.0261  140.8302  142.9899 LP  0  0  0  0  0  0  0  0  0  0  0  0  # atno 17321 bound_to 7965
  140.0617  143.5149  152.2624 LP  0  0  0  0  0  0  0  0  0  0  0  0  # atno 17342 bound_to 10162
  139.6047  144.7593  151.3089 LP  0  0  0  0  0  0  0  0  0  0  0  0  # atno 17343 bound_to 10162
  157.6584  130.8944  149.9777 LP  0  0  0  0  0  0  0  0  0  0  0  0  # atno 17370 bound_to 10713
  156.1138  130.3648  150.0003 LP  0  0  0  0  0  0  0  0  0  0  0  0  # atno 17371 bound_to 10713
  140.0501  134.6143  155.8872 LP  0  0  0  0  0  0  0  0  0  0  0  0  # atno 17394 bound_to 11000
  141.1933  133.6578  156.5542 LP  0  0  0  0  0  0  0  0  0  0  0  0  # atno 17395 bound_to 11000

$$$$
