AV-unprocessed.smi:342|AV-procd|sdf|2385|dock1
  -GOLD-   2262022313D 1   1.00000     0.00000
 Structure written by MMmdl.
 41 43  0  0  0  0  0  0  0  0  1 V2000
  150.7896  140.4705  155.1512 O   0  0  0  0  0  0  0  0  0  0  0  0
  150.0119  141.1172  156.1393 C   0  0  1  0  0  0  0  0  0  0  0  0
  148.5664  141.2538  155.6191 C   0  0  0  0  0  0  0  0  0  0  0  0
  147.6875  142.1199  156.4069 N   0  0  0  0  0  0  0  0  0  0  0  0
  146.4595  142.4161  155.6763 C   0  0  0  0  0  0  0  0  0  0  0  0
  145.5149  143.3261  156.4800 C   0  0  0  0  0  0  0  0  0  0  0  0
  145.2164  142.7142  157.7301 O   0  0  0  0  0  0  0  0  0  0  0  0
  146.3832  142.4480  158.5008 C   0  0  0  0  0  0  0  0  0  0  0  0
  147.3369  141.5410  157.7035 C   0  0  0  0  0  0  0  0  0  0  0  0
  150.0640  140.3052  157.4496 C   0  0  0  0  0  0  0  0  0  0  0  0
  151.3450  140.4201  158.1363 N   0  0  0  0  0  0  0  0  0  0  0  0
  152.2513  139.4454  158.4133 C   0  0  0  0  0  0  0  0  0  0  0  0
  152.0309  138.0068  158.0342 C   0  0  0  0  0  0  0  0  0  0  0  0
  153.0116  137.2339  158.5036 F   0  0  0  0  0  0  0  0  0  0  0  0
  150.8822  137.5603  158.5426 F   0  0  0  0  0  0  0  0  0  0  0  0
  152.0000  137.8609  156.7097 F   0  0  0  0  0  0  0  0  0  0  0  0
  153.3446  139.8470  159.0662 N   0  0  0  0  0  0  0  0  0  0  0  0
  153.1258  141.1995  159.2326 C   0  0  0  0  0  0  0  0  0  0  0  0
  153.9216  142.1884  159.8536 C   0  0  0  0  0  0  0  0  0  0  0  0
  153.4810  143.5268  159.9113 C   0  0  0  0  0  0  0  0  0  0  0  0
  152.2402  143.8939  159.3518 C   0  0  0  0  0  0  0  0  0  0  0  0
  151.4324  142.9239  158.7279 C   0  0  0  0  0  0  0  0  0  0  0  0
  151.8790  141.5898  158.6690 C   0  0  0  0  0  0  0  0  0  0  0  0
  150.7052  139.5363  155.2653 H   0  0  0  0  0  0  0  0  0  0  0  0
  150.4499  142.0961  156.3243 H   0  0  0  0  0  0  0  0  0  0  0  0
  148.6119  141.6222  154.5929 H   0  0  0  0  0  0  0  0  0  0  0  0
  148.1155  140.2623  155.5540 H   0  0  0  0  0  0  0  0  0  0  0  0
  146.7000  142.8988  154.7282 H   0  0  0  0  0  0  0  0  0  0  0  0
  145.9415  141.4878  155.4306 H   0  0  0  0  0  0  0  0  0  0  0  0
  145.9672  144.3055  156.6440 H   0  0  0  0  0  0  0  0  0  0  0  0
  144.5872  143.4887  155.9314 H   0  0  0  0  0  0  0  0  0  0  0  0
  146.8741  143.3858  158.7660 H   0  0  0  0  0  0  0  0  0  0  0  0
  146.0915  141.9645  159.4333 H   0  0  0  0  0  0  0  0  0  0  0  0
  146.8692  140.5659  157.5592 H   0  0  0  0  0  0  0  0  0  0  0  0
  148.2305  141.3735  158.3027 H   0  0  0  0  0  0  0  0  0  0  0  0
  149.2889  140.6564  158.1317 H   0  0  0  0  0  0  0  0  0  0  0  0
  149.8395  139.2577  157.2543 H   0  0  0  0  0  0  0  0  0  0  0  0
  154.8722  141.9162  160.2876 H   0  0  0  0  0  0  0  0  0  0  0  0
  154.0972  144.2746  160.3886 H   0  0  0  0  0  0  0  0  0  0  0  0
  151.9085  144.9208  159.4016 H   0  0  0  0  0  0  0  0  0  0  0  0
  150.4815  143.2032  158.2993 H   0  0  0  0  0  0  0  0  0  0  0  0
  1  2  1  0  0  0  0
  1 24  1  0  0  0  0
  2  3  1  0  0  0  0
  2 10  1  0  0  0  0
  2 25  1  0  0  0  0
  3  4  1  0  0  0  0
  3 26  1  0  0  0  0
  3 27  1  0  0  0  0
  4  9  1  0  0  0  0
  4  5  1  0  0  0  0
  5  6  1  0  0  0  0
  5 28  1  0  0  0  0
  5 29  1  0  0  0  0
  6  7  1  0  0  0  0
  6 30  1  0  0  0  0
  6 31  1  0  0  0  0
  7  8  1  0  0  0  0
  8  9  1  0  0  0  0
  8 32  1  0  0  0  0
  8 33  1  0  0  0  0
  9 34  1  0  0  0  0
  9 35  1  0  0  0  0
 10 11  1  0  0  0  0
 10 36  1  0  0  0  0
 10 37  1  0  0  0  0
 11 23  1  0  0  0  0
 11 12  1  0  0  0  0
 12 13  1  0  0  0  0
 12 17  2  0  0  0  0
 13 14  1  0  0  0  0
 13 15  1  0  0  0  0
 13 16  1  0  0  0  0
 17 18  1  0  0  0  0
 18 23  2  0  0  0  0
 18 19  1  0  0  0  0
 19 20  2  0  0  0  0
 19 38  1  0  0  0  0
 20 21  1  0  0  0  0
 20 39  1  0  0  0  0
 21 22  2  0  0  0  0
 21 40  1  0  0  0  0
 22 23  1  0  0  0  0
 22 41  1  0  0  0  0
M  END
> <s_m_source_file>
AV-unprocessed.smi

> <i_m_source_file_index>
342

> <i_lp_mmshare_version>
43012

> <i_f3d_flags>
0

> <s_epik_input>
W2NIXTFbY0hdW2NIXVtjSF1jKGMxMiluKGMobjIpQyhGKShGKUYpW0NIMl1bQ0BIXShbT0hdKVtDSDJdTjNbQ0gyXVtDSDJdT1tDSDJdW0NIMl0z

> <s_epik_cmdline>
J2VwaWtfcHl0aG9uJywgJy1waCcsICc3LjAnLCAnLXRuJywgJzgnLCAnLW1hJywgJzIwMCcsICctbWV0YWxfYmluZGluZycsICctaW1hZScsICc8aW5maWxlLm1hZT4nLCAnLW9tYWUnLCAnPG91dGZpbGUubWFlPic=

> <r_epik_Ionization_Penalty>
0.263195

> <r_epik_Ionization_Penalty_Charging>
0

> <r_epik_Ionization_Penalty_Neutral>
0.263195

> <r_epik_State_Penalty>
0.254683

> <r_epik_Charging_Adjusted_Penalty>
0.254683

> <i_epik_Tot_Q>
0

> <i_epik_Tot_abs_Q>
0

> <r_epik_Metal_State_Penalty>
0.254691

> <b_epik_Metal_Only>
0

> <s_lp_Force_Field>
OPLS_2005

> <r_lp_Energy>
34.5572

> <b_lp_Chiralities_Consistent>
1

> <s_lp_Variant>
AV-unprocessed.smi:342-2

> <Gold.Version>
5.8.1

> <Gold.Id.Protein>
6NUR|6NUR_protein|mol2

> <Gold.PLP.Fitness>
48.7844

> <Gold.PLP.PLP>
-46.1366

> <Gold.PLP.part.hbond>
-1.0000

> <Gold.PLP.part.metal>
0.0000

> <Gold.PLP.part.buried>
-8.3248

> <Gold.PLP.part.nonpolar>
-37.7691

> <Gold.PLP.part.repulsive>
0.5388

> <Gold.PLP.ligand.clash>
0.0000

> <Gold.PLP.ligand.torsion>
0.2766

> <Gold.PLP.Chemscore.Hbond>
1.0000

> <Gold.PLP.Chemscore.CHOScore>
0.0000

> <Gold.PLP.Chemscore.Metal>
0.0000

> <Gold.Chemscore.Hbonds>
donor molecule, donor type, donor heavy atom, donor atom, acceptor molecule, acceptor atom, score
      P1  H  7989  7998       L1     1  1.00

> <Gold.PLP.Chemscore.Internal.Correction>
0.2010

> <Gold.Rescore>
     Score         DG    S(hbond)    S(metal)    S(lipo)     H(rot)  DE(clash)    DE(int)     intcor
     15.02     -15.40       0.95        0.00     106.88       2.24       0.01       0.37       ----

> <Gold.Chemscore.Fitness>
15.0163

> <Gold.Chemscore.DG>
-15.4035

> <Gold.Chemscore.ZeroCoef>
-5.4800

> <Gold.Chemscore.Hbond>
0.9457

> <Gold.Chemscore.Metal>
0.0000

> <Gold.Chemscore.Lipo>
106.8786

> <Gold.Chemscore.Internal_Hbond>
0.0000

> <Gold.Chemscore.DEClash>
0.0126

> <Gold.Chemscore.DEInternal>
0.3746

> <Gold.Chemscore.Rot>
2.2421

> <Gold.Chemscore.Internal.Correction>
   9.000000E+99

> <Gold.Chemscore.Hbonds>
donor molecule, donor type, donor heavy atom, donor atom, acceptor molecule, acceptor atom, score
      P1  H  7989  7998       L1     1  0.75

> <Gold.Chemscore.Hbond.Weighted>
-3.1585

> <Gold.Chemscore.Metal.Weighted>
-0.0000

> <Gold.Chemscore.Lipo.Weighted>
-12.5048

> <Gold.Chemscore.Internal_Hbond.Weighted>
0.0000

> <Gold.Chemscore.DEClash.Weighted>
0.0126

> <Gold.Chemscore.DEInternal.Weighted>
0.3746

> <Gold.Chemscore.Rot.Weighted>
5.7399

> <Gold.Chemscore.Internal.Correction.Weighted>
   9.000000E+99

> <Gold.Protein.RotatedTorsions>
[ 6907 6896 6895 6894 ] final   16.28 input  -60.11 | X-H torsion
[ 7974 7965 7964 7962 ] final  111.92 input  175.53 | X-H torsion
[ 8008 7997 7996 7995 ] final  -29.44 input   59.86 | X-H torsion
[ 10167 10162 10161 10158 ] final -155.63 input  -65.29 | X-H torsion
[ 10718 10713 10712 10709 ] final -129.02 input   66.30 | X-H torsion
[ 10763 10752 10751 10750 ] final -177.60 input  -60.55 | X-H torsion
[ 11005 11000 10999 10996 ] final -123.68 input  -57.11 | X-H torsion

> <Gold.Protein.ActiveResidues>
 VAL166  LYS551  ARG553  GLY616  TRP617  ASP618  TYR619  PRO620  LYS621  CYS622 
 ASP623  PHE694  ASN695  SER759  ASP760  ASP761  ALA762  ILE779  LEU786  VAL792 
 PHE793  MET794  SER795  GLU796  ALA797  LYS798  CYS799  TRP800  GLU811  SER814 

> <Gold.Protein.RotatedAtoms>
  151.8313  135.0620  160.0436 H   0  0  0  0  0  0  0  0  0  0  0  0  # atno 6907 bound_to 6896
  152.2878  133.5527  159.5546 H   0  0  0  0  0  0  0  0  0  0  0  0  # atno 6908 bound_to 6896
  150.7217  134.0388  159.3801 H   0  0  0  0  0  0  0  0  0  0  0  0  # atno 6909 bound_to 6896
  145.2361  139.2799  143.4142 H   0  0  0  0  0  0  0  0  0  0  0  0  # atno 7974 bound_to 7965
  154.4290  140.1818  156.1249 H   0  0  0  0  0  0  0  0  0  0  0  0  # atno 8008 bound_to 7997
  156.0114  140.3350  155.6919 H   0  0  0  0  0  0  0  0  0  0  0  0  # atno 8009 bound_to 7997
  155.6105  140.0649  157.2698 H   0  0  0  0  0  0  0  0  0  0  0  0  # atno 8010 bound_to 7997
  139.6916  143.9412  152.2387 H   0  0  0  0  0  0  0  0  0  0  0  0  # atno 10167 bound_to 10162
  156.2006  130.6855  151.0535 H   0  0  0  0  0  0  0  0  0  0  0  0  # atno 10718 bound_to 10713
  154.5581  135.2818  155.0945 H   0  0  0  0  0  0  0  0  0  0  0  0  # atno 10763 bound_to 10752
  154.2364  135.6365  153.5196 H   0  0  0  0  0  0  0  0  0  0  0  0  # atno 10764 bound_to 10752
  153.0021  135.5549  154.6167 H   0  0  0  0  0  0  0  0  0  0  0  0  # atno 10765 bound_to 10752
  140.9900  134.0552  157.3666 H   0  0  0  0  0  0  0  0  0  0  0  0  # atno 11005 bound_to 11000
  146.3340  140.2710  142.8606 LP  0  0  0  0  0  0  0  0  0  0  0  0  # atno 17320 bound_to 7965
  144.9632  140.8296  143.5501 LP  0  0  0  0  0  0  0  0  0  0  0  0  # atno 17321 bound_to 7965
  139.9229  144.6788  150.8442 LP  0  0  0  0  0  0  0  0  0  0  0  0  # atno 17342 bound_to 10162
  140.7684  143.3362  151.2304 LP  0  0  0  0  0  0  0  0  0  0  0  0  # atno 17343 bound_to 10162
  157.6983  131.0785  150.6899 LP  0  0  0  0  0  0  0  0  0  0  0  0  # atno 17370 bound_to 10713
  156.6956  130.4608  149.5587 LP  0  0  0  0  0  0  0  0  0  0  0  0  # atno 17371 bound_to 10713
  139.8988  135.0156  156.7165 LP  0  0  0  0  0  0  0  0  0  0  0  0  # atno 17394 bound_to 11000
  140.7055  133.9269  155.8051 LP  0  0  0  0  0  0  0  0  0  0  0  0  # atno 17395 bound_to 11000

$$$$
