AV-unprocessed.smi:1657|AV-procd|sdf|6647|dock4
  -GOLD-   22720 7353D 1   1.00000     0.00000
 Structure written by MMmdl.
 52 54  0  0  0  0  0  0  0  0  2 V2000
  149.8798  135.7701  156.6058 O   0  0  0  0  0  0  0  0  0  0  0  0
  149.7224  136.1150  155.4346 C   0  0  0  0  0  0  0  0  0  0  0  0
  149.2672  135.2916  154.4797 N   0  0  0  0  0  0  0  0  0  0  0  0
  148.8941  133.8976  154.6904 C   0  0  0  0  0  0  0  0  0  0  0  0
  148.4635  133.2244  153.3733 C   0  0  0  0  0  0  0  0  0  0  0  0
  147.4659  134.0312  152.6264 N   0  3  0  0  0  0  0  0  0  0  0  0
  146.8147  133.2536  151.5395 C   0  0  0  0  0  0  0  0  0  0  0  0
  145.8903  134.1452  150.6933 C   0  0  0  0  0  0  0  0  0  0  0  0
  144.8392  134.8364  151.5711 C   0  0  0  0  0  0  0  0  0  0  0  0
  145.5275  135.6032  152.7075 C   0  0  0  0  0  0  0  0  0  0  0  0
  146.4601  134.6803  153.5103 C   0  0  0  0  0  0  0  0  0  0  0  0
  149.9992  137.3326  154.9379 N   0  0  0  0  0  0  0  0  0  0  0  0
  150.4897  138.4732  155.6285 C   0  0  0  0  0  0  0  0  0  0  0  0
  150.7899  139.7082  155.0096 C   0  0  0  0  0  0  0  0  0  0  0  0
  151.2909  140.7620  155.7975 C   0  0  0  0  0  0  0  0  0  0  0  0
  151.4855  140.5605  157.1849 C   0  0  0  0  0  0  0  0  0  0  0  0
  151.9819  141.6054  157.9962 N   0  0  0  0  0  0  0  0  0  0  0  0
  152.1699  141.3374  159.4215 C   0  0  0  0  0  0  0  0  0  0  0  0
  152.9801  142.4667  160.0798 C   0  0  0  0  0  0  0  0  0  0  0  0
  152.3469  143.7178  159.8346 O   0  0  0  0  0  0  0  0  0  0  0  0
  152.2777  144.0108  158.4433 C   0  0  0  0  0  0  0  0  0  0  0  0
  151.4435  142.9365  157.7243 C   0  0  0  0  0  0  0  0  0  0  0  0
  151.2159  139.3668  157.7691 N   0  0  0  0  0  0  0  0  0  0  0  0
  150.7379  138.3588  157.0103 C   0  0  0  0  0  0  0  0  0  0  0  0
  149.1691  135.6561  153.5431 H   0  0  0  0  0  0  0  0  0  0  0  0
  149.7269  133.3709  155.1573 H   0  0  0  0  0  0  0  0  0  0  0  0
  148.0719  133.8722  155.4061 H   0  0  0  0  0  0  0  0  0  0  0  0
  149.3552  133.0922  152.7585 H   0  0  0  0  0  0  0  0  0  0  0  0
  148.0643  132.2246  153.5520 H   0  0  0  0  0  0  0  0  0  0  0  0
  147.5745  132.8146  150.8918 H   0  0  0  0  0  0  0  0  0  0  0  0
  146.2491  132.4264  151.9714 H   0  0  0  0  0  0  0  0  0  0  0  0
  146.4836  134.8960  150.1696 H   0  0  0  0  0  0  0  0  0  0  0  0
  145.3984  133.5484  149.9247 H   0  0  0  0  0  0  0  0  0  0  0  0
  144.2318  135.5145  150.9708 H   0  0  0  0  0  0  0  0  0  0  0  0
  144.1592  134.0917  151.9873 H   0  0  0  0  0  0  0  0  0  0  0  0
  146.1000  136.4357  152.2958 H   0  0  0  0  0  0  0  0  0  0  0  0
  144.7778  136.0406  153.3678 H   0  0  0  0  0  0  0  0  0  0  0  0
  145.8760  133.9138  154.0226 H   0  0  0  0  0  0  0  0  0  0  0  0
  146.9543  135.2662  154.2842 H   0  0  0  0  0  0  0  0  0  0  0  0
  149.9051  137.4397  153.9384 H   0  0  0  0  0  0  0  0  0  0  0  0
  150.6642  139.8620  153.9490 H   0  0  0  0  0  0  0  0  0  0  0  0
  151.5369  141.7006  155.3242 H   0  0  0  0  0  0  0  0  0  0  0  0
  151.1951  141.2477  159.9029 H   0  0  0  0  0  0  0  0  0  0  0  0
  152.6931  140.3910  159.5639 H   0  0  0  0  0  0  0  0  0  0  0  0
  153.0423  142.3051  161.1560 H   0  0  0  0  0  0  0  0  0  0  0  0
  154.0033  142.4835  159.7008 H   0  0  0  0  0  0  0  0  0  0  0  0
  151.8207  144.9913  158.3099 H   0  0  0  0  0  0  0  0  0  0  0  0
  153.2829  144.0688  158.0221 H   0  0  0  0  0  0  0  0  0  0  0  0
  151.4281  143.1592  156.6587 H   0  0  0  0  0  0  0  0  0  0  0  0
  150.4097  142.9744  158.0704 H   0  0  0  0  0  0  0  0  0  0  0  0
  150.5412  137.4314  157.5282 H   0  0  0  0  0  0  0  0  0  0  0  0
  147.9801  134.7712  152.1702 H   0  0  0  0  0  0  0  0  0  0  0  0
  1  2  2  0  0  0  0
  2  3  1  0  0  0  0
  2 12  1  0  0  0  0
  3  4  1  0  0  0  0
  3 25  1  0  0  0  0
  4  5  1  0  0  0  0
  4 26  1  0  0  0  0
  4 27  1  0  0  0  0
  5  6  1  0  0  0  0
  5 28  1  0  0  0  0
  5 29  1  0  0  0  0
  6 11  1  0  0  0  0
  6  7  1  0  0  0  0
  6 52  1  0  0  0  0
  7  8  1  0  0  0  0
  7 30  1  0  0  0  0
  7 31  1  0  0  0  0
  8  9  1  0  0  0  0
  8 32  1  0  0  0  0
  8 33  1  0  0  0  0
  9 10  1  0  0  0  0
  9 34  1  0  0  0  0
  9 35  1  0  0  0  0
 10 11  1  0  0  0  0
 10 36  1  0  0  0  0
 10 37  1  0  0  0  0
 11 38  1  0  0  0  0
 11 39  1  0  0  0  0
 12 13  1  0  0  0  0
 12 40  1  0  0  0  0
 13 24  1  0  0  0  0
 13 14  2  0  0  0  0
 14 15  1  0  0  0  0
 14 41  1  0  0  0  0
 15 16  2  0  0  0  0
 15 42  1  0  0  0  0
 16 17  1  0  0  0  0
 16 23  1  0  0  0  0
 17 22  1  0  0  0  0
 17 18  1  0  0  0  0
 18 19  1  0  0  0  0
 18 43  1  0  0  0  0
 18 44  1  0  0  0  0
 19 20  1  0  0  0  0
 19 45  1  0  0  0  0
 19 46  1  0  0  0  0
 20 21  1  0  0  0  0
 21 22  1  0  0  0  0
 21 47  1  0  0  0  0
 21 48  1  0  0  0  0
 22 49  1  0  0  0  0
 22 50  1  0  0  0  0
 23 24  2  0  0  0  0
 24 51  1  0  0  0  0
M  CHG  1   6   1
M  END
> <s_m_source_file>
AV-unprocessed.smi

> <i_m_source_file_index>
1657

> <i_lp_mmshare_version>
43012

> <i_f3d_flags>
0

> <s_epik_input>
W0NIMl0xW0NIMl1bQ0gyXVtDSDJdW0NIMl1OMVtDSDJdW0NIMl1bTkhdQyg9TylbTkhdYzJbY0hdW2NIXWMobltjSF0yKU4zW0NIMl1bQ0gyXU9bQ0gyXVtDSDJdMw==

> <s_epik_cmdline>
J2VwaWtfcHl0aG9uJywgJy1waCcsICc3LjAnLCAnLXRuJywgJzgnLCAnLW1hJywgJzIwMCcsICctbWV0YWxfYmluZGluZycsICctaW1hZScsICc8aW5maWxlLm1hZT4nLCAnLW9tYWUnLCAnPG91dGZpbGUubWFlPic=

> <r_lp_tautomer_probability>
1

> <r_epik_Ionization_Penalty>
0.00380107

> <r_epik_Ionization_Penalty_Charging>
0.00211816

> <r_epik_Ionization_Penalty_Neutral>
0.00168291

> <r_epik_State_Penalty>
-0

> <r_epik_Charging_Adjusted_Penalty>
0.00211816

> <i_epik_Tot_Q>
1

> <i_epik_Tot_abs_Q>
1

> <r_epik_Metal_State_Penalty>
-0

> <b_epik_Metal_Only>
0

> <s_lp_Force_Field>
OPLS_2005

> <r_lp_Energy>
33.9821

> <b_lp_Chiralities_Consistent>
1

> <s_lp_Variant>
AV-unprocessed.smi:1657-1

> <Gold.Version>
5.8.1

> <Gold.Id.Protein>
6NUR|6NUR_protein|mol2

> <Gold.PLP.Fitness>
49.4312

> <Gold.PLP.PLP>
-40.9211

> <Gold.PLP.part.hbond>
-2.0000

> <Gold.PLP.part.metal>
0.0000

> <Gold.PLP.part.buried>
-3.2929

> <Gold.PLP.part.nonpolar>
-34.2155

> <Gold.PLP.part.repulsive>
0.0936

> <Gold.PLP.ligand.clash>
0.0000

> <Gold.PLP.ligand.torsion>
0.4416

> <Gold.PLP.Chemscore.Hbond>
3.0000

> <Gold.PLP.Chemscore.CHOScore>
0.0000

> <Gold.PLP.Chemscore.Metal>
0.0000

> <Gold.Chemscore.Hbonds>
donor molecule, donor type, donor heavy atom, donor atom, acceptor molecule, acceptor atom, score
      L1  H     3    25       P1  7948  1.00
      L1  H     6    52       P1  7948  2.00

> <Gold.PLP.Chemscore.Internal.Correction>
0.3934

> <Gold.Rescore>
     Score         DG    S(hbond)    S(metal)    S(lipo)     H(rot)  DE(clash)    DE(int)     intcor
     17.21     -19.09       1.92        0.00      96.87       1.62       0.02       1.85       ----

> <Gold.Chemscore.Fitness>
17.2129

> <Gold.Chemscore.DG>
-19.0867

> <Gold.Chemscore.ZeroCoef>
-5.4800

> <Gold.Chemscore.Hbond>
1.9222

> <Gold.Chemscore.Metal>
0.0000

> <Gold.Chemscore.Lipo>
96.8725

> <Gold.Chemscore.Internal_Hbond>
0.0000

> <Gold.Chemscore.DEClash>
0.0235

> <Gold.Chemscore.DEInternal>
1.8503

> <Gold.Chemscore.Rot>
1.6201

> <Gold.Chemscore.Internal.Correction>
   9.000000E+99

> <Gold.Chemscore.Hbonds>
donor molecule, donor type, donor heavy atom, donor atom, acceptor molecule, acceptor atom, score
      L1  H     3    25       P1  7948  0.65
      L1  H     6    52       P1  7948  0.45

> <Gold.Chemscore.Hbond.Weighted>
-6.4201

> <Gold.Chemscore.Metal.Weighted>
-0.0000

> <Gold.Chemscore.Lipo.Weighted>
-11.3341

> <Gold.Chemscore.Internal_Hbond.Weighted>
0.0000

> <Gold.Chemscore.DEClash.Weighted>
0.0235

> <Gold.Chemscore.DEInternal.Weighted>
1.8503

> <Gold.Chemscore.Rot.Weighted>
4.1475

> <Gold.Chemscore.Internal.Correction.Weighted>
   9.000000E+99

> <Gold.Protein.RotatedTorsions>
[ 6907 6896 6895 6894 ] final  -80.14 input  -60.11 | X-H torsion
[ 7974 7965 7964 7962 ] final   99.53 input  175.53 | X-H torsion
[ 8008 7997 7996 7995 ] final   -9.91 input   59.86 | X-H torsion
[ 10167 10162 10161 10158 ] final -173.98 input  -65.29 | X-H torsion
[ 10718 10713 10712 10709 ] final  164.86 input   66.30 | X-H torsion
[ 10763 10752 10751 10750 ] final   53.18 input  -60.55 | X-H torsion
[ 11005 11000 10999 10996 ] final  154.71 input  -57.11 | X-H torsion

> <Gold.Protein.ActiveResidues>
 VAL166  LYS551  ARG553  GLY616  TRP617  ASP618  TYR619  PRO620  LYS621  CYS622 
 ASP623  PHE694  ASN695  SER759  ASP760  ASP761  ALA762  ILE779  LEU786  VAL792 
 PHE793  MET794  SER795  GLU796  ALA797  LYS798  CYS799  TRP800  GLU811  SER814 

> <Gold.Protein.RotatedAtoms>
  150.6935  134.4015  159.5120 H   0  0  0  0  0  0  0  0  0  0  0  0  # atno 6907 bound_to 6896
  152.1788  134.8769  160.0537 H   0  0  0  0  0  0  0  0  0  0  0  0  # atno 6908 bound_to 6896
  151.9768  133.3709  159.4129 H   0  0  0  0  0  0  0  0  0  0  0  0  # atno 6909 bound_to 6896
  145.3977  139.2352  143.3317 H   0  0  0  0  0  0  0  0  0  0  0  0  # atno 7974 bound_to 7965
  154.5603  140.2343  155.8345 H   0  0  0  0  0  0  0  0  0  0  0  0  # atno 8008 bound_to 7997
  156.2024  140.3049  155.9513 H   0  0  0  0  0  0  0  0  0  0  0  0  # atno 8009 bound_to 7997
  155.2901  140.0426  157.3013 H   0  0  0  0  0  0  0  0  0  0  0  0  # atno 8010 bound_to 7997
  139.5658  144.1758  152.1310 H   0  0  0  0  0  0  0  0  0  0  0  0  # atno 10167 bound_to 10162
  157.0884  131.0411  151.2547 H   0  0  0  0  0  0  0  0  0  0  0  0  # atno 10718 bound_to 10713
  152.9793  135.5787  154.4699 H   0  0  0  0  0  0  0  0  0  0  0  0  # atno 10763 bound_to 10752
  154.4263  135.2772  155.1944 H   0  0  0  0  0  0  0  0  0  0  0  0  # atno 10764 bound_to 10752
  154.3672  135.6176  153.5775 H   0  0  0  0  0  0  0  0  0  0  0  0  # atno 10765 bound_to 10752
  140.1514  134.8672  157.2459 H   0  0  0  0  0  0  0  0  0  0  0  0  # atno 11005 bound_to 11000
  146.2767  140.4669  142.8792 LP  0  0  0  0  0  0  0  0  0  0  0  0  # atno 17320 bound_to 7965
  144.8396  140.6836  143.6238 LP  0  0  0  0  0  0  0  0  0  0  0  0  # atno 17321 bound_to 7965
  140.1281  144.5313  150.6820 LP  0  0  0  0  0  0  0  0  0  0  0  0  # atno 17342 bound_to 10162
  140.6941  143.2393  151.5048 LP  0  0  0  0  0  0  0  0  0  0  0  0  # atno 17343 bound_to 10162
  157.4742  130.7726  149.7352 LP  0  0  0  0  0  0  0  0  0  0  0  0  # atno 17370 bound_to 10713
  155.9904  130.3944  150.3027 LP  0  0  0  0  0  0  0  0  0  0  0  0  # atno 17371 bound_to 10713
  140.2600  134.3582  155.7410 LP  0  0  0  0  0  0  0  0  0  0  0  0  # atno 17394 bound_to 11000
  141.2199  133.7364  156.9066 LP  0  0  0  0  0  0  0  0  0  0  0  0  # atno 17395 bound_to 11000

$$$$
