AV-unprocessed.smi:53|AV-procd|sdf|520|dock7
  -GOLD-   2262016393D 1   1.00000     0.00000
 Structure written by MMmdl.
 30 31  0  0  0  0  0  0  0  0  1 V2000
  154.0783  140.6534  159.7929 N   0  0  0  0  0  0  0  0  0  0  0  0
  153.0828  140.3569  158.9454 C   0  0  0  0  0  0  0  0  0  0  0  0
  151.7747  140.9462  159.1208 C   0  0  0  0  0  0  0  0  0  0  0  0
  150.8229  140.5951  158.2284 C   0  0  0  0  0  0  0  0  0  0  0  0
  151.0712  139.7026  157.1946 N   0  0  0  0  0  0  0  0  0  0  0  0
  149.9907  139.3353  156.2021 C   0  0  1  0  0  0  0  0  0  0  0  0
  148.8035  139.9729  156.5743 O   0  0  0  0  0  0  0  0  0  0  0  0
  148.2209  140.6235  155.4492 C   0  0  1  0  0  0  0  0  0  0  0  0
  147.3779  141.8197  155.9178 C   0  0  0  0  0  0  0  0  0  0  0  0
  148.0862  142.5620  156.8872 O   0  0  0  0  0  0  0  0  0  0  0  0
  149.4449  141.0218  154.6234 C   0  0  2  0  0  0  0  0  0  0  0  0
  149.1362  141.3005  153.2706 O   0  0  0  0  0  0  0  0  0  0  0  0
  150.3717  139.8235  154.7948 C   0  0  2  0  0  0  0  0  0  0  0  0
  150.1433  138.8161  153.8256 O   0  0  0  0  0  0  0  0  0  0  0  0
  152.3686  139.1596  157.0350 C   0  0  0  0  0  0  0  0  0  0  0  0
  152.6457  138.3975  156.1097 O   0  0  0  0  0  0  0  0  0  0  0  0
  153.3196  139.5244  157.9502 N   0  0  0  0  0  0  0  0  0  0  0  0
  149.8426  138.2563  156.2785 H   0  0  0  0  0  0  0  0  0  0  0  0
  147.6180  139.9057  154.8892 H   0  0  0  0  0  0  0  0  0  0  0  0
  149.9147  141.9009  155.0670 H   0  0  0  0  0  0  0  0  0  0  0  0
  151.4225  140.1134  154.7479 H   0  0  0  0  0  0  0  0  0  0  0  0
  154.9920  140.2428  159.6660 H   0  0  0  0  0  0  0  0  0  0  0  0
  153.9124  141.2928  160.5566 H   0  0  0  0  0  0  0  0  0  0  0  0
  151.5359  141.6381  159.9159 H   0  0  0  0  0  0  0  0  0  0  0  0
  149.8432  141.0358  158.3401 H   0  0  0  0  0  0  0  0  0  0  0  0
  147.0941  142.4585  155.0808 H   0  0  0  0  0  0  0  0  0  0  0  0
  146.4569  141.4695  156.3847 H   0  0  0  0  0  0  0  0  0  0  0  0
  148.5144  143.2868  156.4576 H   0  0  0  0  0  0  0  0  0  0  0  0
  149.1913  140.4952  152.7786 H   0  0  0  0  0  0  0  0  0  0  0  0
  150.0183  139.2315  152.9860 H   0  0  0  0  0  0  0  0  0  0  0  0
  1  2  1  0  0  0  0
  1 22  1  0  0  0  0
  1 23  1  0  0  0  0
  2 17  2  0  0  0  0
  2  3  1  0  0  0  0
  3  4  2  0  0  0  0
  3 24  1  0  0  0  0
  4  5  1  0  0  0  0
  4 25  1  0  0  0  0
  5  6  1  0  0  0  0
  5 15  1  0  0  0  0
  6 18  1  0  0  0  0
  6 13  1  0  0  0  0
  6  7  1  0  0  0  0
  7  8  1  0  0  0  0
  8 19  1  0  0  0  0
  8  9  1  0  0  0  0
  8 11  1  0  0  0  0
  9 10  1  0  0  0  0
  9 26  1  0  0  0  0
  9 27  1  0  0  0  0
 10 28  1  0  0  0  0
 11 20  1  0  0  0  0
 11 12  1  0  0  0  0
 11 13  1  0  0  0  0
 12 29  1  0  0  0  0
 13 21  1  0  0  0  0
 13 14  1  0  0  0  0
 14 30  1  0  0  0  0
 15 16  2  0  0  0  0
 15 17  1  0  0  0  0
M  END
> <s_m_source_file>
AV-unprocessed.smi

> <i_m_source_file_index>
53

> <i_lp_mmshare_version>
43012

> <i_f3d_flags>
0

> <s_epik_input>
W05IMl1jMVtjSF1bY0hdbihjKD1PKW4xKVtDQEBIXTJPW0NASF0oW0NIMl1bT0hdKVtDQEBIXShbT0hdKVtDQEBIXTJbT0hd

> <s_epik_cmdline>
J2VwaWtfcHl0aG9uJywgJy1waCcsICc3LjAnLCAnLXRuJywgJzgnLCAnLW1hJywgJzIwMCcsICctbWV0YWxfYmluZGluZycsICctaW1hZScsICc8aW5maWxlLm1hZT4nLCAnLW9tYWUnLCAnPG91dGZpbGUubWFlPic=

> <r_lp_tautomer_probability>
0.99996

> <r_epik_Ionization_Penalty>
0.00069087

> <r_epik_Ionization_Penalty_Charging>
2.61959e-08

> <r_epik_Ionization_Penalty_Neutral>
0.000690844

> <r_epik_State_Penalty>
1.15523e-05

> <r_epik_Charging_Adjusted_Penalty>
1.15785e-05

> <i_epik_Tot_Q>
0

> <i_epik_Tot_abs_Q>
0

> <r_epik_Metal_State_Penalty>
-0

> <b_epik_Metal_Only>
0

> <s_epik_Chemistry_Notes>
This compound contains an acetal/aminal-like group ( X-CH(R)-Y where X, Y are N, S, or O) that may be acid/base labile, releasing an aldehyde.

> <s_lp_Force_Field>
OPLS_2005

> <r_lp_Energy>
33.3856

> <b_lp_Chiralities_Consistent>
1

> <s_lp_Variant>
AV-unprocessed.smi:53-8

> <Gold.Version>
5.8.1

> <Gold.Id.Protein>
6NUR|6NUR_protein|mol2

> <Gold.PLP.Fitness>
36.4803

> <Gold.PLP.PLP>
-22.1572

> <Gold.PLP.part.hbond>
-6.3548

> <Gold.PLP.part.metal>
0.0000

> <Gold.PLP.part.buried>
0.7110

> <Gold.PLP.part.nonpolar>
-14.4249

> <Gold.PLP.part.repulsive>
0.0702

> <Gold.PLP.ligand.clash>
0.0000

> <Gold.PLP.ligand.torsion>
0.0948

> <Gold.PLP.Chemscore.Hbond>
4.8320

> <Gold.PLP.Chemscore.CHOScore>
0.0000

> <Gold.PLP.Chemscore.Metal>
0.0000

> <Gold.Chemscore.Hbonds>
donor molecule, donor type, donor heavy atom, donor atom, acceptor molecule, acceptor atom, score
      L1  H    10    28       P1  8028  1.00
      L1  H    12    29       P1  7957  0.72
      L1  H    14    30       P1  7957  1.00
      P1  H  7997  8010       L1    17  0.99
      P1  H  8011  8017       L1    12  1.00

> <Gold.PLP.Chemscore.Internal.Correction>
0.0166

> <Gold.Rescore>
     Score         DG    S(hbond)    S(metal)    S(lipo)     H(rot)  DE(clash)    DE(int)     intcor
     11.66     -12.14       3.66        0.00      33.73       3.71       0.28       0.19       ----

> <Gold.Chemscore.Fitness>
11.6648

> <Gold.Chemscore.DG>
-12.1418

> <Gold.Chemscore.ZeroCoef>
-5.4800

> <Gold.Chemscore.Hbond>
3.6564

> <Gold.Chemscore.Metal>
0.0000

> <Gold.Chemscore.Lipo>
33.7260

> <Gold.Chemscore.Internal_Hbond>
0.0000

> <Gold.Chemscore.DEClash>
0.2837

> <Gold.Chemscore.DEInternal>
0.1934

> <Gold.Chemscore.Rot>
3.7095

> <Gold.Chemscore.Internal.Correction>
   9.000000E+99

> <Gold.Chemscore.Hbonds>
donor molecule, donor type, donor heavy atom, donor atom, acceptor molecule, acceptor atom, score
      L1  H    10    28       P1  8028  0.70
      L1  H    12    29       P1  7957  0.72
      L1  H    14    30       P1  7957  0.88
      P1  H  7997  8010       L1    17  0.51
      P1  H  8011  8017       L1    12  0.47

> <Gold.Chemscore.Hbond.Weighted>
-12.2123

> <Gold.Chemscore.Metal.Weighted>
-0.0000

> <Gold.Chemscore.Lipo.Weighted>
-3.9459

> <Gold.Chemscore.Internal_Hbond.Weighted>
0.0000

> <Gold.Chemscore.DEClash.Weighted>
0.2837

> <Gold.Chemscore.DEInternal.Weighted>
0.1934

> <Gold.Chemscore.Rot.Weighted>
9.4964

> <Gold.Chemscore.Internal.Correction.Weighted>
   9.000000E+99

> <Gold.Protein.RotatedTorsions>
[ 6907 6896 6895 6894 ] final  170.06 input  -60.11 | X-H torsion
[ 7974 7965 7964 7962 ] final  -23.11 input  175.53 | X-H torsion
[ 8008 7997 7996 7995 ] final   17.99 input   59.86 | X-H torsion
[ 10167 10162 10161 10158 ] final  161.20 input  -65.29 | X-H torsion
[ 10718 10713 10712 10709 ] final   78.61 input   66.30 | X-H torsion
[ 10763 10752 10751 10750 ] final -147.50 input  -60.55 | X-H torsion
[ 11005 11000 10999 10996 ] final  -18.76 input  -57.11 | X-H torsion

> <Gold.Protein.ActiveResidues>
 VAL166  LYS551  ARG553  GLY616  TRP617  ASP618  TYR619  PRO620  LYS621  CYS622 
 ASP623  PHE694  ASN695  SER759  ASP760  ASP761  ALA762  ILE779  LEU786  VAL792 
 PHE793  MET794  SER795  GLU796  ALA797  LYS798  CYS799  TRP800  GLU811  SER814 

> <Gold.Protein.RotatedAtoms>
  151.8221  133.3396  159.3587 H   0  0  0  0  0  0  0  0  0  0  0  0  # atno 6907 bound_to 6896
  150.7291  134.5564  159.5829 H   0  0  0  0  0  0  0  0  0  0  0  0  # atno 6908 bound_to 6896
  152.2998  134.7625  160.0411 H   0  0  0  0  0  0  0  0  0  0  0  0  # atno 6909 bound_to 6896
  146.1636  140.4571  142.8561 H   0  0  0  0  0  0  0  0  0  0  0  0  # atno 7974 bound_to 7965
  154.8994  140.2998  155.5326 H   0  0  0  0  0  0  0  0  0  0  0  0  # atno 8008 bound_to 7997
  156.3019  140.2409  156.3955 H   0  0  0  0  0  0  0  0  0  0  0  0  # atno 8009 bound_to 7997
  154.8537  140.0408  157.1609 H   0  0  0  0  0  0  0  0  0  0  0  0  # atno 8010 bound_to 7997
  139.4847  144.4559  151.8768 H   0  0  0  0  0  0  0  0  0  0  0  0  # atno 10167 bound_to 10162
  157.6750  130.9876  150.1811 H   0  0  0  0  0  0  0  0  0  0  0  0  # atno 10718 bound_to 10713
  154.8282  135.3358  154.6828 H   0  0  0  0  0  0  0  0  0  0  0  0  # atno 10763 bound_to 10752
  153.7451  135.6943  153.4962 H   0  0  0  0  0  0  0  0  0  0  0  0  # atno 10764 bound_to 10752
  153.2216  135.4447  155.0446 H   0  0  0  0  0  0  0  0  0  0  0  0  # atno 10765 bound_to 10752
  140.8299  133.8004  155.9748 H   0  0  0  0  0  0  0  0  0  0  0  0  # atno 11005 bound_to 11000
  144.8061  140.6301  143.6446 LP  0  0  0  0  0  0  0  0  0  0  0  0  # atno 17320 bound_to 7965
  145.4526  139.1522  143.3910 LP  0  0  0  0  0  0  0  0  0  0  0  0  # atno 17321 bound_to 7965
  140.4019  144.2482  150.5892 LP  0  0  0  0  0  0  0  0  0  0  0  0  # atno 17342 bound_to 10162
  140.5049  143.2307  151.8623 LP  0  0  0  0  0  0  0  0  0  0  0  0  # atno 17343 bound_to 10162
  156.2543  130.3704  149.8198 LP  0  0  0  0  0  0  0  0  0  0  0  0  # atno 17370 bound_to 10713
  156.5962  130.8527  151.3420 LP  0  0  0  0  0  0  0  0  0  0  0  0  # atno 17371 bound_to 10713
  140.9009  134.2380  157.5042 LP  0  0  0  0  0  0  0  0  0  0  0  0  # atno 17394 bound_to 11000
  139.8705  134.9706  156.4706 LP  0  0  0  0  0  0  0  0  0  0  0  0  # atno 17395 bound_to 11000

$$$$
