AV-unprocessed.smi:3040|AV-procd|sdf|11595|dock10
  -GOLD-   2272016573D 1   1.00000     0.00000
 Structure written by MMmdl.
 39 40  0  0  0  0  0  0  0  0  1 V2000
  153.4080  141.9439  161.2093 C   0  0  0  0  0  0  0  0  0  0  0  0
  152.5723  142.8927  160.4716 N   0  0  0  0  0  0  0  0  0  0  0  0
  152.3138  142.5291  159.0732 C   0  0  0  0  0  0  0  0  0  0  0  0
  151.8838  143.7240  158.2119 C   0  0  0  0  0  0  0  0  0  0  0  0
  150.7618  144.5296  158.8828 C   0  0  1  0  0  0  0  0  0  0  0  0
  149.4165  143.7842  158.8598 C   0  0  0  0  0  0  0  0  0  0  0  0
  148.6804  143.7964  159.8472 O   0  0  0  0  0  0  0  0  0  0  0  0
  149.1203  143.1198  157.7308 N   0  0  0  0  0  0  0  0  0  0  0  0
  147.9653  142.2439  157.5422 C   0  0  0  0  0  0  0  0  0  0  0  0
  147.8600  141.7277  156.0931 C   0  0  0  0  0  0  0  0  0  0  0  0
  149.0733  140.9486  155.6558 C   0  0  0  0  0  0  0  0  0  0  0  0
  149.3171  140.3429  154.3900 C   0  0  0  0  0  0  0  0  0  0  0  0
  150.4697  139.6949  154.3430 N   0  0  0  0  0  0  0  0  0  0  0  0
  151.0010  139.8656  155.5706 N   0  0  0  0  0  0  0  0  0  0  0  0
  152.2803  139.2664  155.8844 C   0  0  0  0  0  0  0  0  0  0  0  0
  150.1863  140.6265  156.3802 C   0  0  0  0  0  0  0  0  0  0  0  0
  151.1707  144.9709  160.3074 C   0  0  0  0  0  0  0  0  0  0  0  0
  152.0576  143.9831  161.0910 C   0  0  0  0  0  0  0  0  0  0  0  0
  152.2841  144.2333  162.2753 O   0  0  0  0  0  0  0  0  0  0  0  0
  152.9297  141.6426  162.1426 H   0  0  0  0  0  0  0  0  0  0  0  0
  154.3720  142.3943  161.4487 H   0  0  0  0  0  0  0  0  0  0  0  0
  153.5972  141.0335  160.6390 H   0  0  0  0  0  0  0  0  0  0  0  0
  153.2046  142.0810  158.6310 H   0  0  0  0  0  0  0  0  0  0  0  0
  151.5436  141.7573  159.0599 H   0  0  0  0  0  0  0  0  0  0  0  0
  152.7424  144.3770  158.0493 H   0  0  0  0  0  0  0  0  0  0  0  0
  151.5765  143.3798  157.2238 H   0  0  0  0  0  0  0  0  0  0  0  0
  150.6206  145.4393  158.2965 H   0  0  0  0  0  0  0  0  0  0  0  0
  149.7774  143.1742  156.9661 H   0  0  0  0  0  0  0  0  0  0  0  0
  148.0041  141.4007  158.2339 H   0  0  0  0  0  0  0  0  0  0  0  0
  147.0649  142.8024  157.7989 H   0  0  0  0  0  0  0  0  0  0  0  0
  146.9618  141.1165  156.0017 H   0  0  0  0  0  0  0  0  0  0  0  0
  147.6998  142.5784  155.4298 H   0  0  0  0  0  0  0  0  0  0  0  0
  148.6855  140.3427  153.5140 H   0  0  0  0  0  0  0  0  0  0  0  0
  152.4811  139.3534  156.9526 H   0  0  0  0  0  0  0  0  0  0  0  0
  153.0700  139.7750  155.3308 H   0  0  0  0  0  0  0  0  0  0  0  0
  152.2724  138.2103  155.6117 H   0  0  0  0  0  0  0  0  0  0  0  0
  150.4537  140.8590  157.4004 H   0  0  0  0  0  0  0  0  0  0  0  0
  151.7330  145.9023  160.2329 H   0  0  0  0  0  0  0  0  0  0  0  0
  150.2914  145.2088  160.9089 H   0  0  0  0  0  0  0  0  0  0  0  0
  1  2  1  0  0  0  0
  1 20  1  0  0  0  0
  1 21  1  0  0  0  0
  1 22  1  0  0  0  0
  2 18  1  0  0  0  0
  2  3  1  0  0  0  0
  3  4  1  0  0  0  0
  3 23  1  0  0  0  0
  3 24  1  0  0  0  0
  4  5  1  0  0  0  0
  4 25  1  0  0  0  0
  4 26  1  0  0  0  0
  5  6  1  0  0  0  0
  5 17  1  0  0  0  0
  5 27  1  0  0  0  0
  6  7  2  0  0  0  0
  6  8  1  0  0  0  0
  8  9  1  0  0  0  0
  8 28  1  0  0  0  0
  9 10  1  0  0  0  0
  9 29  1  0  0  0  0
  9 30  1  0  0  0  0
 10 11  1  0  0  0  0
 10 31  1  0  0  0  0
 10 32  1  0  0  0  0
 11 16  2  0  0  0  0
 11 12  1  0  0  0  0
 12 13  2  0  0  0  0
 12 33  1  0  0  0  0
 13 14  1  0  0  0  0
 14 15  1  0  0  0  0
 14 16  1  0  0  0  0
 15 34  1  0  0  0  0
 15 35  1  0  0  0  0
 15 36  1  0  0  0  0
 16 37  1  0  0  0  0
 17 18  1  0  0  0  0
 17 38  1  0  0  0  0
 17 39  1  0  0  0  0
 18 19  2  0  0  0  0
M  END
> <s_m_source_file>
AV-unprocessed.smi

> <i_m_source_file_index>
3040

> <i_lp_mmshare_version>
43012

> <i_f3d_flags>
0

> <s_epik_input>
W0NIM11OMVtDSDJdW0NIMl1bQ0BIXShbQ0gyXUMxPU8pQyg9TylbTkhdW0NIMl1bQ0gyXWMyW2NIXW5uKFtDSDNdKVtjSF0y

> <s_epik_cmdline>
J2VwaWtfcHl0aG9uJywgJy1waCcsICc3LjAnLCAnLXRuJywgJzgnLCAnLW1hJywgJzIwMCcsICctbWV0YWxfYmluZGluZycsICctaW1hZScsICc8aW5maWxlLm1hZT4nLCAnLW9tYWUnLCAnPG91dGZpbGUubWFlPic=

> <r_lp_tautomer_probability>
1

> <r_epik_Ionization_Penalty>
0.000456436

> <r_epik_Ionization_Penalty_Charging>
0

> <r_epik_Ionization_Penalty_Neutral>
0.000456436

> <r_epik_State_Penalty>
-0

> <r_epik_Charging_Adjusted_Penalty>
0

> <i_epik_Tot_Q>
0

> <i_epik_Tot_abs_Q>
0

> <r_epik_Metal_State_Penalty>
-0

> <b_epik_Metal_Only>
0

> <s_lp_Force_Field>
OPLS_2005

> <r_lp_Energy>
8.58968

> <b_lp_Chiralities_Consistent>
1

> <s_lp_Variant>
AV-unprocessed.smi:3040-1

> <Gold.Version>
5.8.1

> <Gold.Id.Protein>
6NUR|6NUR_protein|mol2

> <Gold.PLP.Fitness>
48.7203

> <Gold.PLP.PLP>
-42.2930

> <Gold.PLP.part.hbond>
-3.1533

> <Gold.PLP.part.metal>
0.0000

> <Gold.PLP.part.buried>
-2.5492

> <Gold.PLP.part.nonpolar>
-37.2396

> <Gold.PLP.part.repulsive>
0.5132

> <Gold.PLP.ligand.clash>
0.0000

> <Gold.PLP.ligand.torsion>
0.4371

> <Gold.PLP.Chemscore.Hbond>
1.4943

> <Gold.PLP.Chemscore.CHOScore>
0.9254

> <Gold.PLP.Chemscore.Metal>
0.0000

> <Gold.Chemscore.Hbonds>
donor molecule, donor type, donor heavy atom, donor atom, acceptor molecule, acceptor atom, score
      L1  H     8    28       P1  8028  0.03
      P1  H  6933  6944       L1     7  0.51
      P1  H  7989  7998       L1    13  0.80
      L1  C    12    33       P1  7957  0.82

> <Gold.PLP.Chemscore.Internal.Correction>
0.0423

> <Gold.Rescore>
     Score         DG    S(hbond)    S(metal)    S(lipo)     H(rot)  DE(clash)    DE(int)     intcor
     12.36     -13.14       0.55        0.00      86.00       1.65       0.51       0.26       ----

> <Gold.Chemscore.Fitness>
12.3627

> <Gold.Chemscore.DG>
-13.1382

> <Gold.Chemscore.ZeroCoef>
-5.4800

> <Gold.Chemscore.Hbond>
0.5478

> <Gold.Chemscore.Metal>
0.0000

> <Gold.Chemscore.Lipo>
85.9989

> <Gold.Chemscore.Internal_Hbond>
0.0000

> <Gold.Chemscore.DEClash>
0.5145

> <Gold.Chemscore.DEInternal>
0.2610

> <Gold.Chemscore.Rot>
1.6536

> <Gold.Chemscore.Internal.Correction>
   9.000000E+99

> <Gold.Chemscore.Hbonds>
donor molecule, donor type, donor heavy atom, donor atom, acceptor molecule, acceptor atom, score
      L1  H     8    28       P1  8028  0.05
      P1  H  6933  6944       L1     7  0.51
      P1  H  7989  7998       L1    13  0.05

> <Gold.Chemscore.Hbond.Weighted>
-1.8295

> <Gold.Chemscore.Metal.Weighted>
-0.0000

> <Gold.Chemscore.Lipo.Weighted>
-10.0619

> <Gold.Chemscore.Internal_Hbond.Weighted>
0.0000

> <Gold.Chemscore.DEClash.Weighted>
0.5145

> <Gold.Chemscore.DEInternal.Weighted>
0.2610

> <Gold.Chemscore.Rot.Weighted>
4.2332

> <Gold.Chemscore.Internal.Correction.Weighted>
   9.000000E+99

> <Gold.Protein.RotatedTorsions>
[ 6907 6896 6895 6894 ] final  -80.95 input  -60.11 | X-H torsion
[ 7974 7965 7964 7962 ] final   58.46 input  175.53 | X-H torsion
[ 8008 7997 7996 7995 ] final   59.94 input   59.86 | X-H torsion
[ 10167 10162 10161 10158 ] final   32.49 input  -65.29 | X-H torsion
[ 10718 10713 10712 10709 ] final   20.84 input   66.30 | X-H torsion
[ 10763 10752 10751 10750 ] final   26.37 input  -60.55 | X-H torsion
[ 11005 11000 10999 10996 ] final   -8.35 input  -57.11 | X-H torsion

> <Gold.Protein.ActiveResidues>
 VAL166  LYS551  ARG553  GLY616  TRP617  ASP618  TYR619  PRO620  LYS621  CYS622 
 ASP623  PHE694  ASN695  SER759  ASP760  ASP761  ALA762  ILE779  LEU786  VAL792 
 PHE793  MET794  SER795  GLU796  ALA797  LYS798  CYS799  TRP800  GLU811  SER814 

> <Gold.Protein.RotatedAtoms>
  150.6920  134.3892  159.5068 H   0  0  0  0  0  0  0  0  0  0  0  0  # atno 6907 bound_to 6896
  152.1683  134.8853  160.0545 H   0  0  0  0  0  0  0  0  0  0  0  0  # atno 6908 bound_to 6896
  151.9889  133.3749  159.4173 H   0  0  0  0  0  0  0  0  0  0  0  0  # atno 6909 bound_to 6896
  145.9180  139.3706  143.0496 H   0  0  0  0  0  0  0  0  0  0  0  0  # atno 7974 bound_to 7965
  155.5742  140.3490  155.4523 H   0  0  0  0  0  0  0  0  0  0  0  0  # atno 8008 bound_to 7997
  156.0421  140.1298  157.0169 H   0  0  0  0  0  0  0  0  0  0  0  0  # atno 8009 bound_to 7997
  154.4396  140.1022  156.6238 H   0  0  0  0  0  0  0  0  0  0  0  0  # atno 8010 bound_to 7997
  140.4493  144.1071  150.6188 H   0  0  0  0  0  0  0  0  0  0  0  0  # atno 10167 bound_to 10162
  157.1301  130.6587  149.5949 H   0  0  0  0  0  0  0  0  0  0  0  0  # atno 10718 bound_to 10713
  153.0627  135.6562  154.0425 H   0  0  0  0  0  0  0  0  0  0  0  0  # atno 10763 bound_to 10752
  154.0089  135.2930  155.3396 H   0  0  0  0  0  0  0  0  0  0  0  0  # atno 10764 bound_to 10752
  154.6972  135.5259  153.8544 H   0  0  0  0  0  0  0  0  0  0  0  0  # atno 10765 bound_to 10752
  140.7225  133.8816  155.8831 H   0  0  0  0  0  0  0  0  0  0  0  0  # atno 11005 bound_to 11000
  145.8587  140.9487  143.0711 LP  0  0  0  0  0  0  0  0  0  0  0  0  # atno 17320 bound_to 7965
  144.6750  140.0502  143.7479 LP  0  0  0  0  0  0  0  0  0  0  0  0  # atno 17321 bound_to 7965
  140.4226  143.2605  151.9697 LP  0  0  0  0  0  0  0  0  0  0  0  0  # atno 17342 bound_to 10162
  139.4795  144.5817  151.7921 LP  0  0  0  0  0  0  0  0  0  0  0  0  # atno 17343 bound_to 10162
  155.9810  130.4814  150.6802 LP  0  0  0  0  0  0  0  0  0  0  0  0  # atno 17370 bound_to 10713
  157.4400  131.0860  151.0953 LP  0  0  0  0  0  0  0  0  0  0  0  0  # atno 17371 bound_to 10713
  140.9991  134.1175  157.4335 LP  0  0  0  0  0  0  0  0  0  0  0  0  # atno 17394 bound_to 11000
  139.8845  135.0063  156.6371 LP  0  0  0  0  0  0  0  0  0  0  0  0  # atno 17395 bound_to 11000

$$$$
