AV-unprocessed.smi:34|AV-procd|sdf|244|dock6
  -GOLD-   2262016 03D 1   1.00000     0.00000
 Structure written by MMmdl.
 54 58  0  0  0  0  0  0  0  0  2 V2000
  154.3738  140.6687  162.1431 O   0  0  0  0  0  0  0  0  0  0  0  0
  153.9953  140.9256  160.9982 C   0  0  0  0  0  0  0  0  0  0  0  0
  154.2304  140.2150  159.8658 N   0  5  0  0  0  0  0  0  0  0  0  0
  154.1601  138.8751  159.8876 C   0  0  0  0  0  0  0  0  0  0  0  0
  153.5475  138.2412  160.9201 N   0  0  0  0  0  0  0  0  0  0  0  0
  153.4778  136.9050  160.9491 C   0  0  0  0  0  0  0  0  0  0  0  0
  153.9479  136.0190  160.0653 N   0  0  0  0  0  0  0  0  0  0  0  0
  154.5716  136.6456  159.0257 C   0  0  0  0  0  0  0  0  0  0  0  0
  154.7227  138.0535  158.8712 C   0  0  0  0  0  0  0  0  0  0  0  0
  155.4119  138.3458  157.7031 N   0  0  0  0  0  0  0  0  0  0  0  0
  155.6319  137.1295  157.2071 C   0  0  0  0  0  0  0  0  0  0  0  0
  155.1759  136.0774  157.9189 N   0  0  0  0  0  0  0  0  0  0  0  0
  155.2552  134.6150  157.6202 C   0  0  1  0  0  0  0  0  0  0  0  0
  155.9992  134.4438  156.4455 O   0  0  0  0  0  0  0  0  0  0  0  0
  157.2080  133.7324  156.7070 C   0  0  1  0  0  0  0  0  0  0  0  0
  158.3810  134.7121  156.8688 C   0  0  0  0  0  0  0  0  0  0  0  0
  158.8113  135.1336  155.5846 O   0  0  0  0  0  0  0  0  0  0  0  0
  159.6797  134.3826  154.8804 C   0  0  0  0  0  0  0  0  0  0  0  0
  160.3726  133.4932  155.3785 O   0  0  0  0  0  0  0  0  0  0  0  0
  159.7141  134.7412  153.4330 C   0  0  0  0  0  0  0  0  0  0  0  0
  158.7788  135.6741  152.9271 C   0  0  0  0  0  0  0  0  0  0  0  0
  158.7857  136.0300  151.5644 C   0  0  0  0  0  0  0  0  0  0  0  0
  159.7275  135.4567  150.6902 C   0  0  0  0  0  0  0  0  0  0  0  0
  160.6628  134.5271  151.1808 C   0  0  0  0  0  0  0  0  0  0  0  0
  160.6581  134.1707  152.5436 C   0  0  0  0  0  0  0  0  0  0  0  0
  156.8912  132.9320  157.9684 C   0  0  2  0  0  0  0  0  0  0  0  0
  156.2159  131.8420  157.5935 F   0  0  0  0  0  0  0  0  0  0  0  0
  156.0016  133.8878  158.7476 C   0  0  2  0  0  0  0  0  0  0  0  0
  155.1516  133.1787  159.6262 O   0  0  0  0  0  0  0  0  0  0  0  0
  153.2296  142.1997  160.7566 C   0  0  0  0  0  0  0  0  0  0  0  0
  152.7023  142.9183  161.8541 C   0  0  0  0  0  0  0  0  0  0  0  0
  151.9584  144.0968  161.6496 C   0  0  0  0  0  0  0  0  0  0  0  0
  151.7273  144.5666  160.3434 C   0  0  0  0  0  0  0  0  0  0  0  0
  152.2366  143.8544  159.2419 C   0  0  0  0  0  0  0  0  0  0  0  0
  152.9784  142.6744  159.4457 C   0  0  0  0  0  0  0  0  0  0  0  0
  152.9708  136.4848  161.8050 H   0  0  0  0  0  0  0  0  0  0  0  0
  156.1503  137.0029  156.2688 H   0  0  0  0  0  0  0  0  0  0  0  0
  154.2237  134.2914  157.4728 H   0  0  0  0  0  0  0  0  0  0  0  0
  157.4147  133.0725  155.8631 H   0  0  0  0  0  0  0  0  0  0  0  0
  158.0541  135.5857  157.4340 H   0  0  0  0  0  0  0  0  0  0  0  0
  159.2040  134.2545  157.4189 H   0  0  0  0  0  0  0  0  0  0  0  0
  158.0460  136.1273  153.5792 H   0  0  0  0  0  0  0  0  0  0  0  0
  158.0669  136.7438  151.1895 H   0  0  0  0  0  0  0  0  0  0  0  0
  159.7323  135.7289  149.6450 H   0  0  0  0  0  0  0  0  0  0  0  0
  161.3860  134.0856  150.5109 H   0  0  0  0  0  0  0  0  0  0  0  0
  161.3894  133.4533  152.8862 H   0  0  0  0  0  0  0  0  0  0  0  0
  157.7727  132.6030  158.5200 H   0  0  0  0  0  0  0  0  0  0  0  0
  156.6137  134.5973  159.3070 H   0  0  0  0  0  0  0  0  0  0  0  0
  154.2582  133.3044  159.3432 H   0  0  0  0  0  0  0  0  0  0  0  0
  152.8684  142.5707  162.8634 H   0  0  0  0  0  0  0  0  0  0  0  0
  151.5637  144.6388  162.4959 H   0  0  0  0  0  0  0  0  0  0  0  0
  151.1566  145.4697  160.1863 H   0  0  0  0  0  0  0  0  0  0  0  0
  152.0553  144.2101  158.2386 H   0  0  0  0  0  0  0  0  0  0  0  0
  153.3486  142.1369  158.5847 H   0  0  0  0  0  0  0  0  0  0  0  0
  1  2  2  0  0  0  0
  2  3  1  0  0  0  0
  2 30  1  0  0  0  0
  3  4  1  0  0  0  0
  4  9  1  0  0  0  0
  4  5  2  0  0  0  0
  5  6  1  0  0  0  0
  6  7  2  0  0  0  0
  6 36  1  0  0  0  0
  7  8  1  0  0  0  0
  8 12  1  0  0  0  0
  8  9  2  0  0  0  0
  9 10  1  0  0  0  0
 10 11  2  0  0  0  0
 11 12  1  0  0  0  0
 11 37  1  0  0  0  0
 12 13  1  0  0  0  0
 13 28  1  0  0  0  0
 13 14  1  0  0  0  0
 13 38  1  0  0  0  0
 14 15  1  0  0  0  0
 15 16  1  0  0  0  0
 15 26  1  0  0  0  0
 15 39  1  0  0  0  0
 16 17  1  0  0  0  0
 16 40  1  0  0  0  0
 16 41  1  0  0  0  0
 17 18  1  0  0  0  0
 18 19  2  0  0  0  0
 18 20  1  0  0  0  0
 20 25  1  0  0  0  0
 20 21  2  0  0  0  0
 21 22  1  0  0  0  0
 21 42  1  0  0  0  0
 22 23  2  0  0  0  0
 22 43  1  0  0  0  0
 23 24  1  0  0  0  0
 23 44  1  0  0  0  0
 24 25  2  0  0  0  0
 24 45  1  0  0  0  0
 25 46  1  0  0  0  0
 26 27  1  0  0  0  0
 26 28  1  0  0  0  0
 26 47  1  0  0  0  0
 28 29  1  0  0  0  0
 28 48  1  0  0  0  0
 29 49  1  0  0  0  0
 30 35  1  0  0  0  0
 30 31  2  0  0  0  0
 31 32  1  0  0  0  0
 31 50  1  0  0  0  0
 32 33  2  0  0  0  0
 32 51  1  0  0  0  0
 33 34  1  0  0  0  0
 33 52  1  0  0  0  0
 34 35  2  0  0  0  0
 34 53  1  0  0  0  0
 35 54  1  0  0  0  0
M  CHG  1   3  -1
M  END
> <s_m_source_file>
AV-unprocessed.smi

> <i_m_source_file_index>
34

> <i_lp_mmshare_version>
43012

> <i_f3d_flags>
0

> <s_epik_input>
W2NIXTFbY0hdW2NIXVtjSF1bY0hdYzFDKD1PKVtOSF1jKG5bY0hdbjIpYyhjMjMpbltjSF1uM1tDQEBIXTRPW0NASF0oW0NAQEhdKEYpW0NASF00W09IXSlbQ0gyXU9DKD1PKWM1W2NIXVtjSF1bY0hdW2NIXVtjSF01

> <s_epik_cmdline>
J2VwaWtfcHl0aG9uJywgJy1waCcsICc3LjAnLCAnLXRuJywgJzgnLCAnLW1hJywgJzIwMCcsICctbWV0YWxfYmluZGluZycsICctaW1hZScsICc8aW5maWxlLm1hZT4nLCAnLW9tYWUnLCAnPG91dGZpbGUubWFlPic=

> <r_lp_tautomer_probability>
1

> <r_epik_Ionization_Penalty>
4.33227

> <r_epik_Ionization_Penalty_Charging>
3.41027

> <r_epik_Ionization_Penalty_Neutral>
0.922001

> <r_epik_State_Penalty>
3.41358

> <r_epik_Charging_Adjusted_Penalty>
6.82385

> <i_epik_Tot_Q>
-1

> <i_epik_Tot_abs_Q>
1

> <r_epik_Metal_State_Penalty>
0.496292

> <b_epik_Metal_Only>
1

> <s_epik_Chemistry_Notes>
This compound has an ester and may undergo hydrolysis at high or low pH. This compound contains an acetal/aminal-like group ( X-CH(R)-Y where X, Y are N, S, or O) that may be acid/base labile, releasing an aldehyde.

> <s_lp_Force_Field>
OPLS_2005

> <r_lp_Energy>
49.0999

> <b_lp_Chiralities_Consistent>
1

> <s_lp_Variant>
AV-unprocessed.smi:34-30

> <Gold.Version>
5.8.1

> <Gold.Id.Protein>
6NUR|6NUR_protein|mol2

> <Gold.PLP.Fitness>
59.3593

> <Gold.PLP.PLP>
-53.3901

> <Gold.PLP.part.hbond>
-2.6103

> <Gold.PLP.part.metal>
0.0000

> <Gold.PLP.part.buried>
-7.5113

> <Gold.PLP.part.nonpolar>
-44.5861

> <Gold.PLP.part.repulsive>
0.1083

> <Gold.PLP.ligand.clash>
0.0000

> <Gold.PLP.ligand.torsion>
0.9666

> <Gold.PLP.Chemscore.Hbond>
2.5103

> <Gold.PLP.Chemscore.CHOScore>
0.0000

> <Gold.PLP.Chemscore.Metal>
0.0000

> <Gold.Chemscore.Hbonds>
donor molecule, donor type, donor heavy atom, donor atom, acceptor molecule, acceptor atom, score
      P1  H  6896  6909       L1     7  1.00
      P1  H  7997  8008       L1    10  0.62
      P1  H 10752 10765       L1    14  0.83

> <Gold.PLP.Chemscore.Internal.Correction>
0.3717

> <Gold.Rescore>
     Score         DG    S(hbond)    S(metal)    S(lipo)     H(rot)  DE(clash)    DE(int)     intcor
     20.54     -23.18       2.31        0.00     144.41       2.69       0.36       2.28       ----

> <Gold.Chemscore.Fitness>
20.5409

> <Gold.Chemscore.DG>
-23.1789

> <Gold.Chemscore.ZeroCoef>
-5.4800

> <Gold.Chemscore.Hbond>
2.3054

> <Gold.Chemscore.Metal>
0.0000

> <Gold.Chemscore.Lipo>
144.4143

> <Gold.Chemscore.Internal_Hbond>
0.0000

> <Gold.Chemscore.DEClash>
0.3611

> <Gold.Chemscore.DEInternal>
2.2769

> <Gold.Chemscore.Rot>
2.6944

> <Gold.Chemscore.Internal.Correction>
   9.000000E+99

> <Gold.Chemscore.Hbonds>
donor molecule, donor type, donor heavy atom, donor atom, acceptor molecule, acceptor atom, score
      P1  H  6896  6909       L1     7  0.25
      P1  H  7997  8008       L1    10  0.53
      P1  H 10752 10765       L1    14  0.23

> <Gold.Chemscore.Hbond.Weighted>
-7.7000

> <Gold.Chemscore.Metal.Weighted>
-0.0000

> <Gold.Chemscore.Lipo.Weighted>
-16.8965

> <Gold.Chemscore.Internal_Hbond.Weighted>
0.0000

> <Gold.Chemscore.DEClash.Weighted>
0.3611

> <Gold.Chemscore.DEInternal.Weighted>
2.2769

> <Gold.Chemscore.Rot.Weighted>
6.8975

> <Gold.Chemscore.Internal.Correction.Weighted>
   9.000000E+99

> <Gold.Protein.RotatedTorsions>
[ 6907 6896 6895 6894 ] final  175.85 input  -60.11 | X-H torsion
[ 7974 7965 7964 7962 ] final  -47.02 input  175.53 | X-H torsion
[ 8008 7997 7996 7995 ] final -135.01 input   59.86 | X-H torsion
[ 10167 10162 10161 10158 ] final  -63.42 input  -65.29 | X-H torsion
[ 10718 10713 10712 10709 ] final  -24.25 input   66.30 | X-H torsion
[ 10763 10752 10751 10750 ] final  -48.80 input  -60.55 | X-H torsion
[ 11005 11000 10999 10996 ] final -130.08 input  -57.11 | X-H torsion

> <Gold.Protein.ActiveResidues>
 VAL166  LYS551  ARG553  GLY616  TRP617  ASP618  TYR619  PRO620  LYS621  CYS622 
 ASP623  PHE694  ASN695  SER759  ASP760  ASP761  ALA762  ILE779  LEU786  VAL792 
 PHE793  MET794  SER795  GLU796  ALA797  LYS798  CYS799  TRP800  GLU811  SER814 

> <Gold.Protein.RotatedAtoms>
  151.7295  133.3317  159.3336 H   0  0  0  0  0  0  0  0  0  0  0  0  # atno 6907 bound_to 6896
  150.7618  134.6376  159.6229 H   0  0  0  0  0  0  0  0  0  0  0  0  # atno 6908 bound_to 6896
  152.3601  134.6887  160.0261 H   0  0  0  0  0  0  0  0  0  0  0  0  # atno 6909 bound_to 6896
  145.9659  140.7432  142.9434 H   0  0  0  0  0  0  0  0  0  0  0  0  # atno 7974 bound_to 7965
  155.3716  140.0488  157.3045 H   0  0  0  0  0  0  0  0  0  0  0  0  # atno 8008 bound_to 7997
  154.5127  140.2197  155.9088 H   0  0  0  0  0  0  0  0  0  0  0  0  # atno 8009 bound_to 7997
  156.1601  140.3118  155.8798 H   0  0  0  0  0  0  0  0  0  0  0  0  # atno 8010 bound_to 7997
  140.5872  143.2335  151.6217 H   0  0  0  0  0  0  0  0  0  0  0  0  # atno 10167 bound_to 10162
  156.4801  130.4543  149.6817 H   0  0  0  0  0  0  0  0  0  0  0  0  # atno 10718 bound_to 10713
  154.0837  135.6587  153.4842 H   0  0  0  0  0  0  0  0  0  0  0  0  # atno 10763 bound_to 10752
  153.0346  135.5186  154.7449 H   0  0  0  0  0  0  0  0  0  0  0  0  # atno 10764 bound_to 10752
  154.6551  135.3007  154.9906 H   0  0  0  0  0  0  0  0  0  0  0  0  # atno 10765 bound_to 10752
  140.9376  134.1236  157.4179 H   0  0  0  0  0  0  0  0  0  0  0  0  # atno 11005 bound_to 11000
  144.6825  140.2668  143.7311 LP  0  0  0  0  0  0  0  0  0  0  0  0  # atno 17320 bound_to 7965
  145.7975  139.1951  143.2067 LP  0  0  0  0  0  0  0  0  0  0  0  0  # atno 17321 bound_to 7965
  139.5205  144.3221  152.0901 LP  0  0  0  0  0  0  0  0  0  0  0  0  # atno 17342 bound_to 10162
  140.2380  144.4299  150.6272 LP  0  0  0  0  0  0  0  0  0  0  0  0  # atno 17343 bound_to 10162
  156.3530  130.7442  151.2404 LP  0  0  0  0  0  0  0  0  0  0  0  0  # atno 17370 bound_to 10713
  157.7484  131.0371  150.4443 LP  0  0  0  0  0  0  0  0  0  0  0  0  # atno 17371 bound_to 10713
  139.8812  135.0026  156.6137 LP  0  0  0  0  0  0  0  0  0  0  0  0  # atno 17394 bound_to 11000
  140.7777  133.8685  155.8543 LP  0  0  0  0  0  0  0  0  0  0  0  0  # atno 17395 bound_to 11000

$$$$
