AV-unprocessed.smi:1803|AV-procd|sdf|7288|dock6
  -GOLD-   22720 8543D 1   1.00000     0.00000
 Structure written by MMmdl.
 35 37  0  0  0  0  0  0  0  0  3 V2000
  143.1821  136.3915  154.3873 O   0  0  0  0  0  0  0  0  0  0  0  0
  143.3872  135.2221  154.7101 C   0  0  0  0  0  0  0  0  0  0  0  0
  143.5633  134.8217  155.9959 N   0  5  0  0  0  0  0  0  0  0  0  0
  143.5088  135.6753  157.0354 C   0  0  0  0  0  0  0  0  0  0  0  0
  143.3635  137.0006  156.8731 N   0  0  0  0  0  0  0  0  0  0  0  0
  143.3205  137.6957  158.0738 N   0  0  0  0  0  0  0  0  0  0  0  0
  143.4498  136.8745  159.1156 C   0  0  0  0  0  0  0  0  0  0  0  0
  143.6280  135.1770  158.7244 S   0  0  0  0  0  0  0  0  0  0  0  0
  143.4301  134.2810  153.7476 N   0  0  0  0  0  0  0  0  0  0  0  0
  143.2082  134.5066  152.3229 C   0  0  1  0  0  0  0  0  0  0  0  0
  144.1498  135.5603  151.7253 C   0  0  0  0  0  0  0  0  0  0  0  0
  144.3887  135.1071  150.2741 C   0  0  0  0  0  0  0  0  0  0  0  0
  143.6254  133.8508  150.1042 N   0  3  1  0  0  0  0  0  0  0  0  0
  144.1035  132.9228  149.0478 C   0  0  0  0  0  0  0  0  0  0  0  0
  145.3273  132.1010  149.4868 C   0  0  0  0  0  0  0  0  0  0  0  0
  145.0499  131.3819  150.8107 C   0  0  0  0  0  0  0  0  0  0  0  0
  144.6689  132.4090  151.8818 C   0  0  0  0  0  0  0  0  0  0  0  0
  143.4488  133.2635  151.4505 C   0  0  1  0  0  0  0  0  0  0  0  0
  143.4383  137.2703  160.1201 H   0  0  0  0  0  0  0  0  0  0  0  0
  143.5990  133.3288  154.0378 H   0  0  0  0  0  0  0  0  0  0  0  0
  142.1826  134.8492  152.1693 H   0  0  0  0  0  0  0  0  0  0  0  0
  143.7172  136.5598  151.7790 H   0  0  0  0  0  0  0  0  0  0  0  0
  145.0995  135.5851  152.2624 H   0  0  0  0  0  0  0  0  0  0  0  0
  144.0497  135.8513  149.5529 H   0  0  0  0  0  0  0  0  0  0  0  0
  145.4538  134.9424  150.1070 H   0  0  0  0  0  0  0  0  0  0  0  0
  143.2852  132.2433  148.8067 H   0  0  0  0  0  0  0  0  0  0  0  0
  144.3202  133.4812  148.1364 H   0  0  0  0  0  0  0  0  0  0  0  0
  145.5806  131.3736  148.7150 H   0  0  0  0  0  0  0  0  0  0  0  0
  146.1980  132.7487  149.5945 H   0  0  0  0  0  0  0  0  0  0  0  0
  144.2433  130.6587  150.6831 H   0  0  0  0  0  0  0  0  0  0  0  0
  145.9294  130.8198  151.1256 H   0  0  0  0  0  0  0  0  0  0  0  0
  144.4543  131.8931  152.8182 H   0  0  0  0  0  0  0  0  0  0  0  0
  145.5287  133.0505  152.0788 H   0  0  0  0  0  0  0  0  0  0  0  0
  142.5622  132.6279  151.4432 H   0  0  0  0  0  0  0  0  0  0  0  0
  142.7022  134.1479  149.8223 H   0  0  0  0  0  0  0  0  0  0  0  0
  1  2  2  0  0  0  0
  2  3  1  0  0  0  0
  2  9  1  0  0  0  0
  3  4  1  0  0  0  0
  4  8  1  0  0  0  0
  4  5  2  0  0  0  0
  5  6  1  0  0  0  0
  6  7  2  0  0  0  0
  7  8  1  0  0  0  0
  7 19  1  0  0  0  0
  9 10  1  0  0  0  0
  9 20  1  0  0  0  0
 10 18  1  0  0  0  0
 10 11  1  0  0  0  0
 10 21  1  0  0  0  0
 11 12  1  0  0  0  0
 11 22  1  0  0  0  0
 11 23  1  0  0  0  0
 12 13  1  0  0  0  0
 12 24  1  0  0  0  0
 12 25  1  0  0  0  0
 13 18  1  0  0  0  0
 13 14  1  0  0  0  0
 13 35  1  0  0  0  0
 14 15  1  0  0  0  0
 14 26  1  0  0  0  0
 14 27  1  0  0  0  0
 15 16  1  0  0  0  0
 15 28  1  0  0  0  0
 15 29  1  0  0  0  0
 16 17  1  0  0  0  0
 16 30  1  0  0  0  0
 16 31  1  0  0  0  0
 17 18  1  0  0  0  0
 17 32  1  0  0  0  0
 17 33  1  0  0  0  0
 18 34  1  0  0  0  0
M  CHG  1   3  -1
M  CHG  1  13   1
M  END
> <s_m_source_file>
AV-unprocessed.smi

> <i_m_source_file_index>
1803

> <i_lp_mmshare_version>
43012

> <i_f3d_flags>
0

> <s_epik_input>
czFbY0hdbm5jMVtOSF1DKD1PKVtOSF1bQ0BIXShbQ0gyXVtDSDJdMilbQ0BASF0oTjIzKVtDSDJdW0NIMl1bQ0gyXVtDSDJdMw==

> <s_epik_cmdline>
J2VwaWtfcHl0aG9uJywgJy1waCcsICc3LjAnLCAnLXRuJywgJzgnLCAnLW1hJywgJzIwMCcsICctbWV0YWxfYmluZGluZycsICctaW1hZScsICc8aW5maWxlLm1hZT4nLCAnLW9tYWUnLCAnPG91dGZpbGUubWFlPic=

> <r_lp_tautomer_probability>
1

> <r_epik_Ionization_Penalty>
3.78828

> <r_epik_Ionization_Penalty_Charging>
3.7591

> <r_epik_Ionization_Penalty_Neutral>
0.0291838

> <r_epik_State_Penalty>
3.757

> <r_epik_Charging_Adjusted_Penalty>
7.51609

> <i_epik_Tot_Q>
0

> <i_epik_Tot_abs_Q>
2

> <r_epik_Metal_State_Penalty>
0.558016

> <b_epik_Metal_Only>
1

> <s_lp_Force_Field>
OPLS_2005

> <r_lp_Energy>
30.1197

> <b_lp_Chiralities_Consistent>
1

> <s_lp_Variant>
AV-unprocessed.smi:1803-10

> <Gold.Version>
5.8.1

> <Gold.Id.Protein>
6NUR|6NUR_protein|mol2

> <Gold.PLP.Fitness>
35.2040

> <Gold.PLP.PLP>
-26.7539

> <Gold.PLP.part.hbond>
-2.0000

> <Gold.PLP.part.metal>
0.0000

> <Gold.PLP.part.buried>
-3.3744

> <Gold.PLP.part.nonpolar>
-20.2483

> <Gold.PLP.part.repulsive>
0.1497

> <Gold.PLP.ligand.clash>
0.0000

> <Gold.PLP.ligand.torsion>
0.0249

> <Gold.PLP.Chemscore.Hbond>
2.8320

> <Gold.PLP.Chemscore.CHOScore>
0.0000

> <Gold.PLP.Chemscore.Metal>
0.0000

> <Gold.Chemscore.Hbonds>
donor molecule, donor type, donor heavy atom, donor atom, acceptor molecule, acceptor atom, score
      L1  H     9    20       P1 10957  0.83
      L1  H    13    35       P1 10186  2.00

> <Gold.PLP.Chemscore.Internal.Correction>
0.0038

> <Gold.Rescore>
     Score         DG    S(hbond)    S(metal)    S(lipo)     H(rot)  DE(clash)    DE(int)     intcor
     14.22     -17.42       1.98        0.00      67.49       1.00       0.16       3.04       ----

> <Gold.Chemscore.Fitness>
14.2225

> <Gold.Chemscore.DG>
-17.4217

> <Gold.Chemscore.ZeroCoef>
-5.4800

> <Gold.Chemscore.Hbond>
1.9776

> <Gold.Chemscore.Metal>
0.0000

> <Gold.Chemscore.Lipo>
67.4912

> <Gold.Chemscore.Internal_Hbond>
0.0000

> <Gold.Chemscore.DEClash>
0.1628

> <Gold.Chemscore.DEInternal>
3.0364

> <Gold.Chemscore.Rot>
1.0000

> <Gold.Chemscore.Internal.Correction>
   9.000000E+99

> <Gold.Chemscore.Hbonds>
donor molecule, donor type, donor heavy atom, donor atom, acceptor molecule, acceptor atom, score
      L1  H     9    20       P1 10957  0.80
      L1  H    13    35       P1 10186  1.00

> <Gold.Chemscore.Hbond.Weighted>
-6.6053

> <Gold.Chemscore.Metal.Weighted>
-0.0000

> <Gold.Chemscore.Lipo.Weighted>
-7.8965

> <Gold.Chemscore.Internal_Hbond.Weighted>
0.0000

> <Gold.Chemscore.DEClash.Weighted>
0.1628

> <Gold.Chemscore.DEInternal.Weighted>
3.0364

> <Gold.Chemscore.Rot.Weighted>
2.5600

> <Gold.Chemscore.Internal.Correction.Weighted>
   9.000000E+99

> <Gold.Protein.RotatedTorsions>
[ 6907 6896 6895 6894 ] final  161.40 input  -60.11 | X-H torsion
[ 7974 7965 7964 7962 ] final -119.16 input  175.53 | X-H torsion
[ 8008 7997 7996 7995 ] final   70.48 input   59.86 | X-H torsion
[ 10167 10162 10161 10158 ] final -109.13 input  -65.29 | X-H torsion
[ 10718 10713 10712 10709 ] final -100.27 input   66.30 | X-H torsion
[ 10763 10752 10751 10750 ] final   70.76 input  -60.55 | X-H torsion
[ 11005 11000 10999 10996 ] final -110.25 input  -57.11 | X-H torsion

> <Gold.Protein.ActiveResidues>
 VAL166  LYS551  ARG553  GLY616  TRP617  ASP618  TYR619  PRO620  LYS621  CYS622 
 ASP623  PHE694  ASN695  SER759  ASP760  ASP761  ALA762  ILE779  LEU786  VAL792 
 PHE793  MET794  SER795  GLU796  ALA797  LYS798  CYS799  TRP800  GLU811  SER814 

> <Gold.Protein.RotatedAtoms>
  151.9562  133.3681  159.4018 H   0  0  0  0  0  0  0  0  0  0  0  0  # atno 6907 bound_to 6896
  150.6972  134.4288  159.5248 H   0  0  0  0  0  0  0  0  0  0  0  0  # atno 6908 bound_to 6896
  152.1969  134.8622  160.0562 H   0  0  0  0  0  0  0  0  0  0  0  0  # atno 6909 bound_to 6896
  145.0657  140.8322  143.4126 H   0  0  0  0  0  0  0  0  0  0  0  0  # atno 7974 bound_to 7965
  155.7395  140.3490  155.5097 H   0  0  0  0  0  0  0  0  0  0  0  0  # atno 8008 bound_to 7997
  155.9108  140.1050  157.1302 H   0  0  0  0  0  0  0  0  0  0  0  0  # atno 8009 bound_to 7997
  154.4055  140.1268  156.4541 H   0  0  0  0  0  0  0  0  0  0  0  0  # atno 8010 bound_to 7997
  140.1587  143.4138  152.1442 H   0  0  0  0  0  0  0  0  0  0  0  0  # atno 10167 bound_to 10162
  156.0158  130.5320  150.6792 H   0  0  0  0  0  0  0  0  0  0  0  0  # atno 10718 bound_to 10713
  153.0360  135.5162  154.7490 H   0  0  0  0  0  0  0  0  0  0  0  0  # atno 10763 bound_to 10752
  154.6467  135.2919  155.0040 H   0  0  0  0  0  0  0  0  0  0  0  0  # atno 10764 bound_to 10752
  154.0939  135.6646  153.4909 H   0  0  0  0  0  0  0  0  0  0  0  0  # atno 10765 bound_to 10752
  141.0802  133.9233  157.2305 H   0  0  0  0  0  0  0  0  0  0  0  0  # atno 11005 bound_to 11000
  145.1354  139.2605  143.5517 LP  0  0  0  0  0  0  0  0  0  0  0  0  # atno 17320 bound_to 7965
  146.3526  140.1017  142.8607 LP  0  0  0  0  0  0  0  0  0  0  0  0  # atno 17321 bound_to 7965
  139.5391  144.7239  151.4792 LP  0  0  0  0  0  0  0  0  0  0  0  0  # atno 17342 bound_to 10162
  140.6657  143.8403  150.6939 LP  0  0  0  0  0  0  0  0  0  0  0  0  # atno 17343 bound_to 10162
  157.4498  131.0871  151.0857 LP  0  0  0  0  0  0  0  0  0  0  0  0  # atno 17370 bound_to 10713
  157.1376  130.6129  149.5546 LP  0  0  0  0  0  0  0  0  0  0  0  0  # atno 17371 bound_to 10713
  139.9616  135.0153  156.9275 LP  0  0  0  0  0  0  0  0  0  0  0  0  # atno 17394 bound_to 11000
  140.5485  134.0650  155.7362 LP  0  0  0  0  0  0  0  0  0  0  0  0  # atno 17395 bound_to 11000

$$$$
