AV-unprocessed.smi:2324|AV-procd|sdf|9292|dock10
  -GOLD-   2272012513D 1   1.00000     0.00000
 Structure written by MMmdl.
 37 39  0  0  0  0  0  0  0  0  1 V2000
  146.0047  137.9119  154.3774 O   0  0  0  0  0  0  0  0  0  0  0  0
  146.8791  137.3430  153.7258 C   0  0  0  0  0  0  0  0  0  0  0  0
  148.0987  137.9000  153.5663 N   0  0  0  0  0  0  0  0  0  0  0  0
  148.6480  139.1263  154.0424 C   0  0  0  0  0  0  0  0  0  0  0  0
  147.7294  140.1958  154.1128 C   0  0  0  0  0  0  0  0  0  0  0  0
  148.1862  141.4426  154.5729 C   0  0  0  0  0  0  0  0  0  0  0  0
  149.5400  141.5375  154.9365 C   0  0  0  0  0  0  0  0  0  0  0  0
  150.3864  140.4882  154.8557 N   0  0  0  0  0  0  0  0  0  0  0  0
  149.9431  139.3056  154.4159 N   0  0  0  0  0  0  0  0  0  0  0  0
  146.6835  136.1533  153.1333 N   0  0  0  0  0  0  0  0  0  0  0  0
  145.4458  135.3809  153.1655 C   0  0  1  0  0  0  0  0  0  0  0  0
  144.2717  136.2042  152.6095 C   0  0  0  0  0  0  0  0  0  0  0  0
  143.0102  135.3355  152.4880 C   0  0  0  0  0  0  0  0  0  0  0  0
  143.2800  134.1948  151.6800 O   0  0  0  0  0  0  0  0  0  0  0  0
  144.2755  133.3391  152.2329 C   0  0  1  0  0  0  0  0  0  0  0  0
  144.3876  132.1147  151.3463 C   0  0  0  0  0  0  0  0  0  0  0  0
  145.7218  131.4414  151.1238 C   0  0  0  0  0  0  0  0  0  0  0  0
  145.0612  132.1974  149.9962 C   0  0  0  0  0  0  0  0  0  0  0  0
  145.6098  134.1018  152.3313 C   0  0  0  0  0  0  0  0  0  0  0  0
  148.7367  137.3478  153.0120 H   0  0  0  0  0  0  0  0  0  0  0  0
  146.6972  140.0675  153.8203 H   0  0  0  0  0  0  0  0  0  0  0  0
  147.5245  142.2929  154.6449 H   0  0  0  0  0  0  0  0  0  0  0  0
  149.9517  142.4676  155.2988 H   0  0  0  0  0  0  0  0  0  0  0  0
  147.4548  135.7541  152.6167 H   0  0  0  0  0  0  0  0  0  0  0  0
  145.2256  135.0930  154.1953 H   0  0  0  0  0  0  0  0  0  0  0  0
  144.0703  137.0638  153.2496 H   0  0  0  0  0  0  0  0  0  0  0  0
  144.5292  136.6001  151.6261 H   0  0  0  0  0  0  0  0  0  0  0  0
  142.6572  135.0228  153.4718 H   0  0  0  0  0  0  0  0  0  0  0  0
  142.2044  135.9082  152.0290 H   0  0  0  0  0  0  0  0  0  0  0  0
  143.9601  133.0189  153.2277 H   0  0  0  0  0  0  0  0  0  0  0  0
  143.5267  131.4512  151.4056 H   0  0  0  0  0  0  0  0  0  0  0  0
  146.5998  131.8911  151.5833 H   0  0  0  0  0  0  0  0  0  0  0  0
  145.7318  130.3550  151.0641 H   0  0  0  0  0  0  0  0  0  0  0  0
  144.6298  131.6156  149.1842 H   0  0  0  0  0  0  0  0  0  0  0  0
  145.5004  133.1497  149.7056 H   0  0  0  0  0  0  0  0  0  0  0  0
  145.9569  134.3567  151.3286 H   0  0  0  0  0  0  0  0  0  0  0  0
  146.3753  133.4625  152.7728 H   0  0  0  0  0  0  0  0  0  0  0  0
  1  2  2  0  0  0  0
  2  3  1  0  0  0  0
  2 10  1  0  0  0  0
  3  4  1  0  0  0  0
  3 20  1  0  0  0  0
  4  9  1  0  0  0  0
  4  5  2  0  0  0  0
  5  6  1  0  0  0  0
  5 21  1  0  0  0  0
  6  7  2  0  0  0  0
  6 22  1  0  0  0  0
  7  8  1  0  0  0  0
  7 23  1  0  0  0  0
  8  9  2  0  0  0  0
 10 11  1  0  0  0  0
 10 24  1  0  0  0  0
 11 19  1  0  0  0  0
 11 12  1  0  0  0  0
 11 25  1  0  0  0  0
 12 13  1  0  0  0  0
 12 26  1  0  0  0  0
 12 27  1  0  0  0  0
 13 14  1  0  0  0  0
 13 28  1  0  0  0  0
 13 29  1  0  0  0  0
 14 15  1  0  0  0  0
 15 16  1  0  0  0  0
 15 19  1  0  0  0  0
 15 30  1  0  0  0  0
 16 18  1  0  0  0  0
 16 17  1  0  0  0  0
 16 31  1  0  0  0  0
 17 18  1  0  0  0  0
 17 32  1  0  0  0  0
 17 33  1  0  0  0  0
 18 34  1  0  0  0  0
 18 35  1  0  0  0  0
 19 36  1  0  0  0  0
 19 37  1  0  0  0  0
M  END
> <s_m_source_file>
AV-unprocessed.smi

> <i_m_source_file_index>
2324

> <i_lp_mmshare_version>
43012

> <i_f3d_flags>
0

> <s_epik_input>
bjFuW2NIXVtjSF1bY0hdYzFbTkhdQyg9TylbTkhdW0NAQEhdMltDSDJdW0NIMl1PW0NASF0oW0NIMl0yKVtDSF0zW0NIMl1bQ0gyXTM=

> <s_epik_cmdline>
J2VwaWtfcHl0aG9uJywgJy1waCcsICc3LjAnLCAnLXRuJywgJzgnLCAnLW1hJywgJzIwMCcsICctbWV0YWxfYmluZGluZycsICctaW1hZScsICc8aW5maWxlLm1hZT4nLCAnLW9tYWUnLCAnPG91dGZpbGUubWFlPic=

> <r_lp_tautomer_probability>
1

> <r_epik_Ionization_Penalty>
0.00521499

> <r_epik_Ionization_Penalty_Charging>
0

> <r_epik_Ionization_Penalty_Neutral>
0.00521499

> <r_epik_State_Penalty>
-0

> <r_epik_Charging_Adjusted_Penalty>
0

> <i_epik_Tot_Q>
0

> <i_epik_Tot_abs_Q>
0

> <r_epik_Metal_State_Penalty>
-0

> <b_epik_Metal_Only>
0

> <s_lp_Force_Field>
OPLS_2005

> <r_lp_Energy>
26.0147

> <b_lp_Chiralities_Consistent>
1

> <s_lp_Variant>
AV-unprocessed.smi:2324-2

> <Gold.Version>
5.8.1

> <Gold.Id.Protein>
6NUR|6NUR_protein|mol2

> <Gold.PLP.Fitness>
38.0174

> <Gold.PLP.PLP>
-27.1381

> <Gold.PLP.part.hbond>
-2.9687

> <Gold.PLP.part.metal>
0.0000

> <Gold.PLP.part.buried>
-4.3053

> <Gold.PLP.part.nonpolar>
-22.0626

> <Gold.PLP.part.repulsive>
0.8411

> <Gold.PLP.ligand.clash>
0.0000

> <Gold.PLP.ligand.torsion>
0.8200

> <Gold.PLP.Chemscore.Hbond>
2.8160

> <Gold.PLP.Chemscore.CHOScore>
1.0000

> <Gold.PLP.Chemscore.Metal>
0.0000

> <Gold.Chemscore.Hbonds>
donor molecule, donor type, donor heavy atom, donor atom, acceptor molecule, acceptor atom, score
      L1  H     3    20       P1  7948  0.99
      L1  H    10    24       P1  7948  0.83
      P1  H  7989  7998       L1     8  1.00
      L1  C     7    23       P1  8028  1.00

> <Gold.PLP.Chemscore.Internal.Correction>
1.0712

> <Gold.Rescore>
     Score         DG    S(hbond)    S(metal)    S(lipo)     H(rot)  DE(clash)    DE(int)     intcor
     13.92     -16.13       1.93        0.00      63.08       1.25       0.09       2.12       ----

> <Gold.Chemscore.Fitness>
13.9192

> <Gold.Chemscore.DG>
-16.1286

> <Gold.Chemscore.ZeroCoef>
-5.4800

> <Gold.Chemscore.Hbond>
1.9349

> <Gold.Chemscore.Metal>
0.0000

> <Gold.Chemscore.Lipo>
63.0752

> <Gold.Chemscore.Internal_Hbond>
0.0000

> <Gold.Chemscore.DEClash>
0.0901

> <Gold.Chemscore.DEInternal>
2.1193

> <Gold.Chemscore.Rot>
1.2476

> <Gold.Chemscore.Internal.Correction>
   9.000000E+99

> <Gold.Chemscore.Hbonds>
donor molecule, donor type, donor heavy atom, donor atom, acceptor molecule, acceptor atom, score
      L1  H     3    20       P1  7948  0.93
      L1  H    10    24       P1  7948  0.81
      P1  H  7989  7998       L1     8  0.15

> <Gold.Chemscore.Hbond.Weighted>
-6.4626

> <Gold.Chemscore.Metal.Weighted>
-0.0000

> <Gold.Chemscore.Lipo.Weighted>
-7.3798

> <Gold.Chemscore.Internal_Hbond.Weighted>
0.0000

> <Gold.Chemscore.DEClash.Weighted>
0.0901

> <Gold.Chemscore.DEInternal.Weighted>
2.1193

> <Gold.Chemscore.Rot.Weighted>
3.1938

> <Gold.Chemscore.Internal.Correction.Weighted>
   9.000000E+99

> <Gold.Protein.RotatedTorsions>
[ 6907 6896 6895 6894 ] final -179.82 input  -60.11 | X-H torsion
[ 7974 7965 7964 7962 ] final -130.63 input  175.53 | X-H torsion
[ 8008 7997 7996 7995 ] final   89.91 input   59.86 | X-H torsion
[ 10167 10162 10161 10158 ] final   17.48 input  -65.29 | X-H torsion
[ 10718 10713 10712 10709 ] final   81.81 input   66.30 | X-H torsion
[ 10763 10752 10751 10750 ] final   -3.56 input  -60.55 | X-H torsion
[ 11005 11000 10999 10996 ] final -100.00 input  -57.11 | X-H torsion

> <Gold.Protein.ActiveResidues>
 VAL166  LYS551  ARG553  GLY616  TRP617  ASP618  TYR619  PRO620  LYS621  CYS622 
 ASP623  PHE694  ASN695  SER759  ASP760  ASP761  ALA762  ILE779  LEU786  VAL792 
 PHE793  MET794  SER795  GLU796  ALA797  LYS798  CYS799  TRP800  GLU811  SER814 

> <Gold.Protein.RotatedAtoms>
  151.6597  133.3317  159.3170 H   0  0  0  0  0  0  0  0  0  0  0  0  # atno 6907 bound_to 6896
  150.7919  134.6954  159.6529 H   0  0  0  0  0  0  0  0  0  0  0  0  # atno 6908 bound_to 6896
  152.4001  134.6305  160.0125 H   0  0  0  0  0  0  0  0  0  0  0  0  # atno 6909 bound_to 6896
  144.9456  140.7288  143.4819 H   0  0  0  0  0  0  0  0  0  0  0  0  # atno 7974 bound_to 7965
  156.0057  140.3355  155.6890 H   0  0  0  0  0  0  0  0  0  0  0  0  # atno 8008 bound_to 7997
  155.6229  140.0677  157.2690 H   0  0  0  0  0  0  0  0  0  0  0  0  # atno 8009 bound_to 7997
  154.4264  140.1773  156.1378 H   0  0  0  0  0  0  0  0  0  0  0  0  # atno 8010 bound_to 7997
  140.5723  143.9138  150.6722 H   0  0  0  0  0  0  0  0  0  0  0  0  # atno 10167 bound_to 10162
  157.6842  131.0020  150.2282 H   0  0  0  0  0  0  0  0  0  0  0  0  # atno 10718 bound_to 10713
  153.3730  135.6995  153.6623 H   0  0  0  0  0  0  0  0  0  0  0  0  # atno 10763 bound_to 10752
  153.5265  135.3601  155.2657 H   0  0  0  0  0  0  0  0  0  0  0  0  # atno 10764 bound_to 10752
  154.8683  135.4170  154.3012 H   0  0  0  0  0  0  0  0  0  0  0  0  # atno 10765 bound_to 10752
  141.1287  133.8365  157.1046 H   0  0  0  0  0  0  0  0  0  0  0  0  # atno 11005 bound_to 11000
  145.2923  139.1879  143.4734 LP  0  0  0  0  0  0  0  0  0  0  0  0  # atno 17320 bound_to 7965
  146.3302  140.2901  142.8615 LP  0  0  0  0  0  0  0  0  0  0  0  0  # atno 17321 bound_to 7965
  140.2616  143.3519  152.1317 LP  0  0  0  0  0  0  0  0  0  0  0  0  # atno 17342 bound_to 10162
  139.5124  144.6916  151.5744 LP  0  0  0  0  0  0  0  0  0  0  0  0  # atno 17343 bound_to 10162
  156.2920  130.3747  149.7832 LP  0  0  0  0  0  0  0  0  0  0  0  0  # atno 17370 bound_to 10713
  156.5489  130.8333  151.3293 LP  0  0  0  0  0  0  0  0  0  0  0  0  # atno 17371 bound_to 10713
  140.0313  134.9900  157.0785 LP  0  0  0  0  0  0  0  0  0  0  0  0  # atno 17394 bound_to 11000
  140.4281  134.1809  155.7167 LP  0  0  0  0  0  0  0  0  0  0  0  0  # atno 17395 bound_to 11000

$$$$
