AV-unprocessed.smi:1661|AV-procd|sdf|6653|dock4
  -GOLD-   22720 7363D 1   1.00000     0.00000
 Structure written by MMmdl.
 38 39  0  0  0  0  0  0  0  0  2 V2000
  145.8971  132.2922  150.1213 C   0  0  0  0  0  0  0  0  0  0  0  0
  145.8898  133.0377  151.4631 C   0  0  2  0  0  0  0  0  0  0  0  0
  145.7636  134.5580  151.2701 C   0  0  0  0  0  0  0  0  0  0  0  0
  145.7896  135.2970  152.6186 C   0  0  0  0  0  0  0  0  0  0  0  0
  147.0214  134.9756  153.3846 N   0  3  1  0  0  0  0  0  0  0  0  0
  147.1314  135.7747  154.6305 C   0  0  0  0  0  0  0  0  0  0  0  0
  146.0708  135.3797  155.6768 C   0  0  0  0  0  0  0  0  0  0  0  0
  146.2220  136.1450  156.9090 N   0  0  0  0  0  0  0  0  0  0  0  0
  146.5880  135.6253  158.0898 C   0  0  0  0  0  0  0  0  0  0  0  0
  146.8260  134.4284  158.2548 O   0  0  0  0  0  0  0  0  0  0  0  0
  146.6538  136.5718  159.0427 N   0  0  0  0  0  0  0  0  0  0  0  0
  146.9981  136.4183  160.4120 C   0  0  0  0  0  0  0  0  0  0  0  0
  147.0523  137.4371  161.2844 N   0  0  0  0  0  0  0  0  0  0  0  0
  147.4157  137.0132  162.5561 N   0  0  0  0  0  0  0  0  0  0  0  0
  147.6207  135.6935  162.5930 C   0  0  0  0  0  0  0  0  0  0  0  0
  147.3895  134.8391  161.0774 S   0  0  0  0  0  0  0  0  0  0  0  0
  147.1490  133.5117  153.6168 C   0  0  0  0  0  0  0  0  0  0  0  0
  147.1514  132.7363  152.2888 C   0  0  0  0  0  0  0  0  0  0  0  0
  146.7447  132.5919  149.5040 H   0  0  0  0  0  0  0  0  0  0  0  0
  144.9866  132.4921  149.5557 H   0  0  0  0  0  0  0  0  0  0  0  0
  145.9600  131.2140  150.2720 H   0  0  0  0  0  0  0  0  0  0  0  0
  145.0227  132.6937  152.0291 H   0  0  0  0  0  0  0  0  0  0  0  0
  146.5778  134.9209  150.6408 H   0  0  0  0  0  0  0  0  0  0  0  0
  144.8384  134.7919  150.7423 H   0  0  0  0  0  0  0  0  0  0  0  0
  145.7382  136.3710  152.4357 H   0  0  0  0  0  0  0  0  0  0  0  0
  144.9118  135.0334  153.2109 H   0  0  0  0  0  0  0  0  0  0  0  0
  148.1150  135.6170  155.0754 H   0  0  0  0  0  0  0  0  0  0  0  0
  147.0728  136.8368  154.3873 H   0  0  0  0  0  0  0  0  0  0  0  0
  145.0587  135.5181  155.2957 H   0  0  0  0  0  0  0  0  0  0  0  0
  146.1671  134.3215  155.9214 H   0  0  0  0  0  0  0  0  0  0  0  0
  146.0475  137.1381  156.8562 H   0  0  0  0  0  0  0  0  0  0  0  0
  146.4320  137.5140  158.7568 H   0  0  0  0  0  0  0  0  0  0  0  0
  147.9099  135.2199  163.5196 H   0  0  0  0  0  0  0  0  0  0  0  0
  148.0700  133.2893  154.1541 H   0  0  0  0  0  0  0  0  0  0  0  0
  146.3275  133.1688  154.2483 H   0  0  0  0  0  0  0  0  0  0  0  0
  147.2183  131.6666  152.4905 H   0  0  0  0  0  0  0  0  0  0  0  0
  148.0421  132.9984  151.7158 H   0  0  0  0  0  0  0  0  0  0  0  0
  147.7960  135.2510  152.7978 H   0  0  0  0  0  0  0  0  0  0  0  0
  1  2  1  0  0  0  0
  1 19  1  0  0  0  0
  1 20  1  0  0  0  0
  1 21  1  0  0  0  0
  2 18  1  0  0  0  0
  2  3  1  0  0  0  0
  2 22  1  0  0  0  0
  3  4  1  0  0  0  0
  3 23  1  0  0  0  0
  3 24  1  0  0  0  0
  4  5  1  0  0  0  0
  4 25  1  0  0  0  0
  4 26  1  0  0  0  0
  5  6  1  0  0  0  0
  5 17  1  0  0  0  0
  5 38  1  0  0  0  0
  6  7  1  0  0  0  0
  6 27  1  0  0  0  0
  6 28  1  0  0  0  0
  7  8  1  0  0  0  0
  7 29  1  0  0  0  0
  7 30  1  0  0  0  0
  8  9  1  0  0  0  0
  8 31  1  0  0  0  0
  9 10  2  0  0  0  0
  9 11  1  0  0  0  0
 11 12  1  0  0  0  0
 11 32  1  0  0  0  0
 12 16  1  0  0  0  0
 12 13  2  0  0  0  0
 13 14  1  0  0  0  0
 14 15  2  0  0  0  0
 15 16  1  0  0  0  0
 15 33  1  0  0  0  0
 17 18  1  0  0  0  0
 17 34  1  0  0  0  0
 17 35  1  0  0  0  0
 18 36  1  0  0  0  0
 18 37  1  0  0  0  0
M  CHG  1   5   1
M  END
> <s_m_source_file>
AV-unprocessed.smi

> <i_m_source_file_index>
1661

> <i_lp_mmshare_version>
43012

> <i_f3d_flags>
0

> <s_epik_input>
W0NIM11bQ0hdMVtDSDJdW0NIMl1OKFtDSDJdW0NIMl0xKVtDSDJdW0NIMl1bTkhdQyg9TylbTkhdYzJubltjSF1zMg==

> <s_epik_cmdline>
J2VwaWtfcHl0aG9uJywgJy1waCcsICc3LjAnLCAnLXRuJywgJzgnLCAnLW1hJywgJzIwMCcsICctbWV0YWxfYmluZGluZycsICctaW1hZScsICc8aW5maWxlLm1hZT4nLCAnLW9tYWUnLCAnPG91dGZpbGUubWFlPic=

> <r_lp_tautomer_probability>
1

> <r_epik_Ionization_Penalty>
0.0053917

> <r_epik_Ionization_Penalty_Charging>
0.00168873

> <r_epik_Ionization_Penalty_Neutral>
0.00370297

> <r_epik_State_Penalty>
-0

> <r_epik_Charging_Adjusted_Penalty>
0.00168873

> <i_epik_Tot_Q>
1

> <i_epik_Tot_abs_Q>
1

> <r_epik_Metal_State_Penalty>
0.36997

> <b_epik_Metal_Only>
0

> <s_lp_Force_Field>
OPLS_2005

> <r_lp_Energy>
14.0049

> <b_lp_Chiralities_Consistent>
1

> <s_lp_Variant>
AV-unprocessed.smi:1661-1

> <Gold.Version>
5.8.1

> <Gold.Id.Protein>
6NUR|6NUR_protein|mol2

> <Gold.PLP.Fitness>
34.1319

> <Gold.PLP.PLP>
-25.1980

> <Gold.PLP.part.hbond>
-4.2719

> <Gold.PLP.part.metal>
0.0000

> <Gold.PLP.part.buried>
-3.4815

> <Gold.PLP.part.nonpolar>
-17.7339

> <Gold.PLP.part.repulsive>
0.0607

> <Gold.PLP.ligand.clash>
0.0000

> <Gold.PLP.ligand.torsion>
0.0451

> <Gold.PLP.Chemscore.Hbond>
3.0000

> <Gold.PLP.Chemscore.CHOScore>
0.0000

> <Gold.PLP.Chemscore.Metal>
0.0000

> <Gold.Chemscore.Hbonds>
donor molecule, donor type, donor heavy atom, donor atom, acceptor molecule, acceptor atom, score
      L1  H     5    38       P1  7948  2.00
      P1  H  6934  6947       L1    13  1.00

> <Gold.PLP.Chemscore.Internal.Correction>
0.0241

> <Gold.Rescore>
     Score         DG    S(hbond)    S(metal)    S(lipo)     H(rot)  DE(clash)    DE(int)     intcor
     12.71     -13.97       1.96        0.00      53.86       1.70       0.00       1.26       ----

> <Gold.Chemscore.Fitness>
12.7105

> <Gold.Chemscore.DG>
-13.9737

> <Gold.Chemscore.ZeroCoef>
-5.4800

> <Gold.Chemscore.Hbond>
1.9630

> <Gold.Chemscore.Metal>
0.0000

> <Gold.Chemscore.Lipo>
53.8569

> <Gold.Chemscore.Internal_Hbond>
0.0000

> <Gold.Chemscore.DEClash>
0.0000

> <Gold.Chemscore.DEInternal>
1.2632

> <Gold.Chemscore.Rot>
1.7046

> <Gold.Chemscore.Internal.Correction>
   9.000000E+99

> <Gold.Chemscore.Hbonds>
donor molecule, donor type, donor heavy atom, donor atom, acceptor molecule, acceptor atom, score
      L1  H     5    38       P1  7948  1.00
      P1  H  6934  6947       L1    13  0.94

> <Gold.Chemscore.Hbond.Weighted>
-6.5563

> <Gold.Chemscore.Metal.Weighted>
-0.0000

> <Gold.Chemscore.Lipo.Weighted>
-6.3013

> <Gold.Chemscore.Internal_Hbond.Weighted>
0.0000

> <Gold.Chemscore.DEClash.Weighted>
0.0000

> <Gold.Chemscore.DEInternal.Weighted>
1.2632

> <Gold.Chemscore.Rot.Weighted>
4.3638

> <Gold.Chemscore.Internal.Correction.Weighted>
   9.000000E+99

> <Gold.Protein.RotatedTorsions>
[ 6907 6896 6895 6894 ] final -148.96 input  -60.11 | X-H torsion
[ 7974 7965 7964 7962 ] final -125.88 input  175.53 | X-H torsion
[ 8008 7997 7996 7995 ] final   43.74 input   59.86 | X-H torsion
[ 10167 10162 10161 10158 ] final   56.41 input  -65.29 | X-H torsion
[ 10718 10713 10712 10709 ] final  148.81 input   66.30 | X-H torsion
[ 10763 10752 10751 10750 ] final   86.54 input  -60.55 | X-H torsion
[ 11005 11000 10999 10996 ] final  -79.95 input  -57.11 | X-H torsion

> <Gold.Protein.ActiveResidues>
 VAL166  LYS551  ARG553  GLY616  TRP617  ASP618  TYR619  PRO620  LYS621  CYS622 
 ASP623  PHE694  ASN695  SER759  ASP760  ASP761  ALA762  ILE779  LEU786  VAL792 
 PHE793  MET794  SER795  GLU796  ALA797  LYS798  CYS799  TRP800  GLU811  SER814 

> <Gold.Protein.RotatedAtoms>
  151.1773  133.4747  159.2593 H   0  0  0  0  0  0  0  0  0  0  0  0  # atno 6907 bound_to 6896
  151.1295  135.0122  159.8586 H   0  0  0  0  0  0  0  0  0  0  0  0  # atno 6908 bound_to 6896
  152.5459  134.1677  159.8637 H   0  0  0  0  0  0  0  0  0  0  0  0  # atno 6909 bound_to 6896
  144.9930  140.7750  143.4542 H   0  0  0  0  0  0  0  0  0  0  0  0  # atno 7974 bound_to 7965
  155.3077  140.3389  155.4245 H   0  0  0  0  0  0  0  0  0  0  0  0  # atno 8008 bound_to 7997
  156.1970  140.1719  156.8015 H   0  0  0  0  0  0  0  0  0  0  0  0  # atno 8009 bound_to 7997
  154.5512  140.0705  156.8654 H   0  0  0  0  0  0  0  0  0  0  0  0  # atno 8010 bound_to 7997
  140.2090  144.3908  150.6496 H   0  0  0  0  0  0  0  0  0  0  0  0  # atno 10167 bound_to 10162
  157.3039  131.0876  151.1368 H   0  0  0  0  0  0  0  0  0  0  0  0  # atno 10718 bound_to 10713
  153.1580  135.4577  154.9732 H   0  0  0  0  0  0  0  0  0  0  0  0  # atno 10763 bound_to 10752
  154.7876  135.3209  154.7853 H   0  0  0  0  0  0  0  0  0  0  0  0  # atno 10764 bound_to 10752
  153.8348  135.6935  153.4864 H   0  0  0  0  0  0  0  0  0  0  0  0  # atno 10765 bound_to 10752
  141.1668  133.7128  156.8200 H   0  0  0  0  0  0  0  0  0  0  0  0  # atno 11005 bound_to 11000
  145.2258  139.2137  143.5069 LP  0  0  0  0  0  0  0  0  0  0  0  0  # atno 17320 bound_to 7965
  146.3436  140.2125  142.8590 LP  0  0  0  0  0  0  0  0  0  0  0  0  # atno 17321 bound_to 7965
  140.6337  143.2191  151.6442 LP  0  0  0  0  0  0  0  0  0  0  0  0  # atno 17342 bound_to 10162
  139.5187  144.3276  152.0855 LP  0  0  0  0  0  0  0  0  0  0  0  0  # atno 17343 bound_to 10162
  157.2717  130.6707  149.6022 LP  0  0  0  0  0  0  0  0  0  0  0  0  # atno 17370 bound_to 10713
  155.9673  130.4477  150.5591 LP  0  0  0  0  0  0  0  0  0  0  0  0  # atno 17371 bound_to 10713
  140.2126  134.8816  157.3291 LP  0  0  0  0  0  0  0  0  0  0  0  0  # atno 17394 bound_to 11000
  140.2070  134.4184  155.7632 LP  0  0  0  0  0  0  0  0  0  0  0  0  # atno 17395 bound_to 11000

$$$$
