AV-unprocessed.smi:1757|AV-procd|sdf|7075|dock10
  -GOLD-   22720 8293D 1   1.00000     0.00000
 Structure written by MMmdl.
 40 41  0  0  0  0  0  0  0  0  2 V2000
  143.7977  132.4387  151.5420 C   0  0  0  0  0  0  0  0  0  0  0  0
  144.2378  133.8079  151.8853 N   0  3  2  0  0  0  0  0  0  0  0  0
  143.2109  134.5554  152.6529 C   0  0  0  0  0  0  0  0  0  0  0  0
  143.7468  135.9241  153.1056 C   0  0  0  0  0  0  0  0  0  0  0  0
  144.2434  136.7496  151.9070 C   0  0  1  0  0  0  0  0  0  0  0  0
  144.8465  137.9948  152.3754 N   0  0  0  0  0  0  0  0  0  0  0  0
  146.0381  138.1120  152.9793 C   0  0  0  0  0  0  0  0  0  0  0  0
  146.7765  137.1560  153.2155 O   0  0  0  0  0  0  0  0  0  0  0  0
  146.2882  139.3951  153.2978 N   0  0  0  0  0  0  0  0  0  0  0  0
  147.4281  139.9489  153.9032 C   0  0  0  0  0  0  0  0  0  0  0  0
  148.5293  139.2420  154.2684 C   0  0  0  0  0  0  0  0  0  0  0  0
  149.6850  139.8788  154.8795 C   0  0  0  0  0  0  0  0  0  0  0  0
  150.9139  139.0956  155.3130 C   0  0  0  0  0  0  0  0  0  0  0  0
  150.5886  138.2231  156.2664 F   0  0  0  0  0  0  0  0  0  0  0  0
  151.4124  138.4121  154.2829 F   0  0  0  0  0  0  0  0  0  0  0  0
  151.8689  139.8964  155.7862 F   0  0  0  0  0  0  0  0  0  0  0  0
  149.6132  141.2104  155.0565 C   0  0  0  0  0  0  0  0  0  0  0  0
  148.4905  141.9460  154.6703 N   0  0  0  0  0  0  0  0  0  0  0  0
  147.3892  141.4074  154.1005 C   0  0  0  0  0  0  0  0  0  0  0  0
  146.4397  142.1234  153.7836 O   0  0  0  0  0  0  0  0  0  0  0  0
  145.2729  135.9362  151.1046 C   0  0  0  0  0  0  0  0  0  0  0  0
  144.7052  134.5659  150.6978 C   0  0  0  0  0  0  0  0  0  0  0  0
  148.5165  142.9424  154.8318 H   0  0  0  0  0  0  0  0  0  0  0  0
  142.9313  132.4608  150.8797 H   0  0  0  0  0  0  0  0  0  0  0  0
  143.5276  131.8845  152.4414 H   0  0  0  0  0  0  0  0  0  0  0  0
  144.5973  131.8909  151.0425 H   0  0  0  0  0  0  0  0  0  0  0  0
  142.3180  134.6861  152.0390 H   0  0  0  0  0  0  0  0  0  0  0  0
  142.9128  133.9754  153.5272 H   0  0  0  0  0  0  0  0  0  0  0  0
  142.9648  136.4685  153.6365 H   0  0  0  0  0  0  0  0  0  0  0  0
  144.5595  135.7766  153.8186 H   0  0  0  0  0  0  0  0  0  0  0  0
  143.3890  136.9563  151.2596 H   0  0  0  0  0  0  0  0  0  0  0  0
  144.3114  138.8387  152.2303 H   0  0  0  0  0  0  0  0  0  0  0  0
  145.5473  140.0569  153.1166 H   0  0  0  0  0  0  0  0  0  0  0  0
  148.5826  138.1801  154.0920 H   0  0  0  0  0  0  0  0  0  0  0  0
  150.3985  141.8043  155.5010 H   0  0  0  0  0  0  0  0  0  0  0  0
  145.5747  136.4892  150.2141 H   0  0  0  0  0  0  0  0  0  0  0  0
  146.1764  135.7908  151.6990 H   0  0  0  0  0  0  0  0  0  0  0  0
  145.4749  133.9938  150.1784 H   0  0  0  0  0  0  0  0  0  0  0  0
  143.8784  134.6951  149.9972 H   0  0  0  0  0  0  0  0  0  0  0  0
  145.0367  133.7066  152.4952 H   0  0  0  0  0  0  0  0  0  0  0  0
  1  2  1  0  0  0  0
  1 24  1  0  0  0  0
  1 25  1  0  0  0  0
  1 26  1  0  0  0  0
  2 22  1  0  0  0  0
  2  3  1  0  0  0  0
  2 40  1  0  0  0  0
  3  4  1  0  0  0  0
  3 27  1  0  0  0  0
  3 28  1  0  0  0  0
  4  5  1  0  0  0  0
  4 29  1  0  0  0  0
  4 30  1  0  0  0  0
  5  6  1  0  0  0  0
  5 21  1  0  0  0  0
  5 31  1  0  0  0  0
  6  7  1  0  0  0  0
  6 32  1  0  0  0  0
  7  8  2  0  0  0  0
  7  9  1  0  0  0  0
  9 10  1  0  0  0  0
  9 33  1  0  0  0  0
 10 19  1  0  0  0  0
 10 11  2  0  0  0  0
 11 12  1  0  0  0  0
 11 34  1  0  0  0  0
 12 13  1  0  0  0  0
 12 17  2  0  0  0  0
 13 14  1  0  0  0  0
 13 15  1  0  0  0  0
 13 16  1  0  0  0  0
 17 18  1  0  0  0  0
 17 35  1  0  0  0  0
 18 23  1  0  0  0  0
 18 19  1  0  0  0  0
 19 20  2  0  0  0  0
 21 22  1  0  0  0  0
 21 36  1  0  0  0  0
 21 37  1  0  0  0  0
 22 38  1  0  0  0  0
 22 39  1  0  0  0  0
M  CHG  1   2   1
M  END
> <s_m_source_file>
AV-unprocessed.smi

> <i_m_source_file_index>
1757

> <i_lp_mmshare_version>
43012

> <i_f3d_flags>
0

> <s_epik_input>
W0NIM11OMVtDSDJdW0NIMl1bQ0hdKFtDSDJdW0NIMl0xKVtOSF1DKD1PKVtOSF1jMltjSF1jKEMoRikoRilGKVtjSF1bbkhdYzI9Tw==

> <s_epik_cmdline>
J2VwaWtfcHl0aG9uJywgJy1waCcsICc3LjAnLCAnLXRuJywgJzgnLCAnLW1hJywgJzIwMCcsICctbWV0YWxfYmluZGluZycsICctaW1hZScsICc8aW5maWxlLm1hZT4nLCAnLW9tYWUnLCAnPG91dGZpbGUubWFlPic=

> <r_lp_tautomer_probability>
1

> <r_epik_Ionization_Penalty>
0.00859077

> <r_epik_Ionization_Penalty_Charging>
0.00857233

> <r_epik_Ionization_Penalty_Neutral>
1.84472e-05

> <r_epik_State_Penalty>
-0

> <r_epik_Charging_Adjusted_Penalty>
0.00857233

> <i_epik_Tot_Q>
1

> <i_epik_Tot_abs_Q>
1

> <r_epik_Metal_State_Penalty>
0.377538

> <b_epik_Metal_Only>
0

> <s_lp_Force_Field>
OPLS_2005

> <r_lp_Energy>
26.9081

> <b_lp_Chiralities_Consistent>
1

> <s_lp_Variant>
AV-unprocessed.smi:1757-1

> <Gold.Version>
5.8.1

> <Gold.Id.Protein>
6NUR|6NUR_protein|mol2

> <Gold.PLP.Fitness>
43.7001

> <Gold.PLP.PLP>
-36.4895

> <Gold.PLP.part.hbond>
-4.0000

> <Gold.PLP.part.metal>
0.0000

> <Gold.PLP.part.buried>
-3.0078

> <Gold.PLP.part.nonpolar>
-32.2308

> <Gold.PLP.part.repulsive>
3.4863

> <Gold.PLP.ligand.clash>
1.4240

> <Gold.PLP.ligand.torsion>
0.1851

> <Gold.PLP.Chemscore.Hbond>
3.0000

> <Gold.PLP.Chemscore.CHOScore>
0.0000

> <Gold.PLP.Chemscore.Metal>
0.0000

> <Gold.Chemscore.Hbonds>
donor molecule, donor type, donor heavy atom, donor atom, acceptor molecule, acceptor atom, score
      L1  H     6    32       P1 10175  1.00
      L1  H     9    33       P1 10175  1.00
      L1  H    18    23       P1  8028  1.00

> <Gold.PLP.Chemscore.Internal.Correction>
0.0047

> <Gold.Rescore>
     Score         DG    S(hbond)    S(metal)    S(lipo)     H(rot)  DE(clash)    DE(int)     intcor
     15.27     -20.45       2.93        0.00      66.34       1.00       2.37       2.81       ----

> <Gold.Chemscore.Fitness>
15.2730

> <Gold.Chemscore.DG>
-20.4537

> <Gold.Chemscore.ZeroCoef>
-5.4800

> <Gold.Chemscore.Hbond>
2.9257

> <Gold.Chemscore.Metal>
0.0000

> <Gold.Chemscore.Lipo>
66.3417

> <Gold.Chemscore.Internal_Hbond>
0.0000

> <Gold.Chemscore.DEClash>
2.3743

> <Gold.Chemscore.DEInternal>
2.8064

> <Gold.Chemscore.Rot>
1.0000

> <Gold.Chemscore.Internal.Correction>
   9.000000E+99

> <Gold.Chemscore.Hbonds>
donor molecule, donor type, donor heavy atom, donor atom, acceptor molecule, acceptor atom, score
      L1  H     6    32       P1 10175  1.00
      L1  H     9    33       P1 10175  0.90
      L1  H    18    23       P1  8028  0.98

> <Gold.Chemscore.Hbond.Weighted>
-9.7717

> <Gold.Chemscore.Metal.Weighted>
-0.0000

> <Gold.Chemscore.Lipo.Weighted>
-7.7620

> <Gold.Chemscore.Internal_Hbond.Weighted>
0.0000

> <Gold.Chemscore.DEClash.Weighted>
2.3743

> <Gold.Chemscore.DEInternal.Weighted>
2.8064

> <Gold.Chemscore.Rot.Weighted>
2.5600

> <Gold.Chemscore.Internal.Correction.Weighted>
   9.000000E+99

> <Gold.Protein.RotatedTorsions>
[ 6907 6896 6895 6894 ] final  178.75 input  -60.11 | X-H torsion
[ 7974 7965 7964 7962 ] final   33.35 input  175.53 | X-H torsion
[ 8008 7997 7996 7995 ] final  104.47 input   59.86 | X-H torsion
[ 10167 10162 10161 10158 ] final  167.82 input  -65.29 | X-H torsion
[ 10718 10713 10712 10709 ] final   84.59 input   66.30 | X-H torsion
[ 10763 10752 10751 10750 ] final  -86.42 input  -60.55 | X-H torsion
[ 11005 11000 10999 10996 ] final  -72.13 input  -57.11 | X-H torsion

> <Gold.Protein.ActiveResidues>
 VAL166  LYS551  ARG553  GLY616  TRP617  ASP618  TYR619  PRO620  LYS621  CYS622 
 ASP623  PHE694  ASN695  SER759  ASP760  ASP761  ALA762  ILE779  LEU786  VAL792 
 PHE793  MET794  SER795  GLU796  ALA797  LYS798  CYS799  TRP800  GLU811  SER814 

> <Gold.Protein.RotatedAtoms>
  151.6827  133.3312  159.3223 H   0  0  0  0  0  0  0  0  0  0  0  0  # atno 6907 bound_to 6896
  150.7815  134.6767  159.6430 H   0  0  0  0  0  0  0  0  0  0  0  0  # atno 6908 bound_to 6896
  152.3874  134.6499  160.0172 H   0  0  0  0  0  0  0  0  0  0  0  0  # atno 6909 bound_to 6896
  146.1426  139.6408  142.9152 H   0  0  0  0  0  0  0  0  0  0  0  0  # atno 7974 bound_to 7965
  156.1575  140.3147  155.8751 H   0  0  0  0  0  0  0  0  0  0  0  0  # atno 8008 bound_to 7997
  155.3848  140.0490  157.3059 H   0  0  0  0  0  0  0  0  0  0  0  0  # atno 8009 bound_to 7997
  154.5115  140.2166  155.9158 H   0  0  0  0  0  0  0  0  0  0  0  0  # atno 8010 bound_to 7997
  139.4954  144.3880  151.9548 H   0  0  0  0  0  0  0  0  0  0  0  0  # atno 10167 bound_to 10162
  157.6900  131.0139  150.2695 H   0  0  0  0  0  0  0  0  0  0  0  0  # atno 10718 bound_to 10713
  154.6223  135.5450  153.7589 H   0  0  0  0  0  0  0  0  0  0  0  0  # atno 10763 bound_to 10752
  153.0244  135.6415  154.1422 H   0  0  0  0  0  0  0  0  0  0  0  0  # atno 10764 bound_to 10752
  154.1356  135.2911  155.3154 H   0  0  0  0  0  0  0  0  0  0  0  0  # atno 10765 bound_to 10752
  141.1603  133.6837  156.7011 H   0  0  0  0  0  0  0  0  0  0  0  0  # atno 11005 bound_to 11000
  145.5011  141.0437  143.2540 LP  0  0  0  0  0  0  0  0  0  0  0  0  # atno 17320 bound_to 7965
  144.7810  139.6526  143.7154 LP  0  0  0  0  0  0  0  0  0  0  0  0  # atno 17321 bound_to 7965
  140.3318  144.3308  150.5986 LP  0  0  0  0  0  0  0  0  0  0  0  0  # atno 17342 bound_to 10162
  140.5639  143.2188  151.7717 LP  0  0  0  0  0  0  0  0  0  0  0  0  # atno 17343 bound_to 10162
  156.3260  130.3793  149.7533 LP  0  0  0  0  0  0  0  0  0  0  0  0  # atno 17370 bound_to 10713
  156.5088  130.8162  151.3161 LP  0  0  0  0  0  0  0  0  0  0  0  0  # atno 17371 bound_to 10713
  140.2958  134.8204  157.4055 LP  0  0  0  0  0  0  0  0  0  0  0  0  # atno 17394 bound_to 11000
  140.1306  134.5100  155.8109 LP  0  0  0  0  0  0  0  0  0  0  0  0  # atno 17395 bound_to 11000

$$$$
