AV-unprocessed.smi:2739|AV-procd|sdf|10550|dock3
  -GOLD-   2272015 03D 1   1.00000     0.00000
 Structure written by MMmdl.
 35 35  0  0  0  0  0  0  0  0  1 V2000
  152.9813  143.1834  161.9387 C   0  0  0  0  0  0  0  0  0  0  0  0
  152.1765  143.8941  160.8411 C   0  0  0  0  0  0  0  0  0  0  0  0
  152.8205  143.8040  159.4450 C   0  0  2  0  0  0  0  0  0  0  0  0
  152.0798  144.6809  158.4232 C   0  0  0  0  0  0  0  0  0  0  0  0
  152.8384  142.4181  158.9836 N   0  0  0  0  0  0  0  0  0  0  0  0
  151.7586  141.6412  158.8048 C   0  0  0  0  0  0  0  0  0  0  0  0
  150.6036  142.0264  158.9849 O   0  0  0  0  0  0  0  0  0  0  0  0
  152.0238  140.1994  158.3721 C   0  0  0  0  0  0  0  0  0  0  0  0
  151.4130  139.9302  157.0832 N   0  0  0  0  0  0  0  0  0  0  0  0
  151.9426  139.2425  156.0126 C   0  0  0  0  0  0  0  0  0  0  0  0
  151.0098  139.2640  155.0163 C   0  0  0  0  0  0  0  0  0  0  0  0
  149.9248  140.0022  155.5727 C   0  0  0  0  0  0  0  0  0  0  0  0
  148.6053  140.3544  154.9370 C   0  0  2  0  0  0  0  0  0  0  0  0
  147.7435  139.1066  154.7023 C   0  0  0  0  0  0  0  0  0  0  0  0
  148.7709  141.0186  153.7013 O   0  0  0  0  0  0  0  0  0  0  0  0
  150.1728  140.3935  156.8149 N   0  0  0  0  0  0  0  0  0  0  0  0
  152.5101  143.3196  162.9123 H   0  0  0  0  0  0  0  0  0  0  0  0
  153.9946  143.5813  162.0025 H   0  0  0  0  0  0  0  0  0  0  0  0
  153.0523  142.1113  161.7546 H   0  0  0  0  0  0  0  0  0  0  0  0
  151.1666  143.4829  160.8107 H   0  0  0  0  0  0  0  0  0  0  0  0
  152.0674  144.9438  161.1169 H   0  0  0  0  0  0  0  0  0  0  0  0
  153.8455  144.1700  159.5277 H   0  0  0  0  0  0  0  0  0  0  0  0
  152.0636  145.7240  158.7398 H   0  0  0  0  0  0  0  0  0  0  0  0
  151.0467  144.3551  158.2961 H   0  0  0  0  0  0  0  0  0  0  0  0
  152.5632  144.6430  157.4463 H   0  0  0  0  0  0  0  0  0  0  0  0
  153.7455  142.0087  158.8126 H   0  0  0  0  0  0  0  0  0  0  0  0
  153.0981  140.0263  158.2954 H   0  0  0  0  0  0  0  0  0  0  0  0
  151.6374  139.4992  159.1149 H   0  0  0  0  0  0  0  0  0  0  0  0
  152.9290  138.8038  156.0479 H   0  0  0  0  0  0  0  0  0  0  0  0
  151.0906  138.8213  154.0347 H   0  0  0  0  0  0  0  0  0  0  0  0
  148.0588  141.0359  155.5901 H   0  0  0  0  0  0  0  0  0  0  0  0
  147.5392  138.5888  155.6397 H   0  0  0  0  0  0  0  0  0  0  0  0
  148.2406  138.4018  154.0348 H   0  0  0  0  0  0  0  0  0  0  0  0
  146.7839  139.3690  154.2559 H   0  0  0  0  0  0  0  0  0  0  0  0
  148.5517  140.4155  153.0076 H   0  0  0  0  0  0  0  0  0  0  0  0
  1  2  1  0  0  0  0
  1 17  1  0  0  0  0
  1 18  1  0  0  0  0
  1 19  1  0  0  0  0
  2  3  1  0  0  0  0
  2 20  1  0  0  0  0
  2 21  1  0  0  0  0
  3  4  1  0  0  0  0
  3  5  1  0  0  0  0
  3 22  1  0  0  0  0
  4 23  1  0  0  0  0
  4 24  1  0  0  0  0
  4 25  1  0  0  0  0
  5  6  1  0  0  0  0
  5 26  1  0  0  0  0
  6  7  2  0  0  0  0
  6  8  1  0  0  0  0
  8  9  1  0  0  0  0
  8 27  1  0  0  0  0
  8 28  1  0  0  0  0
  9 16  1  0  0  0  0
  9 10  1  0  0  0  0
 10 11  2  0  0  0  0
 10 29  1  0  0  0  0
 11 12  1  0  0  0  0
 11 30  1  0  0  0  0
 12 13  1  0  0  0  0
 12 16  2  0  0  0  0
 13 14  1  0  0  0  0
 13 15  1  0  0  0  0
 13 31  1  0  0  0  0
 14 32  1  0  0  0  0
 14 33  1  0  0  0  0
 14 34  1  0  0  0  0
 15 35  1  0  0  0  0
M  END
> <s_m_source_file>
AV-unprocessed.smi

> <i_m_source_file_index>
2739

> <i_lp_mmshare_version>
43012

> <i_f3d_flags>
0

> <s_epik_input>
W0NIM11bQ0gyXVtDQEhdKFtDSDNdKVtOSF1DKD1PKVtDSDJdbjFbY0hdW2NIXWMobjEpW0NASF0oW0NIM10pW09IXQ==

> <s_epik_cmdline>
J2VwaWtfcHl0aG9uJywgJy1waCcsICc3LjAnLCAnLXRuJywgJzgnLCAnLW1hJywgJzIwMCcsICctbWV0YWxfYmluZGluZycsICctaW1hZScsICc8aW5maWxlLm1hZT4nLCAnLW9tYWUnLCAnPG91dGZpbGUubWFlPic=

> <r_lp_tautomer_probability>
1

> <r_epik_Ionization_Penalty>
5.22246e-06

> <r_epik_Ionization_Penalty_Charging>
0

> <r_epik_Ionization_Penalty_Neutral>
5.22246e-06

> <r_epik_State_Penalty>
-0

> <r_epik_Charging_Adjusted_Penalty>
0

> <i_epik_Tot_Q>
0

> <i_epik_Tot_abs_Q>
0

> <r_epik_Metal_State_Penalty>
-0

> <b_epik_Metal_Only>
0

> <s_lp_Force_Field>
OPLS_2005

> <r_lp_Energy>
0.862384

> <b_lp_Chiralities_Consistent>
1

> <s_lp_Variant>
AV-unprocessed.smi:2739-1

> <Gold.Version>
5.8.1

> <Gold.Id.Protein>
6NUR|6NUR_protein|mol2

> <Gold.PLP.Fitness>
44.2004

> <Gold.PLP.PLP>
-39.3033

> <Gold.PLP.part.hbond>
-2.4884

> <Gold.PLP.part.metal>
0.0000

> <Gold.PLP.part.buried>
-4.1466

> <Gold.PLP.part.nonpolar>
-32.5281

> <Gold.PLP.part.repulsive>
0.1141

> <Gold.PLP.ligand.clash>
0.0000

> <Gold.PLP.ligand.torsion>
0.3543

> <Gold.PLP.Chemscore.Hbond>
1.8525

> <Gold.PLP.Chemscore.CHOScore>
0.0000

> <Gold.PLP.Chemscore.Metal>
0.0000

> <Gold.Chemscore.Hbonds>
donor molecule, donor type, donor heavy atom, donor atom, acceptor molecule, acceptor atom, score
      L1  H    15    35       P1  7957  0.39
      P1  H  8011  8017       L1    15  0.35

> <Gold.PLP.Chemscore.Internal.Correction>
0.0483

> <Gold.Rescore>
     Score         DG    S(hbond)    S(metal)    S(lipo)     H(rot)  DE(clash)    DE(int)     intcor
     11.05     -14.22       1.24        0.00      90.53       2.34       0.05       3.12       ----

> <Gold.Chemscore.Fitness>
11.0532

> <Gold.Chemscore.DG>
-14.2158

> <Gold.Chemscore.ZeroCoef>
-5.4800

> <Gold.Chemscore.Hbond>
1.2415

> <Gold.Chemscore.Metal>
0.0000

> <Gold.Chemscore.Lipo>
90.5287

> <Gold.Chemscore.Internal_Hbond>
0.0000

> <Gold.Chemscore.DEClash>
0.0456

> <Gold.Chemscore.DEInternal>
3.1170

> <Gold.Chemscore.Rot>
2.3448

> <Gold.Chemscore.Internal.Correction>
   9.000000E+99

> <Gold.Chemscore.Hbonds>
donor molecule, donor type, donor heavy atom, donor atom, acceptor molecule, acceptor atom, score
      L1  H    15    35       P1  7957  0.40
      P1  H  8011  8017       L1    15  0.03

> <Gold.Chemscore.Hbond.Weighted>
-4.1467

> <Gold.Chemscore.Metal.Weighted>
-0.0000

> <Gold.Chemscore.Lipo.Weighted>
-10.5919

> <Gold.Chemscore.Internal_Hbond.Weighted>
0.0000

> <Gold.Chemscore.DEClash.Weighted>
0.0456

> <Gold.Chemscore.DEInternal.Weighted>
3.1170

> <Gold.Chemscore.Rot.Weighted>
6.0027

> <Gold.Chemscore.Internal.Correction.Weighted>
   9.000000E+99

> <Gold.Protein.RotatedTorsions>
[ 6907 6896 6895 6894 ] final -169.90 input  -60.11 | X-H torsion
[ 7974 7965 7964 7962 ] final  170.20 input  175.53 | X-H torsion
[ 8008 7997 7996 7995 ] final  -76.03 input   59.86 | X-H torsion
[ 10167 10162 10161 10158 ] final  -80.90 input  -65.29 | X-H torsion
[ 10718 10713 10712 10709 ] final  -75.67 input   66.30 | X-H torsion
[ 10763 10752 10751 10750 ] final   53.55 input  -60.55 | X-H torsion
[ 11005 11000 10999 10996 ] final  -83.08 input  -57.11 | X-H torsion

> <Gold.Protein.ActiveResidues>
 VAL166  LYS551  ARG553  GLY616  TRP617  ASP618  TYR619  PRO620  LYS621  CYS622 
 ASP623  PHE694  ASN695  SER759  ASP760  ASP761  ALA762  ILE779  LEU786  VAL792 
 PHE793  MET794  SER795  GLU796  ALA797  LYS798  CYS799  TRP800  GLU811  SER814 

> <Gold.Protein.RotatedAtoms>
  151.4990  133.3508  159.2865 H   0  0  0  0  0  0  0  0  0  0  0  0  # atno 6907 bound_to 6896
  150.8785  134.8174  159.7218 H   0  0  0  0  0  0  0  0  0  0  0  0  # atno 6908 bound_to 6896
  152.4747  134.4884  159.9739 H   0  0  0  0  0  0  0  0  0  0  0  0  # atno 6909 bound_to 6896
  144.7331  139.9166  143.6418 H   0  0  0  0  0  0  0  0  0  0  0  0  # atno 7974 bound_to 7965
  154.5469  140.0734  156.8603 H   0  0  0  0  0  0  0  0  0  0  0  0  # atno 8008 bound_to 7997
  155.3070  140.3388  155.4227 H   0  0  0  0  0  0  0  0  0  0  0  0  # atno 8009 bound_to 7997
  156.1926  140.1692  156.8048 H   0  0  0  0  0  0  0  0  0  0  0  0  # atno 8010 bound_to 7997
  140.4461  143.2498  151.8556 H   0  0  0  0  0  0  0  0  0  0  0  0  # atno 10167 bound_to 10162
  156.0200  130.4446  150.3077 H   0  0  0  0  0  0  0  0  0  0  0  0  # atno 10718 bound_to 10713
  152.9796  135.5775  154.4760 H   0  0  0  0  0  0  0  0  0  0  0  0  # atno 10763 bound_to 10752
  154.4315  135.2773  155.1911 H   0  0  0  0  0  0  0  0  0  0  0  0  # atno 10764 bound_to 10752
  154.3617  135.6187  153.5748 H   0  0  0  0  0  0  0  0  0  0  0  0  # atno 10765 bound_to 10752
  141.1660  133.7276  156.8666 H   0  0  0  0  0  0  0  0  0  0  0  0  # atno 11005 bound_to 11000
  146.0961  139.3953  143.0376 LP  0  0  0  0  0  0  0  0  0  0  0  0  # atno 17320 bound_to 7965
  145.7644  140.9922  143.1183 LP  0  0  0  0  0  0  0  0  0  0  0  0  # atno 17321 bound_to 7965
  139.4793  144.5174  151.8849 LP  0  0  0  0  0  0  0  0  0  0  0  0  # atno 17342 bound_to 10162
  140.4262  144.2177  150.5887 LP  0  0  0  0  0  0  0  0  0  0  0  0  # atno 17343 bound_to 10162
  157.1179  131.0239  151.3021 LP  0  0  0  0  0  0  0  0  0  0  0  0  # atno 17370 bound_to 10713
  157.4651  130.7676  149.7272 LP  0  0  0  0  0  0  0  0  0  0  0  0  # atno 17371 bound_to 10713
  140.1811  134.9033  157.2949 LP  0  0  0  0  0  0  0  0  0  0  0  0  # atno 17394 bound_to 11000
  140.2394  134.3813  155.7487 LP  0  0  0  0  0  0  0  0  0  0  0  0  # atno 17395 bound_to 11000

$$$$
