AV-unprocessed.smi:2812|AV-procd|sdf|10834|dock7
  -GOLD-   2272015273D 1   1.00000     0.00000
 Structure written by MMmdl.
 55 56  0  0  0  0  0  0  0  0  2 V2000
  151.2676  143.7831  158.4690 C   0  0  0  0  0  0  0  0  0  0  0  0
  152.1502  142.7399  159.1380 C   0  0  0  0  0  0  0  0  0  0  0  0
  152.6138  142.9840  160.4886 C   0  0  0  0  0  0  0  0  0  0  0  0
  153.4227  142.0947  161.0813 C   0  0  0  0  0  0  0  0  0  0  0  0
  153.8368  140.9249  160.4277 N   0  0  0  0  0  0  0  0  0  0  0  0
  154.7240  140.0150  161.1565 C   0  0  0  0  0  0  0  0  0  0  0  0
  153.4410  140.6217  159.1582 C   0  0  0  0  0  0  0  0  0  0  0  0
  153.8211  139.5906  158.5982 O   0  0  0  0  0  0  0  0  0  0  0  0
  152.5406  141.5956  158.5108 C   0  0  0  0  0  0  0  0  0  0  0  0
  152.1333  141.2809  157.2093 N   0  0  0  0  0  0  0  0  0  0  0  0
  151.6544  140.0853  156.8298 C   0  0  0  0  0  0  0  0  0  0  0  0
  151.4819  139.1291  157.5868 O   0  0  0  0  0  0  0  0  0  0  0  0
  151.3803  140.0548  155.5187 N   0  0  0  0  0  0  0  0  0  0  0  0
  150.8164  138.9067  154.8156 C   0  0  0  0  0  0  0  0  0  0  0  0
  149.2625  138.9548  154.7270 C   0  0  1  0  0  0  0  0  0  0  0  0
  148.8514  140.1170  153.7835 C   0  0  0  0  0  0  0  0  0  0  0  0
  147.3462  140.1757  153.5193 C   0  0  0  0  0  0  0  0  0  0  0  0
  146.8837  138.8303  152.9668 C   0  0  0  0  0  0  0  0  0  0  0  0
  147.2277  137.7191  153.9626 C   0  0  0  0  0  0  0  0  0  0  0  0
  148.6862  137.6505  154.2615 N   0  3  2  0  0  0  0  0  0  0  0  0
  148.9698  136.4898  155.1540 C   0  0  0  0  0  0  0  0  0  0  0  0
  150.3343  135.8477  154.8343 C   0  0  0  0  0  0  0  0  0  0  0  0
  150.1610  134.3794  154.4190 C   0  0  0  0  0  0  0  0  0  0  0  0
  151.3128  135.9599  156.0152 C   0  0  0  0  0  0  0  0  0  0  0  0
  151.3318  144.7388  158.9895 H   0  0  0  0  0  0  0  0  0  0  0  0
  150.2250  143.4657  158.4802 H   0  0  0  0  0  0  0  0  0  0  0  0
  151.5698  143.9510  157.4349 H   0  0  0  0  0  0  0  0  0  0  0  0
  152.3111  143.8748  161.0194 H   0  0  0  0  0  0  0  0  0  0  0  0
  153.7979  142.2238  162.0859 H   0  0  0  0  0  0  0  0  0  0  0  0
  154.2600  139.0336  161.2660 H   0  0  0  0  0  0  0  0  0  0  0  0
  154.9655  140.3736  162.1575 H   0  0  0  0  0  0  0  0  0  0  0  0
  155.6665  139.8880  160.6216 H   0  0  0  0  0  0  0  0  0  0  0  0
  152.3431  141.9631  156.4954 H   0  0  0  0  0  0  0  0  0  0  0  0
  151.5613  140.8847  154.9726 H   0  0  0  0  0  0  0  0  0  0  0  0
  151.2413  138.8917  153.8116 H   0  0  0  0  0  0  0  0  0  0  0  0
  151.1918  138.0122  155.3084 H   0  0  0  0  0  0  0  0  0  0  0  0
  148.8473  139.1522  155.7167 H   0  0  0  0  0  0  0  0  0  0  0  0
  149.1654  141.0747  154.1997 H   0  0  0  0  0  0  0  0  0  0  0  0
  149.3721  140.0146  152.8301 H   0  0  0  0  0  0  0  0  0  0  0  0
  146.8124  140.4087  154.4417 H   0  0  0  0  0  0  0  0  0  0  0  0
  147.1180  140.9736  152.8118 H   0  0  0  0  0  0  0  0  0  0  0  0
  145.8083  138.8504  152.7873 H   0  0  0  0  0  0  0  0  0  0  0  0
  147.3583  138.6333  152.0044 H   0  0  0  0  0  0  0  0  0  0  0  0
  146.6732  137.8802  154.8887 H   0  0  0  0  0  0  0  0  0  0  0  0
  146.8948  136.7621  153.5590 H   0  0  0  0  0  0  0  0  0  0  0  0
  148.9308  136.7483  156.2095 H   0  0  0  0  0  0  0  0  0  0  0  0
  148.1805  135.7444  155.0433 H   0  0  0  0  0  0  0  0  0  0  0  0
  150.7725  136.3729  153.9847 H   0  0  0  0  0  0  0  0  0  0  0  0
  149.7211  133.7887  155.2234 H   0  0  0  0  0  0  0  0  0  0  0  0
  151.1193  133.9276  154.1607 H   0  0  0  0  0  0  0  0  0  0  0  0
  149.5123  134.2899  153.5469 H   0  0  0  0  0  0  0  0  0  0  0  0
  150.9190  135.4672  156.9047 H   0  0  0  0  0  0  0  0  0  0  0  0
  151.5132  137.0003  156.2719 H   0  0  0  0  0  0  0  0  0  0  0  0
  152.2702  135.4961  155.7762 H   0  0  0  0  0  0  0  0  0  0  0  0
  149.1480  137.4514  153.3857 H   0  0  0  0  0  0  0  0  0  0  0  0
  1  2  1  0  0  0  0
  1 25  1  0  0  0  0
  1 26  1  0  0  0  0
  1 27  1  0  0  0  0
  2  9  2  0  0  0  0
  2  3  1  0  0  0  0
  3  4  2  0  0  0  0
  3 28  1  0  0  0  0
  4  5  1  0  0  0  0
  4 29  1  0  0  0  0
  5  6  1  0  0  0  0
  5  7  1  0  0  0  0
  6 30  1  0  0  0  0
  6 31  1  0  0  0  0
  6 32  1  0  0  0  0
  7  8  2  0  0  0  0
  7  9  1  0  0  0  0
  9 10  1  0  0  0  0
 10 11  1  0  0  0  0
 10 33  1  0  0  0  0
 11 12  2  0  0  0  0
 11 13  1  0  0  0  0
 13 14  1  0  0  0  0
 13 34  1  0  0  0  0
 14 15  1  0  0  0  0
 14 35  1  0  0  0  0
 14 36  1  0  0  0  0
 15 20  1  0  0  0  0
 15 16  1  0  0  0  0
 15 37  1  0  0  0  0
 16 17  1  0  0  0  0
 16 38  1  0  0  0  0
 16 39  1  0  0  0  0
 17 18  1  0  0  0  0
 17 40  1  0  0  0  0
 17 41  1  0  0  0  0
 18 19  1  0  0  0  0
 18 42  1  0  0  0  0
 18 43  1  0  0  0  0
 19 20  1  0  0  0  0
 19 44  1  0  0  0  0
 19 45  1  0  0  0  0
 20 21  1  0  0  0  0
 20 55  1  0  0  0  0
 21 22  1  0  0  0  0
 21 46  1  0  0  0  0
 21 47  1  0  0  0  0
 22 23  1  0  0  0  0
 22 24  1  0  0  0  0
 22 48  1  0  0  0  0
 23 49  1  0  0  0  0
 23 50  1  0  0  0  0
 23 51  1  0  0  0  0
 24 52  1  0  0  0  0
 24 53  1  0  0  0  0
 24 54  1  0  0  0  0
M  CHG  1  20   1
M  END
> <s_m_source_file>
AV-unprocessed.smi

> <i_m_source_file_index>
2812

> <i_lp_mmshare_version>
43012

> <i_f3d_flags>
0

> <s_epik_input>
W0NIM11jMVtjSF1bY0hdbihbQ0gzXSljKD1PKWMxW05IXUMoPU8pW05IXVtDSDJdW0NAQEhdMltDSDJdW0NIMl1bQ0gyXVtDSDJdTjJbQ0gyXVtDSF0oW0NIM10pW0NIM10=

> <s_epik_cmdline>
J2VwaWtfcHl0aG9uJywgJy1waCcsICc3LjAnLCAnLXRuJywgJzgnLCAnLW1hJywgJzIwMCcsICctbWV0YWxfYmluZGluZycsICctaW1hZScsICc8aW5maWxlLm1hZT4nLCAnLW9tYWUnLCAnPG91dGZpbGUubWFlPic=

> <r_lp_tautomer_probability>
1

> <r_epik_Ionization_Penalty>
0.0010902

> <r_epik_Ionization_Penalty_Charging>
0.00107091

> <r_epik_Ionization_Penalty_Neutral>
1.92854e-05

> <r_epik_State_Penalty>
0.000697184

> <r_epik_Charging_Adjusted_Penalty>
0.0017681

> <i_epik_Tot_Q>
1

> <i_epik_Tot_abs_Q>
1

> <r_epik_Metal_State_Penalty>
-0

> <b_epik_Metal_Only>
0

> <s_lp_Force_Field>
OPLS_2005

> <r_lp_Energy>
40.1667

> <b_lp_Chiralities_Consistent>
1

> <s_lp_Variant>
AV-unprocessed.smi:2812-2

> <Gold.Version>
5.8.1

> <Gold.Id.Protein>
6NUR|6NUR_protein|mol2

> <Gold.PLP.Fitness>
46.7780

> <Gold.PLP.PLP>
-40.6327

> <Gold.PLP.part.hbond>
-2.0000

> <Gold.PLP.part.metal>
0.0000

> <Gold.PLP.part.buried>
-0.5987

> <Gold.PLP.part.nonpolar>
-38.6589

> <Gold.PLP.part.repulsive>
0.2572

> <Gold.PLP.ligand.clash>
0.0000

> <Gold.PLP.ligand.torsion>
1.7714

> <Gold.PLP.Chemscore.Hbond>
2.9200

> <Gold.PLP.Chemscore.CHOScore>
0.0000

> <Gold.PLP.Chemscore.Metal>
0.0000

> <Gold.Chemscore.Hbonds>
donor molecule, donor type, donor heavy atom, donor atom, acceptor molecule, acceptor atom, score
      L1  H    20    55       P1  7948  1.60
      P1  H  7997  8009       L1     8  1.00

> <Gold.PLP.Chemscore.Internal.Correction>
0.9280

> <Gold.Rescore>
     Score         DG    S(hbond)    S(metal)    S(lipo)     H(rot)  DE(clash)    DE(int)     intcor
     14.18     -20.58       1.92        0.00     107.55       1.52       1.50       4.90       ----

> <Gold.Chemscore.Fitness>
14.1812

> <Gold.Chemscore.DG>
-20.5846

> <Gold.Chemscore.ZeroCoef>
-5.4800

> <Gold.Chemscore.Hbond>
1.9167

> <Gold.Chemscore.Metal>
0.0000

> <Gold.Chemscore.Lipo>
107.5481

> <Gold.Chemscore.Internal_Hbond>
0.0000

> <Gold.Chemscore.DEClash>
1.4992

> <Gold.Chemscore.DEInternal>
4.9042

> <Gold.Chemscore.Rot>
1.5157

> <Gold.Chemscore.Internal.Correction>
   9.000000E+99

> <Gold.Chemscore.Hbonds>
donor molecule, donor type, donor heavy atom, donor atom, acceptor molecule, acceptor atom, score
      L1  H    20    55       P1  7948  0.79
      P1  H  7997  8009       L1     8  0.70

> <Gold.Chemscore.Hbond.Weighted>
-6.4017

> <Gold.Chemscore.Metal.Weighted>
-0.0000

> <Gold.Chemscore.Lipo.Weighted>
-12.5831

> <Gold.Chemscore.Internal_Hbond.Weighted>
0.0000

> <Gold.Chemscore.DEClash.Weighted>
1.4992

> <Gold.Chemscore.DEInternal.Weighted>
4.9042

> <Gold.Chemscore.Rot.Weighted>
3.8803

> <Gold.Chemscore.Internal.Correction.Weighted>
   9.000000E+99

> <Gold.Protein.RotatedTorsions>
[ 6907 6896 6895 6894 ] final  171.14 input  -60.11 | X-H torsion
[ 7974 7965 7964 7962 ] final   56.42 input  175.53 | X-H torsion
[ 8008 7997 7996 7995 ] final  136.97 input   59.86 | X-H torsion
[ 10167 10162 10161 10158 ] final -168.70 input  -65.29 | X-H torsion
[ 10718 10713 10712 10709 ] final  148.77 input   66.30 | X-H torsion
[ 10763 10752 10751 10750 ] final   90.80 input  -60.55 | X-H torsion
[ 11005 11000 10999 10996 ] final  166.85 input  -57.11 | X-H torsion

> <Gold.Protein.ActiveResidues>
 VAL166  LYS551  ARG553  GLY616  TRP617  ASP618  TYR619  PRO620  LYS621  CYS622 
 ASP623  PHE694  ASN695  SER759  ASP760  ASP761  ALA762  ILE779  LEU786  VAL792 
 PHE793  MET794  SER795  GLU796  ALA797  LYS798  CYS799  TRP800  GLU811  SER814 

> <Gold.Protein.RotatedAtoms>
  151.8049  133.3374  159.3537 H   0  0  0  0  0  0  0  0  0  0  0  0  # atno 6907 bound_to 6896
  150.7346  134.5718  159.5904 H   0  0  0  0  0  0  0  0  0  0  0  0  # atno 6908 bound_to 6896
  152.3116  134.7491  160.0386 H   0  0  0  0  0  0  0  0  0  0  0  0  # atno 6909 bound_to 6896
  145.9400  139.3880  143.0369 H   0  0  0  0  0  0  0  0  0  0  0  0  # atno 7974 bound_to 7965
  156.3003  140.2431  156.3833 H   0  0  0  0  0  0  0  0  0  0  0  0  # atno 8008 bound_to 7997
  154.8681  140.0417  157.1727 H   0  0  0  0  0  0  0  0  0  0  0  0  # atno 8009 bound_to 7997
  154.8824  140.2951  155.5421 H   0  0  0  0  0  0  0  0  0  0  0  0  # atno 8010 bound_to 7997
  139.5968  144.1094  152.1699 H   0  0  0  0  0  0  0  0  0  0  0  0  # atno 10167 bound_to 10162
  157.3044  131.0876  151.1365 H   0  0  0  0  0  0  0  0  0  0  0  0  # atno 10718 bound_to 10713
  153.2014  135.4420  155.0271 H   0  0  0  0  0  0  0  0  0  0  0  0  # atno 10763 bound_to 10752
  154.8149  135.3311  154.7206 H   0  0  0  0  0  0  0  0  0  0  0  0  # atno 10764 bound_to 10752
  153.7651  135.6989  153.4973 H   0  0  0  0  0  0  0  0  0  0  0  0  # atno 10765 bound_to 10752
  140.2707  134.7829  157.3672 H   0  0  0  0  0  0  0  0  0  0  0  0  # atno 11005 bound_to 11000
  145.8313  140.9629  143.0847 LP  0  0  0  0  0  0  0  0  0  0  0  0  # atno 17320 bound_to 7965
  144.6777  140.0166  143.7484 LP  0  0  0  0  0  0  0  0  0  0  0  0  # atno 17321 bound_to 7965
  140.0681  144.5802  150.7212 LP  0  0  0  0  0  0  0  0  0  0  0  0  # atno 17342 bound_to 10162
  140.7219  143.2597  151.4251 LP  0  0  0  0  0  0  0  0  0  0  0  0  # atno 17343 bound_to 10162
  157.2711  130.6705  149.6020 LP  0  0  0  0  0  0  0  0  0  0  0  0  # atno 17370 bound_to 10713
  155.9673  130.4479  150.5597 LP  0  0  0  0  0  0  0  0  0  0  0  0  # atno 17371 bound_to 10713
  140.1376  134.5013  155.8056 LP  0  0  0  0  0  0  0  0  0  0  0  0  # atno 17394 bound_to 11000
  141.2178  133.6813  156.7153 LP  0  0  0  0  0  0  0  0  0  0  0  0  # atno 17395 bound_to 11000

$$$$
