AV-unprocessed.smi:2855|AV-procd|sdf|10985|dock7
  -GOLD-   2272015443D 1   1.00000     0.00000
 Structure written by MMmdl.
 46 47  0  0  0  0  0  0  0  0  2 V2000
  151.9785  145.7625  159.8917 C   0  0  0  0  0  0  0  0  0  0  0  0
  152.1038  144.3985  159.1984 C   0  0  2  0  0  0  0  0  0  0  0  0
  151.6309  144.4614  157.7377 C   0  0  0  0  0  0  0  0  0  0  0  0
  151.7548  143.0974  157.0408 C   0  0  0  0  0  0  0  0  0  0  0  0
  150.9754  141.9804  157.7807 C   0  0  1  0  0  0  0  0  0  0  0  0
  151.0692  140.6038  157.0510 C   0  0  0  0  0  0  0  0  0  0  0  0
  150.6339  140.6877  155.5753 C   0  0  0  0  0  0  0  0  0  0  0  0
  150.2489  139.5005  157.7480 C   0  0  0  0  0  0  0  0  0  0  0  0
  151.4163  141.9295  159.2714 C   0  0  1  0  0  0  0  0  0  0  0  0
  152.7628  141.3733  159.4008 N   0  0  0  0  0  0  0  0  0  0  0  0
  153.5239  141.4173  160.5035 C   0  0  0  0  0  0  0  0  0  0  0  0
  153.1885  141.9977  161.5366 O   0  0  0  0  0  0  0  0  0  0  0  0
  154.8820  140.7116  160.4128 C   0  0  0  0  0  0  0  0  0  0  0  0
  154.7497  139.2465  160.4162 N   0  0  0  0  0  0  0  0  0  0  0  0
  154.1642  138.6435  161.5432 C   0  0  0  0  0  0  0  0  0  0  0  0
  153.9948  137.3103  161.6275 C   0  0  0  0  0  0  0  0  0  0  0  0
  154.4372  136.4861  160.5096 C   0  0  0  0  0  0  0  0  0  0  0  0
  154.2949  135.2664  160.5713 O   0  0  0  0  0  0  0  0  0  0  0  0
  154.9953  137.1188  159.4363 N   0  5  0  0  0  0  0  0  0  0  0  0
  155.1593  138.4761  159.3631 C   0  0  0  0  0  0  0  0  0  0  0  0
  155.6629  139.0276  158.3833 O   0  0  0  0  0  0  0  0  0  0  0  0
  151.3215  143.3101  159.9541 C   0  0  0  0  0  0  0  0  0  0  0  0
  150.9403  146.0936  159.9315 H   0  0  0  0  0  0  0  0  0  0  0  0
  152.5519  146.5253  159.3645 H   0  0  0  0  0  0  0  0  0  0  0  0
  152.3532  145.7178  160.9146 H   0  0  0  0  0  0  0  0  0  0  0  0
  153.1603  144.1270  159.2012 H   0  0  0  0  0  0  0  0  0  0  0  0
  150.5930  144.7956  157.6984 H   0  0  0  0  0  0  0  0  0  0  0  0
  152.2134  145.2031  157.1901 H   0  0  0  0  0  0  0  0  0  0  0  0
  151.3892  143.2134  156.0217 H   0  0  0  0  0  0  0  0  0  0  0  0
  152.8077  142.8239  156.9584 H   0  0  0  0  0  0  0  0  0  0  0  0
  149.9239  142.2717  157.7764 H   0  0  0  0  0  0  0  0  0  0  0  0
  152.1105  140.2789  157.0565 H   0  0  0  0  0  0  0  0  0  0  0  0
  149.6299  141.1021  155.4804 H   0  0  0  0  0  0  0  0  0  0  0  0
  150.6279  139.7013  155.1105 H   0  0  0  0  0  0  0  0  0  0  0  0
  151.3109  141.3015  154.9829 H   0  0  0  0  0  0  0  0  0  0  0  0
  149.2048  139.7935  157.8620 H   0  0  0  0  0  0  0  0  0  0  0  0
  150.6430  139.2621  158.7357 H   0  0  0  0  0  0  0  0  0  0  0  0
  150.2719  138.5722  157.1768 H   0  0  0  0  0  0  0  0  0  0  0  0
  150.7246  141.2758  159.8044 H   0  0  0  0  0  0  0  0  0  0  0  0
  153.1270  140.8784  158.5998 H   0  0  0  0  0  0  0  0  0  0  0  0
  155.4167  141.0356  159.5175 H   0  0  0  0  0  0  0  0  0  0  0  0
  155.4958  141.0458  161.2501 H   0  0  0  0  0  0  0  0  0  0  0  0
  153.8584  139.3250  162.3233 H   0  0  0  0  0  0  0  0  0  0  0  0
  153.5399  136.8631  162.4989 H   0  0  0  0  0  0  0  0  0  0  0  0
  151.6737  143.2423  160.9842 H   0  0  0  0  0  0  0  0  0  0  0  0
  150.2720  143.6008  160.0163 H   0  0  0  0  0  0  0  0  0  0  0  0
  1  2  1  0  0  0  0
  1 23  1  0  0  0  0
  1 24  1  0  0  0  0
  1 25  1  0  0  0  0
  2 22  1  0  0  0  0
  2  3  1  0  0  0  0
  2 26  1  0  0  0  0
  3  4  1  0  0  0  0
  3 27  1  0  0  0  0
  3 28  1  0  0  0  0
  4  5  1  0  0  0  0
  4 29  1  0  0  0  0
  4 30  1  0  0  0  0
  5  6  1  0  0  0  0
  5  9  1  0  0  0  0
  5 31  1  0  0  0  0
  6  7  1  0  0  0  0
  6  8  1  0  0  0  0
  6 32  1  0  0  0  0
  7 33  1  0  0  0  0
  7 34  1  0  0  0  0
  7 35  1  0  0  0  0
  8 36  1  0  0  0  0
  8 37  1  0  0  0  0
  8 38  1  0  0  0  0
  9 10  1  0  0  0  0
  9 22  1  0  0  0  0
  9 39  1  0  0  0  0
 10 11  1  0  0  0  0
 10 40  1  0  0  0  0
 11 12  2  0  0  0  0
 11 13  1  0  0  0  0
 13 14  1  0  0  0  0
 13 41  1  0  0  0  0
 13 42  1  0  0  0  0
 14 20  1  0  0  0  0
 14 15  1  0  0  0  0
 15 16  2  0  0  0  0
 15 43  1  0  0  0  0
 16 17  1  0  0  0  0
 16 44  1  0  0  0  0
 17 18  2  0  0  0  0
 17 19  1  0  0  0  0
 19 20  1  0  0  0  0
 20 21  2  0  0  0  0
 22 45  1  0  0  0  0
 22 46  1  0  0  0  0
M  CHG  1  19  -1
M  END
> <s_m_source_file>
AV-unprocessed.smi

> <i_m_source_file_index>
2855

> <i_lp_mmshare_version>
43012

> <i_f3d_flags>
0

> <s_epik_input>
W0NIM11bQ0BASF0xW0NIMl1bQ0gyXVtDQEBIXShbQ0hdKFtDSDNdKVtDSDNdKVtDQEhdKFtDSDJdMSlbTkhdQyg9TylbQ0gyXW4yW2NIXVtjSF1jKD1PKVtuSF1jMj1P

> <s_epik_cmdline>
J2VwaWtfcHl0aG9uJywgJy1waCcsICc3LjAnLCAnLXRuJywgJzgnLCAnLW1hJywgJzIwMCcsICctbWV0YWxfYmluZGluZycsICctaW1hZScsICc8aW5maWxlLm1hZT4nLCAnLW9tYWUnLCAnPG91dGZpbGUubWFlPic=

> <r_lp_tautomer_probability>
0.999537

> <r_epik_Ionization_Penalty>
3.12102

> <r_epik_Ionization_Penalty_Charging>
2.9581e-08

> <r_epik_Ionization_Penalty_Neutral>
3.12102

> <r_epik_State_Penalty>
3.12011

> <r_epik_Charging_Adjusted_Penalty>
3.12011

> <i_epik_Tot_Q>
-1

> <i_epik_Tot_abs_Q>
1

> <r_epik_Metal_State_Penalty>
0.463583

> <b_epik_Metal_Only>
1

> <s_lp_Force_Field>
OPLS_2005

> <r_lp_Energy>
22.0986

> <b_lp_Chiralities_Consistent>
1

> <s_lp_Variant>
AV-unprocessed.smi:2855-9

> <Gold.Version>
5.8.1

> <Gold.Id.Protein>
6NUR|6NUR_protein|mol2

> <Gold.PLP.Fitness>
44.5043

> <Gold.PLP.PLP>
-39.1906

> <Gold.PLP.part.hbond>
-1.8128

> <Gold.PLP.part.metal>
0.0000

> <Gold.PLP.part.buried>
-5.1717

> <Gold.PLP.part.nonpolar>
-33.4216

> <Gold.PLP.part.repulsive>
0.1525

> <Gold.PLP.ligand.clash>
0.0000

> <Gold.PLP.ligand.torsion>
0.3501

> <Gold.PLP.Chemscore.Hbond>
1.9913

> <Gold.PLP.Chemscore.CHOScore>
0.0000

> <Gold.PLP.Chemscore.Metal>
0.0000

> <Gold.Chemscore.Hbonds>
donor molecule, donor type, donor heavy atom, donor atom, acceptor molecule, acceptor atom, score
      P1  H  6896  6909       L1    18  1.00
      P1  H  7997  8010       L1    21  0.92

> <Gold.PLP.Chemscore.Internal.Correction>
0.0403

> <Gold.Rescore>
     Score         DG    S(hbond)    S(metal)    S(lipo)     H(rot)  DE(clash)    DE(int)     intcor
     17.46     -20.28       1.95        0.00     110.25       1.81       1.03       1.78       ----

> <Gold.Chemscore.Fitness>
17.4609

> <Gold.Chemscore.DG>
-20.2760

> <Gold.Chemscore.ZeroCoef>
-5.4800

> <Gold.Chemscore.Hbond>
1.9550

> <Gold.Chemscore.Metal>
0.0000

> <Gold.Chemscore.Lipo>
110.2549

> <Gold.Chemscore.Internal_Hbond>
0.0000

> <Gold.Chemscore.DEClash>
1.0317

> <Gold.Chemscore.DEInternal>
1.7833

> <Gold.Chemscore.Rot>
1.8100

> <Gold.Chemscore.Internal.Correction>
   9.000000E+99

> <Gold.Chemscore.Hbonds>
donor molecule, donor type, donor heavy atom, donor atom, acceptor molecule, acceptor atom, score
      P1  H  6896  6909       L1    18  0.88
      P1  H  7997  8010       L1    21  0.84

> <Gold.Chemscore.Hbond.Weighted>
-6.5296

> <Gold.Chemscore.Metal.Weighted>
-0.0000

> <Gold.Chemscore.Lipo.Weighted>
-12.8998

> <Gold.Chemscore.Internal_Hbond.Weighted>
0.0000

> <Gold.Chemscore.DEClash.Weighted>
1.0317

> <Gold.Chemscore.DEInternal.Weighted>
1.7833

> <Gold.Chemscore.Rot.Weighted>
4.6335

> <Gold.Chemscore.Internal.Correction.Weighted>
   9.000000E+99

> <Gold.Protein.RotatedTorsions>
[ 6907 6896 6895 6894 ] final -175.23 input  -60.11 | X-H torsion
[ 7974 7965 7964 7962 ] final   86.86 input  175.53 | X-H torsion
[ 8008 7997 7996 7995 ] final   -2.73 input   59.86 | X-H torsion
[ 10167 10162 10161 10158 ] final  119.37 input  -65.29 | X-H torsion
[ 10718 10713 10712 10709 ] final -150.52 input   66.30 | X-H torsion
[ 10763 10752 10751 10750 ] final  137.89 input  -60.55 | X-H torsion
[ 11005 11000 10999 10996 ] final  141.16 input  -57.11 | X-H torsion

> <Gold.Protein.ActiveResidues>
 VAL166  LYS551  ARG553  GLY616  TRP617  ASP618  TYR619  PRO620  LYS621  CYS622 
 ASP623  PHE694  ASN695  SER759  ASP760  ASP761  ALA762  ILE779  LEU786  VAL792 
 PHE793  MET794  SER795  GLU796  ALA797  LYS798  CYS799  TRP800  GLU811  SER814 

> <Gold.Protein.RotatedAtoms>
  151.5853  133.3373  159.3016 H   0  0  0  0  0  0  0  0  0  0  0  0  # atno 6907 bound_to 6896
  150.8290  134.7538  159.6849 H   0  0  0  0  0  0  0  0  0  0  0  0  # atno 6908 bound_to 6896
  152.4376  134.5661  159.9959 H   0  0  0  0  0  0  0  0  0  0  0  0  # atno 6909 bound_to 6896
  145.5667  139.2309  143.2429 H   0  0  0  0  0  0  0  0  0  0  0  0  # atno 7974 bound_to 7965
  154.6326  140.2527  155.7416 H   0  0  0  0  0  0  0  0  0  0  0  0  # atno 8008 bound_to 7997
  156.2487  140.2904  156.0604 H   0  0  0  0  0  0  0  0  0  0  0  0  # atno 8009 bound_to 7997
  155.1721  140.0387  157.2855 H   0  0  0  0  0  0  0  0  0  0  0  0  # atno 8010 bound_to 7997
  139.6051  144.7067  151.2973 H   0  0  0  0  0  0  0  0  0  0  0  0  # atno 10167 bound_to 10162
  156.4472  130.8150  151.2381 H   0  0  0  0  0  0  0  0  0  0  0  0  # atno 10718 bound_to 10713
  153.8805  135.3045  155.3445 H   0  0  0  0  0  0  0  0  0  0  0  0  # atno 10763 bound_to 10752
  154.7764  135.4859  153.9756 H   0  0  0  0  0  0  0  0  0  0  0  0  # atno 10764 bound_to 10752
  153.1354  135.6813  153.9208 H   0  0  0  0  0  0  0  0  0  0  0  0  # atno 10765 bound_to 10752
  140.0381  134.9319  157.0790 H   0  0  0  0  0  0  0  0  0  0  0  0  # atno 11005 bound_to 11000
  146.1813  140.6493  142.9188 LP  0  0  0  0  0  0  0  0  0  0  0  0  # atno 17320 bound_to 7965
  144.7457  140.5061  143.6837 LP  0  0  0  0  0  0  0  0  0  0  0  0  # atno 17321 bound_to 7965
  140.7278  143.6952  150.7890 LP  0  0  0  0  0  0  0  0  0  0  0  0  # atno 17342 bound_to 10162
  140.0536  143.5225  152.2662 LP  0  0  0  0  0  0  0  0  0  0  0  0  # atno 17343 bound_to 10162
  157.7504  131.0149  150.3484 LP  0  0  0  0  0  0  0  0  0  0  0  0  # atno 17370 bound_to 10713
  156.3854  130.3888  149.7070 LP  0  0  0  0  0  0  0  0  0  0  0  0  # atno 17371 bound_to 10713
  140.4115  134.1976  155.7163 LP  0  0  0  0  0  0  0  0  0  0  0  0  # atno 17394 bound_to 11000
  141.1868  133.8294  157.1055 LP  0  0  0  0  0  0  0  0  0  0  0  0  # atno 17395 bound_to 11000

$$$$
