AV-unprocessed.smi:864|AV-procd|sdf|3986|dock1
  -GOLD-   22720 1463D 1   1.00000     0.00000
 Structure written by MMmdl.
 44 46  0  0  0  0  0  0  0  0  1 V2000
  142.6444  136.3177  152.9289 C   0  0  0  0  0  0  0  0  0  0  0  0
  143.9484  137.0581  153.1405 C   0  0  0  0  0  0  0  0  0  0  0  0
  144.1519  137.8538  154.2877 C   0  0  0  0  0  0  0  0  0  0  0  0
  145.3827  138.5232  154.4302 C   0  0  0  0  0  0  0  0  0  0  0  0
  146.3594  138.3707  153.4254 C   0  0  0  0  0  0  0  0  0  0  0  0
  147.6974  139.0840  153.5247 C   0  0  0  0  0  0  0  0  0  0  0  0
  147.5707  140.6047  153.7538 C   0  0  0  0  0  0  0  0  0  0  0  0
  148.2175  141.0527  154.9837 N   0  0  0  0  0  0  0  0  0  0  0  0
  149.5337  140.9910  155.2255 C   0  0  0  0  0  0  0  0  0  0  0  0
  150.3546  140.4910  154.4561 O   0  0  0  0  0  0  0  0  0  0  0  0
  149.8536  141.5773  156.3869 N   0  0  0  0  0  0  0  0  0  0  0  0
  151.2188  141.7847  156.8609 C   0  0  2  0  0  0  0  0  0  0  0  0
  151.5213  140.9567  158.1166 C   0  0  0  0  0  0  0  0  0  0  0  0
  152.1159  141.9677  159.0824 C   0  0  0  0  0  0  0  0  0  0  0  0
  152.5283  141.6518  160.1978 O   0  0  0  0  0  0  0  0  0  0  0  0
  152.1156  143.2018  158.5644 N   0  0  0  0  0  0  0  0  0  0  0  0
  152.4794  144.3890  159.2834 C   0  0  0  0  0  0  0  0  0  0  0  0
  151.8897  144.6993  160.6467 C   0  0  0  0  0  0  0  0  0  0  0  0
  151.4377  145.4746  159.4345 C   0  0  0  0  0  0  0  0  0  0  0  0
  151.4536  143.2521  157.2688 C   0  0  0  0  0  0  0  0  0  0  0  0
  146.0577  137.5455  152.3206 C   0  0  0  0  0  0  0  0  0  0  0  0
  144.8791  136.9039  152.1732 N   0  0  0  0  0  0  0  0  0  0  0  0
  141.9306  136.5386  153.7229 H   0  0  0  0  0  0  0  0  0  0  0  0
  142.8180  135.2413  152.9163 H   0  0  0  0  0  0  0  0  0  0  0  0
  142.1946  136.6051  151.9780 H   0  0  0  0  0  0  0  0  0  0  0  0
  143.3845  137.9524  155.0415 H   0  0  0  0  0  0  0  0  0  0  0  0
  145.5707  139.1449  155.2932 H   0  0  0  0  0  0  0  0  0  0  0  0
  148.2777  138.6387  154.3333 H   0  0  0  0  0  0  0  0  0  0  0  0
  148.2647  138.8940  152.6126 H   0  0  0  0  0  0  0  0  0  0  0  0
  148.0481  141.1342  152.9288 H   0  0  0  0  0  0  0  0  0  0  0  0
  146.5221  140.9061  153.7482 H   0  0  0  0  0  0  0  0  0  0  0  0
  147.6253  141.4875  155.6760 H   0  0  0  0  0  0  0  0  0  0  0  0
  149.1091  141.9583  156.9523 H   0  0  0  0  0  0  0  0  0  0  0  0
  151.9278  141.5028  156.0797 H   0  0  0  0  0  0  0  0  0  0  0  0
  150.6225  140.5229  158.5574 H   0  0  0  0  0  0  0  0  0  0  0  0
  152.2291  140.1527  157.9125 H   0  0  0  0  0  0  0  0  0  0  0  0
  153.5042  144.7294  159.1418 H   0  0  0  0  0  0  0  0  0  0  0  0
  151.1732  144.0127  161.0917 H   0  0  0  0  0  0  0  0  0  0  0  0
  152.5295  145.2166  161.3586 H   0  0  0  0  0  0  0  0  0  0  0  0
  151.7717  146.5061  159.3435 H   0  0  0  0  0  0  0  0  0  0  0  0
  150.4367  145.2742  159.0572 H   0  0  0  0  0  0  0  0  0  0  0  0
  152.0713  143.7632  156.5296 H   0  0  0  0  0  0  0  0  0  0  0  0
  150.5172  143.8047  157.3687 H   0  0  0  0  0  0  0  0  0  0  0  0
  146.7757  137.4054  151.5257 H   0  0  0  0  0  0  0  0  0  0  0  0
  1  2  1  0  0  0  0
  1 23  1  0  0  0  0
  1 24  1  0  0  0  0
  1 25  1  0  0  0  0
  2 22  1  0  0  0  0
  2  3  2  0  0  0  0
  3  4  1  0  0  0  0
  3 26  1  0  0  0  0
  4  5  2  0  0  0  0
  4 27  1  0  0  0  0
  5  6  1  0  0  0  0
  5 21  1  0  0  0  0
  6  7  1  0  0  0  0
  6 28  1  0  0  0  0
  6 29  1  0  0  0  0
  7  8  1  0  0  0  0
  7 30  1  0  0  0  0
  7 31  1  0  0  0  0
  8  9  1  0  0  0  0
  8 32  1  0  0  0  0
  9 10  2  0  0  0  0
  9 11  1  0  0  0  0
 11 12  1  0  0  0  0
 11 33  1  0  0  0  0
 12 20  1  0  0  0  0
 12 13  1  0  0  0  0
 12 34  1  0  0  0  0
 13 14  1  0  0  0  0
 13 35  1  0  0  0  0
 13 36  1  0  0  0  0
 14 15  2  0  0  0  0
 14 16  1  0  0  0  0
 16 17  1  0  0  0  0
 16 20  1  0  0  0  0
 17 19  1  0  0  0  0
 17 18  1  0  0  0  0
 17 37  1  0  0  0  0
 18 19  1  0  0  0  0
 18 38  1  0  0  0  0
 18 39  1  0  0  0  0
 19 40  1  0  0  0  0
 19 41  1  0  0  0  0
 20 42  1  0  0  0  0
 20 43  1  0  0  0  0
 21 22  2  0  0  0  0
 21 44  1  0  0  0  0
M  END
> <s_m_source_file>
AV-unprocessed.smi

> <i_m_source_file_index>
864

> <i_lp_mmshare_version>
43012

> <i_f3d_flags>
0

> <s_epik_input>
W0NIM11jMVtjSF1bY0hdYyhbY0hdbjEpW0NIMl1bQ0gyXVtOSF1DKD1PKVtOSF1bQ0BASF0yW0NIMl1DKD1PKU4oW0NIMl0yKVtDSF0zW0NIMl1bQ0gyXTM=

> <s_epik_cmdline>
J2VwaWtfcHl0aG9uJywgJy1waCcsICc3LjAnLCAnLXRuJywgJzgnLCAnLW1hJywgJzIwMCcsICctbWV0YWxfYmluZGluZycsICctaW1hZScsICc8aW5maWxlLm1hZT4nLCAnLW9tYWUnLCAnPG91dGZpbGUubWFlPic=

> <r_epik_Ionization_Penalty>
0.0559435

> <r_epik_Ionization_Penalty_Charging>
0

> <r_epik_Ionization_Penalty_Neutral>
0.0559435

> <r_epik_State_Penalty>
0.0481757

> <r_epik_Charging_Adjusted_Penalty>
0.0481757

> <i_epik_Tot_Q>
0

> <i_epik_Tot_abs_Q>
0

> <r_epik_Metal_State_Penalty>
0.0439988

> <b_epik_Metal_Only>
0

> <s_lp_Force_Field>
OPLS_2005

> <r_lp_Energy>
33.3792

> <b_lp_Chiralities_Consistent>
1

> <s_lp_Variant>
AV-unprocessed.smi:864-1

> <Gold.Version>
5.8.1

> <Gold.Id.Protein>
6NUR|6NUR_protein|mol2

> <Gold.PLP.Fitness>
44.2802

> <Gold.PLP.PLP>
-39.7851

> <Gold.PLP.part.hbond>
-1.0000

> <Gold.PLP.part.metal>
0.0000

> <Gold.PLP.part.buried>
-5.8511

> <Gold.PLP.part.nonpolar>
-33.6815

> <Gold.PLP.part.repulsive>
0.7429

> <Gold.PLP.ligand.clash>
0.0000

> <Gold.PLP.ligand.torsion>
0.6025

> <Gold.PLP.Chemscore.Hbond>
0.9440

> <Gold.PLP.Chemscore.CHOScore>
0.8498

> <Gold.PLP.Chemscore.Metal>
0.0000

> <Gold.Chemscore.Hbonds>
donor molecule, donor type, donor heavy atom, donor atom, acceptor molecule, acceptor atom, score
      P1  H  7989  7998       L1    10  0.96
      L1  C    21    44       P1  7948  0.88

> <Gold.PLP.Chemscore.Internal.Correction>
0.3186

> <Gold.Rescore>
     Score         DG    S(hbond)    S(metal)    S(lipo)     H(rot)  DE(clash)    DE(int)     intcor
     14.50     -15.24       0.98        0.00      93.93       1.75       0.08       0.66       ----

> <Gold.Chemscore.Fitness>
14.4986

> <Gold.Chemscore.DG>
-15.2416

> <Gold.Chemscore.ZeroCoef>
-5.4800

> <Gold.Chemscore.Hbond>
0.9750

> <Gold.Chemscore.Metal>
0.0000

> <Gold.Chemscore.Lipo>
93.9285

> <Gold.Chemscore.Internal_Hbond>
0.0000

> <Gold.Chemscore.DEClash>
0.0845

> <Gold.Chemscore.DEInternal>
0.6584

> <Gold.Chemscore.Rot>
1.7518

> <Gold.Chemscore.Internal.Correction>
   9.000000E+99

> <Gold.Chemscore.Hbonds>
donor molecule, donor type, donor heavy atom, donor atom, acceptor molecule, acceptor atom, score
      P1  H  7989  7998       L1    10  0.92

> <Gold.Chemscore.Hbond.Weighted>
-3.2565

> <Gold.Chemscore.Metal.Weighted>
-0.0000

> <Gold.Chemscore.Lipo.Weighted>
-10.9896

> <Gold.Chemscore.Internal_Hbond.Weighted>
0.0000

> <Gold.Chemscore.DEClash.Weighted>
0.0845

> <Gold.Chemscore.DEInternal.Weighted>
0.6584

> <Gold.Chemscore.Rot.Weighted>
4.4846

> <Gold.Chemscore.Internal.Correction.Weighted>
   9.000000E+99

> <Gold.Protein.RotatedTorsions>
[ 6907 6896 6895 6894 ] final  -45.94 input  -60.11 | X-H torsion
[ 7974 7965 7964 7962 ] final  -75.79 input  175.53 | X-H torsion
[ 8008 7997 7996 7995 ] final -101.79 input   59.86 | X-H torsion
[ 10167 10162 10161 10158 ] final   39.85 input  -65.29 | X-H torsion
[ 10718 10713 10712 10709 ] final  142.09 input   66.30 | X-H torsion
[ 10763 10752 10751 10750 ] final  -31.19 input  -60.55 | X-H torsion
[ 11005 11000 10999 10996 ] final  -83.44 input  -57.11 | X-H torsion

> <Gold.Protein.ActiveResidues>
 VAL166  LYS551  ARG553  GLY616  TRP617  ASP618  TYR619  PRO620  LYS621  CYS622 
 ASP623  PHE694  ASN695  SER759  ASP760  ASP761  ALA762  ILE779  LEU786  VAL792 
 PHE793  MET794  SER795  GLU796  ALA797  LYS798  CYS799  TRP800  GLU811  SER814 

> <Gold.Protein.RotatedAtoms>
  150.9166  134.8583  159.7460 H   0  0  0  0  0  0  0  0  0  0  0  0  # atno 6907 bound_to 6896
  152.4971  134.4280  159.9513 H   0  0  0  0  0  0  0  0  0  0  0  0  # atno 6908 bound_to 6896
  151.4318  133.3628  159.2805 H   0  0  0  0  0  0  0  0  0  0  0  0  # atno 6909 bound_to 6896
  145.6214  140.9362  143.1136 H   0  0  0  0  0  0  0  0  0  0  0  0  # atno 7974 bound_to 7965
  154.8475  140.0432  157.1582 H   0  0  0  0  0  0  0  0  0  0  0  0  # atno 8008 bound_to 7997
  154.8979  140.2996  155.5313 H   0  0  0  0  0  0  0  0  0  0  0  0  # atno 8009 bound_to 7997
  156.2995  140.2381  156.4003 H   0  0  0  0  0  0  0  0  0  0  0  0  # atno 8010 bound_to 7997
  140.3799  144.1993  150.6131 H   0  0  0  0  0  0  0  0  0  0  0  0  # atno 10167 bound_to 10162
  157.3846  131.0996  151.0706 H   0  0  0  0  0  0  0  0  0  0  0  0  # atno 10718 bound_to 10713
  153.7933  135.6896  153.4868 H   0  0  0  0  0  0  0  0  0  0  0  0  # atno 10763 bound_to 10752
  153.1736  135.4533  154.9933 H   0  0  0  0  0  0  0  0  0  0  0  0  # atno 10764 bound_to 10752
  154.8036  135.3347  154.7427 H   0  0  0  0  0  0  0  0  0  0  0  0  # atno 10765 bound_to 10752
  141.1657  133.7294  156.8720 H   0  0  0  0  0  0  0  0  0  0  0  0  # atno 11005 bound_to 11000
  144.7230  139.7968  143.7375 LP  0  0  0  0  0  0  0  0  0  0  0  0  # atno 17320 bound_to 7965
  146.1428  139.4490  143.0098 LP  0  0  0  0  0  0  0  0  0  0  0  0  # atno 17321 bound_to 7965
  140.4948  143.2336  151.8766 LP  0  0  0  0  0  0  0  0  0  0  0  0  # atno 17342 bound_to 10162
  139.4796  144.5126  151.8912 LP  0  0  0  0  0  0  0  0  0  0  0  0  # atno 17343 bound_to 10162
  157.1762  130.6289  149.5657 LP  0  0  0  0  0  0  0  0  0  0  0  0  # atno 17370 bound_to 10713
  155.9783  130.4768  150.6650 LP  0  0  0  0  0  0  0  0  0  0  0  0  # atno 17371 bound_to 10713
  140.1775  134.9057  157.2908 LP  0  0  0  0  0  0  0  0  0  0  0  0  # atno 17394 bound_to 11000
  140.2433  134.3770  155.7472 LP  0  0  0  0  0  0  0  0  0  0  0  0  # atno 17395 bound_to 11000

$$$$
