AV-unprocessed.smi:1971|AV-procd|sdf|7964|dock2
  -GOLD-   2272010133D 1   1.00000     0.00000
 Structure written by MMmdl.
 44 45  0  0  0  0  0  0  0  0  2 V2000
  150.1231  137.1723  158.2268 C   0  0  0  0  0  0  0  0  0  0  0  0
  150.5686  138.0242  157.0294 C   0  0  0  0  0  0  0  0  0  0  0  0
  150.5722  137.2581  155.7806 N   0  0  0  0  0  0  0  0  0  0  0  0
  149.2741  136.6374  155.5027 C   0  0  0  0  0  0  0  0  0  0  0  0
  148.2085  137.6782  155.0992 C   0  0  0  0  0  0  0  0  0  0  0  0
  148.6594  138.4388  153.9043 N   0  3  0  0  0  0  0  0  0  0  0  0
  147.6543  139.3657  153.3056 C   0  0  2  0  0  0  0  0  0  0  0  0
  147.4091  140.6270  154.1635 C   0  0  0  0  0  0  0  0  0  0  0  0
  146.3498  138.6112  152.9710 C   0  0  0  0  0  0  0  0  0  0  0  0
  146.6166  137.3011  152.3859 N   0  0  0  0  0  0  0  0  0  0  0  0
  145.6704  136.4443  151.9775 C   0  0  0  0  0  0  0  0  0  0  0  0
  144.4646  136.6741  152.0726 O   0  0  0  0  0  0  0  0  0  0  0  0
  146.2110  135.3254  151.4636 N   0  0  0  0  0  0  0  0  0  0  0  0
  145.5418  134.2168  150.8809 C   0  0  0  0  0  0  0  0  0  0  0  0
  144.3254  134.2767  150.3262 N   0  0  0  0  0  0  0  0  0  0  0  0
  143.9159  133.0386  149.8248 C   0  0  0  0  0  0  0  0  0  0  0  0
  144.8397  132.0397  150.0071 C   0  0  0  0  0  0  0  0  0  0  0  0
  146.2702  132.6185  150.8186 S   0  0  0  0  0  0  0  0  0  0  0  0
  149.9770  139.0706  154.1646 C   0  0  0  0  0  0  0  0  0  0  0  0
  151.0071  138.0052  154.5951 C   0  0  0  0  0  0  0  0  0  0  0  0
  149.9979  137.7972  159.1112 H   0  0  0  0  0  0  0  0  0  0  0  0
  150.8533  136.4037  158.4780 H   0  0  0  0  0  0  0  0  0  0  0  0
  149.1677  136.6840  158.0321 H   0  0  0  0  0  0  0  0  0  0  0  0
  149.8615  138.8480  156.9245 H   0  0  0  0  0  0  0  0  0  0  0  0
  151.5398  138.4756  157.2291 H   0  0  0  0  0  0  0  0  0  0  0  0
  149.3994  135.9117  154.6979 H   0  0  0  0  0  0  0  0  0  0  0  0
  148.9420  136.0724  156.3744 H   0  0  0  0  0  0  0  0  0  0  0  0
  147.2765  137.1573  154.8835 H   0  0  0  0  0  0  0  0  0  0  0  0
  148.0028  138.3517  155.9315 H   0  0  0  0  0  0  0  0  0  0  0  0
  148.0645  139.6993  152.3511 H   0  0  0  0  0  0  0  0  0  0  0  0
  146.7929  141.3520  153.6315 H   0  0  0  0  0  0  0  0  0  0  0  0
  148.3408  141.1322  154.4166 H   0  0  0  0  0  0  0  0  0  0  0  0
  146.8924  140.3896  155.0936 H   0  0  0  0  0  0  0  0  0  0  0  0
  145.7541  138.4700  153.8739 H   0  0  0  0  0  0  0  0  0  0  0  0
  145.7428  139.1985  152.2811 H   0  0  0  0  0  0  0  0  0  0  0  0
  147.5839  137.0330  152.2772 H   0  0  0  0  0  0  0  0  0  0  0  0
  147.2183  135.2643  151.4745 H   0  0  0  0  0  0  0  0  0  0  0  0
  142.9484  132.9582  149.3518 H   0  0  0  0  0  0  0  0  0  0  0  0
  144.7655  131.0033  149.7133 H   0  0  0  0  0  0  0  0  0  0  0  0
  150.3336  139.5558  153.2554 H   0  0  0  0  0  0  0  0  0  0  0  0
  149.8880  139.8529  154.9181 H   0  0  0  0  0  0  0  0  0  0  0  0
  151.9798  138.4643  154.7665 H   0  0  0  0  0  0  0  0  0  0  0  0
  151.1531  137.2961  153.7791 H   0  0  0  0  0  0  0  0  0  0  0  0
  148.8389  137.7469  153.1908 H   0  0  0  0  0  0  0  0  0  0  0  0
  1  2  1  0  0  0  0
  1 21  1  0  0  0  0
  1 22  1  0  0  0  0
  1 23  1  0  0  0  0
  2  3  1  0  0  0  0
  2 24  1  0  0  0  0
  2 25  1  0  0  0  0
  3 20  1  0  0  0  0
  3  4  1  0  0  0  0
  4  5  1  0  0  0  0
  4 26  1  0  0  0  0
  4 27  1  0  0  0  0
  5  6  1  0  0  0  0
  5 28  1  0  0  0  0
  5 29  1  0  0  0  0
  6  7  1  0  0  0  0
  6 19  1  0  0  0  0
  6 44  1  0  0  0  0
  7  8  1  0  0  0  0
  7  9  1  0  0  0  0
  7 30  1  0  0  0  0
  8 31  1  0  0  0  0
  8 32  1  0  0  0  0
  8 33  1  0  0  0  0
  9 10  1  0  0  0  0
  9 34  1  0  0  0  0
  9 35  1  0  0  0  0
 10 11  1  0  0  0  0
 10 36  1  0  0  0  0
 11 12  2  0  0  0  0
 11 13  1  0  0  0  0
 13 14  1  0  0  0  0
 13 37  1  0  0  0  0
 14 18  1  0  0  0  0
 14 15  2  0  0  0  0
 15 16  1  0  0  0  0
 16 17  2  0  0  0  0
 16 38  1  0  0  0  0
 17 18  1  0  0  0  0
 17 39  1  0  0  0  0
 19 20  1  0  0  0  0
 19 40  1  0  0  0  0
 19 41  1  0  0  0  0
 20 42  1  0  0  0  0
 20 43  1  0  0  0  0
M  CHG  1   6   1
M  END
> <s_m_source_file>
AV-unprocessed.smi

> <i_m_source_file_index>
1971

> <i_lp_mmshare_version>
43012

> <i_f3d_flags>
0

> <s_epik_input>
W0NIM11bQ0gyXU4xW0NIMl1bQ0gyXU4oW0NIMl1bQ0gyXTEpW0NASF0oW0NIM10pW0NIMl1bTkhdQyg9TylbTkhdYzJuW2NIXVtjSF1zMg==

> <s_epik_cmdline>
J2VwaWtfcHl0aG9uJywgJy1waCcsICc3LjAnLCAnLXRuJywgJzgnLCAnLW1hJywgJzIwMCcsICctbWV0YWxfYmluZGluZycsICctaW1hZScsICc8aW5maWxlLm1hZT4nLCAnLW9tYWUnLCAnPG91dGZpbGUubWFlPic=

> <r_epik_Ionization_Penalty>
0.150098

> <r_epik_Ionization_Penalty_Charging>
0.148467

> <r_epik_Ionization_Penalty_Neutral>
0.00163072

> <r_epik_State_Penalty>
0.974087

> <r_epik_Charging_Adjusted_Penalty>
1.12255

> <i_epik_Tot_Q>
1

> <i_epik_Tot_abs_Q>
1

> <r_epik_Metal_State_Penalty>
1.00741

> <b_epik_Metal_Only>
0

> <s_lp_Force_Field>
OPLS_2005

> <r_lp_Energy>
20.3005

> <b_lp_Chiralities_Consistent>
1

> <s_lp_Variant>
AV-unprocessed.smi:1971-3

> <Gold.Version>
5.8.1

> <Gold.Id.Protein>
6NUR|6NUR_protein|mol2

> <Gold.PLP.Fitness>
43.6721

> <Gold.PLP.PLP>
-29.2613

> <Gold.PLP.part.hbond>
-3.2476

> <Gold.PLP.part.metal>
0.0000

> <Gold.PLP.part.buried>
-2.6665

> <Gold.PLP.part.nonpolar>
-24.9031

> <Gold.PLP.part.repulsive>
1.3921

> <Gold.PLP.ligand.clash>
0.0000

> <Gold.PLP.ligand.torsion>
0.2952

> <Gold.PLP.Chemscore.Hbond>
3.9600

> <Gold.PLP.Chemscore.CHOScore>
0.9989

> <Gold.PLP.Chemscore.Metal>
0.0000

> <Gold.Chemscore.Hbonds>
donor molecule, donor type, donor heavy atom, donor atom, acceptor molecule, acceptor atom, score
      L1  H     6    44       P1  7948  2.00
      L1  H    10    36       P1  7948  1.00
      L1  H    13    37       P1  7948  0.94
      L1  C    16    38       P1 10186  1.00

> <Gold.PLP.Chemscore.Internal.Correction>
0.1245

> <Gold.Rescore>
     Score         DG    S(hbond)    S(metal)    S(lipo)     H(rot)  DE(clash)    DE(int)     intcor
     17.38     -18.90       2.81        0.00      73.71       1.79       0.05       1.47       ----

> <Gold.Chemscore.Fitness>
17.3813

> <Gold.Chemscore.DG>
-18.9010

> <Gold.Chemscore.ZeroCoef>
-5.4800

> <Gold.Chemscore.Hbond>
2.8111

> <Gold.Chemscore.Metal>
0.0000

> <Gold.Chemscore.Lipo>
73.7086

> <Gold.Chemscore.Internal_Hbond>
0.0000

> <Gold.Chemscore.DEClash>
0.0464

> <Gold.Chemscore.DEInternal>
1.4733

> <Gold.Chemscore.Rot>
1.7937

> <Gold.Chemscore.Internal.Correction>
   9.000000E+99

> <Gold.Chemscore.Hbonds>
donor molecule, donor type, donor heavy atom, donor atom, acceptor molecule, acceptor atom, score
      L1  H     6    44       P1  7948  0.96
      L1  H    10    36       P1  7948  0.99
      L1  H    13    37       P1  7948  0.81

> <Gold.Chemscore.Hbond.Weighted>
-9.3890

> <Gold.Chemscore.Metal.Weighted>
-0.0000

> <Gold.Chemscore.Lipo.Weighted>
-8.6239

> <Gold.Chemscore.Internal_Hbond.Weighted>
0.0000

> <Gold.Chemscore.DEClash.Weighted>
0.0464

> <Gold.Chemscore.DEInternal.Weighted>
1.4733

> <Gold.Chemscore.Rot.Weighted>
4.5919

> <Gold.Chemscore.Internal.Correction.Weighted>
   9.000000E+99

> <Gold.Protein.RotatedTorsions>
[ 6907 6896 6895 6894 ] final -139.95 input  -60.11 | X-H torsion
[ 7974 7965 7964 7962 ] final  135.61 input  175.53 | X-H torsion
[ 8008 7997 7996 7995 ] final  141.74 input   59.86 | X-H torsion
[ 10167 10162 10161 10158 ] final   62.80 input  -65.29 | X-H torsion
[ 10718 10713 10712 10709 ] final  103.01 input   66.30 | X-H torsion
[ 10763 10752 10751 10750 ] final    7.27 input  -60.55 | X-H torsion
[ 11005 11000 10999 10996 ] final  102.15 input  -57.11 | X-H torsion

> <Gold.Protein.ActiveResidues>
 VAL166  LYS551  ARG553  GLY616  TRP617  ASP618  TYR619  PRO620  LYS621  CYS622 
 ASP623  PHE694  ASN695  SER759  ASP760  ASP761  ALA762  ILE779  LEU786  VAL792 
 PHE793  MET794  SER795  GLU796  ALA797  LYS798  CYS799  TRP800  GLU811  SER814 

> <Gold.Protein.RotatedAtoms>
  151.0544  133.5597  159.2639 H   0  0  0  0  0  0  0  0  0  0  0  0  # atno 6907 bound_to 6896
  151.2596  135.0649  159.9103 H   0  0  0  0  0  0  0  0  0  0  0  0  # atno 6908 bound_to 6896
  152.5387  134.0291  159.8070 H   0  0  0  0  0  0  0  0  0  0  0  0  # atno 6909 bound_to 6896
  144.9646  139.4672  143.5463 H   0  0  0  0  0  0  0  0  0  0  0  0  # atno 7974 bound_to 7965
  156.2961  140.2307  156.4613 H   0  0  0  0  0  0  0  0  0  0  0  0  # atno 8008 bound_to 7997
  154.8015  140.0448  157.1297 H   0  0  0  0  0  0  0  0  0  0  0  0  # atno 8009 bound_to 7997
  154.9527  140.3044  155.5071 H   0  0  0  0  0  0  0  0  0  0  0  0  # atno 8010 bound_to 7997
  140.1400  144.4563  150.6816 H   0  0  0  0  0  0  0  0  0  0  0  0  # atno 10167 bound_to 10162
  157.6785  131.0768  150.5490 H   0  0  0  0  0  0  0  0  0  0  0  0  # atno 10718 bound_to 10713
  153.2382  135.6900  153.7813 H   0  0  0  0  0  0  0  0  0  0  0  0  # atno 10763 bound_to 10752
  153.6952  135.3306  155.3212 H   0  0  0  0  0  0  0  0  0  0  0  0  # atno 10764 bound_to 10752
  154.8344  135.4555  154.1293 H   0  0  0  0  0  0  0  0  0  0  0  0  # atno 10765 bound_to 10752
  139.8776  134.9212  156.5014 H   0  0  0  0  0  0  0  0  0  0  0  0  # atno 11005 bound_to 11000
  146.3364  139.8819  142.8823 LP  0  0  0  0  0  0  0  0  0  0  0  0  # atno 17320 bound_to 7965
  145.2649  141.0089  143.3805 LP  0  0  0  0  0  0  0  0  0  0  0  0  # atno 17321 bound_to 7965
  140.6766  143.2308  151.5491 LP  0  0  0  0  0  0  0  0  0  0  0  0  # atno 17342 bound_to 10162
  139.5477  144.2478  152.1473 LP  0  0  0  0  0  0  0  0  0  0  0  0  # atno 17343 bound_to 10162
  156.5795  130.4300  149.5983 LP  0  0  0  0  0  0  0  0  0  0  0  0  # atno 17370 bound_to 10713
  156.2673  130.6997  151.1784 LP  0  0  0  0  0  0  0  0  0  0  0  0  # atno 17371 bound_to 10713
  140.8586  133.8077  155.9242 LP  0  0  0  0  0  0  0  0  0  0  0  0  # atno 17394 bound_to 11000
  140.9072  134.2305  157.5007 LP  0  0  0  0  0  0  0  0  0  0  0  0  # atno 17395 bound_to 11000

$$$$
