AV-unprocessed.smi:1621|AV-procd|sdf|6493|dock1
  -GOLD-   22720 7153D 1   1.00000     0.00000
 Structure written by MMmdl.
 39 40  0  0  0  0  0  0  0  0  2 V2000
  147.8669  135.3106  154.7257 C   0  0  0  0  0  0  0  0  0  0  0  0
  148.1996  136.7081  154.3753 N   0  3  2  0  0  0  0  0  0  0  0  0
  149.3298  137.2372  155.1778 C   0  0  0  0  0  0  0  0  0  0  0  0
  149.7296  138.6469  154.7107 C   0  0  0  0  0  0  0  0  0  0  0  0
  148.5309  139.6155  154.7595 C   0  0  1  0  0  0  0  0  0  0  0  0
  148.8871  141.0333  154.2635 C   0  0  0  0  0  0  0  0  0  0  0  0
  149.1621  141.9608  155.3569 N   0  0  0  0  0  0  0  0  0  0  0  0
  150.0877  141.7766  156.3097 C   0  0  0  0  0  0  0  0  0  0  0  0
  150.8212  140.7896  156.3541 O   0  0  0  0  0  0  0  0  0  0  0  0
  150.0884  142.7961  157.1870 N   0  0  0  0  0  0  0  0  0  0  0  0
  150.8890  142.9895  158.3474 C   0  0  0  0  0  0  0  0  0  0  0  0
  151.0171  144.3074  158.8339 C   0  0  0  0  0  0  0  0  0  0  0  0
  151.8095  144.5385  159.9761 C   0  0  0  0  0  0  0  0  0  0  0  0
  152.4652  143.5597  160.6336 N   0  0  0  0  0  0  0  0  0  0  0  0
  152.3510  142.3004  160.1617 C   0  0  0  0  0  0  0  0  0  0  0  0
  151.5846  141.9608  159.0286 C   0  0  0  0  0  0  0  0  0  0  0  0
  147.3708  139.0171  153.9440 C   0  0  0  0  0  0  0  0  0  0  0  0
  147.0159  137.6009  154.4275 C   0  0  0  0  0  0  0  0  0  0  0  0
  147.5238  135.2370  155.7583 H   0  0  0  0  0  0  0  0  0  0  0  0
  148.7388  134.6663  154.6076 H   0  0  0  0  0  0  0  0  0  0  0  0
  147.0806  134.9269  154.0748 H   0  0  0  0  0  0  0  0  0  0  0  0
  149.0524  137.2558  156.2331 H   0  0  0  0  0  0  0  0  0  0  0  0
  150.1866  136.5682  155.0866 H   0  0  0  0  0  0  0  0  0  0  0  0
  150.5422  139.0140  155.3382 H   0  0  0  0  0  0  0  0  0  0  0  0
  150.1229  138.5962  153.6943 H   0  0  0  0  0  0  0  0  0  0  0  0
  148.2000  139.6924  155.7966 H   0  0  0  0  0  0  0  0  0  0  0  0
  149.7707  140.9945  153.6256 H   0  0  0  0  0  0  0  0  0  0  0  0
  148.0818  141.4312  153.6438 H   0  0  0  0  0  0  0  0  0  0  0  0
  148.5979  142.7970  155.3965 H   0  0  0  0  0  0  0  0  0  0  0  0
  149.3902  143.5078  157.0305 H   0  0  0  0  0  0  0  0  0  0  0  0
  150.5159  145.1308  158.3464 H   0  0  0  0  0  0  0  0  0  0  0  0
  151.9206  145.5377  160.3707 H   0  0  0  0  0  0  0  0  0  0  0  0
  152.8922  141.5378  160.7018 H   0  0  0  0  0  0  0  0  0  0  0  0
  151.5586  140.9310  158.7102 H   0  0  0  0  0  0  0  0  0  0  0  0
  146.4917  139.6583  154.0188 H   0  0  0  0  0  0  0  0  0  0  0  0
  147.6386  138.9845  152.8869 H   0  0  0  0  0  0  0  0  0  0  0  0
  146.2223  137.1916  153.8009 H   0  0  0  0  0  0  0  0  0  0  0  0
  146.6286  137.6374  155.4470 H   0  0  0  0  0  0  0  0  0  0  0  0
  148.5090  136.6966  153.4138 H   0  0  0  0  0  0  0  0  0  0  0  0
  1  2  1  0  0  0  0
  1 19  1  0  0  0  0
  1 20  1  0  0  0  0
  1 21  1  0  0  0  0
  2 18  1  0  0  0  0
  2  3  1  0  0  0  0
  2 39  1  0  0  0  0
  3  4  1  0  0  0  0
  3 22  1  0  0  0  0
  3 23  1  0  0  0  0
  4  5  1  0  0  0  0
  4 24  1  0  0  0  0
  4 25  1  0  0  0  0
  5  6  1  0  0  0  0
  5 17  1  0  0  0  0
  5 26  1  0  0  0  0
  6  7  1  0  0  0  0
  6 27  1  0  0  0  0
  6 28  1  0  0  0  0
  7  8  1  0  0  0  0
  7 29  1  0  0  0  0
  8  9  2  0  0  0  0
  8 10  1  0  0  0  0
 10 11  1  0  0  0  0
 10 30  1  0  0  0  0
 11 16  1  0  0  0  0
 11 12  2  0  0  0  0
 12 13  1  0  0  0  0
 12 31  1  0  0  0  0
 13 14  2  0  0  0  0
 13 32  1  0  0  0  0
 14 15  1  0  0  0  0
 15 16  2  0  0  0  0
 15 33  1  0  0  0  0
 16 34  1  0  0  0  0
 17 18  1  0  0  0  0
 17 35  1  0  0  0  0
 17 36  1  0  0  0  0
 18 37  1  0  0  0  0
 18 38  1  0  0  0  0
M  CHG  1   2   1
M  END
> <s_m_source_file>
AV-unprocessed.smi

> <i_m_source_file_index>
1621

> <i_lp_mmshare_version>
43012

> <i_f3d_flags>
0

> <s_epik_input>
W0NIM11OMVtDSDJdW0NIMl1bQ0hdKFtDSDJdW0NIMl0xKVtDSDJdW05IXUMoPU8pW05IXWMyW2NIXVtjSF1uW2NIXVtjSF0y

> <s_epik_cmdline>
J2VwaWtfcHl0aG9uJywgJy1waCcsICc3LjAnLCAnLXRuJywgJzgnLCAnLW1hJywgJzIwMCcsICctbWV0YWxfYmluZGluZycsICctaW1hZScsICc8aW5maWxlLm1hZT4nLCAnLW9tYWUnLCAnPG91dGZpbGUubWFlPic=

> <r_epik_Ionization_Penalty>
0.107254

> <r_epik_Ionization_Penalty_Charging>
0.00106265

> <r_epik_Ionization_Penalty_Neutral>
0.106191

> <r_epik_State_Penalty>
0.0960133

> <r_epik_Charging_Adjusted_Penalty>
0.0970759

> <i_epik_Tot_Q>
1

> <i_epik_Tot_abs_Q>
1

> <r_epik_Metal_State_Penalty>
0.0813061

> <b_epik_Metal_Only>
0

> <s_lp_Force_Field>
OPLS_2005

> <r_lp_Energy>
22.3351

> <b_lp_Chiralities_Consistent>
1

> <s_lp_Variant>
AV-unprocessed.smi:1621-1

> <Gold.Version>
5.8.1

> <Gold.Id.Protein>
6NUR|6NUR_protein|mol2

> <Gold.PLP.Fitness>
43.4039

> <Gold.PLP.PLP>
-32.7357

> <Gold.PLP.part.hbond>
-3.0000

> <Gold.PLP.part.metal>
0.0000

> <Gold.PLP.part.buried>
-3.1977

> <Gold.PLP.part.nonpolar>
-26.6870

> <Gold.PLP.part.repulsive>
0.2710

> <Gold.PLP.ligand.clash>
0.0000

> <Gold.PLP.ligand.torsion>
0.6557

> <Gold.PLP.Chemscore.Hbond>
3.9920

> <Gold.PLP.Chemscore.CHOScore>
0.0000

> <Gold.PLP.Chemscore.Metal>
0.0000

> <Gold.Chemscore.Hbonds>
donor molecule, donor type, donor heavy atom, donor atom, acceptor molecule, acceptor atom, score
      L1  H     2    39       P1  7948  2.00
      L1  H     7    29       P1  8028  0.77
      L1  H    10    30       P1  8028  0.78

> <Gold.PLP.Chemscore.Internal.Correction>
0.0036

> <Gold.Rescore>
     Score         DG    S(hbond)    S(metal)    S(lipo)     H(rot)  DE(clash)    DE(int)     intcor
     21.22     -22.16       2.88        0.00      87.69       1.25       0.02       0.92       ----

> <Gold.Chemscore.Fitness>
21.2174

> <Gold.Chemscore.DG>
-22.1572

> <Gold.Chemscore.ZeroCoef>
-5.4800

> <Gold.Chemscore.Hbond>
2.8780

> <Gold.Chemscore.Metal>
0.0000

> <Gold.Chemscore.Lipo>
87.6945

> <Gold.Chemscore.Internal_Hbond>
0.0000

> <Gold.Chemscore.DEClash>
0.0218

> <Gold.Chemscore.DEInternal>
0.9181

> <Gold.Chemscore.Rot>
1.2482

> <Gold.Chemscore.Internal.Correction>
   9.000000E+99

> <Gold.Chemscore.Hbonds>
donor molecule, donor type, donor heavy atom, donor atom, acceptor molecule, acceptor atom, score
      L1  H     2    39       P1  7948  1.00
      L1  H     7    29       P1  8028  0.75
      L1  H    10    30       P1  8028  0.68

> <Gold.Chemscore.Hbond.Weighted>
-9.6124

> <Gold.Chemscore.Metal.Weighted>
-0.0000

> <Gold.Chemscore.Lipo.Weighted>
-10.2603

> <Gold.Chemscore.Internal_Hbond.Weighted>
0.0000

> <Gold.Chemscore.DEClash.Weighted>
0.0218

> <Gold.Chemscore.DEInternal.Weighted>
0.9181

> <Gold.Chemscore.Rot.Weighted>
3.1954

> <Gold.Chemscore.Internal.Correction.Weighted>
   9.000000E+99

> <Gold.Protein.RotatedTorsions>
[ 6907 6896 6895 6894 ] final -125.07 input  -60.11 | X-H torsion
[ 7974 7965 7964 7962 ] final  120.79 input  175.53 | X-H torsion
[ 8008 7997 7996 7995 ] final  -44.08 input   59.86 | X-H torsion
[ 10167 10162 10161 10158 ] final -116.00 input  -65.29 | X-H torsion
[ 10718 10713 10712 10709 ] final -151.33 input   66.30 | X-H torsion
[ 10763 10752 10751 10750 ] final   14.70 input  -60.55 | X-H torsion
[ 11005 11000 10999 10996 ] final -129.05 input  -57.11 | X-H torsion

> <Gold.Protein.ActiveResidues>
 VAL166  LYS551  ARG553  GLY616  TRP617  ASP618  TYR619  PRO620  LYS621  CYS622 
 ASP623  PHE694  ASN695  SER759  ASP760  ASP761  ALA762  ILE779  LEU786  VAL792 
 PHE793  MET794  SER795  GLU796  ALA797  LYS798  CYS799  TRP800  GLU811  SER814 

> <Gold.Protein.RotatedAtoms>
  150.8831  133.7345  159.2926 H   0  0  0  0  0  0  0  0  0  0  0  0  # atno 6907 bound_to 6896
  151.4919  135.1056  159.9815 H   0  0  0  0  0  0  0  0  0  0  0  0  # atno 6908 bound_to 6896
  152.4772  133.8122  159.7065 H   0  0  0  0  0  0  0  0  0  0  0  0  # atno 6909 bound_to 6896
  145.1270  139.3352  143.4685 H   0  0  0  0  0  0  0  0  0  0  0  0  # atno 7974 bound_to 7965
  154.3997  140.1431  156.3624 H   0  0  0  0  0  0  0  0  0  0  0  0  # atno 8008 bound_to 7997
  155.8168  140.3471  155.5470 H   0  0  0  0  0  0  0  0  0  0  0  0  # atno 8009 bound_to 7997
  155.8329  140.0915  157.1772 H   0  0  0  0  0  0  0  0  0  0  0  0  # atno 8010 bound_to 7997
  140.0839  143.4762  152.1909 H   0  0  0  0  0  0  0  0  0  0  0  0  # atno 10167 bound_to 10162
  156.4578  130.8199  151.2430 H   0  0  0  0  0  0  0  0  0  0  0  0  # atno 10718 bound_to 10713
  153.1596  135.6793  153.8761 H   0  0  0  0  0  0  0  0  0  0  0  0  # atno 10763 bound_to 10752
  153.8161  135.3136  155.3407 H   0  0  0  0  0  0  0  0  0  0  0  0  # atno 10764 bound_to 10752
  154.7923  135.4827  154.0169 H   0  0  0  0  0  0  0  0  0  0  0  0  # atno 10765 bound_to 10752
  140.9464  134.1124  157.4103 H   0  0  0  0  0  0  0  0  0  0  0  0  # atno 11005 bound_to 11000
  146.3517  140.1253  142.8599 LP  0  0  0  0  0  0  0  0  0  0  0  0  # atno 17320 bound_to 7965
  145.0677  140.9133  143.4900 LP  0  0  0  0  0  0  0  0  0  0  0  0  # atno 17321 bound_to 7965
  139.5763  144.7489  151.3756 LP  0  0  0  0  0  0  0  0  0  0  0  0  # atno 17342 bound_to 10162
  140.7063  143.7504  150.7488 LP  0  0  0  0  0  0  0  0  0  0  0  0  # atno 17343 bound_to 10162
  157.7499  131.0117  150.3355 LP  0  0  0  0  0  0  0  0  0  0  0  0  # atno 17370 bound_to 10713
  156.3748  130.3870  149.7147 LP  0  0  0  0  0  0  0  0  0  0  0  0  # atno 17371 bound_to 10713
  139.8834  135.0052  156.6302 LP  0  0  0  0  0  0  0  0  0  0  0  0  # atno 17394 bound_to 11000
  140.7663  133.8775  155.8457 LP  0  0  0  0  0  0  0  0  0  0  0  0  # atno 17395 bound_to 11000

$$$$
