AV-unprocessed.smi:1352|AV-procd|sdf|5529|dock6
  -GOLD-   22720 5123D 1   1.00000     0.00000
 Structure written by MMmdl.
 47 48  0  0  0  0  0  0  0  0  2 V2000
  141.6859  135.3309  153.8454 C   0  0  0  0  0  0  0  0  0  0  0  0
  143.0193  135.2530  153.0883 C   0  0  1  0  0  0  0  0  0  0  0  0
  143.0294  134.0796  152.0926 C   0  0  0  0  0  0  0  0  0  0  0  0
  144.3486  134.0368  151.3018 C   0  0  1  0  0  0  0  0  0  0  0  0
  144.3555  132.8847  150.2874 C   0  0  0  0  0  0  0  0  0  0  0  0
  144.5947  135.3950  150.6119 C   0  0  0  0  0  0  0  0  0  0  0  0
  144.5961  136.5228  151.5804 N   0  3  2  0  0  0  0  0  0  0  0  0
  145.8375  136.6033  152.3957 C   0  0  0  0  0  0  0  0  0  0  0  0
  146.2870  138.0571  152.6370 C   0  0  0  0  0  0  0  0  0  0  0  0
  147.6902  138.1272  153.0278 N   0  0  0  0  0  0  0  0  0  0  0  0
  148.1944  138.9782  153.9341 C   0  0  0  0  0  0  0  0  0  0  0  0
  147.5093  139.8171  154.5208 O   0  0  0  0  0  0  0  0  0  0  0  0
  149.7043  138.8697  154.1925 C   0  0  0  0  0  0  0  0  0  0  0  0
  150.2101  139.8788  155.1381 N   0  0  0  0  0  0  0  0  0  0  0  0
  150.9544  139.4107  156.2394 C   0  0  0  0  0  0  0  0  0  0  0  0
  151.4614  140.2455  157.1602 C   0  0  0  0  0  0  0  0  0  0  0  0
  151.2265  141.6612  157.0011 C   0  0  0  0  0  0  0  0  0  0  0  0
  150.5190  142.1200  155.9495 C   0  0  0  0  0  0  0  0  0  0  0  0
  149.9657  141.2111  154.9388 C   0  0  0  0  0  0  0  0  0  0  0  0
  149.3228  141.6215  153.9720 O   0  0  0  0  0  0  0  0  0  0  0  0
  143.3288  136.5797  152.3597 C   0  0  0  0  0  0  0  0  0  0  0  0
  140.8522  135.5090  153.1652 H   0  0  0  0  0  0  0  0  0  0  0  0
  141.6965  136.1387  154.5775 H   0  0  0  0  0  0  0  0  0  0  0  0
  141.4847  134.4034  154.3824 H   0  0  0  0  0  0  0  0  0  0  0  0
  143.7959  135.0720  153.8318 H   0  0  0  0  0  0  0  0  0  0  0  0
  142.8852  133.1392  152.6261 H   0  0  0  0  0  0  0  0  0  0  0  0
  142.1901  134.1751  151.4020 H   0  0  0  0  0  0  0  0  0  0  0  0
  145.1619  133.8526  152.0050 H   0  0  0  0  0  0  0  0  0  0  0  0
  143.5630  133.0018  149.5474 H   0  0  0  0  0  0  0  0  0  0  0  0
  144.2083  131.9244  150.7829 H   0  0  0  0  0  0  0  0  0  0  0  0
  145.3052  132.8367  149.7535 H   0  0  0  0  0  0  0  0  0  0  0  0
  145.5313  135.3803  150.0529 H   0  0  0  0  0  0  0  0  0  0  0  0
  143.8099  135.5784  149.8766 H   0  0  0  0  0  0  0  0  0  0  0  0
  145.7154  136.0781  153.3426 H   0  0  0  0  0  0  0  0  0  0  0  0
  146.6359  136.0835  151.8650 H   0  0  0  0  0  0  0  0  0  0  0  0
  146.1190  138.6629  151.7449 H   0  0  0  0  0  0  0  0  0  0  0  0
  145.7076  138.5155  153.4373 H   0  0  0  0  0  0  0  0  0  0  0  0
  148.3217  137.4716  152.5901 H   0  0  0  0  0  0  0  0  0  0  0  0
  149.9383  137.8673  154.5563 H   0  0  0  0  0  0  0  0  0  0  0  0
  150.2186  138.9524  153.2341 H   0  0  0  0  0  0  0  0  0  0  0  0
  151.0904  138.3398  156.2828 H   0  0  0  0  0  0  0  0  0  0  0  0
  152.0325  139.8688  157.9962 H   0  0  0  0  0  0  0  0  0  0  0  0
  151.6208  142.3560  157.7278 H   0  0  0  0  0  0  0  0  0  0  0  0
  150.3541  143.1825  155.8464 H   0  0  0  0  0  0  0  0  0  0  0  0
  142.5198  136.8055  151.6636 H   0  0  0  0  0  0  0  0  0  0  0  0
  143.3491  137.4074  153.0676 H   0  0  0  0  0  0  0  0  0  0  0  0
  144.6109  137.3574  151.0113 H   0  0  0  0  0  0  0  0  0  0  0  0
  1  2  1  0  0  0  0
  1 22  1  0  0  0  0
  1 23  1  0  0  0  0
  1 24  1  0  0  0  0
  2 21  1  0  0  0  0
  2  3  1  0  0  0  0
  2 25  1  0  0  0  0
  3  4  1  0  0  0  0
  3 26  1  0  0  0  0
  3 27  1  0  0  0  0
  4  5  1  0  0  0  0
  4  6  1  0  0  0  0
  4 28  1  0  0  0  0
  5 29  1  0  0  0  0
  5 30  1  0  0  0  0
  5 31  1  0  0  0  0
  6  7  1  0  0  0  0
  6 32  1  0  0  0  0
  6 33  1  0  0  0  0
  7  8  1  0  0  0  0
  7 21  1  0  0  0  0
  7 47  1  0  0  0  0
  8  9  1  0  0  0  0
  8 34  1  0  0  0  0
  8 35  1  0  0  0  0
  9 10  1  0  0  0  0
  9 36  1  0  0  0  0
  9 37  1  0  0  0  0
 10 11  1  0  0  0  0
 10 38  1  0  0  0  0
 11 12  2  0  0  0  0
 11 13  1  0  0  0  0
 13 14  1  0  0  0  0
 13 39  1  0  0  0  0
 13 40  1  0  0  0  0
 14 19  1  0  0  0  0
 14 15  1  0  0  0  0
 15 16  2  0  0  0  0
 15 41  1  0  0  0  0
 16 17  1  0  0  0  0
 16 42  1  0  0  0  0
 17 18  2  0  0  0  0
 17 43  1  0  0  0  0
 18 19  1  0  0  0  0
 18 44  1  0  0  0  0
 19 20  2  0  0  0  0
 21 45  1  0  0  0  0
 21 46  1  0  0  0  0
M  CHG  1   7   1
M  END
> <s_m_source_file>
AV-unprocessed.smi

> <i_m_source_file_index>
1352

> <i_lp_mmshare_version>
43012

> <i_f3d_flags>
0

> <s_epik_input>
W0NIM11bQ0BASF0xW0NIMl1bQ0BASF0oW0NIM10pW0NIMl1OKFtDSDJdMSlbQ0gyXVtDSDJdW05IXUMoPU8pW0NIMl1uMltjSF1bY0hdW2NIXVtjSF1jMj1P

> <s_epik_cmdline>
J2VwaWtfcHl0aG9uJywgJy1waCcsICc3LjAnLCAnLXRuJywgJzgnLCAnLW1hJywgJzIwMCcsICctbWV0YWxfYmluZGluZycsICctaW1hZScsICc8aW5maWxlLm1hZT4nLCAnLW9tYWUnLCAnPG91dGZpbGUubWFlPic=

> <r_lp_tautomer_probability>
1

> <r_epik_Ionization_Penalty>
0.00156146

> <r_epik_Ionization_Penalty_Charging>
0.00156138

> <r_epik_Ionization_Penalty_Neutral>
8.12891e-08

> <r_epik_State_Penalty>
0.00104868

> <r_epik_Charging_Adjusted_Penalty>
0.00261006

> <i_epik_Tot_Q>
1

> <i_epik_Tot_abs_Q>
1

> <r_epik_Metal_State_Penalty>
-0

> <b_epik_Metal_Only>
0

> <s_lp_Force_Field>
OPLS_2005

> <r_lp_Energy>
27.4422

> <b_lp_Chiralities_Consistent>
1

> <s_lp_Variant>
AV-unprocessed.smi:1352-2

> <Gold.Version>
5.8.1

> <Gold.Id.Protein>
6NUR|6NUR_protein|mol2

> <Gold.PLP.Fitness>
45.6374

> <Gold.PLP.PLP>
-39.2007

> <Gold.PLP.part.hbond>
-4.1426

> <Gold.PLP.part.metal>
0.0000

> <Gold.PLP.part.buried>
-2.2532

> <Gold.PLP.part.nonpolar>
-33.8146

> <Gold.PLP.part.repulsive>
0.3611

> <Gold.PLP.ligand.clash>
0.0000

> <Gold.PLP.ligand.torsion>
0.7317

> <Gold.PLP.Chemscore.Hbond>
2.6153

> <Gold.PLP.Chemscore.CHOScore>
0.0000

> <Gold.PLP.Chemscore.Metal>
0.0000

> <Gold.Chemscore.Hbonds>
donor molecule, donor type, donor heavy atom, donor atom, acceptor molecule, acceptor atom, score
      L1  H     7    47       P1 10171  1.00
      L1  H    10    38       P1  7948  1.00
      P1  H  8011  8017       L1    20  0.62

> <Gold.PLP.Chemscore.Internal.Correction>
0.0544

> <Gold.Rescore>
     Score         DG    S(hbond)    S(metal)    S(lipo)     H(rot)  DE(clash)    DE(int)     intcor
     14.81     -19.58       2.66        0.00      84.67       1.83       0.23       4.53       ----

> <Gold.Chemscore.Fitness>
14.8148

> <Gold.Chemscore.DG>
-19.5800

> <Gold.Chemscore.ZeroCoef>
-5.4800

> <Gold.Chemscore.Hbond>
2.6604

> <Gold.Chemscore.Metal>
0.0000

> <Gold.Chemscore.Lipo>
84.6696

> <Gold.Chemscore.Internal_Hbond>
0.0000

> <Gold.Chemscore.DEClash>
0.2339

> <Gold.Chemscore.DEInternal>
4.5313

> <Gold.Chemscore.Rot>
1.8329

> <Gold.Chemscore.Internal.Correction>
   9.000000E+99

> <Gold.Chemscore.Hbonds>
donor molecule, donor type, donor heavy atom, donor atom, acceptor molecule, acceptor atom, score
      L1  H     7    47       P1 10171  0.98
      L1  H    10    38       P1  7948  0.96
      P1  H  8011  8017       L1    20  0.64

> <Gold.Chemscore.Hbond.Weighted>
-8.8859

> <Gold.Chemscore.Metal.Weighted>
-0.0000

> <Gold.Chemscore.Lipo.Weighted>
-9.9063

> <Gold.Chemscore.Internal_Hbond.Weighted>
0.0000

> <Gold.Chemscore.DEClash.Weighted>
0.2339

> <Gold.Chemscore.DEInternal.Weighted>
4.5313

> <Gold.Chemscore.Rot.Weighted>
4.6922

> <Gold.Chemscore.Internal.Correction.Weighted>
   9.000000E+99

> <Gold.Protein.RotatedTorsions>
[ 6907 6896 6895 6894 ] final -136.00 input  -60.11 | X-H torsion
[ 7974 7965 7964 7962 ] final  149.35 input  175.53 | X-H torsion
[ 8008 7997 7996 7995 ] final   99.52 input   59.86 | X-H torsion
[ 10167 10162 10161 10158 ] final  116.58 input  -65.29 | X-H torsion
[ 10718 10713 10712 10709 ] final -121.22 input   66.30 | X-H torsion
[ 10763 10752 10751 10750 ] final -109.27 input  -60.55 | X-H torsion
[ 11005 11000 10999 10996 ] final  170.24 input  -57.11 | X-H torsion

> <Gold.Protein.ActiveResidues>
 VAL166  LYS551  ARG553  GLY616  TRP617  ASP618  TYR619  PRO620  LYS621  CYS622 
 ASP623  PHE694  ASN695  SER759  ASP760  ASP761  ALA762  ILE779  LEU786  VAL792 
 PHE793  MET794  SER795  GLU796  ALA797  LYS798  CYS799  TRP800  GLU811  SER814 

> <Gold.Protein.RotatedAtoms>
  151.0047  133.6022  159.2690 H   0  0  0  0  0  0  0  0  0  0  0  0  # atno 6907 bound_to 6896
  151.3196  135.0814  159.9310 H   0  0  0  0  0  0  0  0  0  0  0  0  # atno 6908 bound_to 6896
  152.5283  133.9697  159.7810 H   0  0  0  0  0  0  0  0  0  0  0  0  # atno 6909 bound_to 6896
  144.8445  139.6269  143.6002 H   0  0  0  0  0  0  0  0  0  0  0  0  # atno 7974 bound_to 7965
  156.1113  140.3227  155.8077 H   0  0  0  0  0  0  0  0  0  0  0  0  # atno 8008 bound_to 7997
  155.4667  140.0543  157.3001 H   0  0  0  0  0  0  0  0  0  0  0  0  # atno 8009 bound_to 7997
  154.4762  140.2033  155.9887 H   0  0  0  0  0  0  0  0  0  0  0  0  # atno 8010 bound_to 7997
  139.6237  144.7105  151.2579 H   0  0  0  0  0  0  0  0  0  0  0  0  # atno 10167 bound_to 10162
  156.1320  130.6402  150.9637 H   0  0  0  0  0  0  0  0  0  0  0  0  # atno 10718 bound_to 10713
  154.8184  135.4607  154.0708 H   0  0  0  0  0  0  0  0  0  0  0  0  # atno 10763 bound_to 10752
  153.2082  135.6878  153.8153 H   0  0  0  0  0  0  0  0  0  0  0  0  # atno 10764 bound_to 10752
  153.7614  135.3283  155.3314 H   0  0  0  0  0  0  0  0  0  0  0  0  # atno 10765 bound_to 10752
  140.3063  134.7554  157.3956 H   0  0  0  0  0  0  0  0  0  0  0  0  # atno 11005 bound_to 11000
  146.2731  139.6686  142.9282 LP  0  0  0  0  0  0  0  0  0  0  0  0  # atno 17320 bound_to 7965
  145.4626  141.0433  143.2743 LP  0  0  0  0  0  0  0  0  0  0  0  0  # atno 17321 bound_to 7965
  140.7398  143.6607  150.8166 LP  0  0  0  0  0  0  0  0  0  0  0  0  # atno 17342 bound_to 10162
  140.0222  143.5530  152.2795 LP  0  0  0  0  0  0  0  0  0  0  0  0  # atno 17343 bound_to 10162
  157.6497  131.0899  150.8077 LP  0  0  0  0  0  0  0  0  0  0  0  0  # atno 17370 bound_to 10713
  156.8161  130.4968  149.5349 LP  0  0  0  0  0  0  0  0  0  0  0  0  # atno 17371 bound_to 10713
  140.1065  134.5403  155.8305 LP  0  0  0  0  0  0  0  0  0  0  0  0  # atno 17394 bound_to 11000
  141.2118  133.6711  156.6608 LP  0  0  0  0  0  0  0  0  0  0  0  0  # atno 17395 bound_to 11000

$$$$
