AV-unprocessed.smi:3116|AV-procd|sdf|11875|dock10
  -GOLD-   2272017263D 1   1.00000     0.00000
 Structure written by MMmdl.
 33 33  0  0  0  0  0  0  0  0  1 V2000
  153.2256  138.5987  155.4428 C   0  0  0  0  0  0  0  0  0  0  0  0
  151.7066  138.5016  155.6515 C   0  0  1  0  0  0  0  0  0  0  0  0
  151.1329  139.8551  155.7576 N   0  0  0  0  0  0  0  0  0  0  0  0
  151.5246  140.6062  156.9523 C   0  0  2  0  0  0  0  0  0  0  0  0
  150.9576  139.8322  158.1548 C   0  0  0  0  0  0  0  0  0  0  0  0
  150.9851  142.0604  156.8544 C   0  0  1  0  0  0  0  0  0  0  0  0
  149.4504  142.1276  156.7293 C   0  0  0  0  0  0  0  0  0  0  0  0
  151.4299  142.8762  157.9797 N   0  0  0  0  0  0  0  0  0  0  0  0
  151.3875  144.2500  158.1029 C   0  0  0  0  0  0  0  0  0  0  0  0
  151.9412  144.5703  159.3091 C   0  0  0  0  0  0  0  0  0  0  0  0
  152.3005  143.3096  159.8612 C   0  0  0  0  0  0  0  0  0  0  0  0
  151.9968  142.2984  159.0640 N   0  0  0  0  0  0  0  0  0  0  0  0
  151.0594  137.6665  154.5345 C   0  0  0  0  0  0  0  0  0  0  0  0
  150.2932  138.3156  153.6543 N   0  0  0  0  0  0  0  0  0  0  0  0
  151.2621  136.4562  154.4568 O   0  0  0  0  0  0  0  0  0  0  0  0
  153.6792  137.6099  155.3649 H   0  0  0  0  0  0  0  0  0  0  0  0
  153.7013  139.1085  156.2813 H   0  0  0  0  0  0  0  0  0  0  0  0
  153.4739  139.1519  154.5359 H   0  0  0  0  0  0  0  0  0  0  0  0
  151.5507  137.9876  156.6006 H   0  0  0  0  0  0  0  0  0  0  0  0
  151.3187  140.4087  154.9340 H   0  0  0  0  0  0  0  0  0  0  0  0
  152.6090  140.6400  157.0615 H   0  0  0  0  0  0  0  0  0  0  0  0
  151.2794  140.2674  159.1005 H   0  0  0  0  0  0  0  0  0  0  0  0
  151.3009  138.7969  158.1518 H   0  0  0  0  0  0  0  0  0  0  0  0
  149.8672  139.8206  158.1452 H   0  0  0  0  0  0  0  0  0  0  0  0
  151.3991  142.5158  155.9531 H   0  0  0  0  0  0  0  0  0  0  0  0
  149.1031  141.6837  155.7968 H   0  0  0  0  0  0  0  0  0  0  0  0
  149.1032  143.1614  156.7371 H   0  0  0  0  0  0  0  0  0  0  0  0
  148.9576  141.6059  157.5503 H   0  0  0  0  0  0  0  0  0  0  0  0
  150.9757  144.8796  157.3278 H   0  0  0  0  0  0  0  0  0  0  0  0
  152.0717  145.5556  159.7311 H   0  0  0  0  0  0  0  0  0  0  0  0
  152.7724  143.1008  160.8099 H   0  0  0  0  0  0  0  0  0  0  0  0
  149.8434  137.8076  152.9066 H   0  0  0  0  0  0  0  0  0  0  0  0
  150.1631  139.3127  153.7442 H   0  0  0  0  0  0  0  0  0  0  0  0
  1  2  1  0  0  0  0
  1 16  1  0  0  0  0
  1 17  1  0  0  0  0
  1 18  1  0  0  0  0
  2  3  1  0  0  0  0
  2 13  1  0  0  0  0
  2 19  1  0  0  0  0
  3  4  1  0  0  0  0
  3 20  1  0  0  0  0
  4  5  1  0  0  0  0
  4  6  1  0  0  0  0
  4 21  1  0  0  0  0
  5 22  1  0  0  0  0
  5 23  1  0  0  0  0
  5 24  1  0  0  0  0
  6  7  1  0  0  0  0
  6  8  1  0  0  0  0
  6 25  1  0  0  0  0
  7 26  1  0  0  0  0
  7 27  1  0  0  0  0
  7 28  1  0  0  0  0
  8 12  1  0  0  0  0
  8  9  1  0  0  0  0
  9 10  2  0  0  0  0
  9 29  1  0  0  0  0
 10 11  1  0  0  0  0
 10 30  1  0  0  0  0
 11 12  2  0  0  0  0
 11 31  1  0  0  0  0
 13 14  1  0  0  0  0
 13 15  2  0  0  0  0
 14 32  1  0  0  0  0
 14 33  1  0  0  0  0
M  END
> <s_m_source_file>
AV-unprocessed.smi

> <i_m_source_file_index>
3116

> <i_lp_mmshare_version>
43012

> <i_f3d_flags>
0

> <s_epik_input>
W05IMl1DKD1PKVtDQEhdKFtDSDNdKVtOSF1bQ0BIXShbQ0gzXSlbQ0BIXShbQ0gzXSluMVtjSF1bY0hdW2NIXW4x

> <s_epik_cmdline>
J2VwaWtfcHl0aG9uJywgJy1waCcsICc3LjAnLCAnLXRuJywgJzgnLCAnLW1hJywgJzIwMCcsICctbWV0YWxfYmluZGluZycsICctaW1hZScsICc8aW5maWxlLm1hZT4nLCAnLW9tYWUnLCAnPG91dGZpbGUubWFlPic=

> <r_lp_tautomer_probability>
1

> <r_epik_Ionization_Penalty>
0.865977

> <r_epik_Ionization_Penalty_Charging>
0

> <r_epik_Ionization_Penalty_Neutral>
0.865977

> <r_epik_State_Penalty>
0.901888

> <r_epik_Charging_Adjusted_Penalty>
0.901888

> <i_epik_Tot_Q>
0

> <i_epik_Tot_abs_Q>
0

> <r_epik_Metal_State_Penalty>
0.901181

> <b_epik_Metal_Only>
0

> <s_lp_Force_Field>
OPLS_2005

> <r_lp_Energy>
8.89759

> <b_lp_Chiralities_Consistent>
1

> <s_lp_Variant>
AV-unprocessed.smi:3116-14

> <Gold.Version>
5.8.1

> <Gold.Id.Protein>
6NUR|6NUR_protein|mol2

> <Gold.PLP.Fitness>
41.8316

> <Gold.PLP.PLP>
-33.7244

> <Gold.PLP.part.hbond>
-2.0000

> <Gold.PLP.part.metal>
0.0000

> <Gold.PLP.part.buried>
-4.5074

> <Gold.PLP.part.nonpolar>
-28.7207

> <Gold.PLP.part.repulsive>
1.3483

> <Gold.PLP.ligand.clash>
0.0000

> <Gold.PLP.ligand.torsion>
0.5018

> <Gold.PLP.Chemscore.Hbond>
2.0000

> <Gold.PLP.Chemscore.CHOScore>
1.0000

> <Gold.PLP.Chemscore.Metal>
0.0000

> <Gold.Chemscore.Hbonds>
donor molecule, donor type, donor heavy atom, donor atom, acceptor molecule, acceptor atom, score
      L1  H    14    32       P1  7948  0.98
      P1  H 10752 10764       L1    15  1.00
      L1  C     9    29       P1  8028  0.74

> <Gold.PLP.Chemscore.Internal.Correction>
0.1109

> <Gold.Rescore>
     Score         DG    S(hbond)    S(metal)    S(lipo)     H(rot)  DE(clash)    DE(int)     intcor
     12.84     -14.47       1.96        0.00      73.17       2.38       0.01       1.61       ----

> <Gold.Chemscore.Fitness>
12.8410

> <Gold.Chemscore.DG>
-14.4703

> <Gold.Chemscore.ZeroCoef>
-5.4800

> <Gold.Chemscore.Hbond>
1.9554

> <Gold.Chemscore.Metal>
0.0000

> <Gold.Chemscore.Lipo>
73.1726

> <Gold.Chemscore.Internal_Hbond>
0.0000

> <Gold.Chemscore.DEClash>
0.0149

> <Gold.Chemscore.DEInternal>
1.6144

> <Gold.Chemscore.Rot>
2.3836

> <Gold.Chemscore.Internal.Correction>
   9.000000E+99

> <Gold.Chemscore.Hbonds>
donor molecule, donor type, donor heavy atom, donor atom, acceptor molecule, acceptor atom, score
      L1  H    14    32       P1  7948  0.41
      P1  H 10752 10764       L1    15  1.00

> <Gold.Chemscore.Hbond.Weighted>
-6.5311

> <Gold.Chemscore.Metal.Weighted>
-0.0000

> <Gold.Chemscore.Lipo.Weighted>
-8.5612

> <Gold.Chemscore.Internal_Hbond.Weighted>
0.0000

> <Gold.Chemscore.DEClash.Weighted>
0.0149

> <Gold.Chemscore.DEInternal.Weighted>
1.6144

> <Gold.Chemscore.Rot.Weighted>
6.1020

> <Gold.Chemscore.Internal.Correction.Weighted>
   9.000000E+99

> <Gold.Protein.RotatedTorsions>
[ 6907 6896 6895 6894 ] final  -28.88 input  -60.11 | X-H torsion
[ 7974 7965 7964 7962 ] final  163.51 input  175.53 | X-H torsion
[ 8008 7997 7996 7995 ] final  -65.24 input   59.86 | X-H torsion
[ 10167 10162 10161 10158 ] final   36.75 input  -65.29 | X-H torsion
[ 10718 10713 10712 10709 ] final -158.93 input   66.30 | X-H torsion
[ 10763 10752 10751 10750 ] final  -59.02 input  -60.55 | X-H torsion
[ 11005 11000 10999 10996 ] final   40.13 input  -57.11 | X-H torsion

> <Gold.Protein.ActiveResidues>
 VAL166  LYS551  ARG553  GLY616  TRP617  ASP618  TYR619  PRO620  LYS621  CYS622 
 ASP623  PHE694  ASN695  SER759  ASP760  ASP761  ALA762  ILE779  LEU786  VAL792 
 PHE793  MET794  SER795  GLU796  ALA797  LYS798  CYS799  TRP800  GLU811  SER814 

> <Gold.Protein.RotatedAtoms>
  151.1269  135.0109  159.8563 H   0  0  0  0  0  0  0  0  0  0  0  0  # atno 6907 bound_to 6896
  152.5450  134.1657  159.8586 H   0  0  0  0  0  0  0  0  0  0  0  0  # atno 6908 bound_to 6896
  151.1720  133.4733  159.2627 H   0  0  0  0  0  0  0  0  0  0  0  0  # atno 6909 bound_to 6896
  144.7587  139.8192  143.6340 H   0  0  0  0  0  0  0  0  0  0  0  0  # atno 7974 bound_to 7965
  154.4660  140.0937  156.7020 H   0  0  0  0  0  0  0  0  0  0  0  0  # atno 8008 bound_to 7997
  155.4858  140.3469  155.4328 H   0  0  0  0  0  0  0  0  0  0  0  0  # atno 8009 bound_to 7997
  156.0956  140.1408  156.9524 H   0  0  0  0  0  0  0  0  0  0  0  0  # atno 8010 bound_to 7997
  140.4098  144.1608  150.6138 H   0  0  0  0  0  0  0  0  0  0  0  0  # atno 10167 bound_to 10162
  156.5610  130.8647  151.2809 H   0  0  0  0  0  0  0  0  0  0  0  0  # atno 10718 bound_to 10713
  154.2473  135.6332  153.5228 H   0  0  0  0  0  0  0  0  0  0  0  0  # atno 10763 bound_to 10752
  152.9919  135.5556  154.5846 H   0  0  0  0  0  0  0  0  0  0  0  0  # atno 10764 bound_to 10752
  154.5365  135.2892  155.1108 H   0  0  0  0  0  0  0  0  0  0  0  0  # atno 10765 bound_to 10752
  140.1961  134.3927  155.8120 H   0  0  0  0  0  0  0  0  0  0  0  0  # atno 11005 bound_to 11000
  146.1626  139.4745  142.9979 LP  0  0  0  0  0  0  0  0  0  0  0  0  # atno 17320 bound_to 7965
  145.6693  141.0220  143.1666 LP  0  0  0  0  0  0  0  0  0  0  0  0  # atno 17321 bound_to 7965
  140.4650  143.2434  151.9168 LP  0  0  0  0  0  0  0  0  0  0  0  0  # atno 17342 bound_to 10162
  139.4783  144.5429  151.8502 LP  0  0  0  0  0  0  0  0  0  0  0  0  # atno 17343 bound_to 10162
  157.7368  130.9785  150.2158 LP  0  0  0  0  0  0  0  0  0  0  0  0  # atno 17370 bound_to 10713
  156.2799  130.3732  149.7946 LP  0  0  0  0  0  0  0  0  0  0  0  0  # atno 17371 bound_to 10713
  141.2227  133.7070  156.8178 LP  0  0  0  0  0  0  0  0  0  0  0  0  # atno 17394 bound_to 11000
  140.2106  134.8830  157.3270 LP  0  0  0  0  0  0  0  0  0  0  0  0  # atno 17395 bound_to 11000

$$$$
