AV-unprocessed.smi:2175|AV-procd|sdf|8845|dock3
  -GOLD-   2272012 33D 1   1.00000     0.00000
 Structure written by MMmdl.
 33 34  0  0  0  0  0  0  0  0  2 V2000
  150.7718  136.8288  154.6985 C   0  0  0  0  0  0  0  0  0  0  0  0
  150.8198  138.2709  155.1555 C   0  0  0  0  0  0  0  0  0  0  0  0
  150.0146  139.1174  154.6368 N   0  0  0  0  0  0  0  0  0  0  0  0
  150.0533  140.4570  155.0588 C   0  0  0  0  0  0  0  0  0  0  0  0
  149.0563  141.3900  154.3937 C   0  0  0  0  0  0  0  0  0  0  0  0
  150.9378  140.8722  156.0105 C   0  0  0  0  0  0  0  0  0  0  0  0
  151.0107  142.3157  156.5083 C   0  0  0  0  0  0  0  0  0  0  0  0
  151.1218  142.4920  158.0247 C   0  0  0  0  0  0  0  0  0  0  0  0
  150.9461  141.5343  158.7779 O   0  0  0  0  0  0  0  0  0  0  0  0
  151.4203  143.7257  158.4592 N   0  0  0  0  0  0  0  0  0  0  0  0
  151.5865  144.1043  159.8561 C   0  0  0  0  0  0  0  0  0  0  0  0
  152.8000  143.5063  160.5421 C   0  0  0  0  0  0  0  0  0  0  0  0
  152.9452  142.0116  160.7065 C   0  0  0  0  0  0  0  0  0  0  0  0
  152.6725  142.8803  161.9111 C   0  0  0  0  0  0  0  0  0  0  0  0
  151.8532  139.8662  156.5790 C   0  0  0  0  0  0  0  0  0  0  0  0
  152.6801  140.1890  157.4309 O   0  0  0  0  0  0  0  0  0  0  0  0
  151.7466  138.5850  156.1239 N   0  5  0  0  0  0  0  0  0  0  0  0
  150.1254  136.7143  153.8271 H   0  0  0  0  0  0  0  0  0  0  0  0
  150.3872  136.1941  155.4971 H   0  0  0  0  0  0  0  0  0  0  0  0
  151.7698  136.4813  154.4290 H   0  0  0  0  0  0  0  0  0  0  0  0
  148.3589  141.7917  155.1290 H   0  0  0  0  0  0  0  0  0  0  0  0
  148.4754  140.8683  153.6319 H   0  0  0  0  0  0  0  0  0  0  0  0
  149.5700  142.2209  153.9099 H   0  0  0  0  0  0  0  0  0  0  0  0
  151.8677  142.7935  156.0324 H   0  0  0  0  0  0  0  0  0  0  0  0
  150.1510  142.8901  156.1625 H   0  0  0  0  0  0  0  0  0  0  0  0
  151.5459  144.4530  157.7702 H   0  0  0  0  0  0  0  0  0  0  0  0
  151.6411  145.1911  159.9359 H   0  0  0  0  0  0  0  0  0  0  0  0
  150.6868  143.8052  160.3949 H   0  0  0  0  0  0  0  0  0  0  0  0
  153.7202  144.0614  160.3689 H   0  0  0  0  0  0  0  0  0  0  0  0
  152.1343  141.3803  160.3484 H   0  0  0  0  0  0  0  0  0  0  0  0
  153.9434  141.5909  160.6044 H   0  0  0  0  0  0  0  0  0  0  0  0
  153.4886  143.0368  162.6136 H   0  0  0  0  0  0  0  0  0  0  0  0
  151.6802  142.8248  162.3542 H   0  0  0  0  0  0  0  0  0  0  0  0
  1  2  1  0  0  0  0
  1 18  1  0  0  0  0
  1 19  1  0  0  0  0
  1 20  1  0  0  0  0
  2 17  1  0  0  0  0
  2  3  2  0  0  0  0
  3  4  1  0  0  0  0
  4  5  1  0  0  0  0
  4  6  2  0  0  0  0
  5 21  1  0  0  0  0
  5 22  1  0  0  0  0
  5 23  1  0  0  0  0
  6  7  1  0  0  0  0
  6 15  1  0  0  0  0
  7  8  1  0  0  0  0
  7 24  1  0  0  0  0
  7 25  1  0  0  0  0
  8  9  2  0  0  0  0
  8 10  1  0  0  0  0
 10 11  1  0  0  0  0
 10 26  1  0  0  0  0
 11 12  1  0  0  0  0
 11 27  1  0  0  0  0
 11 28  1  0  0  0  0
 12 14  1  0  0  0  0
 12 13  1  0  0  0  0
 12 29  1  0  0  0  0
 13 14  1  0  0  0  0
 13 30  1  0  0  0  0
 13 31  1  0  0  0  0
 14 32  1  0  0  0  0
 14 33  1  0  0  0  0
 15 16  2  0  0  0  0
 15 17  1  0  0  0  0
M  CHG  1  17  -1
M  END
> <s_m_source_file>
AV-unprocessed.smi

> <i_m_source_file_index>
2175

> <i_lp_mmshare_version>
43012

> <i_f3d_flags>
0

> <s_epik_input>
W0NIM11jMW5jKFtDSDNdKWMoYyg9TylbbkhdMSlbQ0gyXUMoPU8pW05IXVtDSDJdW0NIXTJbQ0gyXVtDSDJdMg==

> <s_epik_cmdline>
J2VwaWtfcHl0aG9uJywgJy1waCcsICc3LjAnLCAnLXRuJywgJzgnLCAnLW1hJywgJzIwMCcsICctbWV0YWxfYmluZGluZycsICctaW1hZScsICc8aW5maWxlLm1hZT4nLCAnLW9tYWUnLCAnPG91dGZpbGUubWFlPic=

> <r_lp_tautomer_probability>
0.839158

> <r_epik_Ionization_Penalty>
6.60351

> <r_epik_Ionization_Penalty_Charging>
6.70818e-08

> <r_epik_Ionization_Penalty_Neutral>
6.60351

> <r_epik_State_Penalty>
4.42903

> <r_epik_Charging_Adjusted_Penalty>
4.42903

> <i_epik_Tot_Q>
-1

> <i_epik_Tot_abs_Q>
1

> <r_epik_Metal_State_Penalty>
0.797668

> <b_epik_Metal_Only>
1

> <s_lp_Force_Field>
OPLS_2005

> <r_lp_Energy>
17.43

> <b_lp_Chiralities_Consistent>
1

> <s_lp_Variant>
AV-unprocessed.smi:2175-3

> <Gold.Version>
5.8.1

> <Gold.Id.Protein>
6NUR|6NUR_protein|mol2

> <Gold.PLP.Fitness>
39.2867

> <Gold.PLP.PLP>
-37.0864

> <Gold.PLP.part.hbond>
-1.0000

> <Gold.PLP.part.metal>
0.0000

> <Gold.PLP.part.buried>
-3.5026

> <Gold.PLP.part.nonpolar>
-31.6691

> <Gold.PLP.part.repulsive>
0.1692

> <Gold.PLP.ligand.clash>
0.0000

> <Gold.PLP.ligand.torsion>
0.6728

> <Gold.PLP.Chemscore.Hbond>
1.0000

> <Gold.PLP.Chemscore.CHOScore>
0.0000

> <Gold.PLP.Chemscore.Metal>
0.0000

> <Gold.Chemscore.Hbonds>
donor molecule, donor type, donor heavy atom, donor atom, acceptor molecule, acceptor atom, score
      P1  H  7997  8008       L1    16  1.00

> <Gold.PLP.Chemscore.Internal.Correction>
0.5459

> <Gold.Rescore>
     Score         DG    S(hbond)    S(metal)    S(lipo)     H(rot)  DE(clash)    DE(int)     intcor
     11.73     -13.91       0.93        0.00      82.63       1.70       0.08       2.10       ----

> <Gold.Chemscore.Fitness>
11.7305

> <Gold.Chemscore.DG>
-13.9077

> <Gold.Chemscore.ZeroCoef>
-5.4800

> <Gold.Chemscore.Hbond>
0.9323

> <Gold.Chemscore.Metal>
0.0000

> <Gold.Chemscore.Lipo>
82.6344

> <Gold.Chemscore.Internal_Hbond>
0.0000

> <Gold.Chemscore.DEClash>
0.0757

> <Gold.Chemscore.DEInternal>
2.1015

> <Gold.Chemscore.Rot>
1.7009

> <Gold.Chemscore.Internal.Correction>
   9.000000E+99

> <Gold.Chemscore.Hbonds>
donor molecule, donor type, donor heavy atom, donor atom, acceptor molecule, acceptor atom, score
      P1  H  7997  8008       L1    16  0.67

> <Gold.Chemscore.Hbond.Weighted>
-3.1138

> <Gold.Chemscore.Metal.Weighted>
-0.0000

> <Gold.Chemscore.Lipo.Weighted>
-9.6682

> <Gold.Chemscore.Internal_Hbond.Weighted>
0.0000

> <Gold.Chemscore.DEClash.Weighted>
0.0757

> <Gold.Chemscore.DEInternal.Weighted>
2.1015

> <Gold.Chemscore.Rot.Weighted>
4.3543

> <Gold.Chemscore.Internal.Correction.Weighted>
   9.000000E+99

> <Gold.Protein.RotatedTorsions>
[ 6907 6896 6895 6894 ] final   26.41 input  -60.11 | X-H torsion
[ 7974 7965 7964 7962 ] final -166.14 input  175.53 | X-H torsion
[ 8008 7997 7996 7995 ] final  -61.24 input   59.86 | X-H torsion
[ 10167 10162 10161 10158 ] final  132.30 input  -65.29 | X-H torsion
[ 10718 10713 10712 10709 ] final  177.31 input   66.30 | X-H torsion
[ 10763 10752 10751 10750 ] final   76.24 input  -60.55 | X-H torsion
[ 11005 11000 10999 10996 ] final  -45.07 input  -57.11 | X-H torsion

> <Gold.Protein.ActiveResidues>
 VAL166  LYS551  ARG553  GLY616  TRP617  ASP618  TYR619  PRO620  LYS621  CYS622 
 ASP623  PHE694  ASN695  SER759  ASP760  ASP761  ALA762  ILE779  LEU786  VAL792 
 PHE793  MET794  SER795  GLU796  ALA797  LYS798  CYS799  TRP800  GLU811  SER814 

> <Gold.Protein.RotatedAtoms>
  151.9871  134.9999  160.0559 H   0  0  0  0  0  0  0  0  0  0  0  0  # atno 6907 bound_to 6896
  152.1643  133.4597  159.4885 H   0  0  0  0  0  0  0  0  0  0  0  0  # atno 6908 bound_to 6896
  150.6892  134.1950  159.4343 H   0  0  0  0  0  0  0  0  0  0  0  0  # atno 6909 bound_to 6896
  144.7252  140.2710  143.6250 H   0  0  0  0  0  0  0  0  0  0  0  0  # atno 7974 bound_to 7965
  154.4438  140.1022  156.6400 H   0  0  0  0  0  0  0  0  0  0  0  0  # atno 8008 bound_to 7997
  155.5511  140.3485  155.4450 H   0  0  0  0  0  0  0  0  0  0  0  0  # atno 8009 bound_to 7997
  156.0528  140.1308  157.0020 H   0  0  0  0  0  0  0  0  0  0  0  0  # atno 8010 bound_to 7997
  139.5346  144.6668  151.4831 H   0  0  0  0  0  0  0  0  0  0  0  0  # atno 10167 bound_to 10162
  156.9072  130.9898  151.3026 H   0  0  0  0  0  0  0  0  0  0  0  0  # atno 10718 bound_to 10713
  153.0711  135.4958  154.8307 H   0  0  0  0  0  0  0  0  0  0  0  0  # atno 10763 bound_to 10752
  154.7024  135.3004  154.9323 H   0  0  0  0  0  0  0  0  0  0  0  0  # atno 10764 bound_to 10752
  154.0043  135.6762  153.4814 H   0  0  0  0  0  0  0  0  0  0  0  0  # atno 10765 bound_to 10752
  141.0492  133.6749  156.2962 H   0  0  0  0  0  0  0  0  0  0  0  0  # atno 11005 bound_to 11000
  145.8043  139.1977  143.2030 LP  0  0  0  0  0  0  0  0  0  0  0  0  # atno 17320 bound_to 7965
  146.0650  140.7930  142.9716 LP  0  0  0  0  0  0  0  0  0  0  0  0  # atno 17321 bound_to 7965
  140.6544  143.8629  150.6820 LP  0  0  0  0  0  0  0  0  0  0  0  0  # atno 17342 bound_to 10162
  140.2004  143.3964  152.1796 LP  0  0  0  0  0  0  0  0  0  0  0  0  # atno 17343 bound_to 10162
  157.5989  130.8498  149.8772 LP  0  0  0  0  0  0  0  0  0  0  0  0  # atno 17370 bound_to 10713
  156.0553  130.3709  150.1106 LP  0  0  0  0  0  0  0  0  0  0  0  0  # atno 17371 bound_to 10713
  140.6088  134.5479  157.5530 LP  0  0  0  0  0  0  0  0  0  0  0  0  # atno 17394 bound_to 11000
  139.9336  134.7917  156.0863 LP  0  0  0  0  0  0  0  0  0  0  0  0  # atno 17395 bound_to 11000

$$$$
