AV-unprocessed.smi:203|AV-procd|sdf|1591|dock8
  -GOLD-   2262019493D 1   1.00000     0.00000
 Structure written by MMmdl.
 57 61  0  0  0  0  0  0  0  0  1 V2000
  143.2717  134.6275  157.8526 O   0  0  0  0  0  0  0  0  0  0  0  0
  144.2973  135.1684  157.4466 C   0  0  0  0  0  0  0  0  0  0  0  0
  144.4846  136.6747  157.3911 C   0  0  0  0  0  0  0  0  0  0  0  0
  145.8092  136.8498  156.6231 C   0  0  2  0  0  0  0  0  0  0  0  0
  145.6494  137.5194  155.2201 C   0  0  2  0  0  0  0  0  0  0  0  0
  144.6221  136.7897  154.3153 C   0  0  0  0  0  0  0  0  0  0  0  0
  144.4746  137.4831  152.9537 C   0  0  0  0  0  0  0  0  0  0  0  0
  145.8435  137.6012  152.2740 C   0  0  0  0  0  0  0  0  0  0  0  0
  146.8377  138.3249  153.1924 C   0  0  0  0  0  0  0  0  0  0  0  0
  146.9253  137.6700  154.4964 N   0  0  0  0  0  0  0  0  0  0  0  0
  147.9616  138.1595  155.2115 C   0  0  0  0  0  0  0  0  0  0  0  0
  148.4790  137.3609  156.1768 N   0  0  0  0  0  0  0  0  0  0  0  0
  149.4603  137.8154  156.9617 C   0  0  0  0  0  0  0  0  0  0  0  0
  150.0475  139.0141  156.9545 N   0  0  0  0  0  0  0  0  0  0  0  0
  149.5364  139.8115  155.9725 C   0  0  0  0  0  0  0  0  0  0  0  0
  148.5101  139.4624  155.0524 C   0  0  0  0  0  0  0  0  0  0  0  0
  148.2531  140.5282  154.1982 N   0  0  0  0  0  0  0  0  0  0  0  0
  149.0601  141.4670  154.6112 C   0  0  0  0  0  0  0  0  0  0  0  0
  149.8485  141.1283  155.6869 N   0  0  0  0  0  0  0  0  0  0  0  0
  150.7734  141.9952  156.3915 C   0  0  0  0  0  0  0  0  0  0  0  0
  150.3953  142.1780  157.8783 C   0  0  2  0  0  0  0  0  0  0  0  0
  149.1377  142.8221  157.9174 O   0  0  0  0  0  0  0  0  0  0  0  0
  151.4157  142.9966  158.7045 C   0  0  1  0  0  0  0  0  0  0  0  0
  151.4383  144.4962  158.3972 C   0  0  0  0  0  0  0  0  0  0  0  0
  151.9735  145.1240  159.6765 C   0  0  0  0  0  0  0  0  0  0  0  0
  151.8642  144.0049  160.7138 C   0  0  0  0  0  0  0  0  0  0  0  0
  151.0704  143.0129  160.0831 O   0  0  0  0  0  0  0  0  0  0  0  0
  146.4396  135.4399  156.5806 C   0  0  0  0  0  0  0  0  0  0  0  0
  145.3854  134.5406  157.0065 N   0  0  0  0  0  0  0  0  0  0  0  0
  143.6375  137.1685  156.9151 H   0  0  0  0  0  0  0  0  0  0  0  0
  144.5671  137.0595  158.4080 H   0  0  0  0  0  0  0  0  0  0  0  0
  146.4384  137.4835  157.2487 H   0  0  0  0  0  0  0  0  0  0  0  0
  145.2625  138.5252  155.3878 H   0  0  0  0  0  0  0  0  0  0  0  0
  144.9279  135.7563  154.1515 H   0  0  0  0  0  0  0  0  0  0  0  0
  143.6442  136.7452  154.7928 H   0  0  0  0  0  0  0  0  0  0  0  0
  143.7855  136.9246  152.3195 H   0  0  0  0  0  0  0  0  0  0  0  0
  144.0418  138.4749  153.0898 H   0  0  0  0  0  0  0  0  0  0  0  0
  146.2223  136.6070  152.0341 H   0  0  0  0  0  0  0  0  0  0  0  0
  145.7493  138.1359  151.3286 H   0  0  0  0  0  0  0  0  0  0  0  0
  147.8209  138.3476  152.7196 H   0  0  0  0  0  0  0  0  0  0  0  0
  146.5263  139.3616  153.3288 H   0  0  0  0  0  0  0  0  0  0  0  0
  149.8178  137.1244  157.7106 H   0  0  0  0  0  0  0  0  0  0  0  0
  149.0829  142.4472  154.1581 H   0  0  0  0  0  0  0  0  0  0  0  0
  151.7752  141.5718  156.3043 H   0  0  0  0  0  0  0  0  0  0  0  0
  150.7973  142.9595  155.8823 H   0  0  0  0  0  0  0  0  0  0  0  0
  150.2740  141.1977  158.3407 H   0  0  0  0  0  0  0  0  0  0  0  0
  149.0632  143.3826  157.1604 H   0  0  0  0  0  0  0  0  0  0  0  0
  152.4191  142.5814  158.5888 H   0  0  0  0  0  0  0  0  0  0  0  0
  152.0460  144.7359  157.5242 H   0  0  0  0  0  0  0  0  0  0  0  0
  150.4258  144.8571  158.2103 H   0  0  0  0  0  0  0  0  0  0  0  0
  153.0091  145.4462  159.5644 H   0  0  0  0  0  0  0  0  0  0  0  0
  151.3787  145.9933  159.9589 H   0  0  0  0  0  0  0  0  0  0  0  0
  152.8466  143.5875  160.9399 H   0  0  0  0  0  0  0  0  0  0  0  0
  151.4126  144.3378  161.6483 H   0  0  0  0  0  0  0  0  0  0  0  0
  146.8126  135.1633  155.5944 H   0  0  0  0  0  0  0  0  0  0  0  0
  147.2736  135.3675  157.2801 H   0  0  0  0  0  0  0  0  0  0  0  0
  145.4769  133.5361  156.9584 H   0  0  0  0  0  0  0  0  0  0  0  0
  1  2  2  0  0  0  0
  2 29  1  0  0  0  0
  2  3  1  0  0  0  0
  3  4  1  0  0  0  0
  3 30  1  0  0  0  0
  3 31  1  0  0  0  0
  4  5  1  0  0  0  0
  4 28  1  0  0  0  0
  4 32  1  0  0  0  0
  5 10  1  0  0  0  0
  5  6  1  0  0  0  0
  5 33  1  0  0  0  0
  6  7  1  0  0  0  0
  6 34  1  0  0  0  0
  6 35  1  0  0  0  0
  7  8  1  0  0  0  0
  7 36  1  0  0  0  0
  7 37  1  0  0  0  0
  8  9  1  0  0  0  0
  8 38  1  0  0  0  0
  8 39  1  0  0  0  0
  9 10  1  0  0  0  0
  9 40  1  0  0  0  0
  9 41  1  0  0  0  0
 10 11  1  0  0  0  0
 11 16  1  0  0  0  0
 11 12  2  0  0  0  0
 12 13  1  0  0  0  0
 13 14  2  0  0  0  0
 13 42  1  0  0  0  0
 14 15  1  0  0  0  0
 15 19  1  0  0  0  0
 15 16  2  0  0  0  0
 16 17  1  0  0  0  0
 17 18  2  0  0  0  0
 18 19  1  0  0  0  0
 18 43  1  0  0  0  0
 19 20  1  0  0  0  0
 20 21  1  0  0  0  0
 20 44  1  0  0  0  0
 20 45  1  0  0  0  0
 21 22  1  0  0  0  0
 21 23  1  0  0  0  0
 21 46  1  0  0  0  0
 22 47  1  0  0  0  0
 23 27  1  0  0  0  0
 23 24  1  0  0  0  0
 23 48  1  0  0  0  0
 24 25  1  0  0  0  0
 24 49  1  0  0  0  0
 24 50  1  0  0  0  0
 25 26  1  0  0  0  0
 25 51  1  0  0  0  0
 25 52  1  0  0  0  0
 26 27  1  0  0  0  0
 26 53  1  0  0  0  0
 26 54  1  0  0  0  0
 28 29  1  0  0  0  0
 28 55  1  0  0  0  0
 28 56  1  0  0  0  0
 29 57  1  0  0  0  0
M  END
> <s_m_source_file>
AV-unprocessed.smi

> <i_m_source_file_index>
203

> <i_lp_mmshare_version>
43012

> <i_f3d_flags>
0

> <s_epik_input>
Tz1DMVtDSDJdW0NASF0oW0NIMl1bTkhdMSlbQ0BASF0yW0NIMl1bQ0gyXVtDSDJdW0NIMl1OMmMobltjSF1uMyljKGMzNCluW2NIXW40W0NIMl1bQ0BIXShbT0hdKVtDQEBIXTVbQ0gyXVtDSDJdW0NIMl1PNQ==

> <s_epik_cmdline>
J2VwaWtfcHl0aG9uJywgJy1waCcsICc3LjAnLCAnLXRuJywgJzgnLCAnLW1hJywgJzIwMCcsICctbWV0YWxfYmluZGluZycsICctaW1hZScsICc8aW5maWxlLm1hZT4nLCAnLW9tYWUnLCAnPG91dGZpbGUubWFlPic=

> <r_lp_tautomer_probability>
1

> <r_epik_Ionization_Penalty>
0.00175146

> <r_epik_Ionization_Penalty_Charging>
0

> <r_epik_Ionization_Penalty_Neutral>
0.00175146

> <r_epik_State_Penalty>
0.00109045

> <r_epik_Charging_Adjusted_Penalty>
0.00109045

> <i_epik_Tot_Q>
0

> <i_epik_Tot_abs_Q>
0

> <r_epik_Metal_State_Penalty>
-0

> <b_epik_Metal_Only>
0

> <s_lp_Force_Field>
OPLS_2005

> <r_lp_Energy>
54.7877

> <b_lp_Chiralities_Consistent>
1

> <s_lp_Variant>
AV-unprocessed.smi:203-10

> <Gold.Version>
5.8.1

> <Gold.Id.Protein>
6NUR|6NUR_protein|mol2

> <Gold.PLP.Fitness>
38.4799

> <Gold.PLP.PLP>
-34.0314

> <Gold.PLP.part.hbond>
-3.3806

> <Gold.PLP.part.metal>
0.0000

> <Gold.PLP.part.buried>
-3.9676

> <Gold.PLP.part.nonpolar>
-28.5647

> <Gold.PLP.part.repulsive>
0.2888

> <Gold.PLP.ligand.clash>
0.0823

> <Gold.PLP.ligand.torsion>
0.5696

> <Gold.PLP.Chemscore.Hbond>
1.6110

> <Gold.PLP.Chemscore.CHOScore>
0.1771

> <Gold.PLP.Chemscore.Metal>
0.0000

> <Gold.Chemscore.Hbonds>
donor molecule, donor type, donor heavy atom, donor atom, acceptor molecule, acceptor atom, score
      L1  H    22    47       P1  8028  1.00
      P1  H 11000 11005       L1     1  0.18
      L1  C    18    43       P1  8028  0.47

> <Gold.PLP.Chemscore.Internal.Correction>
0.3057

> <Gold.Rescore>
     Score         DG    S(hbond)    S(metal)    S(lipo)     H(rot)  DE(clash)    DE(int)     intcor
      9.26     -14.12       1.74        0.00      83.59       2.72       0.17       4.70       ----

> <Gold.Chemscore.Fitness>
9.2606

> <Gold.Chemscore.DG>
-14.1249

> <Gold.Chemscore.ZeroCoef>
-5.4800

> <Gold.Chemscore.Hbond>
1.7426

> <Gold.Chemscore.Metal>
0.0000

> <Gold.Chemscore.Lipo>
83.5924

> <Gold.Chemscore.Internal_Hbond>
0.0000

> <Gold.Chemscore.DEClash>
0.1689

> <Gold.Chemscore.DEInternal>
4.6953

> <Gold.Chemscore.Rot>
2.7171

> <Gold.Chemscore.Internal.Correction>
   9.000000E+99

> <Gold.Chemscore.Hbonds>
donor molecule, donor type, donor heavy atom, donor atom, acceptor molecule, acceptor atom, score
      L1  H    22    47       P1  8028  0.63
      P1  H 11000 11005       L1     1  0.19

> <Gold.Chemscore.Hbond.Weighted>
-5.8203

> <Gold.Chemscore.Metal.Weighted>
-0.0000

> <Gold.Chemscore.Lipo.Weighted>
-9.7803

> <Gold.Chemscore.Internal_Hbond.Weighted>
0.0000

> <Gold.Chemscore.DEClash.Weighted>
0.1689

> <Gold.Chemscore.DEInternal.Weighted>
4.6953

> <Gold.Chemscore.Rot.Weighted>
6.9557

> <Gold.Chemscore.Internal.Correction.Weighted>
   9.000000E+99

> <Gold.Protein.RotatedTorsions>
[ 6907 6896 6895 6894 ] final   95.83 input  -60.11 | X-H torsion
[ 7974 7965 7964 7962 ] final   55.68 input  175.53 | X-H torsion
[ 8008 7997 7996 7995 ] final   69.13 input   59.86 | X-H torsion
[ 10167 10162 10161 10158 ] final -141.35 input  -65.29 | X-H torsion
[ 10718 10713 10712 10709 ] final  -77.70 input   66.30 | X-H torsion
[ 10763 10752 10751 10750 ] final   16.89 input  -60.55 | X-H torsion
[ 11005 11000 10999 10996 ] final -126.88 input  -57.11 | X-H torsion

> <Gold.Protein.ActiveResidues>
 VAL166  LYS551  ARG553  GLY616  TRP617  ASP618  TYR619  PRO620  LYS621  CYS622 
 ASP623  PHE694  ASN695  SER759  ASP760  ASP761  ALA762  ILE779  LEU786  VAL792 
 PHE793  MET794  SER795  GLU796  ALA797  LYS798  CYS799  TRP800  GLU811  SER814 

> <Gold.Protein.RotatedAtoms>
  152.5440  134.0980  159.8305 H   0  0  0  0  0  0  0  0  0  0  0  0  # atno 6907 bound_to 6896
  151.1061  133.5200  159.2615 H   0  0  0  0  0  0  0  0  0  0  0  0  # atno 6908 bound_to 6896
  151.1936  135.0422  159.8897 H   0  0  0  0  0  0  0  0  0  0  0  0  # atno 6909 bound_to 6896
  145.9478  139.3945  143.0324 H   0  0  0  0  0  0  0  0  0  0  0  0  # atno 7974 bound_to 7965
  155.7190  140.3493  155.5007 H   0  0  0  0  0  0  0  0  0  0  0  0  # atno 8008 bound_to 7997
  155.9287  140.1080  157.1171 H   0  0  0  0  0  0  0  0  0  0  0  0  # atno 8009 bound_to 7997
  154.4081  140.1235  156.4761 H   0  0  0  0  0  0  0  0  0  0  0  0  # atno 8010 bound_to 7997
  139.8193  143.7595  152.2666 H   0  0  0  0  0  0  0  0  0  0  0  0  # atno 10167 bound_to 10162
  156.0137  130.4498  150.3385 H   0  0  0  0  0  0  0  0  0  0  0  0  # atno 10718 bound_to 10713
  153.1389  135.6756  153.9058 H   0  0  0  0  0  0  0  0  0  0  0  0  # atno 10763 bound_to 10752
  153.8521  135.3092  155.3434 H   0  0  0  0  0  0  0  0  0  0  0  0  # atno 10764 bound_to 10752
  154.7771  135.4908  153.9850 H   0  0  0  0  0  0  0  0  0  0  0  0  # atno 10765 bound_to 10752
  140.9645  134.0890  157.3934 H   0  0  0  0  0  0  0  0  0  0  0  0  # atno 11005 bound_to 11000
  145.8212  140.9678  143.0898 LP  0  0  0  0  0  0  0  0  0  0  0  0  # atno 17320 bound_to 7965
  144.6790  140.0044  143.7484 LP  0  0  0  0  0  0  0  0  0  0  0  0  # atno 17321 bound_to 7965
  139.7768  144.7458  151.0144 LP  0  0  0  0  0  0  0  0  0  0  0  0  # atno 17342 bound_to 10162
  140.7814  143.4584  151.0312 LP  0  0  0  0  0  0  0  0  0  0  0  0  # atno 17343 bound_to 10162
  157.1481  131.0314  151.2897 LP  0  0  0  0  0  0  0  0  0  0  0  0  # atno 17370 bound_to 10713
  157.4415  130.7547  149.7073 LP  0  0  0  0  0  0  0  0  0  0  0  0  # atno 17371 bound_to 10713
  139.8890  135.0101  156.6651 LP  0  0  0  0  0  0  0  0  0  0  0  0  # atno 17394 bound_to 11000
  140.7419  133.8970  155.8284 LP  0  0  0  0  0  0  0  0  0  0  0  0  # atno 17395 bound_to 11000

$$$$
