AV-unprocessed.smi:2074|AV-procd|sdf|8453|dock1
  -GOLD-   2272011143D 1   1.00000     0.00000
 Structure written by MMmdl.
 43 44  0  0  0  0  0  0  0  0  1 V2000
  147.1551  141.7328  153.8400 C   0  0  0  0  0  0  0  0  0  0  0  0
  148.3840  140.8959  154.0501 C   0  0  0  0  0  0  0  0  0  0  0  0
  149.5384  141.4814  154.3224 N   0  0  0  0  0  0  0  0  0  0  0  0
  150.4703  140.4470  154.4534 O   0  0  0  0  0  0  0  0  0  0  0  0
  149.8325  139.2660  154.2523 C   0  0  0  0  0  0  0  0  0  0  0  0
  150.6658  138.0330  154.3434 C   0  0  0  0  0  0  0  0  0  0  0  0
  148.5057  139.4779  153.9964 C   0  0  0  0  0  0  0  0  0  0  0  0
  147.4229  138.4640  153.7180 C   0  0  0  0  0  0  0  0  0  0  0  0
  147.4393  137.3145  154.7335 C   0  0  0  0  0  0  0  0  0  0  0  0
  147.1304  137.4952  155.9124 O   0  0  0  0  0  0  0  0  0  0  0  0
  147.8043  136.1182  154.2488 N   0  0  0  0  0  0  0  0  0  0  0  0
  147.8718  134.8816  155.0232 C   0  0  0  0  0  0  0  0  0  0  0  0
  149.2704  134.1984  154.9838 C   0  0  1  0  0  0  0  0  0  0  0  0
  150.1991  134.8967  156.0097 C   0  0  0  0  0  0  0  0  0  0  0  0
  149.2089  132.7300  155.1733 N   0  0  0  0  0  0  0  0  0  0  0  0
  150.5300  132.1377  155.4142 C   0  0  0  0  0  0  0  0  0  0  0  0
  150.4790  130.6095  155.5844 C   0  0  0  0  0  0  0  0  0  0  0  0
  149.8849  130.0205  154.4364 O   0  0  0  0  0  0  0  0  0  0  0  0
  148.5699  130.5075  154.2085 C   0  0  0  0  0  0  0  0  0  0  0  0
  148.6045  132.0353  154.0302 C   0  0  0  0  0  0  0  0  0  0  0  0
  146.7271  141.5520  152.8536 H   0  0  0  0  0  0  0  0  0  0  0  0
  147.3720  142.7988  153.9167 H   0  0  0  0  0  0  0  0  0  0  0  0
  146.3920  141.4959  154.5812 H   0  0  0  0  0  0  0  0  0  0  0  0
  150.1997  137.2070  153.8059 H   0  0  0  0  0  0  0  0  0  0  0  0
  150.7957  137.7314  155.3827 H   0  0  0  0  0  0  0  0  0  0  0  0
  151.6530  138.1990  153.9121 H   0  0  0  0  0  0  0  0  0  0  0  0
  146.4380  138.9317  153.7434 H   0  0  0  0  0  0  0  0  0  0  0  0
  147.5310  138.0418  152.7185 H   0  0  0  0  0  0  0  0  0  0  0  0
  148.0441  136.0560  153.2701 H   0  0  0  0  0  0  0  0  0  0  0  0
  147.6026  135.1136  156.0541 H   0  0  0  0  0  0  0  0  0  0  0  0
  147.0872  134.2303  154.6406 H   0  0  0  0  0  0  0  0  0  0  0  0
  149.6924  134.3878  153.9956 H   0  0  0  0  0  0  0  0  0  0  0  0
  150.2029  135.9806  155.8993 H   0  0  0  0  0  0  0  0  0  0  0  0
  151.2403  134.5990  155.8932 H   0  0  0  0  0  0  0  0  0  0  0  0
  149.8955  134.6727  157.0328 H   0  0  0  0  0  0  0  0  0  0  0  0
  151.2030  132.3880  154.5927 H   0  0  0  0  0  0  0  0  0  0  0  0
  150.9734  132.5434  156.3217 H   0  0  0  0  0  0  0  0  0  0  0  0
  151.4852  130.2092  155.7089 H   0  0  0  0  0  0  0  0  0  0  0  0
  149.9139  130.3379  156.4773 H   0  0  0  0  0  0  0  0  0  0  0  0
  148.1649  130.0318  153.3153 H   0  0  0  0  0  0  0  0  0  0  0  0
  147.9209  130.2300  155.0406 H   0  0  0  0  0  0  0  0  0  0  0  0
  147.5757  132.3566  153.8825 H   0  0  0  0  0  0  0  0  0  0  0  0
  149.1489  132.2813  153.1173 H   0  0  0  0  0  0  0  0  0  0  0  0
  1  2  1  0  0  0  0
  1 21  1  0  0  0  0
  1 22  1  0  0  0  0
  1 23  1  0  0  0  0
  2  7  1  0  0  0  0
  2  3  2  0  0  0  0
  3  4  1  0  0  0  0
  4  5  1  0  0  0  0
  5  6  1  0  0  0  0
  5  7  2  0  0  0  0
  6 24  1  0  0  0  0
  6 25  1  0  0  0  0
  6 26  1  0  0  0  0
  7  8  1  0  0  0  0
  8  9  1  0  0  0  0
  8 27  1  0  0  0  0
  8 28  1  0  0  0  0
  9 10  2  0  0  0  0
  9 11  1  0  0  0  0
 11 12  1  0  0  0  0
 11 29  1  0  0  0  0
 12 13  1  0  0  0  0
 12 30  1  0  0  0  0
 12 31  1  0  0  0  0
 13 14  1  0  0  0  0
 13 15  1  0  0  0  0
 13 32  1  0  0  0  0
 14 33  1  0  0  0  0
 14 34  1  0  0  0  0
 14 35  1  0  0  0  0
 15 20  1  0  0  0  0
 15 16  1  0  0  0  0
 16 17  1  0  0  0  0
 16 36  1  0  0  0  0
 16 37  1  0  0  0  0
 17 18  1  0  0  0  0
 17 38  1  0  0  0  0
 17 39  1  0  0  0  0
 18 19  1  0  0  0  0
 19 20  1  0  0  0  0
 19 40  1  0  0  0  0
 19 41  1  0  0  0  0
 20 42  1  0  0  0  0
 20 43  1  0  0  0  0
M  END
> <s_m_source_file>
AV-unprocessed.smi

> <i_m_source_file_index>
2074

> <i_lp_mmshare_version>
43012

> <i_f3d_flags>
0

> <s_epik_input>
W0NIM11jMW5vYyhbQ0gzXSljMVtDSDJdQyg9TylbTkhdW0NIMl1bQ0BIXShbQ0gzXSlOMltDSDJdW0NIMl1PW0NIMl1bQ0gyXTI=

> <s_epik_cmdline>
J2VwaWtfcHl0aG9uJywgJy1waCcsICc3LjAnLCAnLXRuJywgJzgnLCAnLW1hJywgJzIwMCcsICctbWV0YWxfYmluZGluZycsICctaW1hZScsICc8aW5maWxlLm1hZT4nLCAnLW9tYWUnLCAnPG91dGZpbGUubWFlPic=

> <r_epik_Ionization_Penalty>
0.234179

> <r_epik_Ionization_Penalty_Charging>
0

> <r_epik_Ionization_Penalty_Neutral>
0.234179

> <r_epik_State_Penalty>
0.224936

> <r_epik_Charging_Adjusted_Penalty>
0.224936

> <i_epik_Tot_Q>
0

> <i_epik_Tot_abs_Q>
0

> <r_epik_Metal_State_Penalty>
0.224936

> <b_epik_Metal_Only>
0

> <s_lp_Force_Field>
OPLS_2005

> <r_lp_Energy>
23.5804

> <b_lp_Chiralities_Consistent>
1

> <s_lp_Variant>
AV-unprocessed.smi:2074-2

> <Gold.Version>
5.8.1

> <Gold.Id.Protein>
6NUR|6NUR_protein|mol2

> <Gold.PLP.Fitness>
37.2778

> <Gold.PLP.PLP>
-31.8110

> <Gold.PLP.part.hbond>
-3.8923

> <Gold.PLP.part.metal>
0.0000

> <Gold.PLP.part.buried>
-2.3572

> <Gold.PLP.part.nonpolar>
-25.4118

> <Gold.PLP.part.repulsive>
0.4186

> <Gold.PLP.ligand.clash>
0.0000

> <Gold.PLP.ligand.torsion>
0.6418

> <Gold.PLP.Chemscore.Hbond>
2.2148

> <Gold.PLP.Chemscore.CHOScore>
0.0000

> <Gold.PLP.Chemscore.Metal>
0.0000

> <Gold.Chemscore.Hbonds>
donor molecule, donor type, donor heavy atom, donor atom, acceptor molecule, acceptor atom, score
      L1  H    11    29       P1  7948  1.00
      P1  H  7989  7998       L1     4  1.00
      P1  H  8011  8017       L1     3  0.26

> <Gold.PLP.Chemscore.Internal.Correction>
0.1061

> <Gold.Rescore>
     Score         DG    S(hbond)    S(metal)    S(lipo)     H(rot)  DE(clash)    DE(int)     intcor
     14.52     -15.36       1.71        0.00      73.33       1.72       0.24       0.61       ----

> <Gold.Chemscore.Fitness>
14.5187

> <Gold.Chemscore.DG>
-15.3646

> <Gold.Chemscore.ZeroCoef>
-5.4800

> <Gold.Chemscore.Hbond>
1.7087

> <Gold.Chemscore.Metal>
0.0000

> <Gold.Chemscore.Lipo>
73.3278

> <Gold.Chemscore.Internal_Hbond>
0.0000

> <Gold.Chemscore.DEClash>
0.2359

> <Gold.Chemscore.DEInternal>
0.6101

> <Gold.Chemscore.Rot>
1.7195

> <Gold.Chemscore.Internal.Correction>
   9.000000E+99

> <Gold.Chemscore.Hbonds>
donor molecule, donor type, donor heavy atom, donor atom, acceptor molecule, acceptor atom, score
      L1  H    11    29       P1  7948  0.99
      P1  H  7989  7998       L1     4  0.36
      P1  H  8011  8017       L1     3  0.03

> <Gold.Chemscore.Hbond.Weighted>
-5.7071

> <Gold.Chemscore.Metal.Weighted>
-0.0000

> <Gold.Chemscore.Lipo.Weighted>
-8.5793

> <Gold.Chemscore.Internal_Hbond.Weighted>
0.0000

> <Gold.Chemscore.DEClash.Weighted>
0.2359

> <Gold.Chemscore.DEInternal.Weighted>
0.6101

> <Gold.Chemscore.Rot.Weighted>
4.4018

> <Gold.Chemscore.Internal.Correction.Weighted>
   9.000000E+99

> <Gold.Protein.RotatedTorsions>
[ 6907 6896 6895 6894 ] final   71.90 input  -60.11 | X-H torsion
[ 7974 7965 7964 7962 ] final  -30.17 input  175.53 | X-H torsion
[ 8008 7997 7996 7995 ] final  110.72 input   59.86 | X-H torsion
[ 10167 10162 10161 10158 ] final  -27.32 input  -65.29 | X-H torsion
[ 10718 10713 10712 10709 ] final -149.26 input   66.30 | X-H torsion
[ 10763 10752 10751 10750 ] final   51.95 input  -60.55 | X-H torsion
[ 11005 11000 10999 10996 ] final   13.70 input  -57.11 | X-H torsion

> <Gold.Protein.ActiveResidues>
 VAL166  LYS551  ARG553  GLY616  TRP617  ASP618  TYR619  PRO620  LYS621  CYS622 
 ASP623  PHE694  ASN695  SER759  ASP760  ASP761  ALA762  ILE779  LEU786  VAL792 
 PHE793  MET794  SER795  GLU796  ALA797  LYS798  CYS799  TRP800  GLU811  SER814 

> <Gold.Protein.RotatedAtoms>
  152.4837  134.4652  159.9617 H   0  0  0  0  0  0  0  0  0  0  0  0  # atno 6907 bound_to 6896
  151.4652  133.3576  159.2823 H   0  0  0  0  0  0  0  0  0  0  0  0  # atno 6908 bound_to 6896
  150.8929  134.8360  159.7367 H   0  0  0  0  0  0  0  0  0  0  0  0  # atno 6909 bound_to 6896
  146.1163  140.5506  142.8755 H   0  0  0  0  0  0  0  0  0  0  0  0  # atno 7974 bound_to 7965
  156.2073  140.3033  155.9655 H   0  0  0  0  0  0  0  0  0  0  0  0  # atno 8008 bound_to 7997
  155.2810  140.0438  157.3032 H   0  0  0  0  0  0  0  0  0  0  0  0  # atno 8009 bound_to 7997
  154.5651  140.2331  155.8285 H   0  0  0  0  0  0  0  0  0  0  0  0  # atno 8010 bound_to 7997
  140.7278  143.4103  151.1116 H   0  0  0  0  0  0  0  0  0  0  0  0  # atno 10167 bound_to 10162
  156.4308  130.8074  151.2301 H   0  0  0  0  0  0  0  0  0  0  0  0  # atno 10718 bound_to 10713
  152.9787  135.5829  154.4499 H   0  0  0  0  0  0  0  0  0  0  0  0  # atno 10763 bound_to 10752
  154.4089  135.2770  155.2051 H   0  0  0  0  0  0  0  0  0  0  0  0  # atno 10764 bound_to 10752
  154.3850  135.6138  153.5865 H   0  0  0  0  0  0  0  0  0  0  0  0  # atno 10765 bound_to 10752
  140.4778  134.0965  155.7745 H   0  0  0  0  0  0  0  0  0  0  0  0  # atno 11005 bound_to 11000
  144.7556  140.5299  143.6771 LP  0  0  0  0  0  0  0  0  0  0  0  0  # atno 17320 bound_to 7965
  145.5560  139.1478  143.3368 LP  0  0  0  0  0  0  0  0  0  0  0  0  # atno 17321 bound_to 7965
  139.7735  143.8459  152.3125 LP  0  0  0  0  0  0  0  0  0  0  0  0  # atno 17342 bound_to 10162
  139.8385  144.7221  150.9360 LP  0  0  0  0  0  0  0  0  0  0  0  0  # atno 17343 bound_to 10162
  157.7508  131.0199  150.3686 LP  0  0  0  0  0  0  0  0  0  0  0  0  # atno 17370 bound_to 10713
  156.4022  130.3918  149.6951 LP  0  0  0  0  0  0  0  0  0  0  0  0  # atno 17371 bound_to 10713
  141.1546  133.8907  157.2011 LP  0  0  0  0  0  0  0  0  0  0  0  0  # atno 17394 bound_to 11000
  139.9845  135.0087  156.9829 LP  0  0  0  0  0  0  0  0  0  0  0  0  # atno 17395 bound_to 11000

$$$$
