AV-unprocessed.smi:917|AV-procd|sdf|4162|dock1
  -GOLD-   22720 2 63D 1   1.00000     0.00000
 Structure written by MMmdl.
 43 44  0  0  0  0  0  0  0  0  1 V2000
  147.0692  139.9179  152.1060 C   0  0  0  0  0  0  0  0  0  0  0  0
  147.4027  139.4314  153.4870 C   0  0  0  0  0  0  0  0  0  0  0  0
  146.9191  138.2748  153.9081 N   0  0  0  0  0  0  0  0  0  0  0  0
  147.4055  138.1072  155.2081 O   0  0  0  0  0  0  0  0  0  0  0  0
  148.1708  139.1827  155.5232 C   0  0  0  0  0  0  0  0  0  0  0  0
  148.7874  139.1839  156.8811 C   0  0  0  0  0  0  0  0  0  0  0  0
  148.2080  140.0640  154.4771 C   0  0  0  0  0  0  0  0  0  0  0  0
  148.9271  141.3848  154.3775 C   0  0  0  0  0  0  0  0  0  0  0  0
  150.1161  141.3937  155.3386 C   0  0  0  0  0  0  0  0  0  0  0  0
  150.9514  140.4905  155.2929 O   0  0  0  0  0  0  0  0  0  0  0  0
  150.1698  142.4086  156.2147 N   0  0  0  0  0  0  0  0  0  0  0  0
  151.1792  142.5645  157.2545 C   0  0  0  0  0  0  0  0  0  0  0  0
  150.7650  143.6375  158.2738 C   0  0  0  0  0  0  0  0  0  0  0  0
  151.9556  144.4800  158.7563 C   0  0  0  0  0  0  0  0  0  0  0  0
  152.7234  143.8339  159.9231 C   0  0  0  0  0  0  0  0  0  0  0  0
  152.9162  142.3244  159.7646 C   0  0  0  0  0  0  0  0  0  0  0  0
  153.2620  141.8270  161.1705 C   0  0  0  0  0  0  0  0  0  0  0  0
  152.6221  142.8277  162.1447 C   0  0  0  0  0  0  0  0  0  0  0  0
  152.0300  143.9520  161.2849 C   0  0  0  0  0  0  0  0  0  0  0  0
  147.9638  140.2644  151.5882 H   0  0  0  0  0  0  0  0  0  0  0  0
  146.3663  140.7500  152.1467 H   0  0  0  0  0  0  0  0  0  0  0  0
  146.6200  139.1317  151.4974 H   0  0  0  0  0  0  0  0  0  0  0  0
  149.6081  139.8986  156.9387 H   0  0  0  0  0  0  0  0  0  0  0  0
  149.1838  138.1987  157.1274 H   0  0  0  0  0  0  0  0  0  0  0  0
  148.0511  139.4525  157.6386 H   0  0  0  0  0  0  0  0  0  0  0  0
  149.2971  141.5626  153.3673 H   0  0  0  0  0  0  0  0  0  0  0  0
  148.2592  142.2170  154.6038 H   0  0  0  0  0  0  0  0  0  0  0  0
  149.4418  143.1072  156.1772 H   0  0  0  0  0  0  0  0  0  0  0  0
  151.3607  141.6106  157.7526 H   0  0  0  0  0  0  0  0  0  0  0  0
  152.1172  142.8477  156.7761 H   0  0  0  0  0  0  0  0  0  0  0  0
  150.0139  144.2906  157.8273 H   0  0  0  0  0  0  0  0  0  0  0  0
  150.2877  143.1590  159.1298 H   0  0  0  0  0  0  0  0  0  0  0  0
  152.6351  144.6642  157.9231 H   0  0  0  0  0  0  0  0  0  0  0  0
  151.5919  145.4580  159.0736 H   0  0  0  0  0  0  0  0  0  0  0  0
  153.7107  144.2926  159.9976 H   0  0  0  0  0  0  0  0  0  0  0  0
  151.9842  141.8624  159.4350 H   0  0  0  0  0  0  0  0  0  0  0  0
  153.6855  142.0741  159.0335 H   0  0  0  0  0  0  0  0  0  0  0  0
  152.9118  140.8077  161.3363 H   0  0  0  0  0  0  0  0  0  0  0  0
  154.3444  141.8268  161.3059 H   0  0  0  0  0  0  0  0  0  0  0  0
  151.8510  142.3584  162.7568 H   0  0  0  0  0  0  0  0  0  0  0  0
  153.3796  143.2225  162.8232 H   0  0  0  0  0  0  0  0  0  0  0  0
  152.1678  144.9338  161.7389 H   0  0  0  0  0  0  0  0  0  0  0  0
  150.9569  143.7917  161.1705 H   0  0  0  0  0  0  0  0  0  0  0  0
  1  2  1  0  0  0  0
  1 20  1  0  0  0  0
  1 21  1  0  0  0  0
  1 22  1  0  0  0  0
  2  7  1  0  0  0  0
  2  3  2  0  0  0  0
  3  4  1  0  0  0  0
  4  5  1  0  0  0  0
  5  6  1  0  0  0  0
  5  7  2  0  0  0  0
  6 23  1  0  0  0  0
  6 24  1  0  0  0  0
  6 25  1  0  0  0  0
  7  8  1  0  0  0  0
  8  9  1  0  0  0  0
  8 26  1  0  0  0  0
  8 27  1  0  0  0  0
  9 10  2  0  0  0  0
  9 11  1  0  0  0  0
 11 12  1  0  0  0  0
 11 28  1  0  0  0  0
 12 13  1  0  0  0  0
 12 29  1  0  0  0  0
 12 30  1  0  0  0  0
 13 14  1  0  0  0  0
 13 31  1  0  0  0  0
 13 32  1  0  0  0  0
 14 15  1  0  0  0  0
 14 33  1  0  0  0  0
 14 34  1  0  0  0  0
 15 19  1  0  0  0  0
 15 16  1  0  0  0  0
 15 35  1  0  0  0  0
 16 17  1  0  0  0  0
 16 36  1  0  0  0  0
 16 37  1  0  0  0  0
 17 18  1  0  0  0  0
 17 38  1  0  0  0  0
 17 39  1  0  0  0  0
 18 19  1  0  0  0  0
 18 40  1  0  0  0  0
 18 41  1  0  0  0  0
 19 42  1  0  0  0  0
 19 43  1  0  0  0  0
M  END
> <s_m_source_file>
AV-unprocessed.smi

> <i_m_source_file_index>
917

> <i_lp_mmshare_version>
43012

> <i_f3d_flags>
0

> <s_epik_input>
W0NIM11jMW5vYyhbQ0gzXSljMVtDSDJdQyg9TylbTkhdW0NIMl1bQ0gyXVtDSDJdW0NIXTJbQ0gyXVtDSDJdW0NIMl1bQ0gyXTI=

> <s_epik_cmdline>
J2VwaWtfcHl0aG9uJywgJy1waCcsICc3LjAnLCAnLXRuJywgJzgnLCAnLW1hJywgJzIwMCcsICctbWV0YWxfYmluZGluZycsICctaW1hZScsICc8aW5maWxlLm1hZT4nLCAnLW9tYWUnLCAnPG91dGZpbGUubWFlPic=

> <r_lp_tautomer_probability>
1

> <r_epik_Ionization_Penalty>
1.90047e-08

> <r_epik_Ionization_Penalty_Charging>
0

> <r_epik_Ionization_Penalty_Neutral>
1.90047e-08

> <r_epik_State_Penalty>
-0

> <r_epik_Charging_Adjusted_Penalty>
0

> <i_epik_Tot_Q>
0

> <i_epik_Tot_abs_Q>
0

> <r_epik_Metal_State_Penalty>
-0

> <b_epik_Metal_Only>
0

> <s_lp_Force_Field>
OPLS_2005

> <r_lp_Energy>
14.8475

> <b_lp_Chiralities_Consistent>
1

> <s_lp_Variant>
AV-unprocessed.smi:917-1

> <Gold.Version>
5.8.1

> <Gold.Id.Protein>
6NUR|6NUR_protein|mol2

> <Gold.PLP.Fitness>
47.1220

> <Gold.PLP.PLP>
-43.3664

> <Gold.PLP.part.hbond>
-2.0000

> <Gold.PLP.part.metal>
0.0000

> <Gold.PLP.part.buried>
-2.1581

> <Gold.PLP.part.nonpolar>
-38.9450

> <Gold.PLP.part.repulsive>
0.3499

> <Gold.PLP.ligand.clash>
0.0000

> <Gold.PLP.ligand.torsion>
1.0095

> <Gold.PLP.Chemscore.Hbond>
1.9040

> <Gold.PLP.Chemscore.CHOScore>
0.0000

> <Gold.PLP.Chemscore.Metal>
0.0000

> <Gold.Chemscore.Hbonds>
donor molecule, donor type, donor heavy atom, donor atom, acceptor molecule, acceptor atom, score
      L1  H    11    28       P1  8028  0.99
      P1  H  7989  7998       L1    10  0.83

> <Gold.PLP.Chemscore.Internal.Correction>
0.0626

> <Gold.Rescore>
     Score         DG    S(hbond)    S(metal)    S(lipo)     H(rot)  DE(clash)    DE(int)     intcor
     17.88     -20.33       1.40        0.00     123.10       1.65       0.51       1.93       ----

> <Gold.Chemscore.Fitness>
17.8807

> <Gold.Chemscore.DG>
-20.3263

> <Gold.Chemscore.ZeroCoef>
-5.4800

> <Gold.Chemscore.Hbond>
1.3970

> <Gold.Chemscore.Metal>
0.0000

> <Gold.Chemscore.Lipo>
123.1042

> <Gold.Chemscore.Internal_Hbond>
0.0000

> <Gold.Chemscore.DEClash>
0.5128

> <Gold.Chemscore.DEInternal>
1.9328

> <Gold.Chemscore.Rot>
1.6495

> <Gold.Chemscore.Internal.Correction>
   9.000000E+99

> <Gold.Chemscore.Hbonds>
donor molecule, donor type, donor heavy atom, donor atom, acceptor molecule, acceptor atom, score
      L1  H    11    28       P1  8028  0.94
      P1  H  7989  7998       L1    10  0.14

> <Gold.Chemscore.Hbond.Weighted>
-4.6659

> <Gold.Chemscore.Metal.Weighted>
-0.0000

> <Gold.Chemscore.Lipo.Weighted>
-14.4032

> <Gold.Chemscore.Internal_Hbond.Weighted>
0.0000

> <Gold.Chemscore.DEClash.Weighted>
0.5128

> <Gold.Chemscore.DEInternal.Weighted>
1.9328

> <Gold.Chemscore.Rot.Weighted>
4.2228

> <Gold.Chemscore.Internal.Correction.Weighted>
   9.000000E+99

> <Gold.Protein.RotatedTorsions>
[ 6907 6896 6895 6894 ] final   96.07 input  -60.11 | X-H torsion
[ 7974 7965 7964 7962 ] final -161.16 input  175.53 | X-H torsion
[ 8008 7997 7996 7995 ] final   48.77 input   59.86 | X-H torsion
[ 10167 10162 10161 10158 ] final  130.62 input  -65.29 | X-H torsion
[ 10718 10713 10712 10709 ] final   63.54 input   66.30 | X-H torsion
[ 10763 10752 10751 10750 ] final   54.20 input  -60.55 | X-H torsion
[ 11005 11000 10999 10996 ] final  -73.32 input  -57.11 | X-H torsion

> <Gold.Protein.ActiveResidues>
 VAL166  LYS551  ARG553  GLY616  TRP617  ASP618  TYR619  PRO620  LYS621  CYS622 
 ASP623  PHE694  ASN695  SER759  ASP760  ASP761  ALA762  ILE779  LEU786  VAL792 
 PHE793  MET794  SER795  GLU796  ALA797  LYS798  CYS799  TRP800  GLU811  SER814 

> <Gold.Protein.RotatedAtoms>
  152.5438  134.0943  159.8290 H   0  0  0  0  0  0  0  0  0  0  0  0  # atno 6907 bound_to 6896
  151.1029  133.5223  159.2616 H   0  0  0  0  0  0  0  0  0  0  0  0  # atno 6908 bound_to 6896
  151.1971  135.0436  159.8911 H   0  0  0  0  0  0  0  0  0  0  0  0  # atno 6909 bound_to 6896
  144.7401  140.3438  143.6129 H   0  0  0  0  0  0  0  0  0  0  0  0  # atno 7974 bound_to 7965
  155.3911  140.3433  155.4251 H   0  0  0  0  0  0  0  0  0  0  0  0  # atno 8008 bound_to 7997
  156.1557  140.1585  156.8729 H   0  0  0  0  0  0  0  0  0  0  0  0  # atno 8009 bound_to 7997
  154.5092  140.0794  156.7938 H   0  0  0  0  0  0  0  0  0  0  0  0  # atno 8010 bound_to 7997
  139.5421  144.6740  151.4589 H   0  0  0  0  0  0  0  0  0  0  0  0  # atno 10167 bound_to 10162
  157.5978  130.9111  149.9729 H   0  0  0  0  0  0  0  0  0  0  0  0  # atno 10718 bound_to 10713
  152.9802  135.5753  154.4866 H   0  0  0  0  0  0  0  0  0  0  0  0  # atno 10763 bound_to 10752
  154.4407  135.2776  155.1852 H   0  0  0  0  0  0  0  0  0  0  0  0  # atno 10764 bound_to 10752
  154.3521  135.6207  153.5701 H   0  0  0  0  0  0  0  0  0  0  0  0  # atno 10765 bound_to 10752
  141.1621  133.6874  156.7193 H   0  0  0  0  0  0  0  0  0  0  0  0  # atno 11005 bound_to 11000
  145.7347  139.1746  143.2410 LP  0  0  0  0  0  0  0  0  0  0  0  0  # atno 17320 bound_to 7965
  146.1180  140.7345  142.9471 LP  0  0  0  0  0  0  0  0  0  0  0  0  # atno 17321 bound_to 7965
  140.6656  143.8406  150.6938 LP  0  0  0  0  0  0  0  0  0  0  0  0  # atno 17342 bound_to 10162
  140.1814  143.4112  152.1930 LP  0  0  0  0  0  0  0  0  0  0  0  0  # atno 17343 bound_to 10162
  156.1045  130.3653  150.0159 LP  0  0  0  0  0  0  0  0  0  0  0  0  # atno 17370 bound_to 10713
  156.8268  130.9378  151.3639 LP  0  0  0  0  0  0  0  0  0  0  0  0  # atno 17371 bound_to 10713
  140.2828  134.8303  157.3948 LP  0  0  0  0  0  0  0  0  0  0  0  0  # atno 17394 bound_to 11000
  140.1418  134.4962  155.8026 LP  0  0  0  0  0  0  0  0  0  0  0  0  # atno 17395 bound_to 11000

$$$$
