AV-unprocessed.smi:2990|AV-procd|sdf|11396|dock4
  -GOLD-   2272016323D 1   1.00000     0.00000
 Structure written by MMmdl.
 40 42  0  0  0  0  0  0  0  0  2 V2000
  150.6860  145.7671  160.0298 C   0  0  0  0  0  0  0  0  0  0  0  0
  151.4587  144.6157  160.5804 C   0  0  0  0  0  0  0  0  0  0  0  0
  151.7759  144.4168  161.8910 N   0  3  0  0  0  0  0  0  0  0  0  0
  152.5090  143.2366  162.0260 C   0  0  0  0  0  0  0  0  0  0  0  0
  153.0501  142.6225  163.1513 C   0  0  0  0  0  0  0  0  0  0  0  0
  153.7478  141.4150  162.9392 C   0  0  0  0  0  0  0  0  0  0  0  0
  153.8875  140.8643  161.6484 C   0  0  0  0  0  0  0  0  0  0  0  0
  153.3360  141.4971  160.5147 C   0  0  0  0  0  0  0  0  0  0  0  0
  152.6460  142.6890  160.7342 C   0  0  0  0  0  0  0  0  0  0  0  0
  151.9798  143.5703  159.8762 N   0  0  0  0  0  0  0  0  0  0  0  0
  151.9425  143.2776  158.4355 C   0  0  0  0  0  0  0  0  0  0  0  0
  150.5936  142.6901  157.9733 C   0  0  1  0  0  0  0  0  0  0  0  0
  149.5508  143.5983  158.2665 O   0  0  0  0  0  0  0  0  0  0  0  0
  150.5735  142.3898  156.4680 C   0  0  0  0  0  0  0  0  0  0  0  0
  149.5826  141.4035  156.2103 O   0  0  0  0  0  0  0  0  0  0  0  0
  149.9983  140.1394  155.8509 C   0  0  0  0  0  0  0  0  0  0  0  0
  149.0622  139.3244  155.1812 C   0  0  0  0  0  0  0  0  0  0  0  0
  149.4011  138.0184  154.7780 C   0  0  0  0  0  0  0  0  0  0  0  0
  150.6875  137.5127  155.0410 C   0  0  0  0  0  0  0  0  0  0  0  0
  151.6323  138.3154  155.7068 C   0  0  0  0  0  0  0  0  0  0  0  0
  151.2928  139.6216  156.1105 C   0  0  0  0  0  0  0  0  0  0  0  0
  150.2876  146.3825  160.8367 H   0  0  0  0  0  0  0  0  0  0  0  0
  149.8532  145.4093  159.4240 H   0  0  0  0  0  0  0  0  0  0  0  0
  151.3302  146.3868  159.4059 H   0  0  0  0  0  0  0  0  0  0  0  0
  152.9454  143.0430  164.1407 H   0  0  0  0  0  0  0  0  0  0  0  0
  154.1847  140.9012  163.7833 H   0  0  0  0  0  0  0  0  0  0  0  0
  154.4291  139.9376  161.5251 H   0  0  0  0  0  0  0  0  0  0  0  0
  153.4484  141.0685  159.5298 H   0  0  0  0  0  0  0  0  0  0  0  0
  152.1541  144.2053  157.9024 H   0  0  0  0  0  0  0  0  0  0  0  0
  152.7645  142.5991  158.2040 H   0  0  0  0  0  0  0  0  0  0  0  0
  150.3845  141.7691  158.5179 H   0  0  0  0  0  0  0  0  0  0  0  0
  149.5069  144.2373  157.5719 H   0  0  0  0  0  0  0  0  0  0  0  0
  150.3326  143.2998  155.9153 H   0  0  0  0  0  0  0  0  0  0  0  0
  151.5565  142.0450  156.1427 H   0  0  0  0  0  0  0  0  0  0  0  0
  148.0720  139.7042  154.9759 H   0  0  0  0  0  0  0  0  0  0  0  0
  148.6736  137.4052  154.2670 H   0  0  0  0  0  0  0  0  0  0  0  0
  150.9492  136.5113  154.7325 H   0  0  0  0  0  0  0  0  0  0  0  0
  152.6206  137.9292  155.9085 H   0  0  0  0  0  0  0  0  0  0  0  0
  152.0451  140.2067  156.6169 H   0  0  0  0  0  0  0  0  0  0  0  0
  151.5101  145.0460  162.6377 H   0  0  0  0  0  0  0  0  0  0  0  0
  1  2  1  0  0  0  0
  1 22  1  0  0  0  0
  1 23  1  0  0  0  0
  1 24  1  0  0  0  0
  2 10  1  0  0  0  0
  2  3  2  0  0  0  0
  3  4  1  0  0  0  0
  3 40  1  0  0  0  0
  4  9  2  0  0  0  0
  4  5  1  0  0  0  0
  5  6  2  0  0  0  0
  5 25  1  0  0  0  0
  6  7  1  0  0  0  0
  6 26  1  0  0  0  0
  7  8  2  0  0  0  0
  7 27  1  0  0  0  0
  8  9  1  0  0  0  0
  8 28  1  0  0  0  0
  9 10  1  0  0  0  0
 10 11  1  0  0  0  0
 11 12  1  0  0  0  0
 11 29  1  0  0  0  0
 11 30  1  0  0  0  0
 12 13  1  0  0  0  0
 12 14  1  0  0  0  0
 12 31  1  0  0  0  0
 13 32  1  0  0  0  0
 14 15  1  0  0  0  0
 14 33  1  0  0  0  0
 14 34  1  0  0  0  0
 15 16  1  0  0  0  0
 16 21  1  0  0  0  0
 16 17  2  0  0  0  0
 17 18  1  0  0  0  0
 17 35  1  0  0  0  0
 18 19  2  0  0  0  0
 18 36  1  0  0  0  0
 19 20  1  0  0  0  0
 19 37  1  0  0  0  0
 20 21  2  0  0  0  0
 20 38  1  0  0  0  0
 21 39  1  0  0  0  0
M  CHG  1   3   1
M  END
> <s_m_source_file>
AV-unprocessed.smi

> <i_m_source_file_index>
2990

> <i_lp_mmshare_version>
43012

> <i_f3d_flags>
0

> <s_epik_input>
W2NIXTFbY0hdW2NIXVtjSF1jKGMxMiluKGMobjIpW0NIM10pW0NIMl1bQ0BIXShbT0hdKVtDSDJdT2MzW2NIXVtjSF1bY0hdW2NIXVtjSF0z

> <s_epik_cmdline>
J2VwaWtfcHl0aG9uJywgJy1waCcsICc3LjAnLCAnLXRuJywgJzgnLCAnLW1hJywgJzIwMCcsICctbWV0YWxfYmluZGluZycsICctaW1hZScsICc8aW5maWxlLm1hZT4nLCAnLW9tYWUnLCAnPG91dGZpbGUubWFlPic=

> <r_lp_tautomer_probability>
1

> <r_epik_Ionization_Penalty>
1.00673

> <r_epik_Ionization_Penalty_Charging>
1.00673

> <r_epik_Ionization_Penalty_Neutral>
2.3993e-06

> <r_epik_State_Penalty>
1.05579

> <r_epik_Charging_Adjusted_Penalty>
2.06252

> <i_epik_Tot_Q>
1

> <i_epik_Tot_abs_Q>
1

> <r_epik_Metal_State_Penalty>
5.03947

> <b_epik_Metal_Only>
0

> <s_lp_Force_Field>
OPLS_2005

> <r_lp_Energy>
17.9265

> <b_lp_Chiralities_Consistent>
1

> <s_lp_Variant>
AV-unprocessed.smi:2990-4

> <Gold.Version>
5.8.1

> <Gold.Id.Protein>
6NUR|6NUR_protein|mol2

> <Gold.PLP.Fitness>
57.0387

> <Gold.PLP.PLP>
-56.2223

> <Gold.PLP.part.hbond>
-3.0533

> <Gold.PLP.part.metal>
0.0000

> <Gold.PLP.part.buried>
-0.4861

> <Gold.PLP.part.nonpolar>
-52.6031

> <Gold.PLP.part.repulsive>
0.1561

> <Gold.PLP.ligand.clash>
0.0000

> <Gold.PLP.ligand.torsion>
1.1112

> <Gold.PLP.Chemscore.Hbond>
1.0000

> <Gold.PLP.Chemscore.CHOScore>
0.0000

> <Gold.PLP.Chemscore.Metal>
0.0000

> <Gold.Chemscore.Hbonds>
donor molecule, donor type, donor heavy atom, donor atom, acceptor molecule, acceptor atom, score
      L1  H    13    32       P1  8028  0.74

> <Gold.PLP.Chemscore.Internal.Correction>
0.0388

> <Gold.Rescore>
     Score         DG    S(hbond)    S(metal)    S(lipo)     H(rot)  DE(clash)    DE(int)     intcor
     17.52     -18.34       0.85        0.00     131.98       2.12       0.21       0.61       ----

> <Gold.Chemscore.Fitness>
17.5164

> <Gold.Chemscore.DG>
-18.3401

> <Gold.Chemscore.ZeroCoef>
-5.4800

> <Gold.Chemscore.Hbond>
0.8506

> <Gold.Chemscore.Metal>
0.0000

> <Gold.Chemscore.Lipo>
131.9845

> <Gold.Chemscore.Internal_Hbond>
0.0000

> <Gold.Chemscore.DEClash>
0.2091

> <Gold.Chemscore.DEInternal>
0.6145

> <Gold.Chemscore.Rot>
2.1184

> <Gold.Chemscore.Internal.Correction>
   9.000000E+99

> <Gold.Chemscore.Hbonds>
donor molecule, donor type, donor heavy atom, donor atom, acceptor molecule, acceptor atom, score
      L1  H    13    32       P1  8028  0.08

> <Gold.Chemscore.Hbond.Weighted>
-2.8410

> <Gold.Chemscore.Metal.Weighted>
-0.0000

> <Gold.Chemscore.Lipo.Weighted>
-15.4422

> <Gold.Chemscore.Internal_Hbond.Weighted>
0.0000

> <Gold.Chemscore.DEClash.Weighted>
0.2091

> <Gold.Chemscore.DEInternal.Weighted>
0.6145

> <Gold.Chemscore.Rot.Weighted>
5.4231

> <Gold.Chemscore.Internal.Correction.Weighted>
   9.000000E+99

> <Gold.Protein.RotatedTorsions>
[ 6907 6896 6895 6894 ] final  133.20 input  -60.11 | X-H torsion
[ 7974 7965 7964 7962 ] final  -99.77 input  175.53 | X-H torsion
[ 8008 7997 7996 7995 ] final -121.06 input   59.86 | X-H torsion
[ 10167 10162 10161 10158 ] final   88.33 input  -65.29 | X-H torsion
[ 10718 10713 10712 10709 ] final  -19.13 input   66.30 | X-H torsion
[ 10763 10752 10751 10750 ] final -167.22 input  -60.55 | X-H torsion
[ 11005 11000 10999 10996 ] final  165.27 input  -57.11 | X-H torsion

> <Gold.Protein.ActiveResidues>
 VAL166  LYS551  ARG553  GLY616  TRP617  ASP618  TYR619  PRO620  LYS621  CYS622 
 ASP623  PHE694  ASN695  SER759  ASP760  ASP761  ALA762  ILE779  LEU786  VAL792 
 PHE793  MET794  SER795  GLU796  ALA797  LYS798  CYS799  TRP800  GLU811  SER814 

> <Gold.Protein.RotatedAtoms>
  152.3245  133.5889  159.5766 H   0  0  0  0  0  0  0  0  0  0  0  0  # atno 6907 bound_to 6896
  150.7389  133.9961  159.3632 H   0  0  0  0  0  0  0  0  0  0  0  0  # atno 6908 bound_to 6896
  151.7843  135.0754  160.0429 H   0  0  0  0  0  0  0  0  0  0  0  0  # atno 6909 bound_to 6896
  145.3032  140.9382  143.2812 H   0  0  0  0  0  0  0  0  0  0  0  0  # atno 7974 bound_to 7965
  155.1419  140.0402  157.2800 H   0  0  0  0  0  0  0  0  0  0  0  0  # atno 8008 bound_to 7997
  154.6466  140.2559  155.7234 H   0  0  0  0  0  0  0  0  0  0  0  0  # atno 8009 bound_to 7997
  156.2558  140.2844  156.0883 H   0  0  0  0  0  0  0  0  0  0  0  0  # atno 8010 bound_to 7997
  139.8684  144.6506  150.8978 H   0  0  0  0  0  0  0  0  0  0  0  0  # atno 10167 bound_to 10162
  156.5499  130.4699  149.6457 H   0  0  0  0  0  0  0  0  0  0  0  0  # atno 10718 bound_to 10713
  154.6754  135.2946  154.9686 H   0  0  0  0  0  0  0  0  0  0  0  0  # atno 10763 bound_to 10752
  154.0699  135.6619  153.4827 H   0  0  0  0  0  0  0  0  0  0  0  0  # atno 10764 bound_to 10752
  153.0513  135.5172  154.7770 H   0  0  0  0  0  0  0  0  0  0  0  0  # atno 10765 bound_to 10752
  140.2544  134.7951  157.3532 H   0  0  0  0  0  0  0  0  0  0  0  0  # atno 11005 bound_to 11000
  144.9076  139.4569  143.6602 LP  0  0  0  0  0  0  0  0  0  0  0  0  # atno 17320 bound_to 7965
  146.3144  139.7866  142.8994 LP  0  0  0  0  0  0  0  0  0  0  0  0  # atno 17321 bound_to 7965
  140.7764  143.3685  151.1694 LP  0  0  0  0  0  0  0  0  0  0  0  0  # atno 17342 bound_to 10162
  139.7307  143.9077  152.3018 LP  0  0  0  0  0  0  0  0  0  0  0  0  # atno 17343 bound_to 10162
  156.2894  130.7115  151.1960 LP  0  0  0  0  0  0  0  0  0  0  0  0  # atno 17370 bound_to 10713
  157.7389  131.0535  150.5263 LP  0  0  0  0  0  0  0  0  0  0  0  0  # atno 17371 bound_to 10713
  140.1526  134.4831  155.7951 LP  0  0  0  0  0  0  0  0  0  0  0  0  # atno 17394 bound_to 11000
  141.2198  133.6868  156.7404 LP  0  0  0  0  0  0  0  0  0  0  0  0  # atno 17395 bound_to 11000

$$$$
