AV-unprocessed.smi:1251|AV-procd|sdf|5257|dock8
  -GOLD-   22720 4363D 1   1.00000     0.00000
 Structure written by MMmdl.
 39 40  0  0  0  0  0  0  0  0  1 V2000
  151.0483  143.2636  157.9099 C   0  0  0  0  0  0  0  0  0  0  0  0
  150.8231  142.0437  157.0100 C   0  0  0  0  0  0  0  0  0  0  0  0
  151.9138  140.9770  157.1794 C   0  0  0  0  0  0  0  0  0  0  0  0
  151.7333  139.8205  156.2533 C   0  0  0  0  0  0  0  0  0  0  0  0
  152.5723  139.5658  155.2416 N   0  0  0  0  0  0  0  0  0  0  0  0
  152.1854  138.4560  154.5038 N   0  0  0  0  0  0  0  0  0  0  0  0
  151.0530  137.9139  154.9722 C   0  0  0  0  0  0  0  0  0  0  0  0
  150.4310  136.7706  154.4039 N   0  0  0  0  0  0  0  0  0  0  0  0
  150.5498  135.4846  154.7781 C   0  0  0  0  0  0  0  0  0  0  0  0
  151.2485  135.0757  155.7059 O   0  0  0  0  0  0  0  0  0  0  0  0
  149.8026  134.6845  154.0027 N   0  0  0  0  0  0  0  0  0  0  0  0
  149.7095  133.2306  154.1205 C   0  0  1  0  0  0  0  0  0  0  0  0
  149.1642  132.8868  155.5152 C   0  0  0  0  0  0  0  0  0  0  0  0
  148.8245  132.6668  152.9887 C   0  0  2  0  0  0  0  0  0  0  0  0
  147.4663  133.3582  152.8412 C   0  0  0  0  0  0  0  0  0  0  0  0
  146.6237  132.2667  152.2234 C   0  0  0  0  0  0  0  0  0  0  0  0
  147.1355  131.0372  152.9631 C   0  0  0  0  0  0  0  0  0  0  0  0
  148.5114  131.2939  153.2266 O   0  0  0  0  0  0  0  0  0  0  0  0
  150.3605  138.7248  156.3665 S   0  0  0  0  0  0  0  0  0  0  0  0
  150.2601  144.0031  157.7660 H   0  0  0  0  0  0  0  0  0  0  0  0
  152.0013  143.7455  157.6895 H   0  0  0  0  0  0  0  0  0  0  0  0
  151.0507  142.9811  158.9631 H   0  0  0  0  0  0  0  0  0  0  0  0
  149.8485  141.6083  157.2345 H   0  0  0  0  0  0  0  0  0  0  0  0
  150.7845  142.3661  155.9687 H   0  0  0  0  0  0  0  0  0  0  0  0
  152.8975  141.4158  157.0057 H   0  0  0  0  0  0  0  0  0  0  0  0
  151.9167  140.6028  158.2037 H   0  0  0  0  0  0  0  0  0  0  0  0
  149.8211  136.9541  153.6212 H   0  0  0  0  0  0  0  0  0  0  0  0
  149.2646  135.1111  153.2630 H   0  0  0  0  0  0  0  0  0  0  0  0
  150.7050  132.7902  154.0386 H   0  0  0  0  0  0  0  0  0  0  0  0
  149.1348  131.8091  155.6764 H   0  0  0  0  0  0  0  0  0  0  0  0
  148.1533  133.2718  155.6532 H   0  0  0  0  0  0  0  0  0  0  0  0
  149.7932  133.3134  156.2972 H   0  0  0  0  0  0  0  0  0  0  0  0
  149.3539  132.7190  152.0358 H   0  0  0  0  0  0  0  0  0  0  0  0
  147.0623  133.6286  153.8178 H   0  0  0  0  0  0  0  0  0  0  0  0
  147.5115  134.2589  152.2285 H   0  0  0  0  0  0  0  0  0  0  0  0
  145.5522  132.4257  152.3487 H   0  0  0  0  0  0  0  0  0  0  0  0
  146.8380  132.1833  151.1570 H   0  0  0  0  0  0  0  0  0  0  0  0
  146.6168  130.9233  153.9158 H   0  0  0  0  0  0  0  0  0  0  0  0
  147.0015  130.1188  152.3912 H   0  0  0  0  0  0  0  0  0  0  0  0
  1  2  1  0  0  0  0
  1 20  1  0  0  0  0
  1 21  1  0  0  0  0
  1 22  1  0  0  0  0
  2  3  1  0  0  0  0
  2 23  1  0  0  0  0
  2 24  1  0  0  0  0
  3  4  1  0  0  0  0
  3 25  1  0  0  0  0
  3 26  1  0  0  0  0
  4 19  1  0  0  0  0
  4  5  2  0  0  0  0
  5  6  1  0  0  0  0
  6  7  2  0  0  0  0
  7  8  1  0  0  0  0
  7 19  1  0  0  0  0
  8  9  1  0  0  0  0
  8 27  1  0  0  0  0
  9 10  2  0  0  0  0
  9 11  1  0  0  0  0
 11 12  1  0  0  0  0
 11 28  1  0  0  0  0
 12 13  1  0  0  0  0
 12 14  1  0  0  0  0
 12 29  1  0  0  0  0
 13 30  1  0  0  0  0
 13 31  1  0  0  0  0
 13 32  1  0  0  0  0
 14 18  1  0  0  0  0
 14 15  1  0  0  0  0
 14 33  1  0  0  0  0
 15 16  1  0  0  0  0
 15 34  1  0  0  0  0
 15 35  1  0  0  0  0
 16 17  1  0  0  0  0
 16 36  1  0  0  0  0
 16 37  1  0  0  0  0
 17 18  1  0  0  0  0
 17 38  1  0  0  0  0
 17 39  1  0  0  0  0
M  END
> <s_m_source_file>
AV-unprocessed.smi

> <i_m_source_file_index>
1251

> <i_lp_mmshare_version>
43012

> <i_f3d_flags>
0

> <s_epik_input>
W0NIM11bQ0gyXVtDSDJdYzFubmMoczEpW05IXUMoPU8pW05IXVtDQEhdKFtDSDNdKVtDQEBIXTJbQ0gyXVtDSDJdW0NIMl1PMg==

> <s_epik_cmdline>
J2VwaWtfcHl0aG9uJywgJy1waCcsICc3LjAnLCAnLXRuJywgJzgnLCAnLW1hJywgJzIwMCcsICctbWV0YWxfYmluZGluZycsICctaW1hZScsICc8aW5maWxlLm1hZT4nLCAnLW9tYWUnLCAnPG91dGZpbGUubWFlPic=

> <r_lp_tautomer_probability>
1

> <r_epik_Ionization_Penalty>
0.000503621

> <r_epik_Ionization_Penalty_Charging>
0

> <r_epik_Ionization_Penalty_Neutral>
0.000503621

> <r_epik_State_Penalty>
-0

> <r_epik_Charging_Adjusted_Penalty>
0

> <i_epik_Tot_Q>
0

> <i_epik_Tot_abs_Q>
0

> <r_epik_Metal_State_Penalty>
0.219912

> <b_epik_Metal_Only>
0

> <s_lp_Force_Field>
OPLS_2005

> <r_lp_Energy>
12.879

> <b_lp_Chiralities_Consistent>
1

> <s_lp_Variant>
AV-unprocessed.smi:1251-2

> <Gold.Version>
5.8.1

> <Gold.Id.Protein>
6NUR|6NUR_protein|mol2

> <Gold.PLP.Fitness>
38.3385

> <Gold.PLP.PLP>
-29.0845

> <Gold.PLP.part.hbond>
-6.3420

> <Gold.PLP.part.metal>
0.0000

> <Gold.PLP.part.buried>
-2.8398

> <Gold.PLP.part.nonpolar>
-22.0627

> <Gold.PLP.part.repulsive>
0.3613

> <Gold.PLP.ligand.clash>
0.0000

> <Gold.PLP.ligand.torsion>
0.9135

> <Gold.PLP.Chemscore.Hbond>
3.6864

> <Gold.PLP.Chemscore.CHOScore>
0.0000

> <Gold.PLP.Chemscore.Metal>
0.0000

> <Gold.Chemscore.Hbonds>
donor molecule, donor type, donor heavy atom, donor atom, acceptor molecule, acceptor atom, score
      L1  H     8    27       P1  7948  0.87
      L1  H    11    28       P1  7948  0.70
      P1  H  7989  7998       L1     5  0.05
      P1  H  7997  8009       L1     5  0.91
      P1  H 10752 10763       L1    10  0.94

> <Gold.PLP.Chemscore.Internal.Correction>
0.0216

> <Gold.Rescore>
     Score         DG    S(hbond)    S(metal)    S(lipo)     H(rot)  DE(clash)    DE(int)     intcor
     13.86     -14.96       1.82        0.00      63.70       1.58       0.18       0.92       ----

> <Gold.Chemscore.Fitness>
13.8587

> <Gold.Chemscore.DG>
-14.9574

> <Gold.Chemscore.ZeroCoef>
-5.4800

> <Gold.Chemscore.Hbond>
1.8204

> <Gold.Chemscore.Metal>
0.0000

> <Gold.Chemscore.Lipo>
63.7006

> <Gold.Chemscore.Internal_Hbond>
0.0000

> <Gold.Chemscore.DEClash>
0.1770

> <Gold.Chemscore.DEInternal>
0.9217

> <Gold.Chemscore.Rot>
1.5843

> <Gold.Chemscore.Internal.Correction>
   9.000000E+99

> <Gold.Chemscore.Hbonds>
donor molecule, donor type, donor heavy atom, donor atom, acceptor molecule, acceptor atom, score
      L1  H     8    27       P1  7948  0.44
      L1  H    11    28       P1  7948  0.07
      P1  H  7997  8009       L1     5  0.30
      P1  H 10752 10763       L1    10  0.26

> <Gold.Chemscore.Hbond.Weighted>
-6.0803

> <Gold.Chemscore.Metal.Weighted>
-0.0000

> <Gold.Chemscore.Lipo.Weighted>
-7.4530

> <Gold.Chemscore.Internal_Hbond.Weighted>
0.0000

> <Gold.Chemscore.DEClash.Weighted>
0.1770

> <Gold.Chemscore.DEInternal.Weighted>
0.9217

> <Gold.Chemscore.Rot.Weighted>
4.0558

> <Gold.Chemscore.Internal.Correction.Weighted>
   9.000000E+99

> <Gold.Protein.RotatedTorsions>
[ 6907 6896 6895 6894 ] final   76.18 input  -60.11 | X-H torsion
[ 7974 7965 7964 7962 ] final   -3.10 input  175.53 | X-H torsion
[ 8008 7997 7996 7995 ] final -144.25 input   59.86 | X-H torsion
[ 10167 10162 10161 10158 ] final  -57.43 input  -65.29 | X-H torsion
[ 10718 10713 10712 10709 ] final  -49.54 input   66.30 | X-H torsion
[ 10763 10752 10751 10750 ] final   85.47 input  -60.55 | X-H torsion
[ 11005 11000 10999 10996 ] final -120.07 input  -57.11 | X-H torsion

> <Gold.Protein.ActiveResidues>
 VAL166  LYS551  ARG553  GLY616  TRP617  ASP618  TYR619  PRO620  LYS621  CYS622 
 ASP623  PHE694  ASN695  SER759  ASP760  ASP761  ALA762  ILE779  LEU786  VAL792 
 PHE793  MET794  SER795  GLU796  ALA797  LYS798  CYS799  TRP800  GLU811  SER814 

> <Gold.Protein.RotatedAtoms>
  152.5061  134.4007  159.9415 H   0  0  0  0  0  0  0  0  0  0  0  0  # atno 6907 bound_to 6896
  151.3971  133.3763  159.2735 H   0  0  0  0  0  0  0  0  0  0  0  0  # atno 6908 bound_to 6896
  150.9389  134.8820  159.7658 H   0  0  0  0  0  0  0  0  0  0  0  0  # atno 6909 bound_to 6896
  146.2395  140.1670  142.8332 H   0  0  0  0  0  0  0  0  0  0  0  0  # atno 7974 bound_to 7965
  155.5238  140.0594  157.2902 H   0  0  0  0  0  0  0  0  0  0  0  0  # atno 8008 bound_to 7997
  154.4508  140.1948  156.0471 H   0  0  0  0  0  0  0  0  0  0  0  0  # atno 8009 bound_to 7997
  156.0700  140.3261  155.7568 H   0  0  0  0  0  0  0  0  0  0  0  0  # atno 8010 bound_to 7997
  140.6258  143.2438  151.5366 H   0  0  0  0  0  0  0  0  0  0  0  0  # atno 10167 bound_to 10162
  156.1884  130.4152  149.9406 H   0  0  0  0  0  0  0  0  0  0  0  0  # atno 10718 bound_to 10713
  153.1478  135.4616  154.9592 H   0  0  0  0  0  0  0  0  0  0  0  0  # atno 10763 bound_to 10752
  154.7800  135.3185  154.8012 H   0  0  0  0  0  0  0  0  0  0  0  0  # atno 10764 bound_to 10752
  153.8523  135.6920  153.4845 H   0  0  0  0  0  0  0  0  0  0  0  0  # atno 10765 bound_to 10752
  141.0170  134.0180  157.3335 H   0  0  0  0  0  0  0  0  0  0  0  0  # atno 11005 bound_to 11000
  145.0042  140.8659  143.5263 LP  0  0  0  0  0  0  0  0  0  0  0  0  # atno 17320 bound_to 7965
  145.1694  139.2413  143.5350 LP  0  0  0  0  0  0  0  0  0  0  0  0  # atno 17321 bound_to 7965
  139.5479  144.2472  152.1476 LP  0  0  0  0  0  0  0  0  0  0  0  0  # atno 17342 bound_to 10162
  140.1704  144.4941  150.6583 LP  0  0  0  0  0  0  0  0  0  0  0  0  # atno 17343 bound_to 10162
  156.7155  130.8986  151.3613 LP  0  0  0  0  0  0  0  0  0  0  0  0  # atno 17370 bound_to 10713
  157.6913  130.9237  150.0522 LP  0  0  0  0  0  0  0  0  0  0  0  0  # atno 17371 bound_to 10713
  139.9123  135.0192  156.7742 LP  0  0  0  0  0  0  0  0  0  0  0  0  # atno 17394 bound_to 11000
  140.6637  133.9622  155.7819 LP  0  0  0  0  0  0  0  0  0  0  0  0  # atno 17395 bound_to 11000

$$$$
