AV-unprocessed.smi:703|AV-procd|sdf|3441|dock6
  -GOLD-   22720 0423D 1   1.00000     0.00000
 Structure written by MMmdl.
 37 38  0  0  0  0  0  0  0  0  3 V2000
  148.2567  133.1182  152.8967 C   0  0  0  0  0  0  0  0  0  0  0  0
  147.9419  133.9401  154.1541 C   0  0  0  0  0  0  0  0  0  0  0  0
  148.8253  135.1245  154.2876 N   0  3  2  0  0  0  0  0  0  0  0  0
  150.1030  134.8689  154.9949 C   0  0  0  0  0  0  0  0  0  0  0  0
  150.4132  136.1597  155.7596 C   0  0  2  0  0  0  0  0  0  0  0  0
  151.4681  136.0064  156.8748 C   0  0  0  0  0  0  0  0  0  0  0  0
  149.0177  136.6868  156.1489 C   0  0  2  0  0  0  0  0  0  0  0  0
  148.4923  135.9930  157.3192 N   0  5  0  0  0  0  0  0  0  0  0  0
  148.5104  136.7201  158.7694 S   0  0  0  0  0  0  0  0  0  0  0  0
  149.8170  136.6256  159.4406 O   0  0  0  0  0  0  0  0  0  0  0  0
  147.8720  138.0451  158.7253 O   0  0  0  0  0  0  0  0  0  0  0  0
  147.3574  135.6311  159.7152 C   0  0  0  0  0  0  0  0  0  0  0  0
  146.9745  136.2753  161.0198 C   0  0  0  0  0  0  0  0  0  0  0  0
  147.1651  135.7762  162.3388 C   0  0  0  0  0  0  0  0  0  0  0  0
  146.6435  136.7577  163.1303 C   0  0  0  0  0  0  0  0  0  0  0  0
  146.1590  137.7727  162.3714 O   0  0  0  0  0  0  0  0  0  0  0  0
  146.3704  137.4535  161.0253 N   0  0  0  0  0  0  0  0  0  0  0  0
  148.1751  136.3008  154.9225 C   0  0  0  0  0  0  0  0  0  0  0  0
  147.5575  132.2880  152.7955 H   0  0  0  0  0  0  0  0  0  0  0  0
  149.2613  132.6963  152.9314 H   0  0  0  0  0  0  0  0  0  0  0  0
  148.1787  133.7289  151.9967 H   0  0  0  0  0  0  0  0  0  0  0  0
  146.9073  134.2808  154.0968 H   0  0  0  0  0  0  0  0  0  0  0  0
  148.0185  133.3171  155.0468 H   0  0  0  0  0  0  0  0  0  0  0  0
  149.9982  134.0281  155.6861 H   0  0  0  0  0  0  0  0  0  0  0  0
  150.8935  134.6111  154.2894 H   0  0  0  0  0  0  0  0  0  0  0  0
  150.8220  136.8678  155.0369 H   0  0  0  0  0  0  0  0  0  0  0  0
  151.1714  135.2818  157.6349 H   0  0  0  0  0  0  0  0  0  0  0  0
  151.6672  136.9550  157.3757 H   0  0  0  0  0  0  0  0  0  0  0  0
  152.4140  135.6608  156.4577 H   0  0  0  0  0  0  0  0  0  0  0  0
  149.0283  137.7699  156.2768 H   0  0  0  0  0  0  0  0  0  0  0  0
  146.4782  135.4613  159.0935 H   0  0  0  0  0  0  0  0  0  0  0  0
  147.8383  134.6661  159.8712 H   0  0  0  0  0  0  0  0  0  0  0  0
  147.6231  134.8497  162.6512 H   0  0  0  0  0  0  0  0  0  0  0  0
  146.5459  136.8752  164.1995 H   0  0  0  0  0  0  0  0  0  0  0  0
  148.1967  137.1138  154.1961 H   0  0  0  0  0  0  0  0  0  0  0  0
  147.1250  136.1294  155.1679 H   0  0  0  0  0  0  0  0  0  0  0  0
  149.0641  135.4191  153.3518 H   0  0  0  0  0  0  0  0  0  0  0  0
  1  2  1  0  0  0  0
  1 19  1  0  0  0  0
  1 20  1  0  0  0  0
  1 21  1  0  0  0  0
  2  3  1  0  0  0  0
  2 22  1  0  0  0  0
  2 23  1  0  0  0  0
  3 18  1  0  0  0  0
  3  4  1  0  0  0  0
  3 37  1  0  0  0  0
  4  5  1  0  0  0  0
  4 24  1  0  0  0  0
  4 25  1  0  0  0  0
  5  6  1  0  0  0  0
  5  7  1  0  0  0  0
  5 26  1  0  0  0  0
  6 27  1  0  0  0  0
  6 28  1  0  0  0  0
  6 29  1  0  0  0  0
  7  8  1  0  0  0  0
  7 18  1  0  0  0  0
  7 30  1  0  0  0  0
  8  9  1  0  0  0  0
  9 10  2  0  0  0  0
  9 11  2  0  0  0  0
  9 12  1  0  0  0  0
 12 13  1  0  0  0  0
 12 31  1  0  0  0  0
 12 32  1  0  0  0  0
 13 17  2  0  0  0  0
 13 14  1  0  0  0  0
 14 15  2  0  0  0  0
 14 33  1  0  0  0  0
 15 16  1  0  0  0  0
 15 34  1  0  0  0  0
 16 17  1  0  0  0  0
 18 35  1  0  0  0  0
 18 36  1  0  0  0  0
M  CHG  1   3   1
M  CHG  1   8  -1
M  END
> <s_m_source_file>
AV-unprocessed.smi

> <i_m_source_file_index>
703

> <i_lp_mmshare_version>
43012

> <i_f3d_flags>
0

> <s_epik_input>
W0NIM11bQ0gyXU4xW0NIMl1bQ0BASF0oW0NIM10pW0NASF0oW0NIMl0xKVtOSF1TKD1PKSg9TylbQ0gyXWMyW2NIXVtjSF1vbjI=

> <s_epik_cmdline>
J2VwaWtfcHl0aG9uJywgJy1waCcsICc3LjAnLCAnLXRuJywgJzgnLCAnLW1hJywgJzIwMCcsICctbWV0YWxfYmluZGluZycsICctaW1hZScsICc8aW5maWxlLm1hZT4nLCAnLW9tYWUnLCAnPG91dGZpbGUubWFlPic=

> <r_epik_Ionization_Penalty>
3.62494

> <r_epik_Ionization_Penalty_Charging>
3.62494

> <r_epik_Ionization_Penalty_Neutral>
2.0321e-10

> <r_epik_State_Penalty>
3.62558

> <r_epik_Charging_Adjusted_Penalty>
7.25052

> <i_epik_Tot_Q>
0

> <i_epik_Tot_abs_Q>
2

> <r_epik_Metal_State_Penalty>
0.530836

> <b_epik_Metal_Only>
1

> <s_lp_Force_Field>
OPLS_2005

> <r_lp_Energy>
19.3254

> <b_lp_Chiralities_Consistent>
1

> <s_lp_Variant>
AV-unprocessed.smi:703-16

> <Gold.Version>
5.8.1

> <Gold.Id.Protein>
6NUR|6NUR_protein|mol2

> <Gold.PLP.Fitness>
38.7256

> <Gold.PLP.PLP>
-30.1562

> <Gold.PLP.part.hbond>
-6.9180

> <Gold.PLP.part.metal>
0.0000

> <Gold.PLP.part.buried>
-3.6924

> <Gold.PLP.part.nonpolar>
-19.9496

> <Gold.PLP.part.repulsive>
0.0155

> <Gold.PLP.ligand.clash>
0.0000

> <Gold.PLP.ligand.torsion>
1.4869

> <Gold.PLP.Chemscore.Hbond>
3.5000

> <Gold.PLP.Chemscore.CHOScore>
0.0000

> <Gold.PLP.Chemscore.Metal>
0.0000

> <Gold.Chemscore.Hbonds>
donor molecule, donor type, donor heavy atom, donor atom, acceptor molecule, acceptor atom, score
      L1  H     3    37       P1  7948  2.00
      P1  H  6896  6909       L1    10  1.00
      P1  H  6934  6947       L1    17  0.25

> <Gold.PLP.Chemscore.Internal.Correction>
1.0432

> <Gold.Rescore>
     Score         DG    S(hbond)    S(metal)    S(lipo)     H(rot)  DE(clash)    DE(int)     intcor
     12.11     -15.11       1.98        0.00      61.47       1.63       0.08       2.93       ----

> <Gold.Chemscore.Fitness>
12.1080

> <Gold.Chemscore.DG>
-15.1104

> <Gold.Chemscore.ZeroCoef>
-5.4800

> <Gold.Chemscore.Hbond>
1.9824

> <Gold.Chemscore.Metal>
0.0000

> <Gold.Chemscore.Lipo>
61.4683

> <Gold.Chemscore.Internal_Hbond>
0.0000

> <Gold.Chemscore.DEClash>
0.0753

> <Gold.Chemscore.DEInternal>
2.9271

> <Gold.Chemscore.Rot>
1.6338

> <Gold.Chemscore.Internal.Correction>
   9.000000E+99

> <Gold.Chemscore.Hbonds>
donor molecule, donor type, donor heavy atom, donor atom, acceptor molecule, acceptor atom, score
      L1  H     3    37       P1  7948  0.50
      P1  H  6896  6909       L1    10  0.93
      P1  H  6934  6947       L1    11  0.01

> <Gold.Chemscore.Hbond.Weighted>
-6.6212

> <Gold.Chemscore.Metal.Weighted>
-0.0000

> <Gold.Chemscore.Lipo.Weighted>
-7.1918

> <Gold.Chemscore.Internal_Hbond.Weighted>
0.0000

> <Gold.Chemscore.DEClash.Weighted>
0.0753

> <Gold.Chemscore.DEInternal.Weighted>
2.9271

> <Gold.Chemscore.Rot.Weighted>
4.1825

> <Gold.Chemscore.Internal.Correction.Weighted>
   9.000000E+99

> <Gold.Protein.RotatedTorsions>
[ 6907 6896 6895 6894 ] final   81.99 input  -60.11 | X-H torsion
[ 7974 7965 7964 7962 ] final -126.55 input  175.53 | X-H torsion
[ 8008 7997 7996 7995 ] final   -2.14 input   59.86 | X-H torsion
[ 10167 10162 10161 10158 ] final   25.25 input  -65.29 | X-H torsion
[ 10718 10713 10712 10709 ] final    5.64 input   66.30 | X-H torsion
[ 10763 10752 10751 10750 ] final -121.45 input  -60.55 | X-H torsion
[ 11005 11000 10999 10996 ] final  -18.25 input  -57.11 | X-H torsion

> <Gold.Protein.ActiveResidues>
 VAL166  LYS551  ARG553  GLY616  TRP617  ASP618  TYR619  PRO620  LYS621  CYS622 
 ASP623  PHE694  ASN695  SER759  ASP760  ASP761  ALA762  ILE779  LEU786  VAL792 
 PHE793  MET794  SER795  GLU796  ALA797  LYS798  CYS799  TRP800  GLU811  SER814 

> <Gold.Protein.RotatedAtoms>
  152.5285  134.3119  159.9116 H   0  0  0  0  0  0  0  0  0  0  0  0  # atno 6907 bound_to 6896
  151.3068  133.4091  159.2651 H   0  0  0  0  0  0  0  0  0  0  0  0  # atno 6908 bound_to 6896
  151.0072  134.9385  159.8044 H   0  0  0  0  0  0  0  0  0  0  0  0  # atno 6909 bound_to 6896
  144.9861  140.7687  143.4582 H   0  0  0  0  0  0  0  0  0  0  0  0  # atno 7974 bound_to 7965
  154.6390  140.2542  155.7344 H   0  0  0  0  0  0  0  0  0  0  0  0  # atno 8008 bound_to 7997
  156.2519  140.2891  156.0695 H   0  0  0  0  0  0  0  0  0  0  0  0  # atno 8009 bound_to 7997
  155.1626  140.0384  157.2836 H   0  0  0  0  0  0  0  0  0  0  0  0  # atno 8010 bound_to 7997
  140.5121  144.0143  150.6377 H   0  0  0  0  0  0  0  0  0  0  0  0  # atno 10167 bound_to 10162
  156.9104  130.5754  149.5647 H   0  0  0  0  0  0  0  0  0  0  0  0  # atno 10718 bound_to 10713
  154.8668  135.4167  154.2623 H   0  0  0  0  0  0  0  0  0  0  0  0  # atno 10763 bound_to 10752
  153.3548  135.7000  153.6765 H   0  0  0  0  0  0  0  0  0  0  0  0  # atno 10764 bound_to 10752
  153.5690  135.3595  155.2802 H   0  0  0  0  0  0  0  0  0  0  0  0  # atno 10765 bound_to 10752
  140.8249  133.8040  155.9698 H   0  0  0  0  0  0  0  0  0  0  0  0  # atno 11005 bound_to 11000
  145.2351  139.2097  143.5022 LP  0  0  0  0  0  0  0  0  0  0  0  0  # atno 17320 bound_to 7965
  146.3420  140.2236  142.8592 LP  0  0  0  0  0  0  0  0  0  0  0  0  # atno 17321 bound_to 7965
  140.3468  143.2986  152.0530 LP  0  0  0  0  0  0  0  0  0  0  0  0  # atno 17342 bound_to 10162
  139.4899  144.6403  151.6891 LP  0  0  0  0  0  0  0  0  0  0  0  0  # atno 17343 bound_to 10162
  156.0539  130.5603  150.9048 LP  0  0  0  0  0  0  0  0  0  0  0  0  # atno 17370 bound_to 10713
  157.5971  131.0942  150.9023 LP  0  0  0  0  0  0  0  0  0  0  0  0  # atno 17371 bound_to 10713
  140.9059  134.2320  157.5014 LP  0  0  0  0  0  0  0  0  0  0  0  0  # atno 17394 bound_to 11000
  139.8707  134.9728  156.4786 LP  0  0  0  0  0  0  0  0  0  0  0  0  # atno 17395 bound_to 11000

$$$$
