AV-unprocessed.smi:630|AV-procd|sdf|3124|dock3
  -GOLD-   22720 0 43D 1   1.00000     0.00000
 Structure written by MMmdl.
 36 37  0  0  0  0  0  0  0  0  2 V2000
  149.8537  137.3212  154.2190 N   0  0  0  0  0  0  0  0  0  0  0  0
  150.7845  136.9542  155.1040 C   0  0  0  0  0  0  0  0  0  0  0  0
  151.2650  135.8222  155.1107 O   0  0  0  0  0  0  0  0  0  0  0  0
  151.2348  138.0099  156.1332 C   0  0  1  0  0  0  0  0  0  0  0  0
  151.8883  139.2222  155.4227 C   0  0  0  0  0  0  0  0  0  0  0  0
  150.9424  140.3572  154.9939 C   0  0  0  0  0  0  0  0  0  0  0  0
  150.7215  141.3910  156.1091 C   0  0  0  0  0  0  0  0  0  0  0  0
  149.8228  140.9091  157.2559 C   0  0  0  0  0  0  0  0  0  0  0  0
  150.2909  139.6231  157.9608 C   0  0  0  0  0  0  0  0  0  0  0  0
  150.0760  138.3490  157.1150 C   0  0  2  0  0  0  0  0  0  0  0  0
  149.8722  137.2090  158.0152 N   0  0  0  0  0  0  0  0  0  0  0  0
  148.9016  137.0591  158.9291 C   0  0  0  0  0  0  0  0  0  0  0  0
  148.0613  137.9458  159.0958 O   0  0  0  0  0  0  0  0  0  0  0  0
  148.9640  135.8815  159.5920 N   0  5  0  0  0  0  0  0  0  0  0  0
  148.2170  135.6895  160.6914 C   0  0  0  0  0  0  0  0  0  0  0  0
  147.9508  136.6610  161.5722 N   0  0  0  0  0  0  0  0  0  0  0  0
  147.1616  136.2380  162.6435 C   0  0  0  0  0  0  0  0  0  0  0  0
  146.8271  134.9112  162.5818 C   0  0  0  0  0  0  0  0  0  0  0  0
  147.4962  134.1492  161.1672 S   0  0  0  0  0  0  0  0  0  0  0  0
  149.5537  136.6696  153.5088 H   0  0  0  0  0  0  0  0  0  0  0  0
  149.4763  138.2574  154.2440 H   0  0  0  0  0  0  0  0  0  0  0  0
  152.0376  137.5568  156.7186 H   0  0  0  0  0  0  0  0  0  0  0  0
  152.6738  139.6301  156.0602 H   0  0  0  0  0  0  0  0  0  0  0  0
  152.4202  138.8699  154.5372 H   0  0  0  0  0  0  0  0  0  0  0  0
  151.4000  140.8753  154.1506 H   0  0  0  0  0  0  0  0  0  0  0  0
  149.9932  139.9690  154.6235 H   0  0  0  0  0  0  0  0  0  0  0  0
  151.6831  141.7164  156.5078 H   0  0  0  0  0  0  0  0  0  0  0  0
  150.2681  142.2816  155.6728 H   0  0  0  0  0  0  0  0  0  0  0  0
  149.7647  141.7074  157.9965 H   0  0  0  0  0  0  0  0  0  0  0  0
  148.8036  140.7758  156.8907 H   0  0  0  0  0  0  0  0  0  0  0  0
  151.3293  139.7078  158.2832 H   0  0  0  0  0  0  0  0  0  0  0  0
  149.7049  139.5388  158.8776 H   0  0  0  0  0  0  0  0  0  0  0  0
  149.1678  138.5019  156.5291 H   0  0  0  0  0  0  0  0  0  0  0  0
  150.5335  136.4509  157.9319 H   0  0  0  0  0  0  0  0  0  0  0  0
  146.8865  136.9496  163.4075 H   0  0  0  0  0  0  0  0  0  0  0  0
  146.2323  134.3384  163.2770 H   0  0  0  0  0  0  0  0  0  0  0  0
  1  2  1  0  0  0  0
  1 20  1  0  0  0  0
  1 21  1  0  0  0  0
  2  3  2  0  0  0  0
  2  4  1  0  0  0  0
  4 10  1  0  0  0  0
  4  5  1  0  0  0  0
  4 22  1  0  0  0  0
  5  6  1  0  0  0  0
  5 23  1  0  0  0  0
  5 24  1  0  0  0  0
  6  7  1  0  0  0  0
  6 25  1  0  0  0  0
  6 26  1  0  0  0  0
  7  8  1  0  0  0  0
  7 27  1  0  0  0  0
  7 28  1  0  0  0  0
  8  9  1  0  0  0  0
  8 29  1  0  0  0  0
  8 30  1  0  0  0  0
  9 10  1  0  0  0  0
  9 31  1  0  0  0  0
  9 32  1  0  0  0  0
 10 11  1  0  0  0  0
 10 33  1  0  0  0  0
 11 12  1  0  0  0  0
 11 34  1  0  0  0  0
 12 13  2  0  0  0  0
 12 14  1  0  0  0  0
 14 15  1  0  0  0  0
 15 19  1  0  0  0  0
 15 16  2  0  0  0  0
 16 17  1  0  0  0  0
 17 18  2  0  0  0  0
 17 35  1  0  0  0  0
 18 19  1  0  0  0  0
 18 36  1  0  0  0  0
M  CHG  1  14  -1
M  END
> <s_m_source_file>
AV-unprocessed.smi

> <i_m_source_file_index>
630

> <i_lp_mmshare_version>
43012

> <i_f3d_flags>
0

> <s_epik_input>
W05IMl1DKD1PKVtDQEBIXTFbQ0gyXVtDSDJdW0NIMl1bQ0gyXVtDSDJdW0NASF0xW05IXUMoPU8pW05IXWMybltjSF1bY0hdczI=

> <s_epik_cmdline>
J2VwaWtfcHl0aG9uJywgJy1waCcsICc3LjAnLCAnLXRuJywgJzgnLCAnLW1hJywgJzIwMCcsICctbWV0YWxfYmluZGluZycsICctaW1hZScsICc8aW5maWxlLm1hZT4nLCAnLW9tYWUnLCAnPG91dGZpbGUubWFlPic=

> <r_lp_tautomer_probability>
0.999

> <r_epik_Ionization_Penalty>
8.29606

> <r_epik_Ionization_Penalty_Charging>
6.67551

> <r_epik_Ionization_Penalty_Neutral>
1.62055

> <r_epik_State_Penalty>
6.67568

> <r_epik_Charging_Adjusted_Penalty>
13.3512

> <i_epik_Tot_Q>
-1

> <i_epik_Tot_abs_Q>
1

> <r_epik_Metal_State_Penalty>
2.59802

> <b_epik_Metal_Only>
1

> <s_lp_Force_Field>
OPLS_2005

> <r_lp_Energy>
8.13293

> <b_lp_Chiralities_Consistent>
1

> <s_lp_Variant>
AV-unprocessed.smi:630-8

> <Gold.Version>
5.8.1

> <Gold.Id.Protein>
6NUR|6NUR_protein|mol2

> <Gold.PLP.Fitness>
47.1775

> <Gold.PLP.PLP>
-32.2705

> <Gold.PLP.part.hbond>
-5.2465

> <Gold.PLP.part.metal>
0.0000

> <Gold.PLP.part.buried>
-2.4092

> <Gold.PLP.part.nonpolar>
-25.0407

> <Gold.PLP.part.repulsive>
0.2442

> <Gold.PLP.ligand.clash>
0.0000

> <Gold.PLP.ligand.torsion>
0.3548

> <Gold.PLP.Chemscore.Hbond>
5.1638

> <Gold.PLP.Chemscore.CHOScore>
0.0000

> <Gold.PLP.Chemscore.Metal>
0.0000

> <Gold.Chemscore.Hbonds>
donor molecule, donor type, donor heavy atom, donor atom, acceptor molecule, acceptor atom, score
      L1  H     1    20       P1  7948  1.00
      P1  H  6896  6909       L1    14  1.59
      P1  H  6931  6943       L1    16  1.00
      P1  H  6934  6947       L1    13  0.13
      P1  H 10752 10764       L1     3  1.00

> <Gold.PLP.Chemscore.Internal.Correction>
0.1252

> <Gold.Rescore>
     Score         DG    S(hbond)    S(metal)    S(lipo)     H(rot)  DE(clash)    DE(int)     intcor
     19.34     -22.35       3.94        0.00      64.71       1.50       1.19       1.81       ----

> <Gold.Chemscore.Fitness>
19.3398

> <Gold.Chemscore.DG>
-22.3481

> <Gold.Chemscore.ZeroCoef>
-5.4800

> <Gold.Chemscore.Hbond>
3.9366

> <Gold.Chemscore.Metal>
0.0000

> <Gold.Chemscore.Lipo>
64.7108

> <Gold.Chemscore.Internal_Hbond>
0.0000

> <Gold.Chemscore.DEClash>
1.1934

> <Gold.Chemscore.DEInternal>
1.8150

> <Gold.Chemscore.Rot>
1.5044

> <Gold.Chemscore.Internal.Correction>
   9.000000E+99

> <Gold.Chemscore.Hbonds>
donor molecule, donor type, donor heavy atom, donor atom, acceptor molecule, acceptor atom, score
      L1  H     1    20       P1  7948  0.68
      P1  H  6896  6909       L1    14  0.61
      P1  H  6931  6943       L1    16  0.90
      P1  H  6934  6947       L1    13  0.13
      P1  H 10752 10764       L1     3  0.98

> <Gold.Chemscore.Hbond.Weighted>
-13.1481

> <Gold.Chemscore.Metal.Weighted>
-0.0000

> <Gold.Chemscore.Lipo.Weighted>
-7.5712

> <Gold.Chemscore.Internal_Hbond.Weighted>
0.0000

> <Gold.Chemscore.DEClash.Weighted>
1.1934

> <Gold.Chemscore.DEInternal.Weighted>
1.8150

> <Gold.Chemscore.Rot.Weighted>
3.8512

> <Gold.Chemscore.Internal.Correction.Weighted>
   9.000000E+99

> <Gold.Protein.RotatedTorsions>
[ 6907 6896 6895 6894 ] final   65.02 input  -60.11 | X-H torsion
[ 7974 7965 7964 7962 ] final -107.68 input  175.53 | X-H torsion
[ 8008 7997 7996 7995 ] final  159.13 input   59.86 | X-H torsion
[ 10167 10162 10161 10158 ] final  160.70 input  -65.29 | X-H torsion
[ 10718 10713 10712 10709 ] final  -45.60 input   66.30 | X-H torsion
[ 10763 10752 10751 10750 ] final  -58.80 input  -60.55 | X-H torsion
[ 11005 11000 10999 10996 ] final -136.36 input  -57.11 | X-H torsion

> <Gold.Protein.ActiveResidues>
 VAL166  LYS551  ARG553  GLY616  TRP617  ASP618  TYR619  PRO620  LYS621  CYS622 
 ASP623  PHE694  ASN695  SER759  ASP760  ASP761  ALA762  ILE779  LEU786  VAL792 
 PHE793  MET794  SER795  GLU796  ALA797  LYS798  CYS799  TRP800  GLU811  SER814 

> <Gold.Protein.RotatedAtoms>
  152.4376  134.5655  159.9906 H   0  0  0  0  0  0  0  0  0  0  0  0  # atno 6907 bound_to 6896
  151.5761  133.3378  159.3007 H   0  0  0  0  0  0  0  0  0  0  0  0  # atno 6908 bound_to 6896
  150.8277  134.7550  159.6891 H   0  0  0  0  0  0  0  0  0  0  0  0  # atno 6909 bound_to 6896
  145.2024  140.9062  143.3362 H   0  0  0  0  0  0  0  0  0  0  0  0  # atno 7974 bound_to 7965
  156.2258  140.1839  156.7365 H   0  0  0  0  0  0  0  0  0  0  0  0  # atno 8008 bound_to 7997
  154.5939  140.0646  156.9305 H   0  0  0  0  0  0  0  0  0  0  0  0  # atno 8009 bound_to 7997
  155.2288  140.3313  155.4308 H   0  0  0  0  0  0  0  0  0  0  0  0  # atno 8010 bound_to 7997
  139.4842  144.4608  151.8707 H   0  0  0  0  0  0  0  0  0  0  0  0  # atno 10167 bound_to 10162
  156.2267  130.4169  149.8925 H   0  0  0  0  0  0  0  0  0  0  0  0  # atno 10718 bound_to 10713
  154.2438  135.6338  153.5216 H   0  0  0  0  0  0  0  0  0  0  0  0  # atno 10763 bound_to 10752
  152.9925  135.5548  154.5882 H   0  0  0  0  0  0  0  0  0  0  0  0  # atno 10764 bound_to 10752
  154.5393  135.2893  155.1084 H   0  0  0  0  0  0  0  0  0  0  0  0  # atno 10765 bound_to 10752
  140.8812  134.1929  157.4589 H   0  0  0  0  0  0  0  0  0  0  0  0  # atno 11005 bound_to 11000
  144.9935  139.3666  143.6203 LP  0  0  0  0  0  0  0  0  0  0  0  0  # atno 17320 bound_to 7965
  146.3415  139.9128  142.8778 LP  0  0  0  0  0  0  0  0  0  0  0  0  # atno 17321 bound_to 7965
  140.4071  144.2418  150.5890 LP  0  0  0  0  0  0  0  0  0  0  0  0  # atno 17342 bound_to 10162
  140.5002  143.2320  151.8690 LP  0  0  0  0  0  0  0  0  0  0  0  0  # atno 17343 bound_to 10162
  156.6554  130.8760  151.3538 LP  0  0  0  0  0  0  0  0  0  0  0  0  # atno 17370 bound_to 10713
  157.7114  130.9444  150.1101 LP  0  0  0  0  0  0  0  0  0  0  0  0  # atno 17371 bound_to 10713
  139.8720  134.9818  156.5131 LP  0  0  0  0  0  0  0  0  0  0  0  0  # atno 17394 bound_to 11000
  140.8458  133.8169  155.9120 LP  0  0  0  0  0  0  0  0  0  0  0  0  # atno 17395 bound_to 11000

$$$$
