AV-unprocessed.smi:102|AV-procd|sdf|962|dock6
  -GOLD-   2262017503D 1   1.00000     0.00000
 Structure written by MMmdl.
 43 44  0  0  0  0  0  0  0  0  2 V2000
  152.2635  143.6447  158.6884 C   0  0  0  0  0  0  0  0  0  0  0  0
  151.0310  142.7888  158.4283 C   0  0  0  0  0  0  0  0  0  0  0  0
  150.1966  142.5789  159.3090 O   0  0  0  0  0  0  0  0  0  0  0  0
  150.9847  142.3270  157.1663 O   0  0  0  0  0  0  0  0  0  0  0  0
  149.8428  141.6233  156.6956 C   0  0  0  0  0  0  0  0  0  0  0  0
  149.9501  141.3511  155.1786 C   0  0  1  0  0  0  0  0  0  0  0  0
  151.0284  140.4489  154.9341 O   0  0  0  0  0  0  0  0  0  0  0  0
  150.5720  139.1315  154.7794 C   0  0  1  0  0  0  0  0  0  0  0  0
  151.2211  138.2379  155.8189 N   0  0  0  0  0  0  0  0  0  0  0  0
  151.2786  138.5989  157.1552 C   0  0  0  0  0  0  0  0  0  0  0  0
  151.8549  137.7953  158.0721 C   0  0  0  0  0  0  0  0  0  0  0  0
  151.8937  138.1725  159.3617 F   0  0  0  0  0  0  0  0  0  0  0  0
  152.4351  136.5206  157.6546 C   0  0  0  0  0  0  0  0  0  0  0  0
  152.9530  135.7893  158.4969 O   0  0  0  0  0  0  0  0  0  0  0  0
  152.3761  136.1962  156.3306 N   0  5  0  0  0  0  0  0  0  0  0  0
  151.7951  137.0071  155.3988 C   0  0  0  0  0  0  0  0  0  0  0  0
  151.7357  136.7248  154.2019 O   0  0  0  0  0  0  0  0  0  0  0  0
  149.0311  139.1586  154.8774 C   0  0  1  0  0  0  0  0  0  0  0  0
  148.5930  138.7896  156.1860 O   0  0  0  0  0  0  0  0  0  0  0  0
  147.2860  138.6352  156.4577 C   0  0  0  0  0  0  0  0  0  0  0  0
  147.0380  138.2907  157.9196 C   0  0  0  0  0  0  0  0  0  0  0  0
  146.3572  138.7541  155.6589 O   0  0  0  0  0  0  0  0  0  0  0  0
  148.7490  140.6233  154.5725 C   0  0  1  0  0  0  0  0  0  0  0  0
  147.4953  141.0948  155.0561 O   0  0  0  0  0  0  0  0  0  0  0  0
  147.0521  142.3169  154.7145 C   0  0  0  0  0  0  0  0  0  0  0  0
  145.6841  142.6238  155.3084 C   0  0  0  0  0  0  0  0  0  0  0  0
  147.6394  143.1279  153.9985 O   0  0  0  0  0  0  0  0  0  0  0  0
  153.1481  143.1834  158.2489 H   0  0  0  0  0  0  0  0  0  0  0  0
  152.4308  143.7601  159.7595 H   0  0  0  0  0  0  0  0  0  0  0  0
  152.1337  144.6340  158.2497 H   0  0  0  0  0  0  0  0  0  0  0  0
  149.7600  140.6908  157.2519 H   0  0  0  0  0  0  0  0  0  0  0  0
  148.9411  142.1936  156.9227 H   0  0  0  0  0  0  0  0  0  0  0  0
  150.1185  142.2869  154.6453 H   0  0  0  0  0  0  0  0  0  0  0  0
  150.9312  138.7639  153.8167 H   0  0  0  0  0  0  0  0  0  0  0  0
  150.8620  139.5363  157.4891 H   0  0  0  0  0  0  0  0  0  0  0  0
  148.6163  138.4982  154.1146 H   0  0  0  0  0  0  0  0  0  0  0  0
  147.6483  138.9195  158.5682 H   0  0  0  0  0  0  0  0  0  0  0  0
  147.2921  137.2476  158.1080 H   0  0  0  0  0  0  0  0  0  0  0  0
  145.9898  138.4446  158.1764 H   0  0  0  0  0  0  0  0  0  0  0  0
  148.8048  140.7634  153.4915 H   0  0  0  0  0  0  0  0  0  0  0  0
  145.6676  142.3843  156.3717 H   0  0  0  0  0  0  0  0  0  0  0  0
  144.9159  142.0346  154.8072 H   0  0  0  0  0  0  0  0  0  0  0  0
  145.4430  143.6802  155.1886 H   0  0  0  0  0  0  0  0  0  0  0  0
  1  2  1  0  0  0  0
  1 28  1  0  0  0  0
  1 29  1  0  0  0  0
  1 30  1  0  0  0  0
  2  3  2  0  0  0  0
  2  4  1  0  0  0  0
  4  5  1  0  0  0  0
  5  6  1  0  0  0  0
  5 31  1  0  0  0  0
  5 32  1  0  0  0  0
  6 23  1  0  0  0  0
  6  7  1  0  0  0  0
  6 33  1  0  0  0  0
  7  8  1  0  0  0  0
  8  9  1  0  0  0  0
  8 18  1  0  0  0  0
  8 34  1  0  0  0  0
  9 16  1  0  0  0  0
  9 10  1  0  0  0  0
 10 11  2  0  0  0  0
 10 35  1  0  0  0  0
 11 12  1  0  0  0  0
 11 13  1  0  0  0  0
 13 14  2  0  0  0  0
 13 15  1  0  0  0  0
 15 16  1  0  0  0  0
 16 17  2  0  0  0  0
 18 19  1  0  0  0  0
 18 23  1  0  0  0  0
 18 36  1  0  0  0  0
 19 20  1  0  0  0  0
 20 21  1  0  0  0  0
 20 22  2  0  0  0  0
 21 37  1  0  0  0  0
 21 38  1  0  0  0  0
 21 39  1  0  0  0  0
 23 24  1  0  0  0  0
 23 40  1  0  0  0  0
 24 25  1  0  0  0  0
 25 26  1  0  0  0  0
 25 27  2  0  0  0  0
 26 41  1  0  0  0  0
 26 42  1  0  0  0  0
 26 43  1  0  0  0  0
M  CHG  1  15  -1
M  END
> <s_m_source_file>
AV-unprocessed.smi

> <i_m_source_file_index>
102

> <i_lp_mmshare_version>
43012

> <i_f3d_flags>
0

> <s_epik_input>
W0NIM11DKD1PKU9bQ0gyXVtDQEBIXTFPW0NASF0oW0NAQEhdKE9DKD1PKVtDSDNdKVtDQEhdMU9DKD1PKVtDSDNdKW4yW2NIXWMoRiljKD1PKVtuSF1jMj1P

> <s_epik_cmdline>
J2VwaWtfcHl0aG9uJywgJy1waCcsICc3LjAnLCAnLXRuJywgJzgnLCAnLW1hJywgJzIwMCcsICctbWV0YWxfYmluZGluZycsICctaW1hZScsICc8aW5maWxlLm1hZT4nLCAnLW9tYWUnLCAnPG91dGZpbGUubWFlPic=

> <r_epik_Ionization_Penalty>
1.40304

> <r_epik_Ionization_Penalty_Charging>
1.43915e-08

> <r_epik_Ionization_Penalty_Neutral>
1.40304

> <r_epik_State_Penalty>
1.48536

> <r_epik_Charging_Adjusted_Penalty>
1.48536

> <i_epik_Tot_Q>
-1

> <i_epik_Tot_abs_Q>
1

> <r_epik_Metal_State_Penalty>
0.00663881

> <b_epik_Metal_Only>
0

> <s_epik_Chemistry_Notes>
This compound has an ester and may undergo hydrolysis at high or low pH. This compound contains an acetal/aminal-like group ( X-CH(R)-Y where X, Y are N, S, or O) that may be acid/base labile, releasing an aldehyde.

> <s_lp_Force_Field>
OPLS_2005

> <r_lp_Energy>
25.6088

> <b_lp_Chiralities_Consistent>
1

> <s_lp_Variant>
AV-unprocessed.smi:102-18

> <Gold.Version>
5.8.1

> <Gold.Id.Protein>
6NUR|6NUR_protein|mol2

> <Gold.PLP.Fitness>
42.3376

> <Gold.PLP.PLP>
-30.2774

> <Gold.PLP.part.hbond>
-6.6990

> <Gold.PLP.part.metal>
0.0000

> <Gold.PLP.part.buried>
-0.6527

> <Gold.PLP.part.nonpolar>
-25.6596

> <Gold.PLP.part.repulsive>
2.8912

> <Gold.PLP.ligand.clash>
0.0000

> <Gold.PLP.ligand.torsion>
0.4357

> <Gold.PLP.Chemscore.Hbond>
4.2393

> <Gold.PLP.Chemscore.CHOScore>
0.0000

> <Gold.PLP.Chemscore.Metal>
0.0000

> <Gold.Chemscore.Hbonds>
donor molecule, donor type, donor heavy atom, donor atom, acceptor molecule, acceptor atom, score
      P1  H  6896  6908       L1    14  0.43
      P1  H  7989  7998       L1     7  1.00
      P1  H  8022  8030       L1    27  0.70
      P1  H 10752 10764       L1    17  0.77
      P1  H 10752 10765       L1    15  1.25

> <Gold.PLP.Chemscore.Internal.Correction>
0.2136

> <Gold.Rescore>
     Score         DG    S(hbond)    S(metal)    S(lipo)     H(rot)  DE(clash)    DE(int)     intcor
      4.28      -8.77       2.36        0.00      48.03       4.00       1.79       2.70       ----

> <Gold.Chemscore.Fitness>
4.2781

> <Gold.Chemscore.DG>
-8.7690

> <Gold.Chemscore.ZeroCoef>
-5.4800

> <Gold.Chemscore.Hbond>
2.3643

> <Gold.Chemscore.Metal>
0.0000

> <Gold.Chemscore.Lipo>
48.0303

> <Gold.Chemscore.Internal_Hbond>
0.0000

> <Gold.Chemscore.DEClash>
1.7894

> <Gold.Chemscore.DEInternal>
2.7016

> <Gold.Chemscore.Rot>
3.9951

> <Gold.Chemscore.Internal.Correction>
   9.000000E+99

> <Gold.Chemscore.Hbonds>
donor molecule, donor type, donor heavy atom, donor atom, acceptor molecule, acceptor atom, score
      P1  H  6896  6908       L1    14  0.44
      P1  H  7989  7998       L1     7  0.26
      P1  H  8022  8030       L1    27  0.70
      P1  H 10752 10764       L1    17  0.46
      P1  H 10752 10765       L1    15  0.25

> <Gold.Chemscore.Hbond.Weighted>
-7.8969

> <Gold.Chemscore.Metal.Weighted>
-0.0000

> <Gold.Chemscore.Lipo.Weighted>
-5.6195

> <Gold.Chemscore.Internal_Hbond.Weighted>
0.0000

> <Gold.Chemscore.DEClash.Weighted>
1.7894

> <Gold.Chemscore.DEInternal.Weighted>
2.7016

> <Gold.Chemscore.Rot.Weighted>
10.2274

> <Gold.Chemscore.Internal.Correction.Weighted>
   9.000000E+99

> <Gold.Protein.RotatedTorsions>
[ 6907 6896 6895 6894 ] final  -84.69 input  -60.11 | X-H torsion
[ 7974 7965 7964 7962 ] final  111.09 input  175.53 | X-H torsion
[ 8008 7997 7996 7995 ] final   58.16 input   59.86 | X-H torsion
[ 10167 10162 10161 10158 ] final -157.30 input  -65.29 | X-H torsion
[ 10718 10713 10712 10709 ] final -148.51 input   66.30 | X-H torsion
[ 10763 10752 10751 10750 ] final -107.81 input  -60.55 | X-H torsion
[ 11005 11000 10999 10996 ] final -163.95 input  -57.11 | X-H torsion

> <Gold.Protein.ActiveResidues>
 VAL166  LYS551  ARG553  GLY616  TRP617  ASP618  TYR619  PRO620  LYS621  CYS622 
 ASP623  PHE694  ASN695  SER759  ASP760  ASP761  ALA762  ILE779  LEU786  VAL792 
 PHE793  MET794  SER795  GLU796  ALA797  LYS798  CYS799  TRP800  GLU811  SER814 

> <Gold.Protein.RotatedAtoms>
  150.6875  134.3319  159.4830 H   0  0  0  0  0  0  0  0  0  0  0  0  # atno 6907 bound_to 6896
  152.1183  134.9221  160.0573 H   0  0  0  0  0  0  0  0  0  0  0  0  # atno 6908 bound_to 6896
  152.0437  133.3954  159.4385 H   0  0  0  0  0  0  0  0  0  0  0  0  # atno 6909 bound_to 6896
  145.2467  139.2756  143.4089 H   0  0  0  0  0  0  0  0  0  0  0  0  # atno 7974 bound_to 7965
  155.5454  140.3485  155.4456 H   0  0  0  0  0  0  0  0  0  0  0  0  # atno 8008 bound_to 7997
  156.0621  140.1342  156.9955 H   0  0  0  0  0  0  0  0  0  0  0  0  # atno 8009 bound_to 7997
  154.4485  140.0983  156.6517 H   0  0  0  0  0  0  0  0  0  0  0  0  # atno 8010 bound_to 7997
  139.6781  143.9628  152.2322 H   0  0  0  0  0  0  0  0  0  0  0  0  # atno 10167 bound_to 10162
  156.4212  130.8030  151.2252 H   0  0  0  0  0  0  0  0  0  0  0  0  # atno 10718 bound_to 10713
  154.8098  135.4661  154.0486 H   0  0  0  0  0  0  0  0  0  0  0  0  # atno 10763 bound_to 10752
  153.1926  135.6857  153.8339 H   0  0  0  0  0  0  0  0  0  0  0  0  # atno 10764 bound_to 10752
  153.7852  135.3251  155.3348 H   0  0  0  0  0  0  0  0  0  0  0  0  # atno 10765 bound_to 10752
  140.5923  134.5032  157.5194 H   0  0  0  0  0  0  0  0  0  0  0  0  # atno 11005 bound_to 11000
  146.3314  140.2845  142.8612 LP  0  0  0  0  0  0  0  0  0  0  0  0  # atno 17320 bound_to 7965
  144.9540  140.8208  143.5554 LP  0  0  0  0  0  0  0  0  0  0  0  0  # atno 17321 bound_to 7965
  139.9410  144.6681  150.8266 LP  0  0  0  0  0  0  0  0  0  0  0  0  # atno 17342 bound_to 10162
  140.7643  143.3244  151.2548 LP  0  0  0  0  0  0  0  0  0  0  0  0  # atno 17343 bound_to 10162
  157.7508  131.0227  150.3805 LP  0  0  0  0  0  0  0  0  0  0  0  0  # atno 17370 bound_to 10713
  156.4122  130.3936  149.6883 LP  0  0  0  0  0  0  0  0  0  0  0  0  # atno 17371 bound_to 10713
  139.9268  134.8039  156.1044 LP  0  0  0  0  0  0  0  0  0  0  0  0  # atno 17394 bound_to 11000
  141.0927  133.6708  156.2575 LP  0  0  0  0  0  0  0  0  0  0  0  0  # atno 17395 bound_to 11000

$$$$
