AV-unprocessed.smi:160|AV-procd|sdf|1352|dock7
  -GOLD-   2262019 53D 1   1.00000     0.00000
 Structure written by MMmdl.
 29 30  0  0  0  0  0  0  0  0  1 V2000
  140.7253  138.0968  154.1367 N   0  0  0  0  0  0  0  0  0  0  0  0
  140.4543  136.7993  154.3118 C   0  0  0  0  0  0  0  0  0  0  0  0
  139.5203  136.4107  155.0115 O   0  0  0  0  0  0  0  0  0  0  0  0
  141.3548  135.8299  153.5969 C   0  0  0  0  0  0  0  0  0  0  0  0
  141.0333  134.5060  153.5035 N   0  0  0  0  0  0  0  0  0  0  0  0
  142.0898  134.0824  152.8218 C   0  0  0  0  0  0  0  0  0  0  0  0
  142.9642  135.0470  152.5093 N   0  0  0  0  0  0  0  0  0  0  0  0
  144.2859  134.9939  151.8035 C   0  0  1  0  0  0  0  0  0  0  0  0
  144.9448  133.8267  152.1830 O   0  0  0  0  0  0  0  0  0  0  0  0
  144.5579  132.7711  151.3132 C   0  0  2  0  0  0  0  0  0  0  0  0
  145.5856  131.6314  151.3810 C   0  0  0  0  0  0  0  0  0  0  0  0
  146.8938  132.1499  151.2678 O   0  0  0  0  0  0  0  0  0  0  0  0
  144.5108  133.4724  149.9502 C   0  0  1  0  0  0  0  0  0  0  0  0
  143.5532  132.8497  149.1176 O   0  0  0  0  0  0  0  0  0  0  0  0
  144.0863  134.9053  150.2786 C   0  0  2  0  0  0  0  0  0  0  0  0
  144.9038  135.8344  149.5964 O   0  0  0  0  0  0  0  0  0  0  0  0
  142.5048  136.2094  153.0363 N   0  0  0  0  0  0  0  0  0  0  0  0
  144.8094  135.8869  152.1481 H   0  0  0  0  0  0  0  0  0  0  0  0
  143.5618  132.4156  151.5851 H   0  0  0  0  0  0  0  0  0  0  0  0
  145.4946  133.4525  149.4780 H   0  0  0  0  0  0  0  0  0  0  0  0
  143.0434  135.0930  150.0185 H   0  0  0  0  0  0  0  0  0  0  0  0
  140.1554  138.7959  154.5898 H   0  0  0  0  0  0  0  0  0  0  0  0
  141.5004  138.3685  153.5494 H   0  0  0  0  0  0  0  0  0  0  0  0
  142.2279  133.0466  152.5478 H   0  0  0  0  0  0  0  0  0  0  0  0
  145.5180  131.1242  152.3438 H   0  0  0  0  0  0  0  0  0  0  0  0
  145.4035  130.8848  150.6072 H   0  0  0  0  0  0  0  0  0  0  0  0
  147.4354  131.5071  150.8358 H   0  0  0  0  0  0  0  0  0  0  0  0
  142.7776  133.3893  149.0999 H   0  0  0  0  0  0  0  0  0  0  0  0
  144.5051  136.6888  149.6613 H   0  0  0  0  0  0  0  0  0  0  0  0
  1  2  1  0  0  0  0
  1 22  1  0  0  0  0
  1 23  1  0  0  0  0
  2  3  2  0  0  0  0
  2  4  1  0  0  0  0
  4 17  2  0  0  0  0
  4  5  1  0  0  0  0
  5  6  2  0  0  0  0
  6  7  1  0  0  0  0
  6 24  1  0  0  0  0
  7  8  1  0  0  0  0
  7 17  1  0  0  0  0
  8 18  1  0  0  0  0
  8 15  1  0  0  0  0
  8  9  1  0  0  0  0
  9 10  1  0  0  0  0
 10 19  1  0  0  0  0
 10 11  1  0  0  0  0
 10 13  1  0  0  0  0
 11 12  1  0  0  0  0
 11 25  1  0  0  0  0
 11 26  1  0  0  0  0
 12 27  1  0  0  0  0
 13 20  1  0  0  0  0
 13 14  1  0  0  0  0
 13 15  1  0  0  0  0
 14 28  1  0  0  0  0
 15 21  1  0  0  0  0
 15 16  1  0  0  0  0
 16 29  1  0  0  0  0
M  END
> <s_m_source_file>
AV-unprocessed.smi

> <i_m_source_file_index>
160

> <i_lp_mmshare_version>
43012

> <i_f3d_flags>
0

> <s_epik_input>
W05IMl1DKD1PKWMxbltjSF1uKG4xKVtDQEBIXTJPW0NASF0oW0NIMl1bT0hdKVtDQEBIXShbT0hdKVtDQEhdMltPSF0=

> <s_epik_cmdline>
J2VwaWtfcHl0aG9uJywgJy1waCcsICc3LjAnLCAnLXRuJywgJzgnLCAnLW1hJywgJzIwMCcsICctbWV0YWxfYmluZGluZycsICctaW1hZScsICc8aW5maWxlLm1hZT4nLCAnLW9tYWUnLCAnPG91dGZpbGUubWFlPic=

> <r_lp_tautomer_probability>
1

> <r_epik_Ionization_Penalty>
1.06932e-05

> <r_epik_Ionization_Penalty_Charging>
0

> <r_epik_Ionization_Penalty_Neutral>
1.06932e-05

> <r_epik_State_Penalty>
-0

> <r_epik_Charging_Adjusted_Penalty>
0

> <i_epik_Tot_Q>
0

> <i_epik_Tot_abs_Q>
0

> <r_epik_Metal_State_Penalty>
0.0142097

> <b_epik_Metal_Only>
0

> <s_epik_Chemistry_Notes>
This compound contains an acetal/aminal-like group ( X-CH(R)-Y where X, Y are N, S, or O) that may be acid/base labile, releasing an aldehyde.

> <s_lp_Force_Field>
OPLS_2005

> <r_lp_Energy>
33.6029

> <b_lp_Chiralities_Consistent>
1

> <s_lp_Variant>
AV-unprocessed.smi:160-10

> <Gold.Version>
5.8.1

> <Gold.Id.Protein>
6NUR|6NUR_protein|mol2

> <Gold.PLP.Fitness>
42.1569

> <Gold.PLP.PLP>
-29.6751

> <Gold.PLP.part.hbond>
-6.2131

> <Gold.PLP.part.metal>
0.0000

> <Gold.PLP.part.buried>
-6.2274

> <Gold.PLP.part.nonpolar>
-18.0990

> <Gold.PLP.part.repulsive>
0.5216

> <Gold.PLP.ligand.clash>
0.0000

> <Gold.PLP.ligand.torsion>
0.6337

> <Gold.PLP.Chemscore.Hbond>
4.0000

> <Gold.PLP.Chemscore.CHOScore>
0.5685

> <Gold.PLP.Chemscore.Metal>
0.0000

> <Gold.Chemscore.Hbonds>
donor molecule, donor type, donor heavy atom, donor atom, acceptor molecule, acceptor atom, score
      L1  H    12    27       P1 10747  1.00
      L1  H    14    28       P1 10186  0.84
      L1  H    16    29       P1 10171  1.00
      P1  H 11000 11005       L1     3  1.00
      L1  C     6    24       P1 10957  0.45

> <Gold.PLP.Chemscore.Internal.Correction>
0.0437

> <Gold.Rescore>
     Score         DG    S(hbond)    S(metal)    S(lipo)     H(rot)  DE(clash)    DE(int)     intcor
     11.42     -11.66       3.93        0.00      29.33       4.06       0.03       0.21       ----

> <Gold.Chemscore.Fitness>
11.4222

> <Gold.Chemscore.DG>
-11.6601

> <Gold.Chemscore.ZeroCoef>
-5.4800

> <Gold.Chemscore.Hbond>
3.9348

> <Gold.Chemscore.Metal>
0.0000

> <Gold.Chemscore.Lipo>
29.3282

> <Gold.Chemscore.Internal_Hbond>
0.0000

> <Gold.Chemscore.DEClash>
0.0276

> <Gold.Chemscore.DEInternal>
0.2103

> <Gold.Chemscore.Rot>
4.0600

> <Gold.Chemscore.Internal.Correction>
   9.000000E+99

> <Gold.Chemscore.Hbonds>
donor molecule, donor type, donor heavy atom, donor atom, acceptor molecule, acceptor atom, score
      L1  H    12    27       P1 10747  0.98
      L1  H    14    28       P1 10186  0.82
      L1  H    16    29       P1 10171  0.98
      P1  H 11000 11005       L1     3  0.92

> <Gold.Chemscore.Hbond.Weighted>
-13.1423

> <Gold.Chemscore.Metal.Weighted>
-0.0000

> <Gold.Chemscore.Lipo.Weighted>
-3.4314

> <Gold.Chemscore.Internal_Hbond.Weighted>
0.0000

> <Gold.Chemscore.DEClash.Weighted>
0.0276

> <Gold.Chemscore.DEInternal.Weighted>
0.2103

> <Gold.Chemscore.Rot.Weighted>
10.3936

> <Gold.Chemscore.Internal.Correction.Weighted>
   9.000000E+99

> <Gold.Protein.RotatedTorsions>
[ 6907 6896 6895 6894 ] final -104.75 input  -60.11 | X-H torsion
[ 7974 7965 7964 7962 ] final  157.76 input  175.53 | X-H torsion
[ 8008 7997 7996 7995 ] final   20.33 input   59.86 | X-H torsion
[ 10167 10162 10161 10158 ] final  117.43 input  -65.29 | X-H torsion
[ 10718 10713 10712 10709 ] final -102.32 input   66.30 | X-H torsion
[ 10763 10752 10751 10750 ] final -177.32 input  -60.55 | X-H torsion
[ 11005 11000 10999 10996 ] final   89.85 input  -57.11 | X-H torsion

> <Gold.Protein.ActiveResidues>
 VAL166  LYS551  ARG553  GLY616  TRP617  ASP618  TYR619  PRO620  LYS621  CYS622 
 ASP623  PHE694  ASN695  SER759  ASP760  ASP761  ALA762  ILE779  LEU786  VAL792 
 PHE793  MET794  SER795  GLU796  ALA797  LYS798  CYS799  TRP800  GLU811  SER814 

> <Gold.Protein.RotatedAtoms>
  150.7302  134.0231  159.3707 H   0  0  0  0  0  0  0  0  0  0  0  0  # atno 6907 bound_to 6896
  151.8197  135.0653  160.0433 H   0  0  0  0  0  0  0  0  0  0  0  0  # atno 6908 bound_to 6896
  152.3013  133.5622  159.5656 H   0  0  0  0  0  0  0  0  0  0  0  0  # atno 6909 bound_to 6896
  144.7884  139.7385  143.6231 H   0  0  0  0  0  0  0  0  0  0  0  0  # atno 7974 bound_to 7965
  154.9340  140.3044  155.5153 H   0  0  0  0  0  0  0  0  0  0  0  0  # atno 8008 bound_to 7997
  156.3001  140.2348  156.4340 H   0  0  0  0  0  0  0  0  0  0  0  0  # atno 8009 bound_to 7997
  154.8210  140.0423  157.1399 H   0  0  0  0  0  0  0  0  0  0  0  0  # atno 8010 bound_to 7997
  139.6179  144.7095  151.2698 H   0  0  0  0  0  0  0  0  0  0  0  0  # atno 10167 bound_to 10162
  156.0225  130.5415  150.7092 H   0  0  0  0  0  0  0  0  0  0  0  0  # atno 10718 bound_to 10713
  154.5615  135.2820  155.0914 H   0  0  0  0  0  0  0  0  0  0  0  0  # atno 10763 bound_to 10752
  154.2321  135.6372  153.5182 H   0  0  0  0  0  0  0  0  0  0  0  0  # atno 10764 bound_to 10752
  153.0030  135.5539  154.6211 H   0  0  0  0  0  0  0  0  0  0  0  0  # atno 10765 bound_to 10752
  139.8867  134.8577  156.3201 H   0  0  0  0  0  0  0  0  0  0  0  0  # atno 11005 bound_to 11000
  146.2126  139.5493  142.9671 LP  0  0  0  0  0  0  0  0  0  0  0  0  # atno 17320 bound_to 7965
  145.5859  141.0376  143.2096 LP  0  0  0  0  0  0  0  0  0  0  0  0  # atno 17321 bound_to 7965
  140.7363  143.6711  150.8081 LP  0  0  0  0  0  0  0  0  0  0  0  0  # atno 17342 bound_to 10162
  140.0317  143.5437  152.2757 LP  0  0  0  0  0  0  0  0  0  0  0  0  # atno 17343 bound_to 10162
  157.4734  131.0895  151.0617 LP  0  0  0  0  0  0  0  0  0  0  0  0  # atno 17370 bound_to 10713
  157.1071  130.6006  149.5473 LP  0  0  0  0  0  0  0  0  0  0  0  0  # atno 17371 bound_to 10713
  140.9792  133.7278  156.0647 LP  0  0  0  0  0  0  0  0  0  0  0  0  # atno 17394 bound_to 11000
  140.7771  134.3767  157.5495 LP  0  0  0  0  0  0  0  0  0  0  0  0  # atno 17395 bound_to 11000

$$$$
