AV-unprocessed.smi:109|AV-procd|sdf|1033|dock10
  -GOLD-   2262018 43D 1   1.00000     0.00000
 Structure written by MMmdl.
 58 61  0  0  0  0  0  0  0  0  1 V2000
  149.2257  141.1817  153.5891 O   0  0  0  0  0  0  0  0  0  0  0  0
  148.5574  140.8848  154.7958 C   0  0  0  0  0  0  0  0  0  0  0  0
  149.2109  141.6505  155.9591 C   0  0  0  0  0  0  0  0  0  0  0  0
  150.4395  140.9377  156.5766 C   0  0  2  0  0  0  0  0  0  0  0  0
  150.1183  139.5275  156.8091 N   0  0  0  0  0  0  0  0  0  0  0  0
  150.5313  138.5444  155.9780 C   0  0  0  0  0  0  0  0  0  0  0  0
  151.3056  138.8082  154.8938 N   0  0  0  0  0  0  0  0  0  0  0  0
  151.6927  137.8140  154.0902 C   0  0  0  0  0  0  0  0  0  0  0  0
  151.4226  136.5110  154.1876 N   0  0  0  0  0  0  0  0  0  0  0  0
  150.6441  136.2377  155.2743 C   0  0  0  0  0  0  0  0  0  0  0  0
  150.1633  137.1944  156.2116 C   0  0  0  0  0  0  0  0  0  0  0  0
  149.4067  136.5595  157.1872 N   0  0  0  0  0  0  0  0  0  0  0  0
  149.4435  135.3001  156.8440 C   0  0  0  0  0  0  0  0  0  0  0  0
  150.1660  135.0155  155.7064 N   0  0  0  0  0  0  0  0  0  0  0  0
  150.3783  133.6669  155.0851 C   0  0  1  0  0  0  0  0  0  0  0  0
  149.9236  132.6760  155.9602 O   0  0  0  0  0  0  0  0  0  0  0  0
  148.8798  131.9109  155.3573 C   0  0  2  0  0  0  0  0  0  0  0  0
  148.9318  130.4679  155.8799 C   0  0  0  0  0  0  0  0  0  0  0  0
  148.7115  130.4544  157.2740 O   0  0  0  0  0  0  0  0  0  0  0  0
  149.1834  132.0378  153.8636 C   0  0  1  0  0  0  0  0  0  0  0  0
  148.0724  131.7365  153.0402 O   0  0  0  0  0  0  0  0  0  0  0  0
  149.6391  133.4855  153.7450 C   0  0  1  0  0  0  0  0  0  0  0  0
  148.5602  134.3891  153.5613 O   0  0  0  0  0  0  0  0  0  0  0  0
  150.9347  141.5811  157.9043 C   0  0  0  0  0  0  0  0  0  0  0  0
  151.2802  143.0853  157.7618 C   0  0  0  0  0  0  0  0  0  0  0  0
  151.8219  143.6940  159.0658 C   0  0  0  0  0  0  0  0  0  0  0  0
  153.0429  142.9234  159.5805 C   0  0  0  0  0  0  0  0  0  0  0  0
  152.7031  141.4399  159.7633 C   0  0  0  0  0  0  0  0  0  0  0  0
  152.1724  140.8281  158.4577 C   0  0  0  0  0  0  0  0  0  0  0  0
  151.4606  133.5766  154.9849 H   0  0  0  0  0  0  0  0  0  0  0  0
  147.9128  132.3697  155.5696 H   0  0  0  0  0  0  0  0  0  0  0  0
  150.0120  131.3785  153.5998 H   0  0  0  0  0  0  0  0  0  0  0  0
  150.3395  133.6201  152.9203 H   0  0  0  0  0  0  0  0  0  0  0  0
  149.1668  140.4295  153.0200 H   0  0  0  0  0  0  0  0  0  0  0  0
  147.5074  141.1538  154.6828 H   0  0  0  0  0  0  0  0  0  0  0  0
  148.6041  139.8096  154.9703 H   0  0  0  0  0  0  0  0  0  0  0  0
  149.5049  142.6215  155.5647 H   0  0  0  0  0  0  0  0  0  0  0  0
  148.4699  141.8452  156.7357 H   0  0  0  0  0  0  0  0  0  0  0  0
  151.2619  141.0311  155.8679 H   0  0  0  0  0  0  0  0  0  0  0  0
  149.5427  139.3436  157.6184 H   0  0  0  0  0  0  0  0  0  0  0  0
  152.3056  138.1035  153.2493 H   0  0  0  0  0  0  0  0  0  0  0  0
  148.9412  134.5357  157.4186 H   0  0  0  0  0  0  0  0  0  0  0  0
  148.1451  129.8703  155.4185 H   0  0  0  0  0  0  0  0  0  0  0  0
  149.8835  129.9928  155.6399 H   0  0  0  0  0  0  0  0  0  0  0  0
  147.9189  129.9693  157.4469 H   0  0  0  0  0  0  0  0  0  0  0  0
  148.3916  131.4444  152.2000 H   0  0  0  0  0  0  0  0  0  0  0  0
  148.7964  134.9985  152.8778 H   0  0  0  0  0  0  0  0  0  0  0  0
  150.1336  141.4958  158.6405 H   0  0  0  0  0  0  0  0  0  0  0  0
  152.0124  143.2209  156.9647 H   0  0  0  0  0  0  0  0  0  0  0  0
  150.4007  143.6608  157.4780 H   0  0  0  0  0  0  0  0  0  0  0  0
  152.0850  144.7399  158.9049 H   0  0  0  0  0  0  0  0  0  0  0  0
  151.0387  143.6870  159.8250 H   0  0  0  0  0  0  0  0  0  0  0  0
  153.8690  143.0283  158.8759 H   0  0  0  0  0  0  0  0  0  0  0  0
  153.3832  143.3484  160.5250 H   0  0  0  0  0  0  0  0  0  0  0  0
  153.5874  140.8951  160.0955 H   0  0  0  0  0  0  0  0  0  0  0  0
  151.9566  141.3279  160.5506 H   0  0  0  0  0  0  0  0  0  0  0  0
  151.9364  139.7805  158.6449 H   0  0  0  0  0  0  0  0  0  0  0  0
  152.9661  140.8310  157.7092 H   0  0  0  0  0  0  0  0  0  0  0  0
  1  2  1  0  0  0  0
  1 34  1  0  0  0  0
  2  3  1  0  0  0  0
  2 35  1  0  0  0  0
  2 36  1  0  0  0  0
  3  4  1  0  0  0  0
  3 37  1  0  0  0  0
  3 38  1  0  0  0  0
  4  5  1  0  0  0  0
  4 24  1  0  0  0  0
  4 39  1  0  0  0  0
  5  6  1  0  0  0  0
  5 40  1  0  0  0  0
  6 11  1  0  0  0  0
  6  7  2  0  0  0  0
  7  8  1  0  0  0  0
  8  9  2  0  0  0  0
  8 41  1  0  0  0  0
  9 10  1  0  0  0  0
 10 14  1  0  0  0  0
 10 11  2  0  0  0  0
 11 12  1  0  0  0  0
 12 13  2  0  0  0  0
 13 14  1  0  0  0  0
 13 42  1  0  0  0  0
 14 15  1  0  0  0  0
 15 30  1  0  0  0  0
 15 22  1  0  0  0  0
 15 16  1  0  0  0  0
 16 17  1  0  0  0  0
 17 31  1  0  0  0  0
 17 18  1  0  0  0  0
 17 20  1  0  0  0  0
 18 19  1  0  0  0  0
 18 43  1  0  0  0  0
 18 44  1  0  0  0  0
 19 45  1  0  0  0  0
 20 32  1  0  0  0  0
 20 21  1  0  0  0  0
 20 22  1  0  0  0  0
 21 46  1  0  0  0  0
 22 33  1  0  0  0  0
 22 23  1  0  0  0  0
 23 47  1  0  0  0  0
 24 29  1  0  0  0  0
 24 25  1  0  0  0  0
 24 48  1  0  0  0  0
 25 26  1  0  0  0  0
 25 49  1  0  0  0  0
 25 50  1  0  0  0  0
 26 27  1  0  0  0  0
 26 51  1  0  0  0  0
 26 52  1  0  0  0  0
 27 28  1  0  0  0  0
 27 53  1  0  0  0  0
 27 54  1  0  0  0  0
 28 29  1  0  0  0  0
 28 55  1  0  0  0  0
 28 56  1  0  0  0  0
 29 57  1  0  0  0  0
 29 58  1  0  0  0  0
M  END
> <s_m_source_file>
AV-unprocessed.smi

> <i_m_source_file_index>
109

> <i_lp_mmshare_version>
43012

> <i_f3d_flags>
0

> <s_epik_input>
W0NIMl0xW0NIMl1bQ0gyXVtDSDJdW0NIMl1bQ0hdMVtDQEhdKFtDSDJdW0NIMl1bT0hdKVtOSF1jKG5bY0hdbjIpYyhjMjMpbltjSF1uM1tDQEBIXTRPW0NASF0oW0NIMl1bT0hdKVtDQEBIXShbT0hdKVtDQEhdNFtPSF0=

> <s_epik_cmdline>
J2VwaWtfcHl0aG9uJywgJy1waCcsICc3LjAnLCAnLXRuJywgJzgnLCAnLW1hJywgJzIwMCcsICctbWV0YWxfYmluZGluZycsICctaW1hZScsICc8aW5maWxlLm1hZT4nLCAnLW9tYWUnLCAnPG91dGZpbGUubWFlPic=

> <r_lp_tautomer_probability>
1

> <r_epik_Ionization_Penalty>
0.000793976

> <r_epik_Ionization_Penalty_Charging>
0

> <r_epik_Ionization_Penalty_Neutral>
0.000793976

> <r_epik_State_Penalty>
-0

> <r_epik_Charging_Adjusted_Penalty>
0

> <i_epik_Tot_Q>
0

> <i_epik_Tot_abs_Q>
0

> <r_epik_Metal_State_Penalty>
-0

> <b_epik_Metal_Only>
0

> <s_epik_Chemistry_Notes>
This compound contains an acetal/aminal-like group ( X-CH(R)-Y where X, Y are N, S, or O) that may be acid/base labile, releasing an aldehyde.

> <s_lp_Force_Field>
OPLS_2005

> <r_lp_Energy>
57.1061

> <b_lp_Chiralities_Consistent>
1

> <s_lp_Variant>
AV-unprocessed.smi:109-3

> <Gold.Version>
5.8.1

> <Gold.Id.Protein>
6NUR|6NUR_protein|mol2

> <Gold.PLP.Fitness>
55.0881

> <Gold.PLP.PLP>
-42.4784

> <Gold.PLP.part.hbond>
-5.6442

> <Gold.PLP.part.metal>
0.0000

> <Gold.PLP.part.buried>
-4.8652

> <Gold.PLP.part.nonpolar>
-34.5835

> <Gold.PLP.part.repulsive>
1.9975

> <Gold.PLP.ligand.clash>
0.0000

> <Gold.PLP.ligand.torsion>
0.6207

> <Gold.PLP.Chemscore.Hbond>
4.5457

> <Gold.PLP.Chemscore.CHOScore>
0.0000

> <Gold.PLP.Chemscore.Metal>
0.0000

> <Gold.Chemscore.Hbonds>
donor molecule, donor type, donor heavy atom, donor atom, acceptor molecule, acceptor atom, score
      L1  H     1    34       P1  7957  0.70
      L1  H    21    46       P1 10747  0.88
      L1  H    23    47       P1  7948  0.95
      P1  H  7989  7998       L1     1  0.01
      P1  H  8011  8017       L1     1  0.88
      P1  H 10752 10765       L1     9  1.00

> <Gold.PLP.Chemscore.Internal.Correction>
0.2139

> <Gold.Rescore>
     Score         DG    S(hbond)    S(metal)    S(lipo)     H(rot)  DE(clash)    DE(int)     intcor
      9.71     -11.84       2.76        0.00      95.01       5.47       1.51       0.62       ----

> <Gold.Chemscore.Fitness>
9.7138

> <Gold.Chemscore.DG>
-11.8365

> <Gold.Chemscore.ZeroCoef>
-5.4800

> <Gold.Chemscore.Hbond>
2.7645

> <Gold.Chemscore.Metal>
0.0000

> <Gold.Chemscore.Lipo>
95.0143

> <Gold.Chemscore.Internal_Hbond>
0.0000

> <Gold.Chemscore.DEClash>
1.5055

> <Gold.Chemscore.DEInternal>
0.6171

> <Gold.Chemscore.Rot>
5.4662

> <Gold.Chemscore.Internal.Correction>
   9.000000E+99

> <Gold.Chemscore.Hbonds>
donor molecule, donor type, donor heavy atom, donor atom, acceptor molecule, acceptor atom, score
      L1  H     1    34       P1  7957  0.71
      L1  H    21    46       P1 10747  0.85
      L1  H    23    47       P1  7948  0.21
      P1  H  7989  7998       L1     7  0.01
      P1  H  8011  8017       L1     1  0.17
      P1  H 10752 10765       L1     9  0.42

> <Gold.Chemscore.Hbond.Weighted>
-9.2333

> <Gold.Chemscore.Metal.Weighted>
-0.0000

> <Gold.Chemscore.Lipo.Weighted>
-11.1167

> <Gold.Chemscore.Internal_Hbond.Weighted>
0.0000

> <Gold.Chemscore.DEClash.Weighted>
1.5055

> <Gold.Chemscore.DEInternal.Weighted>
0.6171

> <Gold.Chemscore.Rot.Weighted>
13.9935

> <Gold.Chemscore.Internal.Correction.Weighted>
   9.000000E+99

> <Gold.Protein.RotatedTorsions>
[ 6907 6896 6895 6894 ] final  -25.60 input  -60.11 | X-H torsion
[ 7974 7965 7964 7962 ] final  166.56 input  175.53 | X-H torsion
[ 8008 7997 7996 7995 ] final  176.42 input   59.86 | X-H torsion
[ 10167 10162 10161 10158 ] final  126.86 input  -65.29 | X-H torsion
[ 10718 10713 10712 10709 ] final  -10.29 input   66.30 | X-H torsion
[ 10763 10752 10751 10750 ] final  169.13 input  -60.55 | X-H torsion
[ 11005 11000 10999 10996 ] final  141.27 input  -57.11 | X-H torsion

> <Gold.Protein.ActiveResidues>
 VAL166  LYS551  ARG553  GLY616  TRP617  ASP618  TYR619  PRO620  LYS621  CYS622 
 ASP623  PHE694  ASN695  SER759  ASP760  ASP761  ALA762  ILE779  LEU786  VAL792 
 PHE793  MET794  SER795  GLU796  ALA797  LYS798  CYS799  TRP800  GLU811  SER814 

> <Gold.Protein.RotatedAtoms>
  151.1729  135.0326  159.8759 H   0  0  0  0  0  0  0  0  0  0  0  0  # atno 6907 bound_to 6896
  152.5448  134.1150  159.8384 H   0  0  0  0  0  0  0  0  0  0  0  0  # atno 6908 bound_to 6896
  151.1258  133.5025  159.2633 H   0  0  0  0  0  0  0  0  0  0  0  0  # atno 6909 bound_to 6896
  144.7458  139.8632  143.6382 H   0  0  0  0  0  0  0  0  0  0  0  0  # atno 7974 bound_to 7965
  156.0766  140.1384  156.9764 H   0  0  0  0  0  0  0  0  0  0  0  0  # atno 8008 bound_to 7997
  154.4561  140.0961  156.6812 H   0  0  0  0  0  0  0  0  0  0  0  0  # atno 8009 bound_to 7997
  155.5143  140.3454  155.4396 H   0  0  0  0  0  0  0  0  0  0  0  0  # atno 8010 bound_to 7997
  139.5608  144.6880  151.4048 H   0  0  0  0  0  0  0  0  0  0  0  0  # atno 10167 bound_to 10162
  156.6756  130.5022  149.5986 H   0  0  0  0  0  0  0  0  0  0  0  0  # atno 10718 bound_to 10713
  154.3786  135.2753  155.2224 H   0  0  0  0  0  0  0  0  0  0  0  0  # atno 10763 bound_to 10752
  154.4341  135.5970  153.6090 H   0  0  0  0  0  0  0  0  0  0  0  0  # atno 10764 bound_to 10752
  152.9835  135.6002  154.4026 H   0  0  0  0  0  0  0  0  0  0  0  0  # atno 10765 bound_to 10752
  140.0389  134.9315  157.0806 H   0  0  0  0  0  0  0  0  0  0  0  0  # atno 11005 bound_to 11000
  146.1333  139.4373  143.0155 LP  0  0  0  0  0  0  0  0  0  0  0  0  # atno 17320 bound_to 7965
  145.7130  141.0100  143.1443 LP  0  0  0  0  0  0  0  0  0  0  0  0  # atno 17321 bound_to 7965
  140.6888  143.7911  150.7224 LP  0  0  0  0  0  0  0  0  0  0  0  0  # atno 17342 bound_to 10162
  140.1387  143.4460  152.2208 LP  0  0  0  0  0  0  0  0  0  0  0  0  # atno 17343 bound_to 10162
  156.1905  130.6557  151.1056 LP  0  0  0  0  0  0  0  0  0  0  0  0  # atno 17370 bound_to 10713
  157.7062  131.0755  150.6660 LP  0  0  0  0  0  0  0  0  0  0  0  0  # atno 17371 bound_to 10713
  140.4102  134.1990  155.7163 LP  0  0  0  0  0  0  0  0  0  0  0  0  # atno 17394 bound_to 11000
  141.1872  133.8285  157.1039 LP  0  0  0  0  0  0  0  0  0  0  0  0  # atno 17395 bound_to 11000

$$$$
