AV-unprocessed.smi:235|AV-procd|sdf|1808|dock3
  -GOLD-   2262020383D 1   1.00000     0.00000
 Structure written by MMmdl.
 54 58  0  0  0  0  0  0  0  0  1 V2000
  144.9531  136.2931  154.7497 O   0  0  0  0  0  0  0  0  0  0  0  0
  144.9677  137.3574  154.1297 C   0  0  0  0  0  0  0  0  0  0  0  0
  143.8850  138.1305  153.9628 N   0  0  0  0  0  0  0  0  0  0  0  0
  142.5789  137.8469  154.4620 C   0  0  0  0  0  0  0  0  0  0  0  0
  141.9159  136.5635  154.0114 C   0  0  0  0  0  0  0  0  0  0  0  0
  141.4306  137.8827  153.4772 C   0  0  0  0  0  0  0  0  0  0  0  0
  146.2724  137.8776  153.5047 C   0  0  1  0  0  0  0  0  0  0  0  0
  146.1191  138.0986  151.9910 C   0  0  0  0  0  0  0  0  0  0  0  0
  147.1257  139.2013  151.6807 C   0  0  0  0  0  0  0  0  0  0  0  0
  147.0817  140.0789  152.9303 C   0  0  0  0  0  0  0  0  0  0  0  0
  146.6507  139.2005  154.0107 N   0  0  0  0  0  0  0  0  0  0  0  0
  147.1252  139.3972  155.2704 C   0  0  0  0  0  0  0  0  0  0  0  0
  146.4677  138.8442  156.3248 N   0  0  0  0  0  0  0  0  0  0  0  0
  146.9105  139.0237  157.5722 C   0  0  0  0  0  0  0  0  0  0  0  0
  147.9732  139.7136  157.9887 N   0  0  0  0  0  0  0  0  0  0  0  0
  148.6343  140.2793  156.9391 C   0  0  0  0  0  0  0  0  0  0  0  0
  148.2855  140.1726  155.5621 C   0  0  0  0  0  0  0  0  0  0  0  0
  149.1926  140.8943  154.7930 N   0  0  0  0  0  0  0  0  0  0  0  0
  150.0291  141.3918  155.6623 C   0  0  0  0  0  0  0  0  0  0  0  0
  149.7661  141.0730  156.9745 N   0  0  0  0  0  0  0  0  0  0  0  0
  150.5218  141.4901  158.1419 C   0  0  0  0  0  0  0  0  0  0  0  0
  151.0709  142.9232  158.0049 C   0  0  1  0  0  0  0  0  0  0  0  0
  150.0171  143.8676  158.0352 O   0  0  0  0  0  0  0  0  0  0  0  0
  152.1243  143.2632  159.0783 C   0  0  1  0  0  0  0  0  0  0  0  0
  152.1964  144.7358  159.5185 C   0  0  0  0  0  0  0  0  0  0  0  0
  152.1297  144.6666  161.0358 C   0  0  0  0  0  0  0  0  0  0  0  0
  152.5051  143.2205  161.3370 C   0  0  0  0  0  0  0  0  0  0  0  0
  151.9088  142.5088  160.2662 O   0  0  0  0  0  0  0  0  0  0  0  0
  143.9944  138.9861  153.4383 H   0  0  0  0  0  0  0  0  0  0  0  0
  142.3481  138.1747  155.4748 H   0  0  0  0  0  0  0  0  0  0  0  0
  142.4681  135.9175  153.3310 H   0  0  0  0  0  0  0  0  0  0  0  0
  141.2814  136.0482  154.7296 H   0  0  0  0  0  0  0  0  0  0  0  0
  140.4721  138.2496  153.8389 H   0  0  0  0  0  0  0  0  0  0  0  0
  141.6564  138.1165  152.4384 H   0  0  0  0  0  0  0  0  0  0  0  0
  147.0906  137.1770  153.6836 H   0  0  0  0  0  0  0  0  0  0  0  0
  146.3067  137.1920  151.4150 H   0  0  0  0  0  0  0  0  0  0  0  0
  145.1150  138.4482  151.7427 H   0  0  0  0  0  0  0  0  0  0  0  0
  148.1203  138.7674  151.5691 H   0  0  0  0  0  0  0  0  0  0  0  0
  146.8918  139.7497  150.7679 H   0  0  0  0  0  0  0  0  0  0  0  0
  148.0548  140.5350  153.1184 H   0  0  0  0  0  0  0  0  0  0  0  0
  146.3467  140.8764  152.8136 H   0  0  0  0  0  0  0  0  0  0  0  0
  146.3285  138.5471  158.3473 H   0  0  0  0  0  0  0  0  0  0  0  0
  150.8656  142.0092  155.3686 H   0  0  0  0  0  0  0  0  0  0  0  0
  149.8795  141.4050  159.0193 H   0  0  0  0  0  0  0  0  0  0  0  0
  151.3415  140.7853  158.2864 H   0  0  0  0  0  0  0  0  0  0  0  0
  151.5464  143.0186  157.0276 H   0  0  0  0  0  0  0  0  0  0  0  0
  149.7031  143.9899  157.1523 H   0  0  0  0  0  0  0  0  0  0  0  0
  153.1075  142.9754  158.7017 H   0  0  0  0  0  0  0  0  0  0  0  0
  153.1384  145.1778  159.1922 H   0  0  0  0  0  0  0  0  0  0  0  0
  151.3910  145.3511  159.1165 H   0  0  0  0  0  0  0  0  0  0  0  0
  152.7854  145.3864  161.5264 H   0  0  0  0  0  0  0  0  0  0  0  0
  151.1083  144.8572  161.3684 H   0  0  0  0  0  0  0  0  0  0  0  0
  153.5874  143.0832  161.3110 H   0  0  0  0  0  0  0  0  0  0  0  0
  152.1355  142.8801  162.3046 H   0  0  0  0  0  0  0  0  0  0  0  0
  1  2  2  0  0  0  0
  2  3  1  0  0  0  0
  2  7  1  0  0  0  0
  3  4  1  0  0  0  0
  3 29  1  0  0  0  0
  4  6  1  0  0  0  0
  4  5  1  0  0  0  0
  4 30  1  0  0  0  0
  5  6  1  0  0  0  0
  5 31  1  0  0  0  0
  5 32  1  0  0  0  0
  6 33  1  0  0  0  0
  6 34  1  0  0  0  0
  7 11  1  0  0  0  0
  7  8  1  0  0  0  0
  7 35  1  0  0  0  0
  8  9  1  0  0  0  0
  8 36  1  0  0  0  0
  8 37  1  0  0  0  0
  9 10  1  0  0  0  0
  9 38  1  0  0  0  0
  9 39  1  0  0  0  0
 10 11  1  0  0  0  0
 10 40  1  0  0  0  0
 10 41  1  0  0  0  0
 11 12  1  0  0  0  0
 12 17  1  0  0  0  0
 12 13  2  0  0  0  0
 13 14  1  0  0  0  0
 14 15  2  0  0  0  0
 14 42  1  0  0  0  0
 15 16  1  0  0  0  0
 16 20  1  0  0  0  0
 16 17  2  0  0  0  0
 17 18  1  0  0  0  0
 18 19  2  0  0  0  0
 19 20  1  0  0  0  0
 19 43  1  0  0  0  0
 20 21  1  0  0  0  0
 21 22  1  0  0  0  0
 21 44  1  0  0  0  0
 21 45  1  0  0  0  0
 22 23  1  0  0  0  0
 22 24  1  0  0  0  0
 22 46  1  0  0  0  0
 23 47  1  0  0  0  0
 24 28  1  0  0  0  0
 24 25  1  0  0  0  0
 24 48  1  0  0  0  0
 25 26  1  0  0  0  0
 25 49  1  0  0  0  0
 25 50  1  0  0  0  0
 26 27  1  0  0  0  0
 26 51  1  0  0  0  0
 26 52  1  0  0  0  0
 27 28  1  0  0  0  0
 27 53  1  0  0  0  0
 27 54  1  0  0  0  0
M  END
> <s_m_source_file>
AV-unprocessed.smi

> <i_m_source_file_index>
235

> <i_lp_mmshare_version>
43012

> <i_f3d_flags>
0

> <s_epik_input>
W0NIMl0xW0NIMl1bQ0hdMVtOSF1DKD1PKVtDQEBIXTJbQ0gyXVtDSDJdW0NIMl1OMmMobltjSF1uMyljKGMzNCluW2NIXW40W0NIMl1bQ0BIXShbT0hdKVtDQEBIXTVbQ0gyXVtDSDJdW0NIMl1PNQ==

> <s_epik_cmdline>
J2VwaWtfcHl0aG9uJywgJy1waCcsICc3LjAnLCAnLXRuJywgJzgnLCAnLW1hJywgJzIwMCcsICctbWV0YWxfYmluZGluZycsICctaW1hZScsICc8aW5maWxlLm1hZT4nLCAnLW9tYWUnLCAnPG91dGZpbGUubWFlPic=

> <r_lp_tautomer_probability>
1

> <r_epik_Ionization_Penalty>
0.000526714

> <r_epik_Ionization_Penalty_Charging>
0

> <r_epik_Ionization_Penalty_Neutral>
0.000526714

> <r_epik_State_Penalty>
0.000272704

> <r_epik_Charging_Adjusted_Penalty>
0.000272704

> <i_epik_Tot_Q>
0

> <i_epik_Tot_abs_Q>
0

> <r_epik_Metal_State_Penalty>
-0

> <b_epik_Metal_Only>
0

> <s_lp_Force_Field>
OPLS_2005

> <r_lp_Energy>
60.2581

> <b_lp_Chiralities_Consistent>
1

> <s_lp_Variant>
AV-unprocessed.smi:235-8

> <Gold.Version>
5.8.1

> <Gold.Id.Protein>
6NUR|6NUR_protein|mol2

> <Gold.PLP.Fitness>
46.0569

> <Gold.PLP.PLP>
-43.2627

> <Gold.PLP.part.hbond>
-4.0214

> <Gold.PLP.part.metal>
0.0000

> <Gold.PLP.part.buried>
-2.0818

> <Gold.PLP.part.nonpolar>
-37.6469

> <Gold.PLP.part.repulsive>
0.1428

> <Gold.PLP.ligand.clash>
0.0000

> <Gold.PLP.ligand.torsion>
1.8038

> <Gold.PLP.Chemscore.Hbond>
2.0000

> <Gold.PLP.Chemscore.CHOScore>
0.0000

> <Gold.PLP.Chemscore.Metal>
0.0000

> <Gold.Chemscore.Hbonds>
donor molecule, donor type, donor heavy atom, donor atom, acceptor molecule, acceptor atom, score
      L1  H     3    29       P1 10175  1.00
      L1  H    23    47       P1  8028  1.00

> <Gold.PLP.Chemscore.Internal.Correction>
0.4017

> <Gold.Rescore>
     Score         DG    S(hbond)    S(metal)    S(lipo)     H(rot)  DE(clash)    DE(int)     intcor
     13.13     -17.65       1.91        0.00     108.17       2.68       0.96       3.56       ----

> <Gold.Chemscore.Fitness>
13.1298

> <Gold.Chemscore.DG>
-17.6492

> <Gold.Chemscore.ZeroCoef>
-5.4800

> <Gold.Chemscore.Hbond>
1.9054

> <Gold.Chemscore.Metal>
0.0000

> <Gold.Chemscore.Lipo>
108.1685

> <Gold.Chemscore.Internal_Hbond>
0.0000

> <Gold.Chemscore.DEClash>
0.9629

> <Gold.Chemscore.DEInternal>
3.5565

> <Gold.Chemscore.Rot>
2.6760

> <Gold.Chemscore.Internal.Correction>
   9.000000E+99

> <Gold.Chemscore.Hbonds>
donor molecule, donor type, donor heavy atom, donor atom, acceptor molecule, acceptor atom, score
      L1  H     3    29       P1 10175  1.00
      L1  H    23    47       P1  8028  0.70

> <Gold.Chemscore.Hbond.Weighted>
-6.3641

> <Gold.Chemscore.Metal.Weighted>
-0.0000

> <Gold.Chemscore.Lipo.Weighted>
-12.6557

> <Gold.Chemscore.Internal_Hbond.Weighted>
0.0000

> <Gold.Chemscore.DEClash.Weighted>
0.9629

> <Gold.Chemscore.DEInternal.Weighted>
3.5565

> <Gold.Chemscore.Rot.Weighted>
6.8506

> <Gold.Chemscore.Internal.Correction.Weighted>
   9.000000E+99

> <Gold.Protein.RotatedTorsions>
[ 6907 6896 6895 6894 ] final  112.42 input  -60.11 | X-H torsion
[ 7974 7965 7964 7962 ] final  -44.86 input  175.53 | X-H torsion
[ 8008 7997 7996 7995 ] final   15.90 input   59.86 | X-H torsion
[ 10167 10162 10161 10158 ] final  -76.82 input  -65.29 | X-H torsion
[ 10718 10713 10712 10709 ] final  165.58 input   66.30 | X-H torsion
[ 10763 10752 10751 10750 ] final  123.67 input  -60.55 | X-H torsion
[ 11005 11000 10999 10996 ] final    8.24 input  -57.11 | X-H torsion

> <Gold.Protein.ActiveResidues>
 VAL166  LYS551  ARG553  GLY616  TRP617  ASP618  TYR619  PRO620  LYS621  CYS622 
 ASP623  PHE694  ASN695  SER759  ASP760  ASP761  ALA762  ILE779  LEU786  VAL792 
 PHE793  MET794  SER795  GLU796  ALA797  LYS798  CYS799  TRP800  GLU811  SER814 

> <Gold.Protein.RotatedAtoms>
  152.4917  133.8518  159.7205 H   0  0  0  0  0  0  0  0  0  0  0  0  # atno 6907 bound_to 6896
  150.9053  133.7056  159.2875 H   0  0  0  0  0  0  0  0  0  0  0  0  # atno 6908 bound_to 6896
  151.4484  135.1031  159.9743 H   0  0  0  0  0  0  0  0  0  0  0  0  # atno 6909 bound_to 6896
  145.9878  140.7213  142.9331 H   0  0  0  0  0  0  0  0  0  0  0  0  # atno 7974 bound_to 7965
  154.8692  140.2956  155.5492 H   0  0  0  0  0  0  0  0  0  0  0  0  # atno 8008 bound_to 7997
  156.3021  140.2463  156.3611 H   0  0  0  0  0  0  0  0  0  0  0  0  # atno 8009 bound_to 7997
  154.8835  140.0397  157.1785 H   0  0  0  0  0  0  0  0  0  0  0  0  # atno 8010 bound_to 7997
  140.4824  143.2399  151.8037 H   0  0  0  0  0  0  0  0  0  0  0  0  # atno 10167 bound_to 10162
  157.0782  131.0385  151.2585 H   0  0  0  0  0  0  0  0  0  0  0  0  # atno 10718 bound_to 10713
  153.6492  135.3365  155.3095 H   0  0  0  0  0  0  0  0  0  0  0  0  # atno 10763 bound_to 10752
  154.8541  135.4337  154.1922 H   0  0  0  0  0  0  0  0  0  0  0  0  # atno 10764 bound_to 10752
  153.2860  135.7013  153.7413 H   0  0  0  0  0  0  0  0  0  0  0  0  # atno 10765 bound_to 10752
  140.5392  134.0391  155.7898 H   0  0  0  0  0  0  0  0  0  0  0  0  # atno 11005 bound_to 11000
  144.6880  140.3019  143.7262 LP  0  0  0  0  0  0  0  0  0  0  0  0  # atno 17320 bound_to 7965
  145.7674  139.1845  143.2232 LP  0  0  0  0  0  0  0  0  0  0  0  0  # atno 17321 bound_to 7965
  139.4836  144.4755  151.9372 LP  0  0  0  0  0  0  0  0  0  0  0  0  # atno 17342 bound_to 10162
  140.3841  144.2699  150.5905 LP  0  0  0  0  0  0  0  0  0  0  0  0  # atno 17343 bound_to 10162
  157.4822  130.7772  149.7425 LP  0  0  0  0  0  0  0  0  0  0  0  0  # atno 17370 bound_to 10713
  155.9931  130.3926  150.2914 LP  0  0  0  0  0  0  0  0  0  0  0  0  # atno 17371 bound_to 10713
  141.1237  133.9419  157.2679 LP  0  0  0  0  0  0  0  0  0  0  0  0  # atno 17394 bound_to 11000
  139.9513  135.0175  156.9001 LP  0  0  0  0  0  0  0  0  0  0  0  0  # atno 17395 bound_to 11000

$$$$
