AV-unprocessed.smi:2445|AV-procd|sdf|9638|dock3
  -GOLD-   2272013273D 1   1.00000     0.00000
 Structure written by MMmdl.
 40 41  0  0  0  0  0  0  0  0  1 V2000
  144.7073  141.4158  155.8725 C   0  0  0  0  0  0  0  0  0  0  0  0
  145.1603  141.9342  157.1950 C   0  0  0  0  0  0  0  0  0  0  0  0
  145.7967  141.2424  158.1954 C   0  0  0  0  0  0  0  0  0  0  0  0
  146.0932  142.0181  159.3179 N   0  0  0  0  0  0  0  0  0  0  0  0
  145.6927  143.2856  159.1854 C   0  0  0  0  0  0  0  0  0  0  0  0
  145.8673  144.3224  160.2548 C   0  0  1  0  0  0  0  0  0  0  0  0
  145.0317  144.0047  161.5031 C   0  0  0  0  0  0  0  0  0  0  0  0
  147.3508  144.5877  160.5950 C   0  0  0  0  0  0  0  0  0  0  0  0
  148.2312  144.4450  159.4386 N   0  0  0  0  0  0  0  0  0  0  0  0
  149.5203  144.0855  159.4961 C   0  0  0  0  0  0  0  0  0  0  0  0
  150.1075  143.7885  160.5365 O   0  0  0  0  0  0  0  0  0  0  0  0
  150.0926  144.0980  158.2845 N   0  0  0  0  0  0  0  0  0  0  0  0
  151.4985  143.8007  158.0096 C   0  0  2  0  0  0  0  0  0  0  0  0
  151.8083  142.3386  158.3256 C   0  0  0  0  0  0  0  0  0  0  0  0
  153.0833  142.4015  159.1591 C   0  0  0  0  0  0  0  0  0  0  0  0
  152.9622  143.6373  159.8405 O   0  0  0  0  0  0  0  0  0  0  0  0
  152.4890  144.5894  158.8986 C   0  0  2  0  0  0  0  0  0  0  0  0
  151.9569  145.8332  159.6282 C   0  0  0  0  0  0  0  0  0  0  0  0
  144.9083  143.6016  157.6399 S   0  0  0  0  0  0  0  0  0  0  0  0
  144.9725  140.3655  155.7498 H   0  0  0  0  0  0  0  0  0  0  0  0
  145.1687  141.9762  155.0593 H   0  0  0  0  0  0  0  0  0  0  0  0
  143.6253  141.5033  155.7722 H   0  0  0  0  0  0  0  0  0  0  0  0
  146.0766  140.1992  158.1929 H   0  0  0  0  0  0  0  0  0  0  0  0
  145.4647  145.2534  159.8522 H   0  0  0  0  0  0  0  0  0  0  0  0
  143.9753  143.9039  161.2527 H   0  0  0  0  0  0  0  0  0  0  0  0
  145.1197  144.7987  162.2453 H   0  0  0  0  0  0  0  0  0  0  0  0
  145.3534  143.0749  161.9728 H   0  0  0  0  0  0  0  0  0  0  0  0
  147.4718  145.5778  161.0374 H   0  0  0  0  0  0  0  0  0  0  0  0
  147.6877  143.8731  161.3463 H   0  0  0  0  0  0  0  0  0  0  0  0
  147.8380  144.6674  158.5357 H   0  0  0  0  0  0  0  0  0  0  0  0
  149.5207  144.3505  157.4920 H   0  0  0  0  0  0  0  0  0  0  0  0
  151.7264  143.9982  156.9603 H   0  0  0  0  0  0  0  0  0  0  0  0
  151.0127  141.8910  158.9236 H   0  0  0  0  0  0  0  0  0  0  0  0
  151.9292  141.7296  157.4292 H   0  0  0  0  0  0  0  0  0  0  0  0
  153.1774  141.5647  159.8512 H   0  0  0  0  0  0  0  0  0  0  0  0
  153.9672  142.4210  158.5194 H   0  0  0  0  0  0  0  0  0  0  0  0
  153.3404  144.8866  158.2835 H   0  0  0  0  0  0  0  0  0  0  0  0
  151.5863  146.5746  158.9202 H   0  0  0  0  0  0  0  0  0  0  0  0
  152.7474  146.3033  160.2133 H   0  0  0  0  0  0  0  0  0  0  0  0
  151.1470  145.5834  160.3140 H   0  0  0  0  0  0  0  0  0  0  0  0
  1  2  1  0  0  0  0
  1 20  1  0  0  0  0
  1 21  1  0  0  0  0
  1 22  1  0  0  0  0
  2 19  1  0  0  0  0
  2  3  2  0  0  0  0
  3  4  1  0  0  0  0
  3 23  1  0  0  0  0
  4  5  2  0  0  0  0
  5  6  1  0  0  0  0
  5 19  1  0  0  0  0
  6  7  1  0  0  0  0
  6  8  1  0  0  0  0
  6 24  1  0  0  0  0
  7 25  1  0  0  0  0
  7 26  1  0  0  0  0
  7 27  1  0  0  0  0
  8  9  1  0  0  0  0
  8 28  1  0  0  0  0
  8 29  1  0  0  0  0
  9 10  1  0  0  0  0
  9 30  1  0  0  0  0
 10 11  2  0  0  0  0
 10 12  1  0  0  0  0
 12 13  1  0  0  0  0
 12 31  1  0  0  0  0
 13 17  1  0  0  0  0
 13 14  1  0  0  0  0
 13 32  1  0  0  0  0
 14 15  1  0  0  0  0
 14 33  1  0  0  0  0
 14 34  1  0  0  0  0
 15 16  1  0  0  0  0
 15 35  1  0  0  0  0
 15 36  1  0  0  0  0
 16 17  1  0  0  0  0
 17 18  1  0  0  0  0
 17 37  1  0  0  0  0
 18 38  1  0  0  0  0
 18 39  1  0  0  0  0
 18 40  1  0  0  0  0
M  END
> <s_m_source_file>
AV-unprocessed.smi

> <i_m_source_file_index>
2445

> <i_lp_mmshare_version>
43012

> <i_f3d_flags>
0

> <s_epik_input>
W0NIM11jMVtjSF1uYyhzMSlbQ0BIXShbQ0gzXSlbQ0gyXVtOSF1DKD1PKVtOSF1bQ0BASF0yW0NIMl1bQ0gyXU9bQ0BIXTJbQ0gzXQ==

> <s_epik_cmdline>
J2VwaWtfcHl0aG9uJywgJy1waCcsICc3LjAnLCAnLXRuJywgJzgnLCAnLW1hJywgJzIwMCcsICctbWV0YWxfYmluZGluZycsICctaW1hZScsICc8aW5maWxlLm1hZT4nLCAnLW9tYWUnLCAnPG91dGZpbGUubWFlPic=

> <r_epik_Ionization_Penalty>
0.000649483

> <r_epik_Ionization_Penalty_Charging>
0

> <r_epik_Ionization_Penalty_Neutral>
0.000649483

> <r_epik_State_Penalty>
0.000379895

> <r_epik_Charging_Adjusted_Penalty>
0.000379895

> <i_epik_Tot_Q>
0

> <i_epik_Tot_abs_Q>
0

> <r_epik_Metal_State_Penalty>
-0

> <b_epik_Metal_Only>
0

> <s_lp_Force_Field>
OPLS_2005

> <r_lp_Energy>
6.13351

> <b_lp_Chiralities_Consistent>
1

> <s_lp_Variant>
AV-unprocessed.smi:2445-6

> <Gold.Version>
5.8.1

> <Gold.Id.Protein>
6NUR|6NUR_protein|mol2

> <Gold.PLP.Fitness>
41.4688

> <Gold.PLP.PLP>
-34.6283

> <Gold.PLP.part.hbond>
-4.9842

> <Gold.PLP.part.metal>
0.0000

> <Gold.PLP.part.buried>
-6.0249

> <Gold.PLP.part.nonpolar>
-24.7248

> <Gold.PLP.part.repulsive>
0.3663

> <Gold.PLP.ligand.clash>
0.0000

> <Gold.PLP.ligand.torsion>
0.5332

> <Gold.PLP.Chemscore.Hbond>
2.6026

> <Gold.PLP.Chemscore.CHOScore>
0.0000

> <Gold.PLP.Chemscore.Metal>
0.0000

> <Gold.Chemscore.Hbonds>
donor molecule, donor type, donor heavy atom, donor atom, acceptor molecule, acceptor atom, score
      L1  H     9    30       P1  8029  0.82
      L1  H    12    31       P1  8028  0.70
      P1  H  6933  6944       L1    11  0.02
      P1  H  6934  6946       L1     4  1.00

> <Gold.PLP.Chemscore.Internal.Correction>
0.0991

> <Gold.Rescore>
     Score         DG    S(hbond)    S(metal)    S(lipo)     H(rot)  DE(clash)    DE(int)     intcor
     15.27     -17.75       2.03        0.00      80.49       1.53       0.00       2.48       ----

> <Gold.Chemscore.Fitness>
15.2702

> <Gold.Chemscore.DG>
-17.7497

> <Gold.Chemscore.ZeroCoef>
-5.4800

> <Gold.Chemscore.Hbond>
2.0288

> <Gold.Chemscore.Metal>
0.0000

> <Gold.Chemscore.Lipo>
80.4853

> <Gold.Chemscore.Internal_Hbond>
0.0000

> <Gold.Chemscore.DEClash>
0.0029

> <Gold.Chemscore.DEInternal>
2.4766

> <Gold.Chemscore.Rot>
1.5325

> <Gold.Chemscore.Internal.Correction>
   9.000000E+99

> <Gold.Chemscore.Hbonds>
donor molecule, donor type, donor heavy atom, donor atom, acceptor molecule, acceptor atom, score
      L1  H     9    30       P1  8029  0.79
      L1  H    12    31       P1  8028  0.07
      P1  H  6933  6944       L1    11  0.01
      P1  H  6934  6946       L1     4  0.62

> <Gold.Chemscore.Hbond.Weighted>
-6.7762

> <Gold.Chemscore.Metal.Weighted>
-0.0000

> <Gold.Chemscore.Lipo.Weighted>
-9.4168

> <Gold.Chemscore.Internal_Hbond.Weighted>
0.0000

> <Gold.Chemscore.DEClash.Weighted>
0.0029

> <Gold.Chemscore.DEInternal.Weighted>
2.4766

> <Gold.Chemscore.Rot.Weighted>
3.9233

> <Gold.Chemscore.Internal.Correction.Weighted>
   9.000000E+99

> <Gold.Protein.RotatedTorsions>
[ 6907 6896 6895 6894 ] final  160.77 input  -60.11 | X-H torsion
[ 7974 7965 7964 7962 ] final  -77.15 input  175.53 | X-H torsion
[ 8008 7997 7996 7995 ] final -129.64 input   59.86 | X-H torsion
[ 10167 10162 10161 10158 ] final  -38.66 input  -65.29 | X-H torsion
[ 10718 10713 10712 10709 ] final   84.87 input   66.30 | X-H torsion
[ 10763 10752 10751 10750 ] final   74.77 input  -60.55 | X-H torsion
[ 11005 11000 10999 10996 ] final  120.53 input  -57.11 | X-H torsion

> <Gold.Protein.ActiveResidues>
 VAL166  LYS551  ARG553  GLY616  TRP617  ASP618  TYR619  PRO620  LYS621  CYS622 
 ASP623  PHE694  ASN695  SER759  ASP760  ASP761  ALA762  ILE779  LEU786  VAL792 
 PHE793  MET794  SER795  GLU796  ALA797  LYS798  CYS799  TRP800  GLU811  SER814 

> <Gold.Protein.RotatedAtoms>
  151.9656  133.3709  159.4051 H   0  0  0  0  0  0  0  0  0  0  0  0  # atno 6907 bound_to 6896
  150.6957  134.4194  159.5207 H   0  0  0  0  0  0  0  0  0  0  0  0  # atno 6908 bound_to 6896
  152.1890  134.8688  160.0570 H   0  0  0  0  0  0  0  0  0  0  0  0  # atno 6909 bound_to 6896
  145.6034  140.9403  143.1228 H   0  0  0  0  0  0  0  0  0  0  0  0  # atno 7974 bound_to 7965
  155.2826  140.0445  157.3016 H   0  0  0  0  0  0  0  0  0  0  0  0  # atno 8008 bound_to 7997
  154.5588  140.2340  155.8336 H   0  0  0  0  0  0  0  0  0  0  0  0  # atno 8009 bound_to 7997
  156.2030  140.3020  155.9573 H   0  0  0  0  0  0  0  0  0  0  0  0  # atno 8010 bound_to 7997
  140.7086  143.3263  151.2673 H   0  0  0  0  0  0  0  0  0  0  0  0  # atno 10167 bound_to 10162
  157.6905  131.0151  150.2738 H   0  0  0  0  0  0  0  0  0  0  0  0  # atno 10718 bound_to 10713
  153.0609  135.5013  154.8091 H   0  0  0  0  0  0  0  0  0  0  0  0  # atno 10763 bound_to 10752
  154.6881  135.2979  154.9521 H   0  0  0  0  0  0  0  0  0  0  0  0  # atno 10764 bound_to 10752
  154.0285  135.6732  153.4831 H   0  0  0  0  0  0  0  0  0  0  0  0  # atno 10765 bound_to 10752
  139.9189  134.9635  156.7821 H   0  0  0  0  0  0  0  0  0  0  0  0  # atno 11005 bound_to 11000
  144.7300  139.7755  143.7351 LP  0  0  0  0  0  0  0  0  0  0  0  0  # atno 17320 bound_to 7965
  146.1559  139.4656  143.0019 LP  0  0  0  0  0  0  0  0  0  0  0  0  # atno 17321 bound_to 7965
  139.6732  143.9984  152.2765 LP  0  0  0  0  0  0  0  0  0  0  0  0  # atno 17342 bound_to 10162
  139.9589  144.6571  150.8098 LP  0  0  0  0  0  0  0  0  0  0  0  0  # atno 17343 bound_to 10162
  156.3296  130.3798  149.7503 LP  0  0  0  0  0  0  0  0  0  0  0  0  # atno 17370 bound_to 10713
  156.5047  130.8144  151.3146 LP  0  0  0  0  0  0  0  0  0  0  0  0  # atno 17371 bound_to 10713
  140.6535  133.9710  155.7767 LP  0  0  0  0  0  0  0  0  0  0  0  0  # atno 17394 bound_to 11000
  141.0692  134.0231  157.3551 LP  0  0  0  0  0  0  0  0  0  0  0  0  # atno 17395 bound_to 11000

$$$$
