AV-unprocessed.smi:2603|AV-procd|sdf|10186|dock2
  -GOLD-   2272014203D 1   1.00000     0.00000
 Structure written by MMmdl.
 35 36  0  0  0  0  0  0  0  0  1 V2000
  153.7508  141.0025  160.0432 C   0  0  0  0  0  0  0  0  0  0  0  0
  153.3438  142.4071  159.5920 C   0  0  0  0  0  0  0  0  0  0  0  0
  152.1513  142.7774  160.2603 O   0  0  0  0  0  0  0  0  0  0  0  0
  151.9299  144.1785  160.2266 C   0  0  1  0  0  0  0  0  0  0  0  0
  152.1222  144.7915  158.8676 C   0  0  0  0  0  0  0  0  0  0  0  0
  150.7196  144.5789  159.4098 C   0  0  1  0  0  0  0  0  0  0  0  0
  149.9336  143.5397  158.8289 N   0  0  0  0  0  0  0  0  0  0  0  0
  150.1628  142.9474  157.6485 C   0  0  0  0  0  0  0  0  0  0  0  0
  151.1281  143.2052  156.9296 O   0  0  0  0  0  0  0  0  0  0  0  0
  149.1306  141.9118  157.2029 C   0  0  0  0  0  0  0  0  0  0  0  0
  149.4186  141.4922  155.7837 C   0  0  0  0  0  0  0  0  0  0  0  0
  148.5856  141.6245  154.6339 C   0  0  0  0  0  0  0  0  0  0  0  0
  147.2077  142.2120  154.5246 C   0  0  0  0  0  0  0  0  0  0  0  0
  149.1667  141.1469  153.5465 N   0  0  0  0  0  0  0  0  0  0  0  0
  150.4208  140.6823  153.9534 O   0  0  0  0  0  0  0  0  0  0  0  0
  150.5478  140.9013  155.2865 C   0  0  0  0  0  0  0  0  0  0  0  0
  151.8325  140.4756  155.9126 C   0  0  0  0  0  0  0  0  0  0  0  0
  154.6678  140.6847  159.5469 H   0  0  0  0  0  0  0  0  0  0  0  0
  152.9738  140.2748  159.8081 H   0  0  0  0  0  0  0  0  0  0  0  0
  153.9250  140.9716  161.1191 H   0  0  0  0  0  0  0  0  0  0  0  0
  154.1386  143.1183  159.8217 H   0  0  0  0  0  0  0  0  0  0  0  0
  153.1888  142.4214  158.5121 H   0  0  0  0  0  0  0  0  0  0  0  0
  152.1723  144.7300  161.1335 H   0  0  0  0  0  0  0  0  0  0  0  0
  152.4934  145.8135  158.8269 H   0  0  0  0  0  0  0  0  0  0  0  0
  152.4629  144.1414  158.0635 H   0  0  0  0  0  0  0  0  0  0  0  0
  150.1956  145.4737  159.7429 H   0  0  0  0  0  0  0  0  0  0  0  0
  149.1090  143.2622  159.3414 H   0  0  0  0  0  0  0  0  0  0  0  0
  149.1653  141.0602  157.8832 H   0  0  0  0  0  0  0  0  0  0  0  0
  148.1296  142.3334  157.3019 H   0  0  0  0  0  0  0  0  0  0  0  0
  146.9101  142.7161  155.4433 H   0  0  0  0  0  0  0  0  0  0  0  0
  146.4680  141.4387  154.3174 H   0  0  0  0  0  0  0  0  0  0  0  0
  147.1577  142.9448  153.7192 H   0  0  0  0  0  0  0  0  0  0  0  0
  152.0120  141.0163  156.8419 H   0  0  0  0  0  0  0  0  0  0  0  0
  152.6728  140.6683  155.2456 H   0  0  0  0  0  0  0  0  0  0  0  0
  151.8157  139.4098  156.1392 H   0  0  0  0  0  0  0  0  0  0  0  0
  1  2  1  0  0  0  0
  1 18  1  0  0  0  0
  1 19  1  0  0  0  0
  1 20  1  0  0  0  0
  2  3  1  0  0  0  0
  2 21  1  0  0  0  0
  2 22  1  0  0  0  0
  3  4  1  0  0  0  0
  4  6  1  0  0  0  0
  4  5  1  0  0  0  0
  4 23  1  0  0  0  0
  5  6  1  0  0  0  0
  5 24  1  0  0  0  0
  5 25  1  0  0  0  0
  6  7  1  0  0  0  0
  6 26  1  0  0  0  0
  7  8  1  0  0  0  0
  7 27  1  0  0  0  0
  8  9  2  0  0  0  0
  8 10  1  0  0  0  0
 10 11  1  0  0  0  0
 10 28  1  0  0  0  0
 10 29  1  0  0  0  0
 11 16  2  0  0  0  0
 11 12  1  0  0  0  0
 12 13  1  0  0  0  0
 12 14  2  0  0  0  0
 13 30  1  0  0  0  0
 13 31  1  0  0  0  0
 13 32  1  0  0  0  0
 14 15  1  0  0  0  0
 15 16  1  0  0  0  0
 16 17  1  0  0  0  0
 17 33  1  0  0  0  0
 17 34  1  0  0  0  0
 17 35  1  0  0  0  0
M  END
> <s_m_source_file>
AV-unprocessed.smi

> <i_m_source_file_index>
2603

> <i_lp_mmshare_version>
43012

> <i_f3d_flags>
0

> <s_epik_input>
W0NIM11bQ0gyXU9bQ0BASF0xW0NIMl1bQ0BIXTFbTkhdQyg9TylbQ0gyXWMyYyhbQ0gzXSlub2MyW0NIM10=

> <s_epik_cmdline>
J2VwaWtfcHl0aG9uJywgJy1waCcsICc3LjAnLCAnLXRuJywgJzgnLCAnLW1hJywgJzIwMCcsICctbWV0YWxfYmluZGluZycsICctaW1hZScsICc8aW5maWxlLm1hZT4nLCAnLW9tYWUnLCAnPG91dGZpbGUubWFlPic=

> <r_lp_tautomer_probability>
1

> <r_epik_Ionization_Penalty>
2.37325e-08

> <r_epik_Ionization_Penalty_Charging>
0

> <r_epik_Ionization_Penalty_Neutral>
2.37325e-08

> <r_epik_State_Penalty>
-0

> <r_epik_Charging_Adjusted_Penalty>
0

> <i_epik_Tot_Q>
0

> <i_epik_Tot_abs_Q>
0

> <r_epik_Metal_State_Penalty>
-0

> <b_epik_Metal_Only>
0

> <s_lp_Force_Field>
OPLS_2005

> <r_lp_Energy>
11.0439

> <b_lp_Chiralities_Consistent>
1

> <s_lp_Variant>
AV-unprocessed.smi:2603-2

> <Gold.Version>
5.8.1

> <Gold.Id.Protein>
6NUR|6NUR_protein|mol2

> <Gold.PLP.Fitness>
37.0153

> <Gold.PLP.PLP>
-34.9094

> <Gold.PLP.part.hbond>
-2.7195

> <Gold.PLP.part.metal>
0.0000

> <Gold.PLP.part.buried>
-2.9125

> <Gold.PLP.part.nonpolar>
-31.7504

> <Gold.PLP.part.repulsive>
2.4917

> <Gold.PLP.ligand.clash>
1.9958

> <Gold.PLP.ligand.torsion>
0.8424

> <Gold.PLP.Chemscore.Hbond>
1.7013

> <Gold.PLP.Chemscore.CHOScore>
0.0000

> <Gold.PLP.Chemscore.Metal>
0.0000

> <Gold.Chemscore.Hbonds>
donor molecule, donor type, donor heavy atom, donor atom, acceptor molecule, acceptor atom, score
      P1  H  7989  7998       L1    15  0.29
      P1  H  8011  8017       L1    14  0.85

> <Gold.PLP.Chemscore.Internal.Correction>
0.6826

> <Gold.Rescore>
     Score         DG    S(hbond)    S(metal)    S(lipo)     H(rot)  DE(clash)    DE(int)     intcor
     10.23     -15.09       1.08        0.00      88.33       1.69       1.43       3.43       ----

> <Gold.Chemscore.Fitness>
10.2339

> <Gold.Chemscore.DG>
-15.0933

> <Gold.Chemscore.ZeroCoef>
-5.4800

> <Gold.Chemscore.Hbond>
1.0821

> <Gold.Chemscore.Metal>
0.0000

> <Gold.Chemscore.Lipo>
88.3251

> <Gold.Chemscore.Internal_Hbond>
0.0000

> <Gold.Chemscore.DEClash>
1.4254

> <Gold.Chemscore.DEInternal>
3.4340

> <Gold.Chemscore.Rot>
1.6933

> <Gold.Chemscore.Internal.Correction>
   9.000000E+99

> <Gold.Chemscore.Hbonds>
donor molecule, donor type, donor heavy atom, donor atom, acceptor molecule, acceptor atom, score
      P1  H  7989  7998       L1    15  0.14
      P1  H  8011  8017       L1    14  0.13

> <Gold.Chemscore.Hbond.Weighted>
-3.6141

> <Gold.Chemscore.Metal.Weighted>
-0.0000

> <Gold.Chemscore.Lipo.Weighted>
-10.3340

> <Gold.Chemscore.Internal_Hbond.Weighted>
0.0000

> <Gold.Chemscore.DEClash.Weighted>
1.4254

> <Gold.Chemscore.DEInternal.Weighted>
3.4340

> <Gold.Chemscore.Rot.Weighted>
4.3348

> <Gold.Chemscore.Internal.Correction.Weighted>
   9.000000E+99

> <Gold.Protein.RotatedTorsions>
[ 6907 6896 6895 6894 ] final -120.11 input  -60.11 | X-H torsion
[ 7974 7965 7964 7962 ] final  -42.96 input  175.53 | X-H torsion
[ 8008 7997 7996 7995 ] final  -51.31 input   59.86 | X-H torsion
[ 10167 10162 10161 10158 ] final  178.80 input  -65.29 | X-H torsion
[ 10718 10713 10712 10709 ] final  177.91 input   66.30 | X-H torsion
[ 10763 10752 10751 10750 ] final  111.98 input  -60.55 | X-H torsion
[ 11005 11000 10999 10996 ] final  111.24 input  -57.11 | X-H torsion

> <Gold.Protein.ActiveResidues>
 VAL166  LYS551  ARG553  GLY616  TRP617  ASP618  TYR619  PRO620  LYS621  CYS622 
 ASP623  PHE694  ASN695  SER759  ASP760  ASP761  ALA762  ILE779  LEU786  VAL792 
 PHE793  MET794  SER795  GLU796  ALA797  LYS798  CYS799  TRP800  GLU811  SER814 

> <Gold.Protein.RotatedAtoms>
  150.8364  133.8007  159.3077 H   0  0  0  0  0  0  0  0  0  0  0  0  # atno 6907 bound_to 6896
  151.5722  135.1060  160.0007 H   0  0  0  0  0  0  0  0  0  0  0  0  # atno 6908 bound_to 6896
  152.4435  133.7451  159.6719 H   0  0  0  0  0  0  0  0  0  0  0  0  # atno 6909 bound_to 6896
  146.0065  140.7013  142.9245 H   0  0  0  0  0  0  0  0  0  0  0  0  # atno 7974 bound_to 7965
  154.4080  140.1251  156.4808 H   0  0  0  0  0  0  0  0  0  0  0  0  # atno 8008 bound_to 7997
  155.7086  140.3494  155.4944 H   0  0  0  0  0  0  0  0  0  0  0  0  # atno 8009 bound_to 7997
  155.9320  140.1071  157.1114 H   0  0  0  0  0  0  0  0  0  0  0  0  # atno 8010 bound_to 7997
  139.5309  144.2637  152.0686 H   0  0  0  0  0  0  0  0  0  0  0  0  # atno 10167 bound_to 10162
  156.8984  130.9871  151.3039 H   0  0  0  0  0  0  0  0  0  0  0  0  # atno 10718 bound_to 10713
  153.4712  135.3700  155.2392 H   0  0  0  0  0  0  0  0  0  0  0  0  # atno 10763 bound_to 10752
  154.8757  135.3932  154.3810 H   0  0  0  0  0  0  0  0  0  0  0  0  # atno 10764 bound_to 10752
  153.4399  135.7084  153.6241 H   0  0  0  0  0  0  0  0  0  0  0  0  # atno 10765 bound_to 10752
  139.8899  134.9503  156.6401 H   0  0  0  0  0  0  0  0  0  0  0  0  # atno 11005 bound_to 11000
  144.6938  140.3325  143.7213 LP  0  0  0  0  0  0  0  0  0  0  0  0  # atno 17320 bound_to 7965
  145.7407  139.1763  143.2377 LP  0  0  0  0  0  0  0  0  0  0  0  0  # atno 17321 bound_to 7965
  140.2100  144.4572  150.6390 LP  0  0  0  0  0  0  0  0  0  0  0  0  # atno 17342 bound_to 10162
  140.6486  143.2219  151.6128 LP  0  0  0  0  0  0  0  0  0  0  0  0  # atno 17343 bound_to 10162
  157.6041  130.8534  149.8847 LP  0  0  0  0  0  0  0  0  0  0  0  0  # atno 17370 bound_to 10713
  156.0594  130.3702  150.1017 LP  0  0  0  0  0  0  0  0  0  0  0  0  # atno 17371 bound_to 10713
  140.7600  133.8826  155.8411 LP  0  0  0  0  0  0  0  0  0  0  0  0  # atno 17394 bound_to 11000
  140.9930  134.1253  157.4390 LP  0  0  0  0  0  0  0  0  0  0  0  0  # atno 17395 bound_to 11000

$$$$
