AV-unprocessed.smi:203|AV-procd|sdf|1582|dock5
  -GOLD-   2262019473D 1   1.00000     0.00000
 Structure written by MMmdl.
 57 61  0  0  0  0  0  0  0  0  1 V2000
  144.9464  135.6836  156.8537 O   0  0  0  0  0  0  0  0  0  0  0  0
  145.8013  135.7057  155.9715 C   0  0  0  0  0  0  0  0  0  0  0  0
  147.1923  136.2838  156.1660 C   0  0  0  0  0  0  0  0  0  0  0  0
  147.9416  135.8667  154.8837 C   0  0  1  0  0  0  0  0  0  0  0  0
  149.0590  134.7981  155.1046 C   0  0  2  0  0  0  0  0  0  0  0  0
  148.5077  133.4571  155.6580 C   0  0  0  0  0  0  0  0  0  0  0  0
  149.6237  132.4238  155.8593 C   0  0  0  0  0  0  0  0  0  0  0  0
  150.7110  133.0028  156.7705 C   0  0  0  0  0  0  0  0  0  0  0  0
  151.2398  134.3241  156.1975 C   0  0  0  0  0  0  0  0  0  0  0  0
  150.1548  135.2776  155.9661 N   0  0  0  0  0  0  0  0  0  0  0  0
  150.6607  136.4969  155.6757 C   0  0  0  0  0  0  0  0  0  0  0  0
  151.1788  136.6727  154.4355 N   0  0  0  0  0  0  0  0  0  0  0  0
  151.6951  137.8562  154.0906 C   0  0  0  0  0  0  0  0  0  0  0  0
  151.7841  138.9727  154.8172 N   0  0  0  0  0  0  0  0  0  0  0  0
  151.2541  138.7989  156.0620 C   0  0  0  0  0  0  0  0  0  0  0  0
  150.6787  137.6021  156.5724 C   0  0  0  0  0  0  0  0  0  0  0  0
  150.2502  137.8001  157.8793 N   0  0  0  0  0  0  0  0  0  0  0  0
  150.5517  139.0452  158.1264 C   0  0  0  0  0  0  0  0  0  0  0  0
  151.1402  139.7252  157.0839 N   0  0  0  0  0  0  0  0  0  0  0  0
  151.5618  141.1153  157.0799 C   0  0  0  0  0  0  0  0  0  0  0  0
  150.4036  142.1131  157.3140 C   0  0  2  0  0  0  0  0  0  0  0  0
  149.9565  142.5838  156.0594 O   0  0  0  0  0  0  0  0  0  0  0  0
  150.6946  143.3287  158.2264 C   0  0  2  0  0  0  0  0  0  0  0  0
  151.7554  144.3183  157.7384 C   0  0  0  0  0  0  0  0  0  0  0  0
  152.1396  145.0007  159.0321 C   0  0  0  0  0  0  0  0  0  0  0  0
  152.0854  143.8471  160.0315 C   0  0  0  0  0  0  0  0  0  0  0  0
  151.1145  142.9322  159.5294 O   0  0  0  0  0  0  0  0  0  0  0  0
  146.8364  135.4026  153.9107 C   0  0  0  0  0  0  0  0  0  0  0  0
  145.6530  135.2412  154.7325 N   0  0  0  0  0  0  0  0  0  0  0  0
  147.1219  137.3692  156.2433 H   0  0  0  0  0  0  0  0  0  0  0  0
  147.6551  135.9106  157.0798 H   0  0  0  0  0  0  0  0  0  0  0  0
  148.3868  136.7571  154.4394 H   0  0  0  0  0  0  0  0  0  0  0  0
  149.4956  134.5809  154.1293 H   0  0  0  0  0  0  0  0  0  0  0  0
  148.0067  133.6191  156.6125 H   0  0  0  0  0  0  0  0  0  0  0  0
  147.7577  133.0378  154.9885 H   0  0  0  0  0  0  0  0  0  0  0  0
  149.2174  131.5093  156.2920 H   0  0  0  0  0  0  0  0  0  0  0  0
  150.0543  132.1512  154.8950 H   0  0  0  0  0  0  0  0  0  0  0  0
  150.3051  133.1717  157.7688 H   0  0  0  0  0  0  0  0  0  0  0  0
  151.5277  132.2891  156.8813 H   0  0  0  0  0  0  0  0  0  0  0  0
  151.9711  134.7509  156.8856 H   0  0  0  0  0  0  0  0  0  0  0  0
  151.7615  134.1340  155.2583 H   0  0  0  0  0  0  0  0  0  0  0  0
  152.0915  137.9182  153.0878 H   0  0  0  0  0  0  0  0  0  0  0  0
  150.3375  139.5075  159.0790 H   0  0  0  0  0  0  0  0  0  0  0  0
  152.3338  141.2427  157.8398 H   0  0  0  0  0  0  0  0  0  0  0  0
  152.0415  141.3193  156.1218 H   0  0  0  0  0  0  0  0  0  0  0  0
  149.5649  141.5692  157.7488 H   0  0  0  0  0  0  0  0  0  0  0  0
  149.7315  143.4973  156.1447 H   0  0  0  0  0  0  0  0  0  0  0  0
  149.7642  143.8790  158.3791 H   0  0  0  0  0  0  0  0  0  0  0  0
  152.6243  143.8086  157.3241 H   0  0  0  0  0  0  0  0  0  0  0  0
  151.3759  145.0108  156.9869 H   0  0  0  0  0  0  0  0  0  0  0  0
  153.1165  145.4830  158.9911 H   0  0  0  0  0  0  0  0  0  0  0  0
  151.3958  145.7558  159.2905 H   0  0  0  0  0  0  0  0  0  0  0  0
  153.0480  143.3374  160.0800 H   0  0  0  0  0  0  0  0  0  0  0  0
  151.8314  144.1825  161.0372 H   0  0  0  0  0  0  0  0  0  0  0  0
  146.6366  136.1666  153.1581 H   0  0  0  0  0  0  0  0  0  0  0  0
  147.0836  134.4811  153.3832 H   0  0  0  0  0  0  0  0  0  0  0  0
  144.8054  134.8147  154.3870 H   0  0  0  0  0  0  0  0  0  0  0  0
  1  2  2  0  0  0  0
  2 29  1  0  0  0  0
  2  3  1  0  0  0  0
  3  4  1  0  0  0  0
  3 30  1  0  0  0  0
  3 31  1  0  0  0  0
  4  5  1  0  0  0  0
  4 28  1  0  0  0  0
  4 32  1  0  0  0  0
  5 10  1  0  0  0  0
  5  6  1  0  0  0  0
  5 33  1  0  0  0  0
  6  7  1  0  0  0  0
  6 34  1  0  0  0  0
  6 35  1  0  0  0  0
  7  8  1  0  0  0  0
  7 36  1  0  0  0  0
  7 37  1  0  0  0  0
  8  9  1  0  0  0  0
  8 38  1  0  0  0  0
  8 39  1  0  0  0  0
  9 10  1  0  0  0  0
  9 40  1  0  0  0  0
  9 41  1  0  0  0  0
 10 11  1  0  0  0  0
 11 16  1  0  0  0  0
 11 12  2  0  0  0  0
 12 13  1  0  0  0  0
 13 14  2  0  0  0  0
 13 42  1  0  0  0  0
 14 15  1  0  0  0  0
 15 19  1  0  0  0  0
 15 16  2  0  0  0  0
 16 17  1  0  0  0  0
 17 18  2  0  0  0  0
 18 19  1  0  0  0  0
 18 43  1  0  0  0  0
 19 20  1  0  0  0  0
 20 21  1  0  0  0  0
 20 44  1  0  0  0  0
 20 45  1  0  0  0  0
 21 22  1  0  0  0  0
 21 23  1  0  0  0  0
 21 46  1  0  0  0  0
 22 47  1  0  0  0  0
 23 27  1  0  0  0  0
 23 24  1  0  0  0  0
 23 48  1  0  0  0  0
 24 25  1  0  0  0  0
 24 49  1  0  0  0  0
 24 50  1  0  0  0  0
 25 26  1  0  0  0  0
 25 51  1  0  0  0  0
 25 52  1  0  0  0  0
 26 27  1  0  0  0  0
 26 53  1  0  0  0  0
 26 54  1  0  0  0  0
 28 29  1  0  0  0  0
 28 55  1  0  0  0  0
 28 56  1  0  0  0  0
 29 57  1  0  0  0  0
M  END
> <s_m_source_file>
AV-unprocessed.smi

> <i_m_source_file_index>
203

> <i_lp_mmshare_version>
43012

> <i_f3d_flags>
0

> <s_epik_input>
Tz1DMVtDSDJdW0NASF0oW0NIMl1bTkhdMSlbQ0BASF0yW0NIMl1bQ0gyXVtDSDJdW0NIMl1OMmMobltjSF1uMyljKGMzNCluW2NIXW40W0NIMl1bQ0BIXShbT0hdKVtDQEBIXTVbQ0gyXVtDSDJdW0NIMl1PNQ==

> <s_epik_cmdline>
J2VwaWtfcHl0aG9uJywgJy1waCcsICc3LjAnLCAnLXRuJywgJzgnLCAnLW1hJywgJzIwMCcsICctbWV0YWxfYmluZGluZycsICctaW1hZScsICc8aW5maWxlLm1hZT4nLCAnLW9tYWUnLCAnPG91dGZpbGUubWFlPic=

> <r_lp_tautomer_probability>
1

> <r_epik_Ionization_Penalty>
0.00175146

> <r_epik_Ionization_Penalty_Charging>
0

> <r_epik_Ionization_Penalty_Neutral>
0.00175146

> <r_epik_State_Penalty>
0.00109045

> <r_epik_Charging_Adjusted_Penalty>
0.00109045

> <i_epik_Tot_Q>
0

> <i_epik_Tot_abs_Q>
0

> <r_epik_Metal_State_Penalty>
-0

> <b_epik_Metal_Only>
0

> <s_lp_Force_Field>
OPLS_2005

> <r_lp_Energy>
56.5802

> <b_lp_Chiralities_Consistent>
1

> <s_lp_Variant>
AV-unprocessed.smi:203-1

> <Gold.Version>
5.8.1

> <Gold.Id.Protein>
6NUR|6NUR_protein|mol2

> <Gold.PLP.Fitness>
44.7211

> <Gold.PLP.PLP>
-37.2379

> <Gold.PLP.part.hbond>
-2.0572

> <Gold.PLP.part.metal>
0.0000

> <Gold.PLP.part.buried>
-5.5985

> <Gold.PLP.part.nonpolar>
-29.4499

> <Gold.PLP.part.repulsive>
0.9550

> <Gold.PLP.ligand.clash>
0.0000

> <Gold.PLP.ligand.torsion>
0.7424

> <Gold.PLP.Chemscore.Hbond>
2.3562

> <Gold.PLP.Chemscore.CHOScore>
0.5360

> <Gold.PLP.Chemscore.Metal>
0.0000

> <Gold.Chemscore.Hbonds>
donor molecule, donor type, donor heavy atom, donor atom, acceptor molecule, acceptor atom, score
      L1  H    22    47       P1  8028  0.99
      P1  H  7989  7998       L1    14  0.32
      P1  H 10752 10765       L1    12  0.85
      L1  C    13    42       P1  7949  0.45

> <Gold.PLP.Chemscore.Internal.Correction>
0.2915

> <Gold.Rescore>
     Score         DG    S(hbond)    S(metal)    S(lipo)     H(rot)  DE(clash)    DE(int)     intcor
     12.90     -14.53       1.54        0.00      92.77       2.72       0.83       0.80       ----

> <Gold.Chemscore.Fitness>
12.8996

> <Gold.Chemscore.DG>
-14.5306

> <Gold.Chemscore.ZeroCoef>
-5.4800

> <Gold.Chemscore.Hbond>
1.5427

> <Gold.Chemscore.Metal>
0.0000

> <Gold.Chemscore.Lipo>
92.7664

> <Gold.Chemscore.Internal_Hbond>
0.0000

> <Gold.Chemscore.DEClash>
0.8293

> <Gold.Chemscore.DEInternal>
0.8017

> <Gold.Chemscore.Rot>
2.7171

> <Gold.Chemscore.Internal.Correction>
   9.000000E+99

> <Gold.Chemscore.Hbonds>
donor molecule, donor type, donor heavy atom, donor atom, acceptor molecule, acceptor atom, score
      L1  H    22    47       P1  8028  0.91
      P1  H  7989  7998       L1    14  0.25
      P1  H 10752 10765       L1    12  0.08

> <Gold.Chemscore.Hbond.Weighted>
-5.1526

> <Gold.Chemscore.Metal.Weighted>
-0.0000

> <Gold.Chemscore.Lipo.Weighted>
-10.8537

> <Gold.Chemscore.Internal_Hbond.Weighted>
0.0000

> <Gold.Chemscore.DEClash.Weighted>
0.8293

> <Gold.Chemscore.DEInternal.Weighted>
0.8017

> <Gold.Chemscore.Rot.Weighted>
6.9557

> <Gold.Chemscore.Internal.Correction.Weighted>
   9.000000E+99

> <Gold.Protein.RotatedTorsions>
[ 6907 6896 6895 6894 ] final  159.18 input  -60.11 | X-H torsion
[ 7974 7965 7964 7962 ] final  -61.63 input  175.53 | X-H torsion
[ 8008 7997 7996 7995 ] final  -28.13 input   59.86 | X-H torsion
[ 10167 10162 10161 10158 ] final  169.08 input  -65.29 | X-H torsion
[ 10718 10713 10712 10709 ] final  130.50 input   66.30 | X-H torsion
[ 10763 10752 10751 10750 ] final  168.36 input  -60.55 | X-H torsion
[ 11005 11000 10999 10996 ] final  -81.96 input  -57.11 | X-H torsion

> <Gold.Protein.ActiveResidues>
 VAL166  LYS551  ARG553  GLY616  TRP617  ASP618  TYR619  PRO620  LYS621  CYS622 
 ASP623  PHE694  ASN695  SER759  ASP760  ASP761  ALA762  ILE779  LEU786  VAL792 
 PHE793  MET794  SER795  GLU796  ALA797  LYS798  CYS799  TRP800  GLU811  SER814 

> <Gold.Protein.RotatedAtoms>
  151.9894  133.3785  159.4138 H   0  0  0  0  0  0  0  0  0  0  0  0  # atno 6907 bound_to 6896
  150.6924  134.3953  159.5104 H   0  0  0  0  0  0  0  0  0  0  0  0  # atno 6908 bound_to 6896
  152.1684  134.8854  160.0587 H   0  0  0  0  0  0  0  0  0  0  0  0  # atno 6909 bound_to 6896
  145.8011  140.8654  143.0231 H   0  0  0  0  0  0  0  0  0  0  0  0  # atno 7974 bound_to 7965
  154.4346  140.1853  156.1042 H   0  0  0  0  0  0  0  0  0  0  0  0  # atno 8008 bound_to 7997
  156.0268  140.3335  155.7072 H   0  0  0  0  0  0  0  0  0  0  0  0  # atno 8009 bound_to 7997
  155.5896  140.0629  157.2753 H   0  0  0  0  0  0  0  0  0  0  0  0  # atno 8010 bound_to 7997
  139.4983  144.3745  151.9689 H   0  0  0  0  0  0  0  0  0  0  0  0  # atno 10167 bound_to 10162
  157.5056  131.1095  150.9366 H   0  0  0  0  0  0  0  0  0  0  0  0  # atno 10718 bound_to 10713
  154.3674  135.2753  155.2286 H   0  0  0  0  0  0  0  0  0  0  0  0  # atno 10763 bound_to 10752
  154.4448  135.5945  153.6156 H   0  0  0  0  0  0  0  0  0  0  0  0  # atno 10764 bound_to 10752
  152.9840  135.6027  154.3901 H   0  0  0  0  0  0  0  0  0  0  0  0  # atno 10765 bound_to 10752
  141.1665  133.7221  156.8500 H   0  0  0  0  0  0  0  0  0  0  0  0  # atno 11005 bound_to 11000
  144.6768  140.0260  143.7483 LP  0  0  0  0  0  0  0  0  0  0  0  0  # atno 17320 bound_to 7965
  145.9877  139.2990  143.1004 LP  0  0  0  0  0  0  0  0  0  0  0  0  # atno 17321 bound_to 7965
  140.3181  144.3459  150.6016 LP  0  0  0  0  0  0  0  0  0  0  0  0  # atno 17342 bound_to 10162
  140.5744  143.2178  151.7541 LP  0  0  0  0  0  0  0  0  0  0  0  0  # atno 17343 bound_to 10162
  157.0023  130.5604  149.5312 LP  0  0  0  0  0  0  0  0  0  0  0  0  # atno 17370 bound_to 10713
  156.0256  130.5350  150.8397 LP  0  0  0  0  0  0  0  0  0  0  0  0  # atno 17371 bound_to 10713
  140.1922  134.8957  157.3073 LP  0  0  0  0  0  0  0  0  0  0  0  0  # atno 17394 bound_to 11000
  140.2278  134.3946  155.7536 LP  0  0  0  0  0  0  0  0  0  0  0  0  # atno 17395 bound_to 11000

$$$$
