AV-unprocessed.smi:268|AV-procd|sdf|2041|dock9
  -GOLD-   2262021263D 1   1.00000     0.00000
 Structure written by MMmdl.
 50 53  0  0  0  0  0  0  0  0  1 V2000
  150.4708  141.6143  156.1399 C   0  0  0  0  0  0  0  0  0  0  0  0
  149.4558  140.8319  155.2961 C   0  0  0  0  0  0  0  0  0  0  0  0
  149.8922  140.6420  153.9567 O   0  0  0  0  0  0  0  0  0  0  0  0
  148.9008  140.1303  153.0774 C   0  0  2  0  0  0  0  0  0  0  0  0
  147.4785  140.6435  153.3459 C   0  0  0  0  0  0  0  0  0  0  0  0
  146.9916  139.2006  153.1249 C   0  0  2  0  0  0  0  0  0  0  0  0
  145.9488  138.7682  154.0586 N   0  0  0  0  0  0  0  0  0  0  0  0
  146.2995  138.7132  155.4744 C   0  0  0  0  0  0  0  0  0  0  0  0
  145.1169  137.7638  153.6758 C   0  0  0  0  0  0  0  0  0  0  0  0
  144.0520  137.4269  154.4527 N   0  0  0  0  0  0  0  0  0  0  0  0
  143.2235  136.4484  154.0775 C   0  0  0  0  0  0  0  0  0  0  0  0
  143.2716  135.6892  152.9815 N   0  0  0  0  0  0  0  0  0  0  0  0
  144.3359  136.0219  152.1966 C   0  0  0  0  0  0  0  0  0  0  0  0
  145.2962  137.0381  152.4639 C   0  0  0  0  0  0  0  0  0  0  0  0
  146.2343  137.0811  151.4391 N   0  0  0  0  0  0  0  0  0  0  0  0
  145.8496  136.1464  150.6136 C   0  0  0  0  0  0  0  0  0  0  0  0
  144.7232  135.4530  150.9955 N   0  0  0  0  0  0  0  0  0  0  0  0
  144.0805  134.3645  150.2751 C   0  0  0  0  0  0  0  0  0  0  0  0
  144.4824  132.9642  150.7749 C   0  0  0  0  0  0  0  0  0  0  0  0
  143.2547  132.0348  150.6829 C   0  0  0  0  0  0  0  0  0  0  0  0
  142.7343  131.9529  149.3710 O   0  0  0  0  0  0  0  0  0  0  0  0
  145.7920  132.4212  150.1851 C   0  0  0  0  0  0  0  0  0  0  0  0
  146.3503  132.1744  151.4945 O   0  0  0  0  0  0  0  0  0  0  0  0
  145.2659  132.9166  152.0947 C   0  0  0  0  0  0  0  0  0  0  0  0
  148.4027  138.7526  153.5337 C   0  0  0  0  0  0  0  0  0  0  0  0
  150.0574  141.8448  157.1219 H   0  0  0  0  0  0  0  0  0  0  0  0
  150.7349  142.5569  155.6603 H   0  0  0  0  0  0  0  0  0  0  0  0
  151.3867  141.0468  156.2997 H   0  0  0  0  0  0  0  0  0  0  0  0
  149.2118  139.8768  155.7637 H   0  0  0  0  0  0  0  0  0  0  0  0
  148.5259  141.3993  155.2552 H   0  0  0  0  0  0  0  0  0  0  0  0
  149.1769  140.1322  152.0207 H   0  0  0  0  0  0  0  0  0  0  0  0
  147.3417  140.9996  154.3691 H   0  0  0  0  0  0  0  0  0  0  0  0
  147.1074  141.3620  152.6148 H   0  0  0  0  0  0  0  0  0  0  0  0
  146.7793  138.9872  152.0757 H   0  0  0  0  0  0  0  0  0  0  0  0
  145.6151  139.3332  156.0538 H   0  0  0  0  0  0  0  0  0  0  0  0
  147.3106  139.0833  155.6456 H   0  0  0  0  0  0  0  0  0  0  0  0
  146.2539  137.6948  155.8640 H   0  0  0  0  0  0  0  0  0  0  0  0
  142.4050  136.2450  154.7521 H   0  0  0  0  0  0  0  0  0  0  0  0
  146.3840  135.9352  149.6991 H   0  0  0  0  0  0  0  0  0  0  0  0
  143.0000  134.4968  150.3408 H   0  0  0  0  0  0  0  0  0  0  0  0
  144.3259  134.4789  149.2185 H   0  0  0  0  0  0  0  0  0  0  0  0
  143.5047  131.0196  150.9912 H   0  0  0  0  0  0  0  0  0  0  0  0
  142.4572  132.3791  151.3421 H   0  0  0  0  0  0  0  0  0  0  0  0
  142.0361  132.5838  149.2845 H   0  0  0  0  0  0  0  0  0  0  0  0
  145.6796  131.5096  149.5975 H   0  0  0  0  0  0  0  0  0  0  0  0
  146.3713  133.1636  149.6340 H   0  0  0  0  0  0  0  0  0  0  0  0
  145.5995  133.8917  152.4512 H   0  0  0  0  0  0  0  0  0  0  0  0
  144.7682  132.3626  152.8912 H   0  0  0  0  0  0  0  0  0  0  0  0
  148.7981  137.9138  152.9603 H   0  0  0  0  0  0  0  0  0  0  0  0
  148.5153  138.5948  154.6083 H   0  0  0  0  0  0  0  0  0  0  0  0
  1  2  1  0  0  0  0
  1 26  1  0  0  0  0
  1 27  1  0  0  0  0
  1 28  1  0  0  0  0
  2  3  1  0  0  0  0
  2 29  1  0  0  0  0
  2 30  1  0  0  0  0
  3  4  1  0  0  0  0
  4 25  1  0  0  0  0
  4  5  1  0  0  0  0
  4 31  1  0  0  0  0
  5  6  1  0  0  0  0
  5 32  1  0  0  0  0
  5 33  1  0  0  0  0
  6  7  1  0  0  0  0
  6 25  1  0  0  0  0
  6 34  1  0  0  0  0
  7  8  1  0  0  0  0
  7  9  1  0  0  0  0
  8 35  1  0  0  0  0
  8 36  1  0  0  0  0
  8 37  1  0  0  0  0
  9 14  1  0  0  0  0
  9 10  2  0  0  0  0
 10 11  1  0  0  0  0
 11 12  2  0  0  0  0
 11 38  1  0  0  0  0
 12 13  1  0  0  0  0
 13 17  1  0  0  0  0
 13 14  2  0  0  0  0
 14 15  1  0  0  0  0
 15 16  2  0  0  0  0
 16 17  1  0  0  0  0
 16 39  1  0  0  0  0
 17 18  1  0  0  0  0
 18 19  1  0  0  0  0
 18 40  1  0  0  0  0
 18 41  1  0  0  0  0
 19 24  1  0  0  0  0
 19 20  1  0  0  0  0
 19 22  1  0  0  0  0
 20 21  1  0  0  0  0
 20 42  1  0  0  0  0
 20 43  1  0  0  0  0
 21 44  1  0  0  0  0
 22 23  1  0  0  0  0
 22 45  1  0  0  0  0
 22 46  1  0  0  0  0
 23 24  1  0  0  0  0
 24 47  1  0  0  0  0
 24 48  1  0  0  0  0
 25 49  1  0  0  0  0
 25 50  1  0  0  0  0
M  END
> <s_m_source_file>
AV-unprocessed.smi

> <i_m_source_file_index>
268

> <i_lp_mmshare_version>
43012

> <i_f3d_flags>
0

> <s_epik_input>
W0NIM11bQ0gyXU9bQ0BASF0xW0NIMl1bQ0BIXShbQ0gyXTEpTihbQ0gzXSljKG5bY0hdbjIpYyhjMjMpbltjSF1uM1tDSDJdQzQoW0NIMl1bT0hdKVtDSDJdT1tDSDJdNA==

> <s_epik_cmdline>
J2VwaWtfcHl0aG9uJywgJy1waCcsICc3LjAnLCAnLXRuJywgJzgnLCAnLW1hJywgJzIwMCcsICctbWV0YWxfYmluZGluZycsICctaW1hZScsICc8aW5maWxlLm1hZT4nLCAnLW9tYWUnLCAnPG91dGZpbGUubWFlPic=

> <r_lp_tautomer_probability>
1

> <r_epik_Ionization_Penalty>
0.00205824

> <r_epik_Ionization_Penalty_Charging>
0

> <r_epik_Ionization_Penalty_Neutral>
0.00205824

> <r_epik_State_Penalty>
0.00125218

> <r_epik_Charging_Adjusted_Penalty>
0.00125218

> <i_epik_Tot_Q>
0

> <i_epik_Tot_abs_Q>
0

> <r_epik_Metal_State_Penalty>
-0

> <b_epik_Metal_Only>
0

> <s_lp_Force_Field>
OPLS_2005

> <r_lp_Energy>
41.5967

> <b_lp_Chiralities_Consistent>
1

> <s_lp_Variant>
AV-unprocessed.smi:268-2

> <Gold.Version>
5.8.1

> <Gold.Id.Protein>
6NUR|6NUR_protein|mol2

> <Gold.PLP.Fitness>
41.8398

> <Gold.PLP.PLP>
-34.7092

> <Gold.PLP.part.hbond>
-4.0000

> <Gold.PLP.part.metal>
0.0000

> <Gold.PLP.part.buried>
-1.9585

> <Gold.PLP.part.nonpolar>
-33.0788

> <Gold.PLP.part.repulsive>
2.4126

> <Gold.PLP.ligand.clash>
0.0000

> <Gold.PLP.ligand.torsion>
2.1399

> <Gold.PLP.Chemscore.Hbond>
2.4220

> <Gold.PLP.Chemscore.CHOScore>
0.9194

> <Gold.PLP.Chemscore.Metal>
0.0000

> <Gold.Chemscore.Hbonds>
donor molecule, donor type, donor heavy atom, donor atom, acceptor molecule, acceptor atom, score
      L1  H    21    44       P1 10186  0.81
      P1  H  7989  7998       L1     3  0.62
      P1  H 10785 10796       L1    21  1.00
      L1  C    16    39       P1  7921  1.00

> <Gold.PLP.Chemscore.Internal.Correction>
1.3860

> <Gold.Rescore>
     Score         DG    S(hbond)    S(metal)    S(lipo)     H(rot)  DE(clash)    DE(int)     intcor
      8.36     -14.44       2.37        0.00      78.02       3.15       2.74       3.34       ----

> <Gold.Chemscore.Fitness>
8.3632

> <Gold.Chemscore.DG>
-14.4432

> <Gold.Chemscore.ZeroCoef>
-5.4800

> <Gold.Chemscore.Hbond>
2.3683

> <Gold.Chemscore.Metal>
0.0000

> <Gold.Chemscore.Lipo>
78.0177

> <Gold.Chemscore.Internal_Hbond>
0.0000

> <Gold.Chemscore.DEClash>
2.7367

> <Gold.Chemscore.DEInternal>
3.3433

> <Gold.Chemscore.Rot>
3.1542

> <Gold.Chemscore.Internal.Correction>
   9.000000E+99

> <Gold.Chemscore.Hbonds>
donor molecule, donor type, donor heavy atom, donor atom, acceptor molecule, acceptor atom, score
      L1  H    21    44       P1 10186  0.80
      P1  H  7989  7998       L1     3  0.61
      P1  H 10785 10796       L1    21  0.54

> <Gold.Chemscore.Hbond.Weighted>
-7.9100

> <Gold.Chemscore.Metal.Weighted>
-0.0000

> <Gold.Chemscore.Lipo.Weighted>
-9.1281

> <Gold.Chemscore.Internal_Hbond.Weighted>
0.0000

> <Gold.Chemscore.DEClash.Weighted>
2.7367

> <Gold.Chemscore.DEInternal.Weighted>
3.3433

> <Gold.Chemscore.Rot.Weighted>
8.0748

> <Gold.Chemscore.Internal.Correction.Weighted>
   9.000000E+99

> <Gold.Protein.RotatedTorsions>
[ 6907 6896 6895 6894 ] final  132.47 input  -60.11 | X-H torsion
[ 7974 7965 7964 7962 ] final -179.59 input  175.53 | X-H torsion
[ 8008 7997 7996 7995 ] final -105.00 input   59.86 | X-H torsion
[ 10167 10162 10161 10158 ] final  101.98 input  -65.29 | X-H torsion
[ 10718 10713 10712 10709 ] final  -29.89 input   66.30 | X-H torsion
[ 10763 10752 10751 10750 ] final -155.71 input  -60.55 | X-H torsion
[ 11005 11000 10999 10996 ] final -134.25 input  -57.11 | X-H torsion

> <Gold.Protein.ActiveResidues>
 VAL166  LYS551  ARG553  GLY616  TRP617  ASP618  TYR619  PRO620  LYS621  CYS622 
 ASP623  PHE694  ASN695  SER759  ASP760  ASP761  ALA762  ILE779  LEU786  VAL792 
 PHE793  MET794  SER795  GLU796  ALA797  LYS798  CYS799  TRP800  GLU811  SER814 

> <Gold.Protein.RotatedAtoms>
  152.3320  133.5969  159.5816 H   0  0  0  0  0  0  0  0  0  0  0  0  # atno 6907 bound_to 6896
  150.7429  133.9853  159.3598 H   0  0  0  0  0  0  0  0  0  0  0  0  # atno 6908 bound_to 6896
  151.7727  135.0783  160.0413 H   0  0  0  0  0  0  0  0  0  0  0  0  # atno 6909 bound_to 6896
  144.7138  140.0694  143.6430 H   0  0  0  0  0  0  0  0  0  0  0  0  # atno 7974 bound_to 7965
  154.8935  140.0415  157.1852 H   0  0  0  0  0  0  0  0  0  0  0  0  # atno 8008 bound_to 7997
  154.8517  140.2930  155.5573 H   0  0  0  0  0  0  0  0  0  0  0  0  # atno 8009 bound_to 7997
  156.2996  140.2463  156.3476 H   0  0  0  0  0  0  0  0  0  0  0  0  # atno 8010 bound_to 7997
  139.7390  144.7016  151.0605 H   0  0  0  0  0  0  0  0  0  0  0  0  # atno 10167 bound_to 10162
  156.4067  130.4400  149.7282 H   0  0  0  0  0  0  0  0  0  0  0  0  # atno 10718 bound_to 10713
  154.7767  135.3162  154.8077 H   0  0  0  0  0  0  0  0  0  0  0  0  # atno 10763 bound_to 10752
  153.8798  135.6836  153.4772 H   0  0  0  0  0  0  0  0  0  0  0  0  # atno 10764 bound_to 10752
  153.1393  135.4746  154.9407 H   0  0  0  0  0  0  0  0  0  0  0  0  # atno 10765 bound_to 10752
  140.9007  134.1693  157.4462 H   0  0  0  0  0  0  0  0  0  0  0  0  # atno 11005 bound_to 11000
  145.9796  139.2931  143.1050 LP  0  0  0  0  0  0  0  0  0  0  0  0  # atno 17320 bound_to 7965
  145.9025  140.9233  143.0495 LP  0  0  0  0  0  0  0  0  0  0  0  0  # atno 17321 bound_to 7965
  140.7783  143.4948  150.9846 LP  0  0  0  0  0  0  0  0  0  0  0  0  # atno 17342 bound_to 10162
  139.8637  143.7282  152.3171 LP  0  0  0  0  0  0  0  0  0  0  0  0  # atno 17343 bound_to 10162
  156.4277  130.7800  151.2819 LP  0  0  0  0  0  0  0  0  0  0  0  0  # atno 17370 bound_to 10713
  157.7506  131.0163  150.3541 LP  0  0  0  0  0  0  0  0  0  0  0  0  # atno 17371 bound_to 10713
  139.8742  134.9897  156.5468 LP  0  0  0  0  0  0  0  0  0  0  0  0  # atno 17394 bound_to 11000
  140.8233  133.8336  155.8916 LP  0  0  0  0  0  0  0  0  0  0  0  0  # atno 17395 bound_to 11000

$$$$
