AV-unprocessed.smi:1017|AV-procd|sdf|4439|dock2
  -GOLD-   22720 2403D 1   1.00000     0.00000
 Structure written by MMmdl.
 43 44  0  0  0  0  0  0  0  0  2 V2000
  152.3110  144.2897  157.6584 C   0  0  0  0  0  0  0  0  0  0  0  0
  151.6956  143.1639  158.2643 O   0  0  0  0  0  0  0  0  0  0  0  0
  151.2550  142.1781  157.3407 C   0  0  0  0  0  0  0  0  0  0  0  0
  152.0092  140.8461  157.5193 C   0  0  0  0  0  0  0  0  0  0  0  0
  151.1893  139.7058  157.0982 N   0  0  0  0  0  0  0  0  0  0  0  0
  150.7525  138.9076  158.1417 N   0  0  0  0  0  0  0  0  0  0  0  0
  150.0136  137.8707  157.9096 C   0  0  0  0  0  0  0  0  0  0  0  0
  149.5419  137.0055  159.0373 C   0  0  0  0  0  0  0  0  0  0  0  0
  150.2804  136.9837  160.0292 O   0  0  0  0  0  0  0  0  0  0  0  0
  148.3656  136.3199  158.9001 N   0  5  0  0  0  0  0  0  0  0  0  0
  147.3957  135.9074  159.9402 C   0  0  0  0  0  0  0  0  0  0  0  0
  146.0116  136.4681  159.4831 C   0  0  0  0  0  0  0  0  0  0  0  0
  145.0307  136.1774  160.3353 F   0  0  0  0  0  0  0  0  0  0  0  0
  146.0622  137.7972  159.3670 F   0  0  0  0  0  0  0  0  0  0  0  0
  145.6732  135.9643  158.2939 F   0  0  0  0  0  0  0  0  0  0  0  0
  147.3673  134.3471  160.0544 C   0  0  0  0  0  0  0  0  0  0  0  0
  146.5998  133.7885  161.2796 C   0  0  0  0  0  0  0  0  0  0  0  0
  147.0931  134.3869  162.6112 C   0  0  0  0  0  0  0  0  0  0  0  0
  147.0462  135.9259  162.5472 C   0  0  0  0  0  0  0  0  0  0  0  0
  147.8151  136.4961  161.3282 C   0  0  0  0  0  0  0  0  0  0  0  0
  149.6306  137.5295  156.5445 C   0  0  0  0  0  0  0  0  0  0  0  0
  150.0640  138.3186  155.5375 C   0  0  0  0  0  0  0  0  0  0  0  0
  150.8982  139.4954  155.7799 C   0  0  0  0  0  0  0  0  0  0  0  0
  151.3003  140.2328  154.8798 O   0  0  0  0  0  0  0  0  0  0  0  0
  152.5709  145.0168  158.4277 H   0  0  0  0  0  0  0  0  0  0  0  0
  151.6371  144.7776  156.9530 H   0  0  0  0  0  0  0  0  0  0  0  0
  153.2291  144.0198  157.1369 H   0  0  0  0  0  0  0  0  0  0  0  0
  150.1936  142.0116  157.5273 H   0  0  0  0  0  0  0  0  0  0  0  0
  151.3325  142.5494  156.3177 H   0  0  0  0  0  0  0  0  0  0  0  0
  152.9474  140.8491  156.9634 H   0  0  0  0  0  0  0  0  0  0  0  0
  152.2937  140.7319  158.5670 H   0  0  0  0  0  0  0  0  0  0  0  0
  146.9575  133.9129  159.1420 H   0  0  0  0  0  0  0  0  0  0  0  0
  148.3815  133.9563  160.1276 H   0  0  0  0  0  0  0  0  0  0  0  0
  145.5273  133.9539  161.1748 H   0  0  0  0  0  0  0  0  0  0  0  0
  146.7203  132.7052  161.3098 H   0  0  0  0  0  0  0  0  0  0  0  0
  146.4879  134.0213  163.4411 H   0  0  0  0  0  0  0  0  0  0  0  0
  148.1167  134.0610  162.8003 H   0  0  0  0  0  0  0  0  0  0  0  0
  146.0100  136.2643  162.5463 H   0  0  0  0  0  0  0  0  0  0  0  0
  147.4787  136.3329  163.4616 H   0  0  0  0  0  0  0  0  0  0  0  0
  148.8698  136.3016  161.5174 H   0  0  0  0  0  0  0  0  0  0  0  0
  147.7212  137.5822  161.3171 H   0  0  0  0  0  0  0  0  0  0  0  0
  149.0158  136.6694  156.3241 H   0  0  0  0  0  0  0  0  0  0  0  0
  149.7862  138.0748  154.5228 H   0  0  0  0  0  0  0  0  0  0  0  0
  1  2  1  0  0  0  0
  1 25  1  0  0  0  0
  1 26  1  0  0  0  0
  1 27  1  0  0  0  0
  2  3  1  0  0  0  0
  3  4  1  0  0  0  0
  3 28  1  0  0  0  0
  3 29  1  0  0  0  0
  4  5  1  0  0  0  0
  4 30  1  0  0  0  0
  4 31  1  0  0  0  0
  5 23  1  0  0  0  0
  5  6  1  0  0  0  0
  6  7  2  0  0  0  0
  7  8  1  0  0  0  0
  7 21  1  0  0  0  0
  8  9  2  0  0  0  0
  8 10  1  0  0  0  0
 10 11  1  0  0  0  0
 11 20  1  0  0  0  0
 11 12  1  0  0  0  0
 11 16  1  0  0  0  0
 12 13  1  0  0  0  0
 12 14  1  0  0  0  0
 12 15  1  0  0  0  0
 16 17  1  0  0  0  0
 16 32  1  0  0  0  0
 16 33  1  0  0  0  0
 17 18  1  0  0  0  0
 17 34  1  0  0  0  0
 17 35  1  0  0  0  0
 18 19  1  0  0  0  0
 18 36  1  0  0  0  0
 18 37  1  0  0  0  0
 19 20  1  0  0  0  0
 19 38  1  0  0  0  0
 19 39  1  0  0  0  0
 20 40  1  0  0  0  0
 20 41  1  0  0  0  0
 21 22  2  0  0  0  0
 21 42  1  0  0  0  0
 22 23  1  0  0  0  0
 22 43  1  0  0  0  0
 23 24  2  0  0  0  0
M  CHG  1  10  -1
M  END
> <s_m_source_file>
AV-unprocessed.smi

> <i_m_source_file_index>
1017

> <i_lp_mmshare_version>
43012

> <i_f3d_flags>
0

> <s_epik_input>
W0NIM11PW0NIMl1bQ0gyXW4xbmMoW2NIXVtjSF1jMT1PKUMoPU8pW05IXUMyKEMoRikoRilGKVtDSDJdW0NIMl1bQ0gyXVtDSDJdW0NIMl0y

> <s_epik_cmdline>
J2VwaWtfcHl0aG9uJywgJy1waCcsICc3LjAnLCAnLXRuJywgJzgnLCAnLW1hJywgJzIwMCcsICctbWV0YWxfYmluZGluZycsICctaW1hZScsICc8aW5maWxlLm1hZT4nLCAnLW9tYWUnLCAnPG91dGZpbGUubWFlPic=

> <r_lp_tautomer_probability>
1

> <r_epik_Ionization_Penalty>
6.5547

> <r_epik_Ionization_Penalty_Charging>
6.5547

> <r_epik_Ionization_Penalty_Neutral>
1.08437e-11

> <r_epik_State_Penalty>
6.55469

> <r_epik_Charging_Adjusted_Penalty>
13.1094

> <i_epik_Tot_Q>
-1

> <i_epik_Tot_abs_Q>
1

> <r_epik_Metal_State_Penalty>
2.48023

> <b_epik_Metal_Only>
1

> <s_lp_Force_Field>
OPLS_2005

> <r_lp_Energy>
56.1946

> <b_lp_Chiralities_Consistent>
1

> <s_lp_Variant>
AV-unprocessed.smi:1017-2

> <Gold.Version>
5.8.1

> <Gold.Id.Protein>
6NUR|6NUR_protein|mol2

> <Gold.PLP.Fitness>
39.2315

> <Gold.PLP.PLP>
-35.4336

> <Gold.PLP.part.hbond>
-2.6311

> <Gold.PLP.part.metal>
0.0000

> <Gold.PLP.part.buried>
-5.1039

> <Gold.PLP.part.nonpolar>
-28.0094

> <Gold.PLP.part.repulsive>
0.1480

> <Gold.PLP.ligand.clash>
0.0000

> <Gold.PLP.ligand.torsion>
1.2075

> <Gold.PLP.Chemscore.Hbond>
2.0000

> <Gold.PLP.Chemscore.CHOScore>
0.0000

> <Gold.PLP.Chemscore.Metal>
0.0000

> <Gold.Chemscore.Hbonds>
donor molecule, donor type, donor heavy atom, donor atom, acceptor molecule, acceptor atom, score
      P1  H  6896  6909       L1     9  0.84
      P1  H  7989  7998       L1    24  1.00

> <Gold.PLP.Chemscore.Internal.Correction>
0.2129

> <Gold.Rescore>
     Score         DG    S(hbond)    S(metal)    S(lipo)     H(rot)  DE(clash)    DE(int)     intcor
     12.21     -16.72       1.85        0.00      79.69       1.67       0.05       4.47       ----

> <Gold.Chemscore.Fitness>
12.2082

> <Gold.Chemscore.DG>
-16.7246

> <Gold.Chemscore.ZeroCoef>
-5.4800

> <Gold.Chemscore.Hbond>
1.8518

> <Gold.Chemscore.Metal>
0.0000

> <Gold.Chemscore.Lipo>
79.6906

> <Gold.Chemscore.Internal_Hbond>
0.0000

> <Gold.Chemscore.DEClash>
0.0508

> <Gold.Chemscore.DEInternal>
4.4655

> <Gold.Chemscore.Rot>
1.6657

> <Gold.Chemscore.Internal.Correction>
   9.000000E+99

> <Gold.Chemscore.Hbonds>
donor molecule, donor type, donor heavy atom, donor atom, acceptor molecule, acceptor atom, score
      P1  H  6896  6909       L1     9  0.41
      P1  H  7989  7998       L1    24  0.94

> <Gold.Chemscore.Hbond.Weighted>
-6.1849

> <Gold.Chemscore.Metal.Weighted>
-0.0000

> <Gold.Chemscore.Lipo.Weighted>
-9.3238

> <Gold.Chemscore.Internal_Hbond.Weighted>
0.0000

> <Gold.Chemscore.DEClash.Weighted>
0.0508

> <Gold.Chemscore.DEInternal.Weighted>
4.4655

> <Gold.Chemscore.Rot.Weighted>
4.2641

> <Gold.Chemscore.Internal.Correction.Weighted>
   9.000000E+99

> <Gold.Protein.RotatedTorsions>
[ 6907 6896 6895 6894 ] final  102.79 input  -60.11 | X-H torsion
[ 7974 7965 7964 7962 ] final  -53.88 input  175.53 | X-H torsion
[ 8008 7997 7996 7995 ] final   64.94 input   59.86 | X-H torsion
[ 10167 10162 10161 10158 ] final  -53.28 input  -65.29 | X-H torsion
[ 10718 10713 10712 10709 ] final  173.86 input   66.30 | X-H torsion
[ 10763 10752 10751 10750 ] final  -90.61 input  -60.55 | X-H torsion
[ 11005 11000 10999 10996 ] final  138.49 input  -57.11 | X-H torsion

> <Gold.Protein.ActiveResidues>
 VAL166  LYS551  ARG553  GLY616  TRP617  ASP618  TYR619  PRO620  LYS621  CYS622 
 ASP623  PHE694  ASN695  SER759  ASP760  ASP761  ALA762  ILE779  LEU786  VAL792 
 PHE793  MET794  SER795  GLU796  ALA797  LYS798  CYS799  TRP800  GLU811  SER814 

> <Gold.Protein.RotatedAtoms>
  152.5314  133.9923  159.7856 H   0  0  0  0  0  0  0  0  0  0  0  0  # atno 6907 bound_to 6896
  151.0156  133.5916  159.2684 H   0  0  0  0  0  0  0  0  0  0  0  0  # atno 6908 bound_to 6896
  151.2974  135.0766  159.9279 H   0  0  0  0  0  0  0  0  0  0  0  0  # atno 6909 bound_to 6896
  145.8918  140.8064  142.9787 H   0  0  0  0  0  0  0  0  0  0  0  0  # atno 7974 bound_to 7965
  155.6539  140.3497  155.4758 H   0  0  0  0  0  0  0  0  0  0  0  0  # atno 8008 bound_to 7997
  155.9825  140.1177  157.0736 H   0  0  0  0  0  0  0  0  0  0  0  0  # atno 8009 bound_to 7997
  154.4195  140.1135  156.5441 H   0  0  0  0  0  0  0  0  0  0  0  0  # atno 8010 bound_to 7997
  140.6493  143.2555  151.4769 H   0  0  0  0  0  0  0  0  0  0  0  0  # atno 10167 bound_to 10162
  156.9581  131.0052  151.2934 H   0  0  0  0  0  0  0  0  0  0  0  0  # atno 10718 bound_to 10713
  154.6675  135.5298  153.8096 H   0  0  0  0  0  0  0  0  0  0  0  0  # atno 10763 bound_to 10752
  153.0480  135.6521  154.0776 H   0  0  0  0  0  0  0  0  0  0  0  0  # atno 10764 bound_to 10752
  154.0678  135.2956  155.3293 H   0  0  0  0  0  0  0  0  0  0  0  0  # atno 10765 bound_to 10752
  140.0187  134.9406  157.0430 H   0  0  0  0  0  0  0  0  0  0  0  0  # atno 11005 bound_to 11000
  144.6731  140.1541  143.7427 LP  0  0  0  0  0  0  0  0  0  0  0  0  # atno 17320 bound_to 7965
  145.8899  139.2370  143.1556 LP  0  0  0  0  0  0  0  0  0  0  0  0  # atno 17321 bound_to 7965
  139.5707  144.1936  152.1831 LP  0  0  0  0  0  0  0  0  0  0  0  0  # atno 17342 bound_to 10162
  140.1231  144.5355  150.6850 LP  0  0  0  0  0  0  0  0  0  0  0  0  # atno 17343 bound_to 10162
  157.5676  130.8288  149.8349 LP  0  0  0  0  0  0  0  0  0  0  0  0  # atno 17370 bound_to 10713
  156.0334  130.3758  150.1626 LP  0  0  0  0  0  0  0  0  0  0  0  0  # atno 17371 bound_to 10713
  140.4425  134.1666  155.7175 LP  0  0  0  0  0  0  0  0  0  0  0  0  # atno 17394 bound_to 11000
  141.1760  133.8513  157.1420 LP  0  0  0  0  0  0  0  0  0  0  0  0  # atno 17395 bound_to 11000

$$$$
