AV-unprocessed.smi:1536|AV-procd|sdf|6186|dock8
  -GOLD-   22720 6353D 1   1.00000     0.00000
 Structure written by MMmdl.
 48 49  0  0  0  0  0  0  0  0  2 V2000
  146.0203  132.4386  149.8079 C   0  0  0  0  0  0  0  0  0  0  0  0
  145.6342  133.3292  150.9970 C   0  0  2  0  0  0  0  0  0  0  0  0
  145.4829  134.8017  150.5797 C   0  0  0  0  0  0  0  0  0  0  0  0
  145.1209  135.6834  151.7851 C   0  0  0  0  0  0  0  0  0  0  0  0
  146.1470  135.5615  152.8585 N   0  3  1  0  0  0  0  0  0  0  0  0
  146.0459  136.5417  153.9861 C   0  0  2  0  0  0  0  0  0  0  0  0
  147.0467  136.2695  155.1430 C   0  0  0  0  0  0  0  0  0  0  0  0
  148.4291  136.2995  154.6762 N   0  0  0  0  0  0  0  0  0  0  0  0
  149.5068  136.5655  155.4314 C   0  0  0  0  0  0  0  0  0  0  0  0
  149.4694  136.7032  156.6534 O   0  0  0  0  0  0  0  0  0  0  0  0
  150.8247  136.7525  154.6817 C   0  0  0  0  0  0  0  0  0  0  0  0
  151.3089  138.1087  154.8568 N   0  0  0  0  0  0  0  0  0  0  0  0
  152.4960  138.5713  155.2539 C   0  0  0  0  0  0  0  0  0  0  0  0
  152.5066  139.8937  155.3219 N   0  0  0  0  0  0  0  0  0  0  0  0
  151.2241  140.2400  154.9315 N   0  0  0  0  0  0  0  0  0  0  0  0
  150.5084  139.1853  154.6547 N   0  0  0  0  0  0  0  0  0  0  0  0
  144.5658  136.7418  154.4266 C   0  0  0  0  0  0  0  0  0  0  0  0
  144.3389  137.9090  155.4024 C   0  0  0  0  0  0  0  0  0  0  0  0
  143.9516  135.4430  154.9766 C   0  0  0  0  0  0  0  0  0  0  0  0
  146.2870  134.1531  153.3137 C   0  0  0  0  0  0  0  0  0  0  0  0
  146.6571  133.2280  152.1413 C   0  0  0  0  0  0  0  0  0  0  0  0
  146.9797  132.7357  149.3834 H   0  0  0  0  0  0  0  0  0  0  0  0
  145.2737  132.4966  149.0153 H   0  0  0  0  0  0  0  0  0  0  0  0
  146.0989  131.3935  150.1090 H   0  0  0  0  0  0  0  0  0  0  0  0
  144.6704  132.9811  151.3721 H   0  0  0  0  0  0  0  0  0  0  0  0
  146.4103  135.1604  150.1303 H   0  0  0  0  0  0  0  0  0  0  0  0
  144.7121  134.8949  149.8138 H   0  0  0  0  0  0  0  0  0  0  0  0
  145.0296  136.7167  151.4543 H   0  0  0  0  0  0  0  0  0  0  0  0
  144.1432  135.3860  152.1669 H   0  0  0  0  0  0  0  0  0  0  0  0
  146.3407  137.5146  153.5893 H   0  0  0  0  0  0  0  0  0  0  0  0
  146.9093  136.9732  155.9643 H   0  0  0  0  0  0  0  0  0  0  0  0
  146.8666  135.2777  155.5591 H   0  0  0  0  0  0  0  0  0  0  0  0
  148.5719  136.1939  153.6817 H   0  0  0  0  0  0  0  0  0  0  0  0
  151.5757  136.0578  155.0599 H   0  0  0  0  0  0  0  0  0  0  0  0
  150.6931  136.5447  153.6188 H   0  0  0  0  0  0  0  0  0  0  0  0
  153.3395  137.9446  155.5033 H   0  0  0  0  0  0  0  0  0  0  0  0
  143.9861  136.9734  153.5331 H   0  0  0  0  0  0  0  0  0  0  0  0
  144.7757  137.7071  156.3803 H   0  0  0  0  0  0  0  0  0  0  0  0
  143.2730  138.0797  155.5564 H   0  0  0  0  0  0  0  0  0  0  0  0
  144.7621  138.8400  155.0267 H   0  0  0  0  0  0  0  0  0  0  0  0
  144.4316  135.1301  155.9042 H   0  0  0  0  0  0  0  0  0  0  0  0
  144.0460  134.6268  154.2596 H   0  0  0  0  0  0  0  0  0  0  0  0
  142.8888  135.5711  155.1838 H   0  0  0  0  0  0  0  0  0  0  0  0
  147.0689  134.0807  154.0708 H   0  0  0  0  0  0  0  0  0  0  0  0
  145.3576  133.8250  153.7816 H   0  0  0  0  0  0  0  0  0  0  0  0
  146.7228  132.1981  152.4939 H   0  0  0  0  0  0  0  0  0  0  0  0
  147.6498  133.4911  151.7729 H   0  0  0  0  0  0  0  0  0  0  0  0
  147.0300  135.7761  152.4170 H   0  0  0  0  0  0  0  0  0  0  0  0
  1  2  1  0  0  0  0
  1 22  1  0  0  0  0
  1 23  1  0  0  0  0
  1 24  1  0  0  0  0
  2 21  1  0  0  0  0
  2  3  1  0  0  0  0
  2 25  1  0  0  0  0
  3  4  1  0  0  0  0
  3 26  1  0  0  0  0
  3 27  1  0  0  0  0
  4  5  1  0  0  0  0
  4 28  1  0  0  0  0
  4 29  1  0  0  0  0
  5  6  1  0  0  0  0
  5 20  1  0  0  0  0
  5 48  1  0  0  0  0
  6  7  1  0  0  0  0
  6 17  1  0  0  0  0
  6 30  1  0  0  0  0
  7  8  1  0  0  0  0
  7 31  1  0  0  0  0
  7 32  1  0  0  0  0
  8  9  1  0  0  0  0
  8 33  1  0  0  0  0
  9 10  2  0  0  0  0
  9 11  1  0  0  0  0
 11 12  1  0  0  0  0
 11 34  1  0  0  0  0
 11 35  1  0  0  0  0
 12 16  1  0  0  0  0
 12 13  1  0  0  0  0
 13 14  2  0  0  0  0
 13 36  1  0  0  0  0
 14 15  1  0  0  0  0
 15 16  2  0  0  0  0
 17 18  1  0  0  0  0
 17 19  1  0  0  0  0
 17 37  1  0  0  0  0
 18 38  1  0  0  0  0
 18 39  1  0  0  0  0
 18 40  1  0  0  0  0
 19 41  1  0  0  0  0
 19 42  1  0  0  0  0
 19 43  1  0  0  0  0
 20 21  1  0  0  0  0
 20 44  1  0  0  0  0
 20 45  1  0  0  0  0
 21 46  1  0  0  0  0
 21 47  1  0  0  0  0
M  CHG  1   5   1
M  END
> <s_m_source_file>
AV-unprocessed.smi

> <i_m_source_file_index>
1536

> <i_lp_mmshare_version>
43012

> <i_f3d_flags>
0

> <s_epik_input>
W0NIM11bQ0hdMVtDSDJdW0NIMl1OKFtDSDJdW0NIMl0xKVtDQEBIXShbQ0hdKFtDSDNdKVtDSDNdKVtDSDJdW05IXUMoPU8pW0NIMl1uMltjSF1ubm4y

> <s_epik_cmdline>
J2VwaWtfcHl0aG9uJywgJy1waCcsICc3LjAnLCAnLXRuJywgJzgnLCAnLW1hJywgJzIwMCcsICctbWV0YWxfYmluZGluZycsICctaW1hZScsICc8aW5maWxlLm1hZT4nLCAnLW9tYWUnLCAnPG91dGZpbGUubWFlPic=

> <r_lp_tautomer_probability>
1

> <r_epik_Ionization_Penalty>
0.00109671

> <r_epik_Ionization_Penalty_Charging>
0.00109273

> <r_epik_Ionization_Penalty_Neutral>
3.97951e-06

> <r_epik_State_Penalty>
0.000716588

> <r_epik_Charging_Adjusted_Penalty>
0.00180932

> <i_epik_Tot_Q>
1

> <i_epik_Tot_abs_Q>
1

> <r_epik_Metal_State_Penalty>
-0

> <b_epik_Metal_Only>
0

> <s_lp_Force_Field>
OPLS_2005

> <r_lp_Energy>
28.917

> <b_lp_Chiralities_Consistent>
1

> <s_lp_Variant>
AV-unprocessed.smi:1536-1

> <Gold.Version>
5.8.1

> <Gold.Id.Protein>
6NUR|6NUR_protein|mol2

> <Gold.PLP.Fitness>
42.2653

> <Gold.PLP.PLP>
-28.0692

> <Gold.PLP.part.hbond>
-5.0456

> <Gold.PLP.part.metal>
0.0000

> <Gold.PLP.part.buried>
-3.5733

> <Gold.PLP.part.nonpolar>
-20.3767

> <Gold.PLP.part.repulsive>
0.2094

> <Gold.PLP.ligand.clash>
0.0000

> <Gold.PLP.ligand.torsion>
0.6614

> <Gold.PLP.Chemscore.Hbond>
5.0000

> <Gold.PLP.Chemscore.CHOScore>
0.0000

> <Gold.PLP.Chemscore.Metal>
0.0000

> <Gold.Chemscore.Hbonds>
donor molecule, donor type, donor heavy atom, donor atom, acceptor molecule, acceptor atom, score
      L1  H     5    48       P1  7948  1.98
      L1  H     8    33       P1  7948  1.00
      P1  H  7989  7998       L1    15  0.80
      P1  H  7997  8008       L1    14  0.99

> <Gold.PLP.Chemscore.Internal.Correction>
0.5189

> <Gold.Rescore>
     Score         DG    S(hbond)    S(metal)    S(lipo)     H(rot)  DE(clash)    DE(int)     intcor
     15.36     -16.12       3.68        0.00      46.58       2.77       0.03       0.74       ----

> <Gold.Chemscore.Fitness>
15.3594

> <Gold.Chemscore.DG>
-16.1237

> <Gold.Chemscore.ZeroCoef>
-5.4800

> <Gold.Chemscore.Hbond>
3.6787

> <Gold.Chemscore.Metal>
0.0000

> <Gold.Chemscore.Lipo>
46.5832

> <Gold.Chemscore.Internal_Hbond>
0.0000

> <Gold.Chemscore.DEClash>
0.0291

> <Gold.Chemscore.DEInternal>
0.7352

> <Gold.Chemscore.Rot>
2.7709

> <Gold.Chemscore.Internal.Correction>
   9.000000E+99

> <Gold.Chemscore.Hbonds>
donor molecule, donor type, donor heavy atom, donor atom, acceptor molecule, acceptor atom, score
      L1  H     5    48       P1  7948  0.92
      L1  H     8    33       P1  7948  1.00
      P1  H  7989  7998       L1    15  0.06
      P1  H  7997  8008       L1    14  0.24

> <Gold.Chemscore.Hbond.Weighted>
-12.2870

> <Gold.Chemscore.Metal.Weighted>
-0.0000

> <Gold.Chemscore.Lipo.Weighted>
-5.4502

> <Gold.Chemscore.Internal_Hbond.Weighted>
0.0000

> <Gold.Chemscore.DEClash.Weighted>
0.0291

> <Gold.Chemscore.DEInternal.Weighted>
0.7352

> <Gold.Chemscore.Rot.Weighted>
7.0935

> <Gold.Chemscore.Internal.Correction.Weighted>
   9.000000E+99

> <Gold.Protein.RotatedTorsions>
[ 6907 6896 6895 6894 ] final   43.33 input  -60.11 | X-H torsion
[ 7974 7965 7964 7962 ] final   17.62 input  175.53 | X-H torsion
[ 8008 7997 7996 7995 ] final  -20.76 input   59.86 | X-H torsion
[ 10167 10162 10161 10158 ] final  -74.49 input  -65.29 | X-H torsion
[ 10718 10713 10712 10709 ] final   39.64 input   66.30 | X-H torsion
[ 10763 10752 10751 10750 ] final -140.91 input  -60.55 | X-H torsion
[ 11005 11000 10999 10996 ] final  103.42 input  -57.11 | X-H torsion

> <Gold.Protein.ActiveResidues>
 VAL166  LYS551  ARG553  GLY616  TRP617  ASP618  TYR619  PRO620  LYS621  CYS622 
 ASP623  PHE694  ASN695  SER759  ASP760  ASP761  ALA762  ILE779  LEU786  VAL792 
 PHE793  MET794  SER795  GLU796  ALA797  LYS798  CYS799  TRP800  GLU811  SER814 

> <Gold.Protein.RotatedAtoms>
  152.2190  134.8431  160.0488 H   0  0  0  0  0  0  0  0  0  0  0  0  # atno 6907 bound_to 6896
  151.9222  133.3583  159.3909 H   0  0  0  0  0  0  0  0  0  0  0  0  # atno 6908 bound_to 6896
  150.6995  134.4549  159.5397 H   0  0  0  0  0  0  0  0  0  0  0  0  # atno 6909 bound_to 6896
  146.2212  139.8576  142.8610 H   0  0  0  0  0  0  0  0  0  0  0  0  # atno 7974 bound_to 7965
  154.4749  140.2053  155.9903 H   0  0  0  0  0  0  0  0  0  0  0  0  # atno 8008 bound_to 7997
  156.1072  140.3234  155.7993 H   0  0  0  0  0  0  0  0  0  0  0  0  # atno 8009 bound_to 7997
  155.4697  140.0530  157.2972 H   0  0  0  0  0  0  0  0  0  0  0  0  # atno 8010 bound_to 7997
  140.5022  143.2359  151.7732 H   0  0  0  0  0  0  0  0  0  0  0  0  # atno 10167 bound_to 10162
  157.3730  130.7711  149.7133 H   0  0  0  0  0  0  0  0  0  0  0  0  # atno 10718 bound_to 10713
  154.8563  135.3539  154.5782 H   0  0  0  0  0  0  0  0  0  0  0  0  # atno 10763 bound_to 10752
  153.6394  135.6999  153.5252 H   0  0  0  0  0  0  0  0  0  0  0  0  # atno 10764 bound_to 10752
  153.2984  135.4214  155.1189 H   0  0  0  0  0  0  0  0  0  0  0  0  # atno 10765 bound_to 10752
  139.8784  134.9262  156.5207 H   0  0  0  0  0  0  0  0  0  0  0  0  # atno 11005 bound_to 11000
  145.2737  141.0117  143.3757 LP  0  0  0  0  0  0  0  0  0  0  0  0  # atno 17320 bound_to 7965
  144.9203  139.4419  143.6544 LP  0  0  0  0  0  0  0  0  0  0  0  0  # atno 17321 bound_to 7965
  139.4875  144.4506  151.9659 LP  0  0  0  0  0  0  0  0  0  0  0  0  # atno 17342 bound_to 10162
  140.3595  144.2990  150.5936 LP  0  0  0  0  0  0  0  0  0  0  0  0  # atno 17343 bound_to 10162
  155.9759  130.4082  150.3814 LP  0  0  0  0  0  0  0  0  0  0  0  0  # atno 17370 bound_to 10713
  157.1908  131.0415  151.2701 LP  0  0  0  0  0  0  0  0  0  0  0  0  # atno 17371 bound_to 10713
  140.8452  133.8174  155.9114 LP  0  0  0  0  0  0  0  0  0  0  0  0  # atno 17394 bound_to 11000
  140.9198  134.2156  157.4934 LP  0  0  0  0  0  0  0  0  0  0  0  0  # atno 17395 bound_to 11000

$$$$
