AV-unprocessed.smi:1549|AV-procd|sdf|6223|dock5
  -GOLD-   22720 6393D 1   1.00000     0.00000
 Structure written by MMmdl.
 41 42  0  0  0  0  0  0  0  0  1 V2000
  150.6401  138.6083  154.2533 C   0  0  0  0  0  0  0  0  0  0  0  0
  151.2479  137.3844  154.9425 C   0  0  0  0  0  0  0  0  0  0  0  0
  150.4729  136.2386  154.6043 O   0  0  0  0  0  0  0  0  0  0  0  0
  150.8229  135.0159  155.1454 C   0  0  0  0  0  0  0  0  0  0  0  0
  151.7973  134.9823  156.0889 N   0  0  0  0  0  0  0  0  0  0  0  0
  152.1425  133.7887  156.6138 C   0  0  0  0  0  0  0  0  0  0  0  0
  151.5462  132.5750  156.2257 C   0  0  0  0  0  0  0  0  0  0  0  0
  150.5351  132.6075  155.2478 C   0  0  0  0  0  0  0  0  0  0  0  0
  150.1506  133.8546  154.6981 C   0  0  0  0  0  0  0  0  0  0  0  0
  149.1565  133.9996  153.6913 N   0  0  0  0  0  0  0  0  0  0  0  0
  148.1799  133.1433  153.3478 C   0  0  0  0  0  0  0  0  0  0  0  0
  147.9575  132.0613  153.8909 O   0  0  0  0  0  0  0  0  0  0  0  0
  147.4501  133.6245  152.3313 N   0  0  0  0  0  0  0  0  0  0  0  0
  146.3135  132.9468  151.7146 C   0  0  2  0  0  0  0  0  0  0  0  0
  146.5040  132.8463  150.1878 C   0  0  0  0  0  0  0  0  0  0  0  0
  145.2885  132.1926  149.5080 C   0  0  0  0  0  0  0  0  0  0  0  0
  143.9689  132.9050  149.8593 C   0  0  2  0  0  0  0  0  0  0  0  0
  143.9252  134.1760  149.2414 O   0  0  0  0  0  0  0  0  0  0  0  0
  143.7919  133.0516  151.3826 C   0  0  0  0  0  0  0  0  0  0  0  0
  145.0153  133.7028  152.0517 C   0  0  0  0  0  0  0  0  0  0  0  0
  151.2115  139.5082  154.4818 H   0  0  0  0  0  0  0  0  0  0  0  0
  149.6131  138.7721  154.5804 H   0  0  0  0  0  0  0  0  0  0  0  0
  150.6318  138.4839  153.1703 H   0  0  0  0  0  0  0  0  0  0  0  0
  152.2804  137.2551  154.6141 H   0  0  0  0  0  0  0  0  0  0  0  0
  151.2515  137.5374  156.0230 H   0  0  0  0  0  0  0  0  0  0  0  0
  152.9221  133.8009  157.3609 H   0  0  0  0  0  0  0  0  0  0  0  0
  151.8605  131.6398  156.6646 H   0  0  0  0  0  0  0  0  0  0  0  0
  150.0888  131.6780  154.9308 H   0  0  0  0  0  0  0  0  0  0  0  0
  149.1563  134.8888  153.2129 H   0  0  0  0  0  0  0  0  0  0  0  0
  147.7024  134.5246  151.9504 H   0  0  0  0  0  0  0  0  0  0  0  0
  146.2360  131.9395  152.1291 H   0  0  0  0  0  0  0  0  0  0  0  0
  146.6646  133.8408  149.7693 H   0  0  0  0  0  0  0  0  0  0  0  0
  147.4001  132.2691  149.9568 H   0  0  0  0  0  0  0  0  0  0  0  0
  145.4310  132.1695  148.4271 H   0  0  0  0  0  0  0  0  0  0  0  0
  145.2255  131.1515  149.8271 H   0  0  0  0  0  0  0  0  0  0  0  0
  143.1349  132.3285  149.4576 H   0  0  0  0  0  0  0  0  0  0  0  0
  144.7087  134.2856  148.7245 H   0  0  0  0  0  0  0  0  0  0  0  0
  142.8922  133.6265  151.6051 H   0  0  0  0  0  0  0  0  0  0  0  0
  143.6360  132.0638  151.8182 H   0  0  0  0  0  0  0  0  0  0  0  0
  144.8684  133.7295  153.1322 H   0  0  0  0  0  0  0  0  0  0  0  0
  145.0965  134.7413  151.7273 H   0  0  0  0  0  0  0  0  0  0  0  0
  1  2  1  0  0  0  0
  1 21  1  0  0  0  0
  1 22  1  0  0  0  0
  1 23  1  0  0  0  0
  2  3  1  0  0  0  0
  2 24  1  0  0  0  0
  2 25  1  0  0  0  0
  3  4  1  0  0  0  0
  4  9  1  0  0  0  0
  4  5  2  0  0  0  0
  5  6  1  0  0  0  0
  6  7  2  0  0  0  0
  6 26  1  0  0  0  0
  7  8  1  0  0  0  0
  7 27  1  0  0  0  0
  8  9  2  0  0  0  0
  8 28  1  0  0  0  0
  9 10  1  0  0  0  0
 10 11  1  0  0  0  0
 10 29  1  0  0  0  0
 11 12  2  0  0  0  0
 11 13  1  0  0  0  0
 13 14  1  0  0  0  0
 13 30  1  0  0  0  0
 14 20  1  0  0  0  0
 14 15  1  0  0  0  0
 14 31  1  0  0  0  0
 15 16  1  0  0  0  0
 15 32  1  0  0  0  0
 15 33  1  0  0  0  0
 16 17  1  0  0  0  0
 16 34  1  0  0  0  0
 16 35  1  0  0  0  0
 17 18  1  0  0  0  0
 17 19  1  0  0  0  0
 17 36  1  0  0  0  0
 18 37  1  0  0  0  0
 19 20  1  0  0  0  0
 19 38  1  0  0  0  0
 19 39  1  0  0  0  0
 20 40  1  0  0  0  0
 20 41  1  0  0  0  0
M  END
> <s_m_source_file>
AV-unprocessed.smi

> <i_m_source_file_index>
1549

> <i_lp_mmshare_version>
43012

> <i_f3d_flags>
0

> <s_epik_input>
W0NIM11bQ0gyXU9jMW5bY0hdW2NIXVtjSF1jMVtOSF1DKD1PKVtOSF1bQ0BASF0yW0NIMl1bQ0gyXVtDQEBIXShbT0hdKVtDSDJdW0NIMl0y

> <s_epik_cmdline>
J2VwaWtfcHl0aG9uJywgJy1waCcsICc3LjAnLCAnLXRuJywgJzgnLCAnLW1hJywgJzIwMCcsICctbWV0YWxfYmluZGluZycsICctaW1hZScsICc8aW5maWxlLm1hZT4nLCAnLW9tYWUnLCAnPG91dGZpbGUubWFlPic=

> <r_lp_tautomer_probability>
1

> <r_epik_Ionization_Penalty>
0.000120387

> <r_epik_Ionization_Penalty_Charging>
0

> <r_epik_Ionization_Penalty_Neutral>
0.000120387

> <r_epik_State_Penalty>
-0

> <r_epik_Charging_Adjusted_Penalty>
0

> <i_epik_Tot_Q>
0

> <i_epik_Tot_abs_Q>
0

> <r_epik_Metal_State_Penalty>
-0

> <b_epik_Metal_Only>
0

> <s_lp_Force_Field>
OPLS_2005

> <r_lp_Energy>
13.0635

> <b_lp_Chiralities_Consistent>
1

> <s_lp_Variant>
AV-unprocessed.smi:1549-2

> <Gold.Version>
5.8.1

> <Gold.Id.Protein>
6NUR|6NUR_protein|mol2

> <Gold.PLP.Fitness>
47.8270

> <Gold.PLP.PLP>
-36.8576

> <Gold.PLP.part.hbond>
-4.9019

> <Gold.PLP.part.metal>
0.0000

> <Gold.PLP.part.buried>
-3.3517

> <Gold.PLP.part.nonpolar>
-28.7232

> <Gold.PLP.part.repulsive>
0.4299

> <Gold.PLP.ligand.clash>
0.0000

> <Gold.PLP.ligand.torsion>
0.1928

> <Gold.PLP.Chemscore.Hbond>
3.7763

> <Gold.PLP.Chemscore.CHOScore>
0.0000

> <Gold.PLP.Chemscore.Metal>
0.0000

> <Gold.Chemscore.Hbonds>
donor molecule, donor type, donor heavy atom, donor atom, acceptor molecule, acceptor atom, score
      L1  H    10    29       P1  7948  0.70
      L1  H    13    30       P1  7948  0.91
      L1  H    18    37       P1  7921  1.00
      P1  H 10752 10764       L1     5  0.91

> <Gold.PLP.Chemscore.Internal.Correction>
0.0262

> <Gold.Rescore>
     Score         DG    S(hbond)    S(metal)    S(lipo)     H(rot)  DE(clash)    DE(int)     intcor
     14.44     -15.78       1.62        0.00      84.12       1.93       0.05       1.30       ----

> <Gold.Chemscore.Fitness>
14.4362

> <Gold.Chemscore.DG>
-15.7830

> <Gold.Chemscore.ZeroCoef>
-5.4800

> <Gold.Chemscore.Hbond>
1.6188

> <Gold.Chemscore.Metal>
0.0000

> <Gold.Chemscore.Lipo>
84.1163

> <Gold.Chemscore.Internal_Hbond>
0.0000

> <Gold.Chemscore.DEClash>
0.0471

> <Gold.Chemscore.DEInternal>
1.2997

> <Gold.Chemscore.Rot>
1.9318

> <Gold.Chemscore.Internal.Correction>
   9.000000E+99

> <Gold.Chemscore.Hbonds>
donor molecule, donor type, donor heavy atom, donor atom, acceptor molecule, acceptor atom, score
      L1  H    10    29       P1  7948  0.07
      L1  H    13    30       P1  7948  0.30
      L1  H    18    37       P1  7921  1.00
      P1  H 10752 10764       L1     5  0.10

> <Gold.Chemscore.Hbond.Weighted>
-5.4068

> <Gold.Chemscore.Metal.Weighted>
-0.0000

> <Gold.Chemscore.Lipo.Weighted>
-9.8416

> <Gold.Chemscore.Internal_Hbond.Weighted>
0.0000

> <Gold.Chemscore.DEClash.Weighted>
0.0471

> <Gold.Chemscore.DEInternal.Weighted>
1.2997

> <Gold.Chemscore.Rot.Weighted>
4.9454

> <Gold.Chemscore.Internal.Correction.Weighted>
   9.000000E+99

> <Gold.Protein.RotatedTorsions>
[ 6907 6896 6895 6894 ] final -148.93 input  -60.11 | X-H torsion
[ 7974 7965 7964 7962 ] final  -48.49 input  175.53 | X-H torsion
[ 8008 7997 7996 7995 ] final  169.63 input   59.86 | X-H torsion
[ 10167 10162 10161 10158 ] final   11.44 input  -65.29 | X-H torsion
[ 10718 10713 10712 10709 ] final  145.31 input   66.30 | X-H torsion
[ 10763 10752 10751 10750 ] final  -19.37 input  -60.55 | X-H torsion
[ 11005 11000 10999 10996 ] final    3.79 input  -57.11 | X-H torsion

> <Gold.Protein.ActiveResidues>
 VAL166  LYS551  ARG553  GLY616  TRP617  ASP618  TYR619  PRO620  LYS621  CYS622 
 ASP623  PHE694  ASN695  SER759  ASP760  ASP761  ALA762  ILE779  LEU786  VAL792 
 PHE793  MET794  SER795  GLU796  ALA797  LYS798  CYS799  TRP800  GLU811  SER814 

> <Gold.Protein.RotatedAtoms>
  151.1768  133.4750  159.2593 H   0  0  0  0  0  0  0  0  0  0  0  0  # atno 6907 bound_to 6896
  151.1300  135.0125  159.8588 H   0  0  0  0  0  0  0  0  0  0  0  0  # atno 6908 bound_to 6896
  152.5459  134.1672  159.8635 H   0  0  0  0  0  0  0  0  0  0  0  0  # atno 6909 bound_to 6896
  145.9506  140.7576  142.9506 H   0  0  0  0  0  0  0  0  0  0  0  0  # atno 7974 bound_to 7965
  156.1440  140.1559  156.8876 H   0  0  0  0  0  0  0  0  0  0  0  0  # atno 8008 bound_to 7997
  154.5012  140.0825  156.7839 H   0  0  0  0  0  0  0  0  0  0  0  0  # atno 8009 bound_to 7997
  155.4024  140.3415  155.4260 H   0  0  0  0  0  0  0  0  0  0  0  0  # atno 8010 bound_to 7997
  140.6132  143.8364  150.7088 H   0  0  0  0  0  0  0  0  0  0  0  0  # atno 10167 bound_to 10162
  157.3468  131.0944  151.1035 H   0  0  0  0  0  0  0  0  0  0  0  0  # atno 10718 bound_to 10713
  153.6037  135.6998  153.5374 H   0  0  0  0  0  0  0  0  0  0  0  0  # atno 10763 bound_to 10752
  153.3075  135.4111  155.1306 H   0  0  0  0  0  0  0  0  0  0  0  0  # atno 10764 bound_to 10752
  154.8577  135.3664  154.5573 H   0  0  0  0  0  0  0  0  0  0  0  0  # atno 10765 bound_to 10752
  140.5892  133.9940  155.8081 H   0  0  0  0  0  0  0  0  0  0  0  0  # atno 11005 bound_to 11000
  144.6795  140.2429  143.7341 LP  0  0  0  0  0  0  0  0  0  0  0  0  # atno 17320 bound_to 7965
  145.8176  139.2030  143.1957 LP  0  0  0  0  0  0  0  0  0  0  0  0  # atno 17321 bound_to 7965
  140.1937  143.4015  152.1844 LP  0  0  0  0  0  0  0  0  0  0  0  0  # atno 17342 bound_to 10162
  139.5377  144.7226  151.4836 LP  0  0  0  0  0  0  0  0  0  0  0  0  # atno 17343 bound_to 10162
  157.2225  130.6488  149.5817 LP  0  0  0  0  0  0  0  0  0  0  0  0  # atno 17370 bound_to 10713
  155.9715  130.4624  150.6146 LP  0  0  0  0  0  0  0  0  0  0  0  0  # atno 17371 bound_to 10713
  141.0946  133.9863  157.3181 LP  0  0  0  0  0  0  0  0  0  0  0  0  # atno 17394 bound_to 11000
  139.9282  135.0201  156.8308 LP  0  0  0  0  0  0  0  0  0  0  0  0  # atno 17395 bound_to 11000

$$$$
