AV-unprocessed.smi:1550|AV-procd|sdf|6228|dock8
  -GOLD-   22720 6403D 1   1.00000     0.00000
 Structure written by MMmdl.
 42 43  0  0  0  0  0  0  0  0  2 V2000
  147.1054  140.5439  156.5799 C   0  0  0  0  0  0  0  0  0  0  0  0
  148.0176  140.0414  157.7089 C   0  0  2  0  0  0  0  0  0  0  0  0
  149.3655  140.1840  157.2691 O   0  0  0  0  0  0  0  0  0  0  0  0
  149.7649  141.5123  156.9501 C   0  0  0  0  0  0  0  0  0  0  0  0
  150.5049  142.1074  158.1548 C   0  0  2  0  0  0  0  0  0  0  0  0
  150.8038  143.6073  157.9623 C   0  0  0  0  0  0  0  0  0  0  0  0
  151.6195  144.1497  159.1415 C   0  0  0  0  0  0  0  0  0  0  0  0
  152.8663  143.2836  159.3491 C   0  0  0  0  0  0  0  0  0  0  0  0
  152.4724  141.8028  159.4642 C   0  0  0  0  0  0  0  0  0  0  0  0
  151.7387  141.4080  158.3091 O   0  0  0  0  0  0  0  0  0  0  0  0
  147.7247  138.5726  158.0553 C   0  0  0  0  0  0  0  0  0  0  0  0
  146.6690  138.0638  157.6795 O   0  0  0  0  0  0  0  0  0  0  0  0
  148.6983  137.9386  158.7382 N   0  0  0  0  0  0  0  0  0  0  0  0
  148.7615  136.6125  159.2010 C   0  0  0  0  0  0  0  0  0  0  0  0
  148.5445  136.2196  160.4871 C   0  0  0  0  0  0  0  0  0  0  0  0
  148.6302  134.8251  160.9022 C   0  0  0  0  0  0  0  0  0  0  0  0
  148.4653  134.3618  162.3390 C   0  0  0  0  0  0  0  0  0  0  0  0
  147.2450  134.6421  162.7972 F   0  0  0  0  0  0  0  0  0  0  0  0
  148.6617  133.0473  162.4427 F   0  0  0  0  0  0  0  0  0  0  0  0
  149.3530  134.9775  163.1186 F   0  0  0  0  0  0  0  0  0  0  0  0
  148.9823  133.9886  159.8611 C   0  0  0  0  0  0  0  0  0  0  0  0
  149.2070  134.2930  158.5642 N   0  5  0  0  0  0  0  0  0  0  0  0
  149.1113  135.5985  158.1843 C   0  0  0  0  0  0  0  0  0  0  0  0
  149.3084  135.9456  157.0192 O   0  0  0  0  0  0  0  0  0  0  0  0
  146.0528  140.4421  156.8470 H   0  0  0  0  0  0  0  0  0  0  0  0
  147.2723  139.9945  155.6526 H   0  0  0  0  0  0  0  0  0  0  0  0
  147.2917  141.5980  156.3741 H   0  0  0  0  0  0  0  0  0  0  0  0
  147.8523  140.6721  158.5850 H   0  0  0  0  0  0  0  0  0  0  0  0
  150.4041  141.5219  156.0659 H   0  0  0  0  0  0  0  0  0  0  0  0
  148.8901  142.1241  156.7276 H   0  0  0  0  0  0  0  0  0  0  0  0
  149.8917  141.9738  159.0479 H   0  0  0  0  0  0  0  0  0  0  0  0
  151.3583  143.7569  157.0349 H   0  0  0  0  0  0  0  0  0  0  0  0
  149.8746  144.1696  157.8643 H   0  0  0  0  0  0  0  0  0  0  0  0
  151.9014  145.1883  158.9657 H   0  0  0  0  0  0  0  0  0  0  0  0
  151.0093  144.1373  160.0455 H   0  0  0  0  0  0  0  0  0  0  0  0
  153.5484  143.4137  158.5078 H   0  0  0  0  0  0  0  0  0  0  0  0
  153.4043  143.6031  160.2419 H   0  0  0  0  0  0  0  0  0  0  0  0
  153.3650  141.1821  159.5440 H   0  0  0  0  0  0  0  0  0  0  0  0
  151.8801  141.6253  160.3632 H   0  0  0  0  0  0  0  0  0  0  0  0
  149.5301  138.4792  158.9262 H   0  0  0  0  0  0  0  0  0  0  0  0
  148.3080  136.9355  161.2559 H   0  0  0  0  0  0  0  0  0  0  0  0
  149.1022  132.9120  160.1076 H   0  0  0  0  0  0  0  0  0  0  0  0
  1  2  1  0  0  0  0
  1 25  1  0  0  0  0
  1 26  1  0  0  0  0
  1 27  1  0  0  0  0
  2  3  1  0  0  0  0
  2 11  1  0  0  0  0
  2 28  1  0  0  0  0
  3  4  1  0  0  0  0
  4  5  1  0  0  0  0
  4 29  1  0  0  0  0
  4 30  1  0  0  0  0
  5 10  1  0  0  0  0
  5  6  1  0  0  0  0
  5 31  1  0  0  0  0
  6  7  1  0  0  0  0
  6 32  1  0  0  0  0
  6 33  1  0  0  0  0
  7  8  1  0  0  0  0
  7 34  1  0  0  0  0
  7 35  1  0  0  0  0
  8  9  1  0  0  0  0
  8 36  1  0  0  0  0
  8 37  1  0  0  0  0
  9 10  1  0  0  0  0
  9 38  1  0  0  0  0
  9 39  1  0  0  0  0
 11 12  2  0  0  0  0
 11 13  1  0  0  0  0
 13 14  1  0  0  0  0
 13 40  1  0  0  0  0
 14 23  1  0  0  0  0
 14 15  2  0  0  0  0
 15 16  1  0  0  0  0
 15 41  1  0  0  0  0
 16 17  1  0  0  0  0
 16 21  2  0  0  0  0
 17 18  1  0  0  0  0
 17 19  1  0  0  0  0
 17 20  1  0  0  0  0
 21 22  1  0  0  0  0
 21 42  1  0  0  0  0
 22 23  1  0  0  0  0
 23 24  2  0  0  0  0
M  CHG  1  22  -1
M  END
> <s_m_source_file>
AV-unprocessed.smi

> <i_m_source_file_index>
1550

> <i_lp_mmshare_version>
43012

> <i_f3d_flags>
0

> <s_epik_input>
TzFbQ0gyXVtDSDJdW0NIMl1bQ0gyXVtDQEhdMVtDSDJdT1tDQEBIXShbQ0gzXSlDKD1PKVtOSF1jMltjSF1jKEMoRikoRilGKVtjSF1bbkhdYzI9Tw==

> <s_epik_cmdline>
J2VwaWtfcHl0aG9uJywgJy1waCcsICc3LjAnLCAnLXRuJywgJzgnLCAnLW1hJywgJzIwMCcsICctbWV0YWxfYmluZGluZycsICctaW1hZScsICc8aW5maWxlLm1hZT4nLCAnLW9tYWUnLCAnPG91dGZpbGUubWFlPic=

> <r_epik_Ionization_Penalty>
2.54933

> <r_epik_Ionization_Penalty_Charging>
0.0583423

> <r_epik_Ionization_Penalty_Neutral>
2.49099

> <r_epik_State_Penalty>
2.65532

> <r_epik_Charging_Adjusted_Penalty>
2.71366

> <i_epik_Tot_Q>
-1

> <i_epik_Tot_abs_Q>
1

> <r_epik_Metal_State_Penalty>
0.516364

> <b_epik_Metal_Only>
0

> <s_lp_Force_Field>
OPLS_2005

> <r_lp_Energy>
27.7019

> <b_lp_Chiralities_Consistent>
1

> <s_lp_Variant>
AV-unprocessed.smi:1550-5

> <Gold.Version>
5.8.1

> <Gold.Id.Protein>
6NUR|6NUR_protein|mol2

> <Gold.PLP.Fitness>
46.8653

> <Gold.PLP.PLP>
-43.6642

> <Gold.PLP.part.hbond>
-1.0000

> <Gold.PLP.part.metal>
0.0000

> <Gold.PLP.part.buried>
-3.8330

> <Gold.PLP.part.nonpolar>
-39.0624

> <Gold.PLP.part.repulsive>
0.1787

> <Gold.PLP.ligand.clash>
0.0000

> <Gold.PLP.ligand.torsion>
1.4935

> <Gold.PLP.Chemscore.Hbond>
2.0000

> <Gold.PLP.Chemscore.CHOScore>
0.0000

> <Gold.PLP.Chemscore.Metal>
0.0000

> <Gold.PLP.Chemscore.Internal.Correction>
0.1881

> <Gold.Rescore>
     Score         DG    S(hbond)    S(metal)    S(lipo)     H(rot)  DE(clash)    DE(int)     intcor
     12.84     -14.38       0.74        0.00      94.81       1.82       0.13       1.41       ----

> <Gold.Chemscore.Fitness>
12.8428

> <Gold.Chemscore.DG>
-14.3807

> <Gold.Chemscore.ZeroCoef>
-5.4800

> <Gold.Chemscore.Hbond>
0.7415

> <Gold.Chemscore.Metal>
0.0000

> <Gold.Chemscore.Lipo>
94.8085

> <Gold.Chemscore.Internal_Hbond>
0.0000

> <Gold.Chemscore.DEClash>
0.1268

> <Gold.Chemscore.DEInternal>
1.4111

> <Gold.Chemscore.Rot>
1.8236

> <Gold.Chemscore.Internal.Correction>
   9.000000E+99

> <Gold.Chemscore.Hbond.Weighted>
-2.4765

> <Gold.Chemscore.Metal.Weighted>
-0.0000

> <Gold.Chemscore.Lipo.Weighted>
-11.0926

> <Gold.Chemscore.Internal_Hbond.Weighted>
0.0000

> <Gold.Chemscore.DEClash.Weighted>
0.1268

> <Gold.Chemscore.DEInternal.Weighted>
1.4111

> <Gold.Chemscore.Rot.Weighted>
4.6684

> <Gold.Chemscore.Internal.Correction.Weighted>
   9.000000E+99

> <Gold.Protein.RotatedTorsions>
[ 6907 6896 6895 6894 ] final  -95.77 input  -60.11 | X-H torsion
[ 7974 7965 7964 7962 ] final  179.53 input  175.53 | X-H torsion
[ 8008 7997 7996 7995 ] final  151.36 input   59.86 | X-H torsion
[ 10167 10162 10161 10158 ] final  -68.44 input  -65.29 | X-H torsion
[ 10718 10713 10712 10709 ] final  -62.77 input   66.30 | X-H torsion
[ 10763 10752 10751 10750 ] final -135.88 input  -60.55 | X-H torsion
[ 11005 11000 10999 10996 ] final  -42.84 input  -57.11 | X-H torsion

> <Gold.Protein.ActiveResidues>
 VAL166  LYS551  ARG553  GLY616  TRP617  ASP618  TYR619  PRO620  LYS621  CYS622 
 ASP623  PHE694  ASN695  SER759  ASP760  ASP761  ALA762  ILE779  LEU786  VAL792 
 PHE793  MET794  SER795  GLU796  ALA797  LYS798  CYS799  TRP800  GLU811  SER814 

> <Gold.Protein.RotatedAtoms>
  150.6972  134.1607  159.4174 H   0  0  0  0  0  0  0  0  0  0  0  0  # atno 6907 bound_to 6896
  151.9587  135.0132  160.0555 H   0  0  0  0  0  0  0  0  0  0  0  0  # atno 6908 bound_to 6896
  152.1946  133.4762  159.5063 H   0  0  0  0  0  0  0  0  0  0  0  0  # atno 6909 bound_to 6896
  144.7145  140.0562  143.6434 H   0  0  0  0  0  0  0  0  0  0  0  0  # atno 7974 bound_to 7965
  156.2677  140.2050  156.6164 H   0  0  0  0  0  0  0  0  0  0  0  0  # atno 8008 bound_to 7997
  154.6791  140.0542  157.0271 H   0  0  0  0  0  0  0  0  0  0  0  0  # atno 8009 bound_to 7997
  155.1026  140.3207  155.4546 H   0  0  0  0  0  0  0  0  0  0  0  0  # atno 8010 bound_to 7997
  140.5507  143.2312  151.6917 H   0  0  0  0  0  0  0  0  0  0  0  0  # atno 10167 bound_to 10162
  156.0834  130.4213  150.1182 H   0  0  0  0  0  0  0  0  0  0  0  0  # atno 10718 bound_to 10713
  154.8694  135.3689  154.4971 H   0  0  0  0  0  0  0  0  0  0  0  0  # atno 10763 bound_to 10752
  153.5614  135.7023  153.5550 H   0  0  0  0  0  0  0  0  0  0  0  0  # atno 10764 bound_to 10752
  153.3625  135.4043  155.1692 H   0  0  0  0  0  0  0  0  0  0  0  0  # atno 10765 bound_to 10752
  141.0343  133.6806  156.2650 H   0  0  0  0  0  0  0  0  0  0  0  0  # atno 11005 bound_to 11000
  145.9903  139.3009  143.0989 LP  0  0  0  0  0  0  0  0  0  0  0  0  # atno 17320 bound_to 7965
  145.8911  140.9303  143.0552 LP  0  0  0  0  0  0  0  0  0  0  0  0  # atno 17321 bound_to 7965
  139.5026  144.3823  152.0364 LP  0  0  0  0  0  0  0  0  0  0  0  0  # atno 17342 bound_to 10162
  140.2939  144.3722  150.6080 LP  0  0  0  0  0  0  0  0  0  0  0  0  # atno 17343 bound_to 10162
  156.9208  130.9682  151.3549 LP  0  0  0  0  0  0  0  0  0  0  0  0  # atno 17370 bound_to 10713
  157.5959  130.8477  149.8728 LP  0  0  0  0  0  0  0  0  0  0  0  0  # atno 17371 bound_to 10713
  140.6350  134.5225  157.5563 LP  0  0  0  0  0  0  0  0  0  0  0  0  # atno 17394 bound_to 11000
  139.9230  134.8112  156.1154 LP  0  0  0  0  0  0  0  0  0  0  0  0  # atno 17395 bound_to 11000

$$$$
