AV-unprocessed.smi:54|AV-procd|sdf|549|dock5
  -GOLD-   2262016443D 1   1.00000     0.00000
 Structure written by MMmdl.
 43 45  0  0  0  0  0  0  0  0  2 V2000
  145.8624  135.1280  162.3384 C   0  0  0  0  0  0  0  0  0  0  0  0
  146.7773  134.8859  161.1261 C   0  0  0  0  0  0  0  0  0  0  0  0
  147.6221  133.6144  161.3092 C   0  0  0  0  0  0  0  0  0  0  0  0
  147.6767  136.1039  160.8705 C   0  0  0  0  0  0  0  0  0  0  0  0
  147.5422  137.1073  161.5743 O   0  0  0  0  0  0  0  0  0  0  0  0
  148.5761  135.9581  159.8726 N   0  0  0  0  0  0  0  0  0  0  0  0
  149.5275  136.8721  159.4063 C   0  0  0  0  0  0  0  0  0  0  0  0
  149.0425  137.7240  158.5360 N   0  0  0  0  0  0  0  0  0  0  0  0
  149.9825  138.6419  158.1066 C   0  0  0  0  0  0  0  0  0  0  0  0
  151.2949  138.7299  158.4831 C   0  0  0  0  0  0  0  0  0  0  0  0
  151.9476  139.7571  157.8143 N   0  0  0  0  0  0  0  0  0  0  0  0
  150.9761  140.2507  157.0496 C   0  0  0  0  0  0  0  0  0  0  0  0
  149.7668  139.6671  157.1888 N   0  0  0  0  0  0  0  0  0  0  0  0
  148.5054  139.9757  156.4334 C   0  0  2  0  0  0  0  0  0  0  0  0
  148.1727  138.8677  155.6450 O   0  0  0  0  0  0  0  0  0  0  0  0
  148.5450  139.0834  154.2871 C   0  0  2  0  0  0  0  0  0  0  0  0
  149.9878  138.5842  154.0465 C   0  0  0  0  0  0  0  0  0  0  0  0
  150.0458  137.1733  154.0912 O   0  0  0  0  0  0  0  0  0  0  0  0
  148.3093  140.5906  154.1213 C   0  0  2  0  0  0  0  0  0  0  0  0
  149.0727  141.1581  153.0751 O   0  0  0  0  0  0  0  0  0  0  0  0
  148.6992  141.1704  155.4767 C   0  0  1  0  0  0  0  0  0  0  0  0
  147.8377  142.2429  155.8025 O   0  0  0  0  0  0  0  0  0  0  0  0
  151.7767  137.7413  159.4761 C   0  0  0  0  0  0  0  0  0  0  0  0
  152.9491  137.7850  159.8440 O   0  0  0  0  0  0  0  0  0  0  0  0
  150.8440  136.8410  159.9078 N   0  5  0  0  0  0  0  0  0  0  0  0
  147.7617  140.1357  157.2151 H   0  0  0  0  0  0  0  0  0  0  0  0
  147.8625  138.5142  153.6545 H   0  0  0  0  0  0  0  0  0  0  0  0
  147.2486  140.7559  153.9251 H   0  0  0  0  0  0  0  0  0  0  0  0
  149.7407  141.4957  155.4777 H   0  0  0  0  0  0  0  0  0  0  0  0
  145.2752  136.0390  162.2161 H   0  0  0  0  0  0  0  0  0  0  0  0
  146.4352  135.2223  163.2617 H   0  0  0  0  0  0  0  0  0  0  0  0
  145.1616  134.3030  162.4682 H   0  0  0  0  0  0  0  0  0  0  0  0
  146.1396  134.7398  160.2527 H   0  0  0  0  0  0  0  0  0  0  0  0
  148.2795  133.4485  160.4545 H   0  0  0  0  0  0  0  0  0  0  0  0
  146.9850  132.7350  161.4069 H   0  0  0  0  0  0  0  0  0  0  0  0
  148.2450  133.6712  162.2027 H   0  0  0  0  0  0  0  0  0  0  0  0
  148.6034  135.0388  159.4570 H   0  0  0  0  0  0  0  0  0  0  0  0
  151.1562  141.0647  156.3633 H   0  0  0  0  0  0  0  0  0  0  0  0
  150.3885  138.9437  153.0982 H   0  0  0  0  0  0  0  0  0  0  0  0
  150.6435  138.9539  154.8344 H   0  0  0  0  0  0  0  0  0  0  0  0
  149.7586  136.8354  153.2565 H   0  0  0  0  0  0  0  0  0  0  0  0
  149.3224  140.4683  152.4793 H   0  0  0  0  0  0  0  0  0  0  0  0
  148.1625  143.0251  155.3842 H   0  0  0  0  0  0  0  0  0  0  0  0
  1  2  1  0  0  0  0
  1 30  1  0  0  0  0
  1 31  1  0  0  0  0
  1 32  1  0  0  0  0
  2  3  1  0  0  0  0
  2  4  1  0  0  0  0
  2 33  1  0  0  0  0
  3 34  1  0  0  0  0
  3 35  1  0  0  0  0
  3 36  1  0  0  0  0
  4  5  2  0  0  0  0
  4  6  1  0  0  0  0
  6 37  1  0  0  0  0
  6  7  1  0  0  0  0
  7 25  1  0  0  0  0
  7  8  2  0  0  0  0
  8  9  1  0  0  0  0
  9 13  1  0  0  0  0
  9 10  2  0  0  0  0
 10 11  1  0  0  0  0
 10 23  1  0  0  0  0
 11 12  2  0  0  0  0
 12 13  1  0  0  0  0
 12 38  1  0  0  0  0
 13 14  1  0  0  0  0
 14 26  1  0  0  0  0
 14 21  1  0  0  0  0
 14 15  1  0  0  0  0
 15 16  1  0  0  0  0
 16 27  1  0  0  0  0
 16 17  1  0  0  0  0
 16 19  1  0  0  0  0
 17 18  1  0  0  0  0
 17 39  1  0  0  0  0
 17 40  1  0  0  0  0
 18 41  1  0  0  0  0
 19 28  1  0  0  0  0
 19 20  1  0  0  0  0
 19 21  1  0  0  0  0
 20 42  1  0  0  0  0
 21 29  1  0  0  0  0
 21 22  1  0  0  0  0
 22 43  1  0  0  0  0
 23 24  2  0  0  0  0
 23 25  1  0  0  0  0
M  CHG  1  25  -1
M  END
> <s_m_source_file>
AV-unprocessed.smi

> <i_m_source_file_index>
54

> <i_lp_mmshare_version>
43012

> <i_f3d_flags>
0

> <s_epik_input>
W0NIM11bQ0hdKFtDSDNdKUMoPU8pW05IXWMobjEpW25IXWMoPU8pYyhjMTIpbltjSF1uMltDQEBIXTNPW0NASF0oW0NIMl1bT0hdKVtDQEBIXShbT0hdKVtDQEhdM1tPSF0=

> <s_epik_cmdline>
J2VwaWtfcHl0aG9uJywgJy1waCcsICc3LjAnLCAnLXRuJywgJzgnLCAnLW1hJywgJzIwMCcsICctbWV0YWxfYmluZGluZycsICctaW1hZScsICc8aW5maWxlLm1hZT4nLCAnLW9tYWUnLCAnPG91dGZpbGUubWFlPic=

> <r_lp_tautomer_probability>
0.85571

> <r_epik_Ionization_Penalty>
1.75936

> <r_epik_Ionization_Penalty_Charging>
4.55893e-11

> <r_epik_Ionization_Penalty_Neutral>
1.75936

> <r_epik_State_Penalty>
1.72072

> <r_epik_Charging_Adjusted_Penalty>
1.72072

> <i_epik_Tot_Q>
-1

> <i_epik_Tot_abs_Q>
1

> <r_epik_Metal_State_Penalty>
0.400338

> <b_epik_Metal_Only>
1

> <s_epik_Chemistry_Notes>
This compound contains an acetal/aminal-like group ( X-CH(R)-Y where X, Y are N, S, or O) that may be acid/base labile, releasing an aldehyde.

> <s_lp_Force_Field>
OPLS_2005

> <r_lp_Energy>
58.7514

> <b_lp_Chiralities_Consistent>
1

> <s_lp_Variant>
AV-unprocessed.smi:54-21

> <Gold.Version>
5.8.1

> <Gold.Id.Protein>
6NUR|6NUR_protein|mol2

> <Gold.PLP.Fitness>
56.0566

> <Gold.PLP.PLP>
-35.2124

> <Gold.PLP.part.hbond>
-8.0712

> <Gold.PLP.part.metal>
0.0000

> <Gold.PLP.part.buried>
-5.0553

> <Gold.PLP.part.nonpolar>
-23.1733

> <Gold.PLP.part.repulsive>
0.1953

> <Gold.PLP.ligand.clash>
0.0000

> <Gold.PLP.ligand.torsion>
0.8764

> <Gold.PLP.Chemscore.Hbond>
7.5013

> <Gold.PLP.Chemscore.CHOScore>
0.0000

> <Gold.PLP.Chemscore.Metal>
0.0000

> <Gold.Chemscore.Hbonds>
donor molecule, donor type, donor heavy atom, donor atom, acceptor molecule, acceptor atom, score
      L1  H    18    41       P1  7948  1.00
      L1  H    20    42       P1  7957  0.68
      L1  H    22    43       P1  8028  0.91
      P1  H  6896  6908       L1    25  2.00
      P1  H  6931  6943       L1     5  0.99
      P1  H  6934  6947       L1     5  0.80
      P1  H  8011  8017       L1    20  0.95

> <Gold.PLP.Chemscore.Internal.Correction>
0.0933

> <Gold.Rescore>
     Score         DG    S(hbond)    S(metal)    S(lipo)     H(rot)  DE(clash)    DE(int)     intcor
     17.98     -18.92       5.40        0.00      48.73       4.02       0.05       0.89       ----

> <Gold.Chemscore.Fitness>
17.9816

> <Gold.Chemscore.DG>
-18.9225

> <Gold.Chemscore.ZeroCoef>
-5.4800

> <Gold.Chemscore.Hbond>
5.3984

> <Gold.Chemscore.Metal>
0.0000

> <Gold.Chemscore.Lipo>
48.7281

> <Gold.Chemscore.Internal_Hbond>
0.0000

> <Gold.Chemscore.DEClash>
0.0540

> <Gold.Chemscore.DEInternal>
0.8870

> <Gold.Chemscore.Rot>
4.0192

> <Gold.Chemscore.Internal.Correction>
   9.000000E+99

> <Gold.Chemscore.Hbonds>
donor molecule, donor type, donor heavy atom, donor atom, acceptor molecule, acceptor atom, score
      L1  H    18    41       P1  7948  0.40
      L1  H    20    42       P1  7957  0.66
      L1  H    22    43       P1  8028  0.85
      P1  H  6896  6908       L1    25  0.52
      P1  H  6931  6943       L1     5  0.93
      P1  H  6934  6947       L1     5  0.74
      P1  H  8011  8017       L1    20  0.21

> <Gold.Chemscore.Hbond.Weighted>
-18.0306

> <Gold.Chemscore.Metal.Weighted>
-0.0000

> <Gold.Chemscore.Lipo.Weighted>
-5.7012

> <Gold.Chemscore.Internal_Hbond.Weighted>
0.0000

> <Gold.Chemscore.DEClash.Weighted>
0.0540

> <Gold.Chemscore.DEInternal.Weighted>
0.8870

> <Gold.Chemscore.Rot.Weighted>
10.2893

> <Gold.Chemscore.Internal.Correction.Weighted>
   9.000000E+99

> <Gold.Protein.RotatedTorsions>
[ 6907 6896 6895 6894 ] final -135.16 input  -60.11 | X-H torsion
[ 7974 7965 7964 7962 ] final   33.70 input  175.53 | X-H torsion
[ 8008 7997 7996 7995 ] final  -72.91 input   59.86 | X-H torsion
[ 10167 10162 10161 10158 ] final  -29.85 input  -65.29 | X-H torsion
[ 10718 10713 10712 10709 ] final  -49.19 input   66.30 | X-H torsion
[ 10763 10752 10751 10750 ] final  112.93 input  -60.55 | X-H torsion
[ 11005 11000 10999 10996 ] final   80.82 input  -57.11 | X-H torsion

> <Gold.Protein.ActiveResidues>
 VAL166  LYS551  ARG553  GLY616  TRP617  ASP618  TYR619  PRO620  LYS621  CYS622 
 ASP623  PHE694  ASN695  SER759  ASP760  ASP761  ALA762  ILE779  LEU786  VAL792 
 PHE793  MET794  SER795  GLU796  ALA797  LYS798  CYS799  TRP800  GLU811  SER814 

> <Gold.Protein.RotatedAtoms>
  150.9946  133.6116  159.2703 H   0  0  0  0  0  0  0  0  0  0  0  0  # atno 6907 bound_to 6896
  151.3325  135.0844  159.9353 H   0  0  0  0  0  0  0  0  0  0  0  0  # atno 6908 bound_to 6896
  152.5256  133.9572  159.7754 H   0  0  0  0  0  0  0  0  0  0  0  0  # atno 6909 bound_to 6896
  146.1403  139.6363  142.9168 H   0  0  0  0  0  0  0  0  0  0  0  0  # atno 7974 bound_to 7965
  154.5204  140.0788  156.8161 H   0  0  0  0  0  0  0  0  0  0  0  0  # atno 8008 bound_to 7997
  155.3588  140.3417  155.4222 H   0  0  0  0  0  0  0  0  0  0  0  0  # atno 8009 bound_to 7997
  156.1675  140.1608  156.8493 H   0  0  0  0  0  0  0  0  0  0  0  0  # atno 8010 bound_to 7997
  140.7256  143.3895  151.1455 H   0  0  0  0  0  0  0  0  0  0  0  0  # atno 10167 bound_to 10162
  156.1917  130.4153  149.9363 H   0  0  0  0  0  0  0  0  0  0  0  0  # atno 10718 bound_to 10713
  153.4851  135.3671  155.2462 H   0  0  0  0  0  0  0  0  0  0  0  0  # atno 10763 bound_to 10752
  154.8754  135.3963  154.3655 H   0  0  0  0  0  0  0  0  0  0  0  0  # atno 10764 bound_to 10752
  153.4265  135.7081  153.6324 H   0  0  0  0  0  0  0  0  0  0  0  0  # atno 10765 bound_to 10752
  139.9120  134.7950  156.1960 H   0  0  0  0  0  0  0  0  0  0  0  0  # atno 11005 bound_to 11000
  145.5062  141.0436  143.2513 LP  0  0  0  0  0  0  0  0  0  0  0  0  # atno 17320 bound_to 7965
  144.7785  139.6578  143.7164 LP  0  0  0  0  0  0  0  0  0  0  0  0  # atno 17321 bound_to 7965
  139.7498  143.8796  152.3073 LP  0  0  0  0  0  0  0  0  0  0  0  0  # atno 17342 bound_to 10162
  139.8646  144.7100  150.9059 LP  0  0  0  0  0  0  0  0  0  0  0  0  # atno 17343 bound_to 10162
  156.7101  130.8966  151.3608 LP  0  0  0  0  0  0  0  0  0  0  0  0  # atno 17370 bound_to 10713
  157.6933  130.9255  150.0573 LP  0  0  0  0  0  0  0  0  0  0  0  0  # atno 17371 bound_to 10713
  141.0554  133.6868  156.1851 LP  0  0  0  0  0  0  0  0  0  0  0  0  # atno 17394 bound_to 11000
  140.6745  134.4833  157.5588 LP  0  0  0  0  0  0  0  0  0  0  0  0  # atno 17395 bound_to 11000

$$$$
