AV-unprocessed.smi:2446|AV-procd|sdf|9642|dock4
  -GOLD-   2272013273D 1   1.00000     0.00000
 Structure written by MMmdl.
 39 40  0  0  0  0  0  0  0  0  1 V2000
  155.0791  140.7994  161.0754 C   0  0  0  0  0  0  0  0  0  0  0  0
  154.0212  141.8806  161.2169 C   0  0  0  0  0  0  0  0  0  0  0  0
  154.0076  142.7070  162.3610 C   0  0  0  0  0  0  0  0  0  0  0  0
  153.1021  143.6861  162.5637 N   0  0  0  0  0  0  0  0  0  0  0  0
  152.1585  143.8750  161.6188 C   0  0  0  0  0  0  0  0  0  0  0  0
  152.0781  143.1100  160.4389 C   0  0  0  0  0  0  0  0  0  0  0  0
  153.0382  142.0925  160.2197 C   0  0  0  0  0  0  0  0  0  0  0  0
  153.0421  141.2491  159.0736 N   0  0  0  0  0  0  0  0  0  0  0  0
  152.2358  141.2682  157.9938 C   0  0  0  0  0  0  0  0  0  0  0  0
  151.2989  142.0461  157.8287 O   0  0  0  0  0  0  0  0  0  0  0  0
  152.5484  140.3511  157.0593 N   0  0  0  0  0  0  0  0  0  0  0  0
  151.8893  140.0973  155.7757 C   0  0  1  0  0  0  0  0  0  0  0  0
  152.2617  138.6894  155.2777 C   0  0  0  0  0  0  0  0  0  0  0  0
  151.5451  138.3556  153.9606 C   0  0  0  0  0  0  0  0  0  0  0  0
  150.0218  138.5038  154.1002 C   0  0  0  0  0  0  0  0  0  0  0  0
  149.6309  139.9148  154.5879 C   0  0  1  0  0  0  0  0  0  0  0  0
  148.1028  140.0836  154.7131 C   0  0  0  0  0  0  0  0  0  0  0  0
  147.4862  139.6633  153.6080 F   0  0  0  0  0  0  0  0  0  0  0  0
  147.6506  139.3816  155.7525 F   0  0  0  0  0  0  0  0  0  0  0  0
  147.8002  141.3661  154.9145 F   0  0  0  0  0  0  0  0  0  0  0  0
  150.3576  140.2368  155.9109 C   0  0  0  0  0  0  0  0  0  0  0  0
  155.7349  140.7706  161.9461 H   0  0  0  0  0  0  0  0  0  0  0  0
  155.6957  140.9830  160.1951 H   0  0  0  0  0  0  0  0  0  0  0  0
  154.6121  139.8195  160.9726 H   0  0  0  0  0  0  0  0  0  0  0  0
  154.7443  142.5794  163.1407 H   0  0  0  0  0  0  0  0  0  0  0  0
  151.4393  144.6575  161.8110 H   0  0  0  0  0  0  0  0  0  0  0  0
  151.2808  143.3116  159.7409 H   0  0  0  0  0  0  0  0  0  0  0  0
  153.8073  140.5923  159.0312 H   0  0  0  0  0  0  0  0  0  0  0  0
  153.3363  139.7549  157.2682 H   0  0  0  0  0  0  0  0  0  0  0  0
  152.2490  140.8132  155.0343 H   0  0  0  0  0  0  0  0  0  0  0  0
  153.3408  138.6162  155.1362 H   0  0  0  0  0  0  0  0  0  0  0  0
  151.9972  137.9459  156.0312 H   0  0  0  0  0  0  0  0  0  0  0  0
  151.9060  139.0152  153.1705 H   0  0  0  0  0  0  0  0  0  0  0  0
  151.7922  137.3396  153.6515 H   0  0  0  0  0  0  0  0  0  0  0  0
  149.5497  138.2939  153.1402 H   0  0  0  0  0  0  0  0  0  0  0  0
  149.6472  137.7538  154.7979 H   0  0  0  0  0  0  0  0  0  0  0  0
  149.9751  140.6307  153.8396 H   0  0  0  0  0  0  0  0  0  0  0  0
  149.9976  139.5720  156.6974 H   0  0  0  0  0  0  0  0  0  0  0  0
  150.1040  141.2480  156.2290 H   0  0  0  0  0  0  0  0  0  0  0  0
  1  2  1  0  0  0  0
  1 22  1  0  0  0  0
  1 23  1  0  0  0  0
  1 24  1  0  0  0  0
  2  7  1  0  0  0  0
  2  3  2  0  0  0  0
  3  4  1  0  0  0  0
  3 25  1  0  0  0  0
  4  5  2  0  0  0  0
  5  6  1  0  0  0  0
  5 26  1  0  0  0  0
  6  7  2  0  0  0  0
  6 27  1  0  0  0  0
  7  8  1  0  0  0  0
  8  9  1  0  0  0  0
  8 28  1  0  0  0  0
  9 10  2  0  0  0  0
  9 11  1  0  0  0  0
 11 12  1  0  0  0  0
 11 29  1  0  0  0  0
 12 21  1  0  0  0  0
 12 13  1  0  0  0  0
 12 30  1  0  0  0  0
 13 14  1  0  0  0  0
 13 31  1  0  0  0  0
 13 32  1  0  0  0  0
 14 15  1  0  0  0  0
 14 33  1  0  0  0  0
 14 34  1  0  0  0  0
 15 16  1  0  0  0  0
 15 35  1  0  0  0  0
 15 36  1  0  0  0  0
 16 17  1  0  0  0  0
 16 21  1  0  0  0  0
 16 37  1  0  0  0  0
 17 18  1  0  0  0  0
 17 19  1  0  0  0  0
 17 20  1  0  0  0  0
 21 38  1  0  0  0  0
 21 39  1  0  0  0  0
M  END
> <s_m_source_file>
AV-unprocessed.smi

> <i_m_source_file_index>
2446

> <i_lp_mmshare_version>
43012

> <i_f3d_flags>
0

> <s_epik_input>
W0NIM11jMVtjSF1uW2NIXVtjSF1jMVtOSF1DKD1PKVtOSF1bQ0BASF0yW0NIMl1bQ0gyXVtDSDJdW0NAQEhdKEMoRikoRilGKVtDSDJdMg==

> <s_epik_cmdline>
J2VwaWtfcHl0aG9uJywgJy1waCcsICc3LjAnLCAnLXRuJywgJzgnLCAnLW1hJywgJzIwMCcsICctbWV0YWxfYmluZGluZycsICctaW1hZScsICc8aW5maWxlLm1hZT4nLCAnLW9tYWUnLCAnPG91dGZpbGUubWFlPic=

> <r_epik_Ionization_Penalty>
0.20168

> <r_epik_Ionization_Penalty_Charging>
0

> <r_epik_Ionization_Penalty_Neutral>
0.20168

> <r_epik_State_Penalty>
0.191514

> <r_epik_Charging_Adjusted_Penalty>
0.191514

> <i_epik_Tot_Q>
0

> <i_epik_Tot_abs_Q>
0

> <r_epik_Metal_State_Penalty>
0.142371

> <b_epik_Metal_Only>
0

> <s_lp_Force_Field>
OPLS_2005

> <r_lp_Energy>
26.2068

> <b_lp_Chiralities_Consistent>
1

> <s_lp_Variant>
AV-unprocessed.smi:2446-2

> <Gold.Version>
5.8.1

> <Gold.Id.Protein>
6NUR|6NUR_protein|mol2

> <Gold.PLP.Fitness>
42.8258

> <Gold.PLP.PLP>
-43.6296

> <Gold.PLP.part.hbond>
0.0000

> <Gold.PLP.part.metal>
0.0000

> <Gold.PLP.part.buried>
1.6795

> <Gold.PLP.part.nonpolar>
-44.0820

> <Gold.PLP.part.repulsive>
0.9625

> <Gold.PLP.ligand.clash>
0.0000

> <Gold.PLP.ligand.torsion>
0.4109

> <Gold.PLP.Chemscore.Hbond>
0.0000

> <Gold.PLP.Chemscore.CHOScore>
0.0000

> <Gold.PLP.Chemscore.Metal>
0.0000

> <Gold.PLP.Chemscore.Internal.Correction>
0.0179

> <Gold.Rescore>
     Score         DG    S(hbond)    S(metal)    S(lipo)     H(rot)  DE(clash)    DE(int)     intcor
     12.97     -15.78       0.00        0.00     109.95       1.00       0.26       2.55       ----

> <Gold.Chemscore.Fitness>
12.9718

> <Gold.Chemscore.DG>
-15.7836

> <Gold.Chemscore.ZeroCoef>
-5.4800

> <Gold.Chemscore.Hbond>
0.0000

> <Gold.Chemscore.Metal>
0.0000

> <Gold.Chemscore.Lipo>
109.9451

> <Gold.Chemscore.Internal_Hbond>
0.0000

> <Gold.Chemscore.DEClash>
0.2608

> <Gold.Chemscore.DEInternal>
2.5510

> <Gold.Chemscore.Rot>
1.0000

> <Gold.Chemscore.Internal.Correction>
   9.000000E+99

> <Gold.Chemscore.Hbond.Weighted>
-0.0000

> <Gold.Chemscore.Metal.Weighted>
-0.0000

> <Gold.Chemscore.Lipo.Weighted>
-12.8636

> <Gold.Chemscore.Internal_Hbond.Weighted>
0.0000

> <Gold.Chemscore.DEClash.Weighted>
0.2608

> <Gold.Chemscore.DEInternal.Weighted>
2.5510

> <Gold.Chemscore.Rot.Weighted>
2.5600

> <Gold.Chemscore.Internal.Correction.Weighted>
   9.000000E+99

> <Gold.Protein.RotatedTorsions>
[ 6907 6896 6895 6894 ] final  -53.17 input  -60.11 | X-H torsion
[ 7974 7965 7964 7962 ] final   -2.07 input  175.53 | X-H torsion
[ 8008 7997 7996 7995 ] final -123.16 input   59.86 | X-H torsion
[ 10167 10162 10161 10158 ] final   83.43 input  -65.29 | X-H torsion
[ 10718 10713 10712 10709 ] final  -22.08 input   66.30 | X-H torsion
[ 10763 10752 10751 10750 ] final  123.51 input  -60.55 | X-H torsion
[ 11005 11000 10999 10996 ] final  -13.61 input  -57.11 | X-H torsion

> <Gold.Protein.ActiveResidues>
 VAL166  LYS551  ARG553  GLY616  TRP617  ASP618  TYR619  PRO620  LYS621  CYS622 
 ASP623  PHE694  ASN695  SER759  ASP760  ASP761  ALA762  ILE779  LEU786  VAL792 
 PHE793  MET794  SER795  GLU796  ALA797  LYS798  CYS799  TRP800  GLU811  SER814 

> <Gold.Protein.RotatedAtoms>
  150.8451  134.7756  159.6963 H   0  0  0  0  0  0  0  0  0  0  0  0  # atno 6907 bound_to 6896
  152.4529  134.5351  159.9832 H   0  0  0  0  0  0  0  0  0  0  0  0  # atno 6908 bound_to 6896
  151.5483  133.3383  159.2984 H   0  0  0  0  0  0  0  0  0  0  0  0  # atno 6909 bound_to 6896
  146.2409  140.1515  142.8334 H   0  0  0  0  0  0  0  0  0  0  0  0  # atno 7974 bound_to 7965
  155.1760  140.0409  157.2872 H   0  0  0  0  0  0  0  0  0  0  0  0  # atno 8008 bound_to 7997
  154.6236  140.2507  155.7491 H   0  0  0  0  0  0  0  0  0  0  0  0  # atno 8009 bound_to 7997
  156.2447  140.2889  156.0556 H   0  0  0  0  0  0  0  0  0  0  0  0  # atno 8010 bound_to 7997
  139.9185  144.6227  150.8464 H   0  0  0  0  0  0  0  0  0  0  0  0  # atno 10167 bound_to 10162
  156.5094  130.4606  149.6656 H   0  0  0  0  0  0  0  0  0  0  0  0  # atno 10718 bound_to 10713
  153.6467  135.3370  155.3088 H   0  0  0  0  0  0  0  0  0  0  0  0  # atno 10763 bound_to 10752
  154.8547  135.4331  154.1947 H   0  0  0  0  0  0  0  0  0  0  0  0  # atno 10764 bound_to 10752
  153.2880  135.7014  153.7395 H   0  0  0  0  0  0  0  0  0  0  0  0  # atno 10765 bound_to 10752
  140.7779  133.8386  155.9265 H   0  0  0  0  0  0  0  0  0  0  0  0  # atno 11005 bound_to 11000
  145.0164  140.8757  143.5193 LP  0  0  0  0  0  0  0  0  0  0  0  0  # atno 17320 bound_to 7965
  145.1557  139.2488  143.5418 LP  0  0  0  0  0  0  0  0  0  0  0  0  # atno 17321 bound_to 7965
  140.7668  143.3314  151.2402 LP  0  0  0  0  0  0  0  0  0  0  0  0  # atno 17342 bound_to 10162
  139.6882  143.9738  152.2845 LP  0  0  0  0  0  0  0  0  0  0  0  0  # atno 17343 bound_to 10162
  156.3255  130.7303  151.2223 LP  0  0  0  0  0  0  0  0  0  0  0  0  # atno 17370 bound_to 10713
  157.7452  131.0444  150.4792 LP  0  0  0  0  0  0  0  0  0  0  0  0  # atno 17371 bound_to 10713
  140.9511  134.1777  157.4727 LP  0  0  0  0  0  0  0  0  0  0  0  0  # atno 17394 bound_to 11000
  139.8746  134.9909  156.5526 LP  0  0  0  0  0  0  0  0  0  0  0  0  # atno 17395 bound_to 11000

$$$$
