AV-unprocessed.smi:2136|AV-procd|sdf|8704|dock2
  -GOLD-   2272011463D 1   1.00000     0.00000
 Structure written by MMmdl.
 43 44  0  0  0  0  0  0  0  0  2 V2000
  146.5144  133.1904  157.8022 C   0  0  0  0  0  0  0  0  0  0  0  0
  148.1013  134.0514  158.1677 S   0  0  0  0  0  0  0  0  0  0  0  0
  149.2082  133.0863  158.0801 O   0  0  0  0  0  0  0  0  0  0  0  0
  148.1288  135.2603  157.3296 O   0  0  0  0  0  0  0  0  0  0  0  0
  147.9324  134.5544  159.8365 N   0  0  0  0  0  0  0  0  0  0  0  0
  147.1473  133.6407  160.7023 C   0  0  0  0  0  0  0  0  0  0  0  0
  147.2940  133.9424  162.1993 C   0  0  0  0  0  0  0  0  0  0  0  0
  146.9724  135.4023  162.4941 C   0  0  0  0  0  0  0  0  0  0  0  0
  147.9370  136.2678  161.6895 C   0  0  0  0  0  0  0  0  0  0  0  0
  147.8282  136.0114  160.1662 C   0  0  1  0  0  0  0  0  0  0  0  0
  148.8346  136.9294  159.4520 C   0  0  0  0  0  0  0  0  0  0  0  0
  150.0457  136.7513  159.5899 O   0  0  0  0  0  0  0  0  0  0  0  0
  148.3233  137.9091  158.6903 N   0  0  0  0  0  0  0  0  0  0  0  0
  149.1069  138.8674  157.9211 C   0  0  0  0  0  0  0  0  0  0  0  0
  149.0275  138.5851  156.4111 C   0  0  0  0  0  0  0  0  0  0  0  0
  148.4790  139.7657  155.6336 C   0  0  0  0  0  0  0  0  0  0  0  0
  147.4028  139.5932  154.7352 C   0  0  0  0  0  0  0  0  0  0  0  0
  146.9100  140.7071  154.0241 C   0  0  0  0  0  0  0  0  0  0  0  0
  147.5063  141.9687  154.2257 C   0  0  0  0  0  0  0  0  0  0  0  0
  148.5352  142.0952  155.0924 N   0  3  0  0  0  0  0  0  0  0  0  0
  149.0348  141.0536  155.7937 C   0  0  0  0  0  0  0  0  0  0  0  0
  146.4520  132.9982  156.7314 H   0  0  0  0  0  0  0  0  0  0  0  0
  145.6789  133.8221  158.1027 H   0  0  0  0  0  0  0  0  0  0  0  0
  146.4635  132.2400  158.3283 H   0  0  0  0  0  0  0  0  0  0  0  0
  146.0983  133.7006  160.4095 H   0  0  0  0  0  0  0  0  0  0  0  0
  147.4642  132.6115  160.5347 H   0  0  0  0  0  0  0  0  0  0  0  0
  146.6323  133.2931  162.7731 H   0  0  0  0  0  0  0  0  0  0  0  0
  148.3099  133.7128  162.5240 H   0  0  0  0  0  0  0  0  0  0  0  0
  145.9397  135.6287  162.2265 H   0  0  0  0  0  0  0  0  0  0  0  0
  147.0796  135.6057  163.5599 H   0  0  0  0  0  0  0  0  0  0  0  0
  147.7378  137.3185  161.9058 H   0  0  0  0  0  0  0  0  0  0  0  0
  148.9536  136.0738  162.0366 H   0  0  0  0  0  0  0  0  0  0  0  0
  146.8284  136.3242  159.8594 H   0  0  0  0  0  0  0  0  0  0  0  0
  147.3179  137.9793  158.6216 H   0  0  0  0  0  0  0  0  0  0  0  0
  148.7704  139.8816  158.1433 H   0  0  0  0  0  0  0  0  0  0  0  0
  150.1421  138.8031  158.2575 H   0  0  0  0  0  0  0  0  0  0  0  0
  150.0161  138.3284  156.0279 H   0  0  0  0  0  0  0  0  0  0  0  0
  148.3905  137.7208  156.2183 H   0  0  0  0  0  0  0  0  0  0  0  0
  146.9583  138.6186  154.5935 H   0  0  0  0  0  0  0  0  0  0  0  0
  146.0868  140.5945  153.3336 H   0  0  0  0  0  0  0  0  0  0  0  0
  147.1941  142.8733  153.7240 H   0  0  0  0  0  0  0  0  0  0  0  0
  149.8577  141.2821  156.4556 H   0  0  0  0  0  0  0  0  0  0  0  0
  148.9532  143.0169  155.2230 H   0  0  0  0  0  0  0  0  0  0  0  0
  1  2  1  0  0  0  0
  1 22  1  0  0  0  0
  1 23  1  0  0  0  0
  1 24  1  0  0  0  0
  2  3  2  0  0  0  0
  2  4  2  0  0  0  0
  2  5  1  0  0  0  0
  5 10  1  0  0  0  0
  5  6  1  0  0  0  0
  6  7  1  0  0  0  0
  6 25  1  0  0  0  0
  6 26  1  0  0  0  0
  7  8  1  0  0  0  0
  7 27  1  0  0  0  0
  7 28  1  0  0  0  0
  8  9  1  0  0  0  0
  8 29  1  0  0  0  0
  8 30  1  0  0  0  0
  9 10  1  0  0  0  0
  9 31  1  0  0  0  0
  9 32  1  0  0  0  0
 10 11  1  0  0  0  0
 10 33  1  0  0  0  0
 11 12  2  0  0  0  0
 11 13  1  0  0  0  0
 13 14  1  0  0  0  0
 13 34  1  0  0  0  0
 14 15  1  0  0  0  0
 14 35  1  0  0  0  0
 14 36  1  0  0  0  0
 15 16  1  0  0  0  0
 15 37  1  0  0  0  0
 15 38  1  0  0  0  0
 16 21  1  0  0  0  0
 16 17  2  0  0  0  0
 17 18  1  0  0  0  0
 17 39  1  0  0  0  0
 18 19  2  0  0  0  0
 18 40  1  0  0  0  0
 19 20  1  0  0  0  0
 19 41  1  0  0  0  0
 20 21  2  0  0  0  0
 20 43  1  0  0  0  0
 21 42  1  0  0  0  0
M  CHG  1  20   1
M  END
> <s_m_source_file>
AV-unprocessed.smi

> <i_m_source_file_index>
2136

> <i_lp_mmshare_version>
43012

> <i_f3d_flags>
0

> <s_epik_input>
W0NIM11TKD1PKSg9TylOMVtDSDJdW0NIMl1bQ0gyXVtDSDJdW0NASF0xQyg9TylbTkhdW0NIMl1bQ0gyXWMyW2NIXVtjSF1bY0hdbltjSF0y

> <s_epik_cmdline>
J2VwaWtfcHl0aG9uJywgJy1waCcsICc3LjAnLCAnLXRuJywgJzgnLCAnLW1hJywgJzIwMCcsICctbWV0YWxfYmluZGluZycsICctaW1hZScsICc8aW5maWxlLm1hZT4nLCAnLW9tYWUnLCAnPG91dGZpbGUubWFlPic=

> <r_epik_Ionization_Penalty>
2.2835

> <r_epik_Ionization_Penalty_Charging>
2.2835

> <r_epik_Ionization_Penalty_Neutral>
1.35461e-07

> <r_epik_State_Penalty>
2.43297

> <r_epik_Charging_Adjusted_Penalty>
4.71647

> <i_epik_Tot_Q>
1

> <i_epik_Tot_abs_Q>
1

> <r_epik_Metal_State_Penalty>
2.44557

> <b_epik_Metal_Only>
0

> <s_lp_Force_Field>
OPLS_2005

> <r_lp_Energy>
13.1957

> <b_lp_Chiralities_Consistent>
1

> <s_lp_Variant>
AV-unprocessed.smi:2136-3

> <Gold.Version>
5.8.1

> <Gold.Id.Protein>
6NUR|6NUR_protein|mol2

> <Gold.PLP.Fitness>
41.5025

> <Gold.PLP.PLP>
-30.7398

> <Gold.PLP.part.hbond>
-3.0000

> <Gold.PLP.part.metal>
0.0000

> <Gold.PLP.part.buried>
-5.1852

> <Gold.PLP.part.nonpolar>
-23.3060

> <Gold.PLP.part.repulsive>
0.3500

> <Gold.PLP.ligand.clash>
0.0000

> <Gold.PLP.ligand.torsion>
1.6962

> <Gold.PLP.Chemscore.Hbond>
4.0000

> <Gold.PLP.Chemscore.CHOScore>
0.0000

> <Gold.PLP.Chemscore.Metal>
0.0000

> <Gold.Chemscore.Hbonds>
donor molecule, donor type, donor heavy atom, donor atom, acceptor molecule, acceptor atom, score
      L1  H    20    43       P1  8028  2.00
      P1  H  6896  6907       L1    12  1.00
      P1  H  6896  6909       L1     3  0.59

> <Gold.PLP.Chemscore.Internal.Correction>
2.1551

> <Gold.Rescore>
     Score         DG    S(hbond)    S(metal)    S(lipo)     H(rot)  DE(clash)    DE(int)     intcor
     15.92     -18.87       2.94        0.00      66.63       1.65       0.00       2.95       ----

> <Gold.Chemscore.Fitness>
15.9156

> <Gold.Chemscore.DG>
-18.8682

> <Gold.Chemscore.ZeroCoef>
-5.4800

> <Gold.Chemscore.Hbond>
2.9420

> <Gold.Chemscore.Metal>
0.0000

> <Gold.Chemscore.Lipo>
66.6305

> <Gold.Chemscore.Internal_Hbond>
0.0000

> <Gold.Chemscore.DEClash>
0.0000

> <Gold.Chemscore.DEInternal>
2.9526

> <Gold.Chemscore.Rot>
1.6538

> <Gold.Chemscore.Internal.Correction>
   9.000000E+99

> <Gold.Chemscore.Hbonds>
donor molecule, donor type, donor heavy atom, donor atom, acceptor molecule, acceptor atom, score
      L1  H    20    43       P1  8028  0.96
      P1  H  6896  6907       L1    12  0.94
      P1  H  6896  6909       L1     3  0.53

> <Gold.Chemscore.Hbond.Weighted>
-9.8261

> <Gold.Chemscore.Metal.Weighted>
-0.0000

> <Gold.Chemscore.Lipo.Weighted>
-7.7958

> <Gold.Chemscore.Internal_Hbond.Weighted>
0.0000

> <Gold.Chemscore.DEClash.Weighted>
0.0000

> <Gold.Chemscore.DEInternal.Weighted>
2.9526

> <Gold.Chemscore.Rot.Weighted>
4.2337

> <Gold.Chemscore.Internal.Correction.Weighted>
   9.000000E+99

> <Gold.Protein.RotatedTorsions>
[ 6907 6896 6895 6894 ] final  -22.13 input  -60.11 | X-H torsion
[ 7974 7965 7964 7962 ] final  -80.46 input  175.53 | X-H torsion
[ 8008 7997 7996 7995 ] final -158.84 input   59.86 | X-H torsion
[ 10167 10162 10161 10158 ] final -127.52 input  -65.29 | X-H torsion
[ 10718 10713 10712 10709 ] final   -8.68 input   66.30 | X-H torsion
[ 10763 10752 10751 10750 ] final   20.82 input  -60.55 | X-H torsion
[ 11005 11000 10999 10996 ] final  161.15 input  -57.11 | X-H torsion

> <Gold.Protein.ActiveResidues>
 VAL166  LYS551  ARG553  GLY616  TRP617  ASP618  TYR619  PRO620  LYS621  CYS622 
 ASP623  PHE694  ASN695  SER759  ASP760  ASP761  ALA762  ILE779  LEU786  VAL792 
 PHE793  MET794  SER795  GLU796  ALA797  LYS798  CYS799  TRP800  GLU811  SER814 

> <Gold.Protein.RotatedAtoms>
  151.2231  135.0526  159.8957 H   0  0  0  0  0  0  0  0  0  0  0  0  # atno 6907 bound_to 6896
  152.5413  134.0618  159.8166 H   0  0  0  0  0  0  0  0  0  0  0  0  # atno 6908 bound_to 6896
  151.0787  133.5359  159.2654 H   0  0  0  0  0  0  0  0  0  0  0  0  # atno 6909 bound_to 6896
  145.5597  140.9484  143.1454 H   0  0  0  0  0  0  0  0  0  0  0  0  # atno 7974 bound_to 7965
  155.7536  140.0830  157.2189 H   0  0  0  0  0  0  0  0  0  0  0  0  # atno 8008 bound_to 7997
  154.4010  140.1556  156.2809 H   0  0  0  0  0  0  0  0  0  0  0  0  # atno 8009 bound_to 7997
  155.8906  140.3415  155.5956 H   0  0  0  0  0  0  0  0  0  0  0  0  # atno 8010 bound_to 7997
  139.9600  143.5960  152.2448 H   0  0  0  0  0  0  0  0  0  0  0  0  # atno 10167 bound_to 10162
  156.6991  130.5088  149.5922 H   0  0  0  0  0  0  0  0  0  0  0  0  # atno 10718 bound_to 10713
  153.1045  135.6681  153.9611 H   0  0  0  0  0  0  0  0  0  0  0  0  # atno 10763 bound_to 10752
  153.9172  135.3018  155.3449 H   0  0  0  0  0  0  0  0  0  0  0  0  # atno 10764 bound_to 10752
  154.7467  135.5054  153.9292 H   0  0  0  0  0  0  0  0  0  0  0  0  # atno 10765 bound_to 10752
  140.2129  134.8254  157.3140 H   0  0  0  0  0  0  0  0  0  0  0  0  # atno 11005 bound_to 11000
  144.7489  139.7246  143.7281 LP  0  0  0  0  0  0  0  0  0  0  0  0  # atno 17320 bound_to 7965
  146.1860  139.5075  142.9836 LP  0  0  0  0  0  0  0  0  0  0  0  0  # atno 17321 bound_to 7965
  139.6561  144.7662  151.2052 LP  0  0  0  0  0  0  0  0  0  0  0  0  # atno 17342 bound_to 10162
  140.7556  143.6083  150.8631 LP  0  0  0  0  0  0  0  0  0  0  0  0  # atno 17343 bound_to 10162
  156.1742  130.6457  151.0874 LP  0  0  0  0  0  0  0  0  0  0  0  0  # atno 17370 bound_to 10713
  157.6980  131.0787  150.6910 LP  0  0  0  0  0  0  0  0  0  0  0  0  # atno 17371 bound_to 10713
  140.1931  134.4346  155.7704 LP  0  0  0  0  0  0  0  0  0  0  0  0  # atno 17394 bound_to 11000
  141.2225  133.7036  156.8061 LP  0  0  0  0  0  0  0  0  0  0  0  0  # atno 17395 bound_to 11000

$$$$
