AV-unprocessed.smi:1817|AV-procd|sdf|7376|dock4
  -GOLD-   22720 9 43D 1   1.00000     0.00000
 Structure written by MMmdl.
 42 43  0  0  0  0  0  0  0  0  3 V2000
  144.1130  131.7171  150.4029 C   0  0  0  0  0  0  0  0  0  0  0  0
  144.1185  133.1611  150.9247 C   0  0  0  0  0  0  0  0  0  0  0  0
  145.2850  133.9087  150.4498 N   0  0  0  0  0  0  0  0  0  0  0  0
  145.2139  135.3306  150.7841 C   0  0  0  0  0  0  0  0  0  0  0  0
  145.3933  135.5859  152.2953 C   0  0  0  0  0  0  0  0  0  0  0  0
  146.6905  135.0442  152.7858 N   0  3  0  0  0  0  0  0  0  0  0  0
  146.9553  135.3027  154.2391 C   0  0  2  0  0  0  0  0  0  0  0  0
  146.9362  136.8079  154.5857 C   0  0  0  0  0  0  0  0  0  0  0  0
  148.2993  134.6985  154.7134 C   0  0  0  0  0  0  0  0  0  0  0  0
  149.4205  135.5892  154.4234 N   0  0  0  0  0  0  0  0  0  0  0  0
  150.2890  136.0878  155.3117 C   0  0  0  0  0  0  0  0  0  0  0  0
  150.1905  135.7973  156.5057 O   0  0  0  0  0  0  0  0  0  0  0  0
  151.2183  136.8956  154.7542 N   0  5  0  0  0  0  0  0  0  0  0  0
  151.3229  138.1741  155.1535 C   0  0  0  0  0  0  0  0  0  0  0  0
  152.4047  138.6384  155.7990 N   0  0  0  0  0  0  0  0  0  0  0  0
  152.3121  139.9862  156.1193 N   0  0  0  0  0  0  0  0  0  0  0  0
  151.1613  140.5086  155.6959 C   0  0  0  0  0  0  0  0  0  0  0  0
  150.0873  139.4024  154.8656 S   0  0  0  0  0  0  0  0  0  0  0  0
  146.7970  133.6056  152.4163 C   0  0  0  0  0  0  0  0  0  0  0  0
  146.5801  133.3959  150.9033 C   0  0  0  0  0  0  0  0  0  0  0  0
  143.1798  131.2203  150.6685 H   0  0  0  0  0  0  0  0  0  0  0  0
  144.9235  131.1250  150.8267 H   0  0  0  0  0  0  0  0  0  0  0  0
  144.2032  131.6887  149.3165 H   0  0  0  0  0  0  0  0  0  0  0  0
  143.2195  133.6549  150.5538 H   0  0  0  0  0  0  0  0  0  0  0  0
  144.0474  133.1692  152.0116 H   0  0  0  0  0  0  0  0  0  0  0  0
  145.9912  135.8590  150.2301 H   0  0  0  0  0  0  0  0  0  0  0  0
  144.2635  135.7407  150.4409 H   0  0  0  0  0  0  0  0  0  0  0  0
  145.3530  136.6647  152.4375 H   0  0  0  0  0  0  0  0  0  0  0  0
  144.5684  135.1610  152.8687 H   0  0  0  0  0  0  0  0  0  0  0  0
  146.1577  134.8285  154.8134 H   0  0  0  0  0  0  0  0  0  0  0  0
  147.2441  136.9760  155.6180 H   0  0  0  0  0  0  0  0  0  0  0  0
  145.9398  137.2398  154.4953 H   0  0  0  0  0  0  0  0  0  0  0  0
  147.6146  137.3745  153.9467 H   0  0  0  0  0  0  0  0  0  0  0  0
  148.2414  134.4717  155.7793 H   0  0  0  0  0  0  0  0  0  0  0  0
  148.4873  133.7402  154.2295 H   0  0  0  0  0  0  0  0  0  0  0  0
  149.5573  135.8544  153.4597 H   0  0  0  0  0  0  0  0  0  0  0  0
  150.9449  141.5521  155.8700 H   0  0  0  0  0  0  0  0  0  0  0  0
  147.7892  133.2253  152.6529 H   0  0  0  0  0  0  0  0  0  0  0  0
  146.0924  133.0144  153.0021 H   0  0  0  0  0  0  0  0  0  0  0  0
  146.6832  132.3417  150.6488 H   0  0  0  0  0  0  0  0  0  0  0  0
  147.3672  133.9122  150.3516 H   0  0  0  0  0  0  0  0  0  0  0  0
  147.4134  135.5287  152.2728 H   0  0  0  0  0  0  0  0  0  0  0  0
  1  2  1  0  0  0  0
  1 21  1  0  0  0  0
  1 22  1  0  0  0  0
  1 23  1  0  0  0  0
  2  3  1  0  0  0  0
  2 24  1  0  0  0  0
  2 25  1  0  0  0  0
  3 20  1  0  0  0  0
  3  4  1  0  0  0  0
  4  5  1  0  0  0  0
  4 26  1  0  0  0  0
  4 27  1  0  0  0  0
  5  6  1  0  0  0  0
  5 28  1  0  0  0  0
  5 29  1  0  0  0  0
  6  7  1  0  0  0  0
  6 19  1  0  0  0  0
  6 42  1  0  0  0  0
  7  8  1  0  0  0  0
  7  9  1  0  0  0  0
  7 30  1  0  0  0  0
  8 31  1  0  0  0  0
  8 32  1  0  0  0  0
  8 33  1  0  0  0  0
  9 10  1  0  0  0  0
  9 34  1  0  0  0  0
  9 35  1  0  0  0  0
 10 11  1  0  0  0  0
 10 36  1  0  0  0  0
 11 12  2  0  0  0  0
 11 13  1  0  0  0  0
 13 14  1  0  0  0  0
 14 18  1  0  0  0  0
 14 15  2  0  0  0  0
 15 16  1  0  0  0  0
 16 17  2  0  0  0  0
 17 18  1  0  0  0  0
 17 37  1  0  0  0  0
 19 20  1  0  0  0  0
 19 38  1  0  0  0  0
 19 39  1  0  0  0  0
 20 40  1  0  0  0  0
 20 41  1  0  0  0  0
M  CHG  1   6   1
M  CHG  1  13  -1
M  END
> <s_m_source_file>
AV-unprocessed.smi

> <i_m_source_file_index>
1817

> <i_lp_mmshare_version>
43012

> <i_f3d_flags>
0

> <s_epik_input>
W0NIM11bQ0gyXU4xW0NIMl1bQ0gyXU4oW0NIMl1bQ0gyXTEpW0NASF0oW0NIM10pW0NIMl1bTkhdQyg9TylbTkhdYzJubltjSF1zMg==

> <s_epik_cmdline>
J2VwaWtfcHl0aG9uJywgJy1waCcsICc3LjAnLCAnLXRuJywgJzgnLCAnLW1hJywgJzIwMCcsICctbWV0YWxfYmluZGluZycsICctaW1hZScsICc8aW5maWxlLm1hZT4nLCAnLW9tYWUnLCAnPG91dGZpbGUubWFlPic=

> <r_epik_Ionization_Penalty>
3.16835

> <r_epik_Ionization_Penalty_Charging>
3.13468

> <r_epik_Ionization_Penalty_Neutral>
0.0336711

> <r_epik_State_Penalty>
3.95884

> <r_epik_Charging_Adjusted_Penalty>
7.09351

> <i_epik_Tot_Q>
0

> <i_epik_Tot_abs_Q>
2

> <r_epik_Metal_State_Penalty>
1.39003

> <b_epik_Metal_Only>
1

> <s_lp_Force_Field>
OPLS_2005

> <r_lp_Energy>
20.7646

> <b_lp_Chiralities_Consistent>
1

> <s_lp_Variant>
AV-unprocessed.smi:1817-9

> <Gold.Version>
5.8.1

> <Gold.Id.Protein>
6NUR|6NUR_protein|mol2

> <Gold.PLP.Fitness>
46.8612

> <Gold.PLP.PLP>
-32.3810

> <Gold.PLP.part.hbond>
-4.0000

> <Gold.PLP.part.metal>
0.0000

> <Gold.PLP.part.buried>
-5.1191

> <Gold.PLP.part.nonpolar>
-23.8384

> <Gold.PLP.part.repulsive>
0.4117

> <Gold.PLP.ligand.clash>
0.0000

> <Gold.PLP.ligand.torsion>
1.4359

> <Gold.PLP.Chemscore.Hbond>
5.7500

> <Gold.PLP.Chemscore.CHOScore>
0.0000

> <Gold.PLP.Chemscore.Metal>
0.0000

> <Gold.Chemscore.Hbonds>
donor molecule, donor type, donor heavy atom, donor atom, acceptor molecule, acceptor atom, score
      L1  H     6    42       P1  7948  2.00
      L1  H    10    36       P1  7948  0.95
      P1  H  7997  8009       L1    16  0.47
      P1  H 10752 10764       L1    13  1.40

> <Gold.PLP.Chemscore.Internal.Correction>
0.1020

> <Gold.Rescore>
     Score         DG    S(hbond)    S(metal)    S(lipo)     H(rot)  DE(clash)    DE(int)     intcor
     15.63     -17.27       2.82        0.00      61.34       1.88       0.07       1.56       ----

> <Gold.Chemscore.Fitness>
15.6336

> <Gold.Chemscore.DG>
-17.2667

> <Gold.Chemscore.ZeroCoef>
-5.4800

> <Gold.Chemscore.Hbond>
2.8230

> <Gold.Chemscore.Metal>
0.0000

> <Gold.Chemscore.Lipo>
61.3418

> <Gold.Chemscore.Internal_Hbond>
0.0000

> <Gold.Chemscore.DEClash>
0.0738

> <Gold.Chemscore.DEInternal>
1.5593

> <Gold.Chemscore.Rot>
1.8825

> <Gold.Chemscore.Internal.Correction>
   9.000000E+99

> <Gold.Chemscore.Hbonds>
donor molecule, donor type, donor heavy atom, donor atom, acceptor molecule, acceptor atom, score
      L1  H     6    42       P1  7948  1.00
      L1  H    10    36       P1  7948  0.21
      P1  H  7997  8009       L1    16  0.03
      P1  H 10752 10764       L1    13  0.35

> <Gold.Chemscore.Hbond.Weighted>
-9.4288

> <Gold.Chemscore.Metal.Weighted>
-0.0000

> <Gold.Chemscore.Lipo.Weighted>
-7.1770

> <Gold.Chemscore.Internal_Hbond.Weighted>
0.0000

> <Gold.Chemscore.DEClash.Weighted>
0.0738

> <Gold.Chemscore.DEInternal.Weighted>
1.5593

> <Gold.Chemscore.Rot.Weighted>
4.8191

> <Gold.Chemscore.Internal.Correction.Weighted>
   9.000000E+99

> <Gold.Protein.RotatedTorsions>
[ 6907 6896 6895 6894 ] final   79.12 input  -60.11 | X-H torsion
[ 7974 7965 7964 7962 ] final  168.11 input  175.53 | X-H torsion
[ 8008 7997 7996 7995 ] final -178.77 input   59.86 | X-H torsion
[ 10167 10162 10161 10158 ] final   -3.66 input  -65.29 | X-H torsion
[ 10718 10713 10712 10709 ] final -117.39 input   66.30 | X-H torsion
[ 10763 10752 10751 10750 ] final  -70.81 input  -60.55 | X-H torsion
[ 11005 11000 10999 10996 ] final -144.77 input  -57.11 | X-H torsion

> <Gold.Protein.ActiveResidues>
 VAL166  LYS551  ARG553  GLY616  TRP617  ASP618  TYR619  PRO620  LYS621  CYS622 
 ASP623  PHE694  ASN695  SER759  ASP760  ASP761  ALA762  ILE779  LEU786  VAL792 
 PHE793  MET794  SER795  GLU796  ALA797  LYS798  CYS799  TRP800  GLU811  SER814 

> <Gold.Protein.RotatedAtoms>
  152.5186  134.3559  159.9267 H   0  0  0  0  0  0  0  0  0  0  0  0  # atno 6907 bound_to 6896
  151.3511  133.3919  159.2688 H   0  0  0  0  0  0  0  0  0  0  0  0  # atno 6908 bound_to 6896
  150.9727  134.9115  159.7855 H   0  0  0  0  0  0  0  0  0  0  0  0  # atno 6909 bound_to 6896
  144.7400  139.8859  143.6399 H   0  0  0  0  0  0  0  0  0  0  0  0  # atno 7974 bound_to 7965
  156.0227  140.1264  157.0340 H   0  0  0  0  0  0  0  0  0  0  0  0  # atno 8008 bound_to 7997
  154.4318  140.1065  156.6057 H   0  0  0  0  0  0  0  0  0  0  0  0  # atno 8009 bound_to 7997
  155.5921  140.3469  155.4571 H   0  0  0  0  0  0  0  0  0  0  0  0  # atno 8010 bound_to 7997
  140.6898  143.6514  150.8347 H   0  0  0  0  0  0  0  0  0  0  0  0  # atno 10167 bound_to 10162
  156.1030  130.6187  150.9157 H   0  0  0  0  0  0  0  0  0  0  0  0  # atno 10718 bound_to 10713
  154.4229  135.5982  153.6021 H   0  0  0  0  0  0  0  0  0  0  0  0  # atno 10763 bound_to 10752
  152.9795  135.5956  154.3933 H   0  0  0  0  0  0  0  0  0  0  0  0  # atno 10764 bound_to 10752
  154.3760  135.2841  155.2217 H   0  0  0  0  0  0  0  0  0  0  0  0  # atno 10765 bound_to 10752
  140.7990  134.2879  157.4985 H   0  0  0  0  0  0  0  0  0  0  0  0  # atno 11005 bound_to 11000
  146.1178  139.4191  143.0247 LP  0  0  0  0  0  0  0  0  0  0  0  0  # atno 17320 bound_to 7965
  145.7350  141.0029  143.1331 LP  0  0  0  0  0  0  0  0  0  0  0  0  # atno 17321 bound_to 7965
  140.0225  143.5527  152.2794 LP  0  0  0  0  0  0  0  0  0  0  0  0  # atno 17342 bound_to 10162
  139.6291  144.7641  151.2575 LP  0  0  0  0  0  0  0  0  0  0  0  0  # atno 17343 bound_to 10162
  157.6203  131.0930  150.8634 LP  0  0  0  0  0  0  0  0  0  0  0  0  # atno 17370 bound_to 10713
  156.8758  130.5162  149.5294 LP  0  0  0  0  0  0  0  0  0  0  0  0  # atno 17371 bound_to 10713
  139.8723  134.9418  156.3809 LP  0  0  0  0  0  0  0  0  0  0  0  0  # atno 17394 bound_to 11000
  140.9313  133.7577  156.0029 LP  0  0  0  0  0  0  0  0  0  0  0  0  # atno 17395 bound_to 11000

$$$$
