AV-unprocessed.smi:712|AV-procd|sdf|3472|dock9
  -GOLD-   22720 0463D 1   1.00000     0.00000
 Structure written by MMmdl.
 50 51  0  0  0  0  0  0  0  0  1 V2000
  151.0091  143.0008  157.1206 C   0  0  0  0  0  0  0  0  0  0  0  0
  151.0872  141.6179  156.5076 C   0  0  0  0  0  0  0  0  0  0  0  0
  150.4700  141.3449  155.2272 C   0  0  0  0  0  0  0  0  0  0  0  0
  150.5343  140.1038  154.7220 C   0  0  0  0  0  0  0  0  0  0  0  0
  151.1936  139.0591  155.3952 N   0  0  0  0  0  0  0  0  0  0  0  0
  151.1556  137.7323  154.7530 C   0  0  0  0  0  0  0  0  0  0  0  0
  150.5292  136.6294  155.6241 C   0  0  0  0  0  0  0  0  0  0  0  0
  151.1814  136.1528  156.5520 O   0  0  0  0  0  0  0  0  0  0  0  0
  149.2957  136.2039  155.3056 N   0  0  0  0  0  0  0  0  0  0  0  0
  148.5986  135.0732  155.9054 C   0  0  0  0  0  0  0  0  0  0  0  0
  148.4454  133.9234  154.8948 C   0  0  2  0  0  0  0  0  0  0  0  0
  147.3273  134.1797  153.8595 C   0  0  0  0  0  0  0  0  0  0  0  0
  147.1476  133.0497  152.9526 N   0  0  0  0  0  0  0  0  0  0  0  0
  146.0805  133.2704  151.9745 C   0  0  0  0  0  0  0  0  0  0  0  0
  146.0402  132.2857  150.7854 C   0  0  0  0  0  0  0  0  0  0  0  0
  145.2171  132.8703  149.6290 C   0  0  0  0  0  0  0  0  0  0  0  0
  145.4911  130.9096  151.1963 C   0  0  0  0  0  0  0  0  0  0  0  0
  146.8953  131.8481  153.7395 C   0  0  0  0  0  0  0  0  0  0  0  0
  148.0068  131.5928  154.7715 C   0  0  0  0  0  0  0  0  0  0  0  0
  148.1448  132.7315  155.6153 O   0  0  0  0  0  0  0  0  0  0  0  0
  151.8132  139.2547  156.5983 C   0  0  0  0  0  0  0  0  0  0  0  0
  152.3890  138.3445  157.1942 O   0  0  0  0  0  0  0  0  0  0  0  0
  151.7285  140.6139  157.1459 C   0  0  0  0  0  0  0  0  0  0  0  0
  150.1983  143.5790  156.6766 H   0  0  0  0  0  0  0  0  0  0  0  0
  151.9431  143.5388  156.9586 H   0  0  0  0  0  0  0  0  0  0  0  0
  150.8285  142.9372  158.1941 H   0  0  0  0  0  0  0  0  0  0  0  0
  149.9560  142.1259  154.6867 H   0  0  0  0  0  0  0  0  0  0  0  0
  150.0838  139.8302  153.7787 H   0  0  0  0  0  0  0  0  0  0  0  0
  150.5949  137.7945  153.8189 H   0  0  0  0  0  0  0  0  0  0  0  0
  152.1556  137.4103  154.4587 H   0  0  0  0  0  0  0  0  0  0  0  0
  148.8273  136.6630  154.5380 H   0  0  0  0  0  0  0  0  0  0  0  0
  149.1162  134.7272  156.8015 H   0  0  0  0  0  0  0  0  0  0  0  0
  147.6157  135.4156  156.2298 H   0  0  0  0  0  0  0  0  0  0  0  0
  149.3952  133.7848  154.3742 H   0  0  0  0  0  0  0  0  0  0  0  0
  146.3911  134.3905  154.3784 H   0  0  0  0  0  0  0  0  0  0  0  0
  147.5780  135.0735  153.2901 H   0  0  0  0  0  0  0  0  0  0  0  0
  145.1186  133.2134  152.4861 H   0  0  0  0  0  0  0  0  0  0  0  0
  146.1508  134.2897  151.5918 H   0  0  0  0  0  0  0  0  0  0  0  0
  147.0504  132.1478  150.4030 H   0  0  0  0  0  0  0  0  0  0  0  0
  144.1823  133.0433  149.9262 H   0  0  0  0  0  0  0  0  0  0  0  0
  145.2090  132.1959  148.7721 H   0  0  0  0  0  0  0  0  0  0  0  0
  145.6315  133.8214  149.2932 H   0  0  0  0  0  0  0  0  0  0  0  0
  144.4844  130.9913  151.6070 H   0  0  0  0  0  0  0  0  0  0  0  0
  146.1224  130.4400  151.9510 H   0  0  0  0  0  0  0  0  0  0  0  0
  145.4485  130.2323  150.3431 H   0  0  0  0  0  0  0  0  0  0  0  0
  145.9386  131.9387  154.2566 H   0  0  0  0  0  0  0  0  0  0  0  0
  146.8123  130.9838  153.0796 H   0  0  0  0  0  0  0  0  0  0  0  0
  147.7640  130.7236  155.3829 H   0  0  0  0  0  0  0  0  0  0  0  0
  148.9550  131.3810  154.2748 H   0  0  0  0  0  0  0  0  0  0  0  0
  152.1915  140.8107  158.1022 H   0  0  0  0  0  0  0  0  0  0  0  0
  1  2  1  0  0  0  0
  1 24  1  0  0  0  0
  1 25  1  0  0  0  0
  1 26  1  0  0  0  0
  2 23  2  0  0  0  0
  2  3  1  0  0  0  0
  3  4  2  0  0  0  0
  3 27  1  0  0  0  0
  4  5  1  0  0  0  0
  4 28  1  0  0  0  0
  5  6  1  0  0  0  0
  5 21  1  0  0  0  0
  6  7  1  0  0  0  0
  6 29  1  0  0  0  0
  6 30  1  0  0  0  0
  7  8  2  0  0  0  0
  7  9  1  0  0  0  0
  9 10  1  0  0  0  0
  9 31  1  0  0  0  0
 10 11  1  0  0  0  0
 10 32  1  0  0  0  0
 10 33  1  0  0  0  0
 11 20  1  0  0  0  0
 11 12  1  0  0  0  0
 11 34  1  0  0  0  0
 12 13  1  0  0  0  0
 12 35  1  0  0  0  0
 12 36  1  0  0  0  0
 13 14  1  0  0  0  0
 13 18  1  0  0  0  0
 14 15  1  0  0  0  0
 14 37  1  0  0  0  0
 14 38  1  0  0  0  0
 15 16  1  0  0  0  0
 15 17  1  0  0  0  0
 15 39  1  0  0  0  0
 16 40  1  0  0  0  0
 16 41  1  0  0  0  0
 16 42  1  0  0  0  0
 17 43  1  0  0  0  0
 17 44  1  0  0  0  0
 17 45  1  0  0  0  0
 18 19  1  0  0  0  0
 18 46  1  0  0  0  0
 18 47  1  0  0  0  0
 19 20  1  0  0  0  0
 19 48  1  0  0  0  0
 19 49  1  0  0  0  0
 21 22  2  0  0  0  0
 21 23  1  0  0  0  0
 23 50  1  0  0  0  0
M  END
> <s_m_source_file>
AV-unprocessed.smi

> <i_m_source_file_index>
712

> <i_lp_mmshare_version>
43012

> <i_f3d_flags>
0

> <s_epik_input>
W0NIM11jMVtjSF1bY0hdbihjKD1PKVtjSF0xKVtDSDJdQyg9TylbTkhdW0NIMl1bQ0BASF0yW0NIMl1OKFtDSDJdW0NIMl1PMilbQ0gyXVtDSF0oW0NIM10pW0NIM10=

> <s_epik_cmdline>
J2VwaWtfcHl0aG9uJywgJy1waCcsICc3LjAnLCAnLXRuJywgJzgnLCAnLW1hJywgJzIwMCcsICctbWV0YWxfYmluZGluZycsICctaW1hZScsICc8aW5maWxlLm1hZT4nLCAnLW9tYWUnLCAnPG91dGZpbGUubWFlPic=

> <r_lp_tautomer_probability>
1

> <r_epik_Ionization_Penalty>
1.11669

> <r_epik_Ionization_Penalty_Charging>
4.93496e-07

> <r_epik_Ionization_Penalty_Neutral>
1.11669

> <r_epik_State_Penalty>
1.17516

> <r_epik_Charging_Adjusted_Penalty>
1.17516

> <i_epik_Tot_Q>
0

> <i_epik_Tot_abs_Q>
0

> <r_epik_Metal_State_Penalty>
1.17513

> <b_epik_Metal_Only>
0

> <s_lp_Force_Field>
OPLS_2005

> <r_lp_Energy>
32.9939

> <b_lp_Chiralities_Consistent>
1

> <s_lp_Variant>
AV-unprocessed.smi:712-5

> <Gold.Version>
5.8.1

> <Gold.Id.Protein>
6NUR|6NUR_protein|mol2

> <Gold.PLP.Fitness>
49.9199

> <Gold.PLP.PLP>
-42.3264

> <Gold.PLP.part.hbond>
-2.8672

> <Gold.PLP.part.metal>
0.0000

> <Gold.PLP.part.buried>
1.4238

> <Gold.PLP.part.nonpolar>
-39.9599

> <Gold.PLP.part.repulsive>
0.2523

> <Gold.PLP.ligand.clash>
0.0000

> <Gold.PLP.ligand.torsion>
0.5848

> <Gold.PLP.Chemscore.Hbond>
1.9425

> <Gold.PLP.Chemscore.CHOScore>
0.9465

> <Gold.PLP.Chemscore.Metal>
0.0000

> <Gold.Chemscore.Hbonds>
donor molecule, donor type, donor heavy atom, donor atom, acceptor molecule, acceptor atom, score
      L1  C     4    28       P1  7957  0.66

> <Gold.PLP.Chemscore.Internal.Correction>
0.0960

> <Gold.Rescore>
     Score         DG    S(hbond)    S(metal)    S(lipo)     H(rot)  DE(clash)    DE(int)     intcor
     16.50     -18.13       1.81        0.00      96.36       1.82       0.05       1.58       ----

> <Gold.Chemscore.Fitness>
16.4957

> <Gold.Chemscore.DG>
-18.1291

> <Gold.Chemscore.ZeroCoef>
-5.4800

> <Gold.Chemscore.Hbond>
1.8099

> <Gold.Chemscore.Metal>
0.0000

> <Gold.Chemscore.Lipo>
96.3619

> <Gold.Chemscore.Internal_Hbond>
0.0000

> <Gold.Chemscore.DEClash>
0.0484

> <Gold.Chemscore.DEInternal>
1.5850

> <Gold.Chemscore.Rot>
1.8243

> <Gold.Chemscore.Internal.Correction>
   9.000000E+99

> <Gold.Chemscore.Hbond.Weighted>
-6.0450

> <Gold.Chemscore.Metal.Weighted>
-0.0000

> <Gold.Chemscore.Lipo.Weighted>
-11.2743

> <Gold.Chemscore.Internal_Hbond.Weighted>
0.0000

> <Gold.Chemscore.DEClash.Weighted>
0.0484

> <Gold.Chemscore.DEInternal.Weighted>
1.5850

> <Gold.Chemscore.Rot.Weighted>
4.6703

> <Gold.Chemscore.Internal.Correction.Weighted>
   9.000000E+99

> <Gold.Protein.RotatedTorsions>
[ 6907 6896 6895 6894 ] final  120.26 input  -60.11 | X-H torsion
[ 7974 7965 7964 7962 ] final   69.29 input  175.53 | X-H torsion
[ 8008 7997 7996 7995 ] final  -36.48 input   59.86 | X-H torsion
[ 10167 10162 10161 10158 ] final   68.63 input  -65.29 | X-H torsion
[ 10718 10713 10712 10709 ] final -135.36 input   66.30 | X-H torsion
[ 10763 10752 10751 10750 ] final  174.40 input  -60.55 | X-H torsion
[ 11005 11000 10999 10996 ] final  -91.25 input  -57.11 | X-H torsion

> <Gold.Protein.ActiveResidues>
 VAL166  LYS551  ARG553  GLY616  TRP617  ASP618  TYR619  PRO620  LYS621  CYS622 
 ASP623  PHE694  ASN695  SER759  ASP760  ASP761  ALA762  ILE779  LEU786  VAL792 
 PHE793  MET794  SER795  GLU796  ALA797  LYS798  CYS799  TRP800  GLU811  SER814 

> <Gold.Protein.RotatedAtoms>
  152.4411  133.7451  159.6662 H   0  0  0  0  0  0  0  0  0  0  0  0  # atno 6907 bound_to 6896
  150.8302  133.8093  159.3107 H   0  0  0  0  0  0  0  0  0  0  0  0  # atno 6908 bound_to 6896
  151.5749  135.1063  160.0055 H   0  0  0  0  0  0  0  0  0  0  0  0  # atno 6909 bound_to 6896
  145.7922  139.2940  143.1203 H   0  0  0  0  0  0  0  0  0  0  0  0  # atno 7974 bound_to 7965
  154.4072  140.1629  156.2380 H   0  0  0  0  0  0  0  0  0  0  0  0  # atno 8008 bound_to 7997
  155.9225  140.3420  155.6162 H   0  0  0  0  0  0  0  0  0  0  0  0  # atno 8009 bound_to 7997
  155.7204  140.0767  157.2323 H   0  0  0  0  0  0  0  0  0  0  0  0  # atno 8010 bound_to 7997
  140.0765  144.5107  150.7191 H   0  0  0  0  0  0  0  0  0  0  0  0  # atno 10167 bound_to 10162
  156.2654  130.7234  151.1183 H   0  0  0  0  0  0  0  0  0  0  0  0  # atno 10718 bound_to 10713
  154.4534  135.2765  155.1764 H   0  0  0  0  0  0  0  0  0  0  0  0  # atno 10763 bound_to 10752
  154.3582  135.6135  153.5681 H   0  0  0  0  0  0  0  0  0  0  0  0  # atno 10764 bound_to 10752
  152.9849  135.5828  154.4883 H   0  0  0  0  0  0  0  0  0  0  0  0  # atno 10765 bound_to 10752
  141.1549  133.7744  156.9853 H   0  0  0  0  0  0  0  0  0  0  0  0  # atno 11005 bound_to 11000
  145.9964  140.8558  143.0040 LP  0  0  0  0  0  0  0  0  0  0  0  0  # atno 17320 bound_to 7965
  144.6780  140.2290  143.7357 LP  0  0  0  0  0  0  0  0  0  0  0  0  # atno 17321 bound_to 7965
  140.7099  143.2497  151.4613 LP  0  0  0  0  0  0  0  0  0  0  0  0  # atno 17342 bound_to 10162
  139.5804  144.1722  152.1961 LP  0  0  0  0  0  0  0  0  0  0  0  0  # atno 17343 bound_to 10162
  157.7265  131.0645  150.5905 LP  0  0  0  0  0  0  0  0  0  0  0  0  # atno 17370 bound_to 10713
  156.5997  130.4351  149.5902 LP  0  0  0  0  0  0  0  0  0  0  0  0  # atno 17371 bound_to 10713
  140.1039  134.9519  157.1964 LP  0  0  0  0  0  0  0  0  0  0  0  0  # atno 17394 bound_to 11000
  140.3282  134.2839  155.7233 LP  0  0  0  0  0  0  0  0  0  0  0  0  # atno 17395 bound_to 11000

$$$$
