AV-unprocessed.smi:1047|AV-procd|sdf|4586|dock3
  -GOLD-   22720 3 63D 1   1.00000     0.00000
 Structure written by MMmdl.
 58 60  0  0  0  0  0  0  0  0  4 V2000
  144.8853  143.7645  155.1162 C   0  0  0  0  0  0  0  0  0  0  0  0
  145.8157  142.7860  154.3858 C   0  0  0  0  0  0  0  0  0  0  0  0
  147.1002  142.5841  155.1073 N   0  3  1  0  0  0  0  0  0  0  0  0
  146.9580  142.2567  156.5485 C   0  0  0  0  0  0  0  0  0  0  0  0
  146.5709  140.7805  156.7541 C   0  0  0  0  0  0  0  0  0  0  0  0
  147.5222  139.9427  156.1082 O   0  0  0  0  0  0  0  0  0  0  0  0
  147.5790  140.1575  154.7011 C   0  0  2  0  0  0  0  0  0  0  0  0
  148.5866  139.1568  154.1139 C   0  0  0  0  0  0  0  0  0  0  0  0
  147.9133  137.9405  153.6140 N   0  3  0  0  0  0  0  0  0  0  0  0
  146.5694  138.1848  153.0514 C   0  0  0  0  0  0  0  0  0  0  0  0
  145.8612  136.8664  152.6959 C   0  0  1  0  0  0  0  0  0  0  0  0
  144.4891  136.9905  153.0146 O   0  0  0  0  0  0  0  0  0  0  0  0
  146.0156  136.5153  151.2031 C   0  0  0  0  0  0  0  0  0  0  0  0
  145.2361  135.3318  150.8091 N   0  0  0  0  0  0  0  0  0  0  0  0
  144.1141  135.2488  150.0426 C   0  0  0  0  0  0  0  0  0  0  0  0
  143.7558  133.9370  149.9776 N   0  3  0  0  0  0  0  0  0  0  0  0
  144.6585  133.1699  150.7163 C   0  0  0  0  0  0  0  0  0  0  0  0
  144.7085  131.8011  150.9510 C   0  0  0  0  0  0  0  0  0  0  0  0
  145.7651  131.3228  151.7580 C   0  0  0  0  0  0  0  0  0  0  0  0
  145.8444  129.8319  152.0395 C   0  0  0  0  0  0  0  0  0  0  0  0
  146.7307  132.2117  152.2977 C   0  0  0  0  0  0  0  0  0  0  0  0
  147.8625  131.6877  153.1653 C   0  0  0  0  0  0  0  0  0  0  0  0
  146.6649  133.6004  152.0432 C   0  0  0  0  0  0  0  0  0  0  0  0
  145.6134  134.0571  151.2512 C   0  0  0  0  0  0  0  0  0  0  0  0
  148.0116  141.6182  154.4445 C   0  0  0  0  0  0  0  0  0  0  0  0
  143.9955  143.9649  154.5190 H   0  0  0  0  0  0  0  0  0  0  0  0
  145.3807  144.7188  155.2982 H   0  0  0  0  0  0  0  0  0  0  0  0
  144.5474  143.3723  156.0751 H   0  0  0  0  0  0  0  0  0  0  0  0
  145.3099  141.8360  154.2149 H   0  0  0  0  0  0  0  0  0  0  0  0
  146.0229  143.2033  153.3996 H   0  0  0  0  0  0  0  0  0  0  0  0
  147.9170  142.4436  157.0339 H   0  0  0  0  0  0  0  0  0  0  0  0
  146.2403  142.9148  157.0365 H   0  0  0  0  0  0  0  0  0  0  0  0
  146.5621  140.5432  157.8180 H   0  0  0  0  0  0  0  0  0  0  0  0
  145.5682  140.5724  156.3792 H   0  0  0  0  0  0  0  0  0  0  0  0
  146.5972  139.9772  154.2595 H   0  0  0  0  0  0  0  0  0  0  0  0
  149.1275  139.6170  153.2858 H   0  0  0  0  0  0  0  0  0  0  0  0
  149.3261  138.8842  154.8683 H   0  0  0  0  0  0  0  0  0  0  0  0
  148.4887  137.5283  152.8931 H   0  0  0  0  0  0  0  0  0  0  0  0
  145.9709  138.7639  153.7567 H   0  0  0  0  0  0  0  0  0  0  0  0
  146.6807  138.7943  152.1535 H   0  0  0  0  0  0  0  0  0  0  0  0
  146.2802  136.0554  153.2937 H   0  0  0  0  0  0  0  0  0  0  0  0
  144.4126  137.2190  153.9290 H   0  0  0  0  0  0  0  0  0  0  0  0
  145.7452  137.3580  150.5667 H   0  0  0  0  0  0  0  0  0  0  0  0
  147.0606  136.2936  150.9822 H   0  0  0  0  0  0  0  0  0  0  0  0
  143.5971  136.0738  149.5740 H   0  0  0  0  0  0  0  0  0  0  0  0
  143.9693  131.1304  150.5376 H   0  0  0  0  0  0  0  0  0  0  0  0
  145.6799  129.6358  153.0994 H   0  0  0  0  0  0  0  0  0  0  0  0
  146.8218  129.4375  151.7616 H   0  0  0  0  0  0  0  0  0  0  0  0
  145.0917  129.2788  151.4766 H   0  0  0  0  0  0  0  0  0  0  0  0
  148.4640  132.5018  153.5709 H   0  0  0  0  0  0  0  0  0  0  0  0
  148.5212  131.0424  152.5836 H   0  0  0  0  0  0  0  0  0  0  0  0
  147.4704  131.1158  154.0069 H   0  0  0  0  0  0  0  0  0  0  0  0
  147.4050  134.2722  152.4518 H   0  0  0  0  0  0  0  0  0  0  0  0
  148.0733  141.8250  153.3753 H   0  0  0  0  0  0  0  0  0  0  0  0
  149.0156  141.7747  154.8421 H   0  0  0  0  0  0  0  0  0  0  0  0
  147.8240  137.2794  154.3729 H   0  0  0  0  0  0  0  0  0  0  0  0
  147.5673  143.4788  155.0606 H   0  0  0  0  0  0  0  0  0  0  0  0
  142.9505  133.5933  149.4697 H   0  0  0  0  0  0  0  0  0  0  0  0
  1  2  1  0  0  0  0
  1 26  1  0  0  0  0
  1 27  1  0  0  0  0
  1 28  1  0  0  0  0
  2  3  1  0  0  0  0
  2 29  1  0  0  0  0
  2 30  1  0  0  0  0
  3 25  1  0  0  0  0
  3  4  1  0  0  0  0
  3 57  1  0  0  0  0
  4  5  1  0  0  0  0
  4 31  1  0  0  0  0
  4 32  1  0  0  0  0
  5  6  1  0  0  0  0
  5 33  1  0  0  0  0
  5 34  1  0  0  0  0
  6  7  1  0  0  0  0
  7  8  1  0  0  0  0
  7 25  1  0  0  0  0
  7 35  1  0  0  0  0
  8  9  1  0  0  0  0
  8 36  1  0  0  0  0
  8 37  1  0  0  0  0
  9 10  1  0  0  0  0
  9 38  1  0  0  0  0
  9 56  1  0  0  0  0
 10 11  1  0  0  0  0
 10 39  1  0  0  0  0
 10 40  1  0  0  0  0
 11 12  1  0  0  0  0
 11 13  1  0  0  0  0
 11 41  1  0  0  0  0
 12 42  1  0  0  0  0
 13 14  1  0  0  0  0
 13 43  1  0  0  0  0
 13 44  1  0  0  0  0
 14 24  1  0  0  0  0
 14 15  1  0  0  0  0
 15 16  2  0  0  0  0
 15 45  1  0  0  0  0
 16 17  1  0  0  0  0
 16 58  1  0  0  0  0
 17 24  2  0  0  0  0
 17 18  1  0  0  0  0
 18 19  2  0  0  0  0
 18 46  1  0  0  0  0
 19 20  1  0  0  0  0
 19 21  1  0  0  0  0
 20 47  1  0  0  0  0
 20 48  1  0  0  0  0
 20 49  1  0  0  0  0
 21 22  1  0  0  0  0
 21 23  2  0  0  0  0
 22 50  1  0  0  0  0
 22 51  1  0  0  0  0
 22 52  1  0  0  0  0
 23 24  1  0  0  0  0
 23 53  1  0  0  0  0
 25 54  1  0  0  0  0
 25 55  1  0  0  0  0
M  CHG  1   3   1
M  CHG  1   9   1
M  CHG  1  16   1
M  END
> <s_m_source_file>
AV-unprocessed.smi

> <i_m_source_file_index>
1047

> <i_lp_mmshare_version>
43012

> <i_f3d_flags>
0

> <s_epik_input>
W0NIM11bQ0gyXU4xW0NIMl1bQ0gyXU9bQ0BIXShbQ0gyXTEpW0NIMl1bTkhdW0NIMl1bQ0BIXShbT0hdKVtDSDJdbihbY0hdbjIpYyhjMjMpW2NIXWMoW0NIM10pYyhbY0hdMylbQ0gzXQ==

> <s_epik_cmdline>
J2VwaWtfcHl0aG9uJywgJy1waCcsICc3LjAnLCAnLXRuJywgJzgnLCAnLW1hJywgJzIwMCcsICctbWV0YWxfYmluZGluZycsICctaW1hZScsICc8aW5maWxlLm1hZT4nLCAnLW9tYWUnLCAnPG91dGZpbGUubWFlPic=

> <r_epik_Ionization_Penalty>
1.6114

> <r_epik_Ionization_Penalty_Charging>
1.61139

> <r_epik_Ionization_Penalty_Neutral>
5.04732e-06

> <r_epik_State_Penalty>
1.63724

> <r_epik_Charging_Adjusted_Penalty>
3.24864

> <i_epik_Tot_Q>
3

> <i_epik_Tot_abs_Q>
3

> <r_epik_Metal_State_Penalty>
5.64594

> <b_epik_Metal_Only>
0

> <s_lp_Force_Field>
OPLS_2005

> <r_lp_Energy>
39.9268

> <b_lp_Chiralities_Consistent>
1

> <s_lp_Variant>
AV-unprocessed.smi:1047-27

> <Gold.Version>
5.8.1

> <Gold.Id.Protein>
6NUR|6NUR_protein|mol2

> <Gold.PLP.Fitness>
57.9188

> <Gold.PLP.PLP>
-42.1756

> <Gold.PLP.part.hbond>
-3.0000

> <Gold.PLP.part.metal>
0.0000

> <Gold.PLP.part.buried>
-2.3748

> <Gold.PLP.part.nonpolar>
-36.9255

> <Gold.PLP.part.repulsive>
0.1570

> <Gold.PLP.ligand.clash>
0.0000

> <Gold.PLP.ligand.torsion>
1.3006

> <Gold.PLP.Chemscore.Hbond>
5.0880

> <Gold.PLP.Chemscore.CHOScore>
1.0000

> <Gold.PLP.Chemscore.Metal>
0.0000

> <Gold.Chemscore.Hbonds>
donor molecule, donor type, donor heavy atom, donor atom, acceptor molecule, acceptor atom, score
      L1  H     3    57       P1  8028  1.80
      L1  H     9    38       P1  7948  2.00
      L1  H    16    58       P1 10186  0.82
      L1  C    15    45       P1 10171  1.00

> <Gold.PLP.Chemscore.Internal.Correction>
0.0803

> <Gold.Rescore>
     Score         DG    S(hbond)    S(metal)    S(lipo)     H(rot)  DE(clash)    DE(int)     intcor
     16.68     -18.84       2.36        0.00     107.64       2.78       0.94       1.22       ----

> <Gold.Chemscore.Fitness>
16.6814

> <Gold.Chemscore.DG>
-18.8426

> <Gold.Chemscore.ZeroCoef>
-5.4800

> <Gold.Chemscore.Hbond>
2.3648

> <Gold.Chemscore.Metal>
0.0000

> <Gold.Chemscore.Lipo>
107.6358

> <Gold.Chemscore.Internal_Hbond>
0.0000

> <Gold.Chemscore.DEClash>
0.9376

> <Gold.Chemscore.DEInternal>
1.2236

> <Gold.Chemscore.Rot>
2.7848

> <Gold.Chemscore.Internal.Correction>
   9.000000E+99

> <Gold.Chemscore.Hbonds>
donor molecule, donor type, donor heavy atom, donor atom, acceptor molecule, acceptor atom, score
      L1  H     3    57       P1  8028  0.17
      L1  H     9    38       P1  7948  0.98
      L1  H    16    58       P1 10186  0.41

> <Gold.Chemscore.Hbond.Weighted>
-7.8983

> <Gold.Chemscore.Metal.Weighted>
-0.0000

> <Gold.Chemscore.Lipo.Weighted>
-12.5934

> <Gold.Chemscore.Internal_Hbond.Weighted>
0.0000

> <Gold.Chemscore.DEClash.Weighted>
0.9376

> <Gold.Chemscore.DEInternal.Weighted>
1.2236

> <Gold.Chemscore.Rot.Weighted>
7.1291

> <Gold.Chemscore.Internal.Correction.Weighted>
   9.000000E+99

> <Gold.Protein.RotatedTorsions>
[ 6907 6896 6895 6894 ] final   71.02 input  -60.11 | X-H torsion
[ 7974 7965 7964 7962 ] final   56.21 input  175.53 | X-H torsion
[ 8008 7997 7996 7995 ] final  150.36 input   59.86 | X-H torsion
[ 10167 10162 10161 10158 ] final   -5.57 input  -65.29 | X-H torsion
[ 10718 10713 10712 10709 ] final  -53.95 input   66.30 | X-H torsion
[ 10763 10752 10751 10750 ] final  -35.37 input  -60.55 | X-H torsion
[ 11005 11000 10999 10996 ] final -166.39 input  -57.11 | X-H torsion

> <Gold.Protein.ActiveResidues>
 VAL166  LYS551  ARG553  GLY616  TRP617  ASP618  TYR619  PRO620  LYS621  CYS622 
 ASP623  PHE694  ASN695  SER759  ASP760  ASP761  ALA762  ILE779  LEU786  VAL792 
 PHE793  MET794  SER795  GLU796  ALA797  LYS798  CYS799  TRP800  GLU811  SER814 

> <Gold.Protein.RotatedAtoms>
  152.4785  134.4782  159.9656 H   0  0  0  0  0  0  0  0  0  0  0  0  # atno 6907 bound_to 6896
  151.4793  133.3544  159.2843 H   0  0  0  0  0  0  0  0  0  0  0  0  # atno 6908 bound_to 6896
  150.8840  134.8261  159.7306 H   0  0  0  0  0  0  0  0  0  0  0  0  # atno 6909 bound_to 6896
  145.9422  139.3899  143.0356 H   0  0  0  0  0  0  0  0  0  0  0  0  # atno 7974 bound_to 7965
  156.2718  140.2077  156.6005 H   0  0  0  0  0  0  0  0  0  0  0  0  # atno 8008 bound_to 7997
  154.6910  140.0530  157.0387 H   0  0  0  0  0  0  0  0  0  0  0  0  # atno 8009 bound_to 7997
  155.0866  140.3192  155.4588 H   0  0  0  0  0  0  0  0  0  0  0  0  # atno 8010 bound_to 7997
  140.6967  143.6293  150.8538 H   0  0  0  0  0  0  0  0  0  0  0  0  # atno 10167 bound_to 10162
  156.1491  130.4152  149.9974 H   0  0  0  0  0  0  0  0  0  0  0  0  # atno 10718 bound_to 10713
  153.8621  135.6839  153.4782 H   0  0  0  0  0  0  0  0  0  0  0  0  # atno 10763 bound_to 10752
  153.1336  135.4687  154.9385 H   0  0  0  0  0  0  0  0  0  0  0  0  # atno 10764 bound_to 10752
  154.7754  135.3251  154.8053 H   0  0  0  0  0  0  0  0  0  0  0  0  # atno 10765 bound_to 10752
  140.5650  134.5295  157.5151 H   0  0  0  0  0  0  0  0  0  0  0  0  # atno 11005 bound_to 11000
  145.8284  140.9643  143.0862 LP  0  0  0  0  0  0  0  0  0  0  0  0  # atno 17320 bound_to 7965
  144.6781  140.0130  143.7484 LP  0  0  0  0  0  0  0  0  0  0  0  0  # atno 17321 bound_to 7965
  140.0012  143.5742  152.2875 LP  0  0  0  0  0  0  0  0  0  0  0  0  # atno 17342 bound_to 10162
  139.6432  144.7656  151.2296 LP  0  0  0  0  0  0  0  0  0  0  0  0  # atno 17343 bound_to 10162
  156.7837  130.9230  151.3646 LP  0  0  0  0  0  0  0  0  0  0  0  0  # atno 17370 bound_to 10713
  157.6642  130.8993  149.9896 LP  0  0  0  0  0  0  0  0  0  0  0  0  # atno 17371 bound_to 10713
  139.9389  134.7823  156.0730 LP  0  0  0  0  0  0  0  0  0  0  0  0  # atno 17394 bound_to 11000
  141.1091  133.6649  156.2935 LP  0  0  0  0  0  0  0  0  0  0  0  0  # atno 17395 bound_to 11000

$$$$
