AV-unprocessed.smi:72|AV-procd|sdf|669|dock5
  -GOLD-   2262016573D 1   1.00000     0.00000
 Structure written by MMmdl.
 29 30  0  0  0  0  0  0  0  0  1 V2000
  144.2534  140.3914  155.1830 N   0  0  0  0  0  0  0  0  0  0  0  0
  145.5096  140.6404  155.2925 C   0  0  0  0  0  0  0  0  0  0  0  0
  146.2231  140.6940  156.4988 N   0  0  0  0  0  0  0  0  0  0  0  0
  147.4880  140.9801  156.4630 C   0  0  0  0  0  0  0  0  0  0  0  0
  148.1858  141.2717  155.2162 N   0  0  0  0  0  0  0  0  0  0  0  0
  149.6737  141.5832  155.1595 C   0  0  2  0  0  0  0  0  0  0  0  0
  150.3639  140.5508  154.5212 O   0  0  0  0  0  0  0  0  0  0  0  0
  150.8572  139.6359  155.4917 C   0  0  1  0  0  0  0  0  0  0  0  0
  151.9887  138.7920  154.8869 C   0  0  0  0  0  0  0  0  0  0  0  0
  153.1312  139.5959  154.6836 O   0  0  0  0  0  0  0  0  0  0  0  0
  151.3167  140.5753  156.6076 C   0  0  2  0  0  0  0  0  0  0  0  0
  151.2922  139.9076  157.8534 O   0  0  0  0  0  0  0  0  0  0  0  0
  150.2810  141.6976  156.5765 C   0  0  1  0  0  0  0  0  0  0  0  0
  150.9100  142.9472  156.7734 O   0  0  0  0  0  0  0  0  0  0  0  0
  147.4886  141.1617  153.9869 C   0  0  0  0  0  0  0  0  0  0  0  0
  148.0402  141.3284  152.8992 O   0  0  0  0  0  0  0  0  0  0  0  0
  146.1747  140.8647  154.0805 N   0  0  0  0  0  0  0  0  0  0  0  0
  149.7406  142.4954  154.5635 H   0  0  0  0  0  0  0  0  0  0  0  0
  150.0462  139.0012  155.8545 H   0  0  0  0  0  0  0  0  0  0  0  0
  152.3176  140.9553  156.3944 H   0  0  0  0  0  0  0  0  0  0  0  0
  149.5089  141.5462  157.3328 H   0  0  0  0  0  0  0  0  0  0  0  0
  143.9722  140.4044  154.2139 H   0  0  0  0  0  0  0  0  0  0  0  0
  148.0973  141.0152  157.3661 H   0  0  0  0  0  0  0  0  0  0  0  0
  152.2307  137.9381  155.5202 H   0  0  0  0  0  0  0  0  0  0  0  0
  151.6865  138.4007  153.9151 H   0  0  0  0  0  0  0  0  0  0  0  0
  153.4907  139.3977  153.8326 H   0  0  0  0  0  0  0  0  0  0  0  0
  151.4065  140.5498  158.5374 H   0  0  0  0  0  0  0  0  0  0  0  0
  150.3323  143.6244  156.4547 H   0  0  0  0  0  0  0  0  0  0  0  0
  145.6515  140.7932  153.2201 H   0  0  0  0  0  0  0  0  0  0  0  0
  1  2  2  0  0  0  0
  1 22  1  0  0  0  0
  2 17  1  0  0  0  0
  2  3  1  0  0  0  0
  3  4  2  0  0  0  0
  4  5  1  0  0  0  0
  4 23  1  0  0  0  0
  5  6  1  0  0  0  0
  5 15  1  0  0  0  0
  6 18  1  0  0  0  0
  6 13  1  0  0  0  0
  6  7  1  0  0  0  0
  7  8  1  0  0  0  0
  8 19  1  0  0  0  0
  8  9  1  0  0  0  0
  8 11  1  0  0  0  0
  9 10  1  0  0  0  0
  9 24  1  0  0  0  0
  9 25  1  0  0  0  0
 10 26  1  0  0  0  0
 11 20  1  0  0  0  0
 11 12  1  0  0  0  0
 11 13  1  0  0  0  0
 12 27  1  0  0  0  0
 13 21  1  0  0  0  0
 13 14  1  0  0  0  0
 14 28  1  0  0  0  0
 15 16  2  0  0  0  0
 15 17  1  0  0  0  0
 17 29  1  0  0  0  0
M  END
> <s_m_source_file>
AV-unprocessed.smi

> <i_m_source_file_index>
72

> <i_lp_mmshare_version>
43012

> <i_f3d_flags>
0

> <s_epik_input>
W05IMl1jMW5bY0hdbihjKD1PKW4xKVtDQEBIXTJPW0NASF0oW0NIMl1bT0hdKVtDQEBIXShbT0hdKVtDQEhdMltPSF0=

> <s_epik_cmdline>
J2VwaWtfcHl0aG9uJywgJy1waCcsICc3LjAnLCAnLXRuJywgJzgnLCAnLW1hJywgJzIwMCcsICctbWV0YWxfYmluZGluZycsICctaW1hZScsICc8aW5maWxlLm1hZT4nLCAnLW9tYWUnLCAnPG91dGZpbGUubWFlPic=

> <r_lp_tautomer_probability>
7.17554e-07

> <r_epik_Ionization_Penalty>
0.0066451

> <r_epik_Ionization_Penalty_Charging>
0.00663793

> <r_epik_Ionization_Penalty_Neutral>
7.17052e-06

> <r_epik_State_Penalty>
0.419231

> <r_epik_Charging_Adjusted_Penalty>
0.425868

> <i_epik_Tot_Q>
0

> <i_epik_Tot_abs_Q>
0

> <r_epik_Metal_State_Penalty>
1.44144

> <b_epik_Metal_Only>
0

> <s_epik_Chemistry_Notes>
This compound contains an acetal/aminal-like group ( X-CH(R)-Y where X, Y are N, S, or O) that may be acid/base labile, releasing an aldehyde.

> <s_lp_Force_Field>
OPLS_2005

> <r_lp_Energy>
35.5906

> <b_lp_Chiralities_Consistent>
1

> <s_lp_Variant>
AV-unprocessed.smi:72-7

> <Gold.Version>
5.8.1

> <Gold.Id.Protein>
6NUR|6NUR_protein|mol2

> <Gold.PLP.Fitness>
37.8813

> <Gold.PLP.PLP>
-22.6275

> <Gold.PLP.part.hbond>
-7.0000

> <Gold.PLP.part.metal>
0.0000

> <Gold.PLP.part.buried>
-1.1826

> <Gold.PLP.part.nonpolar>
-17.6684

> <Gold.PLP.part.repulsive>
3.0099

> <Gold.PLP.ligand.clash>
0.0000

> <Gold.PLP.ligand.torsion>
0.1492

> <Gold.PLP.Chemscore.Hbond>
5.1703

> <Gold.PLP.Chemscore.CHOScore>
0.0000

> <Gold.PLP.Chemscore.Metal>
0.0000

> <Gold.Chemscore.Hbonds>
donor molecule, donor type, donor heavy atom, donor atom, acceptor molecule, acceptor atom, score
      L1  H     1    22       P1 10175  1.00
      L1  H    14    28       P1  8028  1.00
      L1  H    17    29       P1 10175  0.66
      P1  H  7989  7998       L1     7  0.94
      P1  H  7997  8009       L1    10  1.00
      P1  H  8011  8017       L1    16  0.56

> <Gold.PLP.Chemscore.Internal.Correction>
0.0414

> <Gold.Rescore>
     Score         DG    S(hbond)    S(metal)    S(lipo)     H(rot)  DE(clash)    DE(int)     intcor
     10.00     -13.97       4.73        0.00      26.40       4.06       2.73       1.24       ----

> <Gold.Chemscore.Fitness>
9.9952

> <Gold.Chemscore.DG>
-13.9732

> <Gold.Chemscore.ZeroCoef>
-5.4800

> <Gold.Chemscore.Hbond>
4.7299

> <Gold.Chemscore.Metal>
0.0000

> <Gold.Chemscore.Lipo>
26.4002

> <Gold.Chemscore.Internal_Hbond>
0.0000

> <Gold.Chemscore.DEClash>
2.7334

> <Gold.Chemscore.DEInternal>
1.2446

> <Gold.Chemscore.Rot>
4.0600

> <Gold.Chemscore.Internal.Correction>
   9.000000E+99

> <Gold.Chemscore.Hbonds>
donor molecule, donor type, donor heavy atom, donor atom, acceptor molecule, acceptor atom, score
      L1  H     1    22       P1 10175  1.00
      L1  H    14    28       P1  8028  0.98
      L1  H    17    29       P1 10175  0.45
      P1  H  7989  7998       L1     7  0.53
      P1  H  7997  8009       L1    10  0.70
      P1  H  8011  8017       L1    16  0.57

> <Gold.Chemscore.Hbond.Weighted>
-15.7980

> <Gold.Chemscore.Metal.Weighted>
-0.0000

> <Gold.Chemscore.Lipo.Weighted>
-3.0888

> <Gold.Chemscore.Internal_Hbond.Weighted>
0.0000

> <Gold.Chemscore.DEClash.Weighted>
2.7334

> <Gold.Chemscore.DEInternal.Weighted>
1.2446

> <Gold.Chemscore.Rot.Weighted>
10.3936

> <Gold.Chemscore.Internal.Correction.Weighted>
   9.000000E+99

> <Gold.Protein.RotatedTorsions>
[ 6907 6896 6895 6894 ] final   32.10 input  -60.11 | X-H torsion
[ 7974 7965 7964 7962 ] final   70.53 input  175.53 | X-H torsion
[ 8008 7997 7996 7995 ] final -129.65 input   59.86 | X-H torsion
[ 10167 10162 10161 10158 ] final  177.90 input  -65.29 | X-H torsion
[ 10718 10713 10712 10709 ] final -163.71 input   66.30 | X-H torsion
[ 10763 10752 10751 10750 ] final  -25.06 input  -60.55 | X-H torsion
[ 11005 11000 10999 10996 ] final   69.05 input  -57.11 | X-H torsion

> <Gold.Protein.ActiveResidues>
 VAL166  LYS551  ARG553  GLY616  TRP617  ASP618  TYR619  PRO620  LYS621  CYS622 
 ASP623  PHE694  ASN695  SER759  ASP760  ASP761  ALA762  ILE779  LEU786  VAL792 
 PHE793  MET794  SER795  GLU796  ALA797  LYS798  CYS799  TRP800  GLU811  SER814 

> <Gold.Protein.RotatedAtoms>
  152.0696  134.9542  160.0574 H   0  0  0  0  0  0  0  0  0  0  0  0  # atno 6907 bound_to 6896
  152.0873  133.4178  159.4536 H   0  0  0  0  0  0  0  0  0  0  0  0  # atno 6908 bound_to 6896
  150.6836  134.2832  159.4679 H   0  0  0  0  0  0  0  0  0  0  0  0  # atno 6909 bound_to 6896
  145.7771  139.2870  143.1287 H   0  0  0  0  0  0  0  0  0  0  0  0  # atno 7974 bound_to 7965
  155.2827  140.0445  157.3017 H   0  0  0  0  0  0  0  0  0  0  0  0  # atno 8008 bound_to 7997
  154.5587  140.2339  155.8337 H   0  0  0  0  0  0  0  0  0  0  0  0  # atno 8009 bound_to 7997
  156.2029  140.3020  155.9572 H   0  0  0  0  0  0  0  0  0  0  0  0  # atno 8010 bound_to 7997
  139.5272  144.2743  152.0601 H   0  0  0  0  0  0  0  0  0  0  0  0  # atno 10167 bound_to 10162
  156.6286  130.8920  151.2973 H   0  0  0  0  0  0  0  0  0  0  0  0  # atno 10718 bound_to 10713
  153.6937  135.6960  153.5082 H   0  0  0  0  0  0  0  0  0  0  0  0  # atno 10763 bound_to 10752
  153.2394  135.4311  155.0680 H   0  0  0  0  0  0  0  0  0  0  0  0  # atno 10764 bound_to 10752
  154.8365  135.3504  154.6478 H   0  0  0  0  0  0  0  0  0  0  0  0  # atno 10765 bound_to 10752
  139.9676  134.6954  156.0513 H   0  0  0  0  0  0  0  0  0  0  0  0  # atno 11005 bound_to 11000
  146.0112  140.8434  142.9970 LP  0  0  0  0  0  0  0  0  0  0  0  0  # atno 17320 bound_to 7965
  144.6802  140.2492  143.7334 LP  0  0  0  0  0  0  0  0  0  0  0  0  # atno 17321 bound_to 7965
  140.2201  144.4475  150.6346 LP  0  0  0  0  0  0  0  0  0  0  0  0  # atno 17342 bound_to 10162
  140.6424  143.2206  151.6261 LP  0  0  0  0  0  0  0  0  0  0  0  0  # atno 17343 bound_to 10162
  157.7207  130.9554  150.1426 LP  0  0  0  0  0  0  0  0  0  0  0  0  # atno 17370 bound_to 10713
  156.2253  130.3677  149.8507 LP  0  0  0  0  0  0  0  0  0  0  0  0  # atno 17371 bound_to 10713
  141.1356  133.6576  156.3584 LP  0  0  0  0  0  0  0  0  0  0  0  0  # atno 17394 bound_to 11000
  140.5363  134.6164  157.5366 LP  0  0  0  0  0  0  0  0  0  0  0  0  # atno 17395 bound_to 11000

$$$$
