AV-unprocessed.smi:1195|AV-procd|sdf|4995|dock5
  -GOLD-   22720 4 03D 1   1.00000     0.00000
 Structure written by MMmdl.
 39 40  0  0  0  0  0  0  0  0  1 V2000
  142.2943  132.0987  148.0627 N   0  0  0  0  0  0  0  0  0  0  0  0
  143.4948  132.5544  148.4286 C   0  0  0  0  0  0  0  0  0  0  0  0
  144.2433  133.1239  147.6353 O   0  0  0  0  0  0  0  0  0  0  0  0
  143.8915  132.3306  149.8941 C   0  0  0  0  0  0  0  0  0  0  0  0
  143.9616  133.5671  150.6558 N   0  0  0  0  0  0  0  0  0  0  0  0
  144.7590  134.6699  150.4192 C   0  0  0  0  0  0  0  0  0  0  0  0
  144.4532  135.5657  151.4044 C   0  0  0  0  0  0  0  0  0  0  0  0
  144.9744  136.8646  151.6317 N   0  0  0  0  0  0  0  0  0  0  0  0
  145.5846  137.3143  152.7406 C   0  0  0  0  0  0  0  0  0  0  0  0
  145.7806  136.6503  153.7587 O   0  0  0  0  0  0  0  0  0  0  0  0
  145.9595  138.5945  152.6060 N   0  0  0  0  0  0  0  0  0  0  0  0
  146.6410  139.3830  153.6281 C   0  0  2  0  0  0  0  0  0  0  0  0
  146.9738  140.7782  153.0695 C   0  0  0  0  0  0  0  0  0  0  0  0
  147.7325  141.6330  154.1002 C   0  0  0  0  0  0  0  0  0  0  0  0
  148.9964  140.9280  154.6282 C   0  0  2  0  0  0  0  0  0  0  0  0
  149.9787  140.8691  153.6128 O   0  0  0  0  0  0  0  0  0  0  0  0
  148.6829  139.5100  155.1418 C   0  0  0  0  0  0  0  0  0  0  0  0
  147.9214  138.6678  154.1035 C   0  0  0  0  0  0  0  0  0  0  0  0
  143.4619  134.9393  152.2035 C   0  0  0  0  0  0  0  0  0  0  0  0
  143.1722  133.7302  151.7473 N   0  0  0  0  0  0  0  0  0  0  0  0
  141.9829  132.2205  147.1098 H   0  0  0  0  0  0  0  0  0  0  0  0
  141.7022  131.6359  148.7366 H   0  0  0  0  0  0  0  0  0  0  0  0
  143.1748  131.6570  150.3665 H   0  0  0  0  0  0  0  0  0  0  0  0
  144.8668  131.8443  149.9377 H   0  0  0  0  0  0  0  0  0  0  0  0
  145.4479  134.7109  149.5887 H   0  0  0  0  0  0  0  0  0  0  0  0
  144.8692  137.5202  150.8713 H   0  0  0  0  0  0  0  0  0  0  0  0
  145.7605  139.0595  151.7323 H   0  0  0  0  0  0  0  0  0  0  0  0
  145.9707  139.5116  154.4803 H   0  0  0  0  0  0  0  0  0  0  0  0
  147.5755  140.6809  152.1647 H   0  0  0  0  0  0  0  0  0  0  0  0
  146.0574  141.2910  152.7750 H   0  0  0  0  0  0  0  0  0  0  0  0
  147.9917  142.5998  153.6667 H   0  0  0  0  0  0  0  0  0  0  0  0
  147.0686  141.8458  154.9390 H   0  0  0  0  0  0  0  0  0  0  0  0
  149.4176  141.5172  155.4433 H   0  0  0  0  0  0  0  0  0  0  0  0
  149.7682  140.1539  153.0321 H   0  0  0  0  0  0  0  0  0  0  0  0
  149.6017  139.0015  155.4364 H   0  0  0  0  0  0  0  0  0  0  0  0
  148.0759  139.5860  156.0448 H   0  0  0  0  0  0  0  0  0  0  0  0
  147.6733  137.6980  154.5362 H   0  0  0  0  0  0  0  0  0  0  0  0
  148.5701  138.4649  153.2502 H   0  0  0  0  0  0  0  0  0  0  0  0
  142.9545  135.3122  153.0809 H   0  0  0  0  0  0  0  0  0  0  0  0
  1  2  1  0  0  0  0
  1 21  1  0  0  0  0
  1 22  1  0  0  0  0
  2  3  2  0  0  0  0
  2  4  1  0  0  0  0
  4  5  1  0  0  0  0
  4 23  1  0  0  0  0
  4 24  1  0  0  0  0
  5 20  1  0  0  0  0
  5  6  1  0  0  0  0
  6  7  2  0  0  0  0
  6 25  1  0  0  0  0
  7  8  1  0  0  0  0
  7 19  1  0  0  0  0
  8  9  1  0  0  0  0
  8 26  1  0  0  0  0
  9 10  2  0  0  0  0
  9 11  1  0  0  0  0
 11 12  1  0  0  0  0
 11 27  1  0  0  0  0
 12 18  1  0  0  0  0
 12 13  1  0  0  0  0
 12 28  1  0  0  0  0
 13 14  1  0  0  0  0
 13 29  1  0  0  0  0
 13 30  1  0  0  0  0
 14 15  1  0  0  0  0
 14 31  1  0  0  0  0
 14 32  1  0  0  0  0
 15 16  1  0  0  0  0
 15 17  1  0  0  0  0
 15 33  1  0  0  0  0
 16 34  1  0  0  0  0
 17 18  1  0  0  0  0
 17 35  1  0  0  0  0
 17 36  1  0  0  0  0
 18 37  1  0  0  0  0
 18 38  1  0  0  0  0
 19 20  2  0  0  0  0
 19 39  1  0  0  0  0
M  END
> <s_m_source_file>
AV-unprocessed.smi

> <i_m_source_file_index>
1195

> <i_lp_mmshare_version>
43012

> <i_f3d_flags>
0

> <s_epik_input>
W05IMl1DKD1PKVtDSDJdbjFbY0hdYyhbY0hdbjEpW05IXUMoPU8pW05IXVtDQEBIXTJbQ0gyXVtDSDJdW0NAQEhdKFtPSF0pW0NIMl1bQ0gyXTI=

> <s_epik_cmdline>
J2VwaWtfcHl0aG9uJywgJy1waCcsICc3LjAnLCAnLXRuJywgJzgnLCAnLW1hJywgJzIwMCcsICctbWV0YWxfYmluZGluZycsICctaW1hZScsICc8aW5maWxlLm1hZT4nLCAnLW9tYWUnLCAnPG91dGZpbGUubWFlPic=

> <r_lp_tautomer_probability>
1

> <r_epik_Ionization_Penalty>
4.75851e-05

> <r_epik_Ionization_Penalty_Charging>
0

> <r_epik_Ionization_Penalty_Neutral>
4.75851e-05

> <r_epik_State_Penalty>
-0

> <r_epik_Charging_Adjusted_Penalty>
0

> <i_epik_Tot_Q>
0

> <i_epik_Tot_abs_Q>
0

> <r_epik_Metal_State_Penalty>
-0

> <b_epik_Metal_Only>
0

> <s_lp_Force_Field>
OPLS_2005

> <r_lp_Energy>
14.5792

> <b_lp_Chiralities_Consistent>
1

> <s_lp_Variant>
AV-unprocessed.smi:1195-2

> <Gold.Version>
5.8.1

> <Gold.Id.Protein>
6NUR|6NUR_protein|mol2

> <Gold.PLP.Fitness>
53.5532

> <Gold.PLP.PLP>
-34.8045

> <Gold.PLP.part.hbond>
-8.2400

> <Gold.PLP.part.metal>
0.0000

> <Gold.PLP.part.buried>
-3.8937

> <Gold.PLP.part.nonpolar>
-28.2980

> <Gold.PLP.part.repulsive>
5.0741

> <Gold.PLP.ligand.clash>
0.0000

> <Gold.PLP.ligand.torsion>
0.6274

> <Gold.PLP.Chemscore.Hbond>
5.6620

> <Gold.PLP.Chemscore.CHOScore>
1.0000

> <Gold.PLP.Chemscore.Metal>
0.0000

> <Gold.Chemscore.Hbonds>
donor molecule, donor type, donor heavy atom, donor atom, acceptor molecule, acceptor atom, score
      L1  H     1    21       P1 10195  1.00
      L1  H     1    22       P1 10952  1.00
      L1  H     8    26       P1 10171  1.00
      L1  H    16    34       P1  7957  0.64
      P1  H  7918  7932       L1     3  0.51
      P1  H  7989  7998       L1    16  0.37
      P1  H  8011  8017       L1    16  0.98
      L1  C     6    25       P1  7921  1.00

> <Gold.PLP.Chemscore.Internal.Correction>
0.0173

> <Gold.Rescore>
     Score         DG    S(hbond)    S(metal)    S(lipo)     H(rot)  DE(clash)    DE(int)     intcor
     17.97     -21.83       4.78        0.00      60.53       2.62       1.89       1.96       ----

> <Gold.Chemscore.Fitness>
17.9750

> <Gold.Chemscore.DG>
-21.8264

> <Gold.Chemscore.ZeroCoef>
-5.4800

> <Gold.Chemscore.Hbond>
4.7829

> <Gold.Chemscore.Metal>
0.0000

> <Gold.Chemscore.Lipo>
60.5272

> <Gold.Chemscore.Internal_Hbond>
0.0000

> <Gold.Chemscore.DEClash>
1.8911

> <Gold.Chemscore.DEInternal>
1.9604

> <Gold.Chemscore.Rot>
2.6212

> <Gold.Chemscore.Internal.Correction>
   9.000000E+99

> <Gold.Chemscore.Hbonds>
donor molecule, donor type, donor heavy atom, donor atom, acceptor molecule, acceptor atom, score
      L1  H     1    21       P1 10195  0.98
      L1  H     1    22       P1 10952  1.00
      L1  H     8    26       P1 10171  0.96
      L1  H    16    34       P1  7957  0.64
      P1  H  7918  7932       L1     3  0.52
      P1  H  7989  7998       L1    16  0.10
      P1  H  8011  8017       L1    16  0.19

> <Gold.Chemscore.Hbond.Weighted>
-15.9750

> <Gold.Chemscore.Metal.Weighted>
-0.0000

> <Gold.Chemscore.Lipo.Weighted>
-7.0817

> <Gold.Chemscore.Internal_Hbond.Weighted>
0.0000

> <Gold.Chemscore.DEClash.Weighted>
1.8911

> <Gold.Chemscore.DEInternal.Weighted>
1.9604

> <Gold.Chemscore.Rot.Weighted>
6.7103

> <Gold.Chemscore.Internal.Correction.Weighted>
   9.000000E+99

> <Gold.Protein.RotatedTorsions>
[ 6907 6896 6895 6894 ] final   88.60 input  -60.11 | X-H torsion
[ 7974 7965 7964 7962 ] final  166.87 input  175.53 | X-H torsion
[ 8008 7997 7996 7995 ] final  -30.56 input   59.86 | X-H torsion
[ 10167 10162 10161 10158 ] final   99.26 input  -65.29 | X-H torsion
[ 10718 10713 10712 10709 ] final  111.65 input   66.30 | X-H torsion
[ 10763 10752 10751 10750 ] final  103.07 input  -60.55 | X-H torsion
[ 11005 11000 10999 10996 ] final  -49.64 input  -57.11 | X-H torsion

> <Gold.Protein.ActiveResidues>
 VAL166  LYS551  ARG553  GLY616  TRP617  ASP618  TYR619  PRO620  LYS621  CYS622 
 ASP623  PHE694  ASN695  SER759  ASP760  ASP761  ALA762  ILE779  LEU786  VAL792 
 PHE793  MET794  SER795  GLU796  ALA797  LYS798  CYS799  TRP800  GLU811  SER814 

> <Gold.Protein.RotatedAtoms>
  152.5427  134.2096  159.8744 H   0  0  0  0  0  0  0  0  0  0  0  0  # atno 6907 bound_to 6896
  151.2079  133.4566  159.2605 H   0  0  0  0  0  0  0  0  0  0  0  0  # atno 6908 bound_to 6896
  151.0925  134.9937  159.8465 H   0  0  0  0  0  0  0  0  0  0  0  0  # atno 6909 bound_to 6896
  144.7446  139.8678  143.6386 H   0  0  0  0  0  0  0  0  0  0  0  0  # atno 7974 bound_to 7965
  154.4246  140.1788  156.1426 H   0  0  0  0  0  0  0  0  0  0  0  0  # atno 8008 bound_to 7997
  155.9980  140.3363  155.6792 H   0  0  0  0  0  0  0  0  0  0  0  0  # atno 8009 bound_to 7997
  155.6282  140.0667  157.2648 H   0  0  0  0  0  0  0  0  0  0  0  0  # atno 8010 bound_to 7997
  139.7633  144.6947  151.0260 H   0  0  0  0  0  0  0  0  0  0  0  0  # atno 10167 bound_to 10162
  157.6434  131.0954  150.6780 H   0  0  0  0  0  0  0  0  0  0  0  0  # atno 10718 bound_to 10713
  153.3479  135.3989  155.1623 H   0  0  0  0  0  0  0  0  0  0  0  0  # atno 10763 bound_to 10752
  154.8656  135.3649  154.5260 H   0  0  0  0  0  0  0  0  0  0  0  0  # atno 10764 bound_to 10752
  153.5710  135.7079  153.5565 H   0  0  0  0  0  0  0  0  0  0  0  0  # atno 10765 bound_to 10752
  141.0770  133.6663  156.3615 H   0  0  0  0  0  0  0  0  0  0  0  0  # atno 11005 bound_to 11000
  146.1302  139.4335  143.0174 LP  0  0  0  0  0  0  0  0  0  0  0  0  # atno 17320 bound_to 7965
  145.7175  141.0086  143.1420 LP  0  0  0  0  0  0  0  0  0  0  0  0  # atno 17321 bound_to 7965
  140.7809  143.4671  151.0197 LP  0  0  0  0  0  0  0  0  0  0  0  0  # atno 17342 bound_to 10162
  139.8357  143.7631  152.3180 LP  0  0  0  0  0  0  0  0  0  0  0  0  # atno 17343 bound_to 10162
  156.7100  130.4649  149.5550 LP  0  0  0  0  0  0  0  0  0  0  0  0  # atno 17370 bound_to 10713
  156.1736  130.6453  151.0867 LP  0  0  0  0  0  0  0  0  0  0  0  0  # atno 17371 bound_to 10713
  140.5551  134.5990  157.5418 LP  0  0  0  0  0  0  0  0  0  0  0  0  # atno 17394 bound_to 11000
  139.9583  134.7496  156.0293 LP  0  0  0  0  0  0  0  0  0  0  0  0  # atno 17395 bound_to 11000

$$$$
