AV-unprocessed.smi:1604|AV-procd|sdf|6450|dock1
  -GOLD-   22720 7103D 1   1.00000     0.00000
 Structure written by MMmdl.
 47 49  0  0  0  0  0  0  0  0  2 V2000
  150.1481  134.9366  156.0461 O   0  0  0  0  0  0  0  0  0  0  0  0
  149.7471  135.3165  154.9465 C   0  0  0  0  0  0  0  0  0  0  0  0
  149.2356  134.5147  153.9978 N   0  0  0  0  0  0  0  0  0  0  0  0
  149.0830  133.0993  154.0353 C   0  0  0  0  0  0  0  0  0  0  0  0
  150.0272  132.2589  154.6793 C   0  0  0  0  0  0  0  0  0  0  0  0
  149.8367  130.8636  154.6803 C   0  0  0  0  0  0  0  0  0  0  0  0
  148.7113  130.3282  154.0295 C   0  0  0  0  0  0  0  0  0  0  0  0
  147.8403  131.1531  153.4120 N   0  3  0  0  0  0  0  0  0  0  0  0
  147.9713  132.5025  153.3802 C   0  0  0  0  0  0  0  0  0  0  0  0
  147.0115  133.2647  152.6810 N   0  0  0  0  0  0  0  0  0  0  0  0
  147.0085  133.0383  151.2379 C   0  0  0  0  0  0  0  0  0  0  0  0
  145.5456  133.0986  150.7920 C   0  0  0  0  0  0  0  0  0  0  0  0
  144.7845  132.6864  152.0457 C   0  0  0  0  0  0  0  0  0  0  0  0
  145.6303  133.3009  153.1591 C   0  0  0  0  0  0  0  0  0  0  0  0
  149.7556  136.5985  154.5430 N   0  0  0  0  0  0  0  0  0  0  0  0
  150.1897  137.7803  155.3012 C   0  0  1  0  0  0  0  0  0  0  0  0
  151.2854  138.5913  154.5655 C   0  0  0  0  0  0  0  0  0  0  0  0
  152.2077  139.3907  155.4994 C   0  0  0  0  0  0  0  0  0  0  0  0
  151.5042  140.4926  156.3045 C   0  0  0  0  0  0  0  0  0  0  0  0
  150.4912  139.9553  157.3292 C   0  0  0  0  0  0  0  0  0  0  0  0
  149.2193  139.5813  156.7233 N   0  0  0  0  0  0  0  0  0  0  0  0
  149.0002  138.6203  155.8127 C   0  0  0  0  0  0  0  0  0  0  0  0
  147.8635  138.4129  155.3896 O   0  0  0  0  0  0  0  0  0  0  0  0
  148.8451  134.9748  153.1889 H   0  0  0  0  0  0  0  0  0  0  0  0
  150.9040  132.6616  155.1633 H   0  0  0  0  0  0  0  0  0  0  0  0
  150.5482  130.2140  155.1691 H   0  0  0  0  0  0  0  0  0  0  0  0
  148.4870  129.2727  153.9761 H   0  0  0  0  0  0  0  0  0  0  0  0
  147.6096  133.7860  150.7198 H   0  0  0  0  0  0  0  0  0  0  0  0
  147.4270  132.0564  151.0098 H   0  0  0  0  0  0  0  0  0  0  0  0
  145.2820  134.1225  150.5226 H   0  0  0  0  0  0  0  0  0  0  0  0
  145.3364  132.4592  149.9341 H   0  0  0  0  0  0  0  0  0  0  0  0
  143.7514  133.0351  152.0544 H   0  0  0  0  0  0  0  0  0  0  0  0
  144.7788  131.5993  152.1375 H   0  0  0  0  0  0  0  0  0  0  0  0
  145.4651  132.8030  154.1143 H   0  0  0  0  0  0  0  0  0  0  0  0
  145.3563  134.3472  153.2980 H   0  0  0  0  0  0  0  0  0  0  0  0
  149.4147  136.7860  153.6117 H   0  0  0  0  0  0  0  0  0  0  0  0
  150.6524  137.3453  156.1878 H   0  0  0  0  0  0  0  0  0  0  0  0
  151.9166  137.9088  153.9947 H   0  0  0  0  0  0  0  0  0  0  0  0
  150.8348  139.2645  153.8349 H   0  0  0  0  0  0  0  0  0  0  0  0
  152.7185  138.7093  156.1809 H   0  0  0  0  0  0  0  0  0  0  0  0
  152.9927  139.8500  154.8978 H   0  0  0  0  0  0  0  0  0  0  0  0
  152.2679  141.0552  156.8424 H   0  0  0  0  0  0  0  0  0  0  0  0
  151.0250  141.2074  155.6340 H   0  0  0  0  0  0  0  0  0  0  0  0
  150.9050  139.1176  157.8919 H   0  0  0  0  0  0  0  0  0  0  0  0
  150.2764  140.7359  158.0593 H   0  0  0  0  0  0  0  0  0  0  0  0
  148.4140  140.1095  157.0280 H   0  0  0  0  0  0  0  0  0  0  0  0
  147.0392  130.7359  152.9378 H   0  0  0  0  0  0  0  0  0  0  0  0
  1  2  2  0  0  0  0
  2  3  1  0  0  0  0
  2 15  1  0  0  0  0
  3  4  1  0  0  0  0
  3 24  1  0  0  0  0
  4  9  1  0  0  0  0
  4  5  2  0  0  0  0
  5  6  1  0  0  0  0
  5 25  1  0  0  0  0
  6  7  2  0  0  0  0
  6 26  1  0  0  0  0
  7  8  1  0  0  0  0
  7 27  1  0  0  0  0
  8  9  2  0  0  0  0
  8 47  1  0  0  0  0
  9 10  1  0  0  0  0
 10 14  1  0  0  0  0
 10 11  1  0  0  0  0
 11 12  1  0  0  0  0
 11 28  1  0  0  0  0
 11 29  1  0  0  0  0
 12 13  1  0  0  0  0
 12 30  1  0  0  0  0
 12 31  1  0  0  0  0
 13 14  1  0  0  0  0
 13 32  1  0  0  0  0
 13 33  1  0  0  0  0
 14 34  1  0  0  0  0
 14 35  1  0  0  0  0
 15 16  1  0  0  0  0
 15 36  1  0  0  0  0
 16 22  1  0  0  0  0
 16 17  1  0  0  0  0
 16 37  1  0  0  0  0
 17 18  1  0  0  0  0
 17 38  1  0  0  0  0
 17 39  1  0  0  0  0
 18 19  1  0  0  0  0
 18 40  1  0  0  0  0
 18 41  1  0  0  0  0
 19 20  1  0  0  0  0
 19 42  1  0  0  0  0
 19 43  1  0  0  0  0
 20 21  1  0  0  0  0
 20 44  1  0  0  0  0
 20 45  1  0  0  0  0
 21 22  1  0  0  0  0
 21 46  1  0  0  0  0
 22 23  2  0  0  0  0
M  CHG  1   8   1
M  END
> <s_m_source_file>
AV-unprocessed.smi

> <i_m_source_file_index>
1604

> <i_lp_mmshare_version>
43012

> <i_f3d_flags>
0

> <s_epik_input>
Tz1DMVtOSF1bQ0gyXVtDSDJdW0NIMl1bQ0gyXVtDQEhdMVtOSF1DKD1PKVtOSF1jMltjSF1bY0hdW2NIXW5jMk4zW0NIMl1bQ0gyXVtDSDJdW0NIMl0z

> <s_epik_cmdline>
J2VwaWtfcHl0aG9uJywgJy1waCcsICc3LjAnLCAnLXRuJywgJzgnLCAnLW1hJywgJzIwMCcsICctbWV0YWxfYmluZGluZycsICctaW1hZScsICc8aW5maWxlLm1hZT4nLCAnLW9tYWUnLCAnPG91dGZpbGUubWFlPic=

> <r_lp_tautomer_probability>
0.999994

> <r_epik_Ionization_Penalty>
1.20452

> <r_epik_Ionization_Penalty_Charging>
1.2045

> <r_epik_Ionization_Penalty_Neutral>
1.88134e-05

> <r_epik_State_Penalty>
1.2704

> <r_epik_Charging_Adjusted_Penalty>
2.4749

> <i_epik_Tot_Q>
1

> <i_epik_Tot_abs_Q>
1

> <r_epik_Metal_State_Penalty>
1.34433

> <b_epik_Metal_Only>
0

> <s_lp_Force_Field>
OPLS_2005

> <r_lp_Energy>
47.2667

> <b_lp_Chiralities_Consistent>
1

> <s_lp_Variant>
AV-unprocessed.smi:1604-4

> <Gold.Version>
5.8.1

> <Gold.Id.Protein>
6NUR|6NUR_protein|mol2

> <Gold.PLP.Fitness>
39.3141

> <Gold.PLP.PLP>
-33.9422

> <Gold.PLP.part.hbond>
-2.0610

> <Gold.PLP.part.metal>
0.0000

> <Gold.PLP.part.buried>
-3.7176

> <Gold.PLP.part.nonpolar>
-28.3862

> <Gold.PLP.part.repulsive>
0.2769

> <Gold.PLP.ligand.clash>
0.0000

> <Gold.PLP.ligand.torsion>
0.4160

> <Gold.PLP.Chemscore.Hbond>
2.0000

> <Gold.PLP.Chemscore.CHOScore>
0.0000

> <Gold.PLP.Chemscore.Metal>
0.0000

> <Gold.Chemscore.Hbonds>
donor molecule, donor type, donor heavy atom, donor atom, acceptor molecule, acceptor atom, score
      L1  H     3    24       P1  7948  1.00
      L1  H    15    36       P1  7948  1.00

> <Gold.PLP.Chemscore.Internal.Correction>
0.2039

> <Gold.Rescore>
     Score         DG    S(hbond)    S(metal)    S(lipo)     H(rot)  DE(clash)    DE(int)     intcor
     14.82     -16.36       1.62        0.00      74.31       1.26       0.01       1.53       ----

> <Gold.Chemscore.Fitness>
14.8162

> <Gold.Chemscore.DG>
-16.3556

> <Gold.Chemscore.ZeroCoef>
-5.4800

> <Gold.Chemscore.Hbond>
1.6163

> <Gold.Chemscore.Metal>
0.0000

> <Gold.Chemscore.Lipo>
74.3076

> <Gold.Chemscore.Internal_Hbond>
0.0000

> <Gold.Chemscore.DEClash>
0.0135

> <Gold.Chemscore.DEInternal>
1.5258

> <Gold.Chemscore.Rot>
1.2566

> <Gold.Chemscore.Internal.Correction>
   9.000000E+99

> <Gold.Chemscore.Hbonds>
donor molecule, donor type, donor heavy atom, donor atom, acceptor molecule, acceptor atom, score
      L1  H     3    24       P1  7948  0.33
      L1  H    15    36       P1  7948  0.86

> <Gold.Chemscore.Hbond.Weighted>
-5.3984

> <Gold.Chemscore.Metal.Weighted>
-0.0000

> <Gold.Chemscore.Lipo.Weighted>
-8.6940

> <Gold.Chemscore.Internal_Hbond.Weighted>
0.0000

> <Gold.Chemscore.DEClash.Weighted>
0.0135

> <Gold.Chemscore.DEInternal.Weighted>
1.5258

> <Gold.Chemscore.Rot.Weighted>
3.2168

> <Gold.Chemscore.Internal.Correction.Weighted>
   9.000000E+99

> <Gold.Protein.RotatedTorsions>
[ 6907 6896 6895 6894 ] final -138.15 input  -60.11 | X-H torsion
[ 7974 7965 7964 7962 ] final   38.39 input  175.53 | X-H torsion
[ 8008 7997 7996 7995 ] final  130.09 input   59.86 | X-H torsion
[ 10167 10162 10161 10158 ] final  165.30 input  -65.29 | X-H torsion
[ 10718 10713 10712 10709 ] final  110.75 input   66.30 | X-H torsion
[ 10763 10752 10751 10750 ] final -126.35 input  -60.55 | X-H torsion
[ 11005 11000 10999 10996 ] final   27.33 input  -57.11 | X-H torsion

> <Gold.Protein.ActiveResidues>
 VAL166  LYS551  ARG553  GLY616  TRP617  ASP618  TYR619  PRO620  LYS621  CYS622 
 ASP623  PHE694  ASN695  SER759  ASP760  ASP761  ALA762  ILE779  LEU786  VAL792 
 PHE793  MET794  SER795  GLU796  ALA797  LYS798  CYS799  TRP800  GLU811  SER814 

> <Gold.Protein.RotatedAtoms>
  151.0314  133.5787  159.2660 H   0  0  0  0  0  0  0  0  0  0  0  0  # atno 6907 bound_to 6896
  151.2867  135.0729  159.9199 H   0  0  0  0  0  0  0  0  0  0  0  0  # atno 6908 bound_to 6896
  152.5345  134.0019  159.7953 H   0  0  0  0  0  0  0  0  0  0  0  0  # atno 6909 bound_to 6896
  146.1065  139.5778  142.9380 H   0  0  0  0  0  0  0  0  0  0  0  0  # atno 7974 bound_to 7965
  156.2948  140.2604  156.2705 H   0  0  0  0  0  0  0  0  0  0  0  0  # atno 8008 bound_to 7997
  154.9699  140.0391  157.2248 H   0  0  0  0  0  0  0  0  0  0  0  0  # atno 8009 bound_to 7997
  154.7868  140.2805  155.6026 H   0  0  0  0  0  0  0  0  0  0  0  0  # atno 8010 bound_to 7997
  139.4903  144.4146  151.9259 H   0  0  0  0  0  0  0  0  0  0  0  0  # atno 10167 bound_to 10162
  157.6479  131.0938  150.6648 H   0  0  0  0  0  0  0  0  0  0  0  0  # atno 10718 bound_to 10713
  154.8745  135.3998  154.3416 H   0  0  0  0  0  0  0  0  0  0  0  0  # atno 10763 bound_to 10752
  153.4215  135.7023  153.6296 H   0  0  0  0  0  0  0  0  0  0  0  0  # atno 10764 bound_to 10752
  153.4957  135.3738  155.2484 H   0  0  0  0  0  0  0  0  0  0  0  0  # atno 10765 bound_to 10752
  140.3274  134.2476  155.7707 H   0  0  0  0  0  0  0  0  0  0  0  0  # atno 11005 bound_to 11000
  145.5749  141.0389  143.2153 LP  0  0  0  0  0  0  0  0  0  0  0  0  # atno 17320 bound_to 7965
  144.7475  139.7280  143.7286 LP  0  0  0  0  0  0  0  0  0  0  0  0  # atno 17321 bound_to 7965
  140.3588  144.2998  150.5937 LP  0  0  0  0  0  0  0  0  0  0  0  0  # atno 17342 bound_to 10162
  140.5421  143.2221  151.8068 LP  0  0  0  0  0  0  0  0  0  0  0  0  # atno 17343 bound_to 10162
  156.6963  130.4610  149.5585 LP  0  0  0  0  0  0  0  0  0  0  0  0  # atno 17370 bound_to 10713
  156.1827  130.6509  151.0970 LP  0  0  0  0  0  0  0  0  0  0  0  0  # atno 17371 bound_to 10713
  141.2072  133.7813  157.0134 LP  0  0  0  0  0  0  0  0  0  0  0  0  # atno 17394 bound_to 11000
  140.0890  134.9604  157.1746 LP  0  0  0  0  0  0  0  0  0  0  0  0  # atno 17395 bound_to 11000

$$$$
