AV-unprocessed.smi:1266|AV-procd|sdf|5321|dock1
  -GOLD-   22720 4443D 1   1.00000     0.00000
 Structure written by MMmdl.
 40 41  0  0  0  0  0  0  0  0  3 V2000
  149.8815  141.8831  158.6210 O   0  0  0  0  0  0  0  0  0  0  0  0
  150.5309  142.2062  157.6253 C   0  0  0  0  0  0  0  0  0  0  0  0
  149.9755  141.9786  156.2121 C   0  0  0  0  0  0  0  0  0  0  0  0
  150.5338  140.7900  155.5452 N   0  0  0  0  0  0  0  0  0  0  0  0
  151.5662  140.1056  156.2166 C   0  0  0  0  0  0  0  0  0  0  0  0
  152.1499  139.0058  155.7012 C   0  0  0  0  0  0  0  0  0  0  0  0
  153.2121  138.3186  156.4025 N   0  3  0  0  0  0  0  0  0  0  0  0
  153.4131  137.1346  156.1514 O   0  0  0  0  0  0  0  0  0  0  0  0
  153.8793  138.9369  157.2267 O   0  5  0  0  0  0  0  0  0  0  0  0
  151.6787  138.5336  154.4136 C   0  0  0  0  0  0  0  0  0  0  0  0
  150.6959  139.1873  153.7636 C   0  0  0  0  0  0  0  0  0  0  0  0
  150.0666  140.3877  154.3237 C   0  0  0  0  0  0  0  0  0  0  0  0
  149.1734  140.9935  153.7314 O   0  0  0  0  0  0  0  0  0  0  0  0
  151.7421  142.7805  157.6903 N   0  0  0  0  0  0  0  0  0  0  0  0
  152.4707  143.0959  158.9170 C   0  0  0  0  0  0  0  0  0  0  0  0
  153.0157  141.7842  159.5206 C   0  0  0  0  0  0  0  0  0  0  0  0
  154.0770  142.0116  160.6107 C   0  0  0  0  0  0  0  0  0  0  0  0
  153.5347  142.2093  162.0372 C   0  0  0  0  0  0  0  0  0  0  0  0
  152.2592  143.0584  162.1763 C   0  0  0  0  0  0  0  0  0  0  0  0
  152.1617  144.2602  161.2232 C   0  0  0  0  0  0  0  0  0  0  0  0
  151.5472  143.8921  159.8620 C   0  0  0  0  0  0  0  0  0  0  0  0
  148.8896  141.9014  156.2819 H   0  0  0  0  0  0  0  0  0  0  0  0
  150.1584  142.8694  155.6080 H   0  0  0  0  0  0  0  0  0  0  0  0
  151.8489  140.5402  157.1647 H   0  0  0  0  0  0  0  0  0  0  0  0
  152.1104  137.6528  153.9613 H   0  0  0  0  0  0  0  0  0  0  0  0
  150.3608  138.8186  152.8052 H   0  0  0  0  0  0  0  0  0  0  0  0
  152.1998  143.0140  156.8210 H   0  0  0  0  0  0  0  0  0  0  0  0
  153.3251  143.7237  158.6568 H   0  0  0  0  0  0  0  0  0  0  0  0
  152.2068  141.1537  159.8919 H   0  0  0  0  0  0  0  0  0  0  0  0
  153.4908  141.2156  158.7197 H   0  0  0  0  0  0  0  0  0  0  0  0
  154.7524  141.1553  160.6285 H   0  0  0  0  0  0  0  0  0  0  0  0
  154.7036  142.8609  160.3358 H   0  0  0  0  0  0  0  0  0  0  0  0
  153.3435  141.2339  162.4858 H   0  0  0  0  0  0  0  0  0  0  0  0
  154.3267  142.6558  162.6397 H   0  0  0  0  0  0  0  0  0  0  0  0
  151.3820  142.4230  162.0480 H   0  0  0  0  0  0  0  0  0  0  0  0
  152.2045  143.4155  163.2052 H   0  0  0  0  0  0  0  0  0  0  0  0
  151.5111  145.0027  161.6864 H   0  0  0  0  0  0  0  0  0  0  0  0
  153.1296  144.7479  161.1017 H   0  0  0  0  0  0  0  0  0  0  0  0
  151.2595  144.8184  159.3629 H   0  0  0  0  0  0  0  0  0  0  0  0
  150.6160  143.3459  160.0197 H   0  0  0  0  0  0  0  0  0  0  0  0
  1  2  2  0  0  0  0
  2  3  1  0  0  0  0
  2 14  1  0  0  0  0
  3  4  1  0  0  0  0
  3 22  1  0  0  0  0
  3 23  1  0  0  0  0
  4 12  1  0  0  0  0
  4  5  1  0  0  0  0
  5  6  2  0  0  0  0
  5 24  1  0  0  0  0
  6  7  1  0  0  0  0
  6 10  1  0  0  0  0
  7  8  2  0  0  0  0
  7  9  1  0  0  0  0
 10 11  2  0  0  0  0
 10 25  1  0  0  0  0
 11 12  1  0  0  0  0
 11 26  1  0  0  0  0
 12 13  2  0  0  0  0
 14 15  1  0  0  0  0
 14 27  1  0  0  0  0
 15 21  1  0  0  0  0
 15 16  1  0  0  0  0
 15 28  1  0  0  0  0
 16 17  1  0  0  0  0
 16 29  1  0  0  0  0
 16 30  1  0  0  0  0
 17 18  1  0  0  0  0
 17 31  1  0  0  0  0
 17 32  1  0  0  0  0
 18 19  1  0  0  0  0
 18 33  1  0  0  0  0
 18 34  1  0  0  0  0
 19 20  1  0  0  0  0
 19 35  1  0  0  0  0
 19 36  1  0  0  0  0
 20 21  1  0  0  0  0
 20 37  1  0  0  0  0
 20 38  1  0  0  0  0
 21 39  1  0  0  0  0
 21 40  1  0  0  0  0
M  CHG  1   7   1
M  CHG  1   9  -1
M  END
> <s_m_source_file>
AV-unprocessed.smi

> <i_m_source_file_index>
1266

> <i_lp_mmshare_version>
43012

> <i_f3d_flags>
0

> <s_epik_input>
W0NIMl0xW0NIMl1bQ0gyXVtDSDJdW0NIMl1bQ0gyXVtDSF0xW05IXUMoPU8pW0NIMl1uMltjSF1jKFtOK10oPU8pW08tXSlbY0hdW2NIXWMyPU8=

> <s_epik_cmdline>
J2VwaWtfcHl0aG9uJywgJy1waCcsICc3LjAnLCAnLXRuJywgJzgnLCAnLW1hJywgJzIwMCcsICctbWV0YWxfYmluZGluZycsICctaW1hZScsICc8aW5maWxlLm1hZT4nLCAnLW9tYWUnLCAnPG91dGZpbGUubWFlPic=

> <r_lp_tautomer_probability>
1

> <r_epik_Ionization_Penalty>
2.02954e-08

> <r_epik_Ionization_Penalty_Charging>
8.05481e-11

> <r_epik_Ionization_Penalty_Neutral>
2.02148e-08

> <r_epik_State_Penalty>
-0

> <r_epik_Charging_Adjusted_Penalty>
8.05481e-11

> <i_epik_Tot_Q>
0

> <i_epik_Tot_abs_Q>
2

> <r_epik_Metal_State_Penalty>
-0

> <b_epik_Metal_Only>
0

> <s_lp_Force_Field>
OPLS_2005

> <r_lp_Energy>
25.8216

> <b_lp_Chiralities_Consistent>
1

> <s_lp_Variant>
AV-unprocessed.smi:1266-1

> <Gold.Version>
5.8.1

> <Gold.Id.Protein>
6NUR|6NUR_protein|mol2

> <Gold.PLP.Fitness>
49.1005

> <Gold.PLP.PLP>
-43.6108

> <Gold.PLP.part.hbond>
-3.6603

> <Gold.PLP.part.metal>
0.0000

> <Gold.PLP.part.buried>
1.9643

> <Gold.PLP.part.nonpolar>
-41.9786

> <Gold.PLP.part.repulsive>
2.0149

> <Gold.PLP.ligand.clash>
0.6173

> <Gold.PLP.ligand.torsion>
0.6586

> <Gold.PLP.Chemscore.Hbond>
2.4600

> <Gold.PLP.Chemscore.CHOScore>
0.0000

> <Gold.PLP.Chemscore.Metal>
0.0000

> <Gold.Chemscore.Hbonds>
donor molecule, donor type, donor heavy atom, donor atom, acceptor molecule, acceptor atom, score
      P1  H  7997  8010       L1     9  0.42
      P1  H  8011  8017       L1    13  0.85
      P1  H 10752 10765       L1     8  0.54

> <Gold.PLP.Chemscore.Internal.Correction>
0.0444

> <Gold.Rescore>
     Score         DG    S(hbond)    S(metal)    S(lipo)     H(rot)  DE(clash)    DE(int)     intcor
     18.62     -22.99       2.44        0.00     113.93       1.55       2.23       2.13       ----

> <Gold.Chemscore.Fitness>
18.6215

> <Gold.Chemscore.DG>
-22.9851

> <Gold.Chemscore.ZeroCoef>
-5.4800

> <Gold.Chemscore.Hbond>
2.4384

> <Gold.Chemscore.Metal>
0.0000

> <Gold.Chemscore.Lipo>
113.9327

> <Gold.Chemscore.Internal_Hbond>
0.0000

> <Gold.Chemscore.DEClash>
2.2317

> <Gold.Chemscore.DEInternal>
2.1320

> <Gold.Chemscore.Rot>
1.5505

> <Gold.Chemscore.Internal.Correction>
   9.000000E+99

> <Gold.Chemscore.Hbonds>
donor molecule, donor type, donor heavy atom, donor atom, acceptor molecule, acceptor atom, score
      P1  H  7997  8010       L1     9  0.39
      P1  H  8011  8017       L1    13  0.73
      P1  H 10752 10765       L1     8  0.56

> <Gold.Chemscore.Hbond.Weighted>
-8.1442

> <Gold.Chemscore.Metal.Weighted>
-0.0000

> <Gold.Chemscore.Lipo.Weighted>
-13.3301

> <Gold.Chemscore.Internal_Hbond.Weighted>
0.0000

> <Gold.Chemscore.DEClash.Weighted>
2.2317

> <Gold.Chemscore.DEInternal.Weighted>
2.1320

> <Gold.Chemscore.Rot.Weighted>
3.9692

> <Gold.Chemscore.Internal.Correction.Weighted>
   9.000000E+99

> <Gold.Protein.RotatedTorsions>
[ 6907 6896 6895 6894 ] final -172.42 input  -60.11 | X-H torsion
[ 7974 7965 7964 7962 ] final -111.12 input  175.53 | X-H torsion
[ 8008 7997 7996 7995 ] final   39.71 input   59.86 | X-H torsion
[ 10167 10162 10161 10158 ] final  172.59 input  -65.29 | X-H torsion
[ 10718 10713 10712 10709 ] final   70.37 input   66.30 | X-H torsion
[ 10763 10752 10751 10750 ] final -128.84 input  -60.55 | X-H torsion
[ 11005 11000 10999 10996 ] final  155.11 input  -57.11 | X-H torsion

> <Gold.Protein.ActiveResidues>
 VAL166  LYS551  ARG553  GLY616  TRP617  ASP618  TYR619  PRO620  LYS621  CYS622 
 ASP623  PHE694  ASN695  SER759  ASP760  ASP761  ALA762  ILE779  LEU786  VAL792 
 PHE793  MET794  SER795  GLU796  ALA797  LYS798  CYS799  TRP800  GLU811  SER814 

> <Gold.Protein.RotatedAtoms>
  151.5398  133.3435  159.2933 H   0  0  0  0  0  0  0  0  0  0  0  0  # atno 6907 bound_to 6896
  150.8543  134.7879  159.7044 H   0  0  0  0  0  0  0  0  0  0  0  0  # atno 6908 bound_to 6896
  152.4580  134.5255  159.9847 H   0  0  0  0  0  0  0  0  0  0  0  0  # atno 6909 bound_to 6896
  145.1600  140.8873  143.3596 H   0  0  0  0  0  0  0  0  0  0  0  0  # atno 7974 bound_to 7965
  155.2411  140.3345  155.4292 H   0  0  0  0  0  0  0  0  0  0  0  0  # atno 8008 bound_to 7997
  156.2255  140.1827  156.7417 H   0  0  0  0  0  0  0  0  0  0  0  0  # atno 8009 bound_to 7997
  154.5893  140.0640  156.9201 H   0  0  0  0  0  0  0  0  0  0  0  0  # atno 8010 bound_to 7997
  139.5081  144.3356  152.0068 H   0  0  0  0  0  0  0  0  0  0  0  0  # atno 10167 bound_to 10162
  157.6396  130.9473  150.0641 H   0  0  0  0  0  0  0  0  0  0  0  0  # atno 10718 bound_to 10713
  154.8757  135.3915  154.3822 H   0  0  0  0  0  0  0  0  0  0  0  0  # atno 10763 bound_to 10752
  153.4568  135.7029  153.6080 H   0  0  0  0  0  0  0  0  0  0  0  0  # atno 10764 bound_to 10752
  153.4596  135.3815  155.2299 H   0  0  0  0  0  0  0  0  0  0  0  0  # atno 10765 bound_to 10752
  140.1551  134.8648  157.2504 H   0  0  0  0  0  0  0  0  0  0  0  0  # atno 11005 bound_to 11000
  145.0341  139.3316  143.6010 LP  0  0  0  0  0  0  0  0  0  0  0  0  # atno 17320 bound_to 7965
  146.3483  139.9690  142.8708 LP  0  0  0  0  0  0  0  0  0  0  0  0  # atno 17321 bound_to 7965
  140.2795  144.3875  150.6124 LP  0  0  0  0  0  0  0  0  0  0  0  0  # atno 17342 bound_to 10162
  140.6029  143.2167  151.7038 LP  0  0  0  0  0  0  0  0  0  0  0  0  # atno 17343 bound_to 10162
  156.1665  130.3645  149.9225 LP  0  0  0  0  0  0  0  0  0  0  0  0  # atno 17370 bound_to 10713
  156.7211  130.9007  151.3618 LP  0  0  0  0  0  0  0  0  0  0  0  0  # atno 17371 bound_to 10713
  140.2557  134.3630  155.7425 LP  0  0  0  0  0  0  0  0  0  0  0  0  # atno 17394 bound_to 11000
  141.2203  133.7341  156.9004 LP  0  0  0  0  0  0  0  0  0  0  0  0  # atno 17395 bound_to 11000

$$$$
