AV-unprocessed.smi:311|AV-procd|sdf|2304|dock2
  -GOLD-   2262022203D 1   1.00000     0.00000
 Structure written by MMmdl.
 44 46  0  0  0  0  0  0  0  0  2 V2000
  150.5944  131.2869  156.5053 C   0  0  0  0  0  0  0  0  0  0  0  0
  150.2068  132.7380  156.4885 C   0  0  0  0  0  0  0  0  0  0  0  0
  150.2730  133.4445  157.6041 N   0  0  0  0  0  0  0  0  0  0  0  0
  149.8655  134.7377  157.2633 O   0  0  0  0  0  0  0  0  0  0  0  0
  149.5717  134.7610  155.9386 C   0  0  0  0  0  0  0  0  0  0  0  0
  149.1240  136.0685  155.3785 C   0  0  0  0  0  0  0  0  0  0  0  0
  149.7671  133.5251  155.3852 C   0  0  0  0  0  0  0  0  0  0  0  0
  149.5822  133.0902  153.9534 C   0  0  0  0  0  0  0  0  0  0  0  0
  148.0919  133.0864  153.6172 C   0  0  0  0  0  0  0  0  0  0  0  0
  147.3593  132.2077  154.0707 O   0  0  0  0  0  0  0  0  0  0  0  0
  147.6650  134.0571  152.7946 N   0  0  0  0  0  0  0  0  0  0  0  0
  146.3160  134.1660  152.2496 C   0  0  1  0  0  0  0  0  0  0  0  0
  145.8362  135.6177  152.1158 C   0  0  0  0  0  0  0  0  0  0  0  0
  145.0240  135.6602  150.8056 C   0  0  0  0  0  0  0  0  0  0  0  0
  145.0059  134.2797  150.2680 N   0  3  2  0  0  0  0  0  0  0  0  0
  143.7420  133.5658  150.6011 C   0  0  0  0  0  0  0  0  0  0  0  0
  143.8124  132.0714  150.2605 C   0  0  0  0  0  0  0  0  0  0  0  0
  144.9848  131.4154  150.9944 C   0  0  0  0  0  0  0  0  0  0  0  0
  146.2868  132.1182  150.5987 C   0  0  0  0  0  0  0  0  0  0  0  0
  146.2347  133.6492  150.8073 C   0  0  2  0  0  0  0  0  0  0  0  0
  149.9369  130.6980  155.8658 H   0  0  0  0  0  0  0  0  0  0  0  0
  150.5392  130.8664  157.5101 H   0  0  0  0  0  0  0  0  0  0  0  0
  151.6140  131.1537  156.1433 H   0  0  0  0  0  0  0  0  0  0  0  0
  149.3791  136.1491  154.3217 H   0  0  0  0  0  0  0  0  0  0  0  0
  149.5980  136.8994  155.9020 H   0  0  0  0  0  0  0  0  0  0  0  0
  148.0441  136.1793  155.4763 H   0  0  0  0  0  0  0  0  0  0  0  0
  150.1040  133.7581  153.2670 H   0  0  0  0  0  0  0  0  0  0  0  0
  149.9901  132.0944  153.7765 H   0  0  0  0  0  0  0  0  0  0  0  0
  148.3423  134.7362  152.4786 H   0  0  0  0  0  0  0  0  0  0  0  0
  145.6042  133.6282  152.8783 H   0  0  0  0  0  0  0  0  0  0  0  0
  145.2340  135.9124  152.9759 H   0  0  0  0  0  0  0  0  0  0  0  0
  146.6761  136.3113  152.0512 H   0  0  0  0  0  0  0  0  0  0  0  0
  144.0211  136.0644  150.9518 H   0  0  0  0  0  0  0  0  0  0  0  0
  145.5278  136.3036  150.0832 H   0  0  0  0  0  0  0  0  0  0  0  0
  143.5169  133.6828  151.6625 H   0  0  0  0  0  0  0  0  0  0  0  0
  142.9194  134.0304  150.0562 H   0  0  0  0  0  0  0  0  0  0  0  0
  142.8787  131.5820  150.5393 H   0  0  0  0  0  0  0  0  0  0  0  0
  143.9239  131.9389  149.1835 H   0  0  0  0  0  0  0  0  0  0  0  0
  144.8361  131.4746  152.0732 H   0  0  0  0  0  0  0  0  0  0  0  0
  145.0405  130.3553  150.7448 H   0  0  0  0  0  0  0  0  0  0  0  0
  147.1290  131.6852  151.1382 H   0  0  0  0  0  0  0  0  0  0  0  0
  146.4794  131.9181  149.5439 H   0  0  0  0  0  0  0  0  0  0  0  0
  147.0725  134.0793  150.2542 H   0  0  0  0  0  0  0  0  0  0  0  0
  145.0746  134.3115  149.2607 H   0  0  0  0  0  0  0  0  0  0  0  0
  1  2  1  0  0  0  0
  1 21  1  0  0  0  0
  1 22  1  0  0  0  0
  1 23  1  0  0  0  0
  2  7  1  0  0  0  0
  2  3  2  0  0  0  0
  3  4  1  0  0  0  0
  4  5  1  0  0  0  0
  5  6  1  0  0  0  0
  5  7  2  0  0  0  0
  6 24  1  0  0  0  0
  6 25  1  0  0  0  0
  6 26  1  0  0  0  0
  7  8  1  0  0  0  0
  8  9  1  0  0  0  0
  8 27  1  0  0  0  0
  8 28  1  0  0  0  0
  9 10  2  0  0  0  0
  9 11  1  0  0  0  0
 11 12  1  0  0  0  0
 11 29  1  0  0  0  0
 12 20  1  0  0  0  0
 12 13  1  0  0  0  0
 12 30  1  0  0  0  0
 13 14  1  0  0  0  0
 13 31  1  0  0  0  0
 13 32  1  0  0  0  0
 14 15  1  0  0  0  0
 14 33  1  0  0  0  0
 14 34  1  0  0  0  0
 15 20  1  0  0  0  0
 15 16  1  0  0  0  0
 15 44  1  0  0  0  0
 16 17  1  0  0  0  0
 16 35  1  0  0  0  0
 16 36  1  0  0  0  0
 17 18  1  0  0  0  0
 17 37  1  0  0  0  0
 17 38  1  0  0  0  0
 18 19  1  0  0  0  0
 18 39  1  0  0  0  0
 18 40  1  0  0  0  0
 19 20  1  0  0  0  0
 19 41  1  0  0  0  0
 19 42  1  0  0  0  0
 20 43  1  0  0  0  0
M  CHG  1  15   1
M  END
> <s_m_source_file>
AV-unprocessed.smi

> <i_m_source_file_index>
311

> <i_lp_mmshare_version>
43012

> <i_f3d_flags>
0

> <s_epik_input>
W0NIM11jMW5vYyhbQ0gzXSljMVtDSDJdQyg9TylbTkhdW0NASF0oW0NIMl1bQ0gyXTIpW0NAQEhdKE4yMylbQ0gyXVtDSDJdW0NIMl1bQ0gyXTM=

> <s_epik_cmdline>
J2VwaWtfcHl0aG9uJywgJy1waCcsICc3LjAnLCAnLXRuJywgJzgnLCAnLW1hJywgJzIwMCcsICctbWV0YWxfYmluZGluZycsICctaW1hZScsICc8aW5maWxlLm1hZT4nLCAnLW9tYWUnLCAnPG91dGZpbGUubWFlPic=

> <r_epik_Ionization_Penalty>
0.00173669

> <r_epik_Ionization_Penalty_Charging>
0.0017366

> <r_epik_Ionization_Penalty_Neutral>
9.2145e-08

> <r_epik_State_Penalty>
0.00117499

> <r_epik_Charging_Adjusted_Penalty>
0.00291159

> <i_epik_Tot_Q>
1

> <i_epik_Tot_abs_Q>
1

> <r_epik_Metal_State_Penalty>
-0

> <b_epik_Metal_Only>
0

> <s_lp_Force_Field>
OPLS_2005

> <r_lp_Energy>
30.3664

> <b_lp_Chiralities_Consistent>
1

> <s_lp_Variant>
AV-unprocessed.smi:311-8

> <Gold.Version>
5.8.1

> <Gold.Id.Protein>
6NUR|6NUR_protein|mol2

> <Gold.PLP.Fitness>
42.0359

> <Gold.PLP.PLP>
-34.1068

> <Gold.PLP.part.hbond>
-3.6246

> <Gold.PLP.part.metal>
0.0000

> <Gold.PLP.part.buried>
-0.9813

> <Gold.PLP.part.nonpolar>
-29.1220

> <Gold.PLP.part.repulsive>
0.1115

> <Gold.PLP.ligand.clash>
0.0000

> <Gold.PLP.ligand.torsion>
0.5300

> <Gold.PLP.Chemscore.Hbond>
2.9920

> <Gold.PLP.Chemscore.CHOScore>
0.0000

> <Gold.PLP.Chemscore.Metal>
0.0000

> <Gold.Chemscore.Hbonds>
donor molecule, donor type, donor heavy atom, donor atom, acceptor molecule, acceptor atom, score
      L1  H    11    29       P1  7948  1.00
      L1  H    15    44       P1  7921  0.98
      P1  H  6896  6908       L1     3  0.94

> <Gold.PLP.Chemscore.Internal.Correction>
0.0131

> <Gold.Rescore>
     Score         DG    S(hbond)    S(metal)    S(lipo)     H(rot)  DE(clash)    DE(int)     intcor
     19.13     -20.99       2.66        0.00      86.32       1.36       1.26       0.59       ----

> <Gold.Chemscore.Fitness>
19.1312

> <Gold.Chemscore.DG>
-20.9892

> <Gold.Chemscore.ZeroCoef>
-5.4800

> <Gold.Chemscore.Hbond>
2.6596

> <Gold.Chemscore.Metal>
0.0000

> <Gold.Chemscore.Lipo>
86.3190

> <Gold.Chemscore.Internal_Hbond>
0.0000

> <Gold.Chemscore.DEClash>
1.2647

> <Gold.Chemscore.DEInternal>
0.5933

> <Gold.Chemscore.Rot>
1.3567

> <Gold.Chemscore.Internal.Correction>
   9.000000E+99

> <Gold.Chemscore.Hbonds>
donor molecule, donor type, donor heavy atom, donor atom, acceptor molecule, acceptor atom, score
      L1  H    11    29       P1  7948  0.25
      L1  H    15    44       P1  7921  0.89
      P1  H  6896  6908       L1     3  0.59

> <Gold.Chemscore.Hbond.Weighted>
-8.8829

> <Gold.Chemscore.Metal.Weighted>
-0.0000

> <Gold.Chemscore.Lipo.Weighted>
-10.0993

> <Gold.Chemscore.Internal_Hbond.Weighted>
0.0000

> <Gold.Chemscore.DEClash.Weighted>
1.2647

> <Gold.Chemscore.DEInternal.Weighted>
0.5933

> <Gold.Chemscore.Rot.Weighted>
3.4731

> <Gold.Chemscore.Internal.Correction.Weighted>
   9.000000E+99

> <Gold.Protein.RotatedTorsions>
[ 6907 6896 6895 6894 ] final   96.23 input  -60.11 | X-H torsion
[ 7974 7965 7964 7962 ] final  -73.81 input  175.53 | X-H torsion
[ 8008 7997 7996 7995 ] final  176.69 input   59.86 | X-H torsion
[ 10167 10162 10161 10158 ] final   68.91 input  -65.29 | X-H torsion
[ 10718 10713 10712 10709 ] final  -39.44 input   66.30 | X-H torsion
[ 10763 10752 10751 10750 ] final  105.33 input  -60.55 | X-H torsion
[ 11005 11000 10999 10996 ] final -115.05 input  -57.11 | X-H torsion

> <Gold.Protein.ActiveResidues>
 VAL166  LYS551  ARG553  GLY616  TRP617  ASP618  TYR619  PRO620  LYS621  CYS622 
 ASP623  PHE694  ASN695  SER759  ASP760  ASP761  ALA762  ILE779  LEU786  VAL792 
 PHE793  MET794  SER795  GLU796  ALA797  LYS798  CYS799  TRP800  GLU811  SER814 

> <Gold.Protein.RotatedAtoms>
  152.5437  134.0918  159.8279 H   0  0  0  0  0  0  0  0  0  0  0  0  # atno 6907 bound_to 6896
  151.1007  133.5239  159.2617 H   0  0  0  0  0  0  0  0  0  0  0  0  # atno 6908 bound_to 6896
  151.1995  135.0445  159.8920 H   0  0  0  0  0  0  0  0  0  0  0  0  # atno 6909 bound_to 6896
  145.6473  140.9293  143.1003 H   0  0  0  0  0  0  0  0  0  0  0  0  # atno 7974 bound_to 7965
  156.0737  140.1377  156.9797 H   0  0  0  0  0  0  0  0  0  0  0  0  # atno 8008 bound_to 7997
  154.4546  140.0966  156.6769 H   0  0  0  0  0  0  0  0  0  0  0  0  # atno 8009 bound_to 7997
  155.5187  140.3455  155.4405 H   0  0  0  0  0  0  0  0  0  0  0  0  # atno 8010 bound_to 7997
  140.0735  144.5132  150.7210 H   0  0  0  0  0  0  0  0  0  0  0  0  # atno 10167 bound_to 10162
  156.2924  130.4230  149.8225 H   0  0  0  0  0  0  0  0  0  0  0  0  # atno 10718 bound_to 10713
  153.3780  135.3913  155.1836 H   0  0  0  0  0  0  0  0  0  0  0  0  # atno 10763 bound_to 10752
  154.8703  135.3718  154.4893 H   0  0  0  0  0  0  0  0  0  0  0  0  # atno 10764 bound_to 10752
  153.5368  135.7085  153.5717 H   0  0  0  0  0  0  0  0  0  0  0  0  # atno 10765 bound_to 10752
  141.0513  133.9683  157.2832 H   0  0  0  0  0  0  0  0  0  0  0  0  # atno 11005 bound_to 11000
  144.7135  139.8282  143.7406 LP  0  0  0  0  0  0  0  0  0  0  0  0  # atno 17320 bound_to 7965
  146.1232  139.4253  143.0215 LP  0  0  0  0  0  0  0  0  0  0  0  0  # atno 17321 bound_to 7965
  140.7113  143.2508  151.4571 LP  0  0  0  0  0  0  0  0  0  0  0  0  # atno 17342 bound_to 10162
  139.5821  144.1685  152.1982 LP  0  0  0  0  0  0  0  0  0  0  0  0  # atno 17343 bound_to 10162
  156.5633  130.8393  151.3335 LP  0  0  0  0  0  0  0  0  0  0  0  0  # atno 17370 bound_to 10713
  157.7346  130.9749  150.2038 LP  0  0  0  0  0  0  0  0  0  0  0  0  # atno 17371 bound_to 10713
  139.9352  135.0197  156.8533 LP  0  0  0  0  0  0  0  0  0  0  0  0  # atno 17394 bound_to 11000
  140.6050  134.0136  155.7553 LP  0  0  0  0  0  0  0  0  0  0  0  0  # atno 17395 bound_to 11000

$$$$
