AV-unprocessed.smi:1392|AV-procd|sdf|5661|dock7
  -GOLD-   22720 5283D 1   1.00000     0.00000
 Structure written by MMmdl.
 39 40  0  0  0  0  0  0  0  0  1 V2000
  151.0016  142.2072  156.4937 C   0  0  0  0  0  0  0  0  0  0  0  0
  149.6654  141.7041  156.7874 N   0  0  0  0  0  0  0  0  0  0  0  0
  148.9547  142.1751  157.9717 C   0  0  0  0  0  0  0  0  0  0  0  0
  149.0639  140.7449  155.9403 C   0  0  0  0  0  0  0  0  0  0  0  0
  147.8137  140.1579  156.2574 C   0  0  0  0  0  0  0  0  0  0  0  0
  147.2532  139.2092  155.3808 C   0  0  0  0  0  0  0  0  0  0  0  0
  147.9508  138.8705  154.1989 C   0  0  0  0  0  0  0  0  0  0  0  0
  147.5010  137.9170  153.2460 N   0  0  0  0  0  0  0  0  0  0  0  0
  146.2496  137.4780  153.0275 C   0  0  0  0  0  0  0  0  0  0  0  0
  145.2438  137.8665  153.6209 O   0  0  0  0  0  0  0  0  0  0  0  0
  146.2222  136.5585  152.0526 N   0  0  0  0  0  0  0  0  0  0  0  0
  145.0205  135.8879  151.5673 C   0  0  0  0  0  0  0  0  0  0  0  0
  145.3475  134.5827  150.8171 C   0  0  2  0  0  0  0  0  0  0  0  0
  144.1461  133.7167  150.4933 C   0  0  0  0  0  0  0  0  0  0  0  0
  144.7984  132.3631  150.2297 C   0  0  0  0  0  0  0  0  0  0  0  0
  145.9523  132.3180  151.0644 O   0  0  0  0  0  0  0  0  0  0  0  0
  146.2075  133.6057  151.6179 C   0  0  0  0  0  0  0  0  0  0  0  0
  149.1936  139.4942  153.9757 C   0  0  0  0  0  0  0  0  0  0  0  0
  149.7338  140.4043  154.8122 N   0  0  0  0  0  0  0  0  0  0  0  0
  151.0184  142.7070  155.5249 H   0  0  0  0  0  0  0  0  0  0  0  0
  151.7241  141.3907  156.4794 H   0  0  0  0  0  0  0  0  0  0  0  0
  151.3292  142.9269  157.2439 H   0  0  0  0  0  0  0  0  0  0  0  0
  148.0100  142.6420  157.6914 H   0  0  0  0  0  0  0  0  0  0  0  0
  149.5401  142.9121  158.5209 H   0  0  0  0  0  0  0  0  0  0  0  0
  148.7445  141.3454  158.6473 H   0  0  0  0  0  0  0  0  0  0  0  0
  147.2740  140.4116  157.1570 H   0  0  0  0  0  0  0  0  0  0  0  0
  146.3106  138.7539  155.6416 H   0  0  0  0  0  0  0  0  0  0  0  0
  148.2107  137.5637  152.6212 H   0  0  0  0  0  0  0  0  0  0  0  0
  147.0947  136.3019  151.6145 H   0  0  0  0  0  0  0  0  0  0  0  0
  144.3463  135.6845  152.4010 H   0  0  0  0  0  0  0  0  0  0  0  0
  144.4931  136.5779  150.9080 H   0  0  0  0  0  0  0  0  0  0  0  0
  145.8694  134.8148  149.8871 H   0  0  0  0  0  0  0  0  0  0  0  0
  143.4808  133.6500  151.3551 H   0  0  0  0  0  0  0  0  0  0  0  0
  143.5695  134.0810  149.6425 H   0  0  0  0  0  0  0  0  0  0  0  0
  144.1257  131.5299  150.4330 H   0  0  0  0  0  0  0  0  0  0  0  0
  145.1207  132.2929  149.1901 H   0  0  0  0  0  0  0  0  0  0  0  0
  147.2684  133.8537  151.5761 H   0  0  0  0  0  0  0  0  0  0  0  0
  145.9052  133.5926  152.6659 H   0  0  0  0  0  0  0  0  0  0  0  0
  149.7739  139.2610  153.0949 H   0  0  0  0  0  0  0  0  0  0  0  0
  1  2  1  0  0  0  0
  1 20  1  0  0  0  0
  1 21  1  0  0  0  0
  1 22  1  0  0  0  0
  2  3  1  0  0  0  0
  2  4  1  0  0  0  0
  3 23  1  0  0  0  0
  3 24  1  0  0  0  0
  3 25  1  0  0  0  0
  4 19  1  0  0  0  0
  4  5  2  0  0  0  0
  5  6  1  0  0  0  0
  5 26  1  0  0  0  0
  6  7  2  0  0  0  0
  6 27  1  0  0  0  0
  7  8  1  0  0  0  0
  7 18  1  0  0  0  0
  8  9  1  0  0  0  0
  8 28  1  0  0  0  0
  9 10  2  0  0  0  0
  9 11  1  0  0  0  0
 11 12  1  0  0  0  0
 11 29  1  0  0  0  0
 12 13  1  0  0  0  0
 12 30  1  0  0  0  0
 12 31  1  0  0  0  0
 13 17  1  0  0  0  0
 13 14  1  0  0  0  0
 13 32  1  0  0  0  0
 14 15  1  0  0  0  0
 14 33  1  0  0  0  0
 14 34  1  0  0  0  0
 15 16  1  0  0  0  0
 15 35  1  0  0  0  0
 15 36  1  0  0  0  0
 16 17  1  0  0  0  0
 17 37  1  0  0  0  0
 17 38  1  0  0  0  0
 18 19  2  0  0  0  0
 18 39  1  0  0  0  0
M  END
> <s_m_source_file>
AV-unprocessed.smi

> <i_m_source_file_index>
1392

> <i_lp_mmshare_version>
43012

> <i_f3d_flags>
0

> <s_epik_input>
W0NIM11OKFtDSDNdKWMxW2NIXVtjSF1jKFtjSF1uMSlbTkhdQyg9TylbTkhdW0NIMl1bQ0BASF0yW0NIMl1bQ0gyXU9bQ0gyXTI=

> <s_epik_cmdline>
J2VwaWtfcHl0aG9uJywgJy1waCcsICc3LjAnLCAnLXRuJywgJzgnLCAnLW1hJywgJzIwMCcsICctbWV0YWxfYmluZGluZycsICctaW1hZScsICc8aW5maWxlLm1hZT4nLCAnLW9tYWUnLCAnPG91dGZpbGUubWFlPic=

> <r_lp_tautomer_probability>
1

> <r_epik_Ionization_Penalty>
0.612298

> <r_epik_Ionization_Penalty_Charging>
0

> <r_epik_Ionization_Penalty_Neutral>
0.612298

> <r_epik_State_Penalty>
0.626495

> <r_epik_Charging_Adjusted_Penalty>
0.626495

> <i_epik_Tot_Q>
0

> <i_epik_Tot_abs_Q>
0

> <r_epik_Metal_State_Penalty>
0.304101

> <b_epik_Metal_Only>
0

> <s_lp_Force_Field>
OPLS_2005

> <r_lp_Energy>
22.6053

> <b_lp_Chiralities_Consistent>
1

> <s_lp_Variant>
AV-unprocessed.smi:1392-3

> <Gold.Version>
5.8.1

> <Gold.Id.Protein>
6NUR|6NUR_protein|mol2

> <Gold.PLP.Fitness>
34.4607

> <Gold.PLP.PLP>
-25.8203

> <Gold.PLP.part.hbond>
-2.3421

> <Gold.PLP.part.metal>
0.0000

> <Gold.PLP.part.buried>
-3.9099

> <Gold.PLP.part.nonpolar>
-20.0165

> <Gold.PLP.part.repulsive>
0.4627

> <Gold.PLP.ligand.clash>
0.0000

> <Gold.PLP.ligand.torsion>
0.2784

> <Gold.PLP.Chemscore.Hbond>
2.0634

> <Gold.PLP.Chemscore.CHOScore>
1.0000

> <Gold.PLP.Chemscore.Metal>
0.0000

> <Gold.Chemscore.Hbonds>
donor molecule, donor type, donor heavy atom, donor atom, acceptor molecule, acceptor atom, score
      L1  H     8    28       P1  7948  1.00
      L1  H    11    29       P1  7948  0.91
      P1  H  7989  7998       L1    19  0.15
      L1  C    18    39       P1  7957  1.00

> <Gold.PLP.Chemscore.Internal.Correction>
0.0069

> <Gold.Rescore>
     Score         DG    S(hbond)    S(metal)    S(lipo)     H(rot)  DE(clash)    DE(int)     intcor
     14.12     -15.55       1.93        0.00      57.50       1.21       0.08       1.34       ----

> <Gold.Chemscore.Fitness>
14.1231

> <Gold.Chemscore.DG>
-15.5514

> <Gold.Chemscore.ZeroCoef>
-5.4800

> <Gold.Chemscore.Hbond>
1.9321

> <Gold.Chemscore.Metal>
0.0000

> <Gold.Chemscore.Lipo>
57.5012

> <Gold.Chemscore.Internal_Hbond>
0.0000

> <Gold.Chemscore.DEClash>
0.0837

> <Gold.Chemscore.DEInternal>
1.3446

> <Gold.Chemscore.Rot>
1.2146

> <Gold.Chemscore.Internal.Correction>
   9.000000E+99

> <Gold.Chemscore.Hbonds>
donor molecule, donor type, donor heavy atom, donor atom, acceptor molecule, acceptor atom, score
      L1  H     8    28       P1  7948  0.94
      L1  H    11    29       P1  7948  0.90
      P1  H  7989  7998       L1    19  0.02

> <Gold.Chemscore.Hbond.Weighted>
-6.4531

> <Gold.Chemscore.Metal.Weighted>
-0.0000

> <Gold.Chemscore.Lipo.Weighted>
-6.7276

> <Gold.Chemscore.Internal_Hbond.Weighted>
0.0000

> <Gold.Chemscore.DEClash.Weighted>
0.0837

> <Gold.Chemscore.DEInternal.Weighted>
1.3446

> <Gold.Chemscore.Rot.Weighted>
3.1093

> <Gold.Chemscore.Internal.Correction.Weighted>
   9.000000E+99

> <Gold.Protein.RotatedTorsions>
[ 6907 6896 6895 6894 ] final  -93.06 input  -60.11 | X-H torsion
[ 7974 7965 7964 7962 ] final   67.72 input  175.53 | X-H torsion
[ 8008 7997 7996 7995 ] final  -52.50 input   59.86 | X-H torsion
[ 10167 10162 10161 10158 ] final   40.29 input  -65.29 | X-H torsion
[ 10718 10713 10712 10709 ] final  167.50 input   66.30 | X-H torsion
[ 10763 10752 10751 10750 ] final    3.86 input  -60.55 | X-H torsion
[ 11005 11000 10999 10996 ] final -164.43 input  -57.11 | X-H torsion

> <Gold.Protein.ActiveResidues>
 VAL166  LYS551  ARG553  GLY616  TRP617  ASP618  TYR619  PRO620  LYS621  CYS622 
 ASP623  PHE694  ASN695  SER759  ASP760  ASP761  ALA762  ILE779  LEU786  VAL792 
 PHE793  MET794  SER795  GLU796  ALA797  LYS798  CYS799  TRP800  GLU811  SER814 

> <Gold.Protein.RotatedAtoms>
  150.6916  134.2026  159.4327 H   0  0  0  0  0  0  0  0  0  0  0  0  # atno 6907 bound_to 6896
  151.9991  134.9935  160.0573 H   0  0  0  0  0  0  0  0  0  0  0  0  # atno 6908 bound_to 6896
  152.1595  133.4538  159.4890 H   0  0  0  0  0  0  0  0  0  0  0  0  # atno 6909 bound_to 6896
  145.8112  139.3034  143.1098 H   0  0  0  0  0  0  0  0  0  0  0  0  # atno 7974 bound_to 7965
  154.4108  140.1222  156.5001 H   0  0  0  0  0  0  0  0  0  0  0  0  # atno 8008 bound_to 7997
  155.6903  140.3495  155.4871 H   0  0  0  0  0  0  0  0  0  0  0  0  # atno 8009 bound_to 7997
  155.9474  140.1098  157.0995 H   0  0  0  0  0  0  0  0  0  0  0  0  # atno 8010 bound_to 7997
  140.3756  144.2047  150.6132 H   0  0  0  0  0  0  0  0  0  0  0  0  # atno 10167 bound_to 10162
  157.0506  131.0312  151.2682 H   0  0  0  0  0  0  0  0  0  0  0  0  # atno 10718 bound_to 10713
  153.2782  135.6938  153.7412 H   0  0  0  0  0  0  0  0  0  0  0  0  # atno 10763 bound_to 10752
  153.6409  135.3393  155.3072 H   0  0  0  0  0  0  0  0  0  0  0  0  # atno 10764 bound_to 10752
  154.8486  135.4431  154.1826 H   0  0  0  0  0  0  0  0  0  0  0  0  # atno 10765 bound_to 10752
  140.5870  134.5083  157.5187 H   0  0  0  0  0  0  0  0  0  0  0  0  # atno 11005 bound_to 11000
  145.9775  140.8710  143.0131 LP  0  0  0  0  0  0  0  0  0  0  0  0  # atno 17320 bound_to 7965
  144.6757  140.2033  143.7385 LP  0  0  0  0  0  0  0  0  0  0  0  0  # atno 17321 bound_to 7965
  140.4989  143.2324  151.8708 LP  0  0  0  0  0  0  0  0  0  0  0  0  # atno 17342 bound_to 10162
  139.4799  144.5082  151.8969 LP  0  0  0  0  0  0  0  0  0  0  0  0  # atno 17343 bound_to 10162
  157.5033  130.7893  149.7627 LP  0  0  0  0  0  0  0  0  0  0  0  0  # atno 17370 bound_to 10713
  156.0009  130.3881  150.2611 LP  0  0  0  0  0  0  0  0  0  0  0  0  # atno 17371 bound_to 10713
  139.9291  134.7998  156.0982 LP  0  0  0  0  0  0  0  0  0  0  0  0  # atno 17394 bound_to 11000
  141.0959  133.6696  156.2645 LP  0  0  0  0  0  0  0  0  0  0  0  0  # atno 17395 bound_to 11000

$$$$
