AV-unprocessed.smi:2616|AV-procd|sdf|10216|dock1
  -GOLD-   2272014223D 1   1.00000     0.00000
 Structure written by MMmdl.
 26 27  0  0  0  0  0  0  0  0  2 V2000
  153.6314  138.3380  155.3707 O   0  0  0  0  0  0  0  0  0  0  0  0
  152.3883  138.2138  155.4079 C   0  0  0  0  0  0  0  0  0  0  0  0
  151.8363  137.1817  154.9611 O   0  5  0  0  0  0  0  0  0  0  0  0
  151.5114  139.3060  155.9902 C   0  0  0  0  0  0  0  0  0  0  0  0
  152.0613  139.9617  157.0417 N   0  0  0  0  0  0  0  0  0  0  0  0
  151.3769  140.9506  157.6411 C   0  0  0  0  0  0  0  0  0  0  0  0
  150.0973  141.3546  157.2330 C   0  0  0  0  0  0  0  0  0  0  0  0
  149.3009  142.6407  158.0730 Cl  0  0  0  0  0  0  0  0  0  0  0  0
  149.4953  140.6928  156.1403 C   0  0  0  0  0  0  0  0  0  0  0  0
  148.2122  141.1105  155.7459 N   0  0  0  0  0  0  0  0  0  0  0  0
  148.0623  141.5998  154.3832 C   0  0  0  0  0  0  0  0  0  0  0  0
  146.7346  142.3673  154.2592 C   0  0  0  0  0  0  0  0  0  0  0  0
  145.6575  141.5407  154.6958 O   0  0  0  0  0  0  0  0  0  0  0  0
  145.7896  141.1593  156.0637 C   0  0  0  0  0  0  0  0  0  0  0  0
  147.0821  140.3471  156.2544 C   0  0  0  0  0  0  0  0  0  0  0  0
  150.2101  139.6421  155.4964 C   0  0  0  0  0  0  0  0  0  0  0  0
  149.4811  138.8212  154.1489 Cl  0  0  0  0  0  0  0  0  0  0  0  0
  151.8673  141.4341  158.4732 H   0  0  0  0  0  0  0  0  0  0  0  0
  148.8998  142.2482  154.1232 H   0  0  0  0  0  0  0  0  0  0  0  0
  148.0680  140.7657  153.6824 H   0  0  0  0  0  0  0  0  0  0  0  0
  146.7611  143.2858  154.8476 H   0  0  0  0  0  0  0  0  0  0  0  0
  146.5637  142.6580  153.2227 H   0  0  0  0  0  0  0  0  0  0  0  0
  145.7916  142.0465  156.6991 H   0  0  0  0  0  0  0  0  0  0  0  0
  144.9247  140.5626  156.3533 H   0  0  0  0  0  0  0  0  0  0  0  0
  146.9998  139.4001  155.7223 H   0  0  0  0  0  0  0  0  0  0  0  0
  147.2310  140.1152  157.3096 H   0  0  0  0  0  0  0  0  0  0  0  0
  1  2  2  0  0  0  0
  2  3  1  0  0  0  0
  2  4  1  0  0  0  0
  4 16  1  0  0  0  0
  4  5  2  0  0  0  0
  5  6  1  0  0  0  0
  6  7  2  0  0  0  0
  6 18  1  0  0  0  0
  7  8  1  0  0  0  0
  7  9  1  0  0  0  0
  9 10  1  0  0  0  0
  9 16  2  0  0  0  0
 10 15  1  0  0  0  0
 10 11  1  0  0  0  0
 11 12  1  0  0  0  0
 11 19  1  0  0  0  0
 11 20  1  0  0  0  0
 12 13  1  0  0  0  0
 12 21  1  0  0  0  0
 12 22  1  0  0  0  0
 13 14  1  0  0  0  0
 14 15  1  0  0  0  0
 14 23  1  0  0  0  0
 14 24  1  0  0  0  0
 15 25  1  0  0  0  0
 15 26  1  0  0  0  0
 16 17  1  0  0  0  0
M  CHG  1   3  -1
M  END
> <s_m_source_file>
AV-unprocessed.smi

> <i_m_source_file_index>
2616

> <i_lp_mmshare_version>
43012

> <i_f3d_flags>
0

> <s_epik_input>
Tz1DKFtPSF0pYzFuW2NIXWMoQ2wpYyhjMUNsKU4yW0NIMl1bQ0gyXU9bQ0gyXVtDSDJdMg==

> <s_epik_cmdline>
J2VwaWtfcHl0aG9uJywgJy1waCcsICc3LjAnLCAnLXRuJywgJzgnLCAnLW1hJywgJzIwMCcsICctbWV0YWxfYmluZGluZycsICctaW1hZScsICc8aW5maWxlLm1hZT4nLCAnLW9tYWUnLCAnPG91dGZpbGUubWFlPic=

> <r_epik_Ionization_Penalty>
0.00232884

> <r_epik_Ionization_Penalty_Charging>
7.03121e-06

> <r_epik_Ionization_Penalty_Neutral>
0.00232181

> <r_epik_State_Penalty>
0.00160212

> <r_epik_Charging_Adjusted_Penalty>
0.00160915

> <i_epik_Tot_Q>
-1

> <i_epik_Tot_abs_Q>
1

> <r_epik_Metal_State_Penalty>
-0

> <b_epik_Metal_Only>
0

> <s_lp_Force_Field>
OPLS_2005

> <r_lp_Energy>
33.645

> <b_lp_Chiralities_Consistent>
1

> <s_lp_Variant>
AV-unprocessed.smi:2616-1

> <Gold.Version>
5.8.1

> <Gold.Id.Protein>
6NUR|6NUR_protein|mol2

> <Gold.PLP.Fitness>
35.9732

> <Gold.PLP.PLP>
-26.7641

> <Gold.PLP.part.hbond>
-3.0000

> <Gold.PLP.part.metal>
0.0000

> <Gold.PLP.part.buried>
-2.6181

> <Gold.PLP.part.nonpolar>
-23.5990

> <Gold.PLP.part.repulsive>
0.3848

> <Gold.PLP.ligand.clash>
0.0000

> <Gold.PLP.ligand.torsion>
0.8163

> <Gold.PLP.Chemscore.Hbond>
3.4560

> <Gold.PLP.Chemscore.CHOScore>
0.0000

> <Gold.PLP.Chemscore.Metal>
0.0000

> <Gold.Chemscore.Hbonds>
donor molecule, donor type, donor heavy atom, donor atom, acceptor molecule, acceptor atom, score
      P1  H  7997  8010       L1     1  0.95
      P1  H 10752 10764       L1     3  1.66

> <Gold.PLP.Chemscore.Internal.Correction>
0.4736

> <Gold.Rescore>
     Score         DG    S(hbond)    S(metal)    S(lipo)     H(rot)  DE(clash)    DE(int)     intcor
     12.27     -14.70       1.60        0.00      54.98       1.00       1.32       1.11       ----

> <Gold.Chemscore.Fitness>
12.2657

> <Gold.Chemscore.DG>
-14.6956

> <Gold.Chemscore.ZeroCoef>
-5.4800

> <Gold.Chemscore.Hbond>
1.5996

> <Gold.Chemscore.Metal>
0.0000

> <Gold.Chemscore.Lipo>
54.9817

> <Gold.Chemscore.Internal_Hbond>
0.0000

> <Gold.Chemscore.DEClash>
1.3154

> <Gold.Chemscore.DEInternal>
1.1145

> <Gold.Chemscore.Rot>
1.0000

> <Gold.Chemscore.Internal.Correction>
   9.000000E+99

> <Gold.Chemscore.Hbonds>
donor molecule, donor type, donor heavy atom, donor atom, acceptor molecule, acceptor atom, score
      P1  H  7997  8010       L1     1  0.49
      P1  H 10752 10764       L1     3  0.77

> <Gold.Chemscore.Hbond.Weighted>
-5.3428

> <Gold.Chemscore.Metal.Weighted>
-0.0000

> <Gold.Chemscore.Lipo.Weighted>
-6.4329

> <Gold.Chemscore.Internal_Hbond.Weighted>
0.0000

> <Gold.Chemscore.DEClash.Weighted>
1.3154

> <Gold.Chemscore.DEInternal.Weighted>
1.1145

> <Gold.Chemscore.Rot.Weighted>
2.5600

> <Gold.Chemscore.Internal.Correction.Weighted>
   9.000000E+99

> <Gold.Protein.RotatedTorsions>
[ 6907 6896 6895 6894 ] final   74.36 input  -60.11 | X-H torsion
[ 7974 7965 7964 7962 ] final  164.53 input  175.53 | X-H torsion
[ 8008 7997 7996 7995 ] final  118.07 input   59.86 | X-H torsion
[ 10167 10162 10161 10158 ] final    1.78 input  -65.29 | X-H torsion
[ 10718 10713 10712 10709 ] final  133.64 input   66.30 | X-H torsion
[ 10763 10752 10751 10750 ] final  -82.73 input  -60.55 | X-H torsion
[ 11005 11000 10999 10996 ] final   79.31 input  -57.11 | X-H torsion

> <Gold.Protein.ActiveResidues>
 VAL166  LYS551  ARG553  GLY616  TRP617  ASP618  TYR619  PRO620  LYS621  CYS622 
 ASP623  PHE694  ASN695  SER759  ASP760  ASP761  ALA762  ILE779  LEU786  VAL792 
 PHE793  MET794  SER795  GLU796  ALA797  LYS798  CYS799  TRP800  GLU811  SER814 

> <Gold.Protein.RotatedAtoms>
  152.4972  134.4283  159.9503 H   0  0  0  0  0  0  0  0  0  0  0  0  # atno 6907 bound_to 6896
  151.4259  133.3678  159.2770 H   0  0  0  0  0  0  0  0  0  0  0  0  # atno 6908 bound_to 6896
  150.9189  134.8629  159.7535 H   0  0  0  0  0  0  0  0  0  0  0  0  # atno 6909 bound_to 6896
  144.7541  139.8340  143.6356 H   0  0  0  0  0  0  0  0  0  0  0  0  # atno 7974 bound_to 7965
  156.2527  140.2882  156.0778 H   0  0  0  0  0  0  0  0  0  0  0  0  # atno 8008 bound_to 7997
  155.1600  140.0399  157.2858 H   0  0  0  0  0  0  0  0  0  0  0  0  # atno 8009 bound_to 7997
  154.6399  140.2520  155.7340 H   0  0  0  0  0  0  0  0  0  0  0  0  # atno 8010 bound_to 7997
  140.6666  143.7162  150.7840 H   0  0  0  0  0  0  0  0  0  0  0  0  # atno 10167 bound_to 10162
  157.4753  131.1082  150.9751 H   0  0  0  0  0  0  0  0  0  0  0  0  # atno 10718 bound_to 10713
  154.5792  135.5581  153.7169 H   0  0  0  0  0  0  0  0  0  0  0  0  # atno 10763 bound_to 10752
  153.0075  135.6316  154.2006 H   0  0  0  0  0  0  0  0  0  0  0  0  # atno 10764 bound_to 10752
  154.1946  135.2881  155.2990 H   0  0  0  0  0  0  0  0  0  0  0  0  # atno 10765 bound_to 10752
  139.9177  134.7833  156.1762 H   0  0  0  0  0  0  0  0  0  0  0  0  # atno 11005 bound_to 11000
  146.1529  139.4618  143.0037 LP  0  0  0  0  0  0  0  0  0  0  0  0  # atno 17320 bound_to 7965
  145.6841  141.0183  143.1591 LP  0  0  0  0  0  0  0  0  0  0  0  0  # atno 17321 bound_to 7965
  140.0840  143.4941  152.2515 LP  0  0  0  0  0  0  0  0  0  0  0  0  # atno 17342 bound_to 10162
  139.5917  144.7552  151.3383 LP  0  0  0  0  0  0  0  0  0  0  0  0  # atno 17343 bound_to 10162
  157.0502  130.5784  149.5369 LP  0  0  0  0  0  0  0  0  0  0  0  0  # atno 17370 bound_to 10713
  156.0094  130.5184  150.7937 LP  0  0  0  0  0  0  0  0  0  0  0  0  # atno 17371 bound_to 10713
  141.0670  133.6814  156.2064 LP  0  0  0  0  0  0  0  0  0  0  0  0  # atno 17394 bound_to 11000
  140.6569  134.5008  157.5581 LP  0  0  0  0  0  0  0  0  0  0  0  0  # atno 17395 bound_to 11000

$$$$
