AV-unprocessed.smi:33|AV-procd|sdf|205|dock8
  -GOLD-   2262015493D 1   1.00000     0.00000
 Structure written by MMmdl.
 67 72  0  0  0  0  0  0  0  0  1 V2000
  153.0290  139.7246  159.6199 O   0  0  0  0  0  0  0  0  0  0  0  0
  152.5169  140.6882  159.0466 C   0  0  0  0  0  0  0  0  0  0  0  0
  152.0676  140.6488  157.7776 O   0  0  0  0  0  0  0  0  0  0  0  0
  152.2165  139.4690  157.0042 C   0  0  0  0  0  0  0  0  0  0  0  0
  151.7896  139.7523  155.5555 C   0  0  2  0  0  0  0  0  0  0  0  0
  150.3653  139.6772  155.4981 O   0  0  0  0  0  0  0  0  0  0  0  0
  149.9536  138.7411  154.5466 C   0  0  2  0  0  0  0  0  0  0  0  0
  148.6788  138.0861  154.9934 N   0  0  0  0  0  0  0  0  0  0  0  0
  148.4710  137.3071  156.1135 C   0  0  0  0  0  0  0  0  0  0  0  0
  147.2715  136.8075  156.2390 N   0  0  0  0  0  0  0  0  0  0  0  0
  146.6076  137.2450  155.1016 C   0  0  0  0  0  0  0  0  0  0  0  0
  145.2951  137.0549  154.5907 C   0  0  0  0  0  0  0  0  0  0  0  0
  144.3558  136.3171  155.2282 N   0  0  0  0  0  0  0  0  0  0  0  0
  143.5954  135.3524  154.4194 C   0  0  0  0  0  0  0  0  0  0  0  0
  142.4696  135.0081  154.7847 O   0  0  0  0  0  0  0  0  0  0  0  0
  144.1547  134.8296  153.1265 C   0  0  0  0  0  0  0  0  0  0  0  0
  145.5245  134.4988  153.0331 C   0  0  0  0  0  0  0  0  0  0  0  0
  146.0592  134.0232  151.8203 C   0  0  0  0  0  0  0  0  0  0  0  0
  145.2324  133.8923  150.6883 C   0  0  0  0  0  0  0  0  0  0  0  0
  143.8721  134.2466  150.7666 C   0  0  0  0  0  0  0  0  0  0  0  0
  143.3366  134.7225  151.9789 C   0  0  0  0  0  0  0  0  0  0  0  0
  144.1788  136.5542  156.6683 C   0  0  0  0  0  0  0  0  0  0  0  0
  144.4994  137.6421  157.1503 O   0  0  0  0  0  0  0  0  0  0  0  0
  143.5686  135.4965  157.5436 C   0  0  0  0  0  0  0  0  0  0  0  0
  142.9819  135.8512  158.7782 C   0  0  0  0  0  0  0  0  0  0  0  0
  142.4167  134.8614  159.6056 C   0  0  0  0  0  0  0  0  0  0  0  0
  142.4535  133.5096  159.2140 C   0  0  0  0  0  0  0  0  0  0  0  0
  143.0641  133.1459  157.9987 C   0  0  0  0  0  0  0  0  0  0  0  0
  143.6267  134.1350  157.1693 C   0  0  0  0  0  0  0  0  0  0  0  0
  144.9835  137.6312  153.4012 N   0  0  0  0  0  0  0  0  0  0  0  0
  145.9045  138.3467  152.7499 C   0  0  0  0  0  0  0  0  0  0  0  0
  147.1649  138.6054  153.1048 N   0  0  0  0  0  0  0  0  0  0  0  0
  147.4816  138.0355  154.3048 C   0  0  0  0  0  0  0  0  0  0  0  0
  151.1244  137.7627  154.3829 C   0  0  2  0  0  0  0  0  0  0  0  0
  151.1492  136.7525  155.3775 O   0  0  0  0  0  0  0  0  0  0  0  0
  152.2845  138.7290  154.5242 C   0  0  2  0  0  0  0  0  0  0  0  0
  153.4424  138.1341  154.8176 F   0  0  0  0  0  0  0  0  0  0  0  0
  152.3308  142.0229  159.6857 C   0  0  0  0  0  0  0  0  0  0  0  0
  152.4778  142.1473  161.0870 C   0  0  0  0  0  0  0  0  0  0  0  0
  152.3078  143.3950  161.7181 C   0  0  0  0  0  0  0  0  0  0  0  0
  151.9876  144.5334  160.9559 C   0  0  0  0  0  0  0  0  0  0  0  0
  151.8380  144.4227  159.5612 C   0  0  0  0  0  0  0  0  0  0  0  0
  152.0085  143.1761  158.9281 C   0  0  0  0  0  0  0  0  0  0  0  0
  153.2430  139.1030  157.0423 H   0  0  0  0  0  0  0  0  0  0  0  0
  151.5793  138.6941  157.4322 H   0  0  0  0  0  0  0  0  0  0  0  0
  152.0986  140.7593  155.2727 H   0  0  0  0  0  0  0  0  0  0  0  0
  149.6939  139.2496  153.6170 H   0  0  0  0  0  0  0  0  0  0  0  0
  149.2435  137.1198  156.8452 H   0  0  0  0  0  0  0  0  0  0  0  0
  146.1684  134.5956  153.8954 H   0  0  0  0  0  0  0  0  0  0  0  0
  147.1048  133.7597  151.7587 H   0  0  0  0  0  0  0  0  0  0  0  0
  145.6432  133.5274  149.7585 H   0  0  0  0  0  0  0  0  0  0  0  0
  143.2390  134.1545  149.8964 H   0  0  0  0  0  0  0  0  0  0  0  0
  142.2923  134.9960  152.0252 H   0  0  0  0  0  0  0  0  0  0  0  0
  142.9471  136.8859  159.0879 H   0  0  0  0  0  0  0  0  0  0  0  0
  141.9548  135.1394  160.5416 H   0  0  0  0  0  0  0  0  0  0  0  0
  142.0197  132.7511  159.8489 H   0  0  0  0  0  0  0  0  0  0  0  0
  143.1022  132.1080  157.7025 H   0  0  0  0  0  0  0  0  0  0  0  0
  144.0966  133.8443  156.2405 H   0  0  0  0  0  0  0  0  0  0  0  0
  145.5875  138.7709  151.8088 H   0  0  0  0  0  0  0  0  0  0  0  0
  151.0917  137.2948  153.3986 H   0  0  0  0  0  0  0  0  0  0  0  0
  150.8839  137.1349  156.2001 H   0  0  0  0  0  0  0  0  0  0  0  0
  152.4375  139.2370  153.5710 H   0  0  0  0  0  0  0  0  0  0  0  0
  152.7236  141.2874  161.6935 H   0  0  0  0  0  0  0  0  0  0  0  0
  152.4234  143.4776  162.7887 H   0  0  0  0  0  0  0  0  0  0  0  0
  151.8569  145.4899  161.4400 H   0  0  0  0  0  0  0  0  0  0  0  0
  151.5918  145.2958  158.9749 H   0  0  0  0  0  0  0  0  0  0  0  0
  151.8863  143.1266  157.8561 H   0  0  0  0  0  0  0  0  0  0  0  0
  1  2  2  0  0  0  0
  2  3  1  0  0  0  0
  2 38  1  0  0  0  0
  3  4  1  0  0  0  0
  4  5  1  0  0  0  0
  4 44  1  0  0  0  0
  4 45  1  0  0  0  0
  5 36  1  0  0  0  0
  5  6  1  0  0  0  0
  5 46  1  0  0  0  0
  6  7  1  0  0  0  0
  7  8  1  0  0  0  0
  7 34  1  0  0  0  0
  7 47  1  0  0  0  0
  8 33  1  0  0  0  0
  8  9  1  0  0  0  0
  9 10  2  0  0  0  0
  9 48  1  0  0  0  0
 10 11  1  0  0  0  0
 11 33  2  0  0  0  0
 11 12  1  0  0  0  0
 12 13  1  0  0  0  0
 12 30  2  0  0  0  0
 13 14  1  0  0  0  0
 13 22  1  0  0  0  0
 14 15  2  0  0  0  0
 14 16  1  0  0  0  0
 16 21  1  0  0  0  0
 16 17  2  0  0  0  0
 17 18  1  0  0  0  0
 17 49  1  0  0  0  0
 18 19  2  0  0  0  0
 18 50  1  0  0  0  0
 19 20  1  0  0  0  0
 19 51  1  0  0  0  0
 20 21  2  0  0  0  0
 20 52  1  0  0  0  0
 21 53  1  0  0  0  0
 22 23  2  0  0  0  0
 22 24  1  0  0  0  0
 24 29  1  0  0  0  0
 24 25  2  0  0  0  0
 25 26  1  0  0  0  0
 25 54  1  0  0  0  0
 26 27  2  0  0  0  0
 26 55  1  0  0  0  0
 27 28  1  0  0  0  0
 27 56  1  0  0  0  0
 28 29  2  0  0  0  0
 28 57  1  0  0  0  0
 29 58  1  0  0  0  0
 30 31  1  0  0  0  0
 31 32  2  0  0  0  0
 31 59  1  0  0  0  0
 32 33  1  0  0  0  0
 34 35  1  0  0  0  0
 34 36  1  0  0  0  0
 34 60  1  0  0  0  0
 35 61  1  0  0  0  0
 36 37  1  0  0  0  0
 36 62  1  0  0  0  0
 38 43  1  0  0  0  0
 38 39  2  0  0  0  0
 39 40  1  0  0  0  0
 39 63  1  0  0  0  0
 40 41  2  0  0  0  0
 40 64  1  0  0  0  0
 41 42  1  0  0  0  0
 41 65  1  0  0  0  0
 42 43  2  0  0  0  0
 42 66  1  0  0  0  0
 43 67  1  0  0  0  0
M  END
> <s_m_source_file>
AV-unprocessed.smi

> <i_m_source_file_index>
33

> <i_lp_mmshare_version>
43012

> <i_f3d_flags>
0

> <s_epik_input>
W2NIXTFbY0hdW2NIXVtjSF1bY0hdYzFDKD1PKU9bQ0gyXVtDQEBIXTJPW0NASF0oW0NAQEhdKFtPSF0pW0NAQEhdMkYpbihbY0hdbjMpYyhjMzQpbltjSF1uYzROKEMoPU8pYzVbY0hdW2NIXVtjSF1bY0hdW2NIXTUpQyg9TyljNltjSF1bY0hdW2NIXVtjSF1bY0hdNg==

> <s_epik_cmdline>
J2VwaWtfcHl0aG9uJywgJy1waCcsICc3LjAnLCAnLXRuJywgJzgnLCAnLW1hJywgJzIwMCcsICctbWV0YWxfYmluZGluZycsICctaW1hZScsICc8aW5maWxlLm1hZT4nLCAnLW9tYWUnLCAnPG91dGZpbGUubWFlPic=

> <r_lp_tautomer_probability>
1

> <r_epik_Ionization_Penalty>
0.00067664

> <r_epik_Ionization_Penalty_Charging>
0

> <r_epik_Ionization_Penalty_Neutral>
0.00067664

> <r_epik_State_Penalty>
0.000428095

> <r_epik_Charging_Adjusted_Penalty>
0.000428095

> <i_epik_Tot_Q>
0

> <i_epik_Tot_abs_Q>
0

> <r_epik_Metal_State_Penalty>
-0

> <b_epik_Metal_Only>
0

> <s_epik_Chemistry_Notes>
This compound has an ester and may undergo hydrolysis at high or low pH. This compound contains an acetal/aminal-like group ( X-CH(R)-Y where X, Y are N, S, or O) that may be acid/base labile, releasing an aldehyde.

> <s_lp_Force_Field>
OPLS_2005

> <r_lp_Energy>
85.1188

> <b_lp_Chiralities_Consistent>
1

> <s_lp_Variant>
AV-unprocessed.smi:33-7

> <Gold.Version>
5.8.1

> <Gold.Id.Protein>
6NUR|6NUR_protein|mol2

> <Gold.PLP.Fitness>
55.2903

> <Gold.PLP.PLP>
-55.5867

> <Gold.PLP.part.hbond>
-2.1512

> <Gold.PLP.part.metal>
0.0000

> <Gold.PLP.part.buried>
-6.4563

> <Gold.PLP.part.nonpolar>
-50.6614

> <Gold.PLP.part.repulsive>
1.8554

> <Gold.PLP.ligand.clash>
5.4338

> <Gold.PLP.ligand.torsion>
2.4253

> <Gold.PLP.Chemscore.Hbond>
1.2732

> <Gold.PLP.Chemscore.CHOScore>
0.6934

> <Gold.PLP.Chemscore.Metal>
0.0000

> <Gold.Chemscore.Hbonds>
donor molecule, donor type, donor heavy atom, donor atom, acceptor molecule, acceptor atom, score
      P1  H 10752 10765       L1    35  0.40
      P1  H 11000 11005       L1    15  0.14
      L1  C    31    59       P1 10171  0.76
      L1  C    31    59       P1 10175  0.39

> <Gold.PLP.Chemscore.Internal.Correction>
4.0882

> <Gold.Rescore>
     Score         DG    S(hbond)    S(metal)    S(lipo)     H(rot)  DE(clash)    DE(int)     intcor
      9.57     -17.65       0.91        0.00     133.39       2.52       1.55       6.53       ----

> <Gold.Chemscore.Fitness>
9.5701

> <Gold.Chemscore.DG>
-17.6470

> <Gold.Chemscore.ZeroCoef>
-5.4800

> <Gold.Chemscore.Hbond>
0.9053

> <Gold.Chemscore.Metal>
0.0000

> <Gold.Chemscore.Lipo>
133.3884

> <Gold.Chemscore.Internal_Hbond>
0.0000

> <Gold.Chemscore.DEClash>
1.5494

> <Gold.Chemscore.DEInternal>
6.5275

> <Gold.Chemscore.Rot>
2.5247

> <Gold.Chemscore.Internal.Correction>
   9.000000E+99

> <Gold.Chemscore.Hbonds>
donor molecule, donor type, donor heavy atom, donor atom, acceptor molecule, acceptor atom, score
      P1  H 10752 10765       L1    35  0.09
      P1  H 11000 11005       L1    15  0.14

> <Gold.Chemscore.Hbond.Weighted>
-3.0238

> <Gold.Chemscore.Metal.Weighted>
-0.0000

> <Gold.Chemscore.Lipo.Weighted>
-15.6064

> <Gold.Chemscore.Internal_Hbond.Weighted>
0.0000

> <Gold.Chemscore.DEClash.Weighted>
1.5494

> <Gold.Chemscore.DEInternal.Weighted>
6.5275

> <Gold.Chemscore.Rot.Weighted>
6.4633

> <Gold.Chemscore.Internal.Correction.Weighted>
   9.000000E+99

> <Gold.Protein.RotatedTorsions>
[ 6907 6896 6895 6894 ] final -162.28 input  -60.11 | X-H torsion
[ 7974 7965 7964 7962 ] final -155.60 input  175.53 | X-H torsion
[ 8008 7997 7996 7995 ] final  131.44 input   59.86 | X-H torsion
[ 10167 10162 10161 10158 ] final  130.91 input  -65.29 | X-H torsion
[ 10718 10713 10712 10709 ] final   -1.87 input   66.30 | X-H torsion
[ 10763 10752 10751 10750 ] final -177.04 input  -60.55 | X-H torsion
[ 11005 11000 10999 10996 ] final  -29.73 input  -57.11 | X-H torsion

> <Gold.Protein.ActiveResidues>
 VAL166  LYS551  ARG553  GLY616  TRP617  ASP618  TYR619  PRO620  LYS621  CYS622 
 ASP623  PHE694  ASN695  SER759  ASP760  ASP761  ALA762  ILE779  LEU786  VAL792 
 PHE793  MET794  SER795  GLU796  ALA797  LYS798  CYS799  TRP800  GLU811  SER814 

> <Gold.Protein.RotatedAtoms>
  151.3778  133.3832  159.2706 H   0  0  0  0  0  0  0  0  0  0  0  0  # atno 6907 bound_to 6896
  150.9601  134.8991  159.7735 H   0  0  0  0  0  0  0  0  0  0  0  0  # atno 6908 bound_to 6896
  152.5146  134.3737  159.9379 H   0  0  0  0  0  0  0  0  0  0  0  0  # atno 6909 bound_to 6896
  144.7632  140.4227  143.5961 H   0  0  0  0  0  0  0  0  0  0  0  0  # atno 7974 bound_to 7965
  156.2970  140.2571  156.2926 H   0  0  0  0  0  0  0  0  0  0  0  0  # atno 8008 bound_to 7997
  154.9495  140.0394  157.2155 H   0  0  0  0  0  0  0  0  0  0  0  0  # atno 8009 bound_to 7997
  154.8050  140.2834  155.5898 H   0  0  0  0  0  0  0  0  0  0  0  0  # atno 8010 bound_to 7997
  139.5408  144.6728  151.4632 H   0  0  0  0  0  0  0  0  0  0  0  0  # atno 10167 bound_to 10162
  156.7992  130.5387  149.5724 H   0  0  0  0  0  0  0  0  0  0  0  0  # atno 10718 bound_to 10713
  154.5649  135.2823  155.0883 H   0  0  0  0  0  0  0  0  0  0  0  0  # atno 10763 bound_to 10752
  154.2278  135.6379  153.5169 H   0  0  0  0  0  0  0  0  0  0  0  0  # atno 10764 bound_to 10752
  153.0040  135.5530  154.6255 H   0  0  0  0  0  0  0  0  0  0  0  0  # atno 10765 bound_to 10752
  140.9321  133.7331  156.0952 H   0  0  0  0  0  0  0  0  0  0  0  0  # atno 11005 bound_to 11000
  145.6551  139.1571  143.2840 LP  0  0  0  0  0  0  0  0  0  0  0  0  # atno 17320 bound_to 7965
  146.1716  140.6636  142.9230 LP  0  0  0  0  0  0  0  0  0  0  0  0  # atno 17321 bound_to 7965
  140.6637  143.8444  150.6917 LP  0  0  0  0  0  0  0  0  0  0  0  0  # atno 17342 bound_to 10162
  140.1847  143.4086  152.1907 LP  0  0  0  0  0  0  0  0  0  0  0  0  # atno 17343 bound_to 10162
  156.1112  130.6041  151.0050 LP  0  0  0  0  0  0  0  0  0  0  0  0  # atno 17370 bound_to 10713
  157.6562  131.0889  150.7941 LP  0  0  0  0  0  0  0  0  0  0  0  0  # atno 17371 bound_to 10713
  140.7848  134.3685  157.5479 LP  0  0  0  0  0  0  0  0  0  0  0  0  # atno 17394 bound_to 11000
  139.8799  134.9104  156.3012 LP  0  0  0  0  0  0  0  0  0  0  0  0  # atno 17395 bound_to 11000

$$$$
