AV-unprocessed.smi:2222|AV-procd|sdf|8985|dock2
  -GOLD-   2272012193D 1   1.00000     0.00000
 Structure written by MMmdl.
 34 35  0  0  0  0  0  0  0  0  1 V2000
  146.9825  141.9650  153.8611 C   0  0  0  0  0  0  0  0  0  0  0  0
  147.9214  141.8921  154.9239 O   0  0  0  0  0  0  0  0  0  0  0  0
  148.9152  140.9352  154.8540 C   0  0  0  0  0  0  0  0  0  0  0  0
  148.8009  139.7382  154.1021 C   0  0  0  0  0  0  0  0  0  0  0  0
  149.8687  138.8243  154.0912 C   0  0  0  0  0  0  0  0  0  0  0  0
  151.0191  139.1378  154.8369 C   0  0  0  0  0  0  0  0  0  0  0  0
  152.2076  138.2003  154.8713 C   0  0  0  0  0  0  0  0  0  0  0  0
  151.1396  140.2722  155.5549 N   0  0  0  0  0  0  0  0  0  0  0  0
  150.1170  141.1625  155.5734 C   0  0  0  0  0  0  0  0  0  0  0  0
  150.1678  142.3816  156.3030 N   0  0  0  0  0  0  0  0  0  0  0  0
  150.5610  142.5882  157.5755 C   0  0  0  0  0  0  0  0  0  0  0  0
  150.9124  141.7023  158.3529 O   0  0  0  0  0  0  0  0  0  0  0  0
  150.5043  143.8735  157.9693 N   0  0  0  0  0  0  0  0  0  0  0  0
  150.8504  144.4171  159.2483 C   0  0  2  0  0  0  0  0  0  0  0  0
  152.0825  145.2939  159.2980 C   0  0  0  0  0  0  0  0  0  0  0  0
  152.1151  143.9240  159.9208 C   0  0  1  0  0  0  0  0  0  0  0  0
  152.1895  143.7793  161.4251 C   0  0  0  0  0  0  0  0  0  0  0  0
  146.2724  142.7667  154.0639 H   0  0  0  0  0  0  0  0  0  0  0  0
  146.4148  141.0386  153.7656 H   0  0  0  0  0  0  0  0  0  0  0  0
  147.4709  142.1901  152.9120 H   0  0  0  0  0  0  0  0  0  0  0  0
  147.9154  139.5018  153.5321 H   0  0  0  0  0  0  0  0  0  0  0  0
  149.8023  137.9075  153.5241 H   0  0  0  0  0  0  0  0  0  0  0  0
  151.9862  137.2617  154.3630 H   0  0  0  0  0  0  0  0  0  0  0  0
  152.4820  137.9714  155.9016 H   0  0  0  0  0  0  0  0  0  0  0  0
  153.0657  138.6608  154.3810 H   0  0  0  0  0  0  0  0  0  0  0  0
  149.8785  143.2003  155.7884 H   0  0  0  0  0  0  0  0  0  0  0  0
  150.1130  144.5276  157.3068 H   0  0  0  0  0  0  0  0  0  0  0  0
  150.0380  144.7375  159.8990 H   0  0  0  0  0  0  0  0  0  0  0  0
  152.6457  145.4375  158.3780 H   0  0  0  0  0  0  0  0  0  0  0  0
  152.0570  146.1541  159.9641 H   0  0  0  0  0  0  0  0  0  0  0  0
  152.6839  143.1686  159.3816 H   0  0  0  0  0  0  0  0  0  0  0  0
  151.6047  144.5558  161.9192 H   0  0  0  0  0  0  0  0  0  0  0  0
  153.2246  143.8586  161.7579 H   0  0  0  0  0  0  0  0  0  0  0  0
  151.8002  142.8070  161.7264 H   0  0  0  0  0  0  0  0  0  0  0  0
  1  2  1  0  0  0  0
  1 18  1  0  0  0  0
  1 19  1  0  0  0  0
  1 20  1  0  0  0  0
  2  3  1  0  0  0  0
  3  9  1  0  0  0  0
  3  4  2  0  0  0  0
  4  5  1  0  0  0  0
  4 21  1  0  0  0  0
  5  6  2  0  0  0  0
  5 22  1  0  0  0  0
  6  7  1  0  0  0  0
  6  8  1  0  0  0  0
  7 23  1  0  0  0  0
  7 24  1  0  0  0  0
  7 25  1  0  0  0  0
  8  9  2  0  0  0  0
  9 10  1  0  0  0  0
 10 11  1  0  0  0  0
 10 26  1  0  0  0  0
 11 12  2  0  0  0  0
 11 13  1  0  0  0  0
 13 14  1  0  0  0  0
 13 27  1  0  0  0  0
 14 16  1  0  0  0  0
 14 15  1  0  0  0  0
 14 28  1  0  0  0  0
 15 16  1  0  0  0  0
 15 29  1  0  0  0  0
 15 30  1  0  0  0  0
 16 17  1  0  0  0  0
 16 31  1  0  0  0  0
 17 32  1  0  0  0  0
 17 33  1  0  0  0  0
 17 34  1  0  0  0  0
M  END
> <s_m_source_file>
AV-unprocessed.smi

> <i_m_source_file_index>
2222

> <i_lp_mmshare_version>
43012

> <i_f3d_flags>
0

> <s_epik_input>
W0NIM11PYzFbY0hdW2NIXWMoW0NIM10pbmMxW05IXUMoPU8pW05IXVtDQEBIXTJbQ0gyXVtDQEhdMltDSDNd

> <s_epik_cmdline>
J2VwaWtfcHl0aG9uJywgJy1waCcsICc3LjAnLCAnLXRuJywgJzgnLCAnLW1hJywgJzIwMCcsICctbWV0YWxfYmluZGluZycsICctaW1hZScsICc8aW5maWxlLm1hZT4nLCAnLW9tYWUnLCAnPG91dGZpbGUubWFlPic=

> <r_lp_tautomer_probability>
1

> <r_epik_Ionization_Penalty>
6.59103e-05

> <r_epik_Ionization_Penalty_Charging>
0

> <r_epik_Ionization_Penalty_Neutral>
6.59103e-05

> <r_epik_State_Penalty>
-0

> <r_epik_Charging_Adjusted_Penalty>
0

> <i_epik_Tot_Q>
0

> <i_epik_Tot_abs_Q>
0

> <r_epik_Metal_State_Penalty>
-0

> <b_epik_Metal_Only>
0

> <s_lp_Force_Field>
OPLS_2005

> <r_lp_Energy>
33.3795

> <b_lp_Chiralities_Consistent>
1

> <s_lp_Variant>
AV-unprocessed.smi:2222-1

> <Gold.Version>
5.8.1

> <Gold.Id.Protein>
6NUR|6NUR_protein|mol2

> <Gold.PLP.Fitness>
45.2276

> <Gold.PLP.PLP>
-41.1444

> <Gold.PLP.part.hbond>
-3.0000

> <Gold.PLP.part.metal>
0.0000

> <Gold.PLP.part.buried>
-4.5394

> <Gold.PLP.part.nonpolar>
-34.7931

> <Gold.PLP.part.repulsive>
0.6241

> <Gold.PLP.ligand.clash>
0.0000

> <Gold.PLP.ligand.torsion>
0.8928

> <Gold.PLP.Chemscore.Hbond>
1.9440

> <Gold.PLP.Chemscore.CHOScore>
0.0000

> <Gold.PLP.Chemscore.Metal>
0.0000

> <Gold.Chemscore.Hbonds>
donor molecule, donor type, donor heavy atom, donor atom, acceptor molecule, acceptor atom, score
      L1  H    10    26       P1  8028  1.00
      L1  H    13    27       P1  8028  0.93

> <Gold.PLP.Chemscore.Internal.Correction>
0.0369

> <Gold.Rescore>
     Score         DG    S(hbond)    S(metal)    S(lipo)     H(rot)  DE(clash)    DE(int)     intcor
     17.57     -18.44       1.58        0.00      92.21       1.22       0.31       0.56       ----

> <Gold.Chemscore.Fitness>
17.5682

> <Gold.Chemscore.DG>
-18.4367

> <Gold.Chemscore.ZeroCoef>
-5.4800

> <Gold.Chemscore.Hbond>
1.5817

> <Gold.Chemscore.Metal>
0.0000

> <Gold.Chemscore.Lipo>
92.2117

> <Gold.Chemscore.Internal_Hbond>
0.0000

> <Gold.Chemscore.DEClash>
0.3066

> <Gold.Chemscore.DEInternal>
0.5619

> <Gold.Chemscore.Rot>
1.2168

> <Gold.Chemscore.Internal.Correction>
   9.000000E+99

> <Gold.Chemscore.Hbonds>
donor molecule, donor type, donor heavy atom, donor atom, acceptor molecule, acceptor atom, score
      L1  H    10    26       P1  8028  0.95
      L1  H    13    27       P1  8028  0.33

> <Gold.Chemscore.Hbond.Weighted>
-5.2830

> <Gold.Chemscore.Metal.Weighted>
-0.0000

> <Gold.Chemscore.Lipo.Weighted>
-10.7888

> <Gold.Chemscore.Internal_Hbond.Weighted>
0.0000

> <Gold.Chemscore.DEClash.Weighted>
0.3066

> <Gold.Chemscore.DEInternal.Weighted>
0.5619

> <Gold.Chemscore.Rot.Weighted>
3.1150

> <Gold.Chemscore.Internal.Correction.Weighted>
   9.000000E+99

> <Gold.Protein.RotatedTorsions>
[ 6907 6896 6895 6894 ] final   -8.86 input  -60.11 | X-H torsion
[ 7974 7965 7964 7962 ] final -155.37 input  175.53 | X-H torsion
[ 8008 7997 7996 7995 ] final  -61.67 input   59.86 | X-H torsion
[ 10167 10162 10161 10158 ] final   29.65 input  -65.29 | X-H torsion
[ 10718 10713 10712 10709 ] final -102.42 input   66.30 | X-H torsion
[ 10763 10752 10751 10750 ] final    3.56 input  -60.55 | X-H torsion
[ 11005 11000 10999 10996 ] final  -78.84 input  -57.11 | X-H torsion

> <Gold.Protein.ActiveResidues>
 VAL166  LYS551  ARG553  GLY616  TRP617  ASP618  TYR619  PRO620  LYS621  CYS622 
 ASP623  PHE694  ASN695  SER759  ASP760  ASP761  ALA762  ILE779  LEU786  VAL792 
 PHE793  MET794  SER795  GLU796  ALA797  LYS798  CYS799  TRP800  GLU811  SER814 

> <Gold.Protein.RotatedAtoms>
  151.4270  135.1005  159.9630 H   0  0  0  0  0  0  0  0  0  0  0  0  # atno 6907 bound_to 6896
  152.4969  133.8654  159.7282 H   0  0  0  0  0  0  0  0  0  0  0  0  # atno 6908 bound_to 6896
  150.9182  133.6854  159.2866 H   0  0  0  0  0  0  0  0  0  0  0  0  # atno 6909 bound_to 6896
  144.7643  140.4259  143.5953 H   0  0  0  0  0  0  0  0  0  0  0  0  # atno 7974 bound_to 7965
  154.4460  140.1012  156.6467 H   0  0  0  0  0  0  0  0  0  0  0  0  # atno 8008 bound_to 7997
  155.5442  140.3484  155.4435 H   0  0  0  0  0  0  0  0  0  0  0  0  # atno 8009 bound_to 7997
  156.0575  140.1318  156.9968 H   0  0  0  0  0  0  0  0  0  0  0  0  # atno 8010 bound_to 7997
  140.4747  144.0708  150.6247 H   0  0  0  0  0  0  0  0  0  0  0  0  # atno 10167 bound_to 10162
  156.0228  130.5419  150.7105 H   0  0  0  0  0  0  0  0  0  0  0  0  # atno 10718 bound_to 10713
  153.2819  135.6941  153.7377 H   0  0  0  0  0  0  0  0  0  0  0  0  # atno 10763 bound_to 10752
  153.6362  135.3401  155.3058 H   0  0  0  0  0  0  0  0  0  0  0  0  # atno 10764 bound_to 10752
  154.8497  135.4420  154.1874 H   0  0  0  0  0  0  0  0  0  0  0  0  # atno 10765 bound_to 10752
  141.1666  133.7080  156.8033 H   0  0  0  0  0  0  0  0  0  0  0  0  # atno 11005 bound_to 11000
  145.6518  139.1566  143.2858 LP  0  0  0  0  0  0  0  0  0  0  0  0  # atno 17320 bound_to 7965
  146.1737  140.6606  142.9221 LP  0  0  0  0  0  0  0  0  0  0  0  0  # atno 17321 bound_to 7965
  140.3933  143.2741  152.0035 LP  0  0  0  0  0  0  0  0  0  0  0  0  # atno 17342 bound_to 10162
  139.4824  144.6059  151.7522 LP  0  0  0  0  0  0  0  0  0  0  0  0  # atno 17343 bound_to 10162
  157.4744  131.0896  151.0606 LP  0  0  0  0  0  0  0  0  0  0  0  0  # atno 17370 bound_to 10713
  157.1057  130.6000  149.5470 LP  0  0  0  0  0  0  0  0  0  0  0  0  # atno 17371 bound_to 10713
  140.2241  134.8735  157.3408 LP  0  0  0  0  0  0  0  0  0  0  0  0  # atno 17394 bound_to 11000
  140.1958  134.4315  155.7690 LP  0  0  0  0  0  0  0  0  0  0  0  0  # atno 17395 bound_to 11000

$$$$
