AV-unprocessed.smi:1824|AV-procd|sdf|7395|dock4
  -GOLD-   22720 9 63D 1   1.00000     0.00000
 Structure written by MMmdl.
 44 46  0  0  0  0  0  0  0  0  1 V2000
  145.6094  144.7282  153.1760 C   0  0  0  0  0  0  0  0  0  0  0  0
  146.0871  143.7520  154.2560 C   0  0  2  0  0  0  0  0  0  0  0  0
  146.8715  142.5675  153.6631 C   0  0  0  0  0  0  0  0  0  0  0  0
  147.2557  141.6072  154.6886 N   0  0  0  0  0  0  0  0  0  0  0  0
  148.0579  140.5192  154.1266 C   0  0  0  0  0  0  0  0  0  0  0  0
  149.3038  140.1389  154.9500 C   0  0  1  0  0  0  0  0  0  0  0  0
  150.1829  139.4092  154.1186 O   0  0  0  0  0  0  0  0  0  0  0  0
  150.0449  141.3713  155.5054 C   0  0  0  0  0  0  0  0  0  0  0  0
  150.9106  141.0302  156.6174 N   0  0  0  0  0  0  0  0  0  0  0  0
  151.5763  139.8769  156.8186 C   0  0  0  0  0  0  0  0  0  0  0  0
  152.3169  139.7879  157.9202 N   0  0  0  0  0  0  0  0  0  0  0  0
  152.1110  141.0292  158.4984 C   0  0  0  0  0  0  0  0  0  0  0  0
  152.6183  141.5815  159.6963 C   0  0  0  0  0  0  0  0  0  0  0  0
  152.2626  142.8894  160.0877 C   0  0  0  0  0  0  0  0  0  0  0  0
  152.7588  143.4035  161.2380 F   0  0  0  0  0  0  0  0  0  0  0  0
  151.3946  143.6638  159.2889 C   0  0  0  0  0  0  0  0  0  0  0  0
  151.0581  144.9184  159.6713 F   0  0  0  0  0  0  0  0  0  0  0  0
  150.8764  143.1345  158.0919 C   0  0  0  0  0  0  0  0  0  0  0  0
  151.2350  141.8301  157.7064 C   0  0  0  0  0  0  0  0  0  0  0  0
  146.0517  141.1315  155.3681 C   0  0  0  0  0  0  0  0  0  0  0  0
  145.2072  142.2807  155.9524 C   0  0  1  0  0  0  0  0  0  0  0  0
  145.8264  142.9067  157.2137 C   0  0  0  0  0  0  0  0  0  0  0  0
  144.9407  143.2613  154.9483 O   0  0  0  0  0  0  0  0  0  0  0  0
  146.4520  145.1463  152.6251 H   0  0  0  0  0  0  0  0  0  0  0  0
  145.0573  145.5579  153.6184 H   0  0  0  0  0  0  0  0  0  0  0  0
  144.9517  144.2347  152.4599 H   0  0  0  0  0  0  0  0  0  0  0  0
  146.7240  144.2974  154.9533 H   0  0  0  0  0  0  0  0  0  0  0  0
  146.2682  142.0722  152.9005 H   0  0  0  0  0  0  0  0  0  0  0  0
  147.7623  142.9448  153.1595 H   0  0  0  0  0  0  0  0  0  0  0  0
  147.4270  139.6389  153.9933 H   0  0  0  0  0  0  0  0  0  0  0  0
  148.3908  140.8008  153.1263 H   0  0  0  0  0  0  0  0  0  0  0  0
  149.0237  139.4741  155.7663 H   0  0  0  0  0  0  0  0  0  0  0  0
  149.8341  139.4094  153.2405 H   0  0  0  0  0  0  0  0  0  0  0  0
  150.6349  141.8561  154.7262 H   0  0  0  0  0  0  0  0  0  0  0  0
  149.3326  142.1160  155.8620 H   0  0  0  0  0  0  0  0  0  0  0  0
  151.5112  139.0561  156.1190 H   0  0  0  0  0  0  0  0  0  0  0  0
  153.2836  140.9984  160.3155 H   0  0  0  0  0  0  0  0  0  0  0  0
  150.2119  143.7232  157.4773 H   0  0  0  0  0  0  0  0  0  0  0  0
  145.4397  140.5656  154.6640 H   0  0  0  0  0  0  0  0  0  0  0  0
  146.3067  140.4447  156.1739 H   0  0  0  0  0  0  0  0  0  0  0  0
  144.2398  141.8711  156.2440 H   0  0  0  0  0  0  0  0  0  0  0  0
  145.9072  142.1691  158.0125 H   0  0  0  0  0  0  0  0  0  0  0  0
  145.2096  143.7260  157.5832 H   0  0  0  0  0  0  0  0  0  0  0  0
  146.8271  143.2971  157.0293 H   0  0  0  0  0  0  0  0  0  0  0  0
  1  2  1  0  0  0  0
  1 24  1  0  0  0  0
  1 25  1  0  0  0  0
  1 26  1  0  0  0  0
  2 23  1  0  0  0  0
  2  3  1  0  0  0  0
  2 27  1  0  0  0  0
  3  4  1  0  0  0  0
  3 28  1  0  0  0  0
  3 29  1  0  0  0  0
  4  5  1  0  0  0  0
  4 20  1  0  0  0  0
  5  6  1  0  0  0  0
  5 30  1  0  0  0  0
  5 31  1  0  0  0  0
  6  7  1  0  0  0  0
  6  8  1  0  0  0  0
  6 32  1  0  0  0  0
  7 33  1  0  0  0  0
  8  9  1  0  0  0  0
  8 34  1  0  0  0  0
  8 35  1  0  0  0  0
  9 19  1  0  0  0  0
  9 10  1  0  0  0  0
 10 11  2  0  0  0  0
 10 36  1  0  0  0  0
 11 12  1  0  0  0  0
 12 19  2  0  0  0  0
 12 13  1  0  0  0  0
 13 14  2  0  0  0  0
 13 37  1  0  0  0  0
 14 15  1  0  0  0  0
 14 16  1  0  0  0  0
 16 17  1  0  0  0  0
 16 18  2  0  0  0  0
 18 19  1  0  0  0  0
 18 38  1  0  0  0  0
 20 21  1  0  0  0  0
 20 39  1  0  0  0  0
 20 40  1  0  0  0  0
 21 22  1  0  0  0  0
 21 23  1  0  0  0  0
 21 41  1  0  0  0  0
 22 42  1  0  0  0  0
 22 43  1  0  0  0  0
 22 44  1  0  0  0  0
M  END
> <s_m_source_file>
AV-unprocessed.smi

> <i_m_source_file_index>
1824

> <i_lp_mmshare_version>
43012

> <i_f3d_flags>
0

> <s_epik_input>
W0NIM11bQ0BASF0xW0NIMl1OKFtDSDJdW0NASF0oTzEpW0NIM10pW0NIMl1bQ0BIXShbT0hdKVtDSDJdbihbY0hdbjIpYyhjMjMpW2NIXWMoRiljKEYpW2NIXTM=

> <s_epik_cmdline>
J2VwaWtfcHl0aG9uJywgJy1waCcsICc3LjAnLCAnLXRuJywgJzgnLCAnLW1hJywgJzIwMCcsICctbWV0YWxfYmluZGluZycsICctaW1hZScsICc8aW5maWxlLm1hZT4nLCAnLW9tYWUnLCAnPG91dGZpbGUubWFlPic=

> <r_epik_Ionization_Penalty>
0.273778

> <r_epik_Ionization_Penalty_Charging>
0

> <r_epik_Ionization_Penalty_Neutral>
0.273778

> <r_epik_State_Penalty>
0.246794

> <r_epik_Charging_Adjusted_Penalty>
0.246794

> <i_epik_Tot_Q>
0

> <i_epik_Tot_abs_Q>
0

> <r_epik_Metal_State_Penalty>
0.238234

> <b_epik_Metal_Only>
0

> <s_lp_Force_Field>
OPLS_2005

> <r_lp_Energy>
25.978

> <b_lp_Chiralities_Consistent>
1

> <s_lp_Variant>
AV-unprocessed.smi:1824-3

> <Gold.Version>
5.8.1

> <Gold.Id.Protein>
6NUR|6NUR_protein|mol2

> <Gold.PLP.Fitness>
54.7392

> <Gold.PLP.PLP>
-48.6491

> <Gold.PLP.part.hbond>
-3.0000

> <Gold.PLP.part.metal>
0.0000

> <Gold.PLP.part.buried>
-7.6530

> <Gold.PLP.part.nonpolar>
-38.6206

> <Gold.PLP.part.repulsive>
0.2811

> <Gold.PLP.ligand.clash>
0.0000

> <Gold.PLP.ligand.torsion>
1.3266

> <Gold.PLP.Chemscore.Hbond>
2.9033

> <Gold.PLP.Chemscore.CHOScore>
0.0000

> <Gold.PLP.Chemscore.Metal>
0.0000

> <Gold.Chemscore.Hbonds>
donor molecule, donor type, donor heavy atom, donor atom, acceptor molecule, acceptor atom, score
      L1  H     7    33       P1  7957  0.63
      P1  H  7989  7998       L1     7  0.29
      P1  H  7997  8009       L1    11  0.04

> <Gold.PLP.Chemscore.Internal.Correction>
0.0336

> <Gold.Rescore>
     Score         DG    S(hbond)    S(metal)    S(lipo)     H(rot)  DE(clash)    DE(int)     intcor
     17.33     -19.02       2.36        0.00      97.96       2.26       0.07       1.62       ----

> <Gold.Chemscore.Fitness>
17.3337

> <Gold.Chemscore.DG>
-19.0221

> <Gold.Chemscore.ZeroCoef>
-5.4800

> <Gold.Chemscore.Hbond>
2.3568

> <Gold.Chemscore.Metal>
0.0000

> <Gold.Chemscore.Lipo>
97.9566

> <Gold.Chemscore.Internal_Hbond>
0.0000

> <Gold.Chemscore.DEClash>
0.0715

> <Gold.Chemscore.DEInternal>
1.6169

> <Gold.Chemscore.Rot>
2.2619

> <Gold.Chemscore.Internal.Correction>
   9.000000E+99

> <Gold.Chemscore.Hbonds>
donor molecule, donor type, donor heavy atom, donor atom, acceptor molecule, acceptor atom, score
      L1  H     7    33       P1  7957  0.62

> <Gold.Chemscore.Hbond.Weighted>
-7.8716

> <Gold.Chemscore.Metal.Weighted>
-0.0000

> <Gold.Chemscore.Lipo.Weighted>
-11.4609

> <Gold.Chemscore.Internal_Hbond.Weighted>
0.0000

> <Gold.Chemscore.DEClash.Weighted>
0.0715

> <Gold.Chemscore.DEInternal.Weighted>
1.6169

> <Gold.Chemscore.Rot.Weighted>
5.7904

> <Gold.Chemscore.Internal.Correction.Weighted>
   9.000000E+99

> <Gold.Protein.RotatedTorsions>
[ 6907 6896 6895 6894 ] final  -34.92 input  -60.11 | X-H torsion
[ 7974 7965 7964 7962 ] final -126.72 input  175.53 | X-H torsion
[ 8008 7997 7996 7995 ] final  172.22 input   59.86 | X-H torsion
[ 10167 10162 10161 10158 ] final  -86.81 input  -65.29 | X-H torsion
[ 10718 10713 10712 10709 ] final   24.59 input   66.30 | X-H torsion
[ 10763 10752 10751 10750 ] final -141.42 input  -60.55 | X-H torsion
[ 11005 11000 10999 10996 ] final  -29.75 input  -57.11 | X-H torsion

> <Gold.Protein.ActiveResidues>
 VAL166  LYS551  ARG553  GLY616  TRP617  ASP618  TYR619  PRO620  LYS621  CYS622 
 ASP623  PHE694  ASN695  SER759  ASP760  ASP761  ALA762  ILE779  LEU786  VAL792 
 PHE793  MET794  SER795  GLU796  ALA797  LYS798  CYS799  TRP800  GLU811  SER814 

> <Gold.Protein.RotatedAtoms>
  151.0465  134.9643  159.8188 H   0  0  0  0  0  0  0  0  0  0  0  0  # atno 6907 bound_to 6896
  152.5373  134.2592  159.8938 H   0  0  0  0  0  0  0  0  0  0  0  0  # atno 6908 bound_to 6896
  151.2606  133.4261  159.2650 H   0  0  0  0  0  0  0  0  0  0  0  0  # atno 6909 bound_to 6896
  144.9844  140.7671  143.4593 H   0  0  0  0  0  0  0  0  0  0  0  0  # atno 7974 bound_to 7965
  156.1196  140.1491  156.9224 H   0  0  0  0  0  0  0  0  0  0  0  0  # atno 8008 bound_to 7997
  154.4825  140.0875  156.7453 H   0  0  0  0  0  0  0  0  0  0  0  0  # atno 8009 bound_to 7997
  155.4453  140.3432  155.4296 H   0  0  0  0  0  0  0  0  0  0  0  0  # atno 8010 bound_to 7997
  140.3905  143.2707  151.9270 H   0  0  0  0  0  0  0  0  0  0  0  0  # atno 10167 bound_to 10162
  157.1819  130.6806  149.6116 H   0  0  0  0  0  0  0  0  0  0  0  0  # atno 10718 bound_to 10713
  154.8545  135.3525  154.5866 H   0  0  0  0  0  0  0  0  0  0  0  0  # atno 10763 bound_to 10752
  153.6476  135.6995  153.5225 H   0  0  0  0  0  0  0  0  0  0  0  0  # atno 10764 bound_to 10752
  153.2920  135.4232  155.1134 H   0  0  0  0  0  0  0  0  0  0  0  0  # atno 10765 bound_to 10752
  140.9323  133.7330  156.0954 H   0  0  0  0  0  0  0  0  0  0  0  0  # atno 11005 bound_to 11000
  145.2375  139.2087  143.5010 LP  0  0  0  0  0  0  0  0  0  0  0  0  # atno 17320 bound_to 7965
  146.3416  140.2264  142.8592 LP  0  0  0  0  0  0  0  0  0  0  0  0  # atno 17321 bound_to 7965
  139.4789  144.5732  151.8055 LP  0  0  0  0  0  0  0  0  0  0  0  0  # atno 17342 bound_to 10162
  140.4844  144.1402  150.5938 LP  0  0  0  0  0  0  0  0  0  0  0  0  # atno 17343 bound_to 10162
  155.9723  130.4644  150.6216 LP  0  0  0  0  0  0  0  0  0  0  0  0  # atno 17370 bound_to 10713
  157.3945  131.0800  151.1364 LP  0  0  0  0  0  0  0  0  0  0  0  0  # atno 17371 bound_to 10713
  140.7846  134.3687  157.5479 LP  0  0  0  0  0  0  0  0  0  0  0  0  # atno 17394 bound_to 11000
  139.8799  134.9102  156.3009 LP  0  0  0  0  0  0  0  0  0  0  0  0  # atno 17395 bound_to 11000

$$$$
