AV-unprocessed.smi:2693|AV-procd|sdf|10399|dock2
  -GOLD-   2272014433D 1   1.00000     0.00000
 Structure written by MMmdl.
 45 47  0  0  0  0  0  0  0  0  1 V2000
  147.2297  129.4395  152.6544 C   0  0  0  0  0  0  0  0  0  0  0  0
  148.4643  129.8575  153.3123 N   0  0  0  0  0  0  0  0  0  0  0  0
  149.5331  128.8703  153.4370 C   0  0  0  0  0  0  0  0  0  0  0  0
  148.6099  131.1500  153.8251 C   0  0  0  0  0  0  0  0  0  0  0  0
  147.5876  131.9987  153.6575 N   0  0  0  0  0  0  0  0  0  0  0  0
  147.7193  133.2492  154.1487 C   0  0  0  0  0  0  0  0  0  0  0  0
  148.8926  133.6624  154.8248 C   0  0  0  0  0  0  0  0  0  0  0  0
  149.1232  134.9580  155.3617 N   0  0  0  0  0  0  0  0  0  0  0  0
  150.2933  135.5516  155.6526 C   0  0  0  0  0  0  0  0  0  0  0  0
  151.4072  135.0562  155.4868 O   0  0  0  0  0  0  0  0  0  0  0  0
  150.1016  136.7841  156.1406 N   0  0  0  0  0  0  0  0  0  0  0  0
  151.1761  137.6855  156.5446 C   0  0  2  0  0  0  0  0  0  0  0  0
  150.7688  138.6039  157.7072 C   0  0  1  0  0  0  0  0  0  0  0  0
  151.4520  138.4725  159.0413 C   0  0  0  0  0  0  0  0  0  0  0  0
  152.5495  139.5380  158.9697 C   0  0  0  0  0  0  0  0  0  0  0  0
  152.7463  139.7584  157.5748 O   0  0  0  0  0  0  0  0  0  0  0  0
  151.4650  139.7251  156.9510 C   0  0  1  0  0  0  0  0  0  0  0  0
  151.3561  138.9274  155.6344 C   0  0  0  0  0  0  0  0  0  0  0  0
  152.5975  138.9353  154.7409 C   0  0  0  0  0  0  0  0  0  0  0  0
  150.1710  139.3372  154.7485 C   0  0  0  0  0  0  0  0  0  0  0  0
  149.9071  132.6906  154.9360 C   0  0  0  0  0  0  0  0  0  0  0  0
  149.7626  131.4435  154.4411 N   0  0  0  0  0  0  0  0  0  0  0  0
  147.0095  130.0900  151.8071 H   0  0  0  0  0  0  0  0  0  0  0  0
  146.3931  129.4885  153.3524 H   0  0  0  0  0  0  0  0  0  0  0  0
  147.2922  128.4179  152.2799 H   0  0  0  0  0  0  0  0  0  0  0  0
  149.7754  128.7024  154.4869 H   0  0  0  0  0  0  0  0  0  0  0  0
  150.4328  129.2174  152.9277 H   0  0  0  0  0  0  0  0  0  0  0  0
  149.2550  127.9097  153.0037 H   0  0  0  0  0  0  0  0  0  0  0  0
  146.8792  133.9017  153.9734 H   0  0  0  0  0  0  0  0  0  0  0  0
  148.2953  135.5159  155.5115 H   0  0  0  0  0  0  0  0  0  0  0  0
  149.1556  137.1219  156.2407 H   0  0  0  0  0  0  0  0  0  0  0  0
  152.1230  137.1784  156.7443 H   0  0  0  0  0  0  0  0  0  0  0  0
  149.6905  138.7662  157.7598 H   0  0  0  0  0  0  0  0  0  0  0  0
  150.7761  138.6491  159.8783 H   0  0  0  0  0  0  0  0  0  0  0  0
  151.8835  137.4783  159.1616 H   0  0  0  0  0  0  0  0  0  0  0  0
  152.2117  140.4670  159.4317 H   0  0  0  0  0  0  0  0  0  0  0  0
  153.4716  139.2278  159.4616 H   0  0  0  0  0  0  0  0  0  0  0  0
  150.9376  140.6796  156.9826 H   0  0  0  0  0  0  0  0  0  0  0  0
  152.8002  139.9315  154.3466 H   0  0  0  0  0  0  0  0  0  0  0  0
  152.4838  138.2595  153.8926 H   0  0  0  0  0  0  0  0  0  0  0  0
  153.4869  138.6165  155.2852 H   0  0  0  0  0  0  0  0  0  0  0  0
  150.3108  140.3371  154.3366 H   0  0  0  0  0  0  0  0  0  0  0  0
  149.2341  139.3509  155.3061 H   0  0  0  0  0  0  0  0  0  0  0  0
  150.0391  138.6538  153.9089 H   0  0  0  0  0  0  0  0  0  0  0  0
  150.8432  132.9117  155.4276 H   0  0  0  0  0  0  0  0  0  0  0  0
  1  2  1  0  0  0  0
  1 23  1  0  0  0  0
  1 24  1  0  0  0  0
  1 25  1  0  0  0  0
  2  3  1  0  0  0  0
  2  4  1  0  0  0  0
  3 26  1  0  0  0  0
  3 27  1  0  0  0  0
  3 28  1  0  0  0  0
  4 22  1  0  0  0  0
  4  5  2  0  0  0  0
  5  6  1  0  0  0  0
  6  7  2  0  0  0  0
  6 29  1  0  0  0  0
  7  8  1  0  0  0  0
  7 21  1  0  0  0  0
  8  9  1  0  0  0  0
  8 30  1  0  0  0  0
  9 10  2  0  0  0  0
  9 11  1  0  0  0  0
 11 12  1  0  0  0  0
 11 31  1  0  0  0  0
 12 18  1  0  0  0  0
 12 13  1  0  0  0  0
 12 32  1  0  0  0  0
 13 17  1  0  0  0  0
 13 14  1  0  0  0  0
 13 33  1  0  0  0  0
 14 15  1  0  0  0  0
 14 34  1  0  0  0  0
 14 35  1  0  0  0  0
 15 16  1  0  0  0  0
 15 36  1  0  0  0  0
 15 37  1  0  0  0  0
 16 17  1  0  0  0  0
 17 18  1  0  0  0  0
 17 38  1  0  0  0  0
 18 19  1  0  0  0  0
 18 20  1  0  0  0  0
 19 39  1  0  0  0  0
 19 40  1  0  0  0  0
 19 41  1  0  0  0  0
 20 42  1  0  0  0  0
 20 43  1  0  0  0  0
 20 44  1  0  0  0  0
 21 22  2  0  0  0  0
 21 45  1  0  0  0  0
M  END
> <s_m_source_file>
AV-unprocessed.smi

> <i_m_source_file_index>
2693

> <i_lp_mmshare_version>
43012

> <i_f3d_flags>
0

> <s_epik_input>
W0NIM11OKFtDSDNdKWMxbltjSF1jKFtjSF1uMSlbTkhdQyg9TylbTkhdW0NASF0yQyhbQ0gzXSkoW0NIM10pW0NAQEhdKFtDQEhdMjMpT1tDSDJdW0NIMl0z

> <s_epik_cmdline>
J2VwaWtfcHl0aG9uJywgJy1waCcsICc3LjAnLCAnLXRuJywgJzgnLCAnLW1hJywgJzIwMCcsICctbWV0YWxfYmluZGluZycsICctaW1hZScsICc8aW5maWxlLm1hZT4nLCAnLW9tYWUnLCAnPG91dGZpbGUubWFlPic=

> <r_lp_tautomer_probability>
1

> <r_epik_Ionization_Penalty>
0.00031779

> <r_epik_Ionization_Penalty_Charging>
0

> <r_epik_Ionization_Penalty_Neutral>
0.00031779

> <r_epik_State_Penalty>
-0

> <r_epik_Charging_Adjusted_Penalty>
0

> <i_epik_Tot_Q>
0

> <i_epik_Tot_abs_Q>
0

> <r_epik_Metal_State_Penalty>
-0

> <b_epik_Metal_Only>
0

> <s_lp_Force_Field>
OPLS_2005

> <r_lp_Energy>
29.3552

> <b_lp_Chiralities_Consistent>
1

> <s_lp_Variant>
AV-unprocessed.smi:2693-3

> <Gold.Version>
5.8.1

> <Gold.Id.Protein>
6NUR|6NUR_protein|mol2

> <Gold.PLP.Fitness>
37.0668

> <Gold.PLP.PLP>
-31.6492

> <Gold.PLP.part.hbond>
-2.0000

> <Gold.PLP.part.metal>
0.0000

> <Gold.PLP.part.buried>
-2.8649

> <Gold.PLP.part.nonpolar>
-26.8814

> <Gold.PLP.part.repulsive>
0.2129

> <Gold.PLP.ligand.clash>
0.0000

> <Gold.PLP.ligand.torsion>
0.3208

> <Gold.PLP.Chemscore.Hbond>
1.9600

> <Gold.PLP.Chemscore.CHOScore>
0.0000

> <Gold.PLP.Chemscore.Metal>
0.0000

> <Gold.Chemscore.Hbonds>
donor molecule, donor type, donor heavy atom, donor atom, acceptor molecule, acceptor atom, score
      P1  H  7997  8008       L1    16  1.00
      P1  H 10752 10763       L1    10  0.91

> <Gold.PLP.Chemscore.Internal.Correction>
0.1792

> <Gold.Rescore>
     Score         DG    S(hbond)    S(metal)    S(lipo)     H(rot)  DE(clash)    DE(int)     intcor
     16.14     -17.97       1.92        0.00      73.83       1.00       0.11       1.71       ----

> <Gold.Chemscore.Fitness>
16.1396

> <Gold.Chemscore.DG>
-17.9676

> <Gold.Chemscore.ZeroCoef>
-5.4800

> <Gold.Chemscore.Hbond>
1.9189

> <Gold.Chemscore.Metal>
0.0000

> <Gold.Chemscore.Lipo>
73.8320

> <Gold.Chemscore.Internal_Hbond>
0.0000

> <Gold.Chemscore.DEClash>
0.1130

> <Gold.Chemscore.DEInternal>
1.7150

> <Gold.Chemscore.Rot>
1.0000

> <Gold.Chemscore.Internal.Correction>
   9.000000E+99

> <Gold.Chemscore.Hbonds>
donor molecule, donor type, donor heavy atom, donor atom, acceptor molecule, acceptor atom, score
      P1  H  7997  8008       L1    16  0.95
      P1  H 10752 10763       L1    10  0.90

> <Gold.Chemscore.Hbond.Weighted>
-6.4092

> <Gold.Chemscore.Metal.Weighted>
-0.0000

> <Gold.Chemscore.Lipo.Weighted>
-8.6383

> <Gold.Chemscore.Internal_Hbond.Weighted>
0.0000

> <Gold.Chemscore.DEClash.Weighted>
0.1130

> <Gold.Chemscore.DEInternal.Weighted>
1.7150

> <Gold.Chemscore.Rot.Weighted>
2.5600

> <Gold.Chemscore.Internal.Correction.Weighted>
   9.000000E+99

> <Gold.Protein.RotatedTorsions>
[ 6907 6896 6895 6894 ] final -142.96 input  -60.11 | X-H torsion
[ 7974 7965 7964 7962 ] final  -30.21 input  175.53 | X-H torsion
[ 8008 7997 7996 7995 ] final  -54.51 input   59.86 | X-H torsion
[ 10167 10162 10161 10158 ] final  102.70 input  -65.29 | X-H torsion
[ 10718 10713 10712 10709 ] final   -3.21 input   66.30 | X-H torsion
[ 10763 10752 10751 10750 ] final   77.12 input  -60.55 | X-H torsion
[ 11005 11000 10999 10996 ] final  -12.01 input  -57.11 | X-H torsion

> <Gold.Protein.ActiveResidues>
 VAL166  LYS551  ARG553  GLY616  TRP617  ASP618  TYR619  PRO620  LYS621  CYS622 
 ASP623  PHE694  ASN695  SER759  ASP760  ASP761  ALA762  ILE779  LEU786  VAL792 
 PHE793  MET794  SER795  GLU796  ALA797  LYS798  CYS799  TRP800  GLU811  SER814 

> <Gold.Protein.RotatedAtoms>
  151.0941  133.5293  159.2613 H   0  0  0  0  0  0  0  0  0  0  0  0  # atno 6907 bound_to 6896
  151.2149  135.0495  159.8936 H   0  0  0  0  0  0  0  0  0  0  0  0  # atno 6908 bound_to 6896
  152.5437  134.0751  159.8264 H   0  0  0  0  0  0  0  0  0  0  0  0  # atno 6909 bound_to 6896
  146.1159  140.5512  142.8757 H   0  0  0  0  0  0  0  0  0  0  0  0  # atno 7974 bound_to 7965
  154.4165  140.1174  156.5328 H   0  0  0  0  0  0  0  0  0  0  0  0  # atno 8008 bound_to 7997
  155.6588  140.3496  155.4756 H   0  0  0  0  0  0  0  0  0  0  0  0  # atno 8009 bound_to 7997
  155.9730  140.1145  157.0785 H   0  0  0  0  0  0  0  0  0  0  0  0  # atno 8010 bound_to 7997
  139.7327  144.7032  151.0697 H   0  0  0  0  0  0  0  0  0  0  0  0  # atno 10167 bound_to 10162
  156.7794  130.5325  149.5753 H   0  0  0  0  0  0  0  0  0  0  0  0  # atno 10718 bound_to 10713
  153.0775  135.4926  154.8434 H   0  0  0  0  0  0  0  0  0  0  0  0  # atno 10763 bound_to 10752
  154.7107  135.3019  154.9204 H   0  0  0  0  0  0  0  0  0  0  0  0  # atno 10764 bound_to 10752
  153.9899  135.6779  153.4806 H   0  0  0  0  0  0  0  0  0  0  0  0  # atno 10765 bound_to 10752
  140.7612  133.8513  155.9126 H   0  0  0  0  0  0  0  0  0  0  0  0  # atno 11005 bound_to 11000
  144.7553  140.5291  143.6773 LP  0  0  0  0  0  0  0  0  0  0  0  0  # atno 17320 bound_to 7965
  145.5567  139.1478  143.3364 LP  0  0  0  0  0  0  0  0  0  0  0  0  # atno 17321 bound_to 7965
  140.7774  143.5023  150.9756 LP  0  0  0  0  0  0  0  0  0  0  0  0  # atno 17342 bound_to 10162
  139.8711  143.7191  152.3166 LP  0  0  0  0  0  0  0  0  0  0  0  0  # atno 17343 bound_to 10162
  156.1228  130.6122  151.0218 LP  0  0  0  0  0  0  0  0  0  0  0  0  # atno 17370 bound_to 10713
  157.6654  131.0873  150.7741 LP  0  0  0  0  0  0  0  0  0  0  0  0  # atno 17371 bound_to 10713
  140.9661  134.1592  157.4614 LP  0  0  0  0  0  0  0  0  0  0  0  0  # atno 17394 bound_to 11000
  139.8770  134.9962  156.5783 LP  0  0  0  0  0  0  0  0  0  0  0  0  # atno 17395 bound_to 11000

$$$$
