AV-unprocessed.smi:1843|AV-procd|sdf|7500|dock9
  -GOLD-   22720 9203D 1   1.00000     0.00000
 Structure written by MMmdl.
 37 39  0  0  0  0  0  0  0  0  1 V2000
  146.4949  139.2555  154.2221 O   0  0  0  0  0  0  0  0  0  0  0  0
  147.2527  138.6074  153.4995 C   0  0  0  0  0  0  0  0  0  0  0  0
  148.5929  138.7132  153.4844 N   0  0  0  0  0  0  0  0  0  0  0  0
  149.4184  139.5518  154.2791 C   0  0  0  0  0  0  0  0  0  0  0  0
  150.7473  139.4105  154.3788 N   0  0  0  0  0  0  0  0  0  0  0  0
  151.3081  140.3648  155.2160 N   0  0  0  0  0  0  0  0  0  0  0  0
  150.3914  141.1967  155.7247 C   0  0  0  0  0  0  0  0  0  0  0  0
  150.7540  142.3109  156.6491 C   0  0  0  0  0  0  0  0  0  0  0  0
  151.5629  142.0472  157.8980 C   0  0  0  0  0  0  0  0  0  0  0  0
  150.1152  142.4513  158.0135 C   0  0  0  0  0  0  0  0  0  0  0  0
  148.7379  140.8721  155.2142 S   0  0  0  0  0  0  0  0  0  0  0  0
  146.8291  137.6895  152.6190 N   0  0  0  0  0  0  0  0  0  0  0  0
  145.4330  137.3263  152.3852 C   0  0  2  0  0  0  0  0  0  0  0  0
  144.8257  136.7945  153.7025 C   0  0  0  0  0  0  0  0  0  0  0  0
  143.4045  136.2461  153.5086 C   0  0  0  0  0  0  0  0  0  0  0  0
  143.3780  135.1581  152.4273 C   0  0  0  0  0  0  0  0  0  0  0  0
  143.9329  135.6981  151.1025 C   0  0  0  0  0  0  0  0  0  0  0  0
  145.3582  136.2592  151.2681 C   0  0  1  0  0  0  0  0  0  0  0  0
  145.7350  136.8363  150.0338 O   0  0  0  0  0  0  0  0  0  0  0  0
  149.0817  138.1125  152.8374 H   0  0  0  0  0  0  0  0  0  0  0  0
  150.9633  143.2207  156.0896 H   0  0  0  0  0  0  0  0  0  0  0  0
  151.8151  141.0140  158.1285 H   0  0  0  0  0  0  0  0  0  0  0  0
  152.3156  142.7835  158.1721 H   0  0  0  0  0  0  0  0  0  0  0  0
  149.9014  143.4586  158.3651 H   0  0  0  0  0  0  0  0  0  0  0  0
  149.4109  141.6868  158.3354 H   0  0  0  0  0  0  0  0  0  0  0  0
  147.5199  137.2091  152.0613 H   0  0  0  0  0  0  0  0  0  0  0  0
  144.8668  138.2051  152.0684 H   0  0  0  0  0  0  0  0  0  0  0  0
  145.4588  136.0019  154.1045 H   0  0  0  0  0  0  0  0  0  0  0  0
  144.8108  137.5844  154.4544 H   0  0  0  0  0  0  0  0  0  0  0  0
  143.0304  135.8436  154.4503 H   0  0  0  0  0  0  0  0  0  0  0  0
  142.7324  137.0588  153.2299 H   0  0  0  0  0  0  0  0  0  0  0  0
  143.9673  134.2994  152.7518 H   0  0  0  0  0  0  0  0  0  0  0  0
  142.3582  134.7998  152.2851 H   0  0  0  0  0  0  0  0  0  0  0  0
  143.9269  134.9065  150.3520 H   0  0  0  0  0  0  0  0  0  0  0  0
  143.2679  136.4798  150.7317 H   0  0  0  0  0  0  0  0  0  0  0  0
  146.0411  135.4381  151.4916 H   0  0  0  0  0  0  0  0  0  0  0  0
  145.0122  137.3527  149.7113 H   0  0  0  0  0  0  0  0  0  0  0  0
  1  2  2  0  0  0  0
  2  3  1  0  0  0  0
  2 12  1  0  0  0  0
  3  4  1  0  0  0  0
  3 20  1  0  0  0  0
  4 11  1  0  0  0  0
  4  5  2  0  0  0  0
  5  6  1  0  0  0  0
  6  7  2  0  0  0  0
  7  8  1  0  0  0  0
  7 11  1  0  0  0  0
  8 10  1  0  0  0  0
  8  9  1  0  0  0  0
  8 21  1  0  0  0  0
  9 10  1  0  0  0  0
  9 22  1  0  0  0  0
  9 23  1  0  0  0  0
 10 24  1  0  0  0  0
 10 25  1  0  0  0  0
 12 13  1  0  0  0  0
 12 26  1  0  0  0  0
 13 18  1  0  0  0  0
 13 14  1  0  0  0  0
 13 27  1  0  0  0  0
 14 15  1  0  0  0  0
 14 28  1  0  0  0  0
 14 29  1  0  0  0  0
 15 16  1  0  0  0  0
 15 30  1  0  0  0  0
 15 31  1  0  0  0  0
 16 17  1  0  0  0  0
 16 32  1  0  0  0  0
 16 33  1  0  0  0  0
 17 18  1  0  0  0  0
 17 34  1  0  0  0  0
 17 35  1  0  0  0  0
 18 19  1  0  0  0  0
 18 36  1  0  0  0  0
 19 37  1  0  0  0  0
M  END
> <s_m_source_file>
AV-unprocessed.smi

> <i_m_source_file_index>
1843

> <i_lp_mmshare_version>
43012

> <i_f3d_flags>
0

> <s_epik_input>
W09IXVtDQEBIXTFbQ0gyXVtDSDJdW0NIMl1bQ0gyXVtDQEhdMVtOSF1DKD1PKVtOSF1jMm5uYyhzMilbQ0hdM1tDSDJdW0NIMl0z

> <s_epik_cmdline>
J2VwaWtfcHl0aG9uJywgJy1waCcsICc3LjAnLCAnLXRuJywgJzgnLCAnLW1hJywgJzIwMCcsICctbWV0YWxfYmluZGluZycsICctaW1hZScsICc8aW5maWxlLm1hZT4nLCAnLW9tYWUnLCAnPG91dGZpbGUubWFlPic=

> <r_lp_tautomer_probability>
1

> <r_epik_Ionization_Penalty>
0.000257313

> <r_epik_Ionization_Penalty_Charging>
0

> <r_epik_Ionization_Penalty_Neutral>
0.000257313

> <r_epik_State_Penalty>
-0

> <r_epik_Charging_Adjusted_Penalty>
0

> <i_epik_Tot_Q>
0

> <i_epik_Tot_abs_Q>
0

> <r_epik_Metal_State_Penalty>
0.147479

> <b_epik_Metal_Only>
0

> <s_lp_Force_Field>
OPLS_2005

> <r_lp_Energy>
7.85459

> <b_lp_Chiralities_Consistent>
1

> <s_lp_Variant>
AV-unprocessed.smi:1843-1

> <Gold.Version>
5.8.1

> <Gold.Id.Protein>
6NUR|6NUR_protein|mol2

> <Gold.PLP.Fitness>
40.4340

> <Gold.PLP.PLP>
-31.9268

> <Gold.PLP.part.hbond>
-7.0603

> <Gold.PLP.part.metal>
0.0000

> <Gold.PLP.part.buried>
-4.3388

> <Gold.PLP.part.nonpolar>
-22.4257

> <Gold.PLP.part.repulsive>
0.4045

> <Gold.PLP.ligand.clash>
0.0000

> <Gold.PLP.ligand.torsion>
0.1070

> <Gold.PLP.Chemscore.Hbond>
2.8640

> <Gold.PLP.Chemscore.CHOScore>
0.0000

> <Gold.PLP.Chemscore.Metal>
0.0000

> <Gold.Chemscore.Hbonds>
donor molecule, donor type, donor heavy atom, donor atom, acceptor molecule, acceptor atom, score
      L1  H     3    20       P1  7948  0.74
      L1  H    12    26       P1  7948  1.00
      L1  H    19    37       P1 10171  1.00

> <Gold.PLP.Chemscore.Internal.Correction>
0.1292

> <Gold.Rescore>
     Score         DG    S(hbond)    S(metal)    S(lipo)     H(rot)  DE(clash)    DE(int)     intcor
     16.47     -17.83       2.89        0.00      61.01       1.74       0.00       1.36       ----

> <Gold.Chemscore.Fitness>
16.4683

> <Gold.Chemscore.DG>
-17.8281

> <Gold.Chemscore.ZeroCoef>
-5.4800

> <Gold.Chemscore.Hbond>
2.8940

> <Gold.Chemscore.Metal>
0.0000

> <Gold.Chemscore.Lipo>
61.0052

> <Gold.Chemscore.Internal_Hbond>
0.0000

> <Gold.Chemscore.DEClash>
0.0038

> <Gold.Chemscore.DEInternal>
1.3560

> <Gold.Chemscore.Rot>
1.7404

> <Gold.Chemscore.Internal.Correction>
   9.000000E+99

> <Gold.Chemscore.Hbonds>
donor molecule, donor type, donor heavy atom, donor atom, acceptor molecule, acceptor atom, score
      L1  H     3    20       P1  7948  0.72
      L1  H    12    26       P1  7948  0.98
      L1  H    19    37       P1 10171  0.98

> <Gold.Chemscore.Hbond.Weighted>
-9.6660

> <Gold.Chemscore.Metal.Weighted>
-0.0000

> <Gold.Chemscore.Lipo.Weighted>
-7.1376

> <Gold.Chemscore.Internal_Hbond.Weighted>
0.0000

> <Gold.Chemscore.DEClash.Weighted>
0.0038

> <Gold.Chemscore.DEInternal.Weighted>
1.3560

> <Gold.Chemscore.Rot.Weighted>
4.4555

> <Gold.Chemscore.Internal.Correction.Weighted>
   9.000000E+99

> <Gold.Protein.RotatedTorsions>
[ 6907 6896 6895 6894 ] final  167.78 input  -60.11 | X-H torsion
[ 7974 7965 7964 7962 ] final   18.93 input  175.53 | X-H torsion
[ 8008 7997 7996 7995 ] final  170.32 input   59.86 | X-H torsion
[ 10167 10162 10161 10158 ] final -160.69 input  -65.29 | X-H torsion
[ 10718 10713 10712 10709 ] final   14.80 input   66.30 | X-H torsion
[ 10763 10752 10751 10750 ] final   66.40 input  -60.55 | X-H torsion
[ 11005 11000 10999 10996 ] final  -79.73 input  -57.11 | X-H torsion

> <Gold.Protein.ActiveResidues>
 VAL166  LYS551  ARG553  GLY616  TRP617  ASP618  TYR619  PRO620  LYS621  CYS622 
 ASP623  PHE694  ASN695  SER759  ASP760  ASP761  ALA762  ILE779  LEU786  VAL792 
 PHE793  MET794  SER795  GLU796  ALA797  LYS798  CYS799  TRP800  GLU811  SER814 

> <Gold.Protein.RotatedAtoms>
  151.8579  133.3451  159.3693 H   0  0  0  0  0  0  0  0  0  0  0  0  # atno 6907 bound_to 6896
  150.7187  134.5235  159.5675 H   0  0  0  0  0  0  0  0  0  0  0  0  # atno 6908 bound_to 6896
  152.2742  134.7900  160.0459 H   0  0  0  0  0  0  0  0  0  0  0  0  # atno 6909 bound_to 6896
  146.2167  139.8386  142.8645 H   0  0  0  0  0  0  0  0  0  0  0  0  # atno 7974 bound_to 7965
  156.1377  140.1541  156.8970 H   0  0  0  0  0  0  0  0  0  0  0  0  # atno 8008 bound_to 7997
  154.4961  140.0838  156.7737 H   0  0  0  0  0  0  0  0  0  0  0  0  # atno 8009 bound_to 7997
  155.4138  140.3420  155.4268 H   0  0  0  0  0  0  0  0  0  0  0  0  # atno 8010 bound_to 7997
  139.6521  144.0066  152.2168 H   0  0  0  0  0  0  0  0  0  0  0  0  # atno 10167 bound_to 10162
  157.0444  130.6244  149.5756 H   0  0  0  0  0  0  0  0  0  0  0  0  # atno 10718 bound_to 10713
  153.0138  135.5322  154.6818 H   0  0  0  0  0  0  0  0  0  0  0  0  # atno 10763 bound_to 10752
  154.5975  135.2865  155.0572 H   0  0  0  0  0  0  0  0  0  0  0  0  # atno 10764 bound_to 10752
  154.1642  135.6542  153.5046 H   0  0  0  0  0  0  0  0  0  0  0  0  # atno 10765 bound_to 10752
  141.1667  133.7118  156.8166 H   0  0  0  0  0  0  0  0  0  0  0  0  # atno 11005 bound_to 11000
  145.2923  141.0170  143.3656 LP  0  0  0  0  0  0  0  0  0  0  0  0  # atno 17320 bound_to 7965
  144.9068  139.4579  143.6606 LP  0  0  0  0  0  0  0  0  0  0  0  0  # atno 17321 bound_to 7965
  139.9783  144.6446  150.7925 LP  0  0  0  0  0  0  0  0  0  0  0  0  # atno 17342 bound_to 10162
  140.7542  143.3023  151.3050 LP  0  0  0  0  0  0  0  0  0  0  0  0  # atno 17343 bound_to 10162
  156.0028  130.5110  150.7723 LP  0  0  0  0  0  0  0  0  0  0  0  0  # atno 17370 bound_to 10713
  157.5080  131.0923  151.0234 LP  0  0  0  0  0  0  0  0  0  0  0  0  # atno 17371 bound_to 10713
  140.2149  134.8800  157.3315 LP  0  0  0  0  0  0  0  0  0  0  0  0  # atno 17394 bound_to 11000
  140.2048  134.4210  155.7643 LP  0  0  0  0  0  0  0  0  0  0  0  0  # atno 17395 bound_to 11000

$$$$
