AV-unprocessed.smi:21|AV-procd|sdf|124|dock3
  -GOLD-   2262015303D 1   1.00000     0.00000
 Structure written by MMmdl.
 62 65  0  0  0  0  0  0  0  0  2 V2000
  146.1154  131.1938  151.3328 C   0  0  0  0  0  0  0  0  0  0  0  0
  146.8774  131.1294  152.5278 O   0  0  0  0  0  0  0  0  0  0  0  0
  147.7260  132.2516  152.7220 C   0  0  2  0  0  0  0  0  0  0  0  0
  148.4212  132.2457  154.0777 C   0  0  0  0  0  0  0  0  0  0  0  0
  148.7531  133.7237  154.3392 C   0  0  2  0  0  0  0  0  0  0  0  0
  148.8858  134.0864  155.8435 C   0  0  0  0  0  0  0  0  0  0  0  0
  150.1695  134.7004  156.1915 N   0  0  0  0  0  0  0  0  0  0  0  0
  151.2599  133.8019  156.5635 C   0  0  0  0  0  0  0  0  0  0  0  0
  150.1710  135.9589  156.7135 C   0  0  0  0  0  0  0  0  0  0  0  0
  149.2124  136.2950  157.6191 N   0  0  0  0  0  0  0  0  0  0  0  0
  149.1355  137.5374  158.1029 C   0  0  0  0  0  0  0  0  0  0  0  0
  149.9005  138.5909  157.8168 N   0  0  0  0  0  0  0  0  0  0  0  0
  150.8773  138.2616  156.9253 C   0  0  0  0  0  0  0  0  0  0  0  0
  151.0943  136.9811  156.3399 C   0  0  0  0  0  0  0  0  0  0  0  0
  152.2004  137.0382  155.4978 N   0  0  0  0  0  0  0  0  0  0  0  0
  152.5945  138.2802  155.5605 C   0  0  0  0  0  0  0  0  0  0  0  0
  151.8422  139.0882  156.3801 N   0  0  0  0  0  0  0  0  0  0  0  0
  152.0301  140.5069  156.6194 C   0  0  0  0  0  0  0  0  0  0  0  0
  150.9011  141.1506  157.4692 C   0  0  2  0  0  0  0  0  0  0  0  0
  149.5411  141.1764  156.7241 C   0  0  0  0  0  0  0  0  0  0  0  0
  149.6118  141.8880  155.5048 O   0  0  0  0  0  0  0  0  0  0  0  0
  151.3119  142.5749  157.9258 C   0  0  2  0  0  0  0  0  0  0  0  0
  152.3950  142.6191  158.9912 C   0  0  0  0  0  0  0  0  0  0  0  0
  152.2387  144.0266  159.5514 C   0  0  0  0  0  0  0  0  0  0  0  0
  150.8429  144.2900  159.5084 O   0  0  0  0  0  0  0  0  0  0  0  0
  150.2022  143.3748  158.6239 C   0  0  0  0  0  0  0  0  0  0  0  0
  147.7283  134.4977  153.5748 N   0  3  2  0  0  0  0  0  0  0  0  0
  146.9141  135.4907  154.3148 C   0  0  0  0  0  0  0  0  0  0  0  0
  146.9082  133.5371  152.8014 C   0  0  0  0  0  0  0  0  0  0  0  0
  148.4589  132.3349  151.9172 H   0  0  0  0  0  0  0  0  0  0  0  0
  149.7006  133.9468  153.8472 H   0  0  0  0  0  0  0  0  0  0  0  0
  145.4684  130.3191  151.2671 H   0  0  0  0  0  0  0  0  0  0  0  0
  146.7532  131.1998  150.4484 H   0  0  0  0  0  0  0  0  0  0  0  0
  145.4830  132.0821  151.3149 H   0  0  0  0  0  0  0  0  0  0  0  0
  147.7248  131.8781  154.8325 H   0  0  0  0  0  0  0  0  0  0  0  0
  149.3040  131.6061  154.0928 H   0  0  0  0  0  0  0  0  0  0  0  0
  148.1201  134.8156  156.1075 H   0  0  0  0  0  0  0  0  0  0  0  0
  148.6795  133.2197  156.4661 H   0  0  0  0  0  0  0  0  0  0  0  0
  152.2272  134.2847  156.4182 H   0  0  0  0  0  0  0  0  0  0  0  0
  151.2458  132.9015  155.9488 H   0  0  0  0  0  0  0  0  0  0  0  0
  151.1762  133.4993  157.6080 H   0  0  0  0  0  0  0  0  0  0  0  0
  148.3411  137.7153  158.8128 H   0  0  0  0  0  0  0  0  0  0  0  0
  153.4394  138.6465  154.9957 H   0  0  0  0  0  0  0  0  0  0  0  0
  152.9970  140.6213  157.1090 H   0  0  0  0  0  0  0  0  0  0  0  0
  152.1101  141.0132  155.6565 H   0  0  0  0  0  0  0  0  0  0  0  0
  150.7745  140.5514  158.3726 H   0  0  0  0  0  0  0  0  0  0  0  0
  149.2120  140.1705  156.4679 H   0  0  0  0  0  0  0  0  0  0  0  0
  148.7628  141.6078  157.3541 H   0  0  0  0  0  0  0  0  0  0  0  0
  149.3541  142.7829  155.6654 H   0  0  0  0  0  0  0  0  0  0  0  0
  151.6594  143.1453  157.0626 H   0  0  0  0  0  0  0  0  0  0  0  0
  152.1969  141.8814  159.7703 H   0  0  0  0  0  0  0  0  0  0  0  0
  153.3964  142.4423  158.5978 H   0  0  0  0  0  0  0  0  0  0  0  0
  152.6352  144.1238  160.5623 H   0  0  0  0  0  0  0  0  0  0  0  0
  152.7509  144.7486  158.9141 H   0  0  0  0  0  0  0  0  0  0  0  0
  149.5685  143.9088  157.9155 H   0  0  0  0  0  0  0  0  0  0  0  0
  149.5639  142.7202  159.2188 H   0  0  0  0  0  0  0  0  0  0  0  0
  146.3373  135.0214  155.1126 H   0  0  0  0  0  0  0  0  0  0  0  0
  146.2116  135.9764  153.6367 H   0  0  0  0  0  0  0  0  0  0  0  0
  147.5400  136.2733  154.7434 H   0  0  0  0  0  0  0  0  0  0  0  0
  146.6479  133.9294  151.8180 H   0  0  0  0  0  0  0  0  0  0  0  0
  145.9780  133.3393  153.3378 H   0  0  0  0  0  0  0  0  0  0  0  0
  148.2536  135.0244  152.8912 H   0  0  0  0  0  0  0  0  0  0  0  0
  1  2  1  0  0  0  0
  1 32  1  0  0  0  0
  1 33  1  0  0  0  0
  1 34  1  0  0  0  0
  2  3  1  0  0  0  0
  3 30  1  0  0  0  0
  3 29  1  0  0  0  0
  3  4  1  0  0  0  0
  4  5  1  0  0  0  0
  4 35  1  0  0  0  0
  4 36  1  0  0  0  0
  5 31  1  0  0  0  0
  5  6  1  0  0  0  0
  5 27  1  0  0  0  0
  6  7  1  0  0  0  0
  6 37  1  0  0  0  0
  6 38  1  0  0  0  0
  7  8  1  0  0  0  0
  7  9  1  0  0  0  0
  8 39  1  0  0  0  0
  8 40  1  0  0  0  0
  8 41  1  0  0  0  0
  9 14  1  0  0  0  0
  9 10  2  0  0  0  0
 10 11  1  0  0  0  0
 11 12  2  0  0  0  0
 11 42  1  0  0  0  0
 12 13  1  0  0  0  0
 13 17  1  0  0  0  0
 13 14  2  0  0  0  0
 14 15  1  0  0  0  0
 15 16  2  0  0  0  0
 16 17  1  0  0  0  0
 16 43  1  0  0  0  0
 17 18  1  0  0  0  0
 18 19  1  0  0  0  0
 18 44  1  0  0  0  0
 18 45  1  0  0  0  0
 19 20  1  0  0  0  0
 19 22  1  0  0  0  0
 19 46  1  0  0  0  0
 20 21  1  0  0  0  0
 20 47  1  0  0  0  0
 20 48  1  0  0  0  0
 21 49  1  0  0  0  0
 22 26  1  0  0  0  0
 22 23  1  0  0  0  0
 22 50  1  0  0  0  0
 23 24  1  0  0  0  0
 23 51  1  0  0  0  0
 23 52  1  0  0  0  0
 24 25  1  0  0  0  0
 24 53  1  0  0  0  0
 24 54  1  0  0  0  0
 25 26  1  0  0  0  0
 26 55  1  0  0  0  0
 26 56  1  0  0  0  0
 27 28  1  0  0  0  0
 27 29  1  0  0  0  0
 27 62  1  0  0  0  0
 28 57  1  0  0  0  0
 28 58  1  0  0  0  0
 28 59  1  0  0  0  0
 29 60  1  0  0  0  0
 29 61  1  0  0  0  0
M  CHG  1  27   1
M  END
> <s_m_source_file>
AV-unprocessed.smi

> <i_m_source_file_index>
21

> <i_lp_mmshare_version>
43012

> <i_f3d_flags>
0

> <s_epik_input>
W0NIM11PW0NASF0xW0NIMl1bQ0BIXShOKFtDSDNdKVtDSDJdMSlbQ0gyXU4oW0NIM10pYyhuW2NIXW4yKWMoYzIzKW5bY0hdbjNbQ0gyXVtDQEhdKFtDSDJdW09IXSlbQ0BASF00W0NIMl1bQ0gyXU9bQ0gyXTQ=

> <s_epik_cmdline>
J2VwaWtfcHl0aG9uJywgJy1waCcsICc3LjAnLCAnLXRuJywgJzgnLCAnLW1hJywgJzIwMCcsICctbWV0YWxfYmluZGluZycsICctaW1hZScsICc8aW5maWxlLm1hZT4nLCAnLW9tYWUnLCAnPG91dGZpbGUubWFlPic=

> <r_lp_tautomer_probability>
1

> <r_epik_Ionization_Penalty>
0.0157465

> <r_epik_Ionization_Penalty_Charging>
0.015354

> <r_epik_Ionization_Penalty_Neutral>
0.000392529

> <r_epik_State_Penalty>
0.0120612

> <r_epik_Charging_Adjusted_Penalty>
0.0274152

> <i_epik_Tot_Q>
1

> <i_epik_Tot_abs_Q>
1

> <r_epik_Metal_State_Penalty>
0.0121253

> <b_epik_Metal_Only>
0

> <s_lp_Force_Field>
OPLS_2005

> <r_lp_Energy>
59.9963

> <b_lp_Chiralities_Consistent>
1

> <s_lp_Variant>
AV-unprocessed.smi:21-4

> <Gold.Version>
5.8.1

> <Gold.Id.Protein>
6NUR|6NUR_protein|mol2

> <Gold.PLP.Fitness>
51.3415

> <Gold.PLP.PLP>
-42.5054

> <Gold.PLP.part.hbond>
-3.0000

> <Gold.PLP.part.metal>
0.0000

> <Gold.PLP.part.buried>
-6.9611

> <Gold.PLP.part.nonpolar>
-32.8148

> <Gold.PLP.part.repulsive>
0.3593

> <Gold.PLP.ligand.clash>
0.0000

> <Gold.PLP.ligand.torsion>
2.1815

> <Gold.PLP.Chemscore.Hbond>
3.9920

> <Gold.PLP.Chemscore.CHOScore>
0.0000

> <Gold.PLP.Chemscore.Metal>
0.0000

> <Gold.Chemscore.Hbonds>
donor molecule, donor type, donor heavy atom, donor atom, acceptor molecule, acceptor atom, score
      L1  H    21    49       P1  8028  1.00
      L1  H    27    62       P1  7948  2.00
      P1  H 10752 10765       L1    15  0.80

> <Gold.PLP.Chemscore.Internal.Correction>
1.2232

> <Gold.Rescore>
     Score         DG    S(hbond)    S(metal)    S(lipo)     H(rot)  DE(clash)    DE(int)     intcor
     13.86     -19.12       2.83        0.00     102.98       3.08       0.21       5.05       ----

> <Gold.Chemscore.Fitness>
13.8642

> <Gold.Chemscore.DG>
-19.1213

> <Gold.Chemscore.ZeroCoef>
-5.4800

> <Gold.Chemscore.Hbond>
2.8345

> <Gold.Chemscore.Metal>
0.0000

> <Gold.Chemscore.Lipo>
102.9768

> <Gold.Chemscore.Internal_Hbond>
0.0000

> <Gold.Chemscore.DEClash>
0.2113

> <Gold.Chemscore.DEInternal>
5.0458

> <Gold.Chemscore.Rot>
3.0758

> <Gold.Chemscore.Internal.Correction>
   9.000000E+99

> <Gold.Chemscore.Hbonds>
donor molecule, donor type, donor heavy atom, donor atom, acceptor molecule, acceptor atom, score
      L1  H    21    49       P1  8028  0.97
      L1  H    27    62       P1  7948  0.85
      P1  H 10752 10765       L1    15  0.79

> <Gold.Chemscore.Hbond.Weighted>
-9.4671

> <Gold.Chemscore.Metal.Weighted>
-0.0000

> <Gold.Chemscore.Lipo.Weighted>
-12.0483

> <Gold.Chemscore.Internal_Hbond.Weighted>
0.0000

> <Gold.Chemscore.DEClash.Weighted>
0.2113

> <Gold.Chemscore.DEInternal.Weighted>
5.0458

> <Gold.Chemscore.Rot.Weighted>
7.8741

> <Gold.Chemscore.Internal.Correction.Weighted>
   9.000000E+99

> <Gold.Protein.RotatedTorsions>
[ 6907 6896 6895 6894 ] final  166.58 input  -60.11 | X-H torsion
[ 7974 7965 7964 7962 ] final   39.38 input  175.53 | X-H torsion
[ 8008 7997 7996 7995 ] final  -94.48 input   59.86 | X-H torsion
[ 10167 10162 10161 10158 ] final  -55.48 input  -65.29 | X-H torsion
[ 10718 10713 10712 10709 ] final  155.99 input   66.30 | X-H torsion
[ 10763 10752 10751 10750 ] final  176.81 input  -60.55 | X-H torsion
[ 11005 11000 10999 10996 ] final   16.83 input  -57.11 | X-H torsion

> <Gold.Protein.ActiveResidues>
 VAL166  LYS551  ARG553  GLY616  TRP617  ASP618  TYR619  PRO620  LYS621  CYS622 
 ASP623  PHE694  ASN695  SER759  ASP760  ASP761  ALA762  ILE779  LEU786  VAL792 
 PHE793  MET794  SER795  GLU796  ALA797  LYS798  CYS799  TRP800  GLU811  SER814 

> <Gold.Protein.RotatedAtoms>
  151.8767  133.3487  159.3752 H   0  0  0  0  0  0  0  0  0  0  0  0  # atno 6907 bound_to 6896
  150.7138  134.5059  159.5593 H   0  0  0  0  0  0  0  0  0  0  0  0  # atno 6908 bound_to 6896
  152.2602  134.8042  160.0483 H   0  0  0  0  0  0  0  0  0  0  0  0  # atno 6909 bound_to 6896
  146.0989  139.5659  142.9427 H   0  0  0  0  0  0  0  0  0  0  0  0  # atno 7974 bound_to 7965
  154.7490  140.0489  157.0877 H   0  0  0  0  0  0  0  0  0  0  0  0  # atno 8008 bound_to 7997
  155.0081  140.3132  155.4821 H   0  0  0  0  0  0  0  0  0  0  0  0  # atno 8009 bound_to 7997
  156.2881  140.2189  156.5194 H   0  0  0  0  0  0  0  0  0  0  0  0  # atno 8010 bound_to 7997
  140.6372  143.2488  151.5086 H   0  0  0  0  0  0  0  0  0  0  0  0  # atno 10167 bound_to 10162
  157.2110  131.0697  151.1970 H   0  0  0  0  0  0  0  0  0  0  0  0  # atno 10718 bound_to 10713
  154.4861  135.2777  155.1533 H   0  0  0  0  0  0  0  0  0  0  0  0  # atno 10763 bound_to 10752
  154.3224  135.6207  153.5517 H   0  0  0  0  0  0  0  0  0  0  0  0  # atno 10764 bound_to 10752
  152.9881  135.5746  154.5272 H   0  0  0  0  0  0  0  0  0  0  0  0  # atno 10765 bound_to 10752
  140.4427  134.1305  155.7692 H   0  0  0  0  0  0  0  0  0  0  0  0  # atno 11005 bound_to 11000
  145.5894  141.0372  143.2078 LP  0  0  0  0  0  0  0  0  0  0  0  0  # atno 17320 bound_to 7965
  144.7417  139.7431  143.7308 LP  0  0  0  0  0  0  0  0  0  0  0  0  # atno 17321 bound_to 7965
  139.5582  144.2222  152.1647 LP  0  0  0  0  0  0  0  0  0  0  0  0  # atno 17342 bound_to 10162
  140.1482  144.5139  150.6703 LP  0  0  0  0  0  0  0  0  0  0  0  0  # atno 17343 bound_to 10162
  157.3673  130.7162  149.6541 LP  0  0  0  0  0  0  0  0  0  0  0  0  # atno 17370 bound_to 10713
  155.9691  130.4209  150.4443 LP  0  0  0  0  0  0  0  0  0  0  0  0  # atno 17371 bound_to 10713
  141.1698  133.8630  157.1604 LP  0  0  0  0  0  0  0  0  0  0  0  0  # atno 17394 bound_to 11000
  140.0059  135.0008  157.0291 LP  0  0  0  0  0  0  0  0  0  0  0  0  # atno 17395 bound_to 11000

$$$$
