AV-unprocessed.smi:3164|AV-procd|sdf|12081|dock7
  -GOLD-   2272017513D 1   1.00000     0.00000
 Structure written by MMmdl.
 40 41  0  0  0  0  0  0  0  0  3 V2000
  148.2342  137.1501  155.1209 C   0  0  0  0  0  0  0  0  0  0  0  0
  148.3466  138.0137  153.9226 N   0  3  1  0  0  0  0  0  0  0  0  0
  147.0398  138.4600  153.3843 C   0  0  0  0  0  0  0  0  0  0  0  0
  146.4663  139.6304  154.2040 C   0  0  0  0  0  0  0  0  0  0  0  0
  147.4161  140.6886  154.2540 O   0  0  0  0  0  0  0  0  0  0  0  0
  148.6267  140.3057  154.8995 C   0  0  2  0  0  0  0  0  0  0  0  0
  149.5412  141.5385  154.9678 C   0  0  0  0  0  0  0  0  0  0  0  0
  149.4145  142.2348  156.2645 N   0  3  0  0  0  0  0  0  0  0  0  0
  150.4940  141.9206  157.2205 C   0  0  0  0  0  0  0  0  0  0  0  0
  151.4793  143.0905  157.3470 C   0  0  0  0  0  0  0  0  0  0  0  0
  151.7535  143.4525  158.7940 C   0  0  0  0  0  0  0  0  0  0  0  0
  152.2872  142.5007  159.6890 C   0  0  0  0  0  0  0  0  0  0  0  0
  152.5140  142.8894  161.0237 C   0  0  0  0  0  0  0  0  0  0  0  0
  152.1988  144.2067  161.4091 C   0  0  0  0  0  0  0  0  0  0  0  0
  151.6689  145.0809  160.4393 C   0  0  0  0  0  0  0  0  0  0  0  0
  151.4468  144.7180  159.1572 N   0  0  0  0  0  0  0  0  0  0  0  0
  149.2749  139.1579  154.0930 C   0  0  0  0  0  0  0  0  0  0  0  0
  147.7970  137.6799  155.9670 H   0  0  0  0  0  0  0  0  0  0  0  0
  149.2162  136.7834  155.4210 H   0  0  0  0  0  0  0  0  0  0  0  0
  147.6108  136.2811  154.9079 H   0  0  0  0  0  0  0  0  0  0  0  0
  147.1868  138.7821  152.3525 H   0  0  0  0  0  0  0  0  0  0  0  0
  146.3364  137.6270  153.3503 H   0  0  0  0  0  0  0  0  0  0  0  0
  145.5535  140.0002  153.7369 H   0  0  0  0  0  0  0  0  0  0  0  0
  146.1973  139.3161  155.2134 H   0  0  0  0  0  0  0  0  0  0  0  0
  148.4109  139.9703  155.9154 H   0  0  0  0  0  0  0  0  0  0  0  0
  150.5803  141.2318  154.8406 H   0  0  0  0  0  0  0  0  0  0  0  0
  149.3086  142.2284  154.1553 H   0  0  0  0  0  0  0  0  0  0  0  0
  149.4152  143.2312  156.0964 H   0  0  0  0  0  0  0  0  0  0  0  0
  150.0544  141.6953  158.1933 H   0  0  0  0  0  0  0  0  0  0  0  0
  151.0208  141.0247  156.8885 H   0  0  0  0  0  0  0  0  0  0  0  0
  152.4205  142.8422  156.8543 H   0  0  0  0  0  0  0  0  0  0  0  0
  151.0863  143.9693  156.8333 H   0  0  0  0  0  0  0  0  0  0  0  0
  152.5183  141.4965  159.3651 H   0  0  0  0  0  0  0  0  0  0  0  0
  152.9220  142.1903  161.7386 H   0  0  0  0  0  0  0  0  0  0  0  0
  152.3596  144.5396  162.4237 H   0  0  0  0  0  0  0  0  0  0  0  0
  151.4161  146.0979  160.7004 H   0  0  0  0  0  0  0  0  0  0  0  0
  150.1995  138.8232  154.5651 H   0  0  0  0  0  0  0  0  0  0  0  0
  149.5492  139.5205  153.1011 H   0  0  0  0  0  0  0  0  0  0  0  0
  148.5329  141.9785  156.6861 H   0  0  0  0  0  0  0  0  0  0  0  0
  148.7554  137.4214  153.2130 H   0  0  0  0  0  0  0  0  0  0  0  0
  1  2  1  0  0  0  0
  1 18  1  0  0  0  0
  1 19  1  0  0  0  0
  1 20  1  0  0  0  0
  2 17  1  0  0  0  0
  2  3  1  0  0  0  0
  2 40  1  0  0  0  0
  3  4  1  0  0  0  0
  3 21  1  0  0  0  0
  3 22  1  0  0  0  0
  4  5  1  0  0  0  0
  4 23  1  0  0  0  0
  4 24  1  0  0  0  0
  5  6  1  0  0  0  0
  6  7  1  0  0  0  0
  6 17  1  0  0  0  0
  6 25  1  0  0  0  0
  7  8  1  0  0  0  0
  7 26  1  0  0  0  0
  7 27  1  0  0  0  0
  8  9  1  0  0  0  0
  8 28  1  0  0  0  0
  8 39  1  0  0  0  0
  9 10  1  0  0  0  0
  9 29  1  0  0  0  0
  9 30  1  0  0  0  0
 10 11  1  0  0  0  0
 10 31  1  0  0  0  0
 10 32  1  0  0  0  0
 11 16  1  0  0  0  0
 11 12  2  0  0  0  0
 12 13  1  0  0  0  0
 12 33  1  0  0  0  0
 13 14  2  0  0  0  0
 13 34  1  0  0  0  0
 14 15  1  0  0  0  0
 14 35  1  0  0  0  0
 15 16  2  0  0  0  0
 15 36  1  0  0  0  0
 17 37  1  0  0  0  0
 17 38  1  0  0  0  0
M  CHG  1   2   1
M  CHG  1   8   1
M  END
> <s_m_source_file>
AV-unprocessed.smi

> <i_m_source_file_index>
3164

> <i_lp_mmshare_version>
43012

> <i_f3d_flags>
0

> <s_epik_input>
W0NIM11OMVtDSDJdW0NIMl1PW0NASF0oW0NIMl0xKVtDSDJdW05IXVtDSDJdW0NIMl1jMltjSF1bY0hdW2NIXVtjSF1uMg==

> <s_epik_cmdline>
J2VwaWtfcHl0aG9uJywgJy1waCcsICc3LjAnLCAnLXRuJywgJzgnLCAnLW1hJywgJzIwMCcsICctbWV0YWxfYmluZGluZycsICctaW1hZScsICc8aW5maWxlLm1hZT4nLCAnLW9tYWUnLCAnPG91dGZpbGUubWFlPic=

> <r_epik_Ionization_Penalty>
0.294944

> <r_epik_Ionization_Penalty_Charging>
0.29381

> <r_epik_Ionization_Penalty_Neutral>
0.00113372

> <r_epik_State_Penalty>
0.271365

> <r_epik_Charging_Adjusted_Penalty>
0.565175

> <i_epik_Tot_Q>
2

> <i_epik_Tot_abs_Q>
2

> <r_epik_Metal_State_Penalty>
0.271365

> <b_epik_Metal_Only>
0

> <s_lp_Force_Field>
OPLS_2005

> <r_lp_Energy>
22.4387

> <b_lp_Chiralities_Consistent>
1

> <s_lp_Variant>
AV-unprocessed.smi:3164-3

> <Gold.Version>
5.8.1

> <Gold.Id.Protein>
6NUR|6NUR_protein|mol2

> <Gold.PLP.Fitness>
43.5029

> <Gold.PLP.PLP>
-34.3576

> <Gold.PLP.part.hbond>
-2.0000

> <Gold.PLP.part.metal>
0.0000

> <Gold.PLP.part.buried>
-4.5115

> <Gold.PLP.part.nonpolar>
-29.2342

> <Gold.PLP.part.repulsive>
0.3045

> <Gold.PLP.ligand.clash>
0.0000

> <Gold.PLP.ligand.torsion>
1.4283

> <Gold.PLP.Chemscore.Hbond>
4.0000

> <Gold.PLP.Chemscore.CHOScore>
0.0000

> <Gold.PLP.Chemscore.Metal>
0.0000

> <Gold.Chemscore.Hbonds>
donor molecule, donor type, donor heavy atom, donor atom, acceptor molecule, acceptor atom, score
      L1  H     2    40       P1  7948  2.00
      L1  H     8    28       P1  8028  2.00

> <Gold.PLP.Chemscore.Internal.Correction>
0.0019

> <Gold.Rescore>
     Score         DG    S(hbond)    S(metal)    S(lipo)     H(rot)  DE(clash)    DE(int)     intcor
     18.77     -20.24       2.00        0.00     105.19       1.65       0.04       1.43       ----

> <Gold.Chemscore.Fitness>
18.7731

> <Gold.Chemscore.DG>
-20.2410

> <Gold.Chemscore.ZeroCoef>
-5.4800

> <Gold.Chemscore.Hbond>
1.9959

> <Gold.Chemscore.Metal>
0.0000

> <Gold.Chemscore.Lipo>
105.1875

> <Gold.Chemscore.Internal_Hbond>
0.0000

> <Gold.Chemscore.DEClash>
0.0392

> <Gold.Chemscore.DEInternal>
1.4287

> <Gold.Chemscore.Rot>
1.6454

> <Gold.Chemscore.Internal.Correction>
   9.000000E+99

> <Gold.Chemscore.Hbonds>
donor molecule, donor type, donor heavy atom, donor atom, acceptor molecule, acceptor atom, score
      L1  H     2    40       P1  7948  1.00
      L1  H     8    28       P1  8028  0.99

> <Gold.Chemscore.Hbond.Weighted>
-6.6663

> <Gold.Chemscore.Metal.Weighted>
-0.0000

> <Gold.Chemscore.Lipo.Weighted>
-12.3069

> <Gold.Chemscore.Internal_Hbond.Weighted>
0.0000

> <Gold.Chemscore.DEClash.Weighted>
0.0392

> <Gold.Chemscore.DEInternal.Weighted>
1.4287

> <Gold.Chemscore.Rot.Weighted>
4.2122

> <Gold.Chemscore.Internal.Correction.Weighted>
   9.000000E+99

> <Gold.Protein.RotatedTorsions>
[ 6907 6896 6895 6894 ] final -173.76 input  -60.11 | X-H torsion
[ 7974 7965 7964 7962 ] final  169.41 input  175.53 | X-H torsion
[ 8008 7997 7996 7995 ] final  148.51 input   59.86 | X-H torsion
[ 10167 10162 10161 10158 ] final  104.95 input  -65.29 | X-H torsion
[ 10718 10713 10712 10709 ] final  -42.59 input   66.30 | X-H torsion
[ 10763 10752 10751 10750 ] final -125.13 input  -60.55 | X-H torsion
[ 11005 11000 10999 10996 ] final -128.80 input  -57.11 | X-H torsion

> <Gold.Protein.ActiveResidues>
 VAL166  LYS551  ARG553  GLY616  TRP617  ASP618  TYR619  PRO620  LYS621  CYS622 
 ASP623  PHE694  ASN695  SER759  ASP760  ASP761  ALA762  ILE779  LEU786  VAL792 
 PHE793  MET794  SER795  GLU796  ALA797  LYS798  CYS799  TRP800  GLU811  SER814 

> <Gold.Protein.RotatedAtoms>
  151.5614  133.3402  159.2971 H   0  0  0  0  0  0  0  0  0  0  0  0  # atno 6907 bound_to 6896
  150.8420  134.7719  159.6951 H   0  0  0  0  0  0  0  0  0  0  0  0  # atno 6908 bound_to 6896
  152.4486  134.5449  159.9901 H   0  0  0  0  0  0  0  0  0  0  0  0  # atno 6909 bound_to 6896
  144.7356  139.9050  143.6411 H   0  0  0  0  0  0  0  0  0  0  0  0  # atno 7974 bound_to 7965
  156.2788  140.2126  156.5710 H   0  0  0  0  0  0  0  0  0  0  0  0  # atno 8008 bound_to 7997
  154.7135  140.0510  157.0596 H   0  0  0  0  0  0  0  0  0  0  0  0  # atno 8009 bound_to 7997
  155.0573  140.3163  155.4675 H   0  0  0  0  0  0  0  0  0  0  0  0  # atno 8010 bound_to 7997
  139.7134  144.7073  151.0990 H   0  0  0  0  0  0  0  0  0  0  0  0  # atno 10167 bound_to 10162
  156.2580  130.4194  149.8575 H   0  0  0  0  0  0  0  0  0  0  0  0  # atno 10718 bound_to 10713
  154.8732  135.4040  154.3218 H   0  0  0  0  0  0  0  0  0  0  0  0  # atno 10763 bound_to 10752
  153.4045  135.7019  153.6408 H   0  0  0  0  0  0  0  0  0  0  0  0  # atno 10764 bound_to 10752
  153.5137  135.3702  155.2569 H   0  0  0  0  0  0  0  0  0  0  0  0  # atno 10765 bound_to 10752
  140.9486  134.1096  157.4084 H   0  0  0  0  0  0  0  0  0  0  0  0  # atno 11005 bound_to 11000
  146.1043  139.4042  143.0327 LP  0  0  0  0  0  0  0  0  0  0  0  0  # atno 17320 bound_to 7965
  145.7533  140.9964  143.1238 LP  0  0  0  0  0  0  0  0  0  0  0  0  # atno 17321 bound_to 7965
  140.7738  143.5262  150.9477 LP  0  0  0  0  0  0  0  0  0  0  0  0  # atno 17342 bound_to 10162
  139.8948  143.6909  152.3140 LP  0  0  0  0  0  0  0  0  0  0  0  0  # atno 17343 bound_to 10162
  156.6100  130.8582  151.3452 LP  0  0  0  0  0  0  0  0  0  0  0  0  # atno 17370 bound_to 10713
  157.7240  130.9596  150.1555 LP  0  0  0  0  0  0  0  0  0  0  0  0  # atno 17371 bound_to 10713
  139.8841  135.0059  156.6343 LP  0  0  0  0  0  0  0  0  0  0  0  0  # atno 17394 bound_to 11000
  140.7634  133.8798  155.8436 LP  0  0  0  0  0  0  0  0  0  0  0  0  # atno 17395 bound_to 11000

$$$$
