AV-unprocessed.smi:21|AV-procd|sdf|165|dock8
  -GOLD-   2262015413D 1   1.00000     0.00000
 Structure written by MMmdl.
 61 64  0  0  0  0  0  0  0  0  1 V2000
  144.1202  132.2132  150.2272 C   0  0  0  0  0  0  0  0  0  0  0  0
  143.9511  133.5654  150.6222 O   0  0  0  0  0  0  0  0  0  0  0  0
  145.1751  134.2787  150.7360 C   0  0  1  0  0  0  0  0  0  0  0  0
  144.9478  135.7480  151.1306 C   0  0  0  0  0  0  0  0  0  0  0  0
  145.8920  135.9663  152.3184 C   0  0  1  0  0  0  0  0  0  0  0  0
  145.4906  137.1493  153.2275 C   0  0  0  0  0  0  0  0  0  0  0  0
  146.4243  138.2732  153.1446 N   0  0  0  0  0  0  0  0  0  0  0  0
  146.5378  138.9664  151.8620 C   0  0  0  0  0  0  0  0  0  0  0  0
  147.4674  138.3574  154.0208 C   0  0  0  0  0  0  0  0  0  0  0  0
  147.8412  137.2343  154.6939 N   0  0  0  0  0  0  0  0  0  0  0  0
  148.8569  137.2563  155.5605 C   0  0  0  0  0  0  0  0  0  0  0  0
  149.6375  138.2806  155.9019 N   0  0  0  0  0  0  0  0  0  0  0  0
  149.2849  139.4113  155.2280 C   0  0  0  0  0  0  0  0  0  0  0  0
  148.2260  139.5411  154.2812 C   0  0  0  0  0  0  0  0  0  0  0  0
  148.1976  140.8488  153.8067 N   0  0  0  0  0  0  0  0  0  0  0  0
  149.1624  141.4541  154.4411 C   0  0  0  0  0  0  0  0  0  0  0  0
  149.8736  140.6604  155.3090 N   0  0  0  0  0  0  0  0  0  0  0  0
  150.9980  141.0594  156.1365 C   0  0  0  0  0  0  0  0  0  0  0  0
  150.6517  142.2295  157.0923 C   0  0  1  0  0  0  0  0  0  0  0  0
  149.3500  141.9462  157.8778 C   0  0  0  0  0  0  0  0  0  0  0  0
  148.5985  143.1267  158.0681 O   0  0  0  0  0  0  0  0  0  0  0  0
  151.8230  142.6218  158.0345 C   0  0  1  0  0  0  0  0  0  0  0  0
  151.6299  143.8685  158.8859 C   0  0  0  0  0  0  0  0  0  0  0  0
  152.6569  143.6443  159.9870 C   0  0  0  0  0  0  0  0  0  0  0  0
  152.5402  142.2575  160.2679 O   0  0  0  0  0  0  0  0  0  0  0  0
  152.2373  141.5567  159.0637 C   0  0  0  0  0  0  0  0  0  0  0  0
  145.9212  134.6752  152.9847 N   0  0  0  0  0  0  0  0  0  0  0  0
  147.0127  134.5244  153.9375 C   0  0  0  0  0  0  0  0  0  0  0  0
  146.0020  133.7133  151.8994 C   0  0  0  0  0  0  0  0  0  0  0  0
  145.7525  134.1980  149.8134 H   0  0  0  0  0  0  0  0  0  0  0  0
  146.8857  136.1574  151.9105 H   0  0  0  0  0  0  0  0  0  0  0  0
  143.1462  131.7282  150.1642 H   0  0  0  0  0  0  0  0  0  0  0  0
  144.7221  131.6638  150.9523 H   0  0  0  0  0  0  0  0  0  0  0  0
  144.5954  132.1350  149.2488 H   0  0  0  0  0  0  0  0  0  0  0  0
  145.1421  136.4383  150.3092 H   0  0  0  0  0  0  0  0  0  0  0  0
  143.9146  135.8848  151.4444 H   0  0  0  0  0  0  0  0  0  0  0  0
  144.4623  137.4436  153.0306 H   0  0  0  0  0  0  0  0  0  0  0  0
  145.4915  136.8177  154.2660 H   0  0  0  0  0  0  0  0  0  0  0  0
  146.7698  140.0214  152.0128 H   0  0  0  0  0  0  0  0  0  0  0  0
  145.6097  138.9117  151.2943 H   0  0  0  0  0  0  0  0  0  0  0  0
  147.3240  138.5209  151.2515 H   0  0  0  0  0  0  0  0  0  0  0  0
  149.0754  136.3181  156.0493 H   0  0  0  0  0  0  0  0  0  0  0  0
  149.3891  142.4986  154.2841 H   0  0  0  0  0  0  0  0  0  0  0  0
  151.3288  140.1876  156.7011 H   0  0  0  0  0  0  0  0  0  0  0  0
  151.8175  141.3203  155.4678 H   0  0  0  0  0  0  0  0  0  0  0  0
  150.4582  143.1029  156.4670 H   0  0  0  0  0  0  0  0  0  0  0  0
  148.7118  141.2458  157.3401 H   0  0  0  0  0  0  0  0  0  0  0  0
  149.5696  141.4968  158.8466 H   0  0  0  0  0  0  0  0  0  0  0  0
  148.5645  143.5976  157.2493 H   0  0  0  0  0  0  0  0  0  0  0  0
  152.7089  142.7973  157.4227 H   0  0  0  0  0  0  0  0  0  0  0  0
  151.7974  144.7940  158.3343 H   0  0  0  0  0  0  0  0  0  0  0  0
  150.6352  143.9083  159.3282 H   0  0  0  0  0  0  0  0  0  0  0  0
  153.6649  143.8598  159.6288 H   0  0  0  0  0  0  0  0  0  0  0  0
  152.4675  144.2510  160.8726 H   0  0  0  0  0  0  0  0  0  0  0  0
  151.4559  140.8256  159.2664 H   0  0  0  0  0  0  0  0  0  0  0  0
  153.1140  141.0068  158.7192 H   0  0  0  0  0  0  0  0  0  0  0  0
  147.0125  133.5207  154.3637 H   0  0  0  0  0  0  0  0  0  0  0  0
  146.9129  135.2303  154.7618 H   0  0  0  0  0  0  0  0  0  0  0  0
  147.9801  134.6905  153.4617 H   0  0  0  0  0  0  0  0  0  0  0  0
  145.6621  132.7267  152.2163 H   0  0  0  0  0  0  0  0  0  0  0  0
  147.0383  133.6102  151.5723 H   0  0  0  0  0  0  0  0  0  0  0  0
  1  2  1  0  0  0  0
  1 32  1  0  0  0  0
  1 33  1  0  0  0  0
  1 34  1  0  0  0  0
  2  3  1  0  0  0  0
  3 30  1  0  0  0  0
  3 29  1  0  0  0  0
  3  4  1  0  0  0  0
  4  5  1  0  0  0  0
  4 35  1  0  0  0  0
  4 36  1  0  0  0  0
  5 31  1  0  0  0  0
  5  6  1  0  0  0  0
  5 27  1  0  0  0  0
  6  7  1  0  0  0  0
  6 37  1  0  0  0  0
  6 38  1  0  0  0  0
  7  8  1  0  0  0  0
  7  9  1  0  0  0  0
  8 39  1  0  0  0  0
  8 40  1  0  0  0  0
  8 41  1  0  0  0  0
  9 14  1  0  0  0  0
  9 10  2  0  0  0  0
 10 11  1  0  0  0  0
 11 12  2  0  0  0  0
 11 42  1  0  0  0  0
 12 13  1  0  0  0  0
 13 17  1  0  0  0  0
 13 14  2  0  0  0  0
 14 15  1  0  0  0  0
 15 16  2  0  0  0  0
 16 17  1  0  0  0  0
 16 43  1  0  0  0  0
 17 18  1  0  0  0  0
 18 19  1  0  0  0  0
 18 44  1  0  0  0  0
 18 45  1  0  0  0  0
 19 20  1  0  0  0  0
 19 22  1  0  0  0  0
 19 46  1  0  0  0  0
 20 21  1  0  0  0  0
 20 47  1  0  0  0  0
 20 48  1  0  0  0  0
 21 49  1  0  0  0  0
 22 26  1  0  0  0  0
 22 23  1  0  0  0  0
 22 50  1  0  0  0  0
 23 24  1  0  0  0  0
 23 51  1  0  0  0  0
 23 52  1  0  0  0  0
 24 25  1  0  0  0  0
 24 53  1  0  0  0  0
 24 54  1  0  0  0  0
 25 26  1  0  0  0  0
 26 55  1  0  0  0  0
 26 56  1  0  0  0  0
 27 28  1  0  0  0  0
 27 29  1  0  0  0  0
 28 57  1  0  0  0  0
 28 58  1  0  0  0  0
 28 59  1  0  0  0  0
 29 60  1  0  0  0  0
 29 61  1  0  0  0  0
M  END
> <s_m_source_file>
AV-unprocessed.smi

> <i_m_source_file_index>
21

> <i_lp_mmshare_version>
43012

> <i_f3d_flags>
0

> <s_epik_input>
W0NIM11PW0NASF0xW0NIMl1bQ0BIXShOKFtDSDNdKVtDSDJdMSlbQ0gyXU4oW0NIM10pYyhuW2NIXW4yKWMoYzIzKW5bY0hdbjNbQ0gyXVtDQEhdKFtDSDJdW09IXSlbQ0BASF00W0NIMl1bQ0gyXU9bQ0gyXTQ=

> <s_epik_cmdline>
J2VwaWtfcHl0aG9uJywgJy1waCcsICc3LjAnLCAnLXRuJywgJzgnLCAnLW1hJywgJzIwMCcsICctbWV0YWxfYmluZGluZycsICctaW1hZScsICc8aW5maWxlLm1hZT4nLCAnLW9tYWUnLCAnPG91dGZpbGUubWFlPic=

> <r_lp_tautomer_probability>
1

> <r_epik_Ionization_Penalty>
2.17574

> <r_epik_Ionization_Penalty_Charging>
0

> <r_epik_Ionization_Penalty_Neutral>
2.17574

> <r_epik_State_Penalty>
2.31336

> <r_epik_Charging_Adjusted_Penalty>
2.31336

> <i_epik_Tot_Q>
0

> <i_epik_Tot_abs_Q>
0

> <r_epik_Metal_State_Penalty>
2.31025

> <b_epik_Metal_Only>
0

> <s_lp_Force_Field>
OPLS_2005

> <r_lp_Energy>
71.9314

> <b_lp_Chiralities_Consistent>
1

> <s_lp_Variant>
AV-unprocessed.smi:21-45

> <Gold.Version>
5.8.1

> <Gold.Id.Protein>
6NUR|6NUR_protein|mol2

> <Gold.PLP.Fitness>
48.8507

> <Gold.PLP.PLP>
-47.5238

> <Gold.PLP.part.hbond>
-2.0000

> <Gold.PLP.part.metal>
0.0000

> <Gold.PLP.part.buried>
-5.1916

> <Gold.PLP.part.nonpolar>
-41.6920

> <Gold.PLP.part.repulsive>
0.9679

> <Gold.PLP.ligand.clash>
0.0000

> <Gold.PLP.ligand.torsion>
1.7797

> <Gold.PLP.Chemscore.Hbond>
0.7500

> <Gold.PLP.Chemscore.CHOScore>
0.6523

> <Gold.PLP.Chemscore.Metal>
0.0000

> <Gold.Chemscore.Hbonds>
donor molecule, donor type, donor heavy atom, donor atom, acceptor molecule, acceptor atom, score
      L1  H    21    49       P1  8028  0.70
      L1  C    16    43       P1  8028  0.72

> <Gold.PLP.Chemscore.Internal.Correction>
0.6793

> <Gold.Rescore>
     Score         DG    S(hbond)    S(metal)    S(lipo)     H(rot)  DE(clash)    DE(int)     intcor
      8.55     -11.50       0.07        0.00     115.03       3.00       0.55       2.39       ----

> <Gold.Chemscore.Fitness>
8.5509

> <Gold.Chemscore.DG>
-11.4951

> <Gold.Chemscore.ZeroCoef>
-5.4800

> <Gold.Chemscore.Hbond>
0.0732

> <Gold.Chemscore.Metal>
0.0000

> <Gold.Chemscore.Lipo>
115.0318

> <Gold.Chemscore.Internal_Hbond>
0.0000

> <Gold.Chemscore.DEClash>
0.5502

> <Gold.Chemscore.DEInternal>
2.3940

> <Gold.Chemscore.Rot>
3.0031

> <Gold.Chemscore.Internal.Correction>
   9.000000E+99

> <Gold.Chemscore.Hbonds>
donor molecule, donor type, donor heavy atom, donor atom, acceptor molecule, acceptor atom, score
      L1  H    21    49       P1  8028  0.07

> <Gold.Chemscore.Hbond.Weighted>
-0.2444

> <Gold.Chemscore.Metal.Weighted>
-0.0000

> <Gold.Chemscore.Lipo.Weighted>
-13.4587

> <Gold.Chemscore.Internal_Hbond.Weighted>
0.0000

> <Gold.Chemscore.DEClash.Weighted>
0.5502

> <Gold.Chemscore.DEInternal.Weighted>
2.3940

> <Gold.Chemscore.Rot.Weighted>
7.6880

> <Gold.Chemscore.Internal.Correction.Weighted>
   9.000000E+99

> <Gold.Protein.RotatedTorsions>
[ 6907 6896 6895 6894 ] final   -0.07 input  -60.11 | X-H torsion
[ 7974 7965 7964 7962 ] final  -47.26 input  175.53 | X-H torsion
[ 8008 7997 7996 7995 ] final   79.11 input   59.86 | X-H torsion
[ 10167 10162 10161 10158 ] final   76.60 input  -65.29 | X-H torsion
[ 10718 10713 10712 10709 ] final -131.11 input   66.30 | X-H torsion
[ 10763 10752 10751 10750 ] final -157.92 input  -60.55 | X-H torsion
[ 11005 11000 10999 10996 ] final   -2.48 input  -57.11 | X-H torsion

> <Gold.Protein.ActiveResidues>
 VAL166  LYS551  ARG553  GLY616  TRP617  ASP618  TYR619  PRO620  LYS621  CYS622 
 ASP623  PHE694  ASN695  SER759  ASP760  ASP761  ALA762  ILE779  LEU786  VAL792 
 PHE793  MET794  SER795  GLU796  ALA797  LYS798  CYS799  TRP800  GLU811  SER814 

> <Gold.Protein.RotatedAtoms>
  151.5681  135.1063  159.9988 H   0  0  0  0  0  0  0  0  0  0  0  0  # atno 6907 bound_to 6896
  152.4414  133.7451  159.6673 H   0  0  0  0  0  0  0  0  0  0  0  0  # atno 6908 bound_to 6896
  150.8320  133.8006  159.3118 H   0  0  0  0  0  0  0  0  0  0  0  0  # atno 6909 bound_to 6896
  145.9634  140.7456  142.9446 H   0  0  0  0  0  0  0  0  0  0  0  0  # atno 7974 bound_to 7965
  155.8652  140.3452  155.5783 H   0  0  0  0  0  0  0  0  0  0  0  0  # atno 8008 bound_to 7997
  155.7889  140.0869  157.2039 H   0  0  0  0  0  0  0  0  0  0  0  0  # atno 8009 bound_to 7997
  154.4014  140.1487  156.3127 H   0  0  0  0  0  0  0  0  0  0  0  0  # atno 8010 bound_to 7997
  139.9905  144.5760  150.7822 H   0  0  0  0  0  0  0  0  0  0  0  0  # atno 10167 bound_to 10162
  156.2211  130.6979  151.0757 H   0  0  0  0  0  0  0  0  0  0  0  0  # atno 10718 bound_to 10713
  154.7598  135.3114  154.8400 H   0  0  0  0  0  0  0  0  0  0  0  0  # atno 10763 bound_to 10752
  153.9164  135.6800  153.4753 H   0  0  0  0  0  0  0  0  0  0  0  0  # atno 10764 bound_to 10752
  153.1198  135.4828  154.9107 H   0  0  0  0  0  0  0  0  0  0  0  0  # atno 10765 bound_to 10752
  140.6588  133.9339  155.8424 H   0  0  0  0  0  0  0  0  0  0  0  0  # atno 11005 bound_to 11000
  144.6820  140.2628  143.7316 LP  0  0  0  0  0  0  0  0  0  0  0  0  # atno 17320 bound_to 7965
  145.8008  139.1963  143.2049 LP  0  0  0  0  0  0  0  0  0  0  0  0  # atno 17321 bound_to 7965
  140.7456  143.2879  151.3413 LP  0  0  0  0  0  0  0  0  0  0  0  0  # atno 17342 bound_to 10162
  139.6344  144.0659  152.2503 LP  0  0  0  0  0  0  0  0  0  0  0  0  # atno 17343 bound_to 10162
  157.7088  131.0744  150.6574 LP  0  0  0  0  0  0  0  0  0  0  0  0  # atno 17370 bound_to 10713
  156.6637  130.4519  149.5679 LP  0  0  0  0  0  0  0  0  0  0  0  0  # atno 17371 bound_to 10713
  141.0481  134.0525  157.3818 LP  0  0  0  0  0  0  0  0  0  0  0  0  # atno 17394 bound_to 11000
  139.9020  135.0168  156.7313 LP  0  0  0  0  0  0  0  0  0  0  0  0  # atno 17395 bound_to 11000

$$$$
