AV-unprocessed.smi:3033|AV-procd|sdf|11576|dock5
  -GOLD-   2272016543D 1   1.00000     0.00000
 Structure written by MMmdl.
 32 33  0  0  0  0  0  0  0  0  2 V2000
  145.0695  136.5667  151.8396 C   0  0  0  0  0  0  0  0  0  0  0  0
  144.5131  135.6351  150.9232 O   0  0  0  0  0  0  0  0  0  0  0  0
  144.9568  134.3311  150.9748 C   0  0  0  0  0  0  0  0  0  0  0  0
  144.4278  133.4368  150.0221 C   0  0  0  0  0  0  0  0  0  0  0  0
  144.8304  132.0884  149.9992 C   0  0  0  0  0  0  0  0  0  0  0  0
  145.7675  131.6174  150.9365 C   0  0  0  0  0  0  0  0  0  0  0  0
  146.3028  132.4944  151.9043 C   0  0  0  0  0  0  0  0  0  0  0  0
  147.3257  132.0064  152.9203 C   0  0  1  0  0  0  0  0  0  0  0  0
  147.6873  130.6578  152.6919 O   0  0  0  0  0  0  0  0  0  0  0  0
  148.6006  132.8749  152.8768 C   0  0  0  0  0  0  0  0  0  0  0  0
  149.3605  132.8069  154.1336 N   0  0  0  0  0  0  0  0  0  0  0  0
  149.9113  131.5651  154.4916 C   0  0  0  0  0  0  0  0  0  0  0  0
  150.6244  131.3982  155.6223 C   0  0  0  0  0  0  0  0  0  0  0  0
  151.2879  129.8581  156.0381 Cl  0  0  0  0  0  0  0  0  0  0  0  0
  150.8182  132.5596  156.4885 C   0  0  0  0  0  0  0  0  0  0  0  0
  151.4696  132.4441  157.5256 O   0  0  0  0  0  0  0  0  0  0  0  0
  150.2559  133.7417  156.0996 N   0  5  0  0  0  0  0  0  0  0  0  0
  149.5309  133.8905  154.9481 C   0  0  0  0  0  0  0  0  0  0  0  0
  149.0247  134.9652  154.6226 O   0  0  0  0  0  0  0  0  0  0  0  0
  145.9004  133.8472  151.9161 C   0  0  0  0  0  0  0  0  0  0  0  0
  144.6221  137.5463  151.6729 H   0  0  0  0  0  0  0  0  0  0  0  0
  146.1467  136.6680  151.6999 H   0  0  0  0  0  0  0  0  0  0  0  0
  144.8639  136.2821  152.8724 H   0  0  0  0  0  0  0  0  0  0  0  0
  143.7080  133.7894  149.2982 H   0  0  0  0  0  0  0  0  0  0  0  0
  144.4209  131.4157  149.2602 H   0  0  0  0  0  0  0  0  0  0  0  0
  146.0751  130.5823  150.9069 H   0  0  0  0  0  0  0  0  0  0  0  0
  146.8689  132.0571  153.9096 H   0  0  0  0  0  0  0  0  0  0  0  0
  148.3095  130.6331  151.9814 H   0  0  0  0  0  0  0  0  0  0  0  0
  149.2197  132.6071  152.0188 H   0  0  0  0  0  0  0  0  0  0  0  0
  148.3252  133.9170  152.7027 H   0  0  0  0  0  0  0  0  0  0  0  0
  149.7147  130.7613  153.7972 H   0  0  0  0  0  0  0  0  0  0  0  0
  146.3336  134.5010  152.6581 H   0  0  0  0  0  0  0  0  0  0  0  0
  1  2  1  0  0  0  0
  1 21  1  0  0  0  0
  1 22  1  0  0  0  0
  1 23  1  0  0  0  0
  2  3  1  0  0  0  0
  3 20  1  0  0  0  0
  3  4  2  0  0  0  0
  4  5  1  0  0  0  0
  4 24  1  0  0  0  0
  5  6  2  0  0  0  0
  5 25  1  0  0  0  0
  6  7  1  0  0  0  0
  6 26  1  0  0  0  0
  7  8  1  0  0  0  0
  7 20  2  0  0  0  0
  8  9  1  0  0  0  0
  8 10  1  0  0  0  0
  8 27  1  0  0  0  0
  9 28  1  0  0  0  0
 10 11  1  0  0  0  0
 10 29  1  0  0  0  0
 10 30  1  0  0  0  0
 11 18  1  0  0  0  0
 11 12  1  0  0  0  0
 12 13  2  0  0  0  0
 12 31  1  0  0  0  0
 13 14  1  0  0  0  0
 13 15  1  0  0  0  0
 15 16  2  0  0  0  0
 15 17  1  0  0  0  0
 17 18  1  0  0  0  0
 18 19  2  0  0  0  0
 20 32  1  0  0  0  0
M  CHG  1  17  -1
M  END
> <s_m_source_file>
AV-unprocessed.smi

> <i_m_source_file_index>
3033

> <i_lp_mmshare_version>
43012

> <i_f3d_flags>
0

> <s_epik_input>
W0NIM11PYzFbY0hdW2NIXVtjSF1jKFtjSF0xKVtDQEhdKFtPSF0pW0NIMl1uMltjSF1jKENsKWMoPU8pW25IXWMyPU8=

> <s_epik_cmdline>
J2VwaWtfcHl0aG9uJywgJy1waCcsICc3LjAnLCAnLXRuJywgJzgnLCAnLW1hJywgJzIwMCcsICctbWV0YWxfYmluZGluZycsICctaW1hZScsICc8aW5maWxlLm1hZT4nLCAnLW9tYWUnLCAnPG91dGZpbGUubWFlPic=

> <r_lp_tautomer_probability>
1

> <r_epik_Ionization_Penalty>
1.7979

> <r_epik_Ionization_Penalty_Charging>
3.23819e-08

> <r_epik_Ionization_Penalty_Neutral>
1.7979

> <r_epik_State_Penalty>
1.91135

> <r_epik_Charging_Adjusted_Penalty>
1.91135

> <i_epik_Tot_Q>
-1

> <i_epik_Tot_abs_Q>
1

> <r_epik_Metal_State_Penalty>
0.014155

> <b_epik_Metal_Only>
0

> <s_lp_Force_Field>
OPLS_2005

> <r_lp_Energy>
25.1118

> <b_lp_Chiralities_Consistent>
1

> <s_lp_Variant>
AV-unprocessed.smi:3033-4

> <Gold.Version>
5.8.1

> <Gold.Id.Protein>
6NUR|6NUR_protein|mol2

> <Gold.PLP.Fitness>
42.3684

> <Gold.PLP.PLP>
-36.9027

> <Gold.PLP.part.hbond>
-2.0000

> <Gold.PLP.part.metal>
0.0000

> <Gold.PLP.part.buried>
-5.2332

> <Gold.PLP.part.nonpolar>
-29.8303

> <Gold.PLP.part.repulsive>
0.3929

> <Gold.PLP.ligand.clash>
0.0000

> <Gold.PLP.ligand.torsion>
0.2864

> <Gold.PLP.Chemscore.Hbond>
2.0000

> <Gold.PLP.Chemscore.CHOScore>
0.0000

> <Gold.PLP.Chemscore.Metal>
0.0000

> <Gold.Chemscore.Hbonds>
donor molecule, donor type, donor heavy atom, donor atom, acceptor molecule, acceptor atom, score
      L1  H     9    28       P1 10747  1.00
      P1  H  6896  6907       L1    16  1.00

> <Gold.PLP.Chemscore.Internal.Correction>
0.0386

> <Gold.Rescore>
     Score         DG    S(hbond)    S(metal)    S(lipo)     H(rot)  DE(clash)    DE(int)     intcor
     14.62     -15.12       1.97        0.00      79.71       2.45       0.05       0.46       ----

> <Gold.Chemscore.Fitness>
14.6161

> <Gold.Chemscore.DG>
-15.1225

> <Gold.Chemscore.ZeroCoef>
-5.4800

> <Gold.Chemscore.Hbond>
1.9719

> <Gold.Chemscore.Metal>
0.0000

> <Gold.Chemscore.Lipo>
79.7105

> <Gold.Chemscore.Internal_Hbond>
0.0000

> <Gold.Chemscore.DEClash>
0.0485

> <Gold.Chemscore.DEInternal>
0.4579

> <Gold.Chemscore.Rot>
2.4491

> <Gold.Chemscore.Internal.Correction>
   9.000000E+99

> <Gold.Chemscore.Hbonds>
donor molecule, donor type, donor heavy atom, donor atom, acceptor molecule, acceptor atom, score
      L1  H     9    28       P1 10747  0.97
      P1  H  6896  6907       L1    16  0.93

> <Gold.Chemscore.Hbond.Weighted>
-6.5860

> <Gold.Chemscore.Metal.Weighted>
-0.0000

> <Gold.Chemscore.Lipo.Weighted>
-9.3261

> <Gold.Chemscore.Internal_Hbond.Weighted>
0.0000

> <Gold.Chemscore.DEClash.Weighted>
0.0485

> <Gold.Chemscore.DEInternal.Weighted>
0.4579

> <Gold.Chemscore.Rot.Weighted>
6.2696

> <Gold.Chemscore.Internal.Correction.Weighted>
   9.000000E+99

> <Gold.Protein.RotatedTorsions>
[ 6907 6896 6895 6894 ] final  176.44 input  -60.11 | X-H torsion
[ 7974 7965 7964 7962 ] final  -26.87 input  175.53 | X-H torsion
[ 8008 7997 7996 7995 ] final   61.27 input   59.86 | X-H torsion
[ 10167 10162 10161 10158 ] final -120.35 input  -65.29 | X-H torsion
[ 10718 10713 10712 10709 ] final  178.67 input   66.30 | X-H torsion
[ 10763 10752 10751 10750 ] final  -67.68 input  -60.55 | X-H torsion
[ 11005 11000 10999 10996 ] final -148.81 input  -57.11 | X-H torsion

> <Gold.Protein.ActiveResidues>
 VAL166  LYS551  ARG553  GLY616  TRP617  ASP618  TYR619  PRO620  LYS621  CYS622 
 ASP623  PHE694  ASN695  SER759  ASP760  ASP761  ALA762  ILE779  LEU786  VAL792 
 PHE793  MET794  SER795  GLU796  ALA797  LYS798  CYS799  TRP800  GLU811  SER814 

> <Gold.Protein.RotatedAtoms>
  151.7201  133.3314  159.3312 H   0  0  0  0  0  0  0  0  0  0  0  0  # atno 6907 bound_to 6896
  150.7656  134.6456  159.6270 H   0  0  0  0  0  0  0  0  0  0  0  0  # atno 6908 bound_to 6896
  152.3657  134.6809  160.0244 H   0  0  0  0  0  0  0  0  0  0  0  0  # atno 6909 bound_to 6896
  146.1396  140.5077  142.8658 H   0  0  0  0  0  0  0  0  0  0  0  0  # atno 7974 bound_to 7965
  155.5956  140.3493  155.4579 H   0  0  0  0  0  0  0  0  0  0  0  0  # atno 8008 bound_to 7997
  156.0267  140.1265  157.0325 H   0  0  0  0  0  0  0  0  0  0  0  0  # atno 8009 bound_to 7997
  154.4336  140.1051  156.6027 H   0  0  0  0  0  0  0  0  0  0  0  0  # atno 8010 bound_to 7997
  140.0367  143.5193  152.2150 H   0  0  0  0  0  0  0  0  0  0  0  0  # atno 10167 bound_to 10162
  156.8871  130.9835  151.3054 H   0  0  0  0  0  0  0  0  0  0  0  0  # atno 10718 bound_to 10713
  154.3780  135.6080  153.5775 H   0  0  0  0  0  0  0  0  0  0  0  0  # atno 10763 bound_to 10752
  152.9788  135.5854  154.4444 H   0  0  0  0  0  0  0  0  0  0  0  0  # atno 10764 bound_to 10752
  154.4208  135.2846  155.1954 H   0  0  0  0  0  0  0  0  0  0  0  0  # atno 10765 bound_to 10752
  140.7573  134.3338  157.5111 H   0  0  0  0  0  0  0  0  0  0  0  0  # atno 11005 bound_to 11000
  144.7777  140.5775  143.6626 LP  0  0  0  0  0  0  0  0  0  0  0  0  # atno 17320 bound_to 7965
  145.5077  139.1480  143.3622 LP  0  0  0  0  0  0  0  0  0  0  0  0  # atno 17321 bound_to 7965
  139.6040  144.7591  151.3105 LP  0  0  0  0  0  0  0  0  0  0  0  0  # atno 17342 bound_to 10162
  140.7278  143.6953  150.7889 LP  0  0  0  0  0  0  0  0  0  0  0  0  # atno 17343 bound_to 10162
  157.6106  130.8580  149.8945 LP  0  0  0  0  0  0  0  0  0  0  0  0  # atno 17370 bound_to 10713
  156.0647  130.3694  150.0904 LP  0  0  0  0  0  0  0  0  0  0  0  0  # atno 17371 bound_to 10713
  139.8777  134.9180  156.3191 LP  0  0  0  0  0  0  0  0  0  0  0  0  # atno 17394 bound_to 11000
  140.9696  133.7336  156.0515 LP  0  0  0  0  0  0  0  0  0  0  0  0  # atno 17395 bound_to 11000

$$$$
