AV-unprocessed.smi:1687|AV-procd|sdf|6766|dock3
  -GOLD-   22720 7523D 1   1.00000     0.00000
 Structure written by MMmdl.
 45 46  0  0  0  0  0  0  0  0  2 V2000
  145.0973  136.2063  151.3799 C   0  0  0  0  0  0  0  0  0  0  0  0
  145.9607  137.1774  152.1974 C   0  0  2  0  0  0  0  0  0  0  0  0
  145.2896  137.5517  153.5305 C   0  0  0  0  0  0  0  0  0  0  0  0
  146.1433  138.5531  154.3272 C   0  0  0  0  0  0  0  0  0  0  0  0
  146.4216  139.7699  153.5200 N   0  3  1  0  0  0  0  0  0  0  0  0
  147.0216  140.8872  154.3070 C   0  0  2  0  0  0  0  0  0  0  0  0
  146.5353  142.2441  153.7617 C   0  0  0  0  0  0  0  0  0  0  0  0
  148.5643  140.7849  154.4276 C   0  0  0  0  0  0  0  0  0  0  0  0
  149.1359  141.8569  155.2390 N   0  0  0  0  0  0  0  0  0  0  0  0
  150.0187  141.6897  156.2352 C   0  0  0  0  0  0  0  0  0  0  0  0
  150.4692  140.5914  156.5625 O   0  0  0  0  0  0  0  0  0  0  0  0
  150.3383  142.8641  156.8069 N   0  0  0  0  0  0  0  0  0  0  0  0
  151.2390  143.1004  157.8796 C   0  0  0  0  0  0  0  0  0  0  0  0
  151.3690  144.4537  158.2658 C   0  0  0  0  0  0  0  0  0  0  0  0
  152.2385  144.7929  159.3206 C   0  0  0  0  0  0  0  0  0  0  0  0
  152.9569  143.7685  159.9626 C   0  0  0  0  0  0  0  0  0  0  0  0
  152.7696  142.4470  159.5164 C   0  0  0  0  0  0  0  0  0  0  0  0
  151.9372  142.1201  158.5054 N   0  0  0  0  0  0  0  0  0  0  0  0
  147.1180  139.4364  152.2474 C   0  0  0  0  0  0  0  0  0  0  0  0
  146.2783  138.4595  151.4080 C   0  0  0  0  0  0  0  0  0  0  0  0
  144.1356  136.6503  151.1213 H   0  0  0  0  0  0  0  0  0  0  0  0
  144.9010  135.2903  151.9380 H   0  0  0  0  0  0  0  0  0  0  0  0
  145.5944  135.9251  150.4510 H   0  0  0  0  0  0  0  0  0  0  0  0
  146.9025  136.6743  152.4223 H   0  0  0  0  0  0  0  0  0  0  0  0
  144.3057  137.9833  153.3411 H   0  0  0  0  0  0  0  0  0  0  0  0
  145.1227  136.6554  154.1290 H   0  0  0  0  0  0  0  0  0  0  0  0
  145.6128  138.8242  155.2407 H   0  0  0  0  0  0  0  0  0  0  0  0
  147.0799  138.0840  154.6304 H   0  0  0  0  0  0  0  0  0  0  0  0
  146.6106  140.8144  155.3151 H   0  0  0  0  0  0  0  0  0  0  0  0
  146.7742  143.0568  154.4477 H   0  0  0  0  0  0  0  0  0  0  0  0
  145.4530  142.2491  153.6290 H   0  0  0  0  0  0  0  0  0  0  0  0
  146.9910  142.4849  152.8013 H   0  0  0  0  0  0  0  0  0  0  0  0
  148.8425  139.8447  154.9030 H   0  0  0  0  0  0  0  0  0  0  0  0
  149.0349  140.7762  153.4437 H   0  0  0  0  0  0  0  0  0  0  0  0
  148.8220  142.7953  155.0383 H   0  0  0  0  0  0  0  0  0  0  0  0
  149.8856  143.6850  156.4336 H   0  0  0  0  0  0  0  0  0  0  0  0
  150.8098  145.2287  157.7617 H   0  0  0  0  0  0  0  0  0  0  0  0
  152.3521  145.8213  159.6306 H   0  0  0  0  0  0  0  0  0  0  0  0
  153.6331  143.9890  160.7753 H   0  0  0  0  0  0  0  0  0  0  0  0
  153.3013  141.6309  159.9828 H   0  0  0  0  0  0  0  0  0  0  0  0
  147.3015  140.3383  151.6644 H   0  0  0  0  0  0  0  0  0  0  0  0
  148.0903  138.9884  152.4567 H   0  0  0  0  0  0  0  0  0  0  0  0
  146.8141  138.2103  150.4912 H   0  0  0  0  0  0  0  0  0  0  0  0
  145.3516  138.9469  151.1010 H   0  0  0  0  0  0  0  0  0  0  0  0
  145.5114  140.1121  153.2470 H   0  0  0  0  0  0  0  0  0  0  0  0
  1  2  1  0  0  0  0
  1 21  1  0  0  0  0
  1 22  1  0  0  0  0
  1 23  1  0  0  0  0
  2 20  1  0  0  0  0
  2  3  1  0  0  0  0
  2 24  1  0  0  0  0
  3  4  1  0  0  0  0
  3 25  1  0  0  0  0
  3 26  1  0  0  0  0
  4  5  1  0  0  0  0
  4 27  1  0  0  0  0
  4 28  1  0  0  0  0
  5  6  1  0  0  0  0
  5 19  1  0  0  0  0
  5 45  1  0  0  0  0
  6  7  1  0  0  0  0
  6  8  1  0  0  0  0
  6 29  1  0  0  0  0
  7 30  1  0  0  0  0
  7 31  1  0  0  0  0
  7 32  1  0  0  0  0
  8  9  1  0  0  0  0
  8 33  1  0  0  0  0
  8 34  1  0  0  0  0
  9 10  1  0  0  0  0
  9 35  1  0  0  0  0
 10 11  2  0  0  0  0
 10 12  1  0  0  0  0
 12 13  1  0  0  0  0
 12 36  1  0  0  0  0
 13 18  1  0  0  0  0
 13 14  2  0  0  0  0
 14 15  1  0  0  0  0
 14 37  1  0  0  0  0
 15 16  2  0  0  0  0
 15 38  1  0  0  0  0
 16 17  1  0  0  0  0
 16 39  1  0  0  0  0
 17 18  2  0  0  0  0
 17 40  1  0  0  0  0
 19 20  1  0  0  0  0
 19 41  1  0  0  0  0
 19 42  1  0  0  0  0
 20 43  1  0  0  0  0
 20 44  1  0  0  0  0
M  CHG  1   5   1
M  END
> <s_m_source_file>
AV-unprocessed.smi

> <i_m_source_file_index>
1687

> <i_lp_mmshare_version>
43012

> <i_f3d_flags>
0

> <s_epik_input>
W0NIM11bQ0hdMVtDSDJdW0NIMl1OKFtDSDJdW0NIMl0xKVtDQEhdKFtDSDNdKVtDSDJdW05IXUMoPU8pW05IXWMyW2NIXVtjSF1bY0hdW2NIXW4y

> <s_epik_cmdline>
J2VwaWtfcHl0aG9uJywgJy1waCcsICc3LjAnLCAnLXRuJywgJzgnLCAnLW1hJywgJzIwMCcsICctbWV0YWxfYmluZGluZycsICctaW1hZScsICc8aW5maWxlLm1hZT4nLCAnLW9tYWUnLCAnPG91dGZpbGUubWFlPic=

> <r_epik_Ionization_Penalty>
0.00142891

> <r_epik_Ionization_Penalty_Charging>
0.00139388

> <r_epik_Ionization_Penalty_Neutral>
3.50347e-05

> <r_epik_State_Penalty>
0.000929204

> <r_epik_Charging_Adjusted_Penalty>
0.00232308

> <i_epik_Tot_Q>
1

> <i_epik_Tot_abs_Q>
1

> <r_epik_Metal_State_Penalty>
-0

> <b_epik_Metal_Only>
0

> <s_lp_Force_Field>
OPLS_2005

> <r_lp_Energy>
21.3986

> <b_lp_Chiralities_Consistent>
1

> <s_lp_Variant>
AV-unprocessed.smi:1687-1

> <Gold.Version>
5.8.1

> <Gold.Id.Protein>
6NUR|6NUR_protein|mol2

> <Gold.PLP.Fitness>
51.2377

> <Gold.PLP.PLP>
-40.6720

> <Gold.PLP.part.hbond>
-3.0000

> <Gold.PLP.part.metal>
0.0000

> <Gold.PLP.part.buried>
-0.5387

> <Gold.PLP.part.nonpolar>
-38.0208

> <Gold.PLP.part.repulsive>
0.2220

> <Gold.PLP.ligand.clash>
0.0000

> <Gold.PLP.ligand.torsion>
0.6049

> <Gold.PLP.Chemscore.Hbond>
3.8882

> <Gold.PLP.Chemscore.CHOScore>
0.0000

> <Gold.PLP.Chemscore.Metal>
0.0000

> <Gold.Chemscore.Hbonds>
donor molecule, donor type, donor heavy atom, donor atom, acceptor molecule, acceptor atom, score
      L1  H     5    45       P1 10175  2.00
      L1  H     9    35       P1  8028  0.91
      L1  H    12    36       P1  8028  1.00

> <Gold.PLP.Chemscore.Internal.Correction>
0.1111

> <Gold.Rescore>
     Score         DG    S(hbond)    S(metal)    S(lipo)     H(rot)  DE(clash)    DE(int)     intcor
     19.84     -23.25       2.78        0.00     105.34       1.50       1.81       1.60       ----

> <Gold.Chemscore.Fitness>
19.8390

> <Gold.Chemscore.DG>
-23.2501

> <Gold.Chemscore.ZeroCoef>
-5.4800

> <Gold.Chemscore.Hbond>
2.7766

> <Gold.Chemscore.Metal>
0.0000

> <Gold.Chemscore.Lipo>
105.3417

> <Gold.Chemscore.Internal_Hbond>
0.0000

> <Gold.Chemscore.DEClash>
1.8128

> <Gold.Chemscore.DEInternal>
1.5983

> <Gold.Chemscore.Rot>
1.4956

> <Gold.Chemscore.Internal.Correction>
   9.000000E+99

> <Gold.Chemscore.Hbonds>
donor molecule, donor type, donor heavy atom, donor atom, acceptor molecule, acceptor atom, score
      L1  H     5    45       P1 10175  0.94
      L1  H     9    35       P1  8028  0.85
      L1  H    12    36       P1  8028  0.99

> <Gold.Chemscore.Hbond.Weighted>
-9.2740

> <Gold.Chemscore.Metal.Weighted>
-0.0000

> <Gold.Chemscore.Lipo.Weighted>
-12.3250

> <Gold.Chemscore.Internal_Hbond.Weighted>
0.0000

> <Gold.Chemscore.DEClash.Weighted>
1.8128

> <Gold.Chemscore.DEInternal.Weighted>
1.5983

> <Gold.Chemscore.Rot.Weighted>
3.8289

> <Gold.Chemscore.Internal.Correction.Weighted>
   9.000000E+99

> <Gold.Protein.RotatedTorsions>
[ 6907 6896 6895 6894 ] final  170.56 input  -60.11 | X-H torsion
[ 7974 7965 7964 7962 ] final   13.62 input  175.53 | X-H torsion
[ 8008 7997 7996 7995 ] final  -95.02 input   59.86 | X-H torsion
[ 10167 10162 10161 10158 ] final -139.15 input  -65.29 | X-H torsion
[ 10718 10713 10712 10709 ] final  -48.52 input   66.30 | X-H torsion
[ 10763 10752 10751 10750 ] final -133.49 input  -60.55 | X-H torsion
[ 11005 11000 10999 10996 ] final   79.88 input  -57.11 | X-H torsion

> <Gold.Protein.ActiveResidues>
 VAL166  LYS551  ARG553  GLY616  TRP617  ASP618  TYR619  PRO620  LYS621  CYS622 
 ASP623  PHE694  ASN695  SER759  ASP760  ASP761  ALA762  ILE779  LEU786  VAL792 
 PHE793  MET794  SER795  GLU796  ALA797  LYS798  CYS799  TRP800  GLU811  SER814 

> <Gold.Protein.RotatedAtoms>
  151.8141  133.3385  159.3564 H   0  0  0  0  0  0  0  0  0  0  0  0  # atno 6907 bound_to 6896
  150.7316  134.5636  159.5864 H   0  0  0  0  0  0  0  0  0  0  0  0  # atno 6908 bound_to 6896
  152.3053  134.7563  160.0400 H   0  0  0  0  0  0  0  0  0  0  0  0  # atno 6909 bound_to 6896
  146.2325  139.9162  142.8517 H   0  0  0  0  0  0  0  0  0  0  0  0  # atno 7974 bound_to 7965
  154.7559  140.0484  157.0933 H   0  0  0  0  0  0  0  0  0  0  0  0  # atno 8008 bound_to 7997
  154.9998  140.3123  155.4852 H   0  0  0  0  0  0  0  0  0  0  0  0  # atno 8009 bound_to 7997
  156.2894  140.2203  156.5107 H   0  0  0  0  0  0  0  0  0  0  0  0  # atno 8010 bound_to 7997
  139.8408  143.7325  152.2663 H   0  0  0  0  0  0  0  0  0  0  0  0  # atno 10167 bound_to 10162
  156.1980  130.4155  149.9280 H   0  0  0  0  0  0  0  0  0  0  0  0  # atno 10718 bound_to 10713
  154.8732  135.3764  154.4581 H   0  0  0  0  0  0  0  0  0  0  0  0  # atno 10763 bound_to 10752
  153.5252  135.7028  153.5716 H   0  0  0  0  0  0  0  0  0  0  0  0  # atno 10764 bound_to 10752
  153.3946  135.3964  155.1911 H   0  0  0  0  0  0  0  0  0  0  0  0  # atno 10765 bound_to 10752
  139.9156  134.7877  156.1836 H   0  0  0  0  0  0  0  0  0  0  0  0  # atno 11005 bound_to 11000
  145.2182  140.9924  143.4061 LP  0  0  0  0  0  0  0  0  0  0  0  0  # atno 17320 bound_to 7965
  144.9633  139.3957  143.6345 LP  0  0  0  0  0  0  0  0  0  0  0  0  # atno 17321 bound_to 7965
  139.7561  144.7520  151.0433 LP  0  0  0  0  0  0  0  0  0  0  0  0  # atno 17342 bound_to 10162
  140.7798  143.4804  151.0026 LP  0  0  0  0  0  0  0  0  0  0  0  0  # atno 17343 bound_to 10162
  156.6999  130.8929  151.3598 LP  0  0  0  0  0  0  0  0  0  0  0  0  # atno 17370 bound_to 10713
  157.6969  130.9291  150.0670 LP  0  0  0  0  0  0  0  0  0  0  0  0  # atno 17371 bound_to 10713
  141.0627  133.6834  156.1984 LP  0  0  0  0  0  0  0  0  0  0  0  0  # atno 17394 bound_to 11000
  140.6635  134.4943  157.5584 LP  0  0  0  0  0  0  0  0  0  0  0  0  # atno 17395 bound_to 11000

$$$$
