AV-unprocessed.smi:2541|AV-procd|sdf|9989|dock7
  -GOLD-   2272014 43D 1   1.00000     0.00000
 Structure written by MMmdl.
 38 39  0  0  0  0  0  0  0  0  1 V2000
  151.0708  140.1214  154.8138 O   0  0  0  0  0  0  0  0  0  0  0  0
  150.0252  140.3767  155.4137 C   0  0  0  0  0  0  0  0  0  0  0  0
  148.6820  139.7914  154.9578 C   0  0  0  0  0  0  0  0  0  0  0  0
  147.6508  140.8595  154.6963 C   0  0  0  0  0  0  0  0  0  0  0  0
  147.7163  141.9433  153.7766 C   0  0  0  0  0  0  0  0  0  0  0  0
  146.5248  142.5851  153.9539 C   0  0  0  0  0  0  0  0  0  0  0  0
  145.7795  141.9522  154.8947 O   0  0  0  0  0  0  0  0  0  0  0  0
  146.5051  140.8498  155.3610 N   0  0  0  0  0  0  0  0  0  0  0  0
  149.9765  141.1687  156.4962 N   0  0  0  0  0  0  0  0  0  0  0  0
  151.1193  141.8502  157.0977 C   0  0  0  0  0  0  0  0  0  0  0  0
  150.7169  142.6049  158.3854 C   0  0  2  0  0  0  0  0  0  0  0  0
  150.2290  143.8723  157.9841 O   0  0  0  0  0  0  0  0  0  0  0  0
  151.8831  142.8353  159.3866 C   0  0  0  0  0  0  0  0  0  0  0  0
  152.5237  141.5138  159.8789 C   0  0  0  0  0  0  0  0  0  0  0  0
  153.6575  141.7544  160.8894 C   0  0  0  0  0  0  0  0  0  0  0  0
  153.1753  142.5811  162.0878 C   0  0  0  0  0  0  0  0  0  0  0  0
  152.5571  143.9040  161.6189 C   0  0  0  0  0  0  0  0  0  0  0  0
  151.4199  143.6602  160.6144 C   0  0  0  0  0  0  0  0  0  0  0  0
  148.8491  139.2063  154.0529 H   0  0  0  0  0  0  0  0  0  0  0  0
  148.3231  139.0930  155.7155 H   0  0  0  0  0  0  0  0  0  0  0  0
  148.5141  142.2096  153.0994 H   0  0  0  0  0  0  0  0  0  0  0  0
  146.0805  143.4620  153.5066 H   0  0  0  0  0  0  0  0  0  0  0  0
  149.0768  141.3258  156.9266 H   0  0  0  0  0  0  0  0  0  0  0  0
  151.8320  141.0594  157.3222 H   0  0  0  0  0  0  0  0  0  0  0  0
  151.6188  142.5162  156.3917 H   0  0  0  0  0  0  0  0  0  0  0  0
  149.9125  142.0672  158.8895 H   0  0  0  0  0  0  0  0  0  0  0  0
  149.8329  143.7861  157.1303 H   0  0  0  0  0  0  0  0  0  0  0  0
  152.6589  143.4060  158.8733 H   0  0  0  0  0  0  0  0  0  0  0  0
  151.7599  140.8802  160.3319 H   0  0  0  0  0  0  0  0  0  0  0  0
  152.9402  140.9500  159.0461 H   0  0  0  0  0  0  0  0  0  0  0  0
  154.0556  140.7996  161.2344 H   0  0  0  0  0  0  0  0  0  0  0  0
  154.4814  142.2719  160.3965 H   0  0  0  0  0  0  0  0  0  0  0  0
  152.4384  142.0112  162.6552 H   0  0  0  0  0  0  0  0  0  0  0  0
  154.0067  142.7765  162.7658 H   0  0  0  0  0  0  0  0  0  0  0  0
  152.1809  144.4617  162.4770 H   0  0  0  0  0  0  0  0  0  0  0  0
  153.3254  144.5260  161.1580 H   0  0  0  0  0  0  0  0  0  0  0  0
  151.0240  144.6268  160.3027 H   0  0  0  0  0  0  0  0  0  0  0  0
  150.6006  143.1430  161.1154 H   0  0  0  0  0  0  0  0  0  0  0  0
  1  2  2  0  0  0  0
  2  3  1  0  0  0  0
  2  9  1  0  0  0  0
  3  4  1  0  0  0  0
  3 19  1  0  0  0  0
  3 20  1  0  0  0  0
  4  8  2  0  0  0  0
  4  5  1  0  0  0  0
  5  6  2  0  0  0  0
  5 21  1  0  0  0  0
  6  7  1  0  0  0  0
  6 22  1  0  0  0  0
  7  8  1  0  0  0  0
  9 10  1  0  0  0  0
  9 23  1  0  0  0  0
 10 11  1  0  0  0  0
 10 24  1  0  0  0  0
 10 25  1  0  0  0  0
 11 12  1  0  0  0  0
 11 13  1  0  0  0  0
 11 26  1  0  0  0  0
 12 27  1  0  0  0  0
 13 18  1  0  0  0  0
 13 14  1  0  0  0  0
 13 28  1  0  0  0  0
 14 15  1  0  0  0  0
 14 29  1  0  0  0  0
 14 30  1  0  0  0  0
 15 16  1  0  0  0  0
 15 31  1  0  0  0  0
 15 32  1  0  0  0  0
 16 17  1  0  0  0  0
 16 33  1  0  0  0  0
 16 34  1  0  0  0  0
 17 18  1  0  0  0  0
 17 35  1  0  0  0  0
 17 36  1  0  0  0  0
 18 37  1  0  0  0  0
 18 38  1  0  0  0  0
M  END
> <s_m_source_file>
AV-unprocessed.smi

> <i_m_source_file_index>
2541

> <i_lp_mmshare_version>
43012

> <i_f3d_flags>
0

> <s_epik_input>
bjFvW2NIXVtjSF1jMVtDSDJdQyg9TylbTkhdW0NIMl1bQ0BIXShbT0hdKVtDSF0yW0NIMl1bQ0gyXVtDSDJdW0NIMl1bQ0gyXTI=

> <s_epik_cmdline>
J2VwaWtfcHl0aG9uJywgJy1waCcsICc3LjAnLCAnLXRuJywgJzgnLCAnLW1hJywgJzIwMCcsICctbWV0YWxfYmluZGluZycsICctaW1hZScsICc8aW5maWxlLm1hZT4nLCAnLW9tYWUnLCAnPG91dGZpbGUubWFlPic=

> <r_lp_tautomer_probability>
1

> <r_epik_Ionization_Penalty>
2.3322e-07

> <r_epik_Ionization_Penalty_Charging>
0

> <r_epik_Ionization_Penalty_Neutral>
2.3322e-07

> <r_epik_State_Penalty>
-0

> <r_epik_Charging_Adjusted_Penalty>
0

> <i_epik_Tot_Q>
0

> <i_epik_Tot_abs_Q>
0

> <r_epik_Metal_State_Penalty>
-0

> <b_epik_Metal_Only>
0

> <s_lp_Force_Field>
OPLS_2005

> <r_lp_Energy>
14.1188

> <b_lp_Chiralities_Consistent>
1

> <s_lp_Variant>
AV-unprocessed.smi:2541-1

> <Gold.Version>
5.8.1

> <Gold.Id.Protein>
6NUR|6NUR_protein|mol2

> <Gold.PLP.Fitness>
43.6840

> <Gold.PLP.PLP>
-38.4292

> <Gold.PLP.part.hbond>
-2.6081

> <Gold.PLP.part.metal>
0.0000

> <Gold.PLP.part.buried>
-5.4069

> <Gold.PLP.part.nonpolar>
-30.5379

> <Gold.PLP.part.repulsive>
0.3433

> <Gold.PLP.ligand.clash>
0.0000

> <Gold.PLP.ligand.torsion>
0.3063

> <Gold.PLP.Chemscore.Hbond>
1.9440

> <Gold.PLP.Chemscore.CHOScore>
0.0000

> <Gold.PLP.Chemscore.Metal>
0.0000

> <Gold.Chemscore.Hbonds>
donor molecule, donor type, donor heavy atom, donor atom, acceptor molecule, acceptor atom, score
      L1  H    12    27       P1  8028  0.90
      P1  H  7989  7998       L1     1  1.00

> <Gold.PLP.Chemscore.Internal.Correction>
0.0354

> <Gold.Rescore>
     Score         DG    S(hbond)    S(metal)    S(lipo)     H(rot)  DE(clash)    DE(int)     intcor
     17.14     -17.57       1.77        0.00     105.68       2.42       0.06       0.36       ----

> <Gold.Chemscore.Fitness>
17.1427

> <Gold.Chemscore.DG>
-17.5652

> <Gold.Chemscore.ZeroCoef>
-5.4800

> <Gold.Chemscore.Hbond>
1.7689

> <Gold.Chemscore.Metal>
0.0000

> <Gold.Chemscore.Lipo>
105.6835

> <Gold.Chemscore.Internal_Hbond>
0.0000

> <Gold.Chemscore.DEClash>
0.0646

> <Gold.Chemscore.DEInternal>
0.3579

> <Gold.Chemscore.Rot>
2.4172

> <Gold.Chemscore.Internal.Correction>
   9.000000E+99

> <Gold.Chemscore.Hbonds>
donor molecule, donor type, donor heavy atom, donor atom, acceptor molecule, acceptor atom, score
      L1  H    12    27       P1  8028  0.78
      P1  H  7989  7998       L1     1  0.99

> <Gold.Chemscore.Hbond.Weighted>
-5.9082

> <Gold.Chemscore.Metal.Weighted>
-0.0000

> <Gold.Chemscore.Lipo.Weighted>
-12.3650

> <Gold.Chemscore.Internal_Hbond.Weighted>
0.0000

> <Gold.Chemscore.DEClash.Weighted>
0.0646

> <Gold.Chemscore.DEInternal.Weighted>
0.3579

> <Gold.Chemscore.Rot.Weighted>
6.1880

> <Gold.Chemscore.Internal.Correction.Weighted>
   9.000000E+99

> <Gold.Protein.RotatedTorsions>
[ 6907 6896 6895 6894 ] final  134.83 input  -60.11 | X-H torsion
[ 7974 7965 7964 7962 ] final  127.83 input  175.53 | X-H torsion
[ 8008 7997 7996 7995 ] final -159.99 input   59.86 | X-H torsion
[ 10167 10162 10161 10158 ] final   75.85 input  -65.29 | X-H torsion
[ 10718 10713 10712 10709 ] final -138.65 input   66.30 | X-H torsion
[ 10763 10752 10751 10750 ] final  176.56 input  -60.55 | X-H torsion
[ 11005 11000 10999 10996 ] final  -47.54 input  -57.11 | X-H torsion

> <Gold.Protein.ActiveResidues>
 VAL166  LYS551  ARG553  GLY616  TRP617  ASP618  TYR619  PRO620  LYS621  CYS622 
 ASP623  PHE694  ASN695  SER759  ASP760  ASP761  ALA762  ILE779  LEU786  VAL792 
 PHE793  MET794  SER795  GLU796  ALA797  LYS798  CYS799  TRP800  GLU811  SER814 

> <Gold.Protein.RotatedAtoms>
  152.3070  133.5713  159.5655 H   0  0  0  0  0  0  0  0  0  0  0  0  # atno 6907 bound_to 6896
  150.7304  134.0208  159.3709 H   0  0  0  0  0  0  0  0  0  0  0  0  # atno 6908 bound_to 6896
  151.8104  135.0683  160.0463 H   0  0  0  0  0  0  0  0  0  0  0  0  # atno 6909 bound_to 6896
  145.0462  139.3921  143.5077 H   0  0  0  0  0  0  0  0  0  0  0  0  # atno 7974 bound_to 7965
  155.7708  140.0852  157.2109 H   0  0  0  0  0  0  0  0  0  0  0  0  # atno 8008 bound_to 7997
  154.3996  140.1525  156.2997 H   0  0  0  0  0  0  0  0  0  0  0  0  # atno 8009 bound_to 7997
  155.8749  140.3423  155.5849 H   0  0  0  0  0  0  0  0  0  0  0  0  # atno 8010 bound_to 7997
  139.9985  144.5704  150.7757 H   0  0  0  0  0  0  0  0  0  0  0  0  # atno 10167 bound_to 10162
  156.3017  130.7432  151.1486 H   0  0  0  0  0  0  0  0  0  0  0  0  # atno 10718 bound_to 10713
  154.4828  135.2775  155.1557 H   0  0  0  0  0  0  0  0  0  0  0  0  # atno 10763 bound_to 10752
  154.3260  135.6200  153.5533 H   0  0  0  0  0  0  0  0  0  0  0  0  # atno 10764 bound_to 10752
  152.9877  135.5754  154.5233 H   0  0  0  0  0  0  0  0  0  0  0  0  # atno 10765 bound_to 10752
  141.0647  133.6698  156.3312 H   0  0  0  0  0  0  0  0  0  0  0  0  # atno 11005 bound_to 11000
  146.3514  140.0088  142.8669 LP  0  0  0  0  0  0  0  0  0  0  0  0  # atno 17320 bound_to 7965
  145.1585  140.9660  143.4391 LP  0  0  0  0  0  0  0  0  0  0  0  0  # atno 17321 bound_to 7965
  140.7428  143.2837  151.3525 LP  0  0  0  0  0  0  0  0  0  0  0  0  # atno 17342 bound_to 10162
  139.6288  144.0760  152.2458 LP  0  0  0  0  0  0  0  0  0  0  0  0  # atno 17343 bound_to 10162
  157.7369  131.0557  150.5383 LP  0  0  0  0  0  0  0  0  0  0  0  0  # atno 17370 bound_to 10713
  156.5512  130.4232  149.6107 LP  0  0  0  0  0  0  0  0  0  0  0  0  # atno 17371 bound_to 10713
  140.5798  134.5757  157.5477 LP  0  0  0  0  0  0  0  0  0  0  0  0  # atno 17394 bound_to 11000
  139.9465  134.7693  156.0550 LP  0  0  0  0  0  0  0  0  0  0  0  0  # atno 17395 bound_to 11000

$$$$
