AV-unprocessed.smi:675|AV-procd|sdf|3303|dock4
  -GOLD-   22720 0263D 1   1.00000     0.00000
 Structure written by MMmdl.
 29 30  0  0  0  0  0  0  0  0  1 V2000
  146.8335  140.8537  152.6983 O   0  0  0  0  0  0  0  0  0  0  0  0
  147.6659  140.9643  153.5964 C   0  0  0  0  0  0  0  0  0  0  0  0
  148.8736  140.2648  153.5159 N   0  0  0  0  0  0  0  0  0  0  0  0
  149.8983  140.2994  154.4619 C   0  0  0  0  0  0  0  0  0  0  0  0
  150.9135  139.6260  154.2851 O   0  0  0  0  0  0  0  0  0  0  0  0
  149.6896  141.1193  155.5968 N   0  0  0  0  0  0  0  0  0  0  0  0
  150.7020  141.1587  156.6270 C   0  0  0  0  0  0  0  0  0  0  0  0
  150.7146  142.4774  157.4338 C   0  0  2  0  0  0  0  0  0  0  0  0
  151.0053  143.5326  156.5391 O   0  0  0  0  0  0  0  0  0  0  0  0
  151.6699  142.4459  158.6271 C   0  0  0  0  0  0  0  0  0  0  0  0
  152.3199  141.2342  158.9565 C   0  0  0  0  0  0  0  0  0  0  0  0
  153.1922  141.1622  160.0585 C   0  0  0  0  0  0  0  0  0  0  0  0
  153.4217  142.3029  160.8480 C   0  0  0  0  0  0  0  0  0  0  0  0
  152.7769  143.5131  160.5338 C   0  0  0  0  0  0  0  0  0  0  0  0
  151.9028  143.5922  159.4311 C   0  0  0  0  0  0  0  0  0  0  0  0
  151.1284  145.1053  159.1121 Cl  0  0  0  0  0  0  0  0  0  0  0  0
  148.5053  141.8293  155.7176 C   0  0  0  0  0  0  0  0  0  0  0  0
  147.5145  141.7877  154.7949 C   0  0  0  0  0  0  0  0  0  0  0  0
  146.0633  142.6950  155.0255 Cl  0  0  0  0  0  0  0  0  0  0  0  0
  149.0147  139.6808  152.7043 H   0  0  0  0  0  0  0  0  0  0  0  0
  150.5997  140.2779  157.2637 H   0  0  0  0  0  0  0  0  0  0  0  0
  151.6463  141.0272  156.0953 H   0  0  0  0  0  0  0  0  0  0  0  0
  149.7029  142.6800  157.7821 H   0  0  0  0  0  0  0  0  0  0  0  0
  150.1896  143.8880  156.2204 H   0  0  0  0  0  0  0  0  0  0  0  0
  152.1451  140.3468  158.3662 H   0  0  0  0  0  0  0  0  0  0  0  0
  153.6822  140.2304  160.2999 H   0  0  0  0  0  0  0  0  0  0  0  0
  154.0885  142.2491  161.6960 H   0  0  0  0  0  0  0  0  0  0  0  0
  152.9515  144.3855  161.1459 H   0  0  0  0  0  0  0  0  0  0  0  0
  148.3602  142.4405  156.5971 H   0  0  0  0  0  0  0  0  0  0  0  0
  1  2  2  0  0  0  0
  2 18  1  0  0  0  0
  2  3  1  0  0  0  0
  3 20  1  0  0  0  0
  3  4  1  0  0  0  0
  4  5  2  0  0  0  0
  4  6  1  0  0  0  0
  6  7  1  0  0  0  0
  6 17  1  0  0  0  0
  7  8  1  0  0  0  0
  7 21  1  0  0  0  0
  7 22  1  0  0  0  0
  8  9  1  0  0  0  0
  8 10  1  0  0  0  0
  8 23  1  0  0  0  0
  9 24  1  0  0  0  0
 10 15  1  0  0  0  0
 10 11  2  0  0  0  0
 11 12  1  0  0  0  0
 11 25  1  0  0  0  0
 12 13  2  0  0  0  0
 12 26  1  0  0  0  0
 13 14  1  0  0  0  0
 13 27  1  0  0  0  0
 14 15  2  0  0  0  0
 14 28  1  0  0  0  0
 15 16  1  0  0  0  0
 17 18  2  0  0  0  0
 17 29  1  0  0  0  0
 18 19  1  0  0  0  0
M  END
> <s_m_source_file>
AV-unprocessed.smi

> <i_m_source_file_index>
675

> <i_lp_mmshare_version>
43012

> <i_f3d_flags>
0

> <s_epik_input>
Tz1jMVtuSF1jKD1PKW4oW2NIXWMxQ2wpW0NIMl1bQ0BIXShbT0hdKWMyW2NIXVtjSF1bY0hdW2NIXWMyQ2w=

> <s_epik_cmdline>
J2VwaWtfcHl0aG9uJywgJy1waCcsICc3LjAnLCAnLXRuJywgJzgnLCAnLW1hJywgJzIwMCcsICctbWV0YWxfYmluZGluZycsICctaW1hZScsICc8aW5maWxlLm1hZT4nLCAnLW9tYWUnLCAnPG91dGZpbGUubWFlPic=

> <r_lp_tautomer_probability>
0.999537

> <r_epik_Ionization_Penalty>
0.029206

> <r_epik_Ionization_Penalty_Charging>
0.0292057

> <r_epik_Ionization_Penalty_Neutral>
2.68278e-07

> <r_epik_State_Penalty>
0.0240115

> <r_epik_Charging_Adjusted_Penalty>
0.0532172

> <i_epik_Tot_Q>
0

> <i_epik_Tot_abs_Q>
0

> <r_epik_Metal_State_Penalty>
2.21956

> <b_epik_Metal_Only>
0

> <s_lp_Force_Field>
OPLS_2005

> <r_lp_Energy>
11.7134

> <b_lp_Chiralities_Consistent>
1

> <s_lp_Variant>
AV-unprocessed.smi:675-1

> <Gold.Version>
5.8.1

> <Gold.Id.Protein>
6NUR|6NUR_protein|mol2

> <Gold.PLP.Fitness>
49.5200

> <Gold.PLP.PLP>
-42.7780

> <Gold.PLP.part.hbond>
-2.9666

> <Gold.PLP.part.metal>
0.0000

> <Gold.PLP.part.buried>
-2.5938

> <Gold.PLP.part.nonpolar>
-37.7287

> <Gold.PLP.part.repulsive>
0.5218

> <Gold.PLP.ligand.clash>
0.0000

> <Gold.PLP.ligand.torsion>
0.4791

> <Gold.PLP.Chemscore.Hbond>
2.1260

> <Gold.PLP.Chemscore.CHOScore>
0.4336

> <Gold.PLP.Chemscore.Metal>
0.0000

> <Gold.Chemscore.Hbonds>
donor molecule, donor type, donor heavy atom, donor atom, acceptor molecule, acceptor atom, score
      L1  H     3    20       P1  7957  0.64
      L1  H     9    24       P1  8028  1.00
      P1  H  7989  7998       L1     5  0.55
      L1  C    17    29       P1  8028  0.42

> <Gold.PLP.Chemscore.Internal.Correction>
0.0214

> <Gold.Rescore>
     Score         DG    S(hbond)    S(metal)    S(lipo)     H(rot)  DE(clash)    DE(int)     intcor
     18.48     -19.55       2.57        0.00      94.50       2.18       0.72       0.35       ----

> <Gold.Chemscore.Fitness>
18.4779

> <Gold.Chemscore.DG>
-19.5455

> <Gold.Chemscore.ZeroCoef>
-5.4800

> <Gold.Chemscore.Hbond>
2.5698

> <Gold.Chemscore.Metal>
0.0000

> <Gold.Chemscore.Lipo>
94.5013

> <Gold.Chemscore.Internal_Hbond>
0.0000

> <Gold.Chemscore.DEClash>
0.7223

> <Gold.Chemscore.DEInternal>
0.3452

> <Gold.Chemscore.Rot>
2.1775

> <Gold.Chemscore.Internal.Correction>
   9.000000E+99

> <Gold.Chemscore.Hbonds>
donor molecule, donor type, donor heavy atom, donor atom, acceptor molecule, acceptor atom, score
      L1  H     3    20       P1  7957  0.64
      L1  H     9    24       P1  8028  1.00
      P1  H  7989  7998       L1     5  0.03

> <Gold.Chemscore.Hbond.Weighted>
-8.5833

> <Gold.Chemscore.Metal.Weighted>
-0.0000

> <Gold.Chemscore.Lipo.Weighted>
-11.0566

> <Gold.Chemscore.Internal_Hbond.Weighted>
0.0000

> <Gold.Chemscore.DEClash.Weighted>
0.7223

> <Gold.Chemscore.DEInternal.Weighted>
0.3452

> <Gold.Chemscore.Rot.Weighted>
5.5745

> <Gold.Chemscore.Internal.Correction.Weighted>
   9.000000E+99

> <Gold.Protein.RotatedTorsions>
[ 6907 6896 6895 6894 ] final  -98.25 input  -60.11 | X-H torsion
[ 7974 7965 7964 7962 ] final -140.39 input  175.53 | X-H torsion
[ 8008 7997 7996 7995 ] final  141.65 input   59.86 | X-H torsion
[ 10167 10162 10161 10158 ] final  -87.08 input  -65.29 | X-H torsion
[ 10718 10713 10712 10709 ] final  140.60 input   66.30 | X-H torsion
[ 10763 10752 10751 10750 ] final   61.42 input  -60.55 | X-H torsion
[ 11005 11000 10999 10996 ] final -139.74 input  -57.11 | X-H torsion

> <Gold.Protein.ActiveResidues>
 VAL166  LYS551  ARG553  GLY616  TRP617  ASP618  TYR619  PRO620  LYS621  CYS622 
 ASP623  PHE694  ASN695  SER759  ASP760  ASP761  ALA762  ILE779  LEU786  VAL792 
 PHE793  MET794  SER795  GLU796  ALA797  LYS798  CYS799  TRP800  GLU811  SER814 

> <Gold.Protein.RotatedAtoms>
  150.7041  134.1224  159.4039 H   0  0  0  0  0  0  0  0  0  0  0  0  # atno 6907 bound_to 6896
  151.9210  135.0296  160.0531 H   0  0  0  0  0  0  0  0  0  0  0  0  # atno 6908 bound_to 6896
  152.2256  133.4982  159.5223 H   0  0  0  0  0  0  0  0  0  0  0  0  # atno 6909 bound_to 6896
  144.8601  140.6206  143.5334 H   0  0  0  0  0  0  0  0  0  0  0  0  # atno 7974 bound_to 7965
  156.2962  140.2309  156.4599 H   0  0  0  0  0  0  0  0  0  0  0  0  # atno 8008 bound_to 7997
  154.8027  140.0447  157.1305 H   0  0  0  0  0  0  0  0  0  0  0  0  # atno 8009 bound_to 7997
  154.9514  140.3042  155.5076 H   0  0  0  0  0  0  0  0  0  0  0  0  # atno 8010 bound_to 7997
  140.3879  143.2718  151.9301 H   0  0  0  0  0  0  0  0  0  0  0  0  # atno 10167 bound_to 10162
  157.4014  131.1017  151.0548 H   0  0  0  0  0  0  0  0  0  0  0  0  # atno 10718 bound_to 10713
  152.9950  135.5501  154.6030 H   0  0  0  0  0  0  0  0  0  0  0  0  # atno 10763 bound_to 10752
  154.5367  135.2817  155.1134 H   0  0  0  0  0  0  0  0  0  0  0  0  # atno 10764 bound_to 10752
  154.2427  135.6413  153.5265 H   0  0  0  0  0  0  0  0  0  0  0  0  # atno 10765 bound_to 10752
  140.8490  134.2309  157.4770 H   0  0  0  0  0  0  0  0  0  0  0  0  # atno 11005 bound_to 11000
  145.4329  139.1546  143.4012 LP  0  0  0  0  0  0  0  0  0  0  0  0  # atno 17320 bound_to 7965
  146.2854  140.4446  142.8760 LP  0  0  0  0  0  0  0  0  0  0  0  0  # atno 17321 bound_to 7965
  139.4791  144.5756  151.8018 LP  0  0  0  0  0  0  0  0  0  0  0  0  # atno 17342 bound_to 10162
  140.4870  144.1366  150.5943 LP  0  0  0  0  0  0  0  0  0  0  0  0  # atno 17343 bound_to 10162
  157.1545  130.6199  149.5592 LP  0  0  0  0  0  0  0  0  0  0  0  0  # atno 17370 bound_to 10713
  155.9824  130.4838  150.6880 LP  0  0  0  0  0  0  0  0  0  0  0  0  # atno 17371 bound_to 10713
  139.8704  134.9674  156.4595 LP  0  0  0  0  0  0  0  0  0  0  0  0  # atno 17394 bound_to 11000
  140.8811  133.7917  155.9468 LP  0  0  0  0  0  0  0  0  0  0  0  0  # atno 17395 bound_to 11000

$$$$
