AV-unprocessed.smi:35|AV-procd|sdf|247|dock8
  -GOLD-   2262016 03D 1   1.00000     0.00000
 Structure written by MMmdl.
 29 30  0  0  0  0  0  0  0  0  1 V2000
  140.6262  135.1205  154.0033 O   0  0  0  0  0  0  0  0  0  0  0  0
  141.7628  135.4945  153.7224 C   0  0  0  0  0  0  0  0  0  0  0  0
  142.8503  134.6326  153.8864 N   0  0  0  0  0  0  0  0  0  0  0  0
  144.1803  134.9418  153.5967 C   0  0  0  0  0  0  0  0  0  0  0  0
  145.0622  134.1072  153.7959 O   0  0  0  0  0  0  0  0  0  0  0  0
  144.4515  136.2281  153.0767 N   0  0  0  0  0  0  0  0  0  0  0  0
  145.8965  136.5855  152.7710 C   0  0  2  0  0  0  0  0  0  0  0  0
  146.6066  136.7245  153.9666 O   0  0  0  0  0  0  0  0  0  0  0  0
  146.6688  138.1002  154.3297 C   0  0  1  0  0  0  0  0  0  0  0  0
  147.7534  138.3514  155.3913 C   0  0  0  0  0  0  0  0  0  0  0  0
  147.7666  139.7164  155.7514 O   0  0  0  0  0  0  0  0  0  0  0  0
  146.8961  138.7694  152.9712 C   0  0  1  0  0  0  0  0  0  0  0  0
  148.2640  138.6919  152.6020 O   0  0  0  0  0  0  0  0  0  0  0  0
  145.9886  137.9518  152.0519 C   0  0  1  0  0  0  0  0  0  0  0  0
  146.4899  137.8641  150.7305 O   0  0  0  0  0  0  0  0  0  0  0  0
  143.4019  137.1289  152.9234 C   0  0  0  0  0  0  0  0  0  0  0  0
  142.1174  136.8143  153.2137 C   0  0  0  0  0  0  0  0  0  0  0  0
  140.7695  138.2363  152.9199 Br  0  0  0  0  0  0  0  0  0  0  0  0
  142.6576  133.7103  154.2493 H   0  0  0  0  0  0  0  0  0  0  0  0
  146.2923  135.7398  152.2052 H   0  0  0  0  0  0  0  0  0  0  0  0
  145.6967  138.4229  154.7077 H   0  0  0  0  0  0  0  0  0  0  0  0
  147.6010  137.7293  156.2737 H   0  0  0  0  0  0  0  0  0  0  0  0
  148.7373  138.1105  154.9875 H   0  0  0  0  0  0  0  0  0  0  0  0
  147.3225  140.2084  155.0777 H   0  0  0  0  0  0  0  0  0  0  0  0
  146.6083  139.8213  152.9863 H   0  0  0  0  0  0  0  0  0  0  0  0
  148.4079  137.8628  152.1711 H   0  0  0  0  0  0  0  0  0  0  0  0
  145.0013  138.4159  152.0270 H   0  0  0  0  0  0  0  0  0  0  0  0
  145.8079  138.1364  150.1350 H   0  0  0  0  0  0  0  0  0  0  0  0
  143.5878  138.1293  152.5633 H   0  0  0  0  0  0  0  0  0  0  0  0
  1  2  2  0  0  0  0
  2 17  1  0  0  0  0
  2  3  1  0  0  0  0
  3 19  1  0  0  0  0
  3  4  1  0  0  0  0
  4  5  2  0  0  0  0
  4  6  1  0  0  0  0
  6  7  1  0  0  0  0
  6 16  1  0  0  0  0
  7 14  1  0  0  0  0
  7  8  1  0  0  0  0
  7 20  1  0  0  0  0
  8  9  1  0  0  0  0
  9 10  1  0  0  0  0
  9 12  1  0  0  0  0
  9 21  1  0  0  0  0
 10 11  1  0  0  0  0
 10 22  1  0  0  0  0
 10 23  1  0  0  0  0
 11 24  1  0  0  0  0
 12 13  1  0  0  0  0
 12 14  1  0  0  0  0
 12 25  1  0  0  0  0
 13 26  1  0  0  0  0
 14 15  1  0  0  0  0
 14 27  1  0  0  0  0
 15 28  1  0  0  0  0
 16 17  2  0  0  0  0
 16 29  1  0  0  0  0
 17 18  1  0  0  0  0
M  END
> <s_m_source_file>
AV-unprocessed.smi

> <i_m_source_file_index>
35

> <i_lp_mmshare_version>
43012

> <i_f3d_flags>
0

> <s_epik_input>
Tz1jMVtuSF1jKD1PKW4oW2NIXWMxQnIpW0NAQEhdMk9bQ0BASF0oW0NIMl1bT0hdKVtDQEBIXShbT0hdKVtDQEhdMltPSF0=

> <s_epik_cmdline>
J2VwaWtfcHl0aG9uJywgJy1waCcsICc3LjAnLCAnLXRuJywgJzgnLCAnLW1hJywgJzIwMCcsICctbWV0YWxfYmluZGluZycsICctaW1hZScsICc8aW5maWxlLm1hZT4nLCAnLW9tYWUnLCAnPG91dGZpbGUubWFlPic=

> <r_lp_tautomer_probability>
0.999537

> <r_epik_Ionization_Penalty>
0.10812

> <r_epik_Ionization_Penalty_Charging>
0.108119

> <r_epik_Ionization_Penalty_Neutral>
4.93006e-07

> <r_epik_State_Penalty>
0.0979238

> <r_epik_Charging_Adjusted_Penalty>
0.206043

> <i_epik_Tot_Q>
0

> <i_epik_Tot_abs_Q>
0

> <r_epik_Metal_State_Penalty>
3.07911

> <b_epik_Metal_Only>
0

> <s_epik_Chemistry_Notes>
This compound contains an acetal/aminal-like group ( X-CH(R)-Y where X, Y are N, S, or O) that may be acid/base labile, releasing an aldehyde.

> <s_lp_Force_Field>
OPLS_2005

> <r_lp_Energy>
33.4515

> <b_lp_Chiralities_Consistent>
1

> <s_lp_Variant>
AV-unprocessed.smi:35-1

> <Gold.Version>
5.8.1

> <Gold.Id.Protein>
6NUR|6NUR_protein|mol2

> <Gold.PLP.Fitness>
44.9499

> <Gold.PLP.PLP>
-26.3756

> <Gold.PLP.part.hbond>
-7.0096

> <Gold.PLP.part.metal>
0.0000

> <Gold.PLP.part.buried>
-3.5188

> <Gold.PLP.part.nonpolar>
-14.7897

> <Gold.PLP.part.repulsive>
0.3740

> <Gold.PLP.ligand.clash>
0.0000

> <Gold.PLP.ligand.torsion>
0.2009

> <Gold.PLP.Chemscore.Hbond>
5.0000

> <Gold.PLP.Chemscore.CHOScore>
1.3176

> <Gold.PLP.Chemscore.Metal>
0.0000

> <Gold.Chemscore.Hbonds>
donor molecule, donor type, donor heavy atom, donor atom, acceptor molecule, acceptor atom, score
      L1  H     3    19       P1 10957  1.00
      L1  H    13    26       P1  7948  1.00
      L1  H    15    28       P1 10171  1.00
      P1  H  7954  7966       L1    15  1.00
      P1  H 11000 11005       L1     1  1.00
      L1  C    16    29       P1 10171  0.29
      L1  C    16    29       P1 10175  1.00

> <Gold.PLP.Chemscore.Internal.Correction>
0.0234

> <Gold.Rescore>
     Score         DG    S(hbond)    S(metal)    S(lipo)     H(rot)  DE(clash)    DE(int)     intcor
     14.70     -15.94       4.82        0.00      32.12       3.67       0.17       1.06       ----

> <Gold.Chemscore.Fitness>
14.7047

> <Gold.Chemscore.DG>
-15.9364

> <Gold.Chemscore.ZeroCoef>
-5.4800

> <Gold.Chemscore.Hbond>
4.8186

> <Gold.Chemscore.Metal>
0.0000

> <Gold.Chemscore.Lipo>
32.1164

> <Gold.Chemscore.Internal_Hbond>
0.0000

> <Gold.Chemscore.DEClash>
0.1669

> <Gold.Chemscore.DEInternal>
1.0648

> <Gold.Chemscore.Rot>
3.6701

> <Gold.Chemscore.Internal.Correction>
   9.000000E+99

> <Gold.Chemscore.Hbonds>
donor molecule, donor type, donor heavy atom, donor atom, acceptor molecule, acceptor atom, score
      L1  H     3    19       P1 10957  0.95
      L1  H    13    26       P1  7948  1.00
      L1  H    15    28       P1 10171  0.92
      P1  H  7954  7966       L1    15  0.76
      P1  H 11000 11005       L1     1  0.97

> <Gold.Chemscore.Hbond.Weighted>
-16.0943

> <Gold.Chemscore.Metal.Weighted>
-0.0000

> <Gold.Chemscore.Lipo.Weighted>
-3.7576

> <Gold.Chemscore.Internal_Hbond.Weighted>
0.0000

> <Gold.Chemscore.DEClash.Weighted>
0.1669

> <Gold.Chemscore.DEInternal.Weighted>
1.0648

> <Gold.Chemscore.Rot.Weighted>
9.3955

> <Gold.Chemscore.Internal.Correction.Weighted>
   9.000000E+99

> <Gold.Protein.RotatedTorsions>
[ 6907 6896 6895 6894 ] final -154.75 input  -60.11 | X-H torsion
[ 7974 7965 7964 7962 ] final -172.21 input  175.53 | X-H torsion
[ 8008 7997 7996 7995 ] final   95.49 input   59.86 | X-H torsion
[ 10167 10162 10161 10158 ] final   46.18 input  -65.29 | X-H torsion
[ 10718 10713 10712 10709 ] final   -1.55 input   66.30 | X-H torsion
[ 10763 10752 10751 10750 ] final -102.08 input  -60.55 | X-H torsion
[ 11005 11000 10999 10996 ] final   43.33 input  -57.11 | X-H torsion

> <Gold.Protein.ActiveResidues>
 VAL166  LYS551  ARG553  GLY616  TRP617  ASP618  TYR619  PRO620  LYS621  CYS622 
 ASP623  PHE694  ASN695  SER759  ASP760  ASP761  ALA762  ILE779  LEU786  VAL792 
 PHE793  MET794  SER795  GLU796  ALA797  LYS798  CYS799  TRP800  GLU811  SER814 

> <Gold.Protein.RotatedAtoms>
  151.2621  133.4297  159.2616 H   0  0  0  0  0  0  0  0  0  0  0  0  # atno 6907 bound_to 6896
  151.0521  134.9680  159.8227 H   0  0  0  0  0  0  0  0  0  0  0  0  # atno 6908 bound_to 6896
  152.5384  134.2575  159.8975 H   0  0  0  0  0  0  0  0  0  0  0  0  # atno 6909 bound_to 6896
  144.7148  140.1807  143.6358 H   0  0  0  0  0  0  0  0  0  0  0  0  # atno 7974 bound_to 7965
  156.0694  140.3286  155.7557 H   0  0  0  0  0  0  0  0  0  0  0  0  # atno 8008 bound_to 7997
  155.5329  140.0595  157.2902 H   0  0  0  0  0  0  0  0  0  0  0  0  # atno 8009 bound_to 7997
  154.4522  140.1924  156.0503 H   0  0  0  0  0  0  0  0  0  0  0  0  # atno 8010 bound_to 7997
  140.3166  144.2756  150.6190 H   0  0  0  0  0  0  0  0  0  0  0  0  # atno 10167 bound_to 10162
  156.8039  130.5402  149.5718 H   0  0  0  0  0  0  0  0  0  0  0  0  # atno 10718 bound_to 10713
  154.7707  135.4874  153.9643 H   0  0  0  0  0  0  0  0  0  0  0  0  # atno 10763 bound_to 10752
  153.1364  135.6763  153.9104 H   0  0  0  0  0  0  0  0  0  0  0  0  # atno 10764 bound_to 10752
  153.8792  135.3134  155.3423 H   0  0  0  0  0  0  0  0  0  0  0  0  # atno 10765 bound_to 10752
  140.1655  134.4287  155.8290 H   0  0  0  0  0  0  0  0  0  0  0  0  # atno 11005 bound_to 11000
  145.8859  139.2349  143.1578 LP  0  0  0  0  0  0  0  0  0  0  0  0  # atno 17320 bound_to 7965
  145.9950  140.8570  143.0047 LP  0  0  0  0  0  0  0  0  0  0  0  0  # atno 17321 bound_to 7965
  140.5521  143.2205  151.7909 LP  0  0  0  0  0  0  0  0  0  0  0  0  # atno 17342 bound_to 10162
  139.4883  144.4462  151.9707 LP  0  0  0  0  0  0  0  0  0  0  0  0  # atno 17343 bound_to 10162
  156.1084  130.6022  151.0008 LP  0  0  0  0  0  0  0  0  0  0  0  0  # atno 17370 bound_to 10713
  157.6540  131.0892  150.7989 LP  0  0  0  0  0  0  0  0  0  0  0  0  # atno 17371 bound_to 10713
  141.2213  133.6932  156.7670 LP  0  0  0  0  0  0  0  0  0  0  0  0  # atno 17394 bound_to 11000
  140.2439  134.8592  157.3600 LP  0  0  0  0  0  0  0  0  0  0  0  0  # atno 17395 bound_to 11000

$$$$
