AV-unprocessed.smi:213|AV-procd|sdf|1648|dock2
  -GOLD-   2262020 23D 1   1.00000     0.00000
 Structure written by MMmdl.
 58 61  0  0  0  0  0  0  0  0  1 V2000
  151.6470  139.5732  155.7951 C   0  0  0  0  0  0  0  0  0  0  0  0
  150.4304  140.4805  156.0688 C   0  0  1  0  0  0  0  0  0  0  0  0
  150.8215  141.9706  156.2227 C   0  0  0  0  0  0  0  0  0  0  0  0
  151.1252  142.4110  157.5854 N   0  0  0  0  0  0  0  0  0  0  0  0
  151.5247  143.8139  157.6015 C   0  0  0  0  0  0  0  0  0  0  0  0
  151.8220  144.3116  159.0256 C   0  0  0  0  0  0  0  0  0  0  0  0
  152.8331  143.4970  159.6088 O   0  0  0  0  0  0  0  0  0  0  0  0
  152.4649  142.1228  159.6600 C   0  0  0  0  0  0  0  0  0  0  0  0
  152.1541  141.6107  158.2424 C   0  0  0  0  0  0  0  0  0  0  0  0
  149.4325  140.3074  155.0090 N   0  0  0  0  0  0  0  0  0  0  0  0
  148.9614  141.4504  154.2293 C   0  0  0  0  0  0  0  0  0  0  0  0
  148.7775  139.1252  154.8519 C   0  0  0  0  0  0  0  0  0  0  0  0
  149.1632  138.0815  155.6337 N   0  0  0  0  0  0  0  0  0  0  0  0
  148.5547  136.8965  155.5375 C   0  0  0  0  0  0  0  0  0  0  0  0
  147.5530  136.5369  154.7348 N   0  0  0  0  0  0  0  0  0  0  0  0
  147.1665  137.5705  153.9348 C   0  0  0  0  0  0  0  0  0  0  0  0
  147.7177  138.8853  153.9245 C   0  0  0  0  0  0  0  0  0  0  0  0
  147.0714  139.6479  152.9566 N   0  0  0  0  0  0  0  0  0  0  0  0
  146.1868  138.8419  152.4394 C   0  0  0  0  0  0  0  0  0  0  0  0
  146.1755  137.5735  152.9689 N   0  0  0  0  0  0  0  0  0  0  0  0
  145.3023  136.4814  152.5776 C   0  0  0  0  0  0  0  0  0  0  0  0
  146.0387  135.4075  151.7538 C   0  0  1  0  0  0  0  0  0  0  0  0
  146.8731  134.6236  152.5855 O   0  0  0  0  0  0  0  0  0  0  0  0
  145.0770  134.5140  150.9440 C   0  0  1  0  0  0  0  0  0  0  0  0
  145.6659  133.2266  150.3615 C   0  0  0  0  0  0  0  0  0  0  0  0
  144.4144  132.4026  150.1546 C   0  0  0  0  0  0  0  0  0  0  0  0
  143.5871  132.7740  151.3836 C   0  0  0  0  0  0  0  0  0  0  0  0
  143.9392  134.1174  151.7051 O   0  0  0  0  0  0  0  0  0  0  0  0
  152.3746  139.6073  156.6035 H   0  0  0  0  0  0  0  0  0  0  0  0
  152.1702  139.8586  154.8823 H   0  0  0  0  0  0  0  0  0  0  0  0
  151.3373  138.5334  155.6866 H   0  0  0  0  0  0  0  0  0  0  0  0
  149.9967  140.1285  157.0043 H   0  0  0  0  0  0  0  0  0  0  0  0
  151.6498  142.2118  155.5549 H   0  0  0  0  0  0  0  0  0  0  0  0
  149.9838  142.5722  155.8664 H   0  0  0  0  0  0  0  0  0  0  0  0
  152.4101  143.9535  156.9790 H   0  0  0  0  0  0  0  0  0  0  0  0
  150.7363  144.4284  157.1652 H   0  0  0  0  0  0  0  0  0  0  0  0
  152.1649  145.3462  159.0029 H   0  0  0  0  0  0  0  0  0  0  0  0
  150.9211  144.2847  159.6409 H   0  0  0  0  0  0  0  0  0  0  0  0
  153.2820  141.5500  160.0990 H   0  0  0  0  0  0  0  0  0  0  0  0
  151.5990  141.9971  160.3120 H   0  0  0  0  0  0  0  0  0  0  0  0
  151.8271  140.5752  158.3239 H   0  0  0  0  0  0  0  0  0  0  0  0
  153.0661  141.6129  157.6440 H   0  0  0  0  0  0  0  0  0  0  0  0
  147.8771  141.4285  154.1144 H   0  0  0  0  0  0  0  0  0  0  0  0
  149.4144  141.4431  153.2376 H   0  0  0  0  0  0  0  0  0  0  0  0
  149.2189  142.3924  154.7133 H   0  0  0  0  0  0  0  0  0  0  0  0
  148.9223  136.1264  156.1993 H   0  0  0  0  0  0  0  0  0  0  0  0
  145.5176  139.1518  151.6500 H   0  0  0  0  0  0  0  0  0  0  0  0
  144.8629  136.0449  153.4754 H   0  0  0  0  0  0  0  0  0  0  0  0
  144.4775  136.8984  151.9988 H   0  0  0  0  0  0  0  0  0  0  0  0
  146.6976  135.9099  151.0445 H   0  0  0  0  0  0  0  0  0  0  0  0
  147.7611  134.9347  152.4997 H   0  0  0  0  0  0  0  0  0  0  0  0
  144.6851  135.1033  150.1131 H   0  0  0  0  0  0  0  0  0  0  0  0
  146.2264  133.3932  149.4412 H   0  0  0  0  0  0  0  0  0  0  0  0
  146.3196  132.7223  151.0738 H   0  0  0  0  0  0  0  0  0  0  0  0
  143.9024  132.7215  149.2455 H   0  0  0  0  0  0  0  0  0  0  0  0
  144.6108  131.3327  150.0796 H   0  0  0  0  0  0  0  0  0  0  0  0
  142.5156  132.6724  151.2100 H   0  0  0  0  0  0  0  0  0  0  0  0
  143.8547  132.1370  152.2276 H   0  0  0  0  0  0  0  0  0  0  0  0
  1  2  1  0  0  0  0
  1 29  1  0  0  0  0
  1 30  1  0  0  0  0
  1 31  1  0  0  0  0
  2  3  1  0  0  0  0
  2 10  1  0  0  0  0
  2 32  1  0  0  0  0
  3  4  1  0  0  0  0
  3 33  1  0  0  0  0
  3 34  1  0  0  0  0
  4  9  1  0  0  0  0
  4  5  1  0  0  0  0
  5  6  1  0  0  0  0
  5 35  1  0  0  0  0
  5 36  1  0  0  0  0
  6  7  1  0  0  0  0
  6 37  1  0  0  0  0
  6 38  1  0  0  0  0
  7  8  1  0  0  0  0
  8  9  1  0  0  0  0
  8 39  1  0  0  0  0
  8 40  1  0  0  0  0
  9 41  1  0  0  0  0
  9 42  1  0  0  0  0
 10 11  1  0  0  0  0
 10 12  1  0  0  0  0
 11 43  1  0  0  0  0
 11 44  1  0  0  0  0
 11 45  1  0  0  0  0
 12 17  1  0  0  0  0
 12 13  2  0  0  0  0
 13 14  1  0  0  0  0
 14 15  2  0  0  0  0
 14 46  1  0  0  0  0
 15 16  1  0  0  0  0
 16 20  1  0  0  0  0
 16 17  2  0  0  0  0
 17 18  1  0  0  0  0
 18 19  2  0  0  0  0
 19 20  1  0  0  0  0
 19 47  1  0  0  0  0
 20 21  1  0  0  0  0
 21 22  1  0  0  0  0
 21 48  1  0  0  0  0
 21 49  1  0  0  0  0
 22 23  1  0  0  0  0
 22 24  1  0  0  0  0
 22 50  1  0  0  0  0
 23 51  1  0  0  0  0
 24 28  1  0  0  0  0
 24 25  1  0  0  0  0
 24 52  1  0  0  0  0
 25 26  1  0  0  0  0
 25 53  1  0  0  0  0
 25 54  1  0  0  0  0
 26 27  1  0  0  0  0
 26 55  1  0  0  0  0
 26 56  1  0  0  0  0
 27 28  1  0  0  0  0
 27 57  1  0  0  0  0
 27 58  1  0  0  0  0
M  END
> <s_m_source_file>
AV-unprocessed.smi

> <i_m_source_file_index>
213

> <i_lp_mmshare_version>
43012

> <i_f3d_flags>
0

> <s_epik_input>
W0NIMl0xW0NIMl1PW0NIMl1bQ0gyXU4xW0NIMl1bQ0BASF0oW0NIM10pTihbQ0gzXSljKG5bY0hdbjIpYyhjMjMpbltjSF1uM1tDSDJdW0NASF0oW09IXSlbQ0BASF00W0NIMl1bQ0gyXVtDSDJdTzQ=

> <s_epik_cmdline>
J2VwaWtfcHl0aG9uJywgJy1waCcsICc3LjAnLCAnLXRuJywgJzgnLCAnLW1hJywgJzIwMCcsICctbWV0YWxfYmluZGluZycsICctaW1hZScsICc8aW5maWxlLm1hZT4nLCAnLW9tYWUnLCAnPG91dGZpbGUubWFlPic=

> <r_lp_tautomer_probability>
1

> <r_epik_Ionization_Penalty>
0.423322

> <r_epik_Ionization_Penalty_Charging>
0

> <r_epik_Ionization_Penalty_Neutral>
0.423322

> <r_epik_State_Penalty>
0.569486

> <r_epik_Charging_Adjusted_Penalty>
0.569486

> <i_epik_Tot_Q>
0

> <i_epik_Tot_abs_Q>
0

> <r_epik_Metal_State_Penalty>
0.568671

> <b_epik_Metal_Only>
0

> <s_lp_Force_Field>
OPLS_2005

> <r_lp_Energy>
55.4432

> <b_lp_Chiralities_Consistent>
1

> <s_lp_Variant>
AV-unprocessed.smi:213-16

> <Gold.Version>
5.8.1

> <Gold.Id.Protein>
6NUR|6NUR_protein|mol2

> <Gold.PLP.Fitness>
51.1257

> <Gold.PLP.PLP>
-44.7655

> <Gold.PLP.part.hbond>
-1.0000

> <Gold.PLP.part.metal>
0.0000

> <Gold.PLP.part.buried>
-2.5589

> <Gold.PLP.part.nonpolar>
-42.0865

> <Gold.PLP.part.repulsive>
0.7895

> <Gold.PLP.ligand.clash>
0.0000

> <Gold.PLP.ligand.torsion>
1.1310

> <Gold.PLP.Chemscore.Hbond>
1.0000

> <Gold.PLP.Chemscore.CHOScore>
1.6718

> <Gold.PLP.Chemscore.Metal>
0.0000

> <Gold.Chemscore.Hbonds>
donor molecule, donor type, donor heavy atom, donor atom, acceptor molecule, acceptor atom, score
      L1  H    23    51       P1  7948  0.99
      L1  C    19    47       P1 10171  1.00
      L1  C    19    47       P1 10175  0.67

> <Gold.PLP.Chemscore.Internal.Correction>
0.6068

> <Gold.Rescore>
     Score         DG    S(hbond)    S(metal)    S(lipo)     H(rot)  DE(clash)    DE(int)     intcor
     10.66     -15.42       0.95        0.00     117.64       2.74       1.22       3.54       ----

> <Gold.Chemscore.Fitness>
10.6569

> <Gold.Chemscore.DG>
-15.4218

> <Gold.Chemscore.ZeroCoef>
-5.4800

> <Gold.Chemscore.Hbond>
0.9542

> <Gold.Chemscore.Metal>
0.0000

> <Gold.Chemscore.Lipo>
117.6365

> <Gold.Chemscore.Internal_Hbond>
0.0000

> <Gold.Chemscore.DEClash>
1.2203

> <Gold.Chemscore.DEInternal>
3.5446

> <Gold.Chemscore.Rot>
2.7378

> <Gold.Chemscore.Internal.Correction>
   9.000000E+99

> <Gold.Chemscore.Hbonds>
donor molecule, donor type, donor heavy atom, donor atom, acceptor molecule, acceptor atom, score
      L1  H    23    51       P1  7948  0.88

> <Gold.Chemscore.Hbond.Weighted>
-3.1870

> <Gold.Chemscore.Metal.Weighted>
-0.0000

> <Gold.Chemscore.Lipo.Weighted>
-13.7635

> <Gold.Chemscore.Internal_Hbond.Weighted>
0.0000

> <Gold.Chemscore.DEClash.Weighted>
1.2203

> <Gold.Chemscore.DEInternal.Weighted>
3.5446

> <Gold.Chemscore.Rot.Weighted>
7.0087

> <Gold.Chemscore.Internal.Correction.Weighted>
   9.000000E+99

> <Gold.Protein.RotatedTorsions>
[ 6907 6896 6895 6894 ] final   68.16 input  -60.11 | X-H torsion
[ 7974 7965 7964 7962 ] final  129.57 input  175.53 | X-H torsion
[ 8008 7997 7996 7995 ] final -153.16 input   59.86 | X-H torsion
[ 10167 10162 10161 10158 ] final  104.83 input  -65.29 | X-H torsion
[ 10718 10713 10712 10709 ] final -175.42 input   66.30 | X-H torsion
[ 10763 10752 10751 10750 ] final    1.90 input  -60.55 | X-H torsion
[ 11005 11000 10999 10996 ] final   60.44 input  -57.11 | X-H torsion

> <Gold.Protein.ActiveResidues>
 VAL166  LYS551  ARG553  GLY616  TRP617  ASP618  TYR619  PRO620  LYS621  CYS622 
 ASP623  PHE694  ASN695  SER759  ASP760  ASP761  ALA762  ILE779  LEU786  VAL792 
 PHE793  MET794  SER795  GLU796  ALA797  LYS798  CYS799  TRP800  GLU811  SER814 

> <Gold.Protein.RotatedAtoms>
  152.4602  134.5202  159.9779 H   0  0  0  0  0  0  0  0  0  0  0  0  # atno 6907 bound_to 6896
  151.5253  133.3453  159.2916 H   0  0  0  0  0  0  0  0  0  0  0  0  # atno 6908 bound_to 6896
  150.8561  134.7930  159.7109 H   0  0  0  0  0  0  0  0  0  0  0  0  # atno 6909 bound_to 6896
  145.0272  139.4078  143.5168 H   0  0  0  0  0  0  0  0  0  0  0  0  # atno 7974 bound_to 7965
  155.6665  140.0728  157.2535 H   0  0  0  0  0  0  0  0  0  0  0  0  # atno 8008 bound_to 7997
  154.4132  140.1707  156.1883 H   0  0  0  0  0  0  0  0  0  0  0  0  # atno 8009 bound_to 7997
  155.9653  140.3366  155.6530 H   0  0  0  0  0  0  0  0  0  0  0  0  # atno 8010 bound_to 7997
  139.7143  144.7071  151.0975 H   0  0  0  0  0  0  0  0  0  0  0  0  # atno 10167 bound_to 10162
  156.7996  130.9547  151.3119 H   0  0  0  0  0  0  0  0  0  0  0  0  # atno 10718 bound_to 10713
  153.3022  135.6957  153.7192 H   0  0  0  0  0  0  0  0  0  0  0  0  # atno 10763 bound_to 10752
  153.6102  135.3446  155.2976 H   0  0  0  0  0  0  0  0  0  0  0  0  # atno 10764 bound_to 10752
  154.8554  135.4361  154.2137 H   0  0  0  0  0  0  0  0  0  0  0  0  # atno 10765 bound_to 10752
  140.0231  134.6122  155.9610 H   0  0  0  0  0  0  0  0  0  0  0  0  # atno 11005 bound_to 11000
  146.3494  139.9802  142.8696 LP  0  0  0  0  0  0  0  0  0  0  0  0  # atno 17320 bound_to 7965
  145.1818  140.9770  143.4262 LP  0  0  0  0  0  0  0  0  0  0  0  0  # atno 17321 bound_to 7965
  140.7740  143.5250  150.9491 LP  0  0  0  0  0  0  0  0  0  0  0  0  # atno 17342 bound_to 10162
  139.8936  143.6923  152.3142 LP  0  0  0  0  0  0  0  0  0  0  0  0  # atno 17343 bound_to 10162
  157.6560  130.8925  149.9730 LP  0  0  0  0  0  0  0  0  0  0  0  0  # atno 17370 bound_to 10713
  156.1109  130.3650  150.0050 LP  0  0  0  0  0  0  0  0  0  0  0  0  # atno 17371 bound_to 10713
  141.1786  133.6543  156.4929 LP  0  0  0  0  0  0  0  0  0  0  0  0  # atno 17394 bound_to 11000
  140.4352  134.7065  157.4963 LP  0  0  0  0  0  0  0  0  0  0  0  0  # atno 17395 bound_to 11000

$$$$
