AV-unprocessed.smi:99|AV-procd|sdf|892|dock3
  -GOLD-   2262017383D 1   1.00000     0.00000
 Structure written by MMmdl.
 52 55  0  0  0  0  0  0  0  0  2 V2000
  148.4059  130.0261  154.1222 O   0  0  0  0  0  0  0  0  0  0  0  0
  148.0220  131.1475  153.7838 C   0  0  0  0  0  0  0  0  0  0  0  0
  148.4878  132.2895  154.3238 O   0  0  0  0  0  0  0  0  0  0  0  0
  149.3987  132.2440  155.4115 C   0  0  0  0  0  0  0  0  0  0  0  0
  149.4416  133.6019  156.1257 C   0  0  1  0  0  0  0  0  0  0  0  0
  150.3449  134.4626  155.4446 O   0  0  0  0  0  0  0  0  0  0  0  0
  149.7022  135.5995  154.9586 C   0  0  2  0  0  0  0  0  0  0  0  0
  150.4609  136.8172  155.4482 N   0  0  0  0  0  0  0  0  0  0  0  0
  150.9761  137.6997  154.5150 C   0  0  0  0  0  0  0  0  0  0  0  0
  151.6859  138.7854  154.8855 C   0  0  0  0  0  0  0  0  0  0  0  0
  151.9268  139.0338  156.3034 C   0  0  0  0  0  0  0  0  0  0  0  0
  152.5603  140.0342  156.6342 O   0  0  0  0  0  0  0  0  0  0  0  0
  151.4352  138.1355  157.2042 N   0  5  0  0  0  0  0  0  0  0  0  0
  150.7248  137.0308  156.8320 C   0  0  0  0  0  0  0  0  0  0  0  0
  150.3040  136.2084  157.6432 O   0  0  0  0  0  0  0  0  0  0  0  0
  148.2299  135.5912  155.4118 C   0  0  1  0  0  0  0  0  0  0  0  0
  147.3394  135.5610  154.3152 O   0  0  0  0  0  0  0  0  0  0  0  0
  148.0779  134.3003  156.2141 C   0  0  2  0  0  0  0  0  0  0  0  0
  147.7672  134.5796  157.5739 O   0  0  0  0  0  0  0  0  0  0  0  0
  147.7244  133.5944  158.4944 C   0  0  0  0  0  0  0  0  0  0  0  0
  147.8565  132.3989  158.2236 O   0  0  0  0  0  0  0  0  0  0  0  0
  147.4973  134.1062  159.8761 C   0  0  0  0  0  0  0  0  0  0  0  0
  147.2784  133.1878  160.9293 C   0  0  0  0  0  0  0  0  0  0  0  0
  147.0592  133.6433  162.2440 C   0  0  0  0  0  0  0  0  0  0  0  0
  147.0535  135.0229  162.5208 C   0  0  0  0  0  0  0  0  0  0  0  0
  147.2673  135.9466  161.4811 C   0  0  0  0  0  0  0  0  0  0  0  0
  147.4882  135.4931  160.1661 C   0  0  0  0  0  0  0  0  0  0  0  0
  146.9879  131.3819  152.7351 C   0  0  0  0  0  0  0  0  0  0  0  0
  146.8425  132.6754  152.1817 C   0  0  0  0  0  0  0  0  0  0  0  0
  145.8762  132.9261  151.1880 C   0  0  0  0  0  0  0  0  0  0  0  0
  145.0419  131.8870  150.7377 C   0  0  0  0  0  0  0  0  0  0  0  0
  145.1755  130.5961  151.2816 C   0  0  0  0  0  0  0  0  0  0  0  0
  146.1422  130.3431  152.2741 C   0  0  0  0  0  0  0  0  0  0  0  0
  149.0875  131.4721  156.1173 H   0  0  0  0  0  0  0  0  0  0  0  0
  150.3922  131.9751  155.0506 H   0  0  0  0  0  0  0  0  0  0  0  0
  149.8475  133.4433  157.1258 H   0  0  0  0  0  0  0  0  0  0  0  0
  149.7993  135.6101  153.8720 H   0  0  0  0  0  0  0  0  0  0  0  0
  150.8082  137.5261  153.4624 H   0  0  0  0  0  0  0  0  0  0  0  0
  152.0760  139.4636  154.1409 H   0  0  0  0  0  0  0  0  0  0  0  0
  148.0045  136.4780  156.0057 H   0  0  0  0  0  0  0  0  0  0  0  0
  147.8337  135.7273  153.5269 H   0  0  0  0  0  0  0  0  0  0  0  0
  147.3059  133.6557  155.7894 H   0  0  0  0  0  0  0  0  0  0  0  0
  147.2773  132.1239  160.7403 H   0  0  0  0  0  0  0  0  0  0  0  0
  146.8943  132.9327  163.0406 H   0  0  0  0  0  0  0  0  0  0  0  0
  146.8840  135.3721  163.5287 H   0  0  0  0  0  0  0  0  0  0  0  0
  147.2602  137.0062  161.6904 H   0  0  0  0  0  0  0  0  0  0  0  0
  147.6443  136.2293  159.3906 H   0  0  0  0  0  0  0  0  0  0  0  0
  147.4716  133.4894  152.5119 H   0  0  0  0  0  0  0  0  0  0  0  0
  145.7761  133.9174  150.7710 H   0  0  0  0  0  0  0  0  0  0  0  0
  144.3007  132.0799  149.9760 H   0  0  0  0  0  0  0  0  0  0  0  0
  144.5360  129.7971  150.9368 H   0  0  0  0  0  0  0  0  0  0  0  0
  146.2174  129.3415  152.6716 H   0  0  0  0  0  0  0  0  0  0  0  0
  1  2  2  0  0  0  0
  2  3  1  0  0  0  0
  2 28  1  0  0  0  0
  3  4  1  0  0  0  0
  4  5  1  0  0  0  0
  4 34  1  0  0  0  0
  4 35  1  0  0  0  0
  5 18  1  0  0  0  0
  5  6  1  0  0  0  0
  5 36  1  0  0  0  0
  6  7  1  0  0  0  0
  7  8  1  0  0  0  0
  7 16  1  0  0  0  0
  7 37  1  0  0  0  0
  8 14  1  0  0  0  0
  8  9  1  0  0  0  0
  9 10  2  0  0  0  0
  9 38  1  0  0  0  0
 10 11  1  0  0  0  0
 10 39  1  0  0  0  0
 11 12  2  0  0  0  0
 11 13  1  0  0  0  0
 13 14  1  0  0  0  0
 14 15  2  0  0  0  0
 16 17  1  0  0  0  0
 16 18  1  0  0  0  0
 16 40  1  0  0  0  0
 17 41  1  0  0  0  0
 18 19  1  0  0  0  0
 18 42  1  0  0  0  0
 19 20  1  0  0  0  0
 20 21  2  0  0  0  0
 20 22  1  0  0  0  0
 22 27  1  0  0  0  0
 22 23  2  0  0  0  0
 23 24  1  0  0  0  0
 23 43  1  0  0  0  0
 24 25  2  0  0  0  0
 24 44  1  0  0  0  0
 25 26  1  0  0  0  0
 25 45  1  0  0  0  0
 26 27  2  0  0  0  0
 26 46  1  0  0  0  0
 27 47  1  0  0  0  0
 28 33  1  0  0  0  0
 28 29  2  0  0  0  0
 29 30  1  0  0  0  0
 29 48  1  0  0  0  0
 30 31  2  0  0  0  0
 30 49  1  0  0  0  0
 31 32  1  0  0  0  0
 31 50  1  0  0  0  0
 32 33  2  0  0  0  0
 32 51  1  0  0  0  0
 33 52  1  0  0  0  0
M  CHG  1  13  -1
M  END
> <s_m_source_file>
AV-unprocessed.smi

> <i_m_source_file_index>
99

> <i_lp_mmshare_version>
43012

> <i_f3d_flags>
0

> <s_epik_input>
W2NIXTFbY0hdW2NIXVtjSF1bY0hdYzFDKD1PKU9bQ0gyXVtDQEBIXTJPW0NAQEhdKG4zW2NIXVtjSF1jKD1PKVtuSF1jMz1PKVtDQEBIXShbT0hdKVtDQEhdMk9DKD1PKWM0W2NIXVtjSF1bY0hdW2NIXVtjSF00

> <s_epik_cmdline>
J2VwaWtfcHl0aG9uJywgJy1waCcsICc3LjAnLCAnLXRuJywgJzgnLCAnLW1hJywgJzIwMCcsICctbWV0YWxfYmluZGluZycsICctaW1hZScsICc8aW5maWxlLm1hZT4nLCAnLW9tYWUnLCAnPG91dGZpbGUubWFlPic=

> <r_lp_tautomer_probability>
1

> <r_epik_Ionization_Penalty>
2.89159

> <r_epik_Ionization_Penalty_Charging>
2.1077e-08

> <r_epik_Ionization_Penalty_Neutral>
2.89159

> <r_epik_State_Penalty>
2.88671

> <r_epik_Charging_Adjusted_Penalty>
2.88671

> <i_epik_Tot_Q>
-1

> <i_epik_Tot_abs_Q>
1

> <r_epik_Metal_State_Penalty>
0.0727308

> <b_epik_Metal_Only>
1

> <s_epik_Chemistry_Notes>
This compound has an ester and may undergo hydrolysis at high or low pH. This compound contains an acetal/aminal-like group ( X-CH(R)-Y where X, Y are N, S, or O) that may be acid/base labile, releasing an aldehyde.

> <s_lp_Force_Field>
OPLS_2005

> <r_lp_Energy>
36.8261

> <b_lp_Chiralities_Consistent>
1

> <s_lp_Variant>
AV-unprocessed.smi:99-28

> <Gold.Version>
5.8.1

> <Gold.Id.Protein>
6NUR|6NUR_protein|mol2

> <Gold.PLP.Fitness>
58.3923

> <Gold.PLP.PLP>
-49.8699

> <Gold.PLP.part.hbond>
-2.2376

> <Gold.PLP.part.metal>
0.0000

> <Gold.PLP.part.buried>
-4.9227

> <Gold.PLP.part.nonpolar>
-42.7945

> <Gold.PLP.part.repulsive>
0.1836

> <Gold.PLP.ligand.clash>
0.0000

> <Gold.PLP.ligand.torsion>
0.5496

> <Gold.PLP.Chemscore.Hbond>
2.0000

> <Gold.PLP.Chemscore.CHOScore>
1.1264

> <Gold.PLP.Chemscore.Metal>
0.0000

> <Gold.Chemscore.Hbonds>
donor molecule, donor type, donor heavy atom, donor atom, acceptor molecule, acceptor atom, score
      L1  H    17    41       P1  7948  0.93
      P1  H  7997  8010       L1    12  1.00
      L1  C     9    38       P1  7948  0.24
      L1  C     9    38       P1  7949  0.87

> <Gold.PLP.Chemscore.Internal.Correction>
0.2424

> <Gold.Rescore>
     Score         DG    S(hbond)    S(metal)    S(lipo)     H(rot)  DE(clash)    DE(int)     intcor
     14.90     -19.17       2.41        0.00     116.94       3.13       0.22       4.05       ----

> <Gold.Chemscore.Fitness>
14.9013

> <Gold.Chemscore.DG>
-19.1740

> <Gold.Chemscore.ZeroCoef>
-5.4800

> <Gold.Chemscore.Hbond>
2.4061

> <Gold.Chemscore.Metal>
0.0000

> <Gold.Chemscore.Lipo>
116.9405

> <Gold.Chemscore.Internal_Hbond>
0.0000

> <Gold.Chemscore.DEClash>
0.2247

> <Gold.Chemscore.DEInternal>
4.0479

> <Gold.Chemscore.Rot>
3.1346

> <Gold.Chemscore.Internal.Correction>
   9.000000E+99

> <Gold.Chemscore.Hbonds>
donor molecule, donor type, donor heavy atom, donor atom, acceptor molecule, acceptor atom, score
      L1  H    17    41       P1  7948  0.89
      P1  H  7997  8010       L1    12  0.92

> <Gold.Chemscore.Hbond.Weighted>
-8.0365

> <Gold.Chemscore.Metal.Weighted>
-0.0000

> <Gold.Chemscore.Lipo.Weighted>
-13.6820

> <Gold.Chemscore.Internal_Hbond.Weighted>
0.0000

> <Gold.Chemscore.DEClash.Weighted>
0.2247

> <Gold.Chemscore.DEInternal.Weighted>
4.0479

> <Gold.Chemscore.Rot.Weighted>
8.0246

> <Gold.Chemscore.Internal.Correction.Weighted>
   9.000000E+99

> <Gold.Protein.RotatedTorsions>
[ 6907 6896 6895 6894 ] final  -81.47 input  -60.11 | X-H torsion
[ 7974 7965 7964 7962 ] final -171.45 input  175.53 | X-H torsion
[ 8008 7997 7996 7995 ] final   85.12 input   59.86 | X-H torsion
[ 10167 10162 10161 10158 ] final   45.96 input  -65.29 | X-H torsion
[ 10718 10713 10712 10709 ] final  -40.22 input   66.30 | X-H torsion
[ 10763 10752 10751 10750 ] final  128.65 input  -60.55 | X-H torsion
[ 11005 11000 10999 10996 ] final -144.46 input  -57.11 | X-H torsion

> <Gold.Protein.ActiveResidues>
 VAL166  LYS551  ARG553  GLY616  TRP617  ASP618  TYR619  PRO620  LYS621  CYS622 
 ASP623  PHE694  ASN695  SER759  ASP760  ASP761  ALA762  ILE779  LEU786  VAL792 
 PHE793  MET794  SER795  GLU796  ALA797  LYS798  CYS799  TRP800  GLU811  SER814 

> <Gold.Protein.RotatedAtoms>
  150.6911  134.3813  159.5034 H   0  0  0  0  0  0  0  0  0  0  0  0  # atno 6907 bound_to 6896
  152.1615  134.8906  160.0550 H   0  0  0  0  0  0  0  0  0  0  0  0  # atno 6908 bound_to 6896
  151.9966  133.3775  159.4202 H   0  0  0  0  0  0  0  0  0  0  0  0  # atno 6909 bound_to 6896
  144.7157  140.1920  143.6347 H   0  0  0  0  0  0  0  0  0  0  0  0  # atno 7974 bound_to 7965
  155.9459  140.3404  155.6366 H   0  0  0  0  0  0  0  0  0  0  0  0  # atno 8008 bound_to 7997
  155.6981  140.0757  157.2439 H   0  0  0  0  0  0  0  0  0  0  0  0  # atno 8009 bound_to 7997
  154.4112  140.1645  156.2148 H   0  0  0  0  0  0  0  0  0  0  0  0  # atno 8010 bound_to 7997
  140.3188  144.2731  150.6186 H   0  0  0  0  0  0  0  0  0  0  0  0  # atno 10167 bound_to 10162
  156.2837  130.4220  149.8310 H   0  0  0  0  0  0  0  0  0  0  0  0  # atno 10718 bound_to 10713
  153.7291  135.3241  155.3282 H   0  0  0  0  0  0  0  0  0  0  0  0  # atno 10763 bound_to 10752
  154.8332  135.4517  154.1140 H   0  0  0  0  0  0  0  0  0  0  0  0  # atno 10764 bound_to 10752
  153.2282  135.6956  153.8001 H   0  0  0  0  0  0  0  0  0  0  0  0  # atno 10765 bound_to 10752
  140.8022  134.2843  157.4974 H   0  0  0  0  0  0  0  0  0  0  0  0  # atno 11005 bound_to 11000
  145.8759  139.2297  143.1633 LP  0  0  0  0  0  0  0  0  0  0  0  0  # atno 17320 bound_to 7965
  146.0041  140.8494  143.0004 LP  0  0  0  0  0  0  0  0  0  0  0  0  # atno 17321 bound_to 7965
  140.5502  143.2208  151.7940 LP  0  0  0  0  0  0  0  0  0  0  0  0  # atno 17342 bound_to 10162
  139.4878  144.4486  151.9680 LP  0  0  0  0  0  0  0  0  0  0  0  0  # atno 17343 bound_to 10162
  156.5748  130.8440  151.3366 LP  0  0  0  0  0  0  0  0  0  0  0  0  # atno 17370 bound_to 10713
  157.7322  130.9712  150.1917 LP  0  0  0  0  0  0  0  0  0  0  0  0  # atno 17371 bound_to 10713
  139.8720  134.9436  156.3858 LP  0  0  0  0  0  0  0  0  0  0  0  0  # atno 17394 bound_to 11000
  140.9283  133.7597  155.9992 LP  0  0  0  0  0  0  0  0  0  0  0  0  # atno 17395 bound_to 11000

$$$$
