AV-unprocessed.smi:1005|AV-procd|sdf|4374|dock5
  -GOLD-   22720 2283D 1   1.00000     0.00000
 Structure written by MMmdl.
 57 59  0  0  0  0  0  0  0  0  3 V2000
  152.7790  142.3524  160.6220 C   0  0  0  0  0  0  0  0  0  0  0  0
  152.2719  141.7891  159.3052 C   0  0  0  0  0  0  0  0  0  0  0  0
  151.4678  142.6124  158.4844 C   0  0  0  0  0  0  0  0  0  0  0  0
  151.0203  142.0692  157.2859 C   0  0  0  0  0  0  0  0  0  0  0  0
  150.2278  142.6129  156.2723 N   0  3  0  0  0  0  0  0  0  0  0  0
  150.0567  141.6904  155.2847 C   0  0  0  0  0  0  0  0  0  0  0  0
  150.7280  140.5661  155.6544 N   0  0  0  0  0  0  0  0  0  0  0  0
  150.8778  139.2815  154.9588 C   0  0  0  0  0  0  0  0  0  0  0  0
  149.5750  138.4594  154.9432 C   0  0  2  0  0  0  0  0  0  0  0  0
  149.8666  137.1480  154.5012 O   0  0  0  0  0  0  0  0  0  0  0  0
  148.5261  139.0785  153.9982 C   0  0  0  0  0  0  0  0  0  0  0  0
  147.8364  140.2651  154.5092 N   0  0  0  0  0  0  0  0  0  0  0  0
  147.6333  141.2868  153.4838 C   0  0  0  0  0  0  0  0  0  0  0  0
  146.8707  142.5039  154.0318 C   0  0  0  0  0  0  0  0  0  0  0  0
  145.6357  142.0778  154.5976 O   0  0  0  0  0  0  0  0  0  0  0  0
  145.7971  141.1338  155.6533 C   0  0  1  0  0  0  0  0  0  0  0  0
  144.3928  140.7938  156.1971 C   0  0  0  0  0  0  0  0  0  0  0  0
  143.5215  140.1051  155.2097 N   0  3  0  0  0  0  0  0  0  0  0  0
  142.0767  140.3636  155.4042 C   0  0  0  0  0  0  0  0  0  0  0  0
  143.8091  138.6550  155.1390 C   0  0  0  0  0  0  0  0  0  0  0  0
  146.5412  139.9075  155.0775 C   0  0  0  0  0  0  0  0  0  0  0  0
  151.3448  140.7561  156.8947 C   0  0  0  0  0  0  0  0  0  0  0  0
  152.1359  139.9314  157.6904 C   0  0  0  0  0  0  0  0  0  0  0  0
  152.6025  140.4659  158.9124 C   0  0  0  0  0  0  0  0  0  0  0  0
  153.4693  139.5904  159.8013 C   0  0  0  0  0  0  0  0  0  0  0  0
  152.4168  143.3676  160.7875 H   0  0  0  0  0  0  0  0  0  0  0  0
  153.8687  142.3824  160.6306 H   0  0  0  0  0  0  0  0  0  0  0  0
  152.4422  141.7388  161.4578 H   0  0  0  0  0  0  0  0  0  0  0  0
  151.2135  143.6209  158.7761 H   0  0  0  0  0  0  0  0  0  0  0  0
  149.4949  141.8271  154.3716 H   0  0  0  0  0  0  0  0  0  0  0  0
  151.2283  139.4793  153.9452 H   0  0  0  0  0  0  0  0  0  0  0  0
  151.6741  138.7273  155.4582 H   0  0  0  0  0  0  0  0  0  0  0  0
  149.1912  138.4022  155.9607 H   0  0  0  0  0  0  0  0  0  0  0  0
  149.6667  137.0929  153.5788 H   0  0  0  0  0  0  0  0  0  0  0  0
  149.0042  139.3287  153.0498 H   0  0  0  0  0  0  0  0  0  0  0  0
  147.7906  138.3077  153.7617 H   0  0  0  0  0  0  0  0  0  0  0  0
  148.5882  141.6307  153.0892 H   0  0  0  0  0  0  0  0  0  0  0  0
  147.0804  140.8641  152.6435 H   0  0  0  0  0  0  0  0  0  0  0  0
  147.4642  143.0253  154.7844 H   0  0  0  0  0  0  0  0  0  0  0  0
  146.6691  143.2170  153.2323 H   0  0  0  0  0  0  0  0  0  0  0  0
  146.3915  141.6054  156.4385 H   0  0  0  0  0  0  0  0  0  0  0  0
  144.5159  140.1130  157.0411 H   0  0  0  0  0  0  0  0  0  0  0  0
  143.8978  141.6795  156.5988 H   0  0  0  0  0  0  0  0  0  0  0  0
  141.7598  140.0892  156.4112 H   0  0  0  0  0  0  0  0  0  0  0  0
  141.4826  139.7890  154.6927 H   0  0  0  0  0  0  0  0  0  0  0  0
  141.8406  141.4137  155.2370 H   0  0  0  0  0  0  0  0  0  0  0  0
  143.5900  138.1668  156.0896 H   0  0  0  0  0  0  0  0  0  0  0  0
  144.8577  138.4781  154.8969 H   0  0  0  0  0  0  0  0  0  0  0  0
  143.2096  138.1776  154.3631 H   0  0  0  0  0  0  0  0  0  0  0  0
  145.9229  139.4374  154.3109 H   0  0  0  0  0  0  0  0  0  0  0  0
  146.6823  139.1585  155.8552 H   0  0  0  0  0  0  0  0  0  0  0  0
  152.3870  138.9248  157.3898 H   0  0  0  0  0  0  0  0  0  0  0  0
  153.6667  138.6229  159.3387 H   0  0  0  0  0  0  0  0  0  0  0  0
  152.9759  139.4091  160.7562 H   0  0  0  0  0  0  0  0  0  0  0  0
  154.4302  140.0684  159.9923 H   0  0  0  0  0  0  0  0  0  0  0  0
  143.7616  140.4797  154.3028 H   0  0  0  0  0  0  0  0  0  0  0  0
  149.8339  143.5447  156.2512 H   0  0  0  0  0  0  0  0  0  0  0  0
  1  2  1  0  0  0  0
  1 26  1  0  0  0  0
  1 27  1  0  0  0  0
  1 28  1  0  0  0  0
  2 24  1  0  0  0  0
  2  3  2  0  0  0  0
  3  4  1  0  0  0  0
  3 29  1  0  0  0  0
  4 22  2  0  0  0  0
  4  5  1  0  0  0  0
  5  6  2  0  0  0  0
  5 57  1  0  0  0  0
  6  7  1  0  0  0  0
  6 30  1  0  0  0  0
  7  8  1  0  0  0  0
  7 22  1  0  0  0  0
  8  9  1  0  0  0  0
  8 31  1  0  0  0  0
  8 32  1  0  0  0  0
  9 10  1  0  0  0  0
  9 11  1  0  0  0  0
  9 33  1  0  0  0  0
 10 34  1  0  0  0  0
 11 12  1  0  0  0  0
 11 35  1  0  0  0  0
 11 36  1  0  0  0  0
 12 21  1  0  0  0  0
 12 13  1  0  0  0  0
 13 14  1  0  0  0  0
 13 37  1  0  0  0  0
 13 38  1  0  0  0  0
 14 15  1  0  0  0  0
 14 39  1  0  0  0  0
 14 40  1  0  0  0  0
 15 16  1  0  0  0  0
 16 17  1  0  0  0  0
 16 21  1  0  0  0  0
 16 41  1  0  0  0  0
 17 18  1  0  0  0  0
 17 42  1  0  0  0  0
 17 43  1  0  0  0  0
 18 19  1  0  0  0  0
 18 20  1  0  0  0  0
 18 56  1  0  0  0  0
 19 44  1  0  0  0  0
 19 45  1  0  0  0  0
 19 46  1  0  0  0  0
 20 47  1  0  0  0  0
 20 48  1  0  0  0  0
 20 49  1  0  0  0  0
 21 50  1  0  0  0  0
 21 51  1  0  0  0  0
 22 23  1  0  0  0  0
 23 24  2  0  0  0  0
 23 52  1  0  0  0  0
 24 25  1  0  0  0  0
 25 53  1  0  0  0  0
 25 54  1  0  0  0  0
 25 55  1  0  0  0  0
M  CHG  1   5   1
M  CHG  1  18   1
M  END
> <s_m_source_file>
AV-unprocessed.smi

> <i_m_source_file_index>
1005

> <i_lp_mmshare_version>
43012

> <i_f3d_flags>
0

> <s_epik_input>
W0NIM11jKFtjSF0xKWMoW0NIM10pW2NIXWMoYzEyKW4oW2NIXW4yKVtDSDJdW0NASF0oW09IXSlbQ0gyXU4zW0NIMl1bQ0gyXU9bQ0BIXShbQ0gyXTMpW0NIMl1OKFtDSDNdKVtDSDNd

> <s_epik_cmdline>
J2VwaWtfcHl0aG9uJywgJy1waCcsICc3LjAnLCAnLXRuJywgJzgnLCAnLW1hJywgJzIwMCcsICctbWV0YWxfYmluZGluZycsICctaW1hZScsICc8aW5maWxlLm1hZT4nLCAnLW9tYWUnLCAnPG91dGZpbGUubWFlPic=

> <r_epik_Ionization_Penalty>
1.3281

> <r_epik_Ionization_Penalty_Charging>
1.21988

> <r_epik_Ionization_Penalty_Neutral>
0.10822

> <r_epik_State_Penalty>
1.32886

> <r_epik_Charging_Adjusted_Penalty>
2.54875

> <i_epik_Tot_Q>
2

> <i_epik_Tot_abs_Q>
2

> <r_epik_Metal_State_Penalty>
5.33912

> <b_epik_Metal_Only>
0

> <s_lp_Force_Field>
OPLS_2005

> <r_lp_Energy>
44.7977

> <b_lp_Chiralities_Consistent>
1

> <s_lp_Variant>
AV-unprocessed.smi:1005-13

> <Gold.Version>
5.8.1

> <Gold.Id.Protein>
6NUR|6NUR_protein|mol2

> <Gold.PLP.Fitness>
54.1562

> <Gold.PLP.PLP>
-41.4056

> <Gold.PLP.part.hbond>
-3.0000

> <Gold.PLP.part.metal>
0.0000

> <Gold.PLP.part.buried>
-4.4197

> <Gold.PLP.part.nonpolar>
-33.6170

> <Gold.PLP.part.repulsive>
0.3697

> <Gold.PLP.ligand.clash>
0.0016

> <Gold.PLP.ligand.torsion>
1.1452

> <Gold.PLP.Chemscore.Hbond>
5.0000

> <Gold.PLP.Chemscore.CHOScore>
0.0000

> <Gold.PLP.Chemscore.Metal>
0.0000

> <Gold.Chemscore.Hbonds>
donor molecule, donor type, donor heavy atom, donor atom, acceptor molecule, acceptor atom, score
      L1  H     5    57       P1  8028  2.00
      L1  H    10    34       P1  7948  1.00
      L1  H    18    56       P1 10175  2.00

> <Gold.PLP.Chemscore.Internal.Correction>
0.0427

> <Gold.Rescore>
     Score         DG    S(hbond)    S(metal)    S(lipo)     H(rot)  DE(clash)    DE(int)     intcor
     17.52     -20.30       2.81        0.00     100.84       2.49       0.05       2.72       ----

> <Gold.Chemscore.Fitness>
17.5230

> <Gold.Chemscore.DG>
-20.3020

> <Gold.Chemscore.ZeroCoef>
-5.4800

> <Gold.Chemscore.Hbond>
2.8134

> <Gold.Chemscore.Metal>
0.0000

> <Gold.Chemscore.Lipo>
100.8450

> <Gold.Chemscore.Internal_Hbond>
0.0000

> <Gold.Chemscore.DEClash>
0.0543

> <Gold.Chemscore.DEInternal>
2.7246

> <Gold.Chemscore.Rot>
2.4897

> <Gold.Chemscore.Internal.Correction>
   9.000000E+99

> <Gold.Chemscore.Hbonds>
donor molecule, donor type, donor heavy atom, donor atom, acceptor molecule, acceptor atom, score
      L1  H     5    57       P1  8028  0.97
      L1  H    10    34       P1  7948  0.69
      L1  H    18    56       P1 10175  0.96

> <Gold.Chemscore.Hbond.Weighted>
-9.3968

> <Gold.Chemscore.Metal.Weighted>
-0.0000

> <Gold.Chemscore.Lipo.Weighted>
-11.7989

> <Gold.Chemscore.Internal_Hbond.Weighted>
0.0000

> <Gold.Chemscore.DEClash.Weighted>
0.0543

> <Gold.Chemscore.DEInternal.Weighted>
2.7246

> <Gold.Chemscore.Rot.Weighted>
6.3737

> <Gold.Chemscore.Internal.Correction.Weighted>
   9.000000E+99

> <Gold.Protein.RotatedTorsions>
[ 6907 6896 6895 6894 ] final   48.61 input  -60.11 | X-H torsion
[ 7974 7965 7964 7962 ] final  -39.63 input  175.53 | X-H torsion
[ 8008 7997 7996 7995 ] final  -76.55 input   59.86 | X-H torsion
[ 10167 10162 10161 10158 ] final   59.61 input  -65.29 | X-H torsion
[ 10718 10713 10712 10709 ] final  154.91 input   66.30 | X-H torsion
[ 10763 10752 10751 10750 ] final   61.80 input  -60.55 | X-H torsion
[ 11005 11000 10999 10996 ] final -133.73 input  -57.11 | X-H torsion

> <Gold.Protein.ActiveResidues>
 VAL166  LYS551  ARG553  GLY616  TRP617  ASP618  TYR619  PRO620  LYS621  CYS622 
 ASP623  PHE694  ASN695  SER759  ASP760  ASP761  ALA762  ILE779  LEU786  VAL792 
 PHE793  MET794  SER795  GLU796  ALA797  LYS798  CYS799  TRP800  GLU811  SER814 

> <Gold.Protein.RotatedAtoms>
  152.2814  134.7824  160.0395 H   0  0  0  0  0  0  0  0  0  0  0  0  # atno 6907 bound_to 6896
  151.8402  133.3417  159.3649 H   0  0  0  0  0  0  0  0  0  0  0  0  # atno 6908 bound_to 6896
  150.7191  134.5327  159.5752 H   0  0  0  0  0  0  0  0  0  0  0  0  # atno 6909 bound_to 6896
  146.0379  140.6647  142.9101 H   0  0  0  0  0  0  0  0  0  0  0  0  # atno 7974 bound_to 7965
  154.5516  140.0725  156.8676 H   0  0  0  0  0  0  0  0  0  0  0  0  # atno 8008 bound_to 7997
  155.2983  140.3382  155.4231 H   0  0  0  0  0  0  0  0  0  0  0  0  # atno 8009 bound_to 7997
  156.1966  140.1706  156.7972 H   0  0  0  0  0  0  0  0  0  0  0  0  # atno 8010 bound_to 7997
  140.1746  144.4243  150.6645 H   0  0  0  0  0  0  0  0  0  0  0  0  # atno 10167 bound_to 10162
  157.2253  131.0727  151.1887 H   0  0  0  0  0  0  0  0  0  0  0  0  # atno 10718 bound_to 10713
  152.9962  135.5487  154.6092 H   0  0  0  0  0  0  0  0  0  0  0  0  # atno 10763 bound_to 10752
  154.5416  135.2820  155.1092 H   0  0  0  0  0  0  0  0  0  0  0  0  # atno 10764 bound_to 10752
  154.2367  135.6424  153.5246 H   0  0  0  0  0  0  0  0  0  0  0  0  # atno 10765 bound_to 10752
  140.9055  134.1636  157.4429 H   0  0  0  0  0  0  0  0  0  0  0  0  # atno 11005 bound_to 11000
  144.7060  140.3854  143.7117 LP  0  0  0  0  0  0  0  0  0  0  0  0  # atno 17320 bound_to 7965
  145.6933  139.1644  143.2634 LP  0  0  0  0  0  0  0  0  0  0  0  0  # atno 17321 bound_to 7965
  140.6560  143.2238  151.5968 LP  0  0  0  0  0  0  0  0  0  0  0  0  # atno 17342 bound_to 10162
  139.5323  144.2881  152.1175 LP  0  0  0  0  0  0  0  0  0  0  0  0  # atno 17343 bound_to 10162
  157.3534  130.7094  149.6455 LP  0  0  0  0  0  0  0  0  0  0  0  0  # atno 17370 bound_to 10713
  155.9679  130.4246  150.4616 LP  0  0  0  0  0  0  0  0  0  0  0  0  # atno 17371 bound_to 10713
  139.8749  134.9915  156.5552 LP  0  0  0  0  0  0  0  0  0  0  0  0  # atno 17394 bound_to 11000
  140.8177  133.8379  155.8867 LP  0  0  0  0  0  0  0  0  0  0  0  0  # atno 17395 bound_to 11000

$$$$
