AV-unprocessed.smi:1893|AV-procd|sdf|7677|dock1
  -GOLD-   22720 9413D 1   1.00000     0.00000
 Structure written by MMmdl.
 43 44  0  0  0  0  0  0  0  0  2 V2000
  144.3998  134.1672  153.4581 C   0  0  0  0  0  0  0  0  0  0  0  0
  145.5179  134.7755  152.5833 C   0  0  2  0  0  0  0  0  0  0  0  0
  145.3841  134.3771  151.0984 C   0  0  0  0  0  0  0  0  0  0  0  0
  145.7718  132.9109  150.8560 C   0  0  0  0  0  0  0  0  0  0  0  0
  147.1764  132.6412  151.4087 C   0  0  0  0  0  0  0  0  0  0  0  0
  147.2800  133.0470  152.8880 C   0  0  0  0  0  0  0  0  0  0  0  0
  146.8931  134.4715  153.0817 N   0  3  2  0  0  0  0  0  0  0  0  0
  147.1554  134.9787  154.4530 C   0  0  0  0  0  0  0  0  0  0  0  0
  146.4759  136.3365  154.7150 C   0  0  0  0  0  0  0  0  0  0  0  0
  147.4090  137.4397  154.5239 N   0  0  0  0  0  0  0  0  0  0  0  0
  147.6682  138.3940  155.4325 C   0  0  0  0  0  0  0  0  0  0  0  0
  147.0992  138.4479  156.5236 O   0  0  0  0  0  0  0  0  0  0  0  0
  148.7355  139.4315  155.0457 C   0  0  1  0  0  0  0  0  0  0  0  0
  148.6993  140.6938  155.9309 C   0  0  0  0  0  0  0  0  0  0  0  0
  150.0582  138.8179  155.0330 N   0  0  0  0  0  0  0  0  0  0  0  0
  150.4905  137.7220  154.4055 C   0  0  0  0  0  0  0  0  0  0  0  0
  151.7587  137.4253  154.6514 N   0  0  0  0  0  0  0  0  0  0  0  0
  152.0721  138.4487  155.5003 C   0  0  0  0  0  0  0  0  0  0  0  0
  151.0870  139.3047  155.7712 N   0  0  0  0  0  0  0  0  0  0  0  0
  143.4182  134.4306  153.0633 H   0  0  0  0  0  0  0  0  0  0  0  0
  144.4387  134.5402  154.4816 H   0  0  0  0  0  0  0  0  0  0  0  0
  144.4491  133.0798  153.5009 H   0  0  0  0  0  0  0  0  0  0  0  0
  145.3970  135.8591  152.6256 H   0  0  0  0  0  0  0  0  0  0  0  0
  144.3679  134.5587  150.7466 H   0  0  0  0  0  0  0  0  0  0  0  0
  146.0303  135.0180  150.4968 H   0  0  0  0  0  0  0  0  0  0  0  0
  145.0506  132.2466  151.3328 H   0  0  0  0  0  0  0  0  0  0  0  0
  145.7393  132.6863  149.7895 H   0  0  0  0  0  0  0  0  0  0  0  0
  147.4257  131.5860  151.2931 H   0  0  0  0  0  0  0  0  0  0  0  0
  147.9116  133.1978  150.8259 H   0  0  0  0  0  0  0  0  0  0  0  0
  146.6542  132.4004  153.5040 H   0  0  0  0  0  0  0  0  0  0  0  0
  148.3050  132.8873  153.2199 H   0  0  0  0  0  0  0  0  0  0  0  0
  146.7709  134.2579  155.1761 H   0  0  0  0  0  0  0  0  0  0  0  0
  148.2306  135.0461  154.6267 H   0  0  0  0  0  0  0  0  0  0  0  0
  145.6428  136.4942  154.0309 H   0  0  0  0  0  0  0  0  0  0  0  0
  146.0606  136.3694  155.7238 H   0  0  0  0  0  0  0  0  0  0  0  0
  147.9123  137.4679  153.6489 H   0  0  0  0  0  0  0  0  0  0  0  0
  148.5177  139.7465  154.0239 H   0  0  0  0  0  0  0  0  0  0  0  0
  147.7284  141.1873  155.8741 H   0  0  0  0  0  0  0  0  0  0  0  0
  149.4502  141.4154  155.6078 H   0  0  0  0  0  0  0  0  0  0  0  0
  148.8931  140.4642  156.9796 H   0  0  0  0  0  0  0  0  0  0  0  0
  149.8628  137.1252  153.7598 H   0  0  0  0  0  0  0  0  0  0  0  0
  153.0534  138.5618  155.9375 H   0  0  0  0  0  0  0  0  0  0  0  0
  147.5059  135.0048  152.4813 H   0  0  0  0  0  0  0  0  0  0  0  0
  1  2  1  0  0  0  0
  1 20  1  0  0  0  0
  1 21  1  0  0  0  0
  1 22  1  0  0  0  0
  2  7  1  0  0  0  0
  2  3  1  0  0  0  0
  2 23  1  0  0  0  0
  3  4  1  0  0  0  0
  3 24  1  0  0  0  0
  3 25  1  0  0  0  0
  4  5  1  0  0  0  0
  4 26  1  0  0  0  0
  4 27  1  0  0  0  0
  5  6  1  0  0  0  0
  5 28  1  0  0  0  0
  5 29  1  0  0  0  0
  6  7  1  0  0  0  0
  6 30  1  0  0  0  0
  6 31  1  0  0  0  0
  7  8  1  0  0  0  0
  7 43  1  0  0  0  0
  8  9  1  0  0  0  0
  8 32  1  0  0  0  0
  8 33  1  0  0  0  0
  9 10  1  0  0  0  0
  9 34  1  0  0  0  0
  9 35  1  0  0  0  0
 10 11  1  0  0  0  0
 10 36  1  0  0  0  0
 11 12  2  0  0  0  0
 11 13  1  0  0  0  0
 13 14  1  0  0  0  0
 13 15  1  0  0  0  0
 13 37  1  0  0  0  0
 14 38  1  0  0  0  0
 14 39  1  0  0  0  0
 14 40  1  0  0  0  0
 15 19  1  0  0  0  0
 15 16  1  0  0  0  0
 16 17  2  0  0  0  0
 16 41  1  0  0  0  0
 17 18  1  0  0  0  0
 18 19  2  0  0  0  0
 18 42  1  0  0  0  0
M  CHG  1   7   1
M  END
> <s_m_source_file>
AV-unprocessed.smi

> <i_m_source_file_index>
1893

> <i_lp_mmshare_version>
43012

> <i_f3d_flags>
0

> <s_epik_input>
W0NIM11bQ0BASF0xW0NIMl1bQ0gyXVtDSDJdW0NIMl1OMVtDSDJdW0NIMl1bTkhdQyg9TylbQ0BIXShbQ0gzXSluMltjSF1uW2NIXW4y

> <s_epik_cmdline>
J2VwaWtfcHl0aG9uJywgJy1waCcsICc3LjAnLCAnLXRuJywgJzgnLCAnLW1hJywgJzIwMCcsICctbWV0YWxfYmluZGluZycsICctaW1hZScsICc8aW5maWxlLm1hZT4nLCAnLW9tYWUnLCAnPG91dGZpbGUubWFlPic=

> <r_lp_tautomer_probability>
1

> <r_epik_Ionization_Penalty>
0.00266409

> <r_epik_Ionization_Penalty_Charging>
0.00265606

> <r_epik_Ionization_Penalty_Neutral>
8.02794e-06

> <r_epik_State_Penalty>
0.00184955

> <r_epik_Charging_Adjusted_Penalty>
0.00450561

> <i_epik_Tot_Q>
1

> <i_epik_Tot_abs_Q>
1

> <r_epik_Metal_State_Penalty>
-0

> <b_epik_Metal_Only>
0

> <s_lp_Force_Field>
OPLS_2005

> <r_lp_Energy>
24.5349

> <b_lp_Chiralities_Consistent>
1

> <s_lp_Variant>
AV-unprocessed.smi:1893-7

> <Gold.Version>
5.8.1

> <Gold.Id.Protein>
6NUR|6NUR_protein|mol2

> <Gold.PLP.Fitness>
42.7311

> <Gold.PLP.PLP>
-28.9807

> <Gold.PLP.part.hbond>
-3.0000

> <Gold.PLP.part.metal>
0.0000

> <Gold.PLP.part.buried>
-2.0392

> <Gold.PLP.part.nonpolar>
-24.2050

> <Gold.PLP.part.repulsive>
0.1339

> <Gold.PLP.ligand.clash>
0.0000

> <Gold.PLP.ligand.torsion>
0.7982

> <Gold.PLP.Chemscore.Hbond>
3.9680

> <Gold.PLP.Chemscore.CHOScore>
1.0509

> <Gold.PLP.Chemscore.Metal>
0.0000

> <Gold.Chemscore.Hbonds>
donor molecule, donor type, donor heavy atom, donor atom, acceptor molecule, acceptor atom, score
      L1  H     7    43       P1  7948  2.00
      L1  H    10    36       P1  7948  0.06
      P1  H 10752 10763       L1    17  0.70
      L1  C    16    41       P1  7948  1.00

> <Gold.PLP.Chemscore.Internal.Correction>
0.2901

> <Gold.Rescore>
     Score         DG    S(hbond)    S(metal)    S(lipo)     H(rot)  DE(clash)    DE(int)     intcor
     13.77     -14.48       2.93        0.00      48.86       2.54       0.08       0.62       ----

> <Gold.Chemscore.Fitness>
13.7707

> <Gold.Chemscore.DG>
-14.4775

> <Gold.Chemscore.ZeroCoef>
-5.4800

> <Gold.Chemscore.Hbond>
2.9273

> <Gold.Chemscore.Metal>
0.0000

> <Gold.Chemscore.Lipo>
48.8636

> <Gold.Chemscore.Internal_Hbond>
0.0000

> <Gold.Chemscore.DEClash>
0.0833

> <Gold.Chemscore.DEInternal>
0.6235

> <Gold.Chemscore.Rot>
2.5377

> <Gold.Chemscore.Internal.Correction>
   9.000000E+99

> <Gold.Chemscore.Hbonds>
donor molecule, donor type, donor heavy atom, donor atom, acceptor molecule, acceptor atom, score
      L1  H     7    43       P1  7948  0.97
      L1  H    10    36       P1  7948  0.09
      P1  H 10752 10763       L1    17  0.66

> <Gold.Chemscore.Hbond.Weighted>
-9.7770

> <Gold.Chemscore.Metal.Weighted>
-0.0000

> <Gold.Chemscore.Lipo.Weighted>
-5.7170

> <Gold.Chemscore.Internal_Hbond.Weighted>
0.0000

> <Gold.Chemscore.DEClash.Weighted>
0.0833

> <Gold.Chemscore.DEInternal.Weighted>
0.6235

> <Gold.Chemscore.Rot.Weighted>
6.4966

> <Gold.Chemscore.Internal.Correction.Weighted>
   9.000000E+99

> <Gold.Protein.RotatedTorsions>
[ 6907 6896 6895 6894 ] final -105.13 input  -60.11 | X-H torsion
[ 7974 7965 7964 7962 ] final   98.25 input  175.53 | X-H torsion
[ 8008 7997 7996 7995 ] final -165.61 input   59.86 | X-H torsion
[ 10167 10162 10161 10158 ] final   55.53 input  -65.29 | X-H torsion
[ 10718 10713 10712 10709 ] final   83.27 input   66.30 | X-H torsion
[ 10763 10752 10751 10750 ] final   49.21 input  -60.55 | X-H torsion
[ 11005 11000 10999 10996 ] final  -32.09 input  -57.11 | X-H torsion

> <Gold.Protein.ActiveResidues>
 VAL166  LYS551  ARG553  GLY616  TRP617  ASP618  TYR619  PRO620  LYS621  CYS622 
 ASP623  PHE694  ASN695  SER759  ASP760  ASP761  ALA762  ILE779  LEU786  VAL792 
 PHE793  MET794  SER795  GLU796  ALA797  LYS798  CYS799  TRP800  GLU811  SER814 

> <Gold.Protein.RotatedAtoms>
  150.7321  134.0173  159.3689 H   0  0  0  0  0  0  0  0  0  0  0  0  # atno 6907 bound_to 6896
  151.8135  135.0671  160.0425 H   0  0  0  0  0  0  0  0  0  0  0  0  # atno 6908 bound_to 6896
  152.3055  133.5663  159.5683 H   0  0  0  0  0  0  0  0  0  0  0  0  # atno 6909 bound_to 6896
  145.4147  139.2329  143.3229 H   0  0  0  0  0  0  0  0  0  0  0  0  # atno 7974 bound_to 7965
  155.8522  140.0965  157.1667 H   0  0  0  0  0  0  0  0  0  0  0  0  # atno 8008 bound_to 7997
  154.3986  140.1381  156.3920 H   0  0  0  0  0  0  0  0  0  0  0  0  # atno 8009 bound_to 7997
  155.7949  140.3454  155.5372 H   0  0  0  0  0  0  0  0  0  0  0  0  # atno 8010 bound_to 7997
  140.2184  144.3815  150.6460 H   0  0  0  0  0  0  0  0  0  0  0  0  # atno 10167 bound_to 10162
  157.6875  131.0083  150.2498 H   0  0  0  0  0  0  0  0  0  0  0  0  # atno 10718 bound_to 10713
  152.9788  135.5919  154.4051 H   0  0  0  0  0  0  0  0  0  0  0  0  # atno 10763 bound_to 10752
  154.3693  135.2767  155.2277 H   0  0  0  0  0  0  0  0  0  0  0  0  # atno 10764 bound_to 10752
  154.4240  135.6052  153.6082 H   0  0  0  0  0  0  0  0  0  0  0  0  # atno 10765 bound_to 10752
  140.9523  133.7213  156.1239 H   0  0  0  0  0  0  0  0  0  0  0  0  # atno 11005 bound_to 11000
  146.2687  140.4864  142.8823 LP  0  0  0  0  0  0  0  0  0  0  0  0  # atno 17320 bound_to 7965
  144.8285  140.6668  143.6306 LP  0  0  0  0  0  0  0  0  0  0  0  0  # atno 17321 bound_to 7965
  140.6273  143.2183  151.6570 LP  0  0  0  0  0  0  0  0  0  0  0  0  # atno 17342 bound_to 10162
  139.5153  144.3382  152.0764 LP  0  0  0  0  0  0  0  0  0  0  0  0  # atno 17343 bound_to 10162
  156.3097  130.3770  149.7673 LP  0  0  0  0  0  0  0  0  0  0  0  0  # atno 17370 bound_to 10713
  156.5278  130.8244  151.3226 LP  0  0  0  0  0  0  0  0  0  0  0  0  # atno 17371 bound_to 10713
  140.7585  134.3965  157.5530 LP  0  0  0  0  0  0  0  0  0  0  0  0  # atno 17394 bound_to 11000
  139.8851  134.8946  156.2662 LP  0  0  0  0  0  0  0  0  0  0  0  0  # atno 17395 bound_to 11000

$$$$
