AV-unprocessed.smi:287|AV-procd|sdf|2204|dock1
  -GOLD-   2262022 23D 1   1.00000     0.00000
 Structure written by MMmdl.
 55 58  0  0  0  0  0  0  0  0  1 V2000
  141.6401  135.4563  162.9080 C   0  0  0  0  0  0  0  0  0  0  0  0
  142.9855  135.8883  162.4347 C   0  0  0  0  0  0  0  0  0  0  0  0
  144.2408  135.3664  162.5513 C   0  0  0  0  0  0  0  0  0  0  0  0
  145.1337  136.2464  161.8691 C   0  0  0  0  0  0  0  0  0  0  0  0
  146.6410  136.0726  161.7383 C   0  0  2  0  0  0  0  0  0  0  0  0
  147.1168  134.9515  162.6768 C   0  0  0  0  0  0  0  0  0  0  0  0
  147.3615  137.2248  162.1321 O   0  0  0  0  0  0  0  0  0  0  0  0
  147.0791  135.7713  160.2867 C   0  0  0  0  0  0  0  0  0  0  0  0
  148.5125  135.9346  160.0820 N   0  0  0  0  0  0  0  0  0  0  0  0
  148.9952  136.5856  159.0028 C   0  0  0  0  0  0  0  0  0  0  0  0
  150.3219  136.8525  159.0339 N   0  0  0  0  0  0  0  0  0  0  0  0
  150.8990  137.5011  158.0202 C   0  0  0  0  0  0  0  0  0  0  0  0
  150.3403  137.9594  156.9002 N   0  0  0  0  0  0  0  0  0  0  0  0
  149.0029  137.6893  156.8489 C   0  0  0  0  0  0  0  0  0  0  0  0
  148.2557  137.0148  157.8596 C   0  0  0  0  0  0  0  0  0  0  0  0
  146.9232  136.9426  157.4718 N   0  0  0  0  0  0  0  0  0  0  0  0
  146.8895  137.5410  156.3138 C   0  0  0  0  0  0  0  0  0  0  0  0
  148.1018  137.9950  155.8423 N   0  0  0  0  0  0  0  0  0  0  0  0
  148.3553  138.7420  154.5584 C   0  0  1  0  0  0  0  0  0  0  0  0
  147.3065  139.6316  154.3285 O   0  0  0  0  0  0  0  0  0  0  0  0
  147.6265  140.8923  154.9018 C   0  0  2  0  0  0  0  0  0  0  0  0
  146.6831  141.9952  154.3909 C   0  0  0  0  0  0  0  0  0  0  0  0
  145.3425  141.6524  154.6714 O   0  0  0  0  0  0  0  0  0  0  0  0
  149.1005  141.0336  154.5045 C   0  0  2  0  0  0  0  0  0  0  0  0
  149.2161  141.5002  153.1696 O   0  0  0  0  0  0  0  0  0  0  0  0
  149.6287  139.6077  154.6820 C   0  0  2  0  0  0  0  0  0  0  0  0
  150.6311  139.2673  153.7419 O   0  0  0  0  0  0  0  0  0  0  0  0
  144.3340  137.2600  161.3986 C   0  0  0  0  0  0  0  0  0  0  0  0
  144.5929  138.5101  160.6245 C   0  0  0  0  0  0  0  0  0  0  0  0
  143.0306  137.0481  161.7329 O   0  0  0  0  0  0  0  0  0  0  0  0
  148.3982  137.9653  153.7941 H   0  0  0  0  0  0  0  0  0  0  0  0
  147.5659  140.8219  155.9900 H   0  0  0  0  0  0  0  0  0  0  0  0
  149.6242  141.7368  155.1528 H   0  0  0  0  0  0  0  0  0  0  0  0
  150.0475  139.5136  155.6843 H   0  0  0  0  0  0  0  0  0  0  0  0
  141.6618  134.4215  163.2501 H   0  0  0  0  0  0  0  0  0  0  0  0
  140.9045  135.5311  162.1069 H   0  0  0  0  0  0  0  0  0  0  0  0
  141.3041  136.0803  163.7363 H   0  0  0  0  0  0  0  0  0  0  0  0
  144.4918  134.4503  163.0651 H   0  0  0  0  0  0  0  0  0  0  0  0
  146.6453  134.0003  162.4264 H   0  0  0  0  0  0  0  0  0  0  0  0
  146.8731  135.1744  163.7166 H   0  0  0  0  0  0  0  0  0  0  0  0
  148.1963  134.8076  162.6145 H   0  0  0  0  0  0  0  0  0  0  0  0
  146.7441  137.9140  162.3233 H   0  0  0  0  0  0  0  0  0  0  0  0
  146.7652  134.7703  159.9871 H   0  0  0  0  0  0  0  0  0  0  0  0
  146.5751  136.4748  159.6226 H   0  0  0  0  0  0  0  0  0  0  0  0
  149.1034  135.5361  160.7980 H   0  0  0  0  0  0  0  0  0  0  0  0
  151.9599  137.6778  158.1194 H   0  0  0  0  0  0  0  0  0  0  0  0
  145.9674  137.6635  155.7645 H   0  0  0  0  0  0  0  0  0  0  0  0
  146.8936  142.9354  154.9010 H   0  0  0  0  0  0  0  0  0  0  0  0
  146.8127  142.1667  153.3219 H   0  0  0  0  0  0  0  0  0  0  0  0
  144.8468  141.6964  153.8681 H   0  0  0  0  0  0  0  0  0  0  0  0
  149.2659  140.7500  152.5966 H   0  0  0  0  0  0  0  0  0  0  0  0
  150.2364  139.2208  152.8846 H   0  0  0  0  0  0  0  0  0  0  0  0
  145.3571  139.1147  161.1127 H   0  0  0  0  0  0  0  0  0  0  0  0
  143.6903  139.1156  160.5390 H   0  0  0  0  0  0  0  0  0  0  0  0
  144.9364  138.2756  159.6171 H   0  0  0  0  0  0  0  0  0  0  0  0
  1  2  1  0  0  0  0
  1 35  1  0  0  0  0
  1 36  1  0  0  0  0
  1 37  1  0  0  0  0
  2 30  1  0  0  0  0
  2  3  2  0  0  0  0
  3  4  1  0  0  0  0
  3 38  1  0  0  0  0
  4  5  1  0  0  0  0
  4 28  2  0  0  0  0
  5  6  1  0  0  0  0
  5  7  1  0  0  0  0
  5  8  1  0  0  0  0
  6 39  1  0  0  0  0
  6 40  1  0  0  0  0
  6 41  1  0  0  0  0
  7 42  1  0  0  0  0
  8  9  1  0  0  0  0
  8 43  1  0  0  0  0
  8 44  1  0  0  0  0
  9 10  1  0  0  0  0
  9 45  1  0  0  0  0
 10 15  1  0  0  0  0
 10 11  2  0  0  0  0
 11 12  1  0  0  0  0
 12 13  2  0  0  0  0
 12 46  1  0  0  0  0
 13 14  1  0  0  0  0
 14 18  1  0  0  0  0
 14 15  2  0  0  0  0
 15 16  1  0  0  0  0
 16 17  2  0  0  0  0
 17 18  1  0  0  0  0
 17 47  1  0  0  0  0
 18 19  1  0  0  0  0
 19 31  1  0  0  0  0
 19 26  1  0  0  0  0
 19 20  1  0  0  0  0
 20 21  1  0  0  0  0
 21 32  1  0  0  0  0
 21 22  1  0  0  0  0
 21 24  1  0  0  0  0
 22 23  1  0  0  0  0
 22 48  1  0  0  0  0
 22 49  1  0  0  0  0
 23 50  1  0  0  0  0
 24 33  1  0  0  0  0
 24 25  1  0  0  0  0
 24 26  1  0  0  0  0
 25 51  1  0  0  0  0
 26 34  1  0  0  0  0
 26 27  1  0  0  0  0
 27 52  1  0  0  0  0
 28 29  1  0  0  0  0
 28 30  1  0  0  0  0
 29 53  1  0  0  0  0
 29 54  1  0  0  0  0
 29 55  1  0  0  0  0
M  END
> <s_m_source_file>
AV-unprocessed.smi

> <i_m_source_file_index>
287

> <i_lp_mmshare_version>
43012

> <i_f3d_flags>
0

> <s_epik_input>
W0NIM11jMVtjSF1jKGMobzEpW0NIM10pW0NAQF0oW0NIM10pKFtPSF0pW0NIMl1bTkhdYyhuW2NIXW4yKWMoYzIzKW5bY0hdbjNbQ0BASF00T1tDQEhdKFtDSDJdW09IXSlbQ0BASF0oW09IXSlbQ0BIXTRbT0hd

> <s_epik_cmdline>
J2VwaWtfcHl0aG9uJywgJy1waCcsICc3LjAnLCAnLXRuJywgJzgnLCAnLW1hJywgJzIwMCcsICctbWV0YWxfYmluZGluZycsICctaW1hZScsICc8aW5maWxlLm1hZT4nLCAnLW9tYWUnLCAnPG91dGZpbGUubWFlPic=

> <r_lp_tautomer_probability>
1

> <r_epik_Ionization_Penalty>
0.000992612

> <r_epik_Ionization_Penalty_Charging>
0

> <r_epik_Ionization_Penalty_Neutral>
0.000992612

> <r_epik_State_Penalty>
-0

> <r_epik_Charging_Adjusted_Penalty>
0

> <i_epik_Tot_Q>
0

> <i_epik_Tot_abs_Q>
0

> <r_epik_Metal_State_Penalty>
-0

> <b_epik_Metal_Only>
0

> <s_epik_Chemistry_Notes>
This compound contains an acetal/aminal-like group ( X-CH(R)-Y where X, Y are N, S, or O) that may be acid/base labile, releasing an aldehyde.

> <s_lp_Force_Field>
OPLS_2005

> <r_lp_Energy>
48.2808

> <b_lp_Chiralities_Consistent>
1

> <s_lp_Variant>
AV-unprocessed.smi:287-28

> <Gold.Version>
5.8.1

> <Gold.Id.Protein>
6NUR|6NUR_protein|mol2

> <Gold.PLP.Fitness>
58.7719

> <Gold.PLP.PLP>
-41.1760

> <Gold.PLP.part.hbond>
-8.5823

> <Gold.PLP.part.metal>
0.0000

> <Gold.PLP.part.buried>
-5.6087

> <Gold.PLP.part.nonpolar>
-27.7796

> <Gold.PLP.part.repulsive>
0.3306

> <Gold.PLP.ligand.clash>
0.0000

> <Gold.PLP.ligand.torsion>
1.1632

> <Gold.PLP.Chemscore.Hbond>
6.5605

> <Gold.PLP.Chemscore.CHOScore>
0.0000

> <Gold.PLP.Chemscore.Metal>
0.0000

> <Gold.Chemscore.Hbonds>
donor molecule, donor type, donor heavy atom, donor atom, acceptor molecule, acceptor atom, score
      L1  H    23    50       P1 10175  0.45
      L1  H    25    51       P1  7957  1.00
      L1  H    27    52       P1  7957  1.00
      P1  H  6896  6907       L1    11  0.78
      P1  H  6931  6943       L1     7  0.85
      P1  H  7989  7998       L1    27  0.84
      P1  H  8011  8017       L1    25  0.53

> <Gold.PLP.Chemscore.Internal.Correction>
0.2409

> <Gold.Rescore>
     Score         DG    S(hbond)    S(metal)    S(lipo)     H(rot)  DE(clash)    DE(int)     intcor
      9.35     -13.69       3.72        0.00      79.13       5.27       0.96       3.39       ----

> <Gold.Chemscore.Fitness>
9.3496

> <Gold.Chemscore.DG>
-13.6928

> <Gold.Chemscore.ZeroCoef>
-5.4800

> <Gold.Chemscore.Hbond>
3.7241

> <Gold.Chemscore.Metal>
0.0000

> <Gold.Chemscore.Lipo>
79.1293

> <Gold.Chemscore.Internal_Hbond>
0.0000

> <Gold.Chemscore.DEClash>
0.9582

> <Gold.Chemscore.DEInternal>
3.3850

> <Gold.Chemscore.Rot>
5.2672

> <Gold.Chemscore.Internal.Correction>
   9.000000E+99

> <Gold.Chemscore.Hbonds>
donor molecule, donor type, donor heavy atom, donor atom, acceptor molecule, acceptor atom, score
      L1  H    23    50       P1 10175  0.06
      L1  H    25    51       P1  7957  0.95
      L1  H    27    52       P1  7957  0.77
      P1  H  6896  6907       L1    11  0.38
      P1  H  6931  6943       L1     7  0.25
      P1  H  7989  7998       L1    27  0.08
      P1  H  8011  8017       L1    25  0.10

> <Gold.Chemscore.Hbond.Weighted>
-12.4386

> <Gold.Chemscore.Metal.Weighted>
-0.0000

> <Gold.Chemscore.Lipo.Weighted>
-9.2581

> <Gold.Chemscore.Internal_Hbond.Weighted>
0.0000

> <Gold.Chemscore.DEClash.Weighted>
0.9582

> <Gold.Chemscore.DEInternal.Weighted>
3.3850

> <Gold.Chemscore.Rot.Weighted>
13.4839

> <Gold.Chemscore.Internal.Correction.Weighted>
   9.000000E+99

> <Gold.Protein.RotatedTorsions>
[ 6907 6896 6895 6894 ] final  -21.96 input  -60.11 | X-H torsion
[ 7974 7965 7964 7962 ] final  -39.70 input  175.53 | X-H torsion
[ 8008 7997 7996 7995 ] final  -54.00 input   59.86 | X-H torsion
[ 10167 10162 10161 10158 ] final   35.15 input  -65.29 | X-H torsion
[ 10718 10713 10712 10709 ] final   98.90 input   66.30 | X-H torsion
[ 10763 10752 10751 10750 ] final   25.07 input  -60.55 | X-H torsion
[ 11005 11000 10999 10996 ] final  152.68 input  -57.11 | X-H torsion

> <Gold.Protein.ActiveResidues>
 VAL166  LYS551  ARG553  GLY616  TRP617  ASP618  TYR619  PRO620  LYS621  CYS622 
 ASP623  PHE694  ASN695  SER759  ASP760  ASP761  ALA762  ILE779  LEU786  VAL792 
 PHE793  MET794  SER795  GLU796  ALA797  LYS798  CYS799  TRP800  GLU811  SER814 

> <Gold.Protein.RotatedAtoms>
  151.2257  135.0535  159.8967 H   0  0  0  0  0  0  0  0  0  0  0  0  # atno 6907 bound_to 6896
  152.5410  134.0592  159.8155 H   0  0  0  0  0  0  0  0  0  0  0  0  # atno 6908 bound_to 6896
  151.0765  133.5376  159.2655 H   0  0  0  0  0  0  0  0  0  0  0  0  # atno 6909 bound_to 6896
  146.0372  140.6655  142.9104 H   0  0  0  0  0  0  0  0  0  0  0  0  # atno 7974 bound_to 7965
  154.4149  140.1187  156.5244 H   0  0  0  0  0  0  0  0  0  0  0  0  # atno 8008 bound_to 7997
  155.6670  140.3496  155.4784 H   0  0  0  0  0  0  0  0  0  0  0  0  # atno 8009 bound_to 7997
  155.9665  140.1133  157.0840 H   0  0  0  0  0  0  0  0  0  0  0  0  # atno 8010 bound_to 7997
  140.4249  144.1407  150.6152 H   0  0  0  0  0  0  0  0  0  0  0  0  # atno 10167 bound_to 10162
  157.6887  131.0654  150.4866 H   0  0  0  0  0  0  0  0  0  0  0  0  # atno 10718 bound_to 10713
  153.0718  135.6591  154.0230 H   0  0  0  0  0  0  0  0  0  0  0  0  # atno 10763 bound_to 10752
  153.9874  135.2949  155.3416 H   0  0  0  0  0  0  0  0  0  0  0  0  # atno 10764 bound_to 10752
  154.7095  135.5211  153.8715 H   0  0  0  0  0  0  0  0  0  0  0  0  # atno 10765 bound_to 10752
  140.1330  134.8790  157.2229 H   0  0  0  0  0  0  0  0  0  0  0  0  # atno 11005 bound_to 11000
  144.7057  140.3842  143.7120 LP  0  0  0  0  0  0  0  0  0  0  0  0  # atno 17320 bound_to 7965
  145.6944  139.1646  143.2628 LP  0  0  0  0  0  0  0  0  0  0  0  0  # atno 17321 bound_to 7965
  140.4492  143.2494  151.9370 LP  0  0  0  0  0  0  0  0  0  0  0  0  # atno 17342 bound_to 10162
  139.4783  144.5579  151.8285 LP  0  0  0  0  0  0  0  0  0  0  0  0  # atno 17343 bound_to 10162
  156.5195  130.4158  149.6258 LP  0  0  0  0  0  0  0  0  0  0  0  0  # atno 17370 bound_to 10713
  156.3167  130.7258  151.2162 LP  0  0  0  0  0  0  0  0  0  0  0  0  # atno 17371 bound_to 10713
  140.2819  134.3340  155.7341 LP  0  0  0  0  0  0  0  0  0  0  0  0  # atno 17394 bound_to 11000
  141.2173  133.7483  156.9376 LP  0  0  0  0  0  0  0  0  0  0  0  0  # atno 17395 bound_to 11000

$$$$
