AV-unprocessed.smi:3201|AV-procd|sdf|12238|dock3
  -GOLD-   2272018 73D 1   1.00000     0.00000
 Structure written by MMmdl.
 41 43  0  0  0  0  0  0  0  0  2 V2000
  148.7404  138.6805  156.5757 C   0  0  0  0  0  0  0  0  0  0  0  0
  150.0356  138.2878  155.9412 C   0  0  0  0  0  0  0  0  0  0  0  0
  151.2125  138.9754  155.8100 C   0  0  0  0  0  0  0  0  0  0  0  0
  151.5570  140.3636  156.2752 C   0  0  0  0  0  0  0  0  0  0  0  0
  150.3570  141.3114  156.1505 C   0  0  0  0  0  0  0  0  0  0  0  0
  150.7329  142.6945  156.5065 N   0  3  0  0  0  0  0  0  0  0  0  0
  150.7773  142.9638  157.9604 C   0  0  1  0  0  0  0  0  0  0  0  0
  151.8743  142.1465  158.6827 C   0  0  0  0  0  0  0  0  0  0  0  0
  152.7296  143.2361  159.3542 C   0  0  2  0  0  0  0  0  0  0  0  0
  151.9290  143.8946  160.4931 C   0  0  0  0  0  0  0  0  0  0  0  0
  150.8872  144.7366  159.7322 C   0  0  0  0  0  0  0  0  0  0  0  0
  151.2027  144.4182  158.2581 C   0  0  1  0  0  0  0  0  0  0  0  0
  152.7257  144.3265  158.2903 C   0  0  0  0  0  0  0  0  0  0  0  0
  152.0588  138.0651  155.1160 C   0  0  0  0  0  0  0  0  0  0  0  0
  151.4623  136.9199  154.8378 N   0  0  0  0  0  0  0  0  0  0  0  0
  150.2200  137.0538  155.3455 N   0  0  0  0  0  0  0  0  0  0  0  0
  149.2768  135.9604  155.2133 C   0  0  0  0  0  0  0  0  0  0  0  0
  148.7786  139.7011  156.9560 H   0  0  0  0  0  0  0  0  0  0  0  0
  148.5038  138.0216  157.4114 H   0  0  0  0  0  0  0  0  0  0  0  0
  147.9229  138.6222  155.8566 H   0  0  0  0  0  0  0  0  0  0  0  0
  151.8987  140.3450  157.3108 H   0  0  0  0  0  0  0  0  0  0  0  0
  152.3915  140.7617  155.6965 H   0  0  0  0  0  0  0  0  0  0  0  0
  149.9747  141.2963  155.1289 H   0  0  0  0  0  0  0  0  0  0  0  0
  149.5490  140.9740  156.8007 H   0  0  0  0  0  0  0  0  0  0  0  0
  151.6380  142.9047  156.1108 H   0  0  0  0  0  0  0  0  0  0  0  0
  149.7905  142.7659  158.3824 H   0  0  0  0  0  0  0  0  0  0  0  0
  151.4585  141.4436  159.4057 H   0  0  0  0  0  0  0  0  0  0  0  0
  152.4833  141.5756  157.9799 H   0  0  0  0  0  0  0  0  0  0  0  0
  153.7186  142.8907  159.6569 H   0  0  0  0  0  0  0  0  0  0  0  0
  151.4687  143.1583  161.1530 H   0  0  0  0  0  0  0  0  0  0  0  0
  152.5693  144.5354  161.1009 H   0  0  0  0  0  0  0  0  0  0  0  0
  149.8630  144.4810  160.0064 H   0  0  0  0  0  0  0  0  0  0  0  0
  151.0311  145.7983  159.9379 H   0  0  0  0  0  0  0  0  0  0  0  0
  150.7965  145.1539  157.5627 H   0  0  0  0  0  0  0  0  0  0  0  0
  153.2091  145.2495  158.6157 H   0  0  0  0  0  0  0  0  0  0  0  0
  153.1643  144.0092  157.3426 H   0  0  0  0  0  0  0  0  0  0  0  0
  153.0838  138.2040  154.8055 H   0  0  0  0  0  0  0  0  0  0  0  0
  148.8485  135.7231  156.1876 H   0  0  0  0  0  0  0  0  0  0  0  0
  149.7713  135.0702  154.8214 H   0  0  0  0  0  0  0  0  0  0  0  0
  148.4756  136.2487  154.5320 H   0  0  0  0  0  0  0  0  0  0  0  0
  150.0498  143.3142  156.0946 H   0  0  0  0  0  0  0  0  0  0  0  0
  1  2  1  0  0  0  0
  1 18  1  0  0  0  0
  1 19  1  0  0  0  0
  1 20  1  0  0  0  0
  2 16  1  0  0  0  0
  2  3  2  0  0  0  0
  3  4  1  0  0  0  0
  3 14  1  0  0  0  0
  4  5  1  0  0  0  0
  4 21  1  0  0  0  0
  4 22  1  0  0  0  0
  5  6  1  0  0  0  0
  5 23  1  0  0  0  0
  5 24  1  0  0  0  0
  6  7  1  0  0  0  0
  6 25  1  0  0  0  0
  6 41  1  0  0  0  0
  7 12  1  0  0  0  0
  7  8  1  0  0  0  0
  7 26  1  0  0  0  0
  8  9  1  0  0  0  0
  8 27  1  0  0  0  0
  8 28  1  0  0  0  0
  9 13  1  0  0  0  0
  9 10  1  0  0  0  0
  9 29  1  0  0  0  0
 10 11  1  0  0  0  0
 10 30  1  0  0  0  0
 10 31  1  0  0  0  0
 11 12  1  0  0  0  0
 11 32  1  0  0  0  0
 11 33  1  0  0  0  0
 12 13  1  0  0  0  0
 12 34  1  0  0  0  0
 13 35  1  0  0  0  0
 13 36  1  0  0  0  0
 14 15  2  0  0  0  0
 14 37  1  0  0  0  0
 15 16  1  0  0  0  0
 16 17  1  0  0  0  0
 17 38  1  0  0  0  0
 17 39  1  0  0  0  0
 17 40  1  0  0  0  0
M  CHG  1   6   1
M  END
> <s_m_source_file>
AV-unprocessed.smi

> <i_m_source_file_index>
3201

> <i_lp_mmshare_version>
43012

> <i_f3d_flags>
0

> <s_epik_input>
W0NIM11uMW5bY0hdYyhjMVtDSDNdKVtDSDJdW0NIMl1bTkhdW0NASF0oW0NIMl1bQ0BIXTIzKVtDQEhdKFtDSDJdMylbQ0gyXVtDSDJdMg==

> <s_epik_cmdline>
J2VwaWtfcHl0aG9uJywgJy1waCcsICc3LjAnLCAnLXRuJywgJzgnLCAnLW1hJywgJzIwMCcsICctbWV0YWxfYmluZGluZycsICctaW1hZScsICc8aW5maWxlLm1hZT4nLCAnLW9tYWUnLCAnPG91dGZpbGUubWFlPic=

> <r_lp_tautomer_probability>
1

> <r_epik_Ionization_Penalty>
0.000331174

> <r_epik_Ionization_Penalty_Charging>
0.000242709

> <r_epik_Ionization_Penalty_Neutral>
8.84659e-05

> <r_epik_State_Penalty>
-0

> <r_epik_Charging_Adjusted_Penalty>
0.000242709

> <i_epik_Tot_Q>
1

> <i_epik_Tot_abs_Q>
1

> <r_epik_Metal_State_Penalty>
-0

> <b_epik_Metal_Only>
0

> <s_lp_Force_Field>
OPLS_2005

> <r_lp_Energy>
49.6372

> <b_lp_Chiralities_Consistent>
1

> <s_lp_Variant>
AV-unprocessed.smi:3201-2

> <Gold.Version>
5.8.1

> <Gold.Id.Protein>
6NUR|6NUR_protein|mol2

> <Gold.PLP.Fitness>
49.8976

> <Gold.PLP.PLP>
-41.8848

> <Gold.PLP.part.hbond>
-2.0000

> <Gold.PLP.part.metal>
0.0000

> <Gold.PLP.part.buried>
-5.9663

> <Gold.PLP.part.nonpolar>
-34.9945

> <Gold.PLP.part.repulsive>
0.2242

> <Gold.PLP.ligand.clash>
0.0000

> <Gold.PLP.ligand.torsion>
0.4495

> <Gold.PLP.Chemscore.Hbond>
2.9600

> <Gold.PLP.Chemscore.CHOScore>
0.0000

> <Gold.PLP.Chemscore.Metal>
0.0000

> <Gold.Chemscore.Hbonds>
donor molecule, donor type, donor heavy atom, donor atom, acceptor molecule, acceptor atom, score
      L1  H     6    41       P1  8028  2.00
      P1  H 10752 10765       L1    15  1.00

> <Gold.PLP.Chemscore.Internal.Correction>
0.0318

> <Gold.Rescore>
     Score         DG    S(hbond)    S(metal)    S(lipo)     H(rot)  DE(clash)    DE(int)     intcor
     22.38     -22.94       1.93        0.00     123.90       1.36       0.06       0.50       ----

> <Gold.Chemscore.Fitness>
22.3821

> <Gold.Chemscore.DG>
-22.9384

> <Gold.Chemscore.ZeroCoef>
-5.4800

> <Gold.Chemscore.Hbond>
1.9285

> <Gold.Chemscore.Metal>
0.0000

> <Gold.Chemscore.Lipo>
123.8957

> <Gold.Chemscore.Internal_Hbond>
0.0000

> <Gold.Chemscore.DEClash>
0.0559

> <Gold.Chemscore.DEInternal>
0.5004

> <Gold.Chemscore.Rot>
1.3588

> <Gold.Chemscore.Internal.Correction>
   9.000000E+99

> <Gold.Chemscore.Hbonds>
donor molecule, donor type, donor heavy atom, donor atom, acceptor molecule, acceptor atom, score
      L1  H     6    41       P1  8028  1.00
      P1  H 10752 10765       L1    15  0.47

> <Gold.Chemscore.Hbond.Weighted>
-6.4412

> <Gold.Chemscore.Metal.Weighted>
-0.0000

> <Gold.Chemscore.Lipo.Weighted>
-14.4958

> <Gold.Chemscore.Internal_Hbond.Weighted>
0.0000

> <Gold.Chemscore.DEClash.Weighted>
0.0559

> <Gold.Chemscore.DEInternal.Weighted>
0.5004

> <Gold.Chemscore.Rot.Weighted>
3.4786

> <Gold.Chemscore.Internal.Correction.Weighted>
   9.000000E+99

> <Gold.Protein.RotatedTorsions>
[ 6907 6896 6895 6894 ] final   19.52 input  -60.11 | X-H torsion
[ 7974 7965 7964 7962 ] final  177.40 input  175.53 | X-H torsion
[ 8008 7997 7996 7995 ] final   63.02 input   59.86 | X-H torsion
[ 10167 10162 10161 10158 ] final  -21.27 input  -65.29 | X-H torsion
[ 10718 10713 10712 10709 ] final -118.60 input   66.30 | X-H torsion
[ 10763 10752 10751 10750 ] final  161.55 input  -60.55 | X-H torsion
[ 11005 11000 10999 10996 ] final  128.65 input  -57.11 | X-H torsion

> <Gold.Protein.ActiveResidues>
 VAL166  LYS551  ARG553  GLY616  TRP617  ASP618  TYR619  PRO620  LYS621  CYS622 
 ASP623  PHE694  ASN695  SER759  ASP760  ASP761  ALA762  ILE779  LEU786  VAL792 
 PHE793  MET794  SER795  GLU796  ALA797  LYS798  CYS799  TRP800  GLU811  SER814 

> <Gold.Protein.RotatedAtoms>
  151.8821  135.0449  160.0489 H   0  0  0  0  0  0  0  0  0  0  0  0  # atno 6907 bound_to 6896
  152.2504  133.5205  159.5330 H   0  0  0  0  0  0  0  0  0  0  0  0  # atno 6908 bound_to 6896
  150.7082  134.0884  159.3965 H   0  0  0  0  0  0  0  0  0  0  0  0  # atno 6909 bound_to 6896
  144.7169  140.0242  143.6440 H   0  0  0  0  0  0  0  0  0  0  0  0  # atno 7974 bound_to 7965
  155.6236  140.3496  155.4660 H   0  0  0  0  0  0  0  0  0  0  0  0  # atno 8008 bound_to 7997
  156.0059  140.1223  157.0525 H   0  0  0  0  0  0  0  0  0  0  0  0  # atno 8009 bound_to 7997
  154.4264  140.1091  156.5748 H   0  0  0  0  0  0  0  0  0  0  0  0  # atno 8010 bound_to 7997
  140.7281  143.4643  151.0335 H   0  0  0  0  0  0  0  0  0  0  0  0  # atno 10167 bound_to 10162
  156.1118  130.6255  150.9311 H   0  0  0  0  0  0  0  0  0  0  0  0  # atno 10718 bound_to 10713
  154.2647  135.2767  155.2763 H   0  0  0  0  0  0  0  0  0  0  0  0  # atno 10763 bound_to 10752
  154.5353  135.5718  153.6797 H   0  0  0  0  0  0  0  0  0  0  0  0  # atno 10764 bound_to 10752
  152.9956  135.6238  154.2799 H   0  0  0  0  0  0  0  0  0  0  0  0  # atno 10765 bound_to 10752
  139.9572  134.9610  156.9032 H   0  0  0  0  0  0  0  0  0  0  0  0  # atno 11005 bound_to 11000
  146.0156  139.3207  143.0844 LP  0  0  0  0  0  0  0  0  0  0  0  0  # atno 17320 bound_to 7965
  145.8630  140.9464  143.0690 LP  0  0  0  0  0  0  0  0  0  0  0  0  # atno 17321 bound_to 7965
  139.8330  143.7665  152.3180 LP  0  0  0  0  0  0  0  0  0  0  0  0  # atno 17342 bound_to 10162
  139.7787  144.7452  151.0119 LP  0  0  0  0  0  0  0  0  0  0  0  0  # atno 17343 bound_to 10162
  157.6300  131.0922  150.8460 LP  0  0  0  0  0  0  0  0  0  0  0  0  # atno 17370 bound_to 10713
  156.8570  130.5100  149.5307 LP  0  0  0  0  0  0  0  0  0  0  0  0  # atno 17371 bound_to 10713
  140.5582  134.0560  155.7390 LP  0  0  0  0  0  0  0  0  0  0  0  0  # atno 17394 bound_to 11000
  141.1245  133.9406  157.2663 LP  0  0  0  0  0  0  0  0  0  0  0  0  # atno 17395 bound_to 11000

$$$$
