AV-unprocessed.smi:2925|AV-procd|sdf|11225|dock1
  -GOLD-   2272016113D 1   1.00000     0.00000
 Structure written by MMmdl.
 44 45  0  0  0  0  0  0  0  0  1 V2000
  149.9912  135.3833  157.5315 C   0  0  0  0  0  0  0  0  0  0  0  0
  149.1373  135.2340  156.2635 C   0  0  0  0  0  0  0  0  0  0  0  0
  149.9470  134.8359  155.0115 C   0  0  1  0  0  0  0  0  0  0  0  0
  149.0411  134.6956  153.8718 N   0  0  0  0  0  0  0  0  0  0  0  0
  148.1407  133.7162  153.7058 C   0  0  0  0  0  0  0  0  0  0  0  0
  147.9547  132.8076  154.5166 O   0  0  0  0  0  0  0  0  0  0  0  0
  147.4961  133.8398  152.5323 N   0  0  0  0  0  0  0  0  0  0  0  0
  146.5382  132.9508  152.0215 C   0  0  0  0  0  0  0  0  0  0  0  0
  145.4111  133.4524  151.4513 C   0  0  0  0  0  0  0  0  0  0  0  0
  145.1804  134.9493  151.3165 C   0  0  0  0  0  0  0  0  0  0  0  0
  144.4158  132.5357  150.9351 C   0  0  0  0  0  0  0  0  0  0  0  0
  144.6211  131.2156  151.0351 C   0  0  0  0  0  0  0  0  0  0  0  0
  145.7716  130.6927  151.6431 N   0  0  0  0  0  0  0  0  0  0  0  0
  145.8947  129.2344  151.7201 C   0  0  0  0  0  0  0  0  0  0  0  0
  146.7383  131.4904  152.1818 C   0  0  0  0  0  0  0  0  0  0  0  0
  147.7014  131.0017  152.7770 O   0  0  0  0  0  0  0  0  0  0  0  0
  151.0455  135.8661  154.6697 C   0  0  1  0  0  0  0  0  0  0  0  0
  150.5676  137.3201  154.6254 C   0  0  0  0  0  0  0  0  0  0  0  0
  151.8363  138.0772  154.9422 C   0  0  0  0  0  0  0  0  0  0  0  0
  152.4683  137.1789  155.9982 C   0  0  0  0  0  0  0  0  0  0  0  0
  152.0768  135.8528  155.6580 O   0  0  0  0  0  0  0  0  0  0  0  0
  149.3804  135.7155  158.3711 H   0  0  0  0  0  0  0  0  0  0  0  0
  150.7833  136.1182  157.3863 H   0  0  0  0  0  0  0  0  0  0  0  0
  150.4569  134.4401  157.8179 H   0  0  0  0  0  0  0  0  0  0  0  0
  148.3502  134.5007  156.4432 H   0  0  0  0  0  0  0  0  0  0  0  0
  148.6310  136.1828  156.0847 H   0  0  0  0  0  0  0  0  0  0  0  0
  150.4277  133.8778  155.2192 H   0  0  0  0  0  0  0  0  0  0  0  0
  149.1208  135.3914  153.1451 H   0  0  0  0  0  0  0  0  0  0  0  0
  147.8181  134.5553  151.8975 H   0  0  0  0  0  0  0  0  0  0  0  0
  144.2380  135.1599  150.8103 H   0  0  0  0  0  0  0  0  0  0  0  0
  145.9820  135.4089  150.7372 H   0  0  0  0  0  0  0  0  0  0  0  0
  145.1473  135.4215  152.2987 H   0  0  0  0  0  0  0  0  0  0  0  0
  143.5168  132.9069  150.4651 H   0  0  0  0  0  0  0  0  0  0  0  0
  143.9171  130.4841  150.6661 H   0  0  0  0  0  0  0  0  0  0  0  0
  146.8517  128.9043  151.3132 H   0  0  0  0  0  0  0  0  0  0  0  0
  145.1140  128.7165  151.1619 H   0  0  0  0  0  0  0  0  0  0  0  0
  145.8337  128.9023  152.7573 H   0  0  0  0  0  0  0  0  0  0  0  0
  151.5095  135.6170  153.7138 H   0  0  0  0  0  0  0  0  0  0  0  0
  150.1372  137.5975  153.6628 H   0  0  0  0  0  0  0  0  0  0  0  0
  149.8221  137.5055  155.4002 H   0  0  0  0  0  0  0  0  0  0  0  0
  152.4740  138.1282  154.0586 H   0  0  0  0  0  0  0  0  0  0  0  0
  151.6564  139.0923  155.2967 H   0  0  0  0  0  0  0  0  0  0  0  0
  153.5534  137.2777  156.0368 H   0  0  0  0  0  0  0  0  0  0  0  0
  152.0704  137.4141  156.9861 H   0  0  0  0  0  0  0  0  0  0  0  0
  1  2  1  0  0  0  0
  1 22  1  0  0  0  0
  1 23  1  0  0  0  0
  1 24  1  0  0  0  0
  2  3  1  0  0  0  0
  2 25  1  0  0  0  0
  2 26  1  0  0  0  0
  3  4  1  0  0  0  0
  3 17  1  0  0  0  0
  3 27  1  0  0  0  0
  4  5  1  0  0  0  0
  4 28  1  0  0  0  0
  5  6  2  0  0  0  0
  5  7  1  0  0  0  0
  7  8  1  0  0  0  0
  7 29  1  0  0  0  0
  8 15  1  0  0  0  0
  8  9  2  0  0  0  0
  9 10  1  0  0  0  0
  9 11  1  0  0  0  0
 10 30  1  0  0  0  0
 10 31  1  0  0  0  0
 10 32  1  0  0  0  0
 11 12  2  0  0  0  0
 11 33  1  0  0  0  0
 12 13  1  0  0  0  0
 12 34  1  0  0  0  0
 13 14  1  0  0  0  0
 13 15  1  0  0  0  0
 14 35  1  0  0  0  0
 14 36  1  0  0  0  0
 14 37  1  0  0  0  0
 15 16  2  0  0  0  0
 17 21  1  0  0  0  0
 17 18  1  0  0  0  0
 17 38  1  0  0  0  0
 18 19  1  0  0  0  0
 18 39  1  0  0  0  0
 18 40  1  0  0  0  0
 19 20  1  0  0  0  0
 19 41  1  0  0  0  0
 19 42  1  0  0  0  0
 20 21  1  0  0  0  0
 20 43  1  0  0  0  0
 20 44  1  0  0  0  0
M  END
> <s_m_source_file>
AV-unprocessed.smi

> <i_m_source_file_index>
2925

> <i_lp_mmshare_version>
43012

> <i_f3d_flags>
0

> <s_epik_input>
TzFbQ0gyXVtDSDJdW0NIMl1bQ0BIXTFbQ0BIXShbQ0gyXVtDSDNdKVtOSF1DKD1PKVtOSF1jMmMoW0NIM10pW2NIXVtjSF1uKFtDSDNdKWMyPU8=

> <s_epik_cmdline>
J2VwaWtfcHl0aG9uJywgJy1waCcsICc3LjAnLCAnLXRuJywgJzgnLCAnLW1hJywgJzIwMCcsICctbWV0YWxfYmluZGluZycsICctaW1hZScsICc8aW5maWxlLm1hZT4nLCAnLW9tYWUnLCAnPG91dGZpbGUubWFlPic=

> <r_lp_tautomer_probability>
1

> <r_epik_Ionization_Penalty>
2.58789e-05

> <r_epik_Ionization_Penalty_Charging>
6.72534e-06

> <r_epik_Ionization_Penalty_Neutral>
1.91535e-05

> <r_epik_State_Penalty>
-0

> <r_epik_Charging_Adjusted_Penalty>
6.72534e-06

> <i_epik_Tot_Q>
0

> <i_epik_Tot_abs_Q>
0

> <r_epik_Metal_State_Penalty>
-0

> <b_epik_Metal_Only>
0

> <s_lp_Force_Field>
OPLS_2005

> <r_lp_Energy>
35.3317

> <b_lp_Chiralities_Consistent>
1

> <s_lp_Variant>
AV-unprocessed.smi:2925-4

> <Gold.Version>
5.8.1

> <Gold.Id.Protein>
6NUR|6NUR_protein|mol2

> <Gold.PLP.Fitness>
42.3103

> <Gold.PLP.PLP>
-34.1842

> <Gold.PLP.part.hbond>
-2.9968

> <Gold.PLP.part.metal>
0.0000

> <Gold.PLP.part.buried>
-4.5733

> <Gold.PLP.part.nonpolar>
-26.9887

> <Gold.PLP.part.repulsive>
0.1590

> <Gold.PLP.ligand.clash>
0.0000

> <Gold.PLP.ligand.torsion>
0.5752

> <Gold.PLP.Chemscore.Hbond>
2.8640

> <Gold.PLP.Chemscore.CHOScore>
0.0000

> <Gold.PLP.Chemscore.Metal>
0.0000

> <Gold.Chemscore.Hbonds>
donor molecule, donor type, donor heavy atom, donor atom, acceptor molecule, acceptor atom, score
      L1  H     4    28       P1  7948  0.94
      L1  H     7    29       P1  7948  0.85
      P1  H 10752 10765       L1    21  0.47

> <Gold.PLP.Chemscore.Internal.Correction>
0.6845

> <Gold.Rescore>
     Score         DG    S(hbond)    S(metal)    S(lipo)     H(rot)  DE(clash)    DE(int)     intcor
     11.47     -16.92       2.02        0.00      69.74       1.36       0.06       5.40       ----

> <Gold.Chemscore.Fitness>
11.4671

> <Gold.Chemscore.DG>
-16.9203

> <Gold.Chemscore.ZeroCoef>
-5.4800

> <Gold.Chemscore.Hbond>
2.0229

> <Gold.Chemscore.Metal>
0.0000

> <Gold.Chemscore.Lipo>
69.7445

> <Gold.Chemscore.Internal_Hbond>
0.0000

> <Gold.Chemscore.DEClash>
0.0580

> <Gold.Chemscore.DEInternal>
5.3952

> <Gold.Chemscore.Rot>
1.3579

> <Gold.Chemscore.Internal.Correction>
   9.000000E+99

> <Gold.Chemscore.Hbonds>
donor molecule, donor type, donor heavy atom, donor atom, acceptor molecule, acceptor atom, score
      L1  H     4    28       P1  7948  0.27
      L1  H     7    29       P1  7948  0.21
      P1  H 10752 10765       L1    21  0.07

> <Gold.Chemscore.Hbond.Weighted>
-6.7565

> <Gold.Chemscore.Metal.Weighted>
-0.0000

> <Gold.Chemscore.Lipo.Weighted>
-8.1601

> <Gold.Chemscore.Internal_Hbond.Weighted>
0.0000

> <Gold.Chemscore.DEClash.Weighted>
0.0580

> <Gold.Chemscore.DEInternal.Weighted>
5.3952

> <Gold.Chemscore.Rot.Weighted>
3.4763

> <Gold.Chemscore.Internal.Correction.Weighted>
   9.000000E+99

> <Gold.Protein.RotatedTorsions>
[ 6907 6896 6895 6894 ] final  160.14 input  -60.11 | X-H torsion
[ 7974 7965 7964 7962 ] final   55.63 input  175.53 | X-H torsion
[ 8008 7997 7996 7995 ] final  -74.31 input   59.86 | X-H torsion
[ 10167 10162 10161 10158 ] final  -88.29 input  -65.29 | X-H torsion
[ 10718 10713 10712 10709 ] final -113.84 input   66.30 | X-H torsion
[ 10763 10752 10751 10750 ] final -135.98 input  -60.55 | X-H torsion
[ 11005 11000 10999 10996 ] final   81.31 input  -57.11 | X-H torsion

> <Gold.Protein.ActiveResidues>
 VAL166  LYS551  ARG553  GLY616  TRP617  ASP618  TYR619  PRO620  LYS621  CYS622 
 ASP623  PHE694  ASN695  SER759  ASP760  ASP761  ALA762  ILE779  LEU786  VAL792 
 PHE793  MET794  SER795  GLU796  ALA797  LYS798  CYS799  TRP800  GLU811  SER814 

> <Gold.Protein.RotatedAtoms>
  151.9751  133.3739  159.4085 H   0  0  0  0  0  0  0  0  0  0  0  0  # atno 6907 bound_to 6896
  150.6943  134.4098  159.5166 H   0  0  0  0  0  0  0  0  0  0  0  0  # atno 6908 bound_to 6896
  152.1809  134.8755  160.0577 H   0  0  0  0  0  0  0  0  0  0  0  0  # atno 6909 bound_to 6896
  145.9483  139.3949  143.0321 H   0  0  0  0  0  0  0  0  0  0  0  0  # atno 7974 bound_to 7965
  154.5320  140.0763  156.8362 H   0  0  0  0  0  0  0  0  0  0  0  0  # atno 8008 bound_to 7997
  155.3355  140.3404  155.4221 H   0  0  0  0  0  0  0  0  0  0  0  0  # atno 8009 bound_to 7997
  156.1791  140.1646  156.8294 H   0  0  0  0  0  0  0  0  0  0  0  0  # atno 8010 bound_to 7997
  140.3762  143.2770  151.9440 H   0  0  0  0  0  0  0  0  0  0  0  0  # atno 10167 bound_to 10162
  156.0792  130.5995  150.8696 H   0  0  0  0  0  0  0  0  0  0  0  0  # atno 10718 bound_to 10713
  154.8693  135.3686  154.4987 H   0  0  0  0  0  0  0  0  0  0  0  0  # atno 10763 bound_to 10752
  153.5629  135.7022  153.5544 H   0  0  0  0  0  0  0  0  0  0  0  0  # atno 10764 bound_to 10752
  153.3612  135.4046  155.1683 H   0  0  0  0  0  0  0  0  0  0  0  0  # atno 10765 bound_to 10752
  139.9102  134.7987  156.2025 H   0  0  0  0  0  0  0  0  0  0  0  0  # atno 11005 bound_to 11000
  145.8206  140.9681  143.0901 LP  0  0  0  0  0  0  0  0  0  0  0  0  # atno 17320 bound_to 7965
  144.6791  140.0036  143.7484 LP  0  0  0  0  0  0  0  0  0  0  0  0  # atno 17321 bound_to 7965
  139.4799  144.5861  151.7850 LP  0  0  0  0  0  0  0  0  0  0  0  0  # atno 17342 bound_to 10162
  140.4984  144.1206  150.5965 LP  0  0  0  0  0  0  0  0  0  0  0  0  # atno 17343 bound_to 10162
  157.5901  131.0944  150.9132 LP  0  0  0  0  0  0  0  0  0  0  0  0  # atno 17370 bound_to 10713
  156.9309  130.5349  149.5279 LP  0  0  0  0  0  0  0  0  0  0  0  0  # atno 17371 bound_to 10713
  141.0516  133.6886  156.1782 LP  0  0  0  0  0  0  0  0  0  0  0  0  # atno 17394 bound_to 11000
  140.6801  134.4776  157.5589 LP  0  0  0  0  0  0  0  0  0  0  0  0  # atno 17395 bound_to 11000

$$$$
