AV-unprocessed.smi:2252|AV-procd|sdf|9114|dock6
  -GOLD-   2272012323D 1   1.00000     0.00000
 Structure written by MMmdl.
 44 46  0  0  0  0  0  0  0  0  1 V2000
  151.6097  145.1524  160.0788 C   0  0  0  0  0  0  0  0  0  0  0  0
  151.9912  143.7531  160.0574 N   0  0  0  0  0  0  0  0  0  0  0  0
  152.7044  143.0856  161.0444 C   0  0  0  0  0  0  0  0  0  0  0  0
  152.8344  141.7838  160.6240 C   0  0  0  0  0  0  0  0  0  0  0  0
  152.2124  141.6329  159.3892 N   0  0  0  0  0  0  0  0  0  0  0  0
  151.7365  142.8403  159.0999 C   0  0  0  0  0  0  0  0  0  0  0  0
  150.9611  143.1530  157.8587 C   0  0  0  0  0  0  0  0  0  0  0  0
  151.0985  142.0562  156.7901 C   0  0  0  0  0  0  0  0  0  0  0  0
  149.9247  142.0036  155.9281 N   0  0  0  0  0  0  0  0  0  0  0  0
  149.7156  141.0855  154.9715 C   0  0  0  0  0  0  0  0  0  0  0  0
  150.5156  140.1841  154.7173 O   0  0  0  0  0  0  0  0  0  0  0  0
  148.3843  141.1808  154.2044 C   0  0  1  0  0  0  0  0  0  0  0  0
  147.6497  139.8227  154.2556 C   0  0  0  0  0  0  0  0  0  0  0  0
  148.2939  138.5717  153.6921 C   0  0  0  0  0  0  0  0  0  0  0  0
  147.1094  139.1829  152.9941 C   0  0  0  0  0  0  0  0  0  0  0  0
  147.5111  142.2704  154.7080 N   0  0  0  0  0  0  0  0  0  0  0  0
  146.3917  142.6296  153.8381 C   0  0  0  0  0  0  0  0  0  0  0  0
  145.4897  143.4829  154.7308 C   0  0  0  0  0  0  0  0  0  0  0  0
  145.8284  143.0505  156.1540 C   0  0  0  0  0  0  0  0  0  0  0  0
  146.8802  141.9545  155.9861 C   0  0  0  0  0  0  0  0  0  0  0  0
  151.8439  145.5920  161.0488 H   0  0  0  0  0  0  0  0  0  0  0  0
  150.5385  145.2494  159.8994 H   0  0  0  0  0  0  0  0  0  0  0  0
  152.1540  145.6940  159.3048 H   0  0  0  0  0  0  0  0  0  0  0  0
  153.0484  143.5777  161.9423 H   0  0  0  0  0  0  0  0  0  0  0  0
  153.3208  140.9517  161.1115 H   0  0  0  0  0  0  0  0  0  0  0  0
  149.9136  143.3102  158.1176 H   0  0  0  0  0  0  0  0  0  0  0  0
  151.3177  144.1033  157.4593 H   0  0  0  0  0  0  0  0  0  0  0  0
  151.9718  142.2503  156.1669 H   0  0  0  0  0  0  0  0  0  0  0  0
  151.2607  141.0832  157.2569 H   0  0  0  0  0  0  0  0  0  0  0  0
  149.2145  142.7056  156.0776 H   0  0  0  0  0  0  0  0  0  0  0  0
  148.6330  141.3961  153.1630 H   0  0  0  0  0  0  0  0  0  0  0  0
  147.0665  139.6707  155.1625 H   0  0  0  0  0  0  0  0  0  0  0  0
  149.2636  138.6694  153.2078 H   0  0  0  0  0  0  0  0  0  0  0  0
  148.1349  137.6407  154.2320 H   0  0  0  0  0  0  0  0  0  0  0  0
  146.1572  138.6616  153.0668 H   0  0  0  0  0  0  0  0  0  0  0  0
  147.2897  139.6925  152.0496 H   0  0  0  0  0  0  0  0  0  0  0  0
  146.7082  143.1718  152.9463 H   0  0  0  0  0  0  0  0  0  0  0  0
  145.8602  141.7300  153.5216 H   0  0  0  0  0  0  0  0  0  0  0  0
  145.7119  144.5427  154.5990 H   0  0  0  0  0  0  0  0  0  0  0  0
  144.4361  143.3328  154.4933 H   0  0  0  0  0  0  0  0  0  0  0  0
  146.2418  143.8920  156.7115 H   0  0  0  0  0  0  0  0  0  0  0  0
  144.9542  142.6892  156.6967 H   0  0  0  0  0  0  0  0  0  0  0  0
  146.3962  140.9770  155.9391 H   0  0  0  0  0  0  0  0  0  0  0  0
  147.5938  141.9429  156.8105 H   0  0  0  0  0  0  0  0  0  0  0  0
  1  2  1  0  0  0  0
  1 21  1  0  0  0  0
  1 22  1  0  0  0  0
  1 23  1  0  0  0  0
  2  6  1  0  0  0  0
  2  3  1  0  0  0  0
  3  4  2  0  0  0  0
  3 24  1  0  0  0  0
  4  5  1  0  0  0  0
  4 25  1  0  0  0  0
  5  6  2  0  0  0  0
  6  7  1  0  0  0  0
  7  8  1  0  0  0  0
  7 26  1  0  0  0  0
  7 27  1  0  0  0  0
  8  9  1  0  0  0  0
  8 28  1  0  0  0  0
  8 29  1  0  0  0  0
  9 10  1  0  0  0  0
  9 30  1  0  0  0  0
 10 11  2  0  0  0  0
 10 12  1  0  0  0  0
 12 13  1  0  0  0  0
 12 16  1  0  0  0  0
 12 31  1  0  0  0  0
 13 15  1  0  0  0  0
 13 14  1  0  0  0  0
 13 32  1  0  0  0  0
 14 15  1  0  0  0  0
 14 33  1  0  0  0  0
 14 34  1  0  0  0  0
 15 35  1  0  0  0  0
 15 36  1  0  0  0  0
 16 20  1  0  0  0  0
 16 17  1  0  0  0  0
 17 18  1  0  0  0  0
 17 37  1  0  0  0  0
 17 38  1  0  0  0  0
 18 19  1  0  0  0  0
 18 39  1  0  0  0  0
 18 40  1  0  0  0  0
 19 20  1  0  0  0  0
 19 41  1  0  0  0  0
 19 42  1  0  0  0  0
 20 43  1  0  0  0  0
 20 44  1  0  0  0  0
M  END
> <s_m_source_file>
AV-unprocessed.smi

> <i_m_source_file_index>
2252

> <i_lp_mmshare_version>
43012

> <i_f3d_flags>
0

> <s_epik_input>
W0NIM11uMVtjSF1bY0hdbmMxW0NIMl1bQ0gyXVtOSF1DKD1PKVtDQEhdKFtDSF0yW0NIMl1bQ0gyXTIpTjNbQ0gyXVtDSDJdW0NIMl1bQ0gyXTM=

> <s_epik_cmdline>
J2VwaWtfcHl0aG9uJywgJy1waCcsICc3LjAnLCAnLXRuJywgJzgnLCAnLW1hJywgJzIwMCcsICctbWV0YWxfYmluZGluZycsICctaW1hZScsICc8aW5maWxlLm1hZT4nLCAnLW9tYWUnLCAnPG91dGZpbGUubWFlPic=

> <r_epik_Ionization_Penalty>
3.7689

> <r_epik_Ionization_Penalty_Charging>
1.29411

> <r_epik_Ionization_Penalty_Neutral>
2.4748

> <r_epik_State_Penalty>
3.85943

> <r_epik_Charging_Adjusted_Penalty>
5.15353

> <i_epik_Tot_Q>
0

> <i_epik_Tot_abs_Q>
0

> <r_epik_Metal_State_Penalty>
2.88358

> <b_epik_Metal_Only>
1

> <s_lp_Force_Field>
OPLS_2005

> <r_lp_Energy>
29.995

> <b_lp_Chiralities_Consistent>
1

> <s_lp_Variant>
AV-unprocessed.smi:2252-12

> <Gold.Version>
5.8.1

> <Gold.Id.Protein>
6NUR|6NUR_protein|mol2

> <Gold.PLP.Fitness>
48.5193

> <Gold.PLP.PLP>
-44.3954

> <Gold.PLP.part.hbond>
-2.0000

> <Gold.PLP.part.metal>
0.0000

> <Gold.PLP.part.buried>
-6.0427

> <Gold.PLP.part.nonpolar>
-36.7555

> <Gold.PLP.part.repulsive>
1.5483

> <Gold.PLP.ligand.clash>
0.0000

> <Gold.PLP.ligand.torsion>
1.2532

> <Gold.PLP.Chemscore.Hbond>
1.8160

> <Gold.PLP.Chemscore.CHOScore>
0.0000

> <Gold.PLP.Chemscore.Metal>
0.0000

> <Gold.Chemscore.Hbonds>
donor molecule, donor type, donor heavy atom, donor atom, acceptor molecule, acceptor atom, score
      L1  H     9    30       P1  8028  0.68
      P1  H  7989  7998       L1    11  1.00

> <Gold.PLP.Chemscore.Internal.Correction>
1.1824

> <Gold.Rescore>
     Score         DG    S(hbond)    S(metal)    S(lipo)     H(rot)  DE(clash)    DE(int)     intcor
     13.25     -16.62       1.42        0.00      95.45       1.86       0.59       2.79       ----

> <Gold.Chemscore.Fitness>
13.2463

> <Gold.Chemscore.DG>
-16.6236

> <Gold.Chemscore.ZeroCoef>
-5.4800

> <Gold.Chemscore.Hbond>
1.4199

> <Gold.Chemscore.Metal>
0.0000

> <Gold.Chemscore.Lipo>
95.4493

> <Gold.Chemscore.Internal_Hbond>
0.0000

> <Gold.Chemscore.DEClash>
0.5876

> <Gold.Chemscore.DEInternal>
2.7897

> <Gold.Chemscore.Rot>
1.8619

> <Gold.Chemscore.Internal.Correction>
   9.000000E+99

> <Gold.Chemscore.Hbonds>
donor molecule, donor type, donor heavy atom, donor atom, acceptor molecule, acceptor atom, score
      L1  H     9    30       P1  8028  0.65
      P1  H  7989  7998       L1    11  0.50

> <Gold.Chemscore.Hbond.Weighted>
-4.7425

> <Gold.Chemscore.Metal.Weighted>
-0.0000

> <Gold.Chemscore.Lipo.Weighted>
-11.1676

> <Gold.Chemscore.Internal_Hbond.Weighted>
0.0000

> <Gold.Chemscore.DEClash.Weighted>
0.5876

> <Gold.Chemscore.DEInternal.Weighted>
2.7897

> <Gold.Chemscore.Rot.Weighted>
4.7665

> <Gold.Chemscore.Internal.Correction.Weighted>
   9.000000E+99

> <Gold.Protein.RotatedTorsions>
[ 6907 6896 6895 6894 ] final  -33.40 input  -60.11 | X-H torsion
[ 7974 7965 7964 7962 ] final -137.21 input  175.53 | X-H torsion
[ 8008 7997 7996 7995 ] final -117.72 input   59.86 | X-H torsion
[ 10167 10162 10161 10158 ] final   11.07 input  -65.29 | X-H torsion
[ 10718 10713 10712 10709 ] final   11.55 input   66.30 | X-H torsion
[ 10763 10752 10751 10750 ] final  107.90 input  -60.55 | X-H torsion
[ 11005 11000 10999 10996 ] final    9.22 input  -57.11 | X-H torsion

> <Gold.Protein.ActiveResidues>
 VAL166  LYS551  ARG553  GLY616  TRP617  ASP618  TYR619  PRO620  LYS621  CYS622 
 ASP623  PHE694  ASN695  SER759  ASP760  ASP761  ALA762  ILE779  LEU786  VAL792 
 PHE793  MET794  SER795  GLU796  ALA797  LYS798  CYS799  TRP800  GLU811  SER814 

> <Gold.Protein.RotatedAtoms>
  151.0661  134.9768  159.8284 H   0  0  0  0  0  0  0  0  0  0  0  0  # atno 6907 bound_to 6896
  152.5402  134.2357  159.8852 H   0  0  0  0  0  0  0  0  0  0  0  0  # atno 6908 bound_to 6896
  151.2379  133.4372  159.2640 H   0  0  0  0  0  0  0  0  0  0  0  0  # atno 6909 bound_to 6896
  144.8861  140.6577  143.5175 H   0  0  0  0  0  0  0  0  0  0  0  0  # atno 7974 bound_to 7965
  155.0883  140.0395  157.2660 H   0  0  0  0  0  0  0  0  0  0  0  0  # atno 8008 bound_to 7997
  154.6852  140.2641  155.6843 H   0  0  0  0  0  0  0  0  0  0  0  0  # atno 8009 bound_to 7997
  156.2709  140.2770  156.1411 H   0  0  0  0  0  0  0  0  0  0  0  0  # atno 8010 bound_to 7997
  140.6155  143.8317  150.7113 H   0  0  0  0  0  0  0  0  0  0  0  0  # atno 10167 bound_to 10162
  156.9972  130.6065  149.5692 H   0  0  0  0  0  0  0  0  0  0  0  0  # atno 10718 bound_to 10713
  153.4131  135.3829  155.2063 H   0  0  0  0  0  0  0  0  0  0  0  0  # atno 10763 bound_to 10752
  154.8739  135.3799  154.4476 H   0  0  0  0  0  0  0  0  0  0  0  0  # atno 10764 bound_to 10752
  153.4987  135.7088  153.5906 H   0  0  0  0  0  0  0  0  0  0  0  0  # atno 10765 bound_to 10752
  140.5281  134.0493  155.7865 H   0  0  0  0  0  0  0  0  0  0  0  0  # atno 11005 bound_to 11000
  145.3866  139.1625  143.4251 LP  0  0  0  0  0  0  0  0  0  0  0  0  # atno 17320 bound_to 7965
  146.3025  140.3952  142.8699 LP  0  0  0  0  0  0  0  0  0  0  0  0  # atno 17321 bound_to 7965
  140.1895  143.4048  152.1873 LP  0  0  0  0  0  0  0  0  0  0  0  0  # atno 17342 bound_to 10162
  139.5395  144.7243  151.4781 LP  0  0  0  0  0  0  0  0  0  0  0  0  # atno 17343 bound_to 10162
  156.0185  130.5279  150.8205 LP  0  0  0  0  0  0  0  0  0  0  0  0  # atno 17370 bound_to 10713
  157.5416  131.0941  150.9819 LP  0  0  0  0  0  0  0  0  0  0  0  0  # atno 17371 bound_to 10713
  141.1297  133.9324  157.2562 LP  0  0  0  0  0  0  0  0  0  0  0  0  # atno 17394 bound_to 11000
  139.9569  135.0163  156.9153 LP  0  0  0  0  0  0  0  0  0  0  0  0  # atno 17395 bound_to 11000

$$$$
