AV-unprocessed.smi:1740|AV-procd|sdf|7012|dock5
  -GOLD-   22720 8223D 1   1.00000     0.00000
 Structure written by MMmdl.
 51 53  0  0  0  0  0  0  0  0  3 V2000
  142.1548  132.4842  148.1742 N   0  5  0  0  0  0  0  0  0  0  0  0
  143.3716  133.0637  148.1310 C   0  0  0  0  0  0  0  0  0  0  0  0
  143.7147  134.0536  147.4890 O   0  0  0  0  0  0  0  0  0  0  0  0
  144.3934  132.3406  149.0152 C   0  0  0  0  0  0  0  0  0  0  0  0
  145.1592  133.3128  149.8366 N   0  3  2  0  0  0  0  0  0  0  0  0
  145.9055  132.6604  150.9418 C   0  0  0  0  0  0  0  0  0  0  0  0
  146.8064  133.6693  151.6743 C   0  0  0  0  0  0  0  0  0  0  0  0
  145.9939  134.8630  152.2020 C   0  0  1  0  0  0  0  0  0  0  0  0
  146.8889  135.8434  152.8100 N   0  0  0  0  0  0  0  0  0  0  0  0
  146.5819  137.1270  153.0457 C   0  0  0  0  0  0  0  0  0  0  0  0
  145.4827  137.6202  152.7931 O   0  0  0  0  0  0  0  0  0  0  0  0
  147.6173  137.7803  153.5992 N   0  0  0  0  0  0  0  0  0  0  0  0
  147.6935  139.1489  153.9866 C   0  0  0  0  0  0  0  0  0  0  0  0
  146.6188  140.0462  153.7697 C   0  0  0  0  0  0  0  0  0  0  0  0
  146.7719  141.4019  154.1074 C   0  0  0  0  0  0  0  0  0  0  0  0
  148.0041  141.8199  154.6365 C   0  0  0  0  0  0  0  0  0  0  0  0
  149.0410  140.9826  154.8363 N   0  0  0  0  0  0  0  0  0  0  0  0
  148.9033  139.6691  154.5293 C   0  0  0  0  0  0  0  0  0  0  0  0
  150.0160  138.8337  154.7776 N   0  0  0  0  0  0  0  0  0  0  0  0
  150.4311  138.6564  156.1661 C   0  0  0  0  0  0  0  0  0  0  0  0
  151.9625  138.6044  156.1570 C   0  0  0  0  0  0  0  0  0  0  0  0
  152.3007  138.2099  154.7230 C   0  0  0  0  0  0  0  0  0  0  0  0
  151.2003  138.9065  153.9279 C   0  0  0  0  0  0  0  0  0  0  0  0
  145.1975  135.4950  151.0453 C   0  0  0  0  0  0  0  0  0  0  0  0
  144.3320  134.4472  150.3271 C   0  0  0  0  0  0  0  0  0  0  0  0
  141.6876  132.2550  147.2886 H   0  0  0  0  0  0  0  0  0  0  0  0
  143.9001  131.6064  149.6543 H   0  0  0  0  0  0  0  0  0  0  0  0
  145.0644  131.7819  148.3605 H   0  0  0  0  0  0  0  0  0  0  0  0
  145.2006  132.2051  151.6394 H   0  0  0  0  0  0  0  0  0  0  0  0
  146.5232  131.8551  150.5423 H   0  0  0  0  0  0  0  0  0  0  0  0
  147.3205  133.1727  152.4981 H   0  0  0  0  0  0  0  0  0  0  0  0
  147.5824  134.0204  150.9922 H   0  0  0  0  0  0  0  0  0  0  0  0
  145.2966  134.4957  152.9578 H   0  0  0  0  0  0  0  0  0  0  0  0
  147.8145  135.5244  153.0564 H   0  0  0  0  0  0  0  0  0  0  0  0
  148.4212  137.2196  153.8413 H   0  0  0  0  0  0  0  0  0  0  0  0
  145.6882  139.7242  153.3283 H   0  0  0  0  0  0  0  0  0  0  0  0
  145.9681  142.1061  153.9522 H   0  0  0  0  0  0  0  0  0  0  0  0
  148.1645  142.8545  154.9011 H   0  0  0  0  0  0  0  0  0  0  0  0
  150.0635  139.4552  156.8121 H   0  0  0  0  0  0  0  0  0  0  0  0
  150.0293  137.7122  156.5346 H   0  0  0  0  0  0  0  0  0  0  0  0
  152.3646  139.5966  156.3662 H   0  0  0  0  0  0  0  0  0  0  0  0
  152.3679  137.9141  156.8972 H   0  0  0  0  0  0  0  0  0  0  0  0
  153.3028  138.5133  154.4194 H   0  0  0  0  0  0  0  0  0  0  0  0
  152.2206  137.1283  154.6045 H   0  0  0  0  0  0  0  0  0  0  0  0
  151.0285  138.4239  152.9654 H   0  0  0  0  0  0  0  0  0  0  0  0
  151.4880  139.9426  153.7458 H   0  0  0  0  0  0  0  0  0  0  0  0
  144.5619  136.2986  151.4188 H   0  0  0  0  0  0  0  0  0  0  0  0
  145.8820  135.9509  150.3282 H   0  0  0  0  0  0  0  0  0  0  0  0
  143.8145  134.9243  149.4943 H   0  0  0  0  0  0  0  0  0  0  0  0
  143.5621  134.0715  151.0026 H   0  0  0  0  0  0  0  0  0  0  0  0
  145.8526  133.6986  149.2105 H   0  0  0  0  0  0  0  0  0  0  0  0
  1  2  1  0  0  0  0
  1 26  1  0  0  0  0
  2  3  2  0  0  0  0
  2  4  1  0  0  0  0
  4  5  1  0  0  0  0
  4 27  1  0  0  0  0
  4 28  1  0  0  0  0
  5 25  1  0  0  0  0
  5  6  1  0  0  0  0
  5 51  1  0  0  0  0
  6  7  1  0  0  0  0
  6 29  1  0  0  0  0
  6 30  1  0  0  0  0
  7  8  1  0  0  0  0
  7 31  1  0  0  0  0
  7 32  1  0  0  0  0
  8  9  1  0  0  0  0
  8 24  1  0  0  0  0
  8 33  1  0  0  0  0
  9 10  1  0  0  0  0
  9 34  1  0  0  0  0
 10 11  2  0  0  0  0
 10 12  1  0  0  0  0
 12 13  1  0  0  0  0
 12 35  1  0  0  0  0
 13 18  1  0  0  0  0
 13 14  2  0  0  0  0
 14 15  1  0  0  0  0
 14 36  1  0  0  0  0
 15 16  2  0  0  0  0
 15 37  1  0  0  0  0
 16 17  1  0  0  0  0
 16 38  1  0  0  0  0
 17 18  2  0  0  0  0
 18 19  1  0  0  0  0
 19 23  1  0  0  0  0
 19 20  1  0  0  0  0
 20 21  1  0  0  0  0
 20 39  1  0  0  0  0
 20 40  1  0  0  0  0
 21 22  1  0  0  0  0
 21 41  1  0  0  0  0
 21 42  1  0  0  0  0
 22 23  1  0  0  0  0
 22 43  1  0  0  0  0
 22 44  1  0  0  0  0
 23 45  1  0  0  0  0
 23 46  1  0  0  0  0
 24 25  1  0  0  0  0
 24 47  1  0  0  0  0
 24 48  1  0  0  0  0
 25 49  1  0  0  0  0
 25 50  1  0  0  0  0
M  CHG  1   1  -1
M  CHG  1   5   1
M  END
> <s_m_source_file>
AV-unprocessed.smi

> <i_m_source_file_index>
1740

> <i_lp_mmshare_version>
43012

> <i_f3d_flags>
0

> <s_epik_input>
W05IMl1DKD1PKVtDSDJdTjFbQ0gyXVtDSDJdW0NIXShbQ0gyXVtDSDJdMSlbTkhdQyg9TylbTkhdYzJbY0hdW2NIXVtjSF1uYzJOM1tDSDJdW0NIMl1bQ0gyXVtDSDJdMw==

> <s_epik_cmdline>
J2VwaWtfcHl0aG9uJywgJy1waCcsICc3LjAnLCAnLXRuJywgJzgnLCAnLW1hJywgJzIwMCcsICctbWV0YWxfYmluZGluZycsICctaW1hZScsICc8aW5maWxlLm1hZT4nLCAnLW9tYWUnLCAnPG91dGZpbGUubWFlPic=

> <r_lp_tautomer_probability>
1

> <r_epik_Ionization_Penalty>
5.80652

> <r_epik_Ionization_Penalty_Charging>
5.7288

> <r_epik_Ionization_Penalty_Neutral>
0.0777157

> <r_epik_State_Penalty>
6.60246

> <r_epik_Charging_Adjusted_Penalty>
12.3313

> <i_epik_Tot_Q>
0

> <i_epik_Tot_abs_Q>
2

> <r_epik_Metal_State_Penalty>
2.64988

> <b_epik_Metal_Only>
1

> <s_lp_Force_Field>
OPLS_2005

> <r_lp_Energy>
35.8158

> <b_lp_Chiralities_Consistent>
1

> <s_lp_Variant>
AV-unprocessed.smi:1740-7

> <Gold.Version>
5.8.1

> <Gold.Id.Protein>
6NUR|6NUR_protein|mol2

> <Gold.PLP.Fitness>
46.4823

> <Gold.PLP.PLP>
-34.7381

> <Gold.PLP.part.hbond>
-7.3913

> <Gold.PLP.part.metal>
0.0000

> <Gold.PLP.part.buried>
-1.0419

> <Gold.PLP.part.nonpolar>
-33.5369

> <Gold.PLP.part.repulsive>
6.7415

> <Gold.PLP.ligand.clash>
0.0000

> <Gold.PLP.ligand.torsion>
0.7522

> <Gold.PLP.Chemscore.Hbond>
3.3071

> <Gold.PLP.Chemscore.CHOScore>
1.0000

> <Gold.PLP.Chemscore.Metal>
0.0000

> <Gold.Chemscore.Hbonds>
donor molecule, donor type, donor heavy atom, donor atom, acceptor molecule, acceptor atom, score
      L1  H     1    26       P1 10195  0.61
      L1  H     5    51       P1  7921  0.78
      L1  H     9    34       P1  7948  0.16
      L1  H    12    35       P1  7948  0.03
      P1  H  7918  7932       L1     3  0.65
      P1  H 10192 10197       L1     3  0.96
      L1  C    16    38       P1  8028  1.00

> <Gold.PLP.Chemscore.Internal.Correction>
0.3274

> <Gold.Rescore>
     Score         DG    S(hbond)    S(metal)    S(lipo)     H(rot)  DE(clash)    DE(int)     intcor
      6.40     -15.70       1.59        0.00      89.30       2.16       4.32       4.99       ----

> <Gold.Chemscore.Fitness>
6.3973

> <Gold.Chemscore.DG>
-15.7030

> <Gold.Chemscore.ZeroCoef>
-5.4800

> <Gold.Chemscore.Hbond>
1.5854

> <Gold.Chemscore.Metal>
0.0000

> <Gold.Chemscore.Lipo>
89.2968

> <Gold.Chemscore.Internal_Hbond>
0.0000

> <Gold.Chemscore.DEClash>
4.3177

> <Gold.Chemscore.DEInternal>
4.9880

> <Gold.Chemscore.Rot>
2.1562

> <Gold.Chemscore.Internal.Correction>
   9.000000E+99

> <Gold.Chemscore.Hbonds>
donor molecule, donor type, donor heavy atom, donor atom, acceptor molecule, acceptor atom, score
      L1  H     1    26       P1 10195  0.57
      L1  H     5    51       P1  7921  0.13
      L1  H     9    34       P1  7948  0.17
      L1  H    12    35       P1  7948  0.04
      P1  H  7918  7932       L1     3  0.28
      P1  H 10192 10197       L1     3  0.54

> <Gold.Chemscore.Hbond.Weighted>
-5.2951

> <Gold.Chemscore.Metal.Weighted>
-0.0000

> <Gold.Chemscore.Lipo.Weighted>
-10.4477

> <Gold.Chemscore.Internal_Hbond.Weighted>
0.0000

> <Gold.Chemscore.DEClash.Weighted>
4.3177

> <Gold.Chemscore.DEInternal.Weighted>
4.9880

> <Gold.Chemscore.Rot.Weighted>
5.5198

> <Gold.Chemscore.Internal.Correction.Weighted>
   9.000000E+99

> <Gold.Protein.RotatedTorsions>
[ 6907 6896 6895 6894 ] final -130.65 input  -60.11 | X-H torsion
[ 7974 7965 7964 7962 ] final -126.13 input  175.53 | X-H torsion
[ 8008 7997 7996 7995 ] final   93.47 input   59.86 | X-H torsion
[ 10167 10162 10161 10158 ] final  135.25 input  -65.29 | X-H torsion
[ 10718 10713 10712 10709 ] final -148.64 input   66.30 | X-H torsion
[ 10763 10752 10751 10750 ] final -127.47 input  -60.55 | X-H torsion
[ 11005 11000 10999 10996 ] final  -25.30 input  -57.11 | X-H torsion

> <Gold.Protein.ActiveResidues>
 VAL166  LYS551  ARG553  GLY616  TRP617  ASP618  TYR619  PRO620  LYS621  CYS622 
 ASP623  PHE694  ASN695  SER759  ASP760  ASP761  ALA762  ILE779  LEU786  VAL792 
 PHE793  MET794  SER795  GLU796  ALA797  LYS798  CYS799  TRP800  GLU811  SER814 

> <Gold.Protein.RotatedAtoms>
  150.9421  133.6645  159.2788 H   0  0  0  0  0  0  0  0  0  0  0  0  # atno 6907 bound_to 6896
  151.4030  135.0972  159.9571 H   0  0  0  0  0  0  0  0  0  0  0  0  # atno 6908 bound_to 6896
  152.5074  133.8911  159.7449 H   0  0  0  0  0  0  0  0  0  0  0  0  # atno 6909 bound_to 6896
  144.9904  140.7726  143.4558 H   0  0  0  0  0  0  0  0  0  0  0  0  # atno 7974 bound_to 7965
  156.0471  140.3312  155.7309 H   0  0  0  0  0  0  0  0  0  0  0  0  # atno 8008 bound_to 7997
  155.5657  140.0623  157.2836 H   0  0  0  0  0  0  0  0  0  0  0  0  # atno 8009 bound_to 7997
  154.4419  140.1869  156.0816 H   0  0  0  0  0  0  0  0  0  0  0  0  # atno 8010 bound_to 7997
  139.5224  144.6526  151.5256 H   0  0  0  0  0  0  0  0  0  0  0  0  # atno 10167 bound_to 10162
  156.4229  130.8037  151.2261 H   0  0  0  0  0  0  0  0  0  0  0  0  # atno 10718 bound_to 10713
  154.8752  135.3961  154.3599 H   0  0  0  0  0  0  0  0  0  0  0  0  # atno 10763 bound_to 10752
  153.4373  135.7026  153.6197 H   0  0  0  0  0  0  0  0  0  0  0  0  # atno 10764 bound_to 10752
  153.4793  135.3773  155.2403 H   0  0  0  0  0  0  0  0  0  0  0  0  # atno 10765 bound_to 10752
  140.8925  133.7579  156.0439 H   0  0  0  0  0  0  0  0  0  0  0  0  # atno 11005 bound_to 11000
  145.2294  139.2122  143.5051 LP  0  0  0  0  0  0  0  0  0  0  0  0  # atno 17320 bound_to 7965
  146.3430  140.2168  142.8591 LP  0  0  0  0  0  0  0  0  0  0  0  0  # atno 17321 bound_to 7965
  140.6338  143.9024  150.6629 LP  0  0  0  0  0  0  0  0  0  0  0  0  # atno 17342 bound_to 10162
  140.2336  143.3716  152.1545 LP  0  0  0  0  0  0  0  0  0  0  0  0  # atno 17343 bound_to 10162
  157.7508  131.0222  150.3784 LP  0  0  0  0  0  0  0  0  0  0  0  0  # atno 17370 bound_to 10713
  156.4105  130.3933  149.6895 LP  0  0  0  0  0  0  0  0  0  0  0  0  # atno 17371 bound_to 10713
  140.8330  134.3156  157.5342 LP  0  0  0  0  0  0  0  0  0  0  0  0  # atno 17394 bound_to 11000
  139.8731  134.9374  156.3685 LP  0  0  0  0  0  0  0  0  0  0  0  0  # atno 17395 bound_to 11000

$$$$
