AV-unprocessed.smi:280|AV-procd|sdf|2100|dock2
  -GOLD-   2262021383D 1   1.00000     0.00000
 Structure written by MMmdl.
 59 62  0  0  0  0  0  0  0  0  2 V2000
  150.7484  133.8219  153.7906 C   0  0  0  0  0  0  0  0  0  0  0  0
  149.9997  134.8369  154.6791 C   0  0  1  0  0  0  0  0  0  0  0  0
  150.8240  136.1447  154.7065 C   0  0  0  0  0  0  0  0  0  0  0  0
  150.1358  137.2185  155.4120 N   0  0  0  0  0  0  0  0  0  0  0  0
  150.9171  138.2815  155.7333 C   0  0  0  0  0  0  0  0  0  0  0  0
  152.2242  138.0899  156.0563 N   0  0  0  0  0  0  0  0  0  0  0  0
  153.0005  139.1296  156.3757 C   0  0  0  0  0  0  0  0  0  0  0  0
  152.6794  140.4232  156.4320 N   0  0  0  0  0  0  0  0  0  0  0  0
  151.3711  140.6245  156.1046 C   0  0  0  0  0  0  0  0  0  0  0  0
  150.4289  139.6189  155.7470 C   0  0  0  0  0  0  0  0  0  0  0  0
  149.1994  140.2026  155.4660 N   0  0  0  0  0  0  0  0  0  0  0  0
  149.4017  141.4785  155.6515 C   0  0  0  0  0  0  0  0  0  0  0  0
  150.6760  141.8206  156.0451 N   0  0  0  0  0  0  0  0  0  0  0  0
  151.1765  143.1611  156.3117 C   0  0  0  0  0  0  0  0  0  0  0  0
  151.1589  143.5487  157.8041 C   0  0  0  0  0  0  0  0  0  0  0  0
  149.8487  143.0855  158.4645 C   0  0  0  0  0  0  0  0  0  0  0  0
  149.8205  143.4177  159.8379 O   0  0  0  0  0  0  0  0  0  0  0  0
  152.4330  143.2257  158.5966 C   0  0  0  0  0  0  0  0  0  0  0  0
  152.5305  144.5744  159.1021 O   0  0  0  0  0  0  0  0  0  0  0  0
  151.5545  144.9970  158.1266 C   0  0  0  0  0  0  0  0  0  0  0  0
  148.7941  137.4869  154.9105 C   0  0  0  0  0  0  0  0  0  0  0  0
  147.9502  136.2090  154.9544 C   0  0  0  0  0  0  0  0  0  0  0  0
  148.5952  135.0851  154.2216 N   0  3  2  0  0  0  0  0  0  0  0  0
  147.7168  133.8779  154.2162 C   0  0  0  0  0  0  0  0  0  0  0  0
  146.9594  133.6866  152.8790 C   0  0  0  0  0  0  0  0  0  0  0  0
  147.8205  133.0136  151.7953 C   0  0  0  0  0  0  0  0  0  0  0  0
  145.6744  132.8741  153.1129 C   0  0  0  0  0  0  0  0  0  0  0  0
  146.5520  134.9508  152.3941 O   0  0  0  0  0  0  0  0  0  0  0  0
  151.7825  133.7143  154.1193 H   0  0  0  0  0  0  0  0  0  0  0  0
  150.7730  134.1488  152.7509 H   0  0  0  0  0  0  0  0  0  0  0  0
  150.3144  132.8239  153.8161 H   0  0  0  0  0  0  0  0  0  0  0  0
  149.9519  134.4439  155.6963 H   0  0  0  0  0  0  0  0  0  0  0  0
  151.7987  135.9456  155.1512 H   0  0  0  0  0  0  0  0  0  0  0  0
  151.0150  136.4820  153.6865 H   0  0  0  0  0  0  0  0  0  0  0  0
  154.0253  138.8912  156.6195 H   0  0  0  0  0  0  0  0  0  0  0  0
  148.6203  142.2088  155.5008 H   0  0  0  0  0  0  0  0  0  0  0  0
  152.1837  143.2446  155.9023 H   0  0  0  0  0  0  0  0  0  0  0  0
  150.5702  143.8578  155.7314 H   0  0  0  0  0  0  0  0  0  0  0  0
  148.9904  143.5619  157.9897 H   0  0  0  0  0  0  0  0  0  0  0  0
  149.6973  142.0120  158.3529 H   0  0  0  0  0  0  0  0  0  0  0  0
  149.3474  144.2293  159.9423 H   0  0  0  0  0  0  0  0  0  0  0  0
  152.2920  142.4901  159.3895 H   0  0  0  0  0  0  0  0  0  0  0  0
  153.2892  142.9644  157.9726 H   0  0  0  0  0  0  0  0  0  0  0  0
  152.0249  145.5279  157.2979 H   0  0  0  0  0  0  0  0  0  0  0  0
  150.7515  145.5913  158.5643 H   0  0  0  0  0  0  0  0  0  0  0  0
  148.3136  138.2598  155.5122 H   0  0  0  0  0  0  0  0  0  0  0  0
  148.8545  137.8616  153.8876 H   0  0  0  0  0  0  0  0  0  0  0  0
  147.7948  135.9174  155.9946 H   0  0  0  0  0  0  0  0  0  0  0  0
  146.9655  136.4152  154.5349 H   0  0  0  0  0  0  0  0  0  0  0  0
  148.2867  132.9763  154.4324 H   0  0  0  0  0  0  0  0  0  0  0  0
  146.9992  133.9355  155.0368 H   0  0  0  0  0  0  0  0  0  0  0  0
  148.1624  132.0300  152.1187 H   0  0  0  0  0  0  0  0  0  0  0  0
  148.7008  133.6079  151.5490 H   0  0  0  0  0  0  0  0  0  0  0  0
  147.2569  132.8757  150.8718 H   0  0  0  0  0  0  0  0  0  0  0  0
  145.9032  131.8742  153.4831 H   0  0  0  0  0  0  0  0  0  0  0  0
  145.1005  132.7586  152.1924 H   0  0  0  0  0  0  0  0  0  0  0  0
  145.0253  133.3550  153.8459 H   0  0  0  0  0  0  0  0  0  0  0  0
  147.2730  135.3393  151.9214 H   0  0  0  0  0  0  0  0  0  0  0  0
  148.6685  135.3817  153.2588 H   0  0  0  0  0  0  0  0  0  0  0  0
  1  2  1  0  0  0  0
  1 29  1  0  0  0  0
  1 30  1  0  0  0  0
  1 31  1  0  0  0  0
  2 23  1  0  0  0  0
  2  3  1  0  0  0  0
  2 32  1  0  0  0  0
  3  4  1  0  0  0  0
  3 33  1  0  0  0  0
  3 34  1  0  0  0  0
  4  5  1  0  0  0  0
  4 21  1  0  0  0  0
  5 10  1  0  0  0  0
  5  6  2  0  0  0  0
  6  7  1  0  0  0  0
  7  8  2  0  0  0  0
  7 35  1  0  0  0  0
  8  9  1  0  0  0  0
  9 13  1  0  0  0  0
  9 10  2  0  0  0  0
 10 11  1  0  0  0  0
 11 12  2  0  0  0  0
 12 13  1  0  0  0  0
 12 36  1  0  0  0  0
 13 14  1  0  0  0  0
 14 15  1  0  0  0  0
 14 37  1  0  0  0  0
 14 38  1  0  0  0  0
 15 20  1  0  0  0  0
 15 16  1  0  0  0  0
 15 18  1  0  0  0  0
 16 17  1  0  0  0  0
 16 39  1  0  0  0  0
 16 40  1  0  0  0  0
 17 41  1  0  0  0  0
 18 19  1  0  0  0  0
 18 42  1  0  0  0  0
 18 43  1  0  0  0  0
 19 20  1  0  0  0  0
 20 44  1  0  0  0  0
 20 45  1  0  0  0  0
 21 22  1  0  0  0  0
 21 46  1  0  0  0  0
 21 47  1  0  0  0  0
 22 23  1  0  0  0  0
 22 48  1  0  0  0  0
 22 49  1  0  0  0  0
 23 24  1  0  0  0  0
 23 59  1  0  0  0  0
 24 25  1  0  0  0  0
 24 50  1  0  0  0  0
 24 51  1  0  0  0  0
 25 26  1  0  0  0  0
 25 27  1  0  0  0  0
 25 28  1  0  0  0  0
 26 52  1  0  0  0  0
 26 53  1  0  0  0  0
 26 54  1  0  0  0  0
 27 55  1  0  0  0  0
 27 56  1  0  0  0  0
 27 57  1  0  0  0  0
 28 58  1  0  0  0  0
M  CHG  1  23   1
M  END
> <s_m_source_file>
AV-unprocessed.smi

> <i_m_source_file_index>
280

> <i_lp_mmshare_version>
43012

> <i_f3d_flags>
0

> <s_epik_input>
W0NIM11DKFtDSDNdKShbT0hdKVtDSDJdTjFbQ0gyXVtDSDJdTihbQ0gyXVtDQEhdMVtDSDNdKWMobltjSF1uMiljKGMyMyluW2NIXW4zW0NIMl1DNChbQ0gyXVtPSF0pW0NIMl1PW0NIMl00

> <s_epik_cmdline>
J2VwaWtfcHl0aG9uJywgJy1waCcsICc3LjAnLCAnLXRuJywgJzgnLCAnLW1hJywgJzIwMCcsICctbWV0YWxfYmluZGluZycsICctaW1hZScsICc8aW5maWxlLm1hZT4nLCAnLW9tYWUnLCAnPG91dGZpbGUubWFlPic=

> <r_lp_tautomer_probability>
1

> <r_epik_Ionization_Penalty>
0.00179402

> <r_epik_Ionization_Penalty_Charging>
0.00173996

> <r_epik_Ionization_Penalty_Neutral>
5.40607e-05

> <r_epik_State_Penalty>
-0

> <r_epik_Charging_Adjusted_Penalty>
0.00173996

> <i_epik_Tot_Q>
1

> <i_epik_Tot_abs_Q>
1

> <r_epik_Metal_State_Penalty>
-0

> <b_epik_Metal_Only>
0

> <s_lp_Force_Field>
OPLS_2005

> <r_lp_Energy>
52.0143

> <b_lp_Chiralities_Consistent>
1

> <s_lp_Variant>
AV-unprocessed.smi:280-4

> <Gold.Version>
5.8.1

> <Gold.Id.Protein>
6NUR|6NUR_protein|mol2

> <Gold.PLP.Fitness>
51.3642

> <Gold.PLP.PLP>
-39.0834

> <Gold.PLP.part.hbond>
-4.0000

> <Gold.PLP.part.metal>
0.0000

> <Gold.PLP.part.buried>
-6.9590

> <Gold.PLP.part.nonpolar>
-28.3950

> <Gold.PLP.part.repulsive>
0.1476

> <Gold.PLP.ligand.clash>
0.0000

> <Gold.PLP.ligand.torsion>
2.1027

> <Gold.PLP.Chemscore.Hbond>
4.0140

> <Gold.PLP.Chemscore.CHOScore>
1.0000

> <Gold.PLP.Chemscore.Metal>
0.0000

> <Gold.Chemscore.Hbonds>
donor molecule, donor type, donor heavy atom, donor atom, acceptor molecule, acceptor atom, score
      L1  H    23    59       P1  7948  2.00
      L1  H    28    58       P1  7948  1.00
      P1  H  6933  6944       L1    17  0.03
      L1  C    12    36       P1  8028  0.93

> <Gold.PLP.Chemscore.Internal.Correction>
1.4440

> <Gold.Rescore>
     Score         DG    S(hbond)    S(metal)    S(lipo)     H(rot)  DE(clash)    DE(int)     intcor
      9.70     -16.59       2.75        0.00      95.91       3.63       2.04       4.86       ----

> <Gold.Chemscore.Fitness>
9.6958

> <Gold.Chemscore.DG>
-16.5919

> <Gold.Chemscore.ZeroCoef>
-5.4800

> <Gold.Chemscore.Hbond>
2.7462

> <Gold.Chemscore.Metal>
0.0000

> <Gold.Chemscore.Lipo>
95.9143

> <Gold.Chemscore.Internal_Hbond>
0.0000

> <Gold.Chemscore.DEClash>
2.0381

> <Gold.Chemscore.DEInternal>
4.8579

> <Gold.Chemscore.Rot>
3.6260

> <Gold.Chemscore.Internal.Correction>
   9.000000E+99

> <Gold.Chemscore.Hbonds>
donor molecule, donor type, donor heavy atom, donor atom, acceptor molecule, acceptor atom, score
      L1  H    23    59       P1  7948  0.88
      L1  H    28    58       P1  7948  0.96

> <Gold.Chemscore.Hbond.Weighted>
-9.1724

> <Gold.Chemscore.Metal.Weighted>
-0.0000

> <Gold.Chemscore.Lipo.Weighted>
-11.2220

> <Gold.Chemscore.Internal_Hbond.Weighted>
0.0000

> <Gold.Chemscore.DEClash.Weighted>
2.0381

> <Gold.Chemscore.DEInternal.Weighted>
4.8579

> <Gold.Chemscore.Rot.Weighted>
9.2825

> <Gold.Chemscore.Internal.Correction.Weighted>
   9.000000E+99

> <Gold.Protein.RotatedTorsions>
[ 6907 6896 6895 6894 ] final -127.76 input  -60.11 | X-H torsion
[ 7974 7965 7964 7962 ] final   79.36 input  175.53 | X-H torsion
[ 8008 7997 7996 7995 ] final -170.91 input   59.86 | X-H torsion
[ 10167 10162 10161 10158 ] final   34.70 input  -65.29 | X-H torsion
[ 10718 10713 10712 10709 ] final -155.40 input   66.30 | X-H torsion
[ 10763 10752 10751 10750 ] final   66.99 input  -60.55 | X-H torsion
[ 11005 11000 10999 10996 ] final  175.45 input  -57.11 | X-H torsion

> <Gold.Protein.ActiveResidues>
 VAL166  LYS551  ARG553  GLY616  TRP617  ASP618  TYR619  PRO620  LYS621  CYS622 
 ASP623  PHE694  ASN695  SER759  ASP760  ASP761  ALA762  ILE779  LEU786  VAL792 
 PHE793  MET794  SER795  GLU796  ALA797  LYS798  CYS799  TRP800  GLU811  SER814 

> <Gold.Protein.RotatedAtoms>
  150.9107  133.7001  159.2855 H   0  0  0  0  0  0  0  0  0  0  0  0  # atno 6907 bound_to 6896
  151.4488  135.1026  159.9701 H   0  0  0  0  0  0  0  0  0  0  0  0  # atno 6908 bound_to 6896
  152.4928  133.8498  159.7251 H   0  0  0  0  0  0  0  0  0  0  0  0  # atno 6909 bound_to 6896
  145.6652  139.2482  143.1900 H   0  0  0  0  0  0  0  0  0  0  0  0  # atno 7974 bound_to 7965
  155.9246  140.1080  157.1180 H   0  0  0  0  0  0  0  0  0  0  0  0  # atno 8008 bound_to 7997
  154.4060  140.1249  156.4789 H   0  0  0  0  0  0  0  0  0  0  0  0  # atno 8009 bound_to 7997
  155.7154  140.3470  155.4994 H   0  0  0  0  0  0  0  0  0  0  0  0  # atno 8010 bound_to 7997
  140.4291  144.1351  150.6157 H   0  0  0  0  0  0  0  0  0  0  0  0  # atno 10167 bound_to 10162
  156.5123  130.8440  151.2651 H   0  0  0  0  0  0  0  0  0  0  0  0  # atno 10718 bound_to 10713
  153.0165  135.5300  154.6909 H   0  0  0  0  0  0  0  0  0  0  0  0  # atno 10763 bound_to 10752
  154.6044  135.2871  155.0503 H   0  0  0  0  0  0  0  0  0  0  0  0  # atno 10764 bound_to 10752
  154.1548  135.6557  153.5024 H   0  0  0  0  0  0  0  0  0  0  0  0  # atno 10765 bound_to 10752
  140.3623  134.7102  157.4339 H   0  0  0  0  0  0  0  0  0  0  0  0  # atno 11005 bound_to 11000
  146.1092  140.7449  142.9511 LP  0  0  0  0  0  0  0  0  0  0  0  0  # atno 17320 bound_to 7965
  144.7075  140.3911  143.7106 LP  0  0  0  0  0  0  0  0  0  0  0  0  # atno 17321 bound_to 7965
  140.4448  143.2511  151.9426 LP  0  0  0  0  0  0  0  0  0  0  0  0  # atno 17342 bound_to 10162
  139.4784  144.5620  151.8225 LP  0  0  0  0  0  0  0  0  0  0  0  0  # atno 17343 bound_to 10162
  157.7449  130.9945  150.2711 LP  0  0  0  0  0  0  0  0  0  0  0  0  # atno 17370 bound_to 10713
  156.3228  130.3788  149.7559 LP  0  0  0  0  0  0  0  0  0  0  0  0  # atno 17371 bound_to 10713
  140.0617  134.5986  155.8741 LP  0  0  0  0  0  0  0  0  0  0  0  0  # atno 17394 bound_to 11000
  141.1980  133.6599  156.5771 LP  0  0  0  0  0  0  0  0  0  0  0  0  # atno 17395 bound_to 11000

$$$$
