AV-unprocessed.smi:285|AV-procd|sdf|2169|dock8
  -GOLD-   2262021533D 1   1.00000     0.00000
 Structure written by MMmdl.
 31 33  0  0  0  0  0  0  0  0  1 V2000
  154.2448  140.8812  160.8254 N   0  0  0  0  0  0  0  0  0  0  0  0
  153.3152  141.5056  160.0894 C   0  0  0  0  0  0  0  0  0  0  0  0
  152.8422  142.6964  160.5257 N   0  0  0  0  0  0  0  0  0  0  0  0
  151.9154  143.3405  159.8088 C   0  0  0  0  0  0  0  0  0  0  0  0
  151.3455  142.9742  158.6577 N   0  0  0  0  0  0  0  0  0  0  0  0
  151.8220  141.7714  158.2190 C   0  0  0  0  0  0  0  0  0  0  0  0
  152.8068  140.9771  158.8763 C   0  0  0  0  0  0  0  0  0  0  0  0
  153.0552  139.8201  158.1481 N   0  0  0  0  0  0  0  0  0  0  0  0
  152.2541  139.9461  157.1271 C   0  0  0  0  0  0  0  0  0  0  0  0
  152.2030  138.6098  155.7710 Br  0  0  0  0  0  0  0  0  0  0  0  0
  151.4728  141.0783  157.0770 N   0  0  0  0  0  0  0  0  0  0  0  0
  150.4727  141.4899  156.0466 C   0  0  2  0  0  0  0  0  0  0  0  0
  149.0716  141.5556  156.6319 C   0  0  0  0  0  0  0  0  0  0  0  0
  148.2279  141.3585  155.3852 C   0  0  1  0  0  0  0  0  0  0  0  0
  147.8847  142.6120  154.8261 O   0  0  0  0  0  0  0  0  0  0  0  0
  149.1446  140.5713  154.4203 C   0  0  2  0  0  0  0  0  0  0  0  0
  148.6689  139.1281  154.1852 C   0  0  0  0  0  0  0  0  0  0  0  0
  149.6201  138.4217  153.4178 O   0  0  0  0  0  0  0  0  0  0  0  0
  150.4195  140.5161  155.0611 O   0  0  0  0  0  0  0  0  0  0  0  0
  154.6143  139.9920  160.5207 H   0  0  0  0  0  0  0  0  0  0  0  0
  154.5735  141.3002  161.6832 H   0  0  0  0  0  0  0  0  0  0  0  0
  151.5828  144.2843  160.2148 H   0  0  0  0  0  0  0  0  0  0  0  0
  150.8201  142.4360  155.6316 H   0  0  0  0  0  0  0  0  0  0  0  0
  148.9219  140.7240  157.3215 H   0  0  0  0  0  0  0  0  0  0  0  0
  148.8996  142.4942  157.1605 H   0  0  0  0  0  0  0  0  0  0  0  0
  147.3054  140.8260  155.6189 H   0  0  0  0  0  0  0  0  0  0  0  0
  148.4292  143.2775  155.2183 H   0  0  0  0  0  0  0  0  0  0  0  0
  149.2363  141.1003  153.4695 H   0  0  0  0  0  0  0  0  0  0  0  0
  148.4811  138.6132  155.1282 H   0  0  0  0  0  0  0  0  0  0  0  0
  147.7353  139.1236  153.6218 H   0  0  0  0  0  0  0  0  0  0  0  0
  149.1646  137.7921  152.8803 H   0  0  0  0  0  0  0  0  0  0  0  0
  1  2  1  0  0  0  0
  1 20  1  0  0  0  0
  1 21  1  0  0  0  0
  2  7  1  0  0  0  0
  2  3  2  0  0  0  0
  3  4  1  0  0  0  0
  4  5  2  0  0  0  0
  4 22  1  0  0  0  0
  5  6  1  0  0  0  0
  6 11  1  0  0  0  0
  6  7  2  0  0  0  0
  7  8  1  0  0  0  0
  8  9  2  0  0  0  0
  9 10  1  0  0  0  0
  9 11  1  0  0  0  0
 11 12  1  0  0  0  0
 12 19  1  0  0  0  0
 12 13  1  0  0  0  0
 12 23  1  0  0  0  0
 13 14  1  0  0  0  0
 13 24  1  0  0  0  0
 13 25  1  0  0  0  0
 14 15  1  0  0  0  0
 14 16  1  0  0  0  0
 14 26  1  0  0  0  0
 15 27  1  0  0  0  0
 16 17  1  0  0  0  0
 16 19  1  0  0  0  0
 16 28  1  0  0  0  0
 17 18  1  0  0  0  0
 17 29  1  0  0  0  0
 17 30  1  0  0  0  0
 18 31  1  0  0  0  0
M  END
> <s_m_source_file>
AV-unprocessed.smi

> <i_m_source_file_index>
285

> <i_lp_mmshare_version>
43012

> <i_f3d_flags>
0

> <s_epik_input>
bjFbY0hdbmMoW05IMl0pYyhjMTIpbmMoQnIpbjJbQ0BASF0zW0NIMl1bQ0BASF0oW09IXSlbQ0BIXShPMylbQ0gyXVtPSF0=

> <s_epik_cmdline>
J2VwaWtfcHl0aG9uJywgJy1waCcsICc3LjAnLCAnLXRuJywgJzgnLCAnLW1hJywgJzIwMCcsICctbWV0YWxfYmluZGluZycsICctaW1hZScsICc8aW5maWxlLm1hZT4nLCAnLW9tYWUnLCAnPG91dGZpbGUubWFlPic=

> <r_lp_tautomer_probability>
1

> <r_epik_Ionization_Penalty>
0.000103242

> <r_epik_Ionization_Penalty_Charging>
0

> <r_epik_Ionization_Penalty_Neutral>
0.000103242

> <r_epik_State_Penalty>
-0

> <r_epik_Charging_Adjusted_Penalty>
0

> <i_epik_Tot_Q>
0

> <i_epik_Tot_abs_Q>
0

> <r_epik_Metal_State_Penalty>
-0

> <b_epik_Metal_Only>
0

> <s_epik_Chemistry_Notes>
This compound contains an acetal/aminal-like group ( X-CH(R)-Y where X, Y are N, S, or O) that may be acid/base labile, releasing an aldehyde.

> <s_lp_Force_Field>
OPLS_2005

> <r_lp_Energy>
31.1056

> <b_lp_Chiralities_Consistent>
1

> <s_lp_Variant>
AV-unprocessed.smi:285-5

> <Gold.Version>
5.8.1

> <Gold.Id.Protein>
6NUR|6NUR_protein|mol2

> <Gold.PLP.Fitness>
46.6062

> <Gold.PLP.PLP>
-34.7636

> <Gold.PLP.part.hbond>
-5.0000

> <Gold.PLP.part.metal>
0.0000

> <Gold.PLP.part.buried>
-4.7117

> <Gold.PLP.part.nonpolar>
-23.9959

> <Gold.PLP.part.repulsive>
0.1903

> <Gold.PLP.ligand.clash>
0.0000

> <Gold.PLP.ligand.torsion>
0.0288

> <Gold.PLP.Chemscore.Hbond>
3.9600

> <Gold.PLP.Chemscore.CHOScore>
0.0000

> <Gold.PLP.Chemscore.Metal>
0.0000

> <Gold.Chemscore.Hbonds>
donor molecule, donor type, donor heavy atom, donor atom, acceptor molecule, acceptor atom, score
      L1  H    15    27       P1  8028  1.00
      L1  H    18    31       P1  7948  1.00
      P1  H  7989  7998       L1    19  0.99
      P1  H  7997  8008       L1     8  0.65

> <Gold.PLP.Chemscore.Internal.Correction>
0.0201

> <Gold.Rescore>
     Score         DG    S(hbond)    S(metal)    S(lipo)     H(rot)  DE(clash)    DE(int)     intcor
      9.80     -11.70       2.85        0.00      38.82       3.06       0.34       1.56       ----

> <Gold.Chemscore.Fitness>
9.8013

> <Gold.Chemscore.DG>
-11.6965

> <Gold.Chemscore.ZeroCoef>
-5.4800

> <Gold.Chemscore.Hbond>
2.8471

> <Gold.Chemscore.Metal>
0.0000

> <Gold.Chemscore.Lipo>
38.8239

> <Gold.Chemscore.Internal_Hbond>
0.0000

> <Gold.Chemscore.DEClash>
0.3358

> <Gold.Chemscore.DEInternal>
1.5594

> <Gold.Chemscore.Rot>
3.0607

> <Gold.Chemscore.Internal.Correction>
   9.000000E+99

> <Gold.Chemscore.Hbonds>
donor molecule, donor type, donor heavy atom, donor atom, acceptor molecule, acceptor atom, score
      L1  H    15    27       P1  8028  0.93
      L1  H    18    31       P1  7948  0.97
      P1  H  7989  7998       L1    19  0.20
      P1  H  7997  8008       L1     8  0.04

> <Gold.Chemscore.Hbond.Weighted>
-9.5095

> <Gold.Chemscore.Metal.Weighted>
-0.0000

> <Gold.Chemscore.Lipo.Weighted>
-4.5424

> <Gold.Chemscore.Internal_Hbond.Weighted>
0.0000

> <Gold.Chemscore.DEClash.Weighted>
0.3358

> <Gold.Chemscore.DEInternal.Weighted>
1.5594

> <Gold.Chemscore.Rot.Weighted>
7.8354

> <Gold.Chemscore.Internal.Correction.Weighted>
   9.000000E+99

> <Gold.Protein.RotatedTorsions>
[ 6907 6896 6895 6894 ] final  131.87 input  -60.11 | X-H torsion
[ 7974 7965 7964 7962 ] final  128.42 input  175.53 | X-H torsion
[ 8008 7997 7996 7995 ] final  -89.64 input   59.86 | X-H torsion
[ 10167 10162 10161 10158 ] final  173.87 input  -65.29 | X-H torsion
[ 10718 10713 10712 10709 ] final -105.91 input   66.30 | X-H torsion
[ 10763 10752 10751 10750 ] final -173.88 input  -60.55 | X-H torsion
[ 11005 11000 10999 10996 ] final   29.24 input  -57.11 | X-H torsion

> <Gold.Protein.ActiveResidues>
 VAL166  LYS551  ARG553  GLY616  TRP617  ASP618  TYR619  PRO620  LYS621  CYS622 
 ASP623  PHE694  ASN695  SER759  ASP760  ASP761  ALA762  ILE779  LEU786  VAL792 
 PHE793  MET794  SER795  GLU796  ALA797  LYS798  CYS799  TRP800  GLU811  SER814 

> <Gold.Protein.RotatedAtoms>
  152.3383  133.6037  159.5857 H   0  0  0  0  0  0  0  0  0  0  0  0  # atno 6907 bound_to 6896
  150.7463  133.9762  159.3570 H   0  0  0  0  0  0  0  0  0  0  0  0  # atno 6908 bound_to 6896
  151.7629  135.0806  160.0399 H   0  0  0  0  0  0  0  0  0  0  0  0  # atno 6909 bound_to 6896
  145.0398  139.3973  143.5108 H   0  0  0  0  0  0  0  0  0  0  0  0  # atno 7974 bound_to 7965
  154.6890  140.0539  157.0344 H   0  0  0  0  0  0  0  0  0  0  0  0  # atno 8008 bound_to 7997
  155.0843  140.3213  155.4573 H   0  0  0  0  0  0  0  0  0  0  0  0  # atno 8009 bound_to 7997
  156.2721  140.2059  156.5971 H   0  0  0  0  0  0  0  0  0  0  0  0  # atno 8010 bound_to 7997
  139.5123  144.3211  152.0201 H   0  0  0  0  0  0  0  0  0  0  0  0  # atno 10167 bound_to 10162
  156.0366  130.5587  150.7606 H   0  0  0  0  0  0  0  0  0  0  0  0  # atno 10718 bound_to 10713
  154.6027  135.2856  155.0518 H   0  0  0  0  0  0  0  0  0  0  0  0  # atno 10763 bound_to 10752
  154.1777  135.6462  153.5029 H   0  0  0  0  0  0  0  0  0  0  0  0  # atno 10764 bound_to 10752
  153.0163  135.5416  154.6752 H   0  0  0  0  0  0  0  0  0  0  0  0  # atno 10765 bound_to 10752
  140.3070  134.2692  155.7742 H   0  0  0  0  0  0  0  0  0  0  0  0  # atno 11005 bound_to 11000
  146.3508  139.9992  142.8678 LP  0  0  0  0  0  0  0  0  0  0  0  0  # atno 17320 bound_to 7965
  145.1663  140.9698  143.4348 LP  0  0  0  0  0  0  0  0  0  0  0  0  # atno 17321 bound_to 7965
  140.2653  144.4023  150.6171 LP  0  0  0  0  0  0  0  0  0  0  0  0  # atno 17342 bound_to 10162
  140.6128  143.2170  151.6852 LP  0  0  0  0  0  0  0  0  0  0  0  0  # atno 17343 bound_to 10162
  157.5126  131.0926  151.0179 LP  0  0  0  0  0  0  0  0  0  0  0  0  # atno 17370 bound_to 10713
  157.0531  130.5795  149.5373 LP  0  0  0  0  0  0  0  0  0  0  0  0  # atno 17371 bound_to 10713
  141.2116  133.7683  156.9852 LP  0  0  0  0  0  0  0  0  0  0  0  0  # atno 17394 bound_to 11000
  140.1058  134.9507  157.1992 LP  0  0  0  0  0  0  0  0  0  0  0  0  # atno 17395 bound_to 11000

$$$$
