AV-unprocessed.smi:673|AV-procd|sdf|3297|dock1
  -GOLD-   22720 0253D 1   1.00000     0.00000
 Structure written by MMmdl.
 45 46  0  0  0  0  0  0  0  0  1 V2000
  146.7841  140.4860  157.9862 C   0  0  0  0  0  0  0  0  0  0  0  0
  146.9384  141.9928  157.7252 C   0  0  2  0  0  0  0  0  0  0  0  0
  146.2710  142.4049  156.3991 C   0  0  0  0  0  0  0  0  0  0  0  0
  146.7504  141.6223  155.2737 N   0  0  0  0  0  0  0  0  0  0  0  0
  146.0809  140.9808  154.3150 C   0  0  0  0  0  0  0  0  0  0  0  0
  146.8616  140.3736  153.4320 N   0  0  0  0  0  0  0  0  0  0  0  0
  148.0850  140.7048  153.9425 C   0  0  0  0  0  0  0  0  0  0  0  0
  148.0745  141.4519  155.0464 N   0  0  0  0  0  0  0  0  0  0  0  0
  148.3520  142.3588  157.7031 N   0  0  0  0  0  0  0  0  0  0  0  0
  149.0008  143.0622  158.6466 C   0  0  0  0  0  0  0  0  0  0  0  0
  148.4542  143.4281  159.6882 O   0  0  0  0  0  0  0  0  0  0  0  0
  150.3074  143.3001  158.3674 N   0  0  0  0  0  0  0  0  0  0  0  0
  151.1219  142.5339  157.4142 C   0  0  0  0  0  0  0  0  0  0  0  0
  151.7570  141.2883  158.0638 C   0  0  0  0  0  0  0  0  0  0  0  0
  151.9809  141.3271  159.5963 C   0  0  0  0  0  0  0  0  0  0  0  0
  152.6764  142.5757  160.2127 C   0  0  0  0  0  0  0  0  0  0  0  0
  153.1300  142.1904  161.6369 C   0  0  0  0  0  0  0  0  0  0  0  0
  153.9415  142.9738  159.4225 C   0  0  0  0  0  0  0  0  0  0  0  0
  151.6972  143.7769  160.3651 C   0  0  0  0  0  0  0  0  0  0  0  0
  151.0690  144.3358  159.0740 C   0  0  0  0  0  0  0  0  0  0  0  0
  145.7330  140.1979  158.0057 H   0  0  0  0  0  0  0  0  0  0  0  0
  147.2175  140.2024  158.9459 H   0  0  0  0  0  0  0  0  0  0  0  0
  147.2766  139.8965  157.2120 H   0  0  0  0  0  0  0  0  0  0  0  0
  146.4450  142.5337  158.5351 H   0  0  0  0  0  0  0  0  0  0  0  0
  145.1862  142.3049  156.4671 H   0  0  0  0  0  0  0  0  0  0  0  0
  146.4738  143.4555  156.1874 H   0  0  0  0  0  0  0  0  0  0  0  0
  145.0023  140.9621  154.2590 H   0  0  0  0  0  0  0  0  0  0  0  0
  149.0112  140.3864  153.4871 H   0  0  0  0  0  0  0  0  0  0  0  0
  148.8766  142.0813  156.8859 H   0  0  0  0  0  0  0  0  0  0  0  0
  150.5444  142.2466  156.5338 H   0  0  0  0  0  0  0  0  0  0  0  0
  151.9108  143.1646  157.0051 H   0  0  0  0  0  0  0  0  0  0  0  0
  151.1219  140.4282  157.8485 H   0  0  0  0  0  0  0  0  0  0  0  0
  152.7018  141.0776  157.5619 H   0  0  0  0  0  0  0  0  0  0  0  0
  151.0228  141.1775  160.0965 H   0  0  0  0  0  0  0  0  0  0  0  0
  152.5635  140.4389  159.8448 H   0  0  0  0  0  0  0  0  0  0  0  0
  153.6092  143.0280  162.1453 H   0  0  0  0  0  0  0  0  0  0  0  0
  153.8478  141.3694  161.6214 H   0  0  0  0  0  0  0  0  0  0  0  0
  152.2869  141.8738  162.2523 H   0  0  0  0  0  0  0  0  0  0  0  0
  154.4658  143.7975  159.9079 H   0  0  0  0  0  0  0  0  0  0  0  0
  153.7182  143.2939  158.4068 H   0  0  0  0  0  0  0  0  0  0  0  0
  154.6397  142.1393  159.3515 H   0  0  0  0  0  0  0  0  0  0  0  0
  150.8889  143.4933  161.0407 H   0  0  0  0  0  0  0  0  0  0  0  0
  152.2143  144.5959  160.8667 H   0  0  0  0  0  0  0  0  0  0  0  0
  151.8420  144.7657  158.4370 H   0  0  0  0  0  0  0  0  0  0  0  0
  150.4252  145.1811  159.3226 H   0  0  0  0  0  0  0  0  0  0  0  0
  1  2  1  0  0  0  0
  1 21  1  0  0  0  0
  1 22  1  0  0  0  0
  1 23  1  0  0  0  0
  2  3  1  0  0  0  0
  2  9  1  0  0  0  0
  2 24  1  0  0  0  0
  3  4  1  0  0  0  0
  3 25  1  0  0  0  0
  3 26  1  0  0  0  0
  4  8  1  0  0  0  0
  4  5  1  0  0  0  0
  5  6  2  0  0  0  0
  5 27  1  0  0  0  0
  6  7  1  0  0  0  0
  7  8  2  0  0  0  0
  7 28  1  0  0  0  0
  9 10  1  0  0  0  0
  9 29  1  0  0  0  0
 10 11  2  0  0  0  0
 10 12  1  0  0  0  0
 12 20  1  0  0  0  0
 12 13  1  0  0  0  0
 13 14  1  0  0  0  0
 13 30  1  0  0  0  0
 13 31  1  0  0  0  0
 14 15  1  0  0  0  0
 14 32  1  0  0  0  0
 14 33  1  0  0  0  0
 15 16  1  0  0  0  0
 15 34  1  0  0  0  0
 15 35  1  0  0  0  0
 16 17  1  0  0  0  0
 16 18  1  0  0  0  0
 16 19  1  0  0  0  0
 17 36  1  0  0  0  0
 17 37  1  0  0  0  0
 17 38  1  0  0  0  0
 18 39  1  0  0  0  0
 18 40  1  0  0  0  0
 18 41  1  0  0  0  0
 19 20  1  0  0  0  0
 19 42  1  0  0  0  0
 19 43  1  0  0  0  0
 20 44  1  0  0  0  0
 20 45  1  0  0  0  0
M  END
> <s_m_source_file>
AV-unprocessed.smi

> <i_m_source_file_index>
673

> <i_lp_mmshare_version>
43012

> <i_f3d_flags>
0

> <s_epik_input>
bjFbY0hdbltjSF1uMVtDSDJdW0NAQEhdKFtDSDNdKVtOSF1DKD1PKU4oW0NIMl1bQ0gyXTIpW0NIMl1bQ0gyXVtDSDJdQzIoW0NIM10pW0NIM10=

> <s_epik_cmdline>
J2VwaWtfcHl0aG9uJywgJy1waCcsICc3LjAnLCAnLXRuJywgJzgnLCAnLW1hJywgJzIwMCcsICctbWV0YWxfYmluZGluZycsICctaW1hZScsICc8aW5maWxlLm1hZT4nLCAnLW9tYWUnLCAnPG91dGZpbGUubWFlPic=

> <r_lp_tautomer_probability>
1

> <r_epik_Ionization_Penalty>
0.000118908

> <r_epik_Ionization_Penalty_Charging>
0

> <r_epik_Ionization_Penalty_Neutral>
0.000118908

> <r_epik_State_Penalty>
-0

> <r_epik_Charging_Adjusted_Penalty>
0

> <i_epik_Tot_Q>
0

> <i_epik_Tot_abs_Q>
0

> <r_epik_Metal_State_Penalty>
-0

> <b_epik_Metal_Only>
0

> <s_lp_Force_Field>
OPLS_2005

> <r_lp_Energy>
35.7371

> <b_lp_Chiralities_Consistent>
1

> <s_lp_Variant>
AV-unprocessed.smi:673-1

> <Gold.Version>
5.8.1

> <Gold.Id.Protein>
6NUR|6NUR_protein|mol2

> <Gold.PLP.Fitness>
40.3652

> <Gold.PLP.PLP>
-33.3221

> <Gold.PLP.part.hbond>
-2.0000

> <Gold.PLP.part.metal>
0.0000

> <Gold.PLP.part.buried>
-3.4316

> <Gold.PLP.part.nonpolar>
-28.2926

> <Gold.PLP.part.repulsive>
0.9092

> <Gold.PLP.ligand.clash>
0.0000

> <Gold.PLP.ligand.torsion>
0.3918

> <Gold.PLP.Chemscore.Hbond>
0.5925

> <Gold.PLP.Chemscore.CHOScore>
2.0000

> <Gold.PLP.Chemscore.Metal>
0.0000

> <Gold.Chemscore.Hbonds>
donor molecule, donor type, donor heavy atom, donor atom, acceptor molecule, acceptor atom, score
      P1  H  6933  6944       L1    11  0.66
      L1  C     5    27       P1 10175  0.99
      L1  C     7    28       P1  7957  1.00

> <Gold.PLP.Chemscore.Internal.Correction>
0.0491

> <Gold.Rescore>
     Score         DG    S(hbond)    S(metal)    S(lipo)     H(rot)  DE(clash)    DE(int)     intcor
     12.27     -12.75       0.66        0.00      83.86       1.86       0.08       0.40       ----

> <Gold.Chemscore.Fitness>
12.2674

> <Gold.Chemscore.DG>
-12.7476

> <Gold.Chemscore.ZeroCoef>
-5.4800

> <Gold.Chemscore.Hbond>
0.6649

> <Gold.Chemscore.Metal>
0.0000

> <Gold.Chemscore.Lipo>
83.8647

> <Gold.Chemscore.Internal_Hbond>
0.0000

> <Gold.Chemscore.DEClash>
0.0843

> <Gold.Chemscore.DEInternal>
0.3958

> <Gold.Chemscore.Rot>
1.8614

> <Gold.Chemscore.Internal.Correction>
   9.000000E+99

> <Gold.Chemscore.Hbonds>
donor molecule, donor type, donor heavy atom, donor atom, acceptor molecule, acceptor atom, score
      P1  H  6933  6944       L1    11  0.62

> <Gold.Chemscore.Hbond.Weighted>
-2.2208

> <Gold.Chemscore.Metal.Weighted>
-0.0000

> <Gold.Chemscore.Lipo.Weighted>
-9.8122

> <Gold.Chemscore.Internal_Hbond.Weighted>
0.0000

> <Gold.Chemscore.DEClash.Weighted>
0.0843

> <Gold.Chemscore.DEInternal.Weighted>
0.3958

> <Gold.Chemscore.Rot.Weighted>
4.7653

> <Gold.Chemscore.Internal.Correction.Weighted>
   9.000000E+99

> <Gold.Protein.RotatedTorsions>
[ 6907 6896 6895 6894 ] final  175.26 input  -60.11 | X-H torsion
[ 7974 7965 7964 7962 ] final    8.46 input  175.53 | X-H torsion
[ 8008 7997 7996 7995 ] final   -3.52 input   59.86 | X-H torsion
[ 10167 10162 10161 10158 ] final   -3.99 input  -65.29 | X-H torsion
[ 10718 10713 10712 10709 ] final   80.06 input   66.30 | X-H torsion
[ 10763 10752 10751 10750 ] final -165.02 input  -60.55 | X-H torsion
[ 11005 11000 10999 10996 ] final   99.48 input  -57.11 | X-H torsion

> <Gold.Protein.ActiveResidues>
 VAL166  LYS551  ARG553  GLY616  TRP617  ASP618  TYR619  PRO620  LYS621  CYS622 
 ASP623  PHE694  ASN695  SER759  ASP760  ASP761  ALA762  ILE779  LEU786  VAL792 
 PHE793  MET794  SER795  GLU796  ALA797  LYS798  CYS799  TRP800  GLU811  SER814 

> <Gold.Protein.RotatedAtoms>
  151.7391  133.3321  159.3360 H   0  0  0  0  0  0  0  0  0  0  0  0  # atno 6907 bound_to 6896
  150.7581  134.6294  159.6187 H   0  0  0  0  0  0  0  0  0  0  0  0  # atno 6908 bound_to 6896
  152.3542  134.6965  160.0279 H   0  0  0  0  0  0  0  0  0  0  0  0  # atno 6909 bound_to 6896
  146.2416  139.9930  142.8424 H   0  0  0  0  0  0  0  0  0  0  0  0  # atno 7974 bound_to 7965
  154.6240  140.2507  155.7514 H   0  0  0  0  0  0  0  0  0  0  0  0  # atno 8008 bound_to 7997
  156.2443  140.2920  156.0481 H   0  0  0  0  0  0  0  0  0  0  0  0  # atno 8009 bound_to 7997
  155.1850  140.0390  157.2880 H   0  0  0  0  0  0  0  0  0  0  0  0  # atno 8010 bound_to 7997
  140.6911  143.6476  150.8379 H   0  0  0  0  0  0  0  0  0  0  0  0  # atno 10167 bound_to 10162
  157.6795  130.9942  150.2024 H   0  0  0  0  0  0  0  0  0  0  0  0  # atno 10718 bound_to 10713
  154.6972  135.2981  154.9394 H   0  0  0  0  0  0  0  0  0  0  0  0  # atno 10763 bound_to 10752
  154.0338  135.6666  153.4787 H   0  0  0  0  0  0  0  0  0  0  0  0  # atno 10764 bound_to 10752
  153.0654  135.5091  154.8096 H   0  0  0  0  0  0  0  0  0  0  0  0  # atno 10765 bound_to 10752
  139.8771  134.9097  156.4612 H   0  0  0  0  0  0  0  0  0  0  0  0  # atno 11005 bound_to 11000
  145.1486  140.9610  143.4446 LP  0  0  0  0  0  0  0  0  0  0  0  0  # atno 17320 bound_to 7965
  145.0227  139.3410  143.6064 LP  0  0  0  0  0  0  0  0  0  0  0  0  # atno 17321 bound_to 7965
  140.0189  143.5564  152.2809 LP  0  0  0  0  0  0  0  0  0  0  0  0  # atno 17342 bound_to 10162
  139.6314  144.7645  151.2527 LP  0  0  0  0  0  0  0  0  0  0  0  0  # atno 17343 bound_to 10162
  156.2712  130.3722  149.8030 LP  0  0  0  0  0  0  0  0  0  0  0  0  # atno 17370 bound_to 10713
  156.5746  130.8439  151.3366 LP  0  0  0  0  0  0  0  0  0  0  0  0  # atno 17371 bound_to 10713
  140.8863  133.7881  155.9521 LP  0  0  0  0  0  0  0  0  0  0  0  0  # atno 17394 bound_to 11000
  140.8801  134.2621  157.5148 LP  0  0  0  0  0  0  0  0  0  0  0  0  # atno 17395 bound_to 11000

$$$$
