AV-unprocessed.smi:1701|AV-procd|sdf|6840|dock3
  -GOLD-   22720 8 13D 1   1.00000     0.00000
 Structure written by MMmdl.
 54 56  0  0  0  0  0  0  0  0  4 V2000
  153.6857  141.8146  159.8092 C   0  0  0  0  0  0  0  0  0  0  0  0
  152.5440  142.8418  159.7934 C   0  0  0  0  0  0  0  0  0  0  0  0
  152.1706  143.2532  158.4400 N   0  0  0  0  0  0  0  0  0  0  0  0
  152.0286  144.6908  158.1970 C   0  0  0  0  0  0  0  0  0  0  0  0
  151.8909  145.5085  159.4910 C   0  0  0  0  0  0  0  0  0  0  0  0
  151.3407  142.3553  157.7285 C   0  0  0  0  0  0  0  0  0  0  0  0
  151.3928  140.9546  157.9271 C   0  0  0  0  0  0  0  0  0  0  0  0
  150.5376  140.1084  157.1926 C   0  0  0  0  0  0  0  0  0  0  0  0
  149.6254  140.6619  156.2717 C   0  0  0  0  0  0  0  0  0  0  0  0
  148.8019  139.7670  155.5373 N   0  0  0  0  0  0  0  0  0  0  0  0
  149.0564  138.4987  155.1302 C   0  0  0  0  0  0  0  0  0  0  0  0
  150.1596  138.0073  155.3607 O   0  0  0  0  0  0  0  0  0  0  0  0
  148.0985  137.7997  154.4485 N   0  5  0  0  0  0  0  0  0  0  0  0
  146.7231  138.2048  154.1011 C   0  0  1  0  0  0  0  0  0  0  0  0
  146.7659  139.3570  153.0778 C   0  0  0  0  0  0  0  0  0  0  0  0
  146.7307  138.6920  151.6857 C   0  0  0  0  0  0  0  0  0  0  0  0
  146.5934  137.2435  151.9376 N   0  3  2  0  0  0  0  0  0  0  0  0
  145.8758  136.4472  150.9173 C   0  0  0  0  0  0  0  0  0  0  0  0
  145.8891  134.9586  151.3200 C   0  0  0  0  0  0  0  0  0  0  0  0
  145.3439  134.7442  152.7469 C   0  0  0  0  0  0  0  0  0  0  0  0
  146.0816  135.6382  153.7620 C   0  0  0  0  0  0  0  0  0  0  0  0
  146.0194  137.1068  153.2862 C   0  0  1  0  0  0  0  0  0  0  0  0
  149.6191  142.0655  156.0965 C   0  0  0  0  0  0  0  0  0  0  0  0
  150.4570  142.8386  156.8204 N   0  3  0  0  0  0  0  0  0  0  0  0
  153.9245  141.5213  160.8314 H   0  0  0  0  0  0  0  0  0  0  0  0
  154.5936  142.2200  159.3615 H   0  0  0  0  0  0  0  0  0  0  0  0
  153.4161  140.9105  159.2624 H   0  0  0  0  0  0  0  0  0  0  0  0
  151.6669  142.4080  160.2749 H   0  0  0  0  0  0  0  0  0  0  0  0
  152.8104  143.7014  160.4063 H   0  0  0  0  0  0  0  0  0  0  0  0
  152.8731  145.0530  157.6094 H   0  0  0  0  0  0  0  0  0  0  0  0
  151.1440  144.8615  157.5824 H   0  0  0  0  0  0  0  0  0  0  0  0
  151.7503  146.5649  159.2624 H   0  0  0  0  0  0  0  0  0  0  0  0
  152.7713  145.4278  160.1280 H   0  0  0  0  0  0  0  0  0  0  0  0
  151.0282  145.1797  160.0709 H   0  0  0  0  0  0  0  0  0  0  0  0
  152.0905  140.5127  158.6218 H   0  0  0  0  0  0  0  0  0  0  0  0
  150.5836  139.0389  157.3393 H   0  0  0  0  0  0  0  0  0  0  0  0
  147.9181  140.1468  155.2314 H   0  0  0  0  0  0  0  0  0  0  0  0
  146.1320  138.4747  154.9771 H   0  0  0  0  0  0  0  0  0  0  0  0
  145.8811  139.9830  153.1989 H   0  0  0  0  0  0  0  0  0  0  0  0
  147.6322  140.0085  153.2023 H   0  0  0  0  0  0  0  0  0  0  0  0
  145.8846  139.0686  151.1086 H   0  0  0  0  0  0  0  0  0  0  0  0
  147.6397  138.8852  151.1150 H   0  0  0  0  0  0  0  0  0  0  0  0
  144.8500  136.8063  150.8224 H   0  0  0  0  0  0  0  0  0  0  0  0
  146.3559  136.5798  149.9473 H   0  0  0  0  0  0  0  0  0  0  0  0
  145.3069  134.3746  150.6067 H   0  0  0  0  0  0  0  0  0  0  0  0
  146.9106  134.5804  151.2663 H   0  0  0  0  0  0  0  0  0  0  0  0
  144.2779  134.9745  152.7667 H   0  0  0  0  0  0  0  0  0  0  0  0
  145.4393  133.6961  153.0317 H   0  0  0  0  0  0  0  0  0  0  0  0
  145.6285  135.5293  154.7486 H   0  0  0  0  0  0  0  0  0  0  0  0
  147.1140  135.2946  153.8507 H   0  0  0  0  0  0  0  0  0  0  0  0
  144.9651  137.3865  153.2229 H   0  0  0  0  0  0  0  0  0  0  0  0
  148.9918  142.6012  155.4000 H   0  0  0  0  0  0  0  0  0  0  0  0
  147.5335  136.8804  152.0090 H   0  0  0  0  0  0  0  0  0  0  0  0
  150.4239  143.8469  156.6702 H   0  0  0  0  0  0  0  0  0  0  0  0
  1  2  1  0  0  0  0
  1 25  1  0  0  0  0
  1 26  1  0  0  0  0
  1 27  1  0  0  0  0
  2  3  1  0  0  0  0
  2 28  1  0  0  0  0
  2 29  1  0  0  0  0
  3  4  1  0  0  0  0
  3  6  1  0  0  0  0
  4  5  1  0  0  0  0
  4 30  1  0  0  0  0
  4 31  1  0  0  0  0
  5 32  1  0  0  0  0
  5 33  1  0  0  0  0
  5 34  1  0  0  0  0
  6 24  1  0  0  0  0
  6  7  2  0  0  0  0
  7  8  1  0  0  0  0
  7 35  1  0  0  0  0
  8  9  2  0  0  0  0
  8 36  1  0  0  0  0
  9 10  1  0  0  0  0
  9 23  1  0  0  0  0
 10 11  1  0  0  0  0
 10 37  1  0  0  0  0
 11 12  2  0  0  0  0
 11 13  1  0  0  0  0
 13 14  1  0  0  0  0
 14 22  1  0  0  0  0
 14 15  1  0  0  0  0
 14 38  1  0  0  0  0
 15 16  1  0  0  0  0
 15 39  1  0  0  0  0
 15 40  1  0  0  0  0
 16 17  1  0  0  0  0
 16 41  1  0  0  0  0
 16 42  1  0  0  0  0
 17 22  1  0  0  0  0
 17 18  1  0  0  0  0
 17 53  1  0  0  0  0
 18 19  1  0  0  0  0
 18 43  1  0  0  0  0
 18 44  1  0  0  0  0
 19 20  1  0  0  0  0
 19 45  1  0  0  0  0
 19 46  1  0  0  0  0
 20 21  1  0  0  0  0
 20 47  1  0  0  0  0
 20 48  1  0  0  0  0
 21 22  1  0  0  0  0
 21 49  1  0  0  0  0
 21 50  1  0  0  0  0
 22 51  1  0  0  0  0
 23 24  2  0  0  0  0
 23 52  1  0  0  0  0
 24 54  1  0  0  0  0
M  CHG  1  13  -1
M  CHG  1  17   1
M  CHG  1  24   1
M  END
> <s_m_source_file>
AV-unprocessed.smi

> <i_m_source_file_index>
1701

> <i_lp_mmshare_version>
43012

> <i_f3d_flags>
0

> <s_epik_input>
W0NIM11bQ0gyXU4oW0NIMl1bQ0gzXSljMVtjSF1bY0hdYyhbY0hdbjEpW05IXUMoPU8pW05IXVtDQEhdKFtDSDJdW0NIMl0yKVtDQEBIXShOMjMpW0NIMl1bQ0gyXVtDSDJdW0NIMl0z

> <s_epik_cmdline>
J2VwaWtfcHl0aG9uJywgJy1waCcsICc3LjAnLCAnLXRuJywgJzgnLCAnLW1hJywgJzIwMCcsICctbWV0YWxfYmluZGluZycsICctaW1hZScsICc8aW5maWxlLm1hZT4nLCAnLW9tYWUnLCAnPG91dGZpbGUubWFlPic=

> <r_lp_tautomer_probability>
0.999994

> <r_epik_Ionization_Penalty>
7.37095

> <r_epik_Ionization_Penalty_Charging>
7.37095

> <r_epik_Ionization_Penalty_Neutral>
3.78969e-06

> <r_epik_State_Penalty>
6.83842

> <r_epik_Charging_Adjusted_Penalty>
14.2094

> <i_epik_Tot_Q>
1

> <i_epik_Tot_abs_Q>
3

> <r_epik_Metal_State_Penalty>
2.78552

> <b_epik_Metal_Only>
1

> <s_lp_Force_Field>
OPLS_2005

> <r_lp_Energy>
51.4286

> <b_lp_Chiralities_Consistent>
1

> <s_lp_Variant>
AV-unprocessed.smi:1701-20

> <Gold.Version>
5.8.1

> <Gold.Id.Protein>
6NUR|6NUR_protein|mol2

> <Gold.PLP.Fitness>
51.0685

> <Gold.PLP.PLP>
-42.9373

> <Gold.PLP.part.hbond>
-2.0000

> <Gold.PLP.part.metal>
0.0000

> <Gold.PLP.part.buried>
-0.8726

> <Gold.PLP.part.nonpolar>
-41.0553

> <Gold.PLP.part.repulsive>
0.3728

> <Gold.PLP.ligand.clash>
0.0000

> <Gold.PLP.ligand.torsion>
0.8015

> <Gold.PLP.Chemscore.Hbond>
2.8960

> <Gold.PLP.Chemscore.CHOScore>
0.0000

> <Gold.PLP.Chemscore.Metal>
0.0000

> <Gold.Chemscore.Hbonds>
donor molecule, donor type, donor heavy atom, donor atom, acceptor molecule, acceptor atom, score
      L1  H    17    53       P1  7948  2.00
      L1  H    24    54       P1  8028  0.90

> <Gold.PLP.Chemscore.Internal.Correction>
1.0463

> <Gold.Rescore>
     Score         DG    S(hbond)    S(metal)    S(lipo)     H(rot)  DE(clash)    DE(int)     intcor
     16.87     -20.05       1.51        0.00     109.46       1.28       1.01       2.18       ----

> <Gold.Chemscore.Fitness>
16.8684

> <Gold.Chemscore.DG>
-20.0533

> <Gold.Chemscore.ZeroCoef>
-5.4800

> <Gold.Chemscore.Hbond>
1.5127

> <Gold.Chemscore.Metal>
0.0000

> <Gold.Chemscore.Lipo>
109.4635

> <Gold.Chemscore.Internal_Hbond>
0.0000

> <Gold.Chemscore.DEClash>
1.0092

> <Gold.Chemscore.DEInternal>
2.1757

> <Gold.Chemscore.Rot>
1.2838

> <Gold.Chemscore.Internal.Correction>
   9.000000E+99

> <Gold.Chemscore.Hbonds>
donor molecule, donor type, donor heavy atom, donor atom, acceptor molecule, acceptor atom, score
      L1  H    17    53       P1  7948  0.95
      L1  H    24    54       P1  8028  0.43

> <Gold.Chemscore.Hbond.Weighted>
-5.0526

> <Gold.Chemscore.Metal.Weighted>
-0.0000

> <Gold.Chemscore.Lipo.Weighted>
-12.8072

> <Gold.Chemscore.Internal_Hbond.Weighted>
0.0000

> <Gold.Chemscore.DEClash.Weighted>
1.0092

> <Gold.Chemscore.DEInternal.Weighted>
2.1757

> <Gold.Chemscore.Rot.Weighted>
3.2865

> <Gold.Chemscore.Internal.Correction.Weighted>
   9.000000E+99

> <Gold.Protein.RotatedTorsions>
[ 6907 6896 6895 6894 ] final  -77.43 input  -60.11 | X-H torsion
[ 7974 7965 7964 7962 ] final  -87.16 input  175.53 | X-H torsion
[ 8008 7997 7996 7995 ] final -155.26 input   59.86 | X-H torsion
[ 10167 10162 10161 10158 ] final  -38.73 input  -65.29 | X-H torsion
[ 10718 10713 10712 10709 ] final  -33.37 input   66.30 | X-H torsion
[ 10763 10752 10751 10750 ] final  -55.99 input  -60.55 | X-H torsion
[ 11005 11000 10999 10996 ] final  -68.11 input  -57.11 | X-H torsion

> <Gold.Protein.ActiveResidues>
 VAL166  LYS551  ARG553  GLY616  TRP617  ASP618  TYR619  PRO620  LYS621  CYS622 
 ASP623  PHE694  ASN695  SER759  ASP760  ASP761  ALA762  ILE779  LEU786  VAL792 
 PHE793  MET794  SER795  GLU796  ALA797  LYS798  CYS799  TRP800  GLU811  SER814 

> <Gold.Protein.RotatedAtoms>
  150.6999  134.4423  159.5297 H   0  0  0  0  0  0  0  0  0  0  0  0  # atno 6907 bound_to 6896
  152.2131  134.8480  160.0504 H   0  0  0  0  0  0  0  0  0  0  0  0  # atno 6908 bound_to 6896
  151.9358  133.3589  159.3984 H   0  0  0  0  0  0  0  0  0  0  0  0  # atno 6909 bound_to 6896
  145.4703  140.9560  143.1921 H   0  0  0  0  0  0  0  0  0  0  0  0  # atno 7974 bound_to 7965
  155.6990  140.0764  157.2418 H   0  0  0  0  0  0  0  0  0  0  0  0  # atno 8008 bound_to 7997
  154.4076  140.1651  156.2223 H   0  0  0  0  0  0  0  0  0  0  0  0  # atno 8009 bound_to 7997
  155.9384  140.3386  155.6310 H   0  0  0  0  0  0  0  0  0  0  0  0  # atno 8010 bound_to 7997
  140.7084  143.3258  151.2683 H   0  0  0  0  0  0  0  0  0  0  0  0  # atno 10167 bound_to 10162
  156.3635  130.4327  149.7604 H   0  0  0  0  0  0  0  0  0  0  0  0  # atno 10718 bound_to 10713
  154.1995  135.6413  153.5083 H   0  0  0  0  0  0  0  0  0  0  0  0  # atno 10763 bound_to 10752
  153.0015  135.5448  154.6330 H   0  0  0  0  0  0  0  0  0  0  0  0  # atno 10764 bound_to 10752
  154.5740  135.2919  155.0772 H   0  0  0  0  0  0  0  0  0  0  0  0  # atno 10765 bound_to 10752
  141.1524  133.6733  156.6396 H   0  0  0  0  0  0  0  0  0  0  0  0  # atno 11005 bound_to 11000
  144.7949  139.6254  143.7097 LP  0  0  0  0  0  0  0  0  0  0  0  0  # atno 17320 bound_to 7965
  146.2401  139.5983  142.9497 LP  0  0  0  0  0  0  0  0  0  0  0  0  # atno 17321 bound_to 7965
  139.6726  143.9993  152.2762 LP  0  0  0  0  0  0  0  0  0  0  0  0  # atno 17342 bound_to 10162
  139.9597  144.6566  150.8092 LP  0  0  0  0  0  0  0  0  0  0  0  0  # atno 17343 bound_to 10162
  156.4759  130.8018  151.3034 LP  0  0  0  0  0  0  0  0  0  0  0  0  # atno 17370 bound_to 10713
  157.7476  131.0021  150.2988 LP  0  0  0  0  0  0  0  0  0  0  0  0  # atno 17371 bound_to 10713
  140.3404  134.7854  157.4393 LP  0  0  0  0  0  0  0  0  0  0  0  0  # atno 17394 bound_to 11000
  140.0943  134.5559  155.8414 LP  0  0  0  0  0  0  0  0  0  0  0  0  # atno 17395 bound_to 11000

$$$$
