AV-unprocessed.smi:35|AV-procd|sdf|270|dock3
  -GOLD-   2262016 33D 1   1.00000     0.00000
 Structure written by MMmdl.
 28 29  0  0  0  0  0  0  0  0  2 V2000
  152.4196  136.9544  159.7059 O   0  0  0  0  0  0  0  0  0  0  0  0
  152.0685  137.5200  158.6719 C   0  0  0  0  0  0  0  0  0  0  0  0
  152.9521  137.9420  157.7218 N   0  5  0  0  0  0  0  0  0  0  0  0
  152.5571  138.5698  156.5755 C   0  0  0  0  0  0  0  0  0  0  0  0
  153.3468  138.9677  155.7189 O   0  0  0  0  0  0  0  0  0  0  0  0
  151.1699  138.7916  156.3533 N   0  0  0  0  0  0  0  0  0  0  0  0
  150.7370  139.4806  155.0716 C   0  0  1  0  0  0  0  0  0  0  0  0
  149.6340  138.8139  154.5259 O   0  0  0  0  0  0  0  0  0  0  0  0
  148.4610  139.6031  154.6891 C   0  0  2  0  0  0  0  0  0  0  0  0
  147.3576  139.1737  153.7058 C   0  0  0  0  0  0  0  0  0  0  0  0
  147.9190  138.8237  152.4584 O   0  0  0  0  0  0  0  0  0  0  0  0
  148.9835  141.0398  154.5693 C   0  0  2  0  0  0  0  0  0  0  0  0
  149.1639  141.4090  153.2142 O   0  0  0  0  0  0  0  0  0  0  0  0
  150.3286  140.9619  155.2797 C   0  0  1  0  0  0  0  0  0  0  0  0
  150.1691  141.3284  156.6394 O   0  0  0  0  0  0  0  0  0  0  0  0
  150.2496  138.3757  157.3019 C   0  0  0  0  0  0  0  0  0  0  0  0
  150.6479  137.7598  158.4333 C   0  0  0  0  0  0  0  0  0  0  0  0
  149.2239  137.2209  159.7017 Br  0  0  0  0  0  0  0  0  0  0  0  0
  151.5702  139.3557  154.3779 H   0  0  0  0  0  0  0  0  0  0  0  0
  148.1030  139.4490  155.7084 H   0  0  0  0  0  0  0  0  0  0  0  0
  146.7712  138.3405  154.0936 H   0  0  0  0  0  0  0  0  0  0  0  0
  146.6646  139.9999  153.5461 H   0  0  0  0  0  0  0  0  0  0  0  0
  147.9586  137.8814  152.4006 H   0  0  0  0  0  0  0  0  0  0  0  0
  148.3047  141.7605  155.0276 H   0  0  0  0  0  0  0  0  0  0  0  0
  149.1493  140.6242  152.6881 H   0  0  0  0  0  0  0  0  0  0  0  0
  151.0777  141.6177  154.8336 H   0  0  0  0  0  0  0  0  0  0  0  0
  149.6910  142.1437  156.6717 H   0  0  0  0  0  0  0  0  0  0  0  0
  149.1944  138.5394  157.1494 H   0  0  0  0  0  0  0  0  0  0  0  0
  1  2  2  0  0  0  0
  2 17  1  0  0  0  0
  2  3  1  0  0  0  0
  3  4  1  0  0  0  0
  4  5  2  0  0  0  0
  4  6  1  0  0  0  0
  6  7  1  0  0  0  0
  6 16  1  0  0  0  0
  7 14  1  0  0  0  0
  7  8  1  0  0  0  0
  7 19  1  0  0  0  0
  8  9  1  0  0  0  0
  9 10  1  0  0  0  0
  9 12  1  0  0  0  0
  9 20  1  0  0  0  0
 10 11  1  0  0  0  0
 10 21  1  0  0  0  0
 10 22  1  0  0  0  0
 11 23  1  0  0  0  0
 12 13  1  0  0  0  0
 12 14  1  0  0  0  0
 12 24  1  0  0  0  0
 13 25  1  0  0  0  0
 14 15  1  0  0  0  0
 14 26  1  0  0  0  0
 15 27  1  0  0  0  0
 16 17  2  0  0  0  0
 16 28  1  0  0  0  0
 17 18  1  0  0  0  0
M  CHG  1   3  -1
M  END
> <s_m_source_file>
AV-unprocessed.smi

> <i_m_source_file_index>
35

> <i_lp_mmshare_version>
43012

> <i_f3d_flags>
0

> <s_epik_input>
Tz1jMVtuSF1jKD1PKW4oW2NIXWMxQnIpW0NAQEhdMk9bQ0BASF0oW0NIMl1bT0hdKVtDQEBIXShbT0hdKVtDQEhdMltPSF0=

> <s_epik_cmdline>
J2VwaWtfcHl0aG9uJywgJy1waCcsICc3LjAnLCAnLXRuJywgJzgnLCAnLW1hJywgJzIwMCcsICctbWV0YWxfYmluZGluZycsICctaW1hZScsICc8aW5maWxlLm1hZT4nLCAnLW9tYWUnLCAnPG91dGZpbGUubWFlPic=

> <r_epik_Ionization_Penalty>
1.06112

> <r_epik_Ionization_Penalty_Charging>
2.1796e-09

> <r_epik_Ionization_Penalty_Neutral>
1.06112

> <r_epik_State_Penalty>
1.11484

> <r_epik_Charging_Adjusted_Penalty>
1.11484

> <i_epik_Tot_Q>
-1

> <i_epik_Tot_abs_Q>
1

> <r_epik_Metal_State_Penalty>
0.0032876

> <b_epik_Metal_Only>
0

> <s_epik_Chemistry_Notes>
This compound contains an acetal/aminal-like group ( X-CH(R)-Y where X, Y are N, S, or O) that may be acid/base labile, releasing an aldehyde.

> <s_lp_Force_Field>
OPLS_2005

> <r_lp_Energy>
42.6041

> <b_lp_Chiralities_Consistent>
1

> <s_lp_Variant>
AV-unprocessed.smi:35-24

> <Gold.Version>
5.8.1

> <Gold.Id.Protein>
6NUR|6NUR_protein|mol2

> <Gold.PLP.Fitness>
38.6947

> <Gold.PLP.PLP>
-25.4471

> <Gold.PLP.part.hbond>
-6.3608

> <Gold.PLP.part.metal>
0.0000

> <Gold.PLP.part.buried>
-1.7705

> <Gold.PLP.part.nonpolar>
-15.8648

> <Gold.PLP.part.repulsive>
0.1818

> <Gold.PLP.ligand.clash>
0.0000

> <Gold.PLP.ligand.torsion>
0.6328

> <Gold.PLP.Chemscore.Hbond>
4.8240

> <Gold.PLP.Chemscore.CHOScore>
0.0000

> <Gold.PLP.Chemscore.Metal>
0.0000

> <Gold.Chemscore.Hbonds>
donor molecule, donor type, donor heavy atom, donor atom, acceptor molecule, acceptor atom, score
      L1  H    11    23       P1  7948  0.96
      L1  H    13    25       P1  7957  0.82
      P1  H  6896  6909       L1     1  1.00
      P1  H  7997  8010       L1     5  1.00
      P1  H  8011  8017       L1    13  0.86

> <Gold.PLP.Chemscore.Internal.Correction>
0.0411

> <Gold.Rescore>
     Score         DG    S(hbond)    S(metal)    S(lipo)     H(rot)  DE(clash)    DE(int)     intcor
     12.57     -14.10       4.12        0.00      35.32       3.63       0.12       1.41       ----

> <Gold.Chemscore.Fitness>
12.5700

> <Gold.Chemscore.DG>
-14.0998

> <Gold.Chemscore.ZeroCoef>
-5.4800

> <Gold.Chemscore.Hbond>
4.1229

> <Gold.Chemscore.Metal>
0.0000

> <Gold.Chemscore.Lipo>
35.3178

> <Gold.Chemscore.Internal_Hbond>
0.0000

> <Gold.Chemscore.DEClash>
0.1219

> <Gold.Chemscore.DEInternal>
1.4079

> <Gold.Chemscore.Rot>
3.6261

> <Gold.Chemscore.Internal.Correction>
   9.000000E+99

> <Gold.Chemscore.Hbonds>
donor molecule, donor type, donor heavy atom, donor atom, acceptor molecule, acceptor atom, score
      L1  H    11    23       P1  7948  0.90
      L1  H    13    25       P1  7957  0.81
      P1  H  6896  6909       L1     1  0.95
      P1  H  7997  8010       L1     5  0.94
      P1  H  8011  8017       L1    13  0.36

> <Gold.Chemscore.Hbond.Weighted>
-13.7704

> <Gold.Chemscore.Metal.Weighted>
-0.0000

> <Gold.Chemscore.Lipo.Weighted>
-4.1322

> <Gold.Chemscore.Internal_Hbond.Weighted>
0.0000

> <Gold.Chemscore.DEClash.Weighted>
0.1219

> <Gold.Chemscore.DEInternal.Weighted>
1.4079

> <Gold.Chemscore.Rot.Weighted>
9.2828

> <Gold.Chemscore.Internal.Correction.Weighted>
   9.000000E+99

> <Gold.Protein.RotatedTorsions>
[ 6907 6896 6895 6894 ] final  149.94 input  -60.11 | X-H torsion
[ 7974 7965 7964 7962 ] final  154.26 input  175.53 | X-H torsion
[ 8008 7997 7996 7995 ] final   93.90 input   59.86 | X-H torsion
[ 10167 10162 10161 10158 ] final   66.44 input  -65.29 | X-H torsion
[ 10718 10713 10712 10709 ] final -132.35 input   66.30 | X-H torsion
[ 10763 10752 10751 10750 ] final  -20.72 input  -60.55 | X-H torsion
[ 11005 11000 10999 10996 ] final -105.94 input  -57.11 | X-H torsion

> <Gold.Protein.ActiveResidues>
 VAL166  LYS551  ARG553  GLY616  TRP617  ASP618  TYR619  PRO620  LYS621  CYS622 
 ASP623  PHE694  ASN695  SER759  ASP760  ASP761  ALA762  ILE779  LEU786  VAL792 
 PHE793  MET794  SER795  GLU796  ALA797  LYS798  CYS799  TRP800  GLU811  SER814 

> <Gold.Protein.RotatedAtoms>
  152.1211  133.4354  159.4675 H   0  0  0  0  0  0  0  0  0  0  0  0  # atno 6907 bound_to 6896
  150.6872  134.2533  159.4529 H   0  0  0  0  0  0  0  0  0  0  0  0  # atno 6908 bound_to 6896
  152.0410  134.9711  160.0624 H   0  0  0  0  0  0  0  0  0  0  0  0  # atno 6909 bound_to 6896
  144.8100  139.6910  143.6145 H   0  0  0  0  0  0  0  0  0  0  0  0  # atno 7974 bound_to 7965
  156.0520  140.3307  155.7362 H   0  0  0  0  0  0  0  0  0  0  0  0  # atno 8008 bound_to 7997
  155.5587  140.0617  157.2851 H   0  0  0  0  0  0  0  0  0  0  0  0  # atno 8009 bound_to 7997
  154.4440  140.1881  156.0748 H   0  0  0  0  0  0  0  0  0  0  0  0  # atno 8010 bound_to 7997
  140.1003  144.4909  150.7041 H   0  0  0  0  0  0  0  0  0  0  0  0  # atno 10167 bound_to 10162
  156.2337  130.7053  151.0885 H   0  0  0  0  0  0  0  0  0  0  0  0  # atno 10718 bound_to 10713
  153.6249  135.6991  153.5297 H   0  0  0  0  0  0  0  0  0  0  0  0  # atno 10763 bound_to 10752
  153.2907  135.4158  155.1164 H   0  0  0  0  0  0  0  0  0  0  0  0  # atno 10764 bound_to 10752
  154.8535  135.3624  154.5790 H   0  0  0  0  0  0  0  0  0  0  0  0  # atno 10765 bound_to 10752
  141.1029  133.8850  157.1795 H   0  0  0  0  0  0  0  0  0  0  0  0  # atno 11005 bound_to 11000
  146.2397  139.5977  142.9499 LP  0  0  0  0  0  0  0  0  0  0  0  0  # atno 17320 bound_to 7965
  145.5346  141.0425  143.2364 LP  0  0  0  0  0  0  0  0  0  0  0  0  # atno 17321 bound_to 7965
  140.6981  143.2417  151.4943 LP  0  0  0  0  0  0  0  0  0  0  0  0  # atno 17342 bound_to 10162
  139.5675  144.2008  152.1786 LP  0  0  0  0  0  0  0  0  0  0  0  0  # atno 17343 bound_to 10162
  157.7144  131.0717  150.6380 LP  0  0  0  0  0  0  0  0  0  0  0  0  # atno 17370 bound_to 10713
  156.6449  130.4469  149.5739 LP  0  0  0  0  0  0  0  0  0  0  0  0  # atno 17371 bound_to 10713
  139.9887  135.0072  156.9925 LP  0  0  0  0  0  0  0  0  0  0  0  0  # atno 17394 bound_to 11000
  140.4976  134.1130  155.7244 LP  0  0  0  0  0  0  0  0  0  0  0  0  # atno 17395 bound_to 11000

$$$$
