AV-unprocessed.smi:383|AV-procd|sdf|2464|dock8
  -GOLD-   2262022403D 1   1.00000     0.00000
 Structure written by MMmdl.
 40 41  0  0  0  0  0  0  0  0  1 V2000
  144.6475  144.1822  161.6357 C   0  0  0  0  0  0  0  0  0  0  0  0
  145.6038  144.6988  160.5482 C   0  0  0  0  0  0  0  0  0  0  0  0
  144.8335  145.1578  159.2992 C   0  0  0  0  0  0  0  0  0  0  0  0
  146.6384  143.6282  160.1787 C   0  0  0  0  0  0  0  0  0  0  0  0
  146.6647  142.5571  160.7859 O   0  0  0  0  0  0  0  0  0  0  0  0
  147.4817  143.9300  159.1791 N   0  0  0  0  0  0  0  0  0  0  0  0
  148.5115  143.0407  158.6560 C   0  0  0  0  0  0  0  0  0  0  0  0
  149.9173  143.6025  158.8436 C   0  0  0  0  0  0  0  0  0  0  0  0
  150.0750  144.8318  159.5183 C   0  0  0  0  0  0  0  0  0  0  0  0
  151.3629  145.3756  159.6702 C   0  0  0  0  0  0  0  0  0  0  0  0
  152.4519  144.6652  159.1345 C   0  0  0  0  0  0  0  0  0  0  0  0
  152.3192  143.4909  158.4842 N   0  0  0  0  0  0  0  0  0  0  0  0
  151.0796  142.9625  158.3344 C   0  0  0  0  0  0  0  0  0  0  0  0
  150.9825  141.7363  157.6547 N   0  0  0  0  0  0  0  0  0  0  0  0
  151.8788  140.7104  158.1698 C   0  0  0  0  0  0  0  0  0  0  0  0
  151.5214  139.3489  157.5488 C   0  0  0  0  0  0  0  0  0  0  0  0
  151.5541  139.4453  156.1272 O   0  0  0  0  0  0  0  0  0  0  0  0
  150.6211  140.4024  155.6316 C   0  0  0  0  0  0  0  0  0  0  0  0
  150.9596  141.7918  156.1976 C   0  0  0  0  0  0  0  0  0  0  0  0
  145.1932  143.8578  162.5226 H   0  0  0  0  0  0  0  0  0  0  0  0
  144.0538  143.3381  161.2820 H   0  0  0  0  0  0  0  0  0  0  0  0
  143.9543  144.9641  161.9473 H   0  0  0  0  0  0  0  0  0  0  0  0
  146.1332  145.5633  160.9522 H   0  0  0  0  0  0  0  0  0  0  0  0
  145.5125  145.5182  158.5251 H   0  0  0  0  0  0  0  0  0  0  0  0
  144.1513  145.9734  159.5402 H   0  0  0  0  0  0  0  0  0  0  0  0
  144.2412  144.3474  158.8717 H   0  0  0  0  0  0  0  0  0  0  0  0
  147.3932  144.8348  158.7400 H   0  0  0  0  0  0  0  0  0  0  0  0
  148.4460  142.0979  159.1994 H   0  0  0  0  0  0  0  0  0  0  0  0
  148.2953  142.7936  157.6168 H   0  0  0  0  0  0  0  0  0  0  0  0
  149.2164  145.3562  159.9115 H   0  0  0  0  0  0  0  0  0  0  0  0
  151.5120  146.3149  160.1815 H   0  0  0  0  0  0  0  0  0  0  0  0
  153.4565  145.0500  159.2288 H   0  0  0  0  0  0  0  0  0  0  0  0
  152.9077  140.9766  157.9239 H   0  0  0  0  0  0  0  0  0  0  0  0
  151.8135  140.6547  159.2569 H   0  0  0  0  0  0  0  0  0  0  0  0
  152.2343  138.5896  157.8704 H   0  0  0  0  0  0  0  0  0  0  0  0
  150.5343  139.0201  157.8780 H   0  0  0  0  0  0  0  0  0  0  0  0
  150.6706  140.4174  154.5430 H   0  0  0  0  0  0  0  0  0  0  0  0
  149.6049  140.1103  155.9018 H   0  0  0  0  0  0  0  0  0  0  0  0
  150.2214  142.5233  155.8660 H   0  0  0  0  0  0  0  0  0  0  0  0
  151.9320  142.1148  155.8231 H   0  0  0  0  0  0  0  0  0  0  0  0
  1  2  1  0  0  0  0
  1 20  1  0  0  0  0
  1 21  1  0  0  0  0
  1 22  1  0  0  0  0
  2  3  1  0  0  0  0
  2  4  1  0  0  0  0
  2 23  1  0  0  0  0
  3 24  1  0  0  0  0
  3 25  1  0  0  0  0
  3 26  1  0  0  0  0
  4  5  2  0  0  0  0
  4  6  1  0  0  0  0
  6  7  1  0  0  0  0
  6 27  1  0  0  0  0
  7  8  1  0  0  0  0
  7 28  1  0  0  0  0
  7 29  1  0  0  0  0
  8 13  1  0  0  0  0
  8  9  2  0  0  0  0
  9 10  1  0  0  0  0
  9 30  1  0  0  0  0
 10 11  2  0  0  0  0
 10 31  1  0  0  0  0
 11 12  1  0  0  0  0
 11 32  1  0  0  0  0
 12 13  2  0  0  0  0
 13 14  1  0  0  0  0
 14 19  1  0  0  0  0
 14 15  1  0  0  0  0
 15 16  1  0  0  0  0
 15 33  1  0  0  0  0
 15 34  1  0  0  0  0
 16 17  1  0  0  0  0
 16 35  1  0  0  0  0
 16 36  1  0  0  0  0
 17 18  1  0  0  0  0
 18 19  1  0  0  0  0
 18 37  1  0  0  0  0
 18 38  1  0  0  0  0
 19 39  1  0  0  0  0
 19 40  1  0  0  0  0
M  END
> <s_m_source_file>
AV-unprocessed.smi

> <i_m_source_file_index>
383

> <i_lp_mmshare_version>
43012

> <i_f3d_flags>
0

> <s_epik_input>
W0NIM11bQ0hdKFtDSDNdKUMoPU8pW05IXVtDSDJdYzFbY0hdW2NIXVtjSF1uYzFOMltDSDJdW0NIMl1PW0NIMl1bQ0gyXTI=

> <s_epik_cmdline>
J2VwaWtfcHl0aG9uJywgJy1waCcsICc3LjAnLCAnLXRuJywgJzgnLCAnLW1hJywgJzIwMCcsICctbWV0YWxfYmluZGluZycsICctaW1hZScsICc8aW5maWxlLm1hZT4nLCAnLW9tYWUnLCAnPG91dGZpbGUubWFlPic=

> <r_lp_tautomer_probability>
1

> <r_epik_Ionization_Penalty>
0.00505534

> <r_epik_Ionization_Penalty_Charging>
0

> <r_epik_Ionization_Penalty_Neutral>
0.00505534

> <r_epik_State_Penalty>
0.00367784

> <r_epik_Charging_Adjusted_Penalty>
0.00367784

> <i_epik_Tot_Q>
0

> <i_epik_Tot_abs_Q>
0

> <r_epik_Metal_State_Penalty>
-0

> <b_epik_Metal_Only>
0

> <s_lp_Force_Field>
OPLS_2005

> <r_lp_Energy>
19.0793

> <b_lp_Chiralities_Consistent>
1

> <s_lp_Variant>
AV-unprocessed.smi:383-1

> <Gold.Version>
5.8.1

> <Gold.Id.Protein>
6NUR|6NUR_protein|mol2

> <Gold.PLP.Fitness>
41.3796

> <Gold.PLP.PLP>
-34.0281

> <Gold.PLP.part.hbond>
-3.0000

> <Gold.PLP.part.metal>
0.0000

> <Gold.PLP.part.buried>
-5.1015

> <Gold.PLP.part.nonpolar>
-25.2492

> <Gold.PLP.part.repulsive>
0.1511

> <Gold.PLP.ligand.clash>
0.0000

> <Gold.PLP.ligand.torsion>
0.4841

> <Gold.PLP.Chemscore.Hbond>
2.6974

> <Gold.PLP.Chemscore.CHOScore>
0.0000

> <Gold.PLP.Chemscore.Metal>
0.0000

> <Gold.Chemscore.Hbonds>
donor molecule, donor type, donor heavy atom, donor atom, acceptor molecule, acceptor atom, score
      L1  H     6    27       P1  8029  0.94
      P1  H  6933  6944       L1     5  0.74
      P1  H  6934  6946       L1     5  0.93

> <Gold.PLP.Chemscore.Internal.Correction>
0.2275

> <Gold.Rescore>
     Score         DG    S(hbond)    S(metal)    S(lipo)     H(rot)  DE(clash)    DE(int)     intcor
     19.18     -19.79       2.64        0.00      80.94       1.56       0.28       0.33       ----

> <Gold.Chemscore.Fitness>
19.1767

> <Gold.Chemscore.DG>
-19.7924

> <Gold.Chemscore.ZeroCoef>
-5.4800

> <Gold.Chemscore.Hbond>
2.6443

> <Gold.Chemscore.Metal>
0.0000

> <Gold.Chemscore.Lipo>
80.9399

> <Gold.Chemscore.Internal_Hbond>
0.0000

> <Gold.Chemscore.DEClash>
0.2849

> <Gold.Chemscore.DEInternal>
0.3308

> <Gold.Chemscore.Rot>
1.5584

> <Gold.Chemscore.Internal.Correction>
   9.000000E+99

> <Gold.Chemscore.Hbonds>
donor molecule, donor type, donor heavy atom, donor atom, acceptor molecule, acceptor atom, score
      L1  H     6    27       P1  8029  0.91
      P1  H  6933  6944       L1     5  0.43
      P1  H  6934  6946       L1     5  0.90

> <Gold.Chemscore.Hbond.Weighted>
-8.8319

> <Gold.Chemscore.Metal.Weighted>
-0.0000

> <Gold.Chemscore.Lipo.Weighted>
-9.4700

> <Gold.Chemscore.Internal_Hbond.Weighted>
0.0000

> <Gold.Chemscore.DEClash.Weighted>
0.2849

> <Gold.Chemscore.DEInternal.Weighted>
0.3308

> <Gold.Chemscore.Rot.Weighted>
3.9895

> <Gold.Chemscore.Internal.Correction.Weighted>
   9.000000E+99

> <Gold.Protein.RotatedTorsions>
[ 6907 6896 6895 6894 ] final   31.76 input  -60.11 | X-H torsion
[ 7974 7965 7964 7962 ] final   71.84 input  175.53 | X-H torsion
[ 8008 7997 7996 7995 ] final   13.36 input   59.86 | X-H torsion
[ 10167 10162 10161 10158 ] final -125.38 input  -65.29 | X-H torsion
[ 10718 10713 10712 10709 ] final -158.15 input   66.30 | X-H torsion
[ 10763 10752 10751 10750 ] final  132.87 input  -60.55 | X-H torsion
[ 11005 11000 10999 10996 ] final   56.00 input  -57.11 | X-H torsion

> <Gold.Protein.ActiveResidues>
 VAL166  LYS551  ARG553  GLY616  TRP617  ASP618  TYR619  PRO620  LYS621  CYS622 
 ASP623  PHE694  ASN695  SER759  ASP760  ASP761  ALA762  ILE779  LEU786  VAL792 
 PHE793  MET794  SER795  GLU796  ALA797  LYS798  CYS799  TRP800  GLU811  SER814 

> <Gold.Protein.RotatedAtoms>
  152.0648  134.9571  160.0574 H   0  0  0  0  0  0  0  0  0  0  0  0  # atno 6907 bound_to 6896
  152.0920  133.4201  159.4556 H   0  0  0  0  0  0  0  0  0  0  0  0  # atno 6908 bound_to 6896
  150.6837  134.2780  159.4659 H   0  0  0  0  0  0  0  0  0  0  0  0  # atno 6909 bound_to 6896
  145.7608  139.2800  143.1377 H   0  0  0  0  0  0  0  0  0  0  0  0  # atno 7974 bound_to 7965
  154.8334  140.2903  155.5707 H   0  0  0  0  0  0  0  0  0  0  0  0  # atno 8008 bound_to 7997
  156.3007  140.2527  156.3194 H   0  0  0  0  0  0  0  0  0  0  0  0  # atno 8009 bound_to 7997
  154.9206  140.0386  157.1985 H   0  0  0  0  0  0  0  0  0  0  0  0  # atno 8010 bound_to 7997
  139.9827  143.5725  152.2372 H   0  0  0  0  0  0  0  0  0  0  0  0  # atno 10167 bound_to 10162
  156.5502  130.8602  151.2777 H   0  0  0  0  0  0  0  0  0  0  0  0  # atno 10718 bound_to 10713
  153.7978  135.3146  155.3386 H   0  0  0  0  0  0  0  0  0  0  0  0  # atno 10763 bound_to 10752
  154.8101  135.4673  154.0496 H   0  0  0  0  0  0  0  0  0  0  0  0  # atno 10764 bound_to 10752
  153.1835  135.6897  153.8534 H   0  0  0  0  0  0  0  0  0  0  0  0  # atno 10765 bound_to 10752
  140.0563  134.5665  155.9204 H   0  0  0  0  0  0  0  0  0  0  0  0  # atno 11005 bound_to 11000
  146.0265  140.8298  142.9897 LP  0  0  0  0  0  0  0  0  0  0  0  0  # atno 17320 bound_to 7965
  144.6831  140.2706  143.7306 LP  0  0  0  0  0  0  0  0  0  0  0  0  # atno 17321 bound_to 7965
  139.6398  144.7653  151.2363 LP  0  0  0  0  0  0  0  0  0  0  0  0  # atno 17342 bound_to 10162
  140.7483  143.6337  150.8399 LP  0  0  0  0  0  0  0  0  0  0  0  0  # atno 17343 bound_to 10162
  157.7389  130.9821  150.2280 LP  0  0  0  0  0  0  0  0  0  0  0  0  # atno 17370 bound_to 10713
  156.2891  130.3743  149.7859 LP  0  0  0  0  0  0  0  0  0  0  0  0  # atno 17371 bound_to 10713
  141.1953  133.6587  156.5638 LP  0  0  0  0  0  0  0  0  0  0  0  0  # atno 17394 bound_to 11000
  140.3839  134.7499  157.4678 LP  0  0  0  0  0  0  0  0  0  0  0  0  # atno 17395 bound_to 11000

$$$$
