AV-unprocessed.smi:1678|AV-procd|sdf|6728|dock1
  -GOLD-   22720 7473D 1   1.00000     0.00000
 Structure written by MMmdl.
 43 44  0  0  0  0  0  0  0  0  1 V2000
  147.7060  132.9815  152.5200 C   0  0  0  0  0  0  0  0  0  0  0  0
  146.3778  132.9631  151.7809 C   0  0  0  0  0  0  0  0  0  0  0  0
  145.7845  131.7240  151.4586 C   0  0  0  0  0  0  0  0  0  0  0  0
  144.5570  131.7083  150.7747 C   0  0  0  0  0  0  0  0  0  0  0  0
  143.9709  132.9408  150.4393 C   0  0  0  0  0  0  0  0  0  0  0  0
  144.5309  134.1292  150.7429 N   0  0  0  0  0  0  0  0  0  0  0  0
  145.7158  134.1625  151.4033 C   0  0  0  0  0  0  0  0  0  0  0  0
  146.3641  135.3799  151.7565 N   0  0  0  0  0  0  0  0  0  0  0  0
  145.8228  136.4968  152.2743 C   0  0  0  0  0  0  0  0  0  0  0  0
  144.6296  136.6580  152.5334 O   0  0  0  0  0  0  0  0  0  0  0  0
  146.7560  137.4370  152.4819 N   0  0  0  0  0  0  0  0  0  0  0  0
  146.4967  138.7604  153.0357 C   0  0  0  0  0  0  0  0  0  0  0  0
  147.7167  139.6879  152.8799 C   0  0  0  0  0  0  0  0  0  0  0  0
  148.5351  139.6978  154.0991 N   0  0  0  0  0  0  0  0  0  0  0  0
  148.6660  138.4149  154.8096 C   0  0  0  0  0  0  0  0  0  0  0  0
  150.0812  137.7960  154.7233 C   0  0  0  0  0  0  0  0  0  0  0  0
  151.2544  138.7866  154.5884 C   0  0  0  0  0  0  0  0  0  0  0  0
  151.2897  139.9051  155.6507 C   0  0  0  0  0  0  0  0  0  0  0  0
  150.0026  140.7495  155.8059 C   0  0  0  0  0  0  0  0  0  0  0  0
  149.1411  140.8299  154.5352 C   0  0  0  0  0  0  0  0  0  0  0  0
  149.0369  141.9127  153.9589 O   0  0  0  0  0  0  0  0  0  0  0  0
  148.0502  131.9711  152.7438 H   0  0  0  0  0  0  0  0  0  0  0  0
  147.6114  133.5197  153.4634 H   0  0  0  0  0  0  0  0  0  0  0  0
  148.4711  133.4703  151.9162 H   0  0  0  0  0  0  0  0  0  0  0  0
  146.2621  130.7943  151.7310 H   0  0  0  0  0  0  0  0  0  0  0  0
  144.0774  130.7765  150.5141 H   0  0  0  0  0  0  0  0  0  0  0  0
  143.0283  132.9749  149.9132 H   0  0  0  0  0  0  0  0  0  0  0  0
  147.3604  135.3991  151.5978 H   0  0  0  0  0  0  0  0  0  0  0  0
  147.7124  137.2232  152.2401 H   0  0  0  0  0  0  0  0  0  0  0  0
  145.6406  139.1844  152.5102 H   0  0  0  0  0  0  0  0  0  0  0  0
  146.2033  138.6727  154.0832 H   0  0  0  0  0  0  0  0  0  0  0  0
  148.3250  139.3721  152.0304 H   0  0  0  0  0  0  0  0  0  0  0  0
  147.3829  140.6951  152.6285 H   0  0  0  0  0  0  0  0  0  0  0  0
  148.3886  138.5554  155.8544 H   0  0  0  0  0  0  0  0  0  0  0  0
  147.9457  137.6834  154.4428 H   0  0  0  0  0  0  0  0  0  0  0  0
  150.2395  137.1576  155.5931 H   0  0  0  0  0  0  0  0  0  0  0  0
  150.1137  137.1288  153.8611 H   0  0  0  0  0  0  0  0  0  0  0  0
  152.1907  138.2297  154.6329 H   0  0  0  0  0  0  0  0  0  0  0  0
  151.2391  139.2312  153.5921 H   0  0  0  0  0  0  0  0  0  0  0  0
  151.5344  139.4661  156.6185 H   0  0  0  0  0  0  0  0  0  0  0  0
  152.1196  140.5722  155.4152 H   0  0  0  0  0  0  0  0  0  0  0  0
  149.3943  140.3598  156.6219 H   0  0  0  0  0  0  0  0  0  0  0  0
  150.2728  141.7589  156.1187 H   0  0  0  0  0  0  0  0  0  0  0  0
  1  2  1  0  0  0  0
  1 22  1  0  0  0  0
  1 23  1  0  0  0  0
  1 24  1  0  0  0  0
  2  7  1  0  0  0  0
  2  3  2  0  0  0  0
  3  4  1  0  0  0  0
  3 25  1  0  0  0  0
  4  5  2  0  0  0  0
  4 26  1  0  0  0  0
  5  6  1  0  0  0  0
  5 27  1  0  0  0  0
  6  7  2  0  0  0  0
  7  8  1  0  0  0  0
  8  9  1  0  0  0  0
  8 28  1  0  0  0  0
  9 10  2  0  0  0  0
  9 11  1  0  0  0  0
 11 12  1  0  0  0  0
 11 29  1  0  0  0  0
 12 13  1  0  0  0  0
 12 30  1  0  0  0  0
 12 31  1  0  0  0  0
 13 14  1  0  0  0  0
 13 32  1  0  0  0  0
 13 33  1  0  0  0  0
 14 20  1  0  0  0  0
 14 15  1  0  0  0  0
 15 16  1  0  0  0  0
 15 34  1  0  0  0  0
 15 35  1  0  0  0  0
 16 17  1  0  0  0  0
 16 36  1  0  0  0  0
 16 37  1  0  0  0  0
 17 18  1  0  0  0  0
 17 38  1  0  0  0  0
 17 39  1  0  0  0  0
 18 19  1  0  0  0  0
 18 40  1  0  0  0  0
 18 41  1  0  0  0  0
 19 20  1  0  0  0  0
 19 42  1  0  0  0  0
 19 43  1  0  0  0  0
 20 21  2  0  0  0  0
M  END
> <s_m_source_file>
AV-unprocessed.smi

> <i_m_source_file_index>
1678

> <i_lp_mmshare_version>
43012

> <i_f3d_flags>
0

> <s_epik_input>
W0NIM11jMVtjSF1bY0hdW2NIXW5jMVtOSF1DKD1PKVtOSF1bQ0gyXVtDSDJdTjJbQ0gyXVtDSDJdW0NIMl1bQ0gyXVtDSDJdQzI9Tw==

> <s_epik_cmdline>
J2VwaWtfcHl0aG9uJywgJy1waCcsICc3LjAnLCAnLXRuJywgJzgnLCAnLW1hJywgJzIwMCcsICctbWV0YWxfYmluZGluZycsICctaW1hZScsICc8aW5maWxlLm1hZT4nLCAnLW9tYWUnLCAnPG91dGZpbGUubWFlPic=

> <r_lp_tautomer_probability>
1

> <r_epik_Ionization_Penalty>
5.3034e-05

> <r_epik_Ionization_Penalty_Charging>
0

> <r_epik_Ionization_Penalty_Neutral>
5.3034e-05

> <r_epik_State_Penalty>
-0

> <r_epik_Charging_Adjusted_Penalty>
0

> <i_epik_Tot_Q>
0

> <i_epik_Tot_abs_Q>
0

> <r_epik_Metal_State_Penalty>
-0

> <b_epik_Metal_Only>
0

> <s_lp_Force_Field>
OPLS_2005

> <r_lp_Energy>
24.0679

> <b_lp_Chiralities_Consistent>
1

> <s_lp_Variant>
AV-unprocessed.smi:1678-1

> <Gold.Version>
5.8.1

> <Gold.Id.Protein>
6NUR|6NUR_protein|mol2

> <Gold.PLP.Fitness>
46.6550

> <Gold.PLP.PLP>
-38.1139

> <Gold.PLP.part.hbond>
-3.4436

> <Gold.PLP.part.metal>
0.0000

> <Gold.PLP.part.buried>
-1.2733

> <Gold.PLP.part.nonpolar>
-34.8638

> <Gold.PLP.part.repulsive>
0.6376

> <Gold.PLP.ligand.clash>
0.0000

> <Gold.PLP.ligand.torsion>
0.9848

> <Gold.PLP.Chemscore.Hbond>
2.4880

> <Gold.PLP.Chemscore.CHOScore>
1.0000

> <Gold.PLP.Chemscore.Metal>
0.0000

> <Gold.Chemscore.Hbonds>
donor molecule, donor type, donor heavy atom, donor atom, acceptor molecule, acceptor atom, score
      L1  H     8    28       P1  7948  1.00
      L1  H    11    29       P1  7948  1.00
      P1  H  8011  8017       L1    21  0.48
      L1  C     5    27       P1 10186  1.00

> <Gold.PLP.Chemscore.Internal.Correction>
0.0467

> <Gold.Rescore>
     Score         DG    S(hbond)    S(metal)    S(lipo)     H(rot)  DE(clash)    DE(int)     intcor
     17.16     -19.57       2.39        0.00      85.28       1.51       1.38       1.03       ----

> <Gold.Chemscore.Fitness>
17.1573

> <Gold.Chemscore.DG>
-19.5716

> <Gold.Chemscore.ZeroCoef>
-5.4800

> <Gold.Chemscore.Hbond>
2.3913

> <Gold.Chemscore.Metal>
0.0000

> <Gold.Chemscore.Lipo>
85.2836

> <Gold.Chemscore.Internal_Hbond>
0.0000

> <Gold.Chemscore.DEClash>
1.3848

> <Gold.Chemscore.DEInternal>
1.0294

> <Gold.Chemscore.Rot>
1.5131

> <Gold.Chemscore.Internal.Correction>
   9.000000E+99

> <Gold.Chemscore.Hbonds>
donor molecule, donor type, donor heavy atom, donor atom, acceptor molecule, acceptor atom, score
      L1  H     8    28       P1  7948  0.90
      L1  H    11    29       P1  7948  0.97
      P1  H  8011  8017       L1    21  0.48

> <Gold.Chemscore.Hbond.Weighted>
-7.9869

> <Gold.Chemscore.Metal.Weighted>
-0.0000

> <Gold.Chemscore.Lipo.Weighted>
-9.9782

> <Gold.Chemscore.Internal_Hbond.Weighted>
0.0000

> <Gold.Chemscore.DEClash.Weighted>
1.3848

> <Gold.Chemscore.DEInternal.Weighted>
1.0294

> <Gold.Chemscore.Rot.Weighted>
3.8735

> <Gold.Chemscore.Internal.Correction.Weighted>
   9.000000E+99

> <Gold.Protein.RotatedTorsions>
[ 6907 6896 6895 6894 ] final  130.88 input  -60.11 | X-H torsion
[ 7974 7965 7964 7962 ] final  -53.52 input  175.53 | X-H torsion
[ 8008 7997 7996 7995 ] final  178.84 input   59.86 | X-H torsion
[ 10167 10162 10161 10158 ] final -149.21 input  -65.29 | X-H torsion
[ 10718 10713 10712 10709 ] final   39.92 input   66.30 | X-H torsion
[ 10763 10752 10751 10750 ] final -137.05 input  -60.55 | X-H torsion
[ 11005 11000 10999 10996 ] final  -19.87 input  -57.11 | X-H torsion

> <Gold.Protein.ActiveResidues>
 VAL166  LYS551  ARG553  GLY616  TRP617  ASP618  TYR619  PRO620  LYS621  CYS622 
 ASP623  PHE694  ASN695  SER759  ASP760  ASP761  ALA762  ILE779  LEU786  VAL792 
 PHE793  MET794  SER795  GLU796  ALA797  LYS798  CYS799  TRP800  GLU811  SER814 

> <Gold.Protein.RotatedAtoms>
  152.3482  133.6148  159.5925 H   0  0  0  0  0  0  0  0  0  0  0  0  # atno 6907 bound_to 6896
  150.7521  133.9615  159.3526 H   0  0  0  0  0  0  0  0  0  0  0  0  # atno 6908 bound_to 6896
  151.7471  135.0842  160.0376 H   0  0  0  0  0  0  0  0  0  0  0  0  # atno 6909 bound_to 6896
  145.8958  140.8034  142.9768 H   0  0  0  0  0  0  0  0  0  0  0  0  # atno 7974 bound_to 7965
  156.0502  140.1323  157.0059 H   0  0  0  0  0  0  0  0  0  0  0  0  # atno 8008 bound_to 7997
  154.4431  140.1012  156.6435 H   0  0  0  0  0  0  0  0  0  0  0  0  # atno 8009 bound_to 7997
  155.5535  140.3463  155.4476 H   0  0  0  0  0  0  0  0  0  0  0  0  # atno 8010 bound_to 7997
  139.7463  143.8586  152.2575 H   0  0  0  0  0  0  0  0  0  0  0  0  # atno 10167 bound_to 10162
  157.3762  130.7728  149.7157 H   0  0  0  0  0  0  0  0  0  0  0  0  # atno 10718 bound_to 10713
  154.8670  135.3654  154.5160 H   0  0  0  0  0  0  0  0  0  0  0  0  # atno 10763 bound_to 10752
  153.5793  135.7018  153.5475 H   0  0  0  0  0  0  0  0  0  0  0  0  # atno 10764 bound_to 10752
  153.3472  135.4082  155.1580 H   0  0  0  0  0  0  0  0  0  0  0  0  # atno 10765 bound_to 10752
  140.8409  133.7927  155.9860 H   0  0  0  0  0  0  0  0  0  0  0  0  # atno 11005 bound_to 11000
  144.6733  140.1601  143.7423 LP  0  0  0  0  0  0  0  0  0  0  0  0  # atno 17320 bound_to 7965
  145.8852  139.2345  143.1582 LP  0  0  0  0  0  0  0  0  0  0  0  0  # atno 17321 bound_to 7965
  139.8551  144.7145  150.9167 LP  0  0  0  0  0  0  0  0  0  0  0  0  # atno 17342 bound_to 10162
  140.7792  143.3865  151.1384 LP  0  0  0  0  0  0  0  0  0  0  0  0  # atno 17343 bound_to 10162
  155.9766  130.4074  150.3770 LP  0  0  0  0  0  0  0  0  0  0  0  0  # atno 17370 bound_to 10713
  157.1868  131.0405  151.2720 LP  0  0  0  0  0  0  0  0  0  0  0  0  # atno 17371 bound_to 10713
  140.8896  134.2512  157.5101 LP  0  0  0  0  0  0  0  0  0  0  0  0  # atno 17394 bound_to 11000
  139.8703  134.9655  156.4530 LP  0  0  0  0  0  0  0  0  0  0  0  0  # atno 17395 bound_to 11000

$$$$
