AV-unprocessed.smi:1219|AV-procd|sdf|5113|dock8
  -GOLD-   22720 4173D 1   1.00000     0.00000
 Structure written by MMmdl.
 43 44  0  0  0  0  0  0  0  0  2 V2000
  150.6304  140.3429  155.8883 O   0  0  0  0  0  0  0  0  0  0  0  0
  149.9652  141.3778  155.8450 C   0  0  0  0  0  0  0  0  0  0  0  0
  148.9834  141.5876  154.9557 N   0  0  0  0  0  0  0  0  0  0  0  0
  148.5604  140.6436  153.9247 C   0  0  0  0  0  0  0  0  0  0  0  0
  147.0521  140.3177  153.9832 C   0  0  1  0  0  0  0  0  0  0  0  0
  146.3512  141.4026  153.4100 O   0  0  0  0  0  0  0  0  0  0  0  0
  146.6666  139.0289  153.2246 C   0  0  0  0  0  0  0  0  0  0  0  0
  145.2115  138.7454  153.3123 N   0  3  0  0  0  0  0  0  0  0  0  0
  144.8221  137.5271  152.5560 C   0  0  0  0  0  0  0  0  0  0  0  0
  143.2945  137.3445  152.5463 C   0  0  0  0  0  0  0  0  0  0  0  0
  142.7340  137.3047  153.9741 C   0  0  0  0  0  0  0  0  0  0  0  0
  143.1801  138.5525  154.7475 C   0  0  0  0  0  0  0  0  0  0  0  0
  144.7099  138.7024  154.7128 C   0  0  0  0  0  0  0  0  0  0  0  0
  150.1183  142.4361  156.6598 N   0  0  0  0  0  0  0  0  0  0  0  0
  151.0886  142.6239  157.6797 C   0  0  0  0  0  0  0  0  0  0  0  0
  151.5670  143.9468  157.8150 C   0  0  0  0  0  0  0  0  0  0  0  0
  152.5375  144.2360  158.7938 C   0  0  0  0  0  0  0  0  0  0  0  0
  153.0063  143.1929  159.6121 C   0  0  0  0  0  0  0  0  0  0  0  0
  152.4786  141.9041  159.4115 C   0  0  0  0  0  0  0  0  0  0  0  0
  151.5488  141.6247  158.4735 N   0  0  0  0  0  0  0  0  0  0  0  0
  148.4833  142.4635  155.0007 H   0  0  0  0  0  0  0  0  0  0  0  0
  148.8236  141.0453  152.9447 H   0  0  0  0  0  0  0  0  0  0  0  0
  149.1449  139.7315  154.0512 H   0  0  0  0  0  0  0  0  0  0  0  0
  146.7466  140.2535  155.0265 H   0  0  0  0  0  0  0  0  0  0  0  0
  145.4521  141.1450  153.2720 H   0  0  0  0  0  0  0  0  0  0  0  0
  146.9720  139.1335  152.1821 H   0  0  0  0  0  0  0  0  0  0  0  0
  147.2099  138.1647  153.6088 H   0  0  0  0  0  0  0  0  0  0  0  0
  145.1775  137.6029  151.5274 H   0  0  0  0  0  0  0  0  0  0  0  0
  145.3055  136.6533  152.9961 H   0  0  0  0  0  0  0  0  0  0  0  0
  142.8319  138.1638  151.9943 H   0  0  0  0  0  0  0  0  0  0  0  0
  143.0314  136.4280  152.0174 H   0  0  0  0  0  0  0  0  0  0  0  0
  141.6455  137.2439  153.9514 H   0  0  0  0  0  0  0  0  0  0  0  0
  143.0872  136.4082  154.4852 H   0  0  0  0  0  0  0  0  0  0  0  0
  142.7151  139.4394  154.3149 H   0  0  0  0  0  0  0  0  0  0  0  0
  142.8344  138.4943  155.7801 H   0  0  0  0  0  0  0  0  0  0  0  0
  145.1777  137.8708  155.2424 H   0  0  0  0  0  0  0  0  0  0  0  0
  144.9896  139.6092  155.2482 H   0  0  0  0  0  0  0  0  0  0  0  0
  149.4779  143.2045  156.5248 H   0  0  0  0  0  0  0  0  0  0  0  0
  151.1964  144.7366  157.1776 H   0  0  0  0  0  0  0  0  0  0  0  0
  152.9156  145.2405  158.9133 H   0  0  0  0  0  0  0  0  0  0  0  0
  153.7505  143.3753  160.3733 H   0  0  0  0  0  0  0  0  0  0  0  0
  152.8119  141.0751  160.0180 H   0  0  0  0  0  0  0  0  0  0  0  0
  144.7480  139.5183  152.8554 H   0  0  0  0  0  0  0  0  0  0  0  0
  1  2  2  0  0  0  0
  2  3  1  0  0  0  0
  2 14  1  0  0  0  0
  3  4  1  0  0  0  0
  3 21  1  0  0  0  0
  4  5  1  0  0  0  0
  4 22  1  0  0  0  0
  4 23  1  0  0  0  0
  5  6  1  0  0  0  0
  5  7  1  0  0  0  0
  5 24  1  0  0  0  0
  6 25  1  0  0  0  0
  7  8  1  0  0  0  0
  7 26  1  0  0  0  0
  7 27  1  0  0  0  0
  8 13  1  0  0  0  0
  8  9  1  0  0  0  0
  8 43  1  0  0  0  0
  9 10  1  0  0  0  0
  9 28  1  0  0  0  0
  9 29  1  0  0  0  0
 10 11  1  0  0  0  0
 10 30  1  0  0  0  0
 10 31  1  0  0  0  0
 11 12  1  0  0  0  0
 11 32  1  0  0  0  0
 11 33  1  0  0  0  0
 12 13  1  0  0  0  0
 12 34  1  0  0  0  0
 12 35  1  0  0  0  0
 13 36  1  0  0  0  0
 13 37  1  0  0  0  0
 14 15  1  0  0  0  0
 14 38  1  0  0  0  0
 15 20  1  0  0  0  0
 15 16  2  0  0  0  0
 16 17  1  0  0  0  0
 16 39  1  0  0  0  0
 17 18  2  0  0  0  0
 17 40  1  0  0  0  0
 18 19  1  0  0  0  0
 18 41  1  0  0  0  0
 19 20  2  0  0  0  0
 19 42  1  0  0  0  0
M  CHG  1   8   1
M  END
> <s_m_source_file>
AV-unprocessed.smi

> <i_m_source_file_index>
1219

> <i_lp_mmshare_version>
43012

> <i_f3d_flags>
0

> <s_epik_input>
bjFbY0hdW2NIXVtjSF1bY0hdYzFbTkhdQyg9TylbTkhdW0NIMl1bQ0BIXShbT0hdKVtDSDJdTjJbQ0gyXVtDSDJdW0NIMl1bQ0gyXVtDSDJdMg==

> <s_epik_cmdline>
J2VwaWtfcHl0aG9uJywgJy1waCcsICc3LjAnLCAnLXRuJywgJzgnLCAnLW1hJywgJzIwMCcsICctbWV0YWxfYmluZGluZycsICctaW1hZScsICc8aW5maWxlLm1hZT4nLCAnLW9tYWUnLCAnPG91dGZpbGUubWFlPic=

> <r_epik_Ionization_Penalty>
0.00510026

> <r_epik_Ionization_Penalty_Charging>
0.00506051

> <r_epik_Ionization_Penalty_Neutral>
3.97538e-05

> <r_epik_State_Penalty>
0.00368188

> <r_epik_Charging_Adjusted_Penalty>
0.0087424

> <i_epik_Tot_Q>
1

> <i_epik_Tot_abs_Q>
1

> <r_epik_Metal_State_Penalty>
-0

> <b_epik_Metal_Only>
0

> <s_lp_Force_Field>
OPLS_2005

> <r_lp_Energy>
19.3775

> <b_lp_Chiralities_Consistent>
1

> <s_lp_Variant>
AV-unprocessed.smi:1219-2

> <Gold.Version>
5.8.1

> <Gold.Id.Protein>
6NUR|6NUR_protein|mol2

> <Gold.PLP.Fitness>
51.2122

> <Gold.PLP.PLP>
-37.8058

> <Gold.PLP.part.hbond>
-4.7798

> <Gold.PLP.part.metal>
0.0000

> <Gold.PLP.part.buried>
-2.6530

> <Gold.PLP.part.nonpolar>
-31.9491

> <Gold.PLP.part.repulsive>
0.3381

> <Gold.PLP.ligand.clash>
0.0000

> <Gold.PLP.ligand.torsion>
0.4397

> <Gold.PLP.Chemscore.Hbond>
4.7456

> <Gold.PLP.Chemscore.CHOScore>
0.0000

> <Gold.PLP.Chemscore.Metal>
0.0000

> <Gold.Chemscore.Hbonds>
donor molecule, donor type, donor heavy atom, donor atom, acceptor molecule, acceptor atom, score
      L1  H     3    21       P1  8028  0.13
      L1  H     6    25       P1 10175  0.98
      L1  H     8    43       P1 10175  1.76
      L1  H    14    38       P1  8028  1.00

> <Gold.PLP.Chemscore.Internal.Correction>
0.0492

> <Gold.Rescore>
     Score         DG    S(hbond)    S(metal)    S(lipo)     H(rot)  DE(clash)    DE(int)     intcor
     17.64     -19.19       3.10        0.00      81.39       2.41       0.13       1.41       ----

> <Gold.Chemscore.Fitness>
17.6399

> <Gold.Chemscore.DG>
-19.1886

> <Gold.Chemscore.ZeroCoef>
-5.4800

> <Gold.Chemscore.Hbond>
3.0979

> <Gold.Chemscore.Metal>
0.0000

> <Gold.Chemscore.Lipo>
81.3914

> <Gold.Chemscore.Internal_Hbond>
0.0000

> <Gold.Chemscore.DEClash>
0.1349

> <Gold.Chemscore.DEInternal>
1.4139

> <Gold.Chemscore.Rot>
2.4067

> <Gold.Chemscore.Internal.Correction>
   9.000000E+99

> <Gold.Chemscore.Hbonds>
donor molecule, donor type, donor heavy atom, donor atom, acceptor molecule, acceptor atom, score
      L1  H     3    21       P1  8028  0.14
      L1  H     6    25       P1 10175  0.28
      L1  H     8    43       P1 10175  0.85
      L1  H    14    38       P1  8028  0.98

> <Gold.Chemscore.Hbond.Weighted>
-10.3470

> <Gold.Chemscore.Metal.Weighted>
-0.0000

> <Gold.Chemscore.Lipo.Weighted>
-9.5228

> <Gold.Chemscore.Internal_Hbond.Weighted>
0.0000

> <Gold.Chemscore.DEClash.Weighted>
0.1349

> <Gold.Chemscore.DEInternal.Weighted>
1.4139

> <Gold.Chemscore.Rot.Weighted>
6.1612

> <Gold.Chemscore.Internal.Correction.Weighted>
   9.000000E+99

> <Gold.Protein.RotatedTorsions>
[ 6907 6896 6895 6894 ] final    2.32 input  -60.11 | X-H torsion
[ 7974 7965 7964 7962 ] final   -8.82 input  175.53 | X-H torsion
[ 8008 7997 7996 7995 ] final -152.48 input   59.86 | X-H torsion
[ 10167 10162 10161 10158 ] final  121.53 input  -65.29 | X-H torsion
[ 10718 10713 10712 10709 ] final  -52.89 input   66.30 | X-H torsion
[ 10763 10752 10751 10750 ] final  -27.34 input  -60.55 | X-H torsion
[ 11005 11000 10999 10996 ] final  116.36 input  -57.11 | X-H torsion

> <Gold.Protein.ActiveResidues>
 VAL166  LYS551  ARG553  GLY616  TRP617  ASP618  TYR619  PRO620  LYS621  CYS622 
 ASP623  PHE694  ASN695  SER759  ASP760  ASP761  ALA762  ILE779  LEU786  VAL792 
 PHE793  MET794  SER795  GLU796  ALA797  LYS798  CYS799  TRP800  GLU811  SER814 

> <Gold.Protein.RotatedAtoms>
  151.6070  135.1043  160.0072 H   0  0  0  0  0  0  0  0  0  0  0  0  # atno 6907 bound_to 6896
  152.4228  133.7140  159.6506 H   0  0  0  0  0  0  0  0  0  0  0  0  # atno 6908 bound_to 6896
  150.8116  133.8339  159.3201 H   0  0  0  0  0  0  0  0  0  0  0  0  # atno 6909 bound_to 6896
  146.2269  140.2525  142.8348 H   0  0  0  0  0  0  0  0  0  0  0  0  # atno 7974 bound_to 7965
  155.6558  140.0717  157.2571 H   0  0  0  0  0  0  0  0  0  0  0  0  # atno 8008 bound_to 7997
  154.4153  140.1725  156.1773 H   0  0  0  0  0  0  0  0  0  0  0  0  # atno 8009 bound_to 7997
  155.9739  140.3359  155.6604 H   0  0  0  0  0  0  0  0  0  0  0  0  # atno 8010 bound_to 7997
  139.5914  144.7026  151.3281 H   0  0  0  0  0  0  0  0  0  0  0  0  # atno 10167 bound_to 10162
  156.1583  130.4150  149.9834 H   0  0  0  0  0  0  0  0  0  0  0  0  # atno 10718 bound_to 10713
  153.7306  135.6939  153.4990 H   0  0  0  0  0  0  0  0  0  0  0  0  # atno 10763 bound_to 10752
  153.2139  135.4393  155.0410 H   0  0  0  0  0  0  0  0  0  0  0  0  # atno 10764 bound_to 10752
  154.8254  135.3443  154.6836 H   0  0  0  0  0  0  0  0  0  0  0  0  # atno 10765 bound_to 10752
  139.9039  134.9597  156.7186 H   0  0  0  0  0  0  0  0  0  0  0  0  # atno 11005 bound_to 11000
  144.9401  140.8068  143.5636 LP  0  0  0  0  0  0  0  0  0  0  0  0  # atno 17320 bound_to 7965
  145.2476  139.2045  143.4959 LP  0  0  0  0  0  0  0  0  0  0  0  0  # atno 17321 bound_to 7965
  140.7176  143.7224  150.7686 LP  0  0  0  0  0  0  0  0  0  0  0  0  # atno 17342 bound_to 10162
  140.0781  143.4996  152.2545 LP  0  0  0  0  0  0  0  0  0  0  0  0  # atno 17343 bound_to 10162
  156.7671  130.9172  151.3643 LP  0  0  0  0  0  0  0  0  0  0  0  0  # atno 17370 bound_to 10713
  157.6712  130.9053  150.0045 LP  0  0  0  0  0  0  0  0  0  0  0  0  # atno 17371 bound_to 10713
  140.7019  133.9299  155.8029 LP  0  0  0  0  0  0  0  0  0  0  0  0  # atno 17394 bound_to 11000
  141.0365  134.0682  157.3953 LP  0  0  0  0  0  0  0  0  0  0  0  0  # atno 17395 bound_to 11000

$$$$
