AV-unprocessed.smi:287|AV-procd|sdf|2201|dock4
  -GOLD-   2262022 13D 1   1.00000     0.00000
 Structure written by MMmdl.
 55 58  0  0  0  0  0  0  0  0  1 V2000
  141.2080  134.7768  163.7707 C   0  0  0  0  0  0  0  0  0  0  0  0
  142.5113  134.9611  163.0722 C   0  0  0  0  0  0  0  0  0  0  0  0
  143.3767  134.1109  162.4479 C   0  0  0  0  0  0  0  0  0  0  0  0
  144.4712  134.8916  161.9697 C   0  0  0  0  0  0  0  0  0  0  0  0
  145.6785  134.3622  161.2075 C   0  0  1  0  0  0  0  0  0  0  0  0
  146.5800  133.5539  162.1555 C   0  0  0  0  0  0  0  0  0  0  0  0
  145.3263  133.4652  160.1717 O   0  0  0  0  0  0  0  0  0  0  0  0
  146.4922  135.4928  160.5376 C   0  0  0  0  0  0  0  0  0  0  0  0
  147.2025  135.0501  159.3445 N   0  0  0  0  0  0  0  0  0  0  0  0
  147.7736  135.9376  158.5035 C   0  0  0  0  0  0  0  0  0  0  0  0
  147.0095  136.3136  157.4505 N   0  0  0  0  0  0  0  0  0  0  0  0
  147.4783  137.1914  156.5601 C   0  0  0  0  0  0  0  0  0  0  0  0
  148.6631  137.8029  156.5377 N   0  0  0  0  0  0  0  0  0  0  0  0
  149.4430  137.4287  157.5928 C   0  0  0  0  0  0  0  0  0  0  0  0
  149.0776  136.5064  158.6161 C   0  0  0  0  0  0  0  0  0  0  0  0
  150.1316  136.3812  159.5156 N   0  0  0  0  0  0  0  0  0  0  0  0
  151.0530  137.1800  159.0511 C   0  0  0  0  0  0  0  0  0  0  0  0
  150.7242  137.8469  157.8936 N   0  0  0  0  0  0  0  0  0  0  0  0
  151.5700  138.8179  157.1290 C   0  0  2  0  0  0  0  0  0  0  0  0
  150.8735  140.0192  157.0234 O   0  0  0  0  0  0  0  0  0  0  0  0
  151.1679  140.6179  155.7675 C   0  0  2  0  0  0  0  0  0  0  0  0
  150.1189  141.6826  155.4003 C   0  0  0  0  0  0  0  0  0  0  0  0
  149.8653  142.5162  156.5109 O   0  0  0  0  0  0  0  0  0  0  0  0
  151.2524  139.4129  154.8190 C   0  0  2  0  0  0  0  0  0  0  0  0
  149.9669  139.0375  154.3540 O   0  0  0  0  0  0  0  0  0  0  0  0
  151.9009  138.3431  155.6974 C   0  0  2  0  0  0  0  0  0  0  0  0
  151.5021  137.0197  155.3779 O   0  0  0  0  0  0  0  0  0  0  0  0
  144.1710  136.1804  162.3414 C   0  0  0  0  0  0  0  0  0  0  0  0
  144.8525  137.4977  162.1655 C   0  0  0  0  0  0  0  0  0  0  0  0
  142.9864  136.2303  163.0124 O   0  0  0  0  0  0  0  0  0  0  0  0
  152.4615  138.9524  157.7433 H   0  0  0  0  0  0  0  0  0  0  0  0
  152.1591  141.0724  155.8263 H   0  0  0  0  0  0  0  0  0  0  0  0
  151.8659  139.6384  153.9463 H   0  0  0  0  0  0  0  0  0  0  0  0
  152.9844  138.4042  155.5880 H   0  0  0  0  0  0  0  0  0  0  0  0
  140.9997  133.7191  163.9327 H   0  0  0  0  0  0  0  0  0  0  0  0
  140.3920  135.1961  163.1818 H   0  0  0  0  0  0  0  0  0  0  0  0
  141.2149  135.2717  164.7420 H   0  0  0  0  0  0  0  0  0  0  0  0
  143.2428  133.0439  162.3479 H   0  0  0  0  0  0  0  0  0  0  0  0
  146.9428  134.1705  162.9786 H   0  0  0  0  0  0  0  0  0  0  0  0
  147.4535  133.1575  161.6360 H   0  0  0  0  0  0  0  0  0  0  0  0
  146.0430  132.7101  162.5907 H   0  0  0  0  0  0  0  0  0  0  0  0
  145.8633  132.6918  160.2494 H   0  0  0  0  0  0  0  0  0  0  0  0
  145.8001  136.2764  160.2264 H   0  0  0  0  0  0  0  0  0  0  0  0
  147.1860  135.9445  161.2480 H   0  0  0  0  0  0  0  0  0  0  0  0
  147.1985  134.0538  159.1792 H   0  0  0  0  0  0  0  0  0  0  0  0
  146.8089  137.4390  155.7495 H   0  0  0  0  0  0  0  0  0  0  0  0
  152.0072  137.3017  159.5427 H   0  0  0  0  0  0  0  0  0  0  0  0
  150.4929  142.3171  154.5964 H   0  0  0  0  0  0  0  0  0  0  0  0
  149.1925  141.2250  155.0512 H   0  0  0  0  0  0  0  0  0  0  0  0
  149.3838  143.2733  156.2138 H   0  0  0  0  0  0  0  0  0  0  0  0
  149.7777  138.1674  154.6738 H   0  0  0  0  0  0  0  0  0  0  0  0
  150.5669  137.0119  155.2425 H   0  0  0  0  0  0  0  0  0  0  0  0
  145.0535  137.6909  161.1116 H   0  0  0  0  0  0  0  0  0  0  0  0
  145.8016  137.5159  162.7013 H   0  0  0  0  0  0  0  0  0  0  0  0
  144.2375  138.3149  162.5434 H   0  0  0  0  0  0  0  0  0  0  0  0
  1  2  1  0  0  0  0
  1 35  1  0  0  0  0
  1 36  1  0  0  0  0
  1 37  1  0  0  0  0
  2 30  1  0  0  0  0
  2  3  2  0  0  0  0
  3  4  1  0  0  0  0
  3 38  1  0  0  0  0
  4  5  1  0  0  0  0
  4 28  2  0  0  0  0
  5  6  1  0  0  0  0
  5  7  1  0  0  0  0
  5  8  1  0  0  0  0
  6 39  1  0  0  0  0
  6 40  1  0  0  0  0
  6 41  1  0  0  0  0
  7 42  1  0  0  0  0
  8  9  1  0  0  0  0
  8 43  1  0  0  0  0
  8 44  1  0  0  0  0
  9 10  1  0  0  0  0
  9 45  1  0  0  0  0
 10 15  1  0  0  0  0
 10 11  2  0  0  0  0
 11 12  1  0  0  0  0
 12 13  2  0  0  0  0
 12 46  1  0  0  0  0
 13 14  1  0  0  0  0
 14 18  1  0  0  0  0
 14 15  2  0  0  0  0
 15 16  1  0  0  0  0
 16 17  2  0  0  0  0
 17 18  1  0  0  0  0
 17 47  1  0  0  0  0
 18 19  1  0  0  0  0
 19 31  1  0  0  0  0
 19 26  1  0  0  0  0
 19 20  1  0  0  0  0
 20 21  1  0  0  0  0
 21 32  1  0  0  0  0
 21 22  1  0  0  0  0
 21 24  1  0  0  0  0
 22 23  1  0  0  0  0
 22 48  1  0  0  0  0
 22 49  1  0  0  0  0
 23 50  1  0  0  0  0
 24 33  1  0  0  0  0
 24 25  1  0  0  0  0
 24 26  1  0  0  0  0
 25 51  1  0  0  0  0
 26 34  1  0  0  0  0
 26 27  1  0  0  0  0
 27 52  1  0  0  0  0
 28 29  1  0  0  0  0
 28 30  1  0  0  0  0
 29 53  1  0  0  0  0
 29 54  1  0  0  0  0
 29 55  1  0  0  0  0
M  END
> <s_m_source_file>
AV-unprocessed.smi

> <i_m_source_file_index>
287

> <i_lp_mmshare_version>
43012

> <i_f3d_flags>
0

> <s_epik_input>
W0NIM11jMVtjSF1jKGMobzEpW0NIM10pW0NAQF0oW0NIM10pKFtPSF0pW0NIMl1bTkhdYyhuW2NIXW4yKWMoYzIzKW5bY0hdbjNbQ0BASF00T1tDQEhdKFtDSDJdW09IXSlbQ0BASF0oW09IXSlbQ0BIXTRbT0hd

> <s_epik_cmdline>
J2VwaWtfcHl0aG9uJywgJy1waCcsICc3LjAnLCAnLXRuJywgJzgnLCAnLW1hJywgJzIwMCcsICctbWV0YWxfYmluZGluZycsICctaW1hZScsICc8aW5maWxlLm1hZT4nLCAnLW9tYWUnLCAnPG91dGZpbGUubWFlPic=

> <r_lp_tautomer_probability>
1

> <r_epik_Ionization_Penalty>
0.000992612

> <r_epik_Ionization_Penalty_Charging>
0

> <r_epik_Ionization_Penalty_Neutral>
0.000992612

> <r_epik_State_Penalty>
-0

> <r_epik_Charging_Adjusted_Penalty>
0

> <i_epik_Tot_Q>
0

> <i_epik_Tot_abs_Q>
0

> <r_epik_Metal_State_Penalty>
-0

> <b_epik_Metal_Only>
0

> <s_epik_Chemistry_Notes>
This compound contains an acetal/aminal-like group ( X-CH(R)-Y where X, Y are N, S, or O) that may be acid/base labile, releasing an aldehyde.

> <s_lp_Force_Field>
OPLS_2005

> <r_lp_Energy>
50.9422

> <b_lp_Chiralities_Consistent>
1

> <s_lp_Variant>
AV-unprocessed.smi:287-25

> <Gold.Version>
5.8.1

> <Gold.Id.Protein>
6NUR|6NUR_protein|mol2

> <Gold.PLP.Fitness>
45.7544

> <Gold.PLP.PLP>
-41.2759

> <Gold.PLP.part.hbond>
-2.6412

> <Gold.PLP.part.metal>
0.0000

> <Gold.PLP.part.buried>
-3.4742

> <Gold.PLP.part.nonpolar>
-34.2740

> <Gold.PLP.part.repulsive>
0.1405

> <Gold.PLP.ligand.clash>
0.0000

> <Gold.PLP.ligand.torsion>
1.8913

> <Gold.PLP.Chemscore.Hbond>
2.6820

> <Gold.PLP.Chemscore.CHOScore>
0.0000

> <Gold.PLP.Chemscore.Metal>
0.0000

> <Gold.Chemscore.Hbonds>
donor molecule, donor type, donor heavy atom, donor atom, acceptor molecule, acceptor atom, score
      L1  H    23    50       P1  8028  1.00
      P1  H  6896  6909       L1    16  1.00
      P1  H 10752 10765       L1    27  0.60

> <Gold.PLP.Chemscore.Internal.Correction>
0.2152

> <Gold.Rescore>
     Score         DG    S(hbond)    S(metal)    S(lipo)     H(rot)  DE(clash)    DE(int)     intcor
      4.10      -9.26       2.11        0.00      87.33       5.27       1.88       3.29       ----

> <Gold.Chemscore.Fitness>
4.0962

> <Gold.Chemscore.DG>
-9.2623

> <Gold.Chemscore.ZeroCoef>
-5.4800

> <Gold.Chemscore.Hbond>
2.1103

> <Gold.Chemscore.Metal>
0.0000

> <Gold.Chemscore.Lipo>
87.3332

> <Gold.Chemscore.Internal_Hbond>
0.0000

> <Gold.Chemscore.DEClash>
1.8771

> <Gold.Chemscore.DEInternal>
3.2890

> <Gold.Chemscore.Rot>
5.2672

> <Gold.Chemscore.Internal.Correction>
   9.000000E+99

> <Gold.Chemscore.Hbonds>
donor molecule, donor type, donor heavy atom, donor atom, acceptor molecule, acceptor atom, score
      L1  H    23    50       P1  8028  0.99
      P1  H  6896  6909       L1    16  0.34
      P1  H 10752 10765       L1    27  0.57

> <Gold.Chemscore.Hbond.Weighted>
-7.0482

> <Gold.Chemscore.Metal.Weighted>
-0.0000

> <Gold.Chemscore.Lipo.Weighted>
-10.2180

> <Gold.Chemscore.Internal_Hbond.Weighted>
0.0000

> <Gold.Chemscore.DEClash.Weighted>
1.8771

> <Gold.Chemscore.DEInternal.Weighted>
3.2890

> <Gold.Chemscore.Rot.Weighted>
13.4839

> <Gold.Chemscore.Internal.Correction.Weighted>
   9.000000E+99

> <Gold.Protein.RotatedTorsions>
[ 6907 6896 6895 6894 ] final   81.86 input  -60.11 | X-H torsion
[ 7974 7965 7964 7962 ] final  121.94 input  175.53 | X-H torsion
[ 8008 7997 7996 7995 ] final  162.37 input   59.86 | X-H torsion
[ 10167 10162 10161 10158 ] final   -4.18 input  -65.29 | X-H torsion
[ 10718 10713 10712 10709 ] final   49.12 input   66.30 | X-H torsion
[ 10763 10752 10751 10750 ] final -161.59 input  -60.55 | X-H torsion
[ 11005 11000 10999 10996 ] final -120.23 input  -57.11 | X-H torsion

> <Gold.Protein.ActiveResidues>
 VAL166  LYS551  ARG553  GLY616  TRP617  ASP618  TYR619  PRO620  LYS621  CYS622 
 ASP623  PHE694  ASN695  SER759  ASP760  ASP761  ALA762  ILE779  LEU786  VAL792 
 PHE793  MET794  SER795  GLU796  ALA797  LYS798  CYS799  TRP800  GLU811  SER814 

> <Gold.Protein.RotatedAtoms>
  152.5281  134.3139  159.9123 H   0  0  0  0  0  0  0  0  0  0  0  0  # atno 6907 bound_to 6896
  151.3088  133.4083  159.2653 H   0  0  0  0  0  0  0  0  0  0  0  0  # atno 6908 bound_to 6896
  151.0056  134.9373  159.8035 H   0  0  0  0  0  0  0  0  0  0  0  0  # atno 6909 bound_to 6896
  145.1133  139.3438  143.4751 H   0  0  0  0  0  0  0  0  0  0  0  0  # atno 7974 bound_to 7965
  156.2036  140.1752  156.7847 H   0  0  0  0  0  0  0  0  0  0  0  0  # atno 8008 bound_to 7997
  154.5625  140.0697  156.8871 H   0  0  0  0  0  0  0  0  0  0  0  0  # atno 8009 bound_to 7997
  155.2822  140.3350  155.4260 H   0  0  0  0  0  0  0  0  0  0  0  0  # atno 8010 bound_to 7997
  140.6918  143.6453  150.8398 H   0  0  0  0  0  0  0  0  0  0  0  0  # atno 10167 bound_to 10162
  157.4755  130.8282  149.8035 H   0  0  0  0  0  0  0  0  0  0  0  0  # atno 10718 bound_to 10713
  154.7290  135.3042  154.8923 H   0  0  0  0  0  0  0  0  0  0  0  0  # atno 10763 bound_to 10752
  153.9772  135.6734  153.4753 H   0  0  0  0  0  0  0  0  0  0  0  0  # atno 10764 bound_to 10752
  153.0901  135.4964  154.8593 H   0  0  0  0  0  0  0  0  0  0  0  0  # atno 10765 bound_to 10752
  141.0159  134.0197  157.3351 H   0  0  0  0  0  0  0  0  0  0  0  0  # atno 11005 bound_to 11000
  146.3525  140.1062  142.8606 LP  0  0  0  0  0  0  0  0  0  0  0  0  # atno 17320 bound_to 7965
  145.0822  140.9228  143.4819 LP  0  0  0  0  0  0  0  0  0  0  0  0  # atno 17321 bound_to 7965
  140.0167  143.5586  152.2817 LP  0  0  0  0  0  0  0  0  0  0  0  0  # atno 17342 bound_to 10162
  139.6329  144.7646  151.2499 LP  0  0  0  0  0  0  0  0  0  0  0  0  # atno 17343 bound_to 10162
  156.0094  130.3840  150.2315 LP  0  0  0  0  0  0  0  0  0  0  0  0  # atno 17370 bound_to 10713
  157.0499  131.0060  151.3257 LP  0  0  0  0  0  0  0  0  0  0  0  0  # atno 17371 bound_to 10713
  139.9116  135.0191  156.7716 LP  0  0  0  0  0  0  0  0  0  0  0  0  # atno 17394 bound_to 11000
  140.6656  133.9605  155.7828 LP  0  0  0  0  0  0  0  0  0  0  0  0  # atno 17395 bound_to 11000

$$$$
