AV-unprocessed.smi:3264|AV-procd|sdf|12495|dock2
  -GOLD-   2272018393D 1   1.00000     0.00000
 Structure written by MMmdl.
 32 33  0  0  0  0  0  0  0  0  1 V2000
  153.3791  143.4569  163.7151 C   0  0  0  0  0  0  0  0  0  0  0  0
  153.4656  142.5728  162.5183 C   0  0  0  0  0  0  0  0  0  0  0  0
  152.8334  142.8204  161.3681 N   0  0  0  0  0  0  0  0  0  0  0  0
  153.0705  141.8382  160.4012 C   0  0  0  0  0  0  0  0  0  0  0  0
  152.4418  141.9544  159.0458 C   0  0  0  0  0  0  0  0  0  0  0  0
  151.4637  140.8073  158.7569 C   0  0  0  0  0  0  0  0  0  0  0  0
  151.1261  140.7686  157.3404 N   0  0  0  0  0  0  0  0  0  0  0  0
  151.7675  140.0322  156.4219 C   0  0  0  0  0  0  0  0  0  0  0  0
  152.7211  139.3006  156.6907 O   0  0  0  0  0  0  0  0  0  0  0  0
  151.2347  140.1322  154.9874 C   0  0  1  0  0  0  0  0  0  0  0  0
  150.6997  138.8108  154.4013 C   0  0  0  0  0  0  0  0  0  0  0  0
  149.2080  139.0515  154.2727 C   0  0  0  0  0  0  0  0  0  0  0  0
  149.1475  140.5598  154.0800 C   0  0  0  0  0  0  0  0  0  0  0  0
  150.1295  141.0334  154.9873 O   0  0  0  0  0  0  0  0  0  0  0  0
  153.9014  140.8373  160.8393 C   0  0  0  0  0  0  0  0  0  0  0  0
  154.4141  141.0916  162.4848 S   0  0  0  0  0  0  0  0  0  0  0  0
  152.7863  144.3456  163.4955 H   0  0  0  0  0  0  0  0  0  0  0  0
  154.3778  143.7696  164.0203 H   0  0  0  0  0  0  0  0  0  0  0  0
  152.9117  142.9202  164.5407 H   0  0  0  0  0  0  0  0  0  0  0  0
  151.9166  142.9068  158.9628 H   0  0  0  0  0  0  0  0  0  0  0  0
  153.2175  141.9737  158.2790 H   0  0  0  0  0  0  0  0  0  0  0  0
  151.9049  139.8512  159.0424 H   0  0  0  0  0  0  0  0  0  0  0  0
  150.5582  140.9363  159.3526 H   0  0  0  0  0  0  0  0  0  0  0  0
  150.3495  141.3380  157.0364 H   0  0  0  0  0  0  0  0  0  0  0  0
  152.0126  140.5286  154.3322 H   0  0  0  0  0  0  0  0  0  0  0  0
  151.1360  138.6465  153.4152 H   0  0  0  0  0  0  0  0  0  0  0  0
  150.9201  137.9268  155.0011 H   0  0  0  0  0  0  0  0  0  0  0  0
  148.7529  138.4967  153.4520 H   0  0  0  0  0  0  0  0  0  0  0  0
  148.7020  138.7741  155.1983 H   0  0  0  0  0  0  0  0  0  0  0  0
  149.4242  140.8364  153.0613 H   0  0  0  0  0  0  0  0  0  0  0  0
  148.1636  140.9752  154.2983 H   0  0  0  0  0  0  0  0  0  0  0  0
  154.2431  139.9691  160.2954 H   0  0  0  0  0  0  0  0  0  0  0  0
  1  2  1  0  0  0  0
  1 17  1  0  0  0  0
  1 18  1  0  0  0  0
  1 19  1  0  0  0  0
  2 16  1  0  0  0  0
  2  3  2  0  0  0  0
  3  4  1  0  0  0  0
  4  5  1  0  0  0  0
  4 15  2  0  0  0  0
  5  6  1  0  0  0  0
  5 20  1  0  0  0  0
  5 21  1  0  0  0  0
  6  7  1  0  0  0  0
  6 22  1  0  0  0  0
  6 23  1  0  0  0  0
  7  8  1  0  0  0  0
  7 24  1  0  0  0  0
  8  9  2  0  0  0  0
  8 10  1  0  0  0  0
 10 14  1  0  0  0  0
 10 11  1  0  0  0  0
 10 25  1  0  0  0  0
 11 12  1  0  0  0  0
 11 26  1  0  0  0  0
 11 27  1  0  0  0  0
 12 13  1  0  0  0  0
 12 28  1  0  0  0  0
 12 29  1  0  0  0  0
 13 14  1  0  0  0  0
 13 30  1  0  0  0  0
 13 31  1  0  0  0  0
 15 16  1  0  0  0  0
 15 32  1  0  0  0  0
M  END
> <s_m_source_file>
AV-unprocessed.smi

> <i_m_source_file_index>
3264

> <i_lp_mmshare_version>
43012

> <i_f3d_flags>
0

> <s_epik_input>
W0NIM11jMW5jKFtjSF1zMSlbQ0gyXVtDSDJdW05IXUMoPU8pW0NAQEhdMltDSDJdW0NIMl1bQ0gyXU8y

> <s_epik_cmdline>
J2VwaWtfcHl0aG9uJywgJy1waCcsICc3LjAnLCAnLXRuJywgJzgnLCAnLW1hJywgJzIwMCcsICctbWV0YWxfYmluZGluZycsICctaW1hZScsICc8aW5maWxlLm1hZT4nLCAnLW9tYWUnLCAnPG91dGZpbGUubWFlPic=

> <r_epik_Ionization_Penalty>
0.00112246

> <r_epik_Ionization_Penalty_Charging>
0

> <r_epik_Ionization_Penalty_Neutral>
0.00112246

> <r_epik_State_Penalty>
0.000737392

> <r_epik_Charging_Adjusted_Penalty>
0.000737392

> <i_epik_Tot_Q>
0

> <i_epik_Tot_abs_Q>
0

> <r_epik_Metal_State_Penalty>
-0

> <b_epik_Metal_Only>
0

> <s_lp_Force_Field>
OPLS_2005

> <r_lp_Energy>
13.6214

> <b_lp_Chiralities_Consistent>
1

> <s_lp_Variant>
AV-unprocessed.smi:3264-2

> <Gold.Version>
5.8.1

> <Gold.Id.Protein>
6NUR|6NUR_protein|mol2

> <Gold.PLP.Fitness>
37.5675

> <Gold.PLP.PLP>
-35.0339

> <Gold.PLP.part.hbond>
-2.0000

> <Gold.PLP.part.metal>
0.0000

> <Gold.PLP.part.buried>
1.3511

> <Gold.PLP.part.nonpolar>
-33.1263

> <Gold.PLP.part.repulsive>
0.2206

> <Gold.PLP.ligand.clash>
0.0000

> <Gold.PLP.ligand.torsion>
0.2481

> <Gold.PLP.Chemscore.Hbond>
1.0000

> <Gold.PLP.Chemscore.CHOScore>
0.0000

> <Gold.PLP.Chemscore.Metal>
0.0000

> <Gold.Chemscore.Hbonds>
donor molecule, donor type, donor heavy atom, donor atom, acceptor molecule, acceptor atom, score
      P1  H  7997  8008       L1     9  1.00

> <Gold.PLP.Chemscore.Internal.Correction>
0.0297

> <Gold.Rescore>
     Score         DG    S(hbond)    S(metal)    S(lipo)     H(rot)  DE(clash)    DE(int)     intcor
     15.46     -16.07       0.92        0.00      97.28       1.52       0.37       0.24       ----

> <Gold.Chemscore.Fitness>
15.4576

> <Gold.Chemscore.DG>
-16.0692

> <Gold.Chemscore.ZeroCoef>
-5.4800

> <Gold.Chemscore.Hbond>
0.9245

> <Gold.Chemscore.Metal>
0.0000

> <Gold.Chemscore.Lipo>
97.2818

> <Gold.Chemscore.Internal_Hbond>
0.0000

> <Gold.Chemscore.DEClash>
0.3689

> <Gold.Chemscore.DEInternal>
0.2427

> <Gold.Chemscore.Rot>
1.5159

> <Gold.Chemscore.Internal.Correction>
   9.000000E+99

> <Gold.Chemscore.Hbonds>
donor molecule, donor type, donor heavy atom, donor atom, acceptor molecule, acceptor atom, score
      P1  H  7997  8008       L1     9  0.93

> <Gold.Chemscore.Hbond.Weighted>
-3.0879

> <Gold.Chemscore.Metal.Weighted>
-0.0000

> <Gold.Chemscore.Lipo.Weighted>
-11.3820

> <Gold.Chemscore.Internal_Hbond.Weighted>
0.0000

> <Gold.Chemscore.DEClash.Weighted>
0.3689

> <Gold.Chemscore.DEInternal.Weighted>
0.2427

> <Gold.Chemscore.Rot.Weighted>
3.8807

> <Gold.Chemscore.Internal.Correction.Weighted>
   9.000000E+99

> <Gold.Protein.RotatedTorsions>
[ 6907 6896 6895 6894 ] final   72.42 input  -60.11 | X-H torsion
[ 7974 7965 7964 7962 ] final  -32.91 input  175.53 | X-H torsion
[ 8008 7997 7996 7995 ] final  -73.20 input   59.86 | X-H torsion
[ 10167 10162 10161 10158 ] final   58.01 input  -65.29 | X-H torsion
[ 10718 10713 10712 10709 ] final -110.71 input   66.30 | X-H torsion
[ 10763 10752 10751 10750 ] final  -53.03 input  -60.55 | X-H torsion
[ 11005 11000 10999 10996 ] final -167.22 input  -57.11 | X-H torsion

> <Gold.Protein.ActiveResidues>
 VAL166  LYS551  ARG553  GLY616  TRP617  ASP618  TYR619  PRO620  LYS621  CYS622 
 ASP623  PHE694  ASN695  SER759  ASP760  ASP761  ALA762  ILE779  LEU786  VAL792 
 PHE793  MET794  SER795  GLU796  ALA797  LYS798  CYS799  TRP800  GLU811  SER814 

> <Gold.Protein.RotatedAtoms>
  152.4867  134.4574  159.9593 H   0  0  0  0  0  0  0  0  0  0  0  0  # atno 6907 bound_to 6896
  151.4569  133.3597  159.2811 H   0  0  0  0  0  0  0  0  0  0  0  0  # atno 6908 bound_to 6896
  150.8983  134.8418  159.7402 H   0  0  0  0  0  0  0  0  0  0  0  0  # atno 6909 bound_to 6896
  146.0953  140.5851  142.8846 H   0  0  0  0  0  0  0  0  0  0  0  0  # atno 7974 bound_to 7965
  154.5228  140.0783  156.8203 H   0  0  0  0  0  0  0  0  0  0  0  0  # atno 8008 bound_to 7997
  155.3540  140.3414  155.4221 H   0  0  0  0  0  0  0  0  0  0  0  0  # atno 8009 bound_to 7997
  156.1699  140.1616  156.8452 H   0  0  0  0  0  0  0  0  0  0  0  0  # atno 8010 bound_to 7997
  140.1918  144.4077  150.6567 H   0  0  0  0  0  0  0  0  0  0  0  0  # atno 10167 bound_to 10162
  156.0606  130.5829  150.8275 H   0  0  0  0  0  0  0  0  0  0  0  0  # atno 10718 bound_to 10713
  154.1523  135.6488  153.4966 H   0  0  0  0  0  0  0  0  0  0  0  0  # atno 10763 bound_to 10752
  153.0134  135.5341  154.6795 H   0  0  0  0  0  0  0  0  0  0  0  0  # atno 10764 bound_to 10752
  154.6086  135.2951  155.0428 H   0  0  0  0  0  0  0  0  0  0  0  0  # atno 10765 bound_to 10752
  140.5556  134.5384  157.5132 H   0  0  0  0  0  0  0  0  0  0  0  0  # atno 11005 bound_to 11000
  144.7390  140.4890  143.6883 LP  0  0  0  0  0  0  0  0  0  0  0  0  # atno 17320 bound_to 7965
  145.5961  139.1499  143.3155 LP  0  0  0  0  0  0  0  0  0  0  0  0  # atno 17321 bound_to 7965
  140.6450  143.2211  151.6205 LP  0  0  0  0  0  0  0  0  0  0  0  0  # atno 17342 bound_to 10162
  139.5253  144.3080  152.1017 LP  0  0  0  0  0  0  0  0  0  0  0  0  # atno 17343 bound_to 10162
  157.5611  131.0946  150.9557 LP  0  0  0  0  0  0  0  0  0  0  0  0  # atno 17370 bound_to 10713
  156.9794  130.5521  149.5295 LP  0  0  0  0  0  0  0  0  0  0  0  0  # atno 17371 bound_to 10713
  139.9433  134.7747  156.0624 LP  0  0  0  0  0  0  0  0  0  0  0  0  # atno 17394 bound_to 11000
  141.1145  133.6632  156.3060 LP  0  0  0  0  0  0  0  0  0  0  0  0  # atno 17395 bound_to 11000

$$$$
