AV-unprocessed.smi:34|AV-procd|sdf|235|dock5
  -GOLD-   2262015573D 1   1.00000     0.00000
 Structure written by MMmdl.
 54 58  0  0  0  0  0  0  0  0  2 V2000
  152.9729  140.0844  158.0364 O   0  0  0  0  0  0  0  0  0  0  0  0
  152.2855  141.0412  157.6726 C   0  0  0  0  0  0  0  0  0  0  0  0
  151.5119  141.1377  156.5614 N   0  5  0  0  0  0  0  0  0  0  0  0
  151.0670  140.0227  155.9620 C   0  0  0  0  0  0  0  0  0  0  0  0
  151.0837  139.9168  154.6083 N   0  0  0  0  0  0  0  0  0  0  0  0
  150.6465  138.8018  154.0113 C   0  0  0  0  0  0  0  0  0  0  0  0
  150.1551  137.6889  154.5652 N   0  0  0  0  0  0  0  0  0  0  0  0
  150.1210  137.7892  155.9262 C   0  0  0  0  0  0  0  0  0  0  0  0
  150.5494  138.9151  156.6879 C   0  0  0  0  0  0  0  0  0  0  0  0
  150.3694  138.6877  158.0448 N   0  0  0  0  0  0  0  0  0  0  0  0
  149.8547  137.4596  158.0456 C   0  0  0  0  0  0  0  0  0  0  0  0
  149.6874  136.8561  156.8512 N   0  0  0  0  0  0  0  0  0  0  0  0
  149.1458  135.4951  156.5677 C   0  0  2  0  0  0  0  0  0  0  0  0
  147.9860  135.6607  155.8092 O   0  0  0  0  0  0  0  0  0  0  0  0
  146.9821  134.7533  156.2468 C   0  0  1  0  0  0  0  0  0  0  0  0
  147.1482  133.4141  155.5095 C   0  0  0  0  0  0  0  0  0  0  0  0
  146.7163  133.5581  154.1665 O   0  0  0  0  0  0  0  0  0  0  0  0
  146.9387  132.5684  153.2784 C   0  0  0  0  0  0  0  0  0  0  0  0
  147.7264  131.6405  153.4746 O   0  0  0  0  0  0  0  0  0  0  0  0
  146.1368  132.7161  152.0296 C   0  0  0  0  0  0  0  0  0  0  0  0
  145.4139  133.9116  151.8082 C   0  0  0  0  0  0  0  0  0  0  0  0
  144.6451  134.0790  150.6401 C   0  0  0  0  0  0  0  0  0  0  0  0
  144.5910  133.0536  149.6782 C   0  0  0  0  0  0  0  0  0  0  0  0
  145.3069  131.8601  149.8859 C   0  0  0  0  0  0  0  0  0  0  0  0
  146.0754  131.6903  151.0541 C   0  0  0  0  0  0  0  0  0  0  0  0
  147.2448  134.6430  157.7491 C   0  0  2  0  0  0  0  0  0  0  0  0
  146.6457  135.6566  158.3759 F   0  0  0  0  0  0  0  0  0  0  0  0
  148.7557  134.7879  157.8775 C   0  0  1  0  0  0  0  0  0  0  0  0
  149.3644  133.5175  157.9956 O   0  0  0  0  0  0  0  0  0  0  0  0
  152.3201  142.3073  158.4854 C   0  0  0  0  0  0  0  0  0  0  0  0
  152.6339  142.2466  159.8624 C   0  0  0  0  0  0  0  0  0  0  0  0
  152.6453  143.4163  160.6468 C   0  0  0  0  0  0  0  0  0  0  0  0
  152.3325  144.6588  160.0643 C   0  0  0  0  0  0  0  0  0  0  0  0
  152.0054  144.7299  158.6973 C   0  0  0  0  0  0  0  0  0  0  0  0
  151.9952  143.5607  157.9117 C   0  0  0  0  0  0  0  0  0  0  0  0
  150.6992  138.8012  152.9327 H   0  0  0  0  0  0  0  0  0  0  0  0
  149.5877  136.9673  158.9690 H   0  0  0  0  0  0  0  0  0  0  0  0
  149.9191  134.9790  155.9971 H   0  0  0  0  0  0  0  0  0  0  0  0
  145.9875  135.1577  156.0534 H   0  0  0  0  0  0  0  0  0  0  0  0
  148.1863  133.0807  155.5456 H   0  0  0  0  0  0  0  0  0  0  0  0
  146.5410  132.6456  155.9894 H   0  0  0  0  0  0  0  0  0  0  0  0
  145.4395  134.7127  152.5329 H   0  0  0  0  0  0  0  0  0  0  0  0
  144.0962  134.9960  150.4827 H   0  0  0  0  0  0  0  0  0  0  0  0
  144.0013  133.1823  148.7825 H   0  0  0  0  0  0  0  0  0  0  0  0
  145.2671  131.0727  149.1478 H   0  0  0  0  0  0  0  0  0  0  0  0
  146.6129  130.7622  151.1825 H   0  0  0  0  0  0  0  0  0  0  0  0
  146.8496  133.7285  158.1935 H   0  0  0  0  0  0  0  0  0  0  0  0
  149.0322  135.3818  158.7502 H   0  0  0  0  0  0  0  0  0  0  0  0
  148.7726  132.9405  158.4534 H   0  0  0  0  0  0  0  0  0  0  0  0
  152.8735  141.2999  160.3247 H   0  0  0  0  0  0  0  0  0  0  0  0
  152.8924  143.3589  161.6964 H   0  0  0  0  0  0  0  0  0  0  0  0
  152.3391  145.5553  160.6662 H   0  0  0  0  0  0  0  0  0  0  0  0
  151.7582  145.6816  158.2505 H   0  0  0  0  0  0  0  0  0  0  0  0
  151.7308  143.6350  156.8666 H   0  0  0  0  0  0  0  0  0  0  0  0
  1  2  2  0  0  0  0
  2  3  1  0  0  0  0
  2 30  1  0  0  0  0
  3  4  1  0  0  0  0
  4  9  1  0  0  0  0
  4  5  2  0  0  0  0
  5  6  1  0  0  0  0
  6  7  2  0  0  0  0
  6 36  1  0  0  0  0
  7  8  1  0  0  0  0
  8 12  1  0  0  0  0
  8  9  2  0  0  0  0
  9 10  1  0  0  0  0
 10 11  2  0  0  0  0
 11 12  1  0  0  0  0
 11 37  1  0  0  0  0
 12 13  1  0  0  0  0
 13 28  1  0  0  0  0
 13 14  1  0  0  0  0
 13 38  1  0  0  0  0
 14 15  1  0  0  0  0
 15 16  1  0  0  0  0
 15 26  1  0  0  0  0
 15 39  1  0  0  0  0
 16 17  1  0  0  0  0
 16 40  1  0  0  0  0
 16 41  1  0  0  0  0
 17 18  1  0  0  0  0
 18 19  2  0  0  0  0
 18 20  1  0  0  0  0
 20 25  1  0  0  0  0
 20 21  2  0  0  0  0
 21 22  1  0  0  0  0
 21 42  1  0  0  0  0
 22 23  2  0  0  0  0
 22 43  1  0  0  0  0
 23 24  1  0  0  0  0
 23 44  1  0  0  0  0
 24 25  2  0  0  0  0
 24 45  1  0  0  0  0
 25 46  1  0  0  0  0
 26 27  1  0  0  0  0
 26 28  1  0  0  0  0
 26 47  1  0  0  0  0
 28 29  1  0  0  0  0
 28 48  1  0  0  0  0
 29 49  1  0  0  0  0
 30 35  1  0  0  0  0
 30 31  2  0  0  0  0
 31 32  1  0  0  0  0
 31 50  1  0  0  0  0
 32 33  2  0  0  0  0
 32 51  1  0  0  0  0
 33 34  1  0  0  0  0
 33 52  1  0  0  0  0
 34 35  2  0  0  0  0
 34 53  1  0  0  0  0
 35 54  1  0  0  0  0
M  CHG  1   3  -1
M  END
> <s_m_source_file>
AV-unprocessed.smi

> <i_m_source_file_index>
34

> <i_lp_mmshare_version>
43012

> <i_f3d_flags>
0

> <s_epik_input>
W2NIXTFbY0hdW2NIXVtjSF1bY0hdYzFDKD1PKVtOSF1jKG5bY0hdbjIpYyhjMjMpbltjSF1uM1tDQEBIXTRPW0NASF0oW0NAQEhdKEYpW0NASF00W09IXSlbQ0gyXU9DKD1PKWM1W2NIXVtjSF1bY0hdW2NIXVtjSF01

> <s_epik_cmdline>
J2VwaWtfcHl0aG9uJywgJy1waCcsICc3LjAnLCAnLXRuJywgJzgnLCAnLW1hJywgJzIwMCcsICctbWV0YWxfYmluZGluZycsICctaW1hZScsICc8aW5maWxlLm1hZT4nLCAnLW9tYWUnLCAnPG91dGZpbGUubWFlPic=

> <r_lp_tautomer_probability>
1

> <r_epik_Ionization_Penalty>
4.33227

> <r_epik_Ionization_Penalty_Charging>
3.41027

> <r_epik_Ionization_Penalty_Neutral>
0.922001

> <r_epik_State_Penalty>
3.41358

> <r_epik_Charging_Adjusted_Penalty>
6.82385

> <i_epik_Tot_Q>
-1

> <i_epik_Tot_abs_Q>
1

> <r_epik_Metal_State_Penalty>
0.496292

> <b_epik_Metal_Only>
1

> <s_epik_Chemistry_Notes>
This compound has an ester and may undergo hydrolysis at high or low pH. This compound contains an acetal/aminal-like group ( X-CH(R)-Y where X, Y are N, S, or O) that may be acid/base labile, releasing an aldehyde.

> <s_lp_Force_Field>
OPLS_2005

> <r_lp_Energy>
42.8672

> <b_lp_Chiralities_Consistent>
1

> <s_lp_Variant>
AV-unprocessed.smi:34-21

> <Gold.Version>
5.8.1

> <Gold.Id.Protein>
6NUR|6NUR_protein|mol2

> <Gold.PLP.Fitness>
61.0414

> <Gold.PLP.PLP>
-50.7681

> <Gold.PLP.part.hbond>
-3.0000

> <Gold.PLP.part.metal>
0.0000

> <Gold.PLP.part.buried>
-8.6300

> <Gold.PLP.part.nonpolar>
-38.5393

> <Gold.PLP.part.repulsive>
0.4891

> <Gold.PLP.ligand.clash>
0.0000

> <Gold.PLP.ligand.torsion>
1.0012

> <Gold.PLP.Chemscore.Hbond>
2.9833

> <Gold.PLP.Chemscore.CHOScore>
1.0000

> <Gold.PLP.Chemscore.Metal>
0.0000

> <Gold.Chemscore.Hbonds>
donor molecule, donor type, donor heavy atom, donor atom, acceptor molecule, acceptor atom, score
      P1  H  6896  6907       L1    29  1.00
      P1  H  7989  7998       L1     5  1.00
      P1  H  7997  8009       L1     1  1.00
      L1  C     6    36       P1  7957  0.97

> <Gold.PLP.Chemscore.Internal.Correction>
0.3258

> <Gold.Rescore>
     Score         DG    S(hbond)    S(metal)    S(lipo)     H(rot)  DE(clash)    DE(int)     intcor
     19.76     -21.43       2.68        0.00     118.70       2.69       0.33       1.35       ----

> <Gold.Chemscore.Fitness>
19.7561

> <Gold.Chemscore.DG>
-21.4316

> <Gold.Chemscore.ZeroCoef>
-5.4800

> <Gold.Chemscore.Hbond>
2.6830

> <Gold.Chemscore.Metal>
0.0000

> <Gold.Chemscore.Lipo>
118.6997

> <Gold.Chemscore.Internal_Hbond>
0.0000

> <Gold.Chemscore.DEClash>
0.3304

> <Gold.Chemscore.DEInternal>
1.3451

> <Gold.Chemscore.Rot>
2.6944

> <Gold.Chemscore.Internal.Correction>
   9.000000E+99

> <Gold.Chemscore.Hbonds>
donor molecule, donor type, donor heavy atom, donor atom, acceptor molecule, acceptor atom, score
      P1  H  6896  6907       L1    29  0.16
      P1  H  7989  7998       L1     5  0.63
      P1  H  7997  8009       L1     1  0.58

> <Gold.Chemscore.Hbond.Weighted>
-8.9612

> <Gold.Chemscore.Metal.Weighted>
-0.0000

> <Gold.Chemscore.Lipo.Weighted>
-13.8879

> <Gold.Chemscore.Internal_Hbond.Weighted>
0.0000

> <Gold.Chemscore.DEClash.Weighted>
0.3304

> <Gold.Chemscore.DEInternal.Weighted>
1.3451

> <Gold.Chemscore.Rot.Weighted>
6.8975

> <Gold.Chemscore.Internal.Correction.Weighted>
   9.000000E+99

> <Gold.Protein.RotatedTorsions>
[ 6907 6896 6895 6894 ] final -116.98 input  -60.11 | X-H torsion
[ 7974 7965 7964 7962 ] final  163.66 input  175.53 | X-H torsion
[ 8008 7997 7996 7995 ] final  161.69 input   59.86 | X-H torsion
[ 10167 10162 10161 10158 ] final    7.70 input  -65.29 | X-H torsion
[ 10718 10713 10712 10709 ] final  173.51 input   66.30 | X-H torsion
[ 10763 10752 10751 10750 ] final -133.66 input  -60.55 | X-H torsion
[ 11005 11000 10999 10996 ] final  -69.85 input  -57.11 | X-H torsion

> <Gold.Protein.ActiveResidues>
 VAL166  LYS551  ARG553  GLY616  TRP617  ASP618  TYR619  PRO620  LYS621  CYS622 
 ASP623  PHE694  ASN695  SER759  ASP760  ASP761  ALA762  ILE779  LEU786  VAL792 
 PHE793  MET794  SER795  GLU796  ALA797  LYS798  CYS799  TRP800  GLU811  SER814 

> <Gold.Protein.RotatedAtoms>
  150.8100  133.8440  159.3186 H   0  0  0  0  0  0  0  0  0  0  0  0  # atno 6907 bound_to 6896
  151.6228  135.1028  160.0115 H   0  0  0  0  0  0  0  0  0  0  0  0  # atno 6908 bound_to 6896
  152.4191  133.7047  159.6501 H   0  0  0  0  0  0  0  0  0  0  0  0  # atno 6909 bound_to 6896
  144.7579  139.8215  143.6343 H   0  0  0  0  0  0  0  0  0  0  0  0  # atno 7974 bound_to 7965
  156.2085  140.1770  156.7747 H   0  0  0  0  0  0  0  0  0  0  0  0  # atno 8008 bound_to 7997
  154.5689  140.0686  156.8963 H   0  0  0  0  0  0  0  0  0  0  0  0  # atno 8009 bound_to 7997
  155.2710  140.3342  155.4267 H   0  0  0  0  0  0  0  0  0  0  0  0  # atno 8010 bound_to 7997
  140.6357  143.7892  150.7356 H   0  0  0  0  0  0  0  0  0  0  0  0  # atno 10167 bound_to 10162
  156.9632  131.0067  151.2922 H   0  0  0  0  0  0  0  0  0  0  0  0  # atno 10718 bound_to 10713
  154.8730  135.3759  154.4610 H   0  0  0  0  0  0  0  0  0  0  0  0  # atno 10763 bound_to 10752
  153.5278  135.7028  153.5704 H   0  0  0  0  0  0  0  0  0  0  0  0  # atno 10764 bound_to 10752
  153.3922  135.3969  155.1896 H   0  0  0  0  0  0  0  0  0  0  0  0  # atno 10765 bound_to 10752
  141.1562  133.6775  156.6662 H   0  0  0  0  0  0  0  0  0  0  0  0  # atno 11005 bound_to 11000
  146.1611  139.4726  142.9987 LP  0  0  0  0  0  0  0  0  0  0  0  0  # atno 17320 bound_to 7965
  145.6715  141.0215  143.1655 LP  0  0  0  0  0  0  0  0  0  0  0  0  # atno 17321 bound_to 7965
  140.1513  143.4355  152.2129 LP  0  0  0  0  0  0  0  0  0  0  0  0  # atno 17342 bound_to 10162
  139.5567  144.7378  151.4272 LP  0  0  0  0  0  0  0  0  0  0  0  0  # atno 17343 bound_to 10162
  157.5643  130.8267  149.8307 LP  0  0  0  0  0  0  0  0  0  0  0  0  # atno 17370 bound_to 10713
  156.0313  130.3764  150.1679 LP  0  0  0  0  0  0  0  0  0  0  0  0  # atno 17371 bound_to 10713
  140.3209  134.8008  157.4252 LP  0  0  0  0  0  0  0  0  0  0  0  0  # atno 17394 bound_to 11000
  140.1097  134.5362  155.8277 LP  0  0  0  0  0  0  0  0  0  0  0  0  # atno 17395 bound_to 11000

$$$$
