AV-unprocessed.smi:283|AV-procd|sdf|2129|dock5
  -GOLD-   2262021443D 1   1.00000     0.00000
 Structure written by MMmdl.
 48 51  0  0  0  0  0  0  0  0  1 V2000
  149.1889  142.2824  158.1084 C   0  0  0  0  0  0  0  0  0  0  0  0
  150.4664  141.7329  157.4593 C   0  0  2  0  0  0  0  0  0  0  0  0
  150.1650  140.4875  156.7563 N   0  0  0  0  0  0  0  0  0  0  0  0
  149.2561  140.4509  155.7568 C   0  0  0  0  0  0  0  0  0  0  0  0
  148.9900  141.6398  155.1654 N   0  0  0  0  0  0  0  0  0  0  0  0
  148.0887  141.7133  154.1823 C   0  0  0  0  0  0  0  0  0  0  0  0
  147.3591  140.7343  153.6449 N   0  0  0  0  0  0  0  0  0  0  0  0
  147.6329  139.5289  154.2233 C   0  0  0  0  0  0  0  0  0  0  0  0
  148.5633  139.3000  155.2771 C   0  0  0  0  0  0  0  0  0  0  0  0
  148.5715  137.9469  155.5920 N   0  0  0  0  0  0  0  0  0  0  0  0
  147.6867  137.4207  154.7912 C   0  0  0  0  0  0  0  0  0  0  0  0
  147.0815  138.3017  153.9187 N   0  0  0  0  0  0  0  0  0  0  0  0
  146.0147  138.0568  152.8907 C   0  0  2  0  0  0  0  0  0  0  0  0
  145.0031  137.3162  153.5022 O   0  0  0  0  0  0  0  0  0  0  0  0
  145.1774  135.9340  153.2152 C   0  0  1  0  0  0  0  0  0  0  0  0
  143.8835  135.1418  153.4771 C   0  0  0  0  0  0  0  0  0  0  0  0
  144.0707  133.7825  153.1451 O   0  0  0  0  0  0  0  0  0  0  0  0
  145.6569  135.9674  151.7564 C   0  0  1  0  0  0  0  0  0  0  0  0
  144.5517  136.0451  150.8700 O   0  0  0  0  0  0  0  0  0  0  0  0
  146.5429  137.2172  151.7111 C   0  0  1  0  0  0  0  0  0  0  0  0
  146.4709  137.9000  150.4733 O   0  0  0  0  0  0  0  0  0  0  0  0
  151.5877  141.6281  158.4974 C   0  0  0  0  0  0  0  0  0  0  0  0
  152.0683  140.3571  158.8909 C   0  0  0  0  0  0  0  0  0  0  0  0
  153.1021  140.2413  159.8386 C   0  0  0  0  0  0  0  0  0  0  0  0
  153.6614  141.3967  160.4126 C   0  0  0  0  0  0  0  0  0  0  0  0
  153.1809  142.6658  160.0415 C   0  0  0  0  0  0  0  0  0  0  0  0
  152.1462  142.7877  159.0924 C   0  0  0  0  0  0  0  0  0  0  0  0
  151.5866  144.3727  158.6864 Cl  0  0  0  0  0  0  0  0  0  0  0  0
  145.6506  139.0434  152.6032 H   0  0  0  0  0  0  0  0  0  0  0  0
  145.9803  135.5340  153.8348 H   0  0  0  0  0  0  0  0  0  0  0  0
  146.2221  135.0694  151.5047 H   0  0  0  0  0  0  0  0  0  0  0  0
  147.5832  136.9410  151.8807 H   0  0  0  0  0  0  0  0  0  0  0  0
  149.3682  143.2568  158.5638 H   0  0  0  0  0  0  0  0  0  0  0  0
  148.8196  141.6142  158.8873 H   0  0  0  0  0  0  0  0  0  0  0  0
  148.3952  142.4068  157.3711 H   0  0  0  0  0  0  0  0  0  0  0  0
  150.7592  142.4468  156.6915 H   0  0  0  0  0  0  0  0  0  0  0  0
  150.8605  139.7641  156.8668 H   0  0  0  0  0  0  0  0  0  0  0  0
  147.9276  142.6978  153.7686 H   0  0  0  0  0  0  0  0  0  0  0  0
  147.4644  136.3646  154.8199 H   0  0  0  0  0  0  0  0  0  0  0  0
  143.5607  135.2342  154.5145 H   0  0  0  0  0  0  0  0  0  0  0  0
  143.0771  135.5221  152.8491 H   0  0  0  0  0  0  0  0  0  0  0  0
  143.5561  133.2540  153.7357 H   0  0  0  0  0  0  0  0  0  0  0  0
  144.6027  136.8631  150.3994 H   0  0  0  0  0  0  0  0  0  0  0  0
  145.5672  138.1181  150.3028 H   0  0  0  0  0  0  0  0  0  0  0  0
  151.6479  139.4587  158.4637 H   0  0  0  0  0  0  0  0  0  0  0  0
  153.4644  139.2653  160.1257 H   0  0  0  0  0  0  0  0  0  0  0  0
  154.4545  141.3094  161.1407 H   0  0  0  0  0  0  0  0  0  0  0  0
  153.6074  143.5510  160.4900 H   0  0  0  0  0  0  0  0  0  0  0  0
  1  2  1  0  0  0  0
  1 33  1  0  0  0  0
  1 34  1  0  0  0  0
  1 35  1  0  0  0  0
  2  3  1  0  0  0  0
  2 22  1  0  0  0  0
  2 36  1  0  0  0  0
  3  4  1  0  0  0  0
  3 37  1  0  0  0  0
  4  9  1  0  0  0  0
  4  5  2  0  0  0  0
  5  6  1  0  0  0  0
  6  7  2  0  0  0  0
  6 38  1  0  0  0  0
  7  8  1  0  0  0  0
  8 12  1  0  0  0  0
  8  9  2  0  0  0  0
  9 10  1  0  0  0  0
 10 11  2  0  0  0  0
 11 12  1  0  0  0  0
 11 39  1  0  0  0  0
 12 13  1  0  0  0  0
 13 29  1  0  0  0  0
 13 20  1  0  0  0  0
 13 14  1  0  0  0  0
 14 15  1  0  0  0  0
 15 30  1  0  0  0  0
 15 16  1  0  0  0  0
 15 18  1  0  0  0  0
 16 17  1  0  0  0  0
 16 40  1  0  0  0  0
 16 41  1  0  0  0  0
 17 42  1  0  0  0  0
 18 31  1  0  0  0  0
 18 19  1  0  0  0  0
 18 20  1  0  0  0  0
 19 43  1  0  0  0  0
 20 32  1  0  0  0  0
 20 21  1  0  0  0  0
 21 44  1  0  0  0  0
 22 27  1  0  0  0  0
 22 23  2  0  0  0  0
 23 24  1  0  0  0  0
 23 45  1  0  0  0  0
 24 25  2  0  0  0  0
 24 46  1  0  0  0  0
 25 26  1  0  0  0  0
 25 47  1  0  0  0  0
 26 27  2  0  0  0  0
 26 48  1  0  0  0  0
 27 28  1  0  0  0  0
M  END
> <s_m_source_file>
AV-unprocessed.smi

> <i_m_source_file_index>
283

> <i_lp_mmshare_version>
43012

> <i_f3d_flags>
0

> <s_epik_input>
Q2xjMVtjSF1bY0hdW2NIXVtjSF1jMVtDQEhdKFtDSDNdKVtOSF1jKG5bY0hdbjIpYyhjMjMpbltjSF1uM1tDQEBIXTRPW0NASF0oW0NIMl1bT0hdKVtDQEBIXShbT0hdKVtDQEhdNFtPSF0=

> <s_epik_cmdline>
J2VwaWtfcHl0aG9uJywgJy1waCcsICc3LjAnLCAnLXRuJywgJzgnLCAnLW1hJywgJzIwMCcsICctbWV0YWxfYmluZGluZycsICctaW1hZScsICc8aW5maWxlLm1hZT4nLCAnLW9tYWUnLCAnPG91dGZpbGUubWFlPic=

> <r_lp_tautomer_probability>
1

> <r_epik_Ionization_Penalty>
0.000266407

> <r_epik_Ionization_Penalty_Charging>
0

> <r_epik_Ionization_Penalty_Neutral>
0.000266407

> <r_epik_State_Penalty>
-0

> <r_epik_Charging_Adjusted_Penalty>
0

> <i_epik_Tot_Q>
0

> <i_epik_Tot_abs_Q>
0

> <r_epik_Metal_State_Penalty>
-0

> <b_epik_Metal_Only>
0

> <s_epik_Chemistry_Notes>
This compound contains an acetal/aminal-like group ( X-CH(R)-Y where X, Y are N, S, or O) that may be acid/base labile, releasing an aldehyde.

> <s_lp_Force_Field>
OPLS_2005

> <r_lp_Energy>
46.6771

> <b_lp_Chiralities_Consistent>
1

> <s_lp_Variant>
AV-unprocessed.smi:283-5

> <Gold.Version>
5.8.1

> <Gold.Id.Protein>
6NUR|6NUR_protein|mol2

> <Gold.PLP.Fitness>
54.1876

> <Gold.PLP.PLP>
-43.1559

> <Gold.PLP.part.hbond>
-4.4448

> <Gold.PLP.part.metal>
0.0000

> <Gold.PLP.part.buried>
-4.7007

> <Gold.PLP.part.nonpolar>
-35.8108

> <Gold.PLP.part.repulsive>
0.5376

> <Gold.PLP.ligand.clash>
0.0000

> <Gold.PLP.ligand.torsion>
0.4446

> <Gold.PLP.Chemscore.Hbond>
3.9280

> <Gold.PLP.Chemscore.CHOScore>
0.0000

> <Gold.PLP.Chemscore.Metal>
0.0000

> <Gold.Chemscore.Hbonds>
donor molecule, donor type, donor heavy atom, donor atom, acceptor molecule, acceptor atom, score
      L1  H    17    42       P1 10957  1.00
      L1  H    19    43       P1 10171  1.00
      L1  H    21    44       P1 10171  1.00
      P1  H  7954  7966       L1    21  0.91
      L1  C     6    38       P1  8028  0.07

> <Gold.PLP.Chemscore.Internal.Correction>
0.1369

> <Gold.Rescore>
     Score         DG    S(hbond)    S(metal)    S(lipo)     H(rot)  DE(clash)    DE(int)     intcor
     16.21     -18.10       3.62        0.00      94.12       4.10       1.47       0.42       ----

> <Gold.Chemscore.Fitness>
16.2143

> <Gold.Chemscore.DG>
-18.0972

> <Gold.Chemscore.ZeroCoef>
-5.4800

> <Gold.Chemscore.Hbond>
3.6206

> <Gold.Chemscore.Metal>
0.0000

> <Gold.Chemscore.Lipo>
94.1233

> <Gold.Chemscore.Internal_Hbond>
0.0000

> <Gold.Chemscore.DEClash>
1.4655

> <Gold.Chemscore.DEInternal>
0.4173

> <Gold.Chemscore.Rot>
4.0968

> <Gold.Chemscore.Internal.Correction>
   9.000000E+99

> <Gold.Chemscore.Hbonds>
donor molecule, donor type, donor heavy atom, donor atom, acceptor molecule, acceptor atom, score
      L1  H    17    42       P1 10957  0.93
      L1  H    19    43       P1 10171  0.96
      L1  H    21    44       P1 10171  1.00
      P1  H  7954  7966       L1    21  0.40

> <Gold.Chemscore.Hbond.Weighted>
-12.0927

> <Gold.Chemscore.Metal.Weighted>
-0.0000

> <Gold.Chemscore.Lipo.Weighted>
-11.0124

> <Gold.Chemscore.Internal_Hbond.Weighted>
0.0000

> <Gold.Chemscore.DEClash.Weighted>
1.4655

> <Gold.Chemscore.DEInternal.Weighted>
0.4173

> <Gold.Chemscore.Rot.Weighted>
10.4879

> <Gold.Chemscore.Internal.Correction.Weighted>
   9.000000E+99

> <Gold.Protein.RotatedTorsions>
[ 6907 6896 6895 6894 ] final   51.48 input  -60.11 | X-H torsion
[ 7974 7965 7964 7962 ] final  115.25 input  175.53 | X-H torsion
[ 8008 7997 7996 7995 ] final  -49.07 input   59.86 | X-H torsion
[ 10167 10162 10161 10158 ] final -151.32 input  -65.29 | X-H torsion
[ 10718 10713 10712 10709 ] final   10.60 input   66.30 | X-H torsion
[ 10763 10752 10751 10750 ] final   12.93 input  -60.55 | X-H torsion
[ 11005 11000 10999 10996 ] final -110.57 input  -57.11 | X-H torsion

> <Gold.Protein.ActiveResidues>
 VAL166  LYS551  ARG553  GLY616  TRP617  ASP618  TYR619  PRO620  LYS621  CYS622 
 ASP623  PHE694  ASN695  SER759  ASP760  ASP761  ALA762  ILE779  LEU786  VAL792 
 PHE793  MET794  SER795  GLU796  ALA797  LYS798  CYS799  TRP800  GLU811  SER814 

> <Gold.Protein.RotatedAtoms>
  152.3131  134.7472  160.0331 H   0  0  0  0  0  0  0  0  0  0  0  0  # atno 6907 bound_to 6896
  151.7946  133.3358  159.3517 H   0  0  0  0  0  0  0  0  0  0  0  0  # atno 6908 bound_to 6896
  150.7330  134.5741  159.5949 H   0  0  0  0  0  0  0  0  0  0  0  0  # atno 6909 bound_to 6896
  145.1944  139.2984  143.4351 H   0  0  0  0  0  0  0  0  0  0  0  0  # atno 7974 bound_to 7965
  154.4038  140.1306  156.4442 H   0  0  0  0  0  0  0  0  0  0  0  0  # atno 8008 bound_to 7997
  155.7429  140.3489  155.5093 H   0  0  0  0  0  0  0  0  0  0  0  0  # atno 8009 bound_to 7997
  155.9022  140.1021  157.1331 H   0  0  0  0  0  0  0  0  0  0  0  0  # atno 8010 bound_to 7997
  139.7278  143.8856  152.2525 H   0  0  0  0  0  0  0  0  0  0  0  0  # atno 10167 bound_to 10162
  156.9834  130.6014  149.5679 H   0  0  0  0  0  0  0  0  0  0  0  0  # atno 10718 bound_to 10713
  153.1772  135.6822  153.8527 H   0  0  0  0  0  0  0  0  0  0  0  0  # atno 10763 bound_to 10752
  153.7871  135.3174  155.3375 H   0  0  0  0  0  0  0  0  0  0  0  0  # atno 10764 bound_to 10752
  154.8036  135.4762  154.0431 H   0  0  0  0  0  0  0  0  0  0  0  0  # atno 10765 bound_to 10752
  141.0784  133.9261  157.2340 H   0  0  0  0  0  0  0  0  0  0  0  0  # atno 11005 bound_to 11000
  146.3430  140.2167  142.8591 LP  0  0  0  0  0  0  0  0  0  0  0  0  # atno 17320 bound_to 7965
  145.0010  140.8631  143.5282 LP  0  0  0  0  0  0  0  0  0  0  0  0  # atno 17321 bound_to 7965
  139.8771  144.7038  150.8921 LP  0  0  0  0  0  0  0  0  0  0  0  0  # atno 17342 bound_to 10162
  140.7766  143.3691  151.1683 LP  0  0  0  0  0  0  0  0  0  0  0  0  # atno 17343 bound_to 10162
  156.0235  130.5330  150.8343 LP  0  0  0  0  0  0  0  0  0  0  0  0  # atno 17370 bound_to 10713
  157.5510  131.0944  150.9695 LP  0  0  0  0  0  0  0  0  0  0  0  0  # atno 17371 bound_to 10713
  139.9597  135.0157  156.9227 LP  0  0  0  0  0  0  0  0  0  0  0  0  # atno 17394 bound_to 11000
  140.5522  134.0616  155.7372 LP  0  0  0  0  0  0  0  0  0  0  0  0  # atno 17395 bound_to 11000

$$$$
