AV-unprocessed.smi:1920|AV-procd|sdf|7784|dock4
  -GOLD-   22720 9533D 1   1.00000     0.00000
 Structure written by MMmdl.
 36 37  0  0  0  0  0  0  0  0  1 V2000
  149.9203  141.8355  154.4487 C   0  0  0  0  0  0  0  0  0  0  0  0
  150.3377  141.4954  155.8857 C   0  0  1  0  0  0  0  0  0  0  0  0
  151.6673  140.7142  155.9164 C   0  0  0  0  0  0  0  0  0  0  0  0
  151.5390  139.3671  155.3901 N   0  0  0  0  0  0  0  0  0  0  0  0
  150.9947  138.9910  154.1691 C   0  0  0  0  0  0  0  0  0  0  0  0
  151.0893  137.6194  154.1025 C   0  0  0  0  0  0  0  0  0  0  0  0
  151.6924  137.1337  155.2603 N   0  0  0  0  0  0  0  0  0  0  0  0
  151.9313  138.2263  155.9740 C   0  0  0  0  0  0  0  0  0  0  0  0
  150.4533  142.7333  156.6554 N   0  0  0  0  0  0  0  0  0  0  0  0
  150.5586  142.8221  157.9910 C   0  0  0  0  0  0  0  0  0  0  0  0
  150.5345  141.8457  158.7408 O   0  0  0  0  0  0  0  0  0  0  0  0
  150.7248  144.2348  158.5632 C   0  0  0  0  0  0  0  0  0  0  0  0
  151.8765  144.3702  159.5848 C   0  0  1  0  0  0  0  0  0  0  0  0
  151.4224  144.2952  161.0229 C   0  0  0  0  0  0  0  0  0  0  0  0
  152.0483  143.3457  161.7135 C   0  0  0  0  0  0  0  0  0  0  0  0
  153.0478  142.5924  160.8810 C   0  0  0  0  0  0  0  0  0  0  0  0
  152.9192  143.2273  159.4778 C   0  0  0  0  0  0  0  0  0  0  0  0
  149.8013  140.9312  153.8511 H   0  0  0  0  0  0  0  0  0  0  0  0
  150.6628  142.4643  153.9559 H   0  0  0  0  0  0  0  0  0  0  0  0
  148.9683  142.3674  154.4317 H   0  0  0  0  0  0  0  0  0  0  0  0
  149.5547  140.8614  156.3054 H   0  0  0  0  0  0  0  0  0  0  0  0
  152.4209  141.2329  155.3225 H   0  0  0  0  0  0  0  0  0  0  0  0
  152.0557  140.6598  156.9348 H   0  0  0  0  0  0  0  0  0  0  0  0
  150.5916  139.7097  153.4708 H   0  0  0  0  0  0  0  0  0  0  0  0
  150.7736  136.9501  153.3157 H   0  0  0  0  0  0  0  0  0  0  0  0
  152.3993  138.1947  156.9472 H   0  0  0  0  0  0  0  0  0  0  0  0
  150.4799  143.5928  156.1263 H   0  0  0  0  0  0  0  0  0  0  0  0
  150.8843  144.9364  157.7426 H   0  0  0  0  0  0  0  0  0  0  0  0
  149.7835  144.5202  159.0335 H   0  0  0  0  0  0  0  0  0  0  0  0
  152.3789  145.3290  159.4477 H   0  0  0  0  0  0  0  0  0  0  0  0
  150.6792  144.9654  161.4282 H   0  0  0  0  0  0  0  0  0  0  0  0
  151.8849  143.1257  162.7583 H   0  0  0  0  0  0  0  0  0  0  0  0
  154.0498  142.7193  161.2921 H   0  0  0  0  0  0  0  0  0  0  0  0
  152.8074  141.5290  160.8682 H   0  0  0  0  0  0  0  0  0  0  0  0
  152.6078  142.4724  158.7547 H   0  0  0  0  0  0  0  0  0  0  0  0
  153.8810  143.6125  159.1371 H   0  0  0  0  0  0  0  0  0  0  0  0
  1  2  1  0  0  0  0
  1 18  1  0  0  0  0
  1 19  1  0  0  0  0
  1 20  1  0  0  0  0
  2  3  1  0  0  0  0
  2  9  1  0  0  0  0
  2 21  1  0  0  0  0
  3  4  1  0  0  0  0
  3 22  1  0  0  0  0
  3 23  1  0  0  0  0
  4  8  1  0  0  0  0
  4  5  1  0  0  0  0
  5  6  2  0  0  0  0
  5 24  1  0  0  0  0
  6  7  1  0  0  0  0
  6 25  1  0  0  0  0
  7  8  2  0  0  0  0
  8 26  1  0  0  0  0
  9 10  1  0  0  0  0
  9 27  1  0  0  0  0
 10 11  2  0  0  0  0
 10 12  1  0  0  0  0
 12 13  1  0  0  0  0
 12 28  1  0  0  0  0
 12 29  1  0  0  0  0
 13 17  1  0  0  0  0
 13 14  1  0  0  0  0
 13 30  1  0  0  0  0
 14 15  2  0  0  0  0
 14 31  1  0  0  0  0
 15 16  1  0  0  0  0
 15 32  1  0  0  0  0
 16 17  1  0  0  0  0
 16 33  1  0  0  0  0
 16 34  1  0  0  0  0
 17 35  1  0  0  0  0
 17 36  1  0  0  0  0
M  END
> <s_m_source_file>
AV-unprocessed.smi

> <i_m_source_file_index>
1920

> <i_lp_mmshare_version>
43012

> <i_f3d_flags>
0

> <s_epik_input>
W2NIXTFuW2NIXVtjSF1uMVtDSDJdW0NAQEhdKFtDSDNdKVtOSF1DKD1PKVtDSDJdW0NAQEhdMltDSF09W0NIXVtDSDJdW0NIMl0y

> <s_epik_cmdline>
J2VwaWtfcHl0aG9uJywgJy1waCcsICc3LjAnLCAnLXRuJywgJzgnLCAnLW1hJywgJzIwMCcsICctbWV0YWxfYmluZGluZycsICctaW1hZScsICc8aW5maWxlLm1hZT4nLCAnLW9tYWUnLCAnPG91dGZpbGUubWFlPic=

> <r_lp_tautomer_probability>
1

> <r_epik_Ionization_Penalty>
0.635367

> <r_epik_Ionization_Penalty_Charging>
0.635367

> <r_epik_Ionization_Penalty_Neutral>
2.1249e-08

> <r_epik_State_Penalty>
0.65258

> <r_epik_Charging_Adjusted_Penalty>
1.28795

> <i_epik_Tot_Q>
0

> <i_epik_Tot_abs_Q>
0

> <r_epik_Metal_State_Penalty>
0.310403

> <b_epik_Metal_Only>
0

> <s_lp_Force_Field>
OPLS_2005

> <r_lp_Energy>
18.2419

> <b_lp_Chiralities_Consistent>
1

> <s_lp_Variant>
AV-unprocessed.smi:1920-8

> <Gold.Version>
5.8.1

> <Gold.Id.Protein>
6NUR|6NUR_protein|mol2

> <Gold.PLP.Fitness>
52.3839

> <Gold.PLP.PLP>
-43.1514

> <Gold.PLP.part.hbond>
-2.2043

> <Gold.PLP.part.metal>
0.0000

> <Gold.PLP.part.buried>
-2.1919

> <Gold.PLP.part.nonpolar>
-36.7170

> <Gold.PLP.part.repulsive>
0.1193

> <Gold.PLP.ligand.clash>
0.0000

> <Gold.PLP.ligand.torsion>
0.9087

> <Gold.PLP.Chemscore.Hbond>
1.9440

> <Gold.PLP.Chemscore.CHOScore>
1.7151

> <Gold.PLP.Chemscore.Metal>
0.0000

> <Gold.Chemscore.Hbonds>
donor molecule, donor type, donor heavy atom, donor atom, acceptor molecule, acceptor atom, score
      L1  H     9    27       P1  8028  0.53
      P1  H 10752 10763       L1     7  0.83
      L1  C     5    24       P1  7957  1.00
      L1  C     6    25       P1  7948  0.12
      L1  C     6    25       P1  7949  0.74

> <Gold.PLP.Chemscore.Internal.Correction>
0.0725

> <Gold.Rescore>
     Score         DG    S(hbond)    S(metal)    S(lipo)     H(rot)  DE(clash)    DE(int)     intcor
     18.23     -19.19       1.91        0.00     104.76       1.93       0.04       0.91       ----

> <Gold.Chemscore.Fitness>
18.2330

> <Gold.Chemscore.DG>
-19.1868

> <Gold.Chemscore.ZeroCoef>
-5.4800

> <Gold.Chemscore.Hbond>
1.9137

> <Gold.Chemscore.Metal>
0.0000

> <Gold.Chemscore.Lipo>
104.7649

> <Gold.Chemscore.Internal_Hbond>
0.0000

> <Gold.Chemscore.DEClash>
0.0443

> <Gold.Chemscore.DEInternal>
0.9095

> <Gold.Chemscore.Rot>
1.9306

> <Gold.Chemscore.Internal.Correction>
   9.000000E+99

> <Gold.Chemscore.Hbonds>
donor molecule, donor type, donor heavy atom, donor atom, acceptor molecule, acceptor atom, score
      L1  H     9    27       P1  8028  0.50
      P1  H 10752 10763       L1     7  0.58

> <Gold.Chemscore.Hbond.Weighted>
-6.3917

> <Gold.Chemscore.Metal.Weighted>
-0.0000

> <Gold.Chemscore.Lipo.Weighted>
-12.2575

> <Gold.Chemscore.Internal_Hbond.Weighted>
0.0000

> <Gold.Chemscore.DEClash.Weighted>
0.0443

> <Gold.Chemscore.DEInternal.Weighted>
0.9095

> <Gold.Chemscore.Rot.Weighted>
4.9424

> <Gold.Chemscore.Internal.Correction.Weighted>
   9.000000E+99

> <Gold.Protein.RotatedTorsions>
[ 6907 6896 6895 6894 ] final  -57.98 input  -60.11 | X-H torsion
[ 7974 7965 7964 7962 ] final    2.43 input  175.53 | X-H torsion
[ 8008 7997 7996 7995 ] final   11.19 input   59.86 | X-H torsion
[ 10167 10162 10161 10158 ] final -166.13 input  -65.29 | X-H torsion
[ 10718 10713 10712 10709 ] final    7.77 input   66.30 | X-H torsion
[ 10763 10752 10751 10750 ] final   71.83 input  -60.55 | X-H torsion
[ 11005 11000 10999 10996 ] final -124.82 input  -57.11 | X-H torsion

> <Gold.Protein.ActiveResidues>
 VAL166  LYS551  ARG553  GLY616  TRP617  ASP618  TYR619  PRO620  LYS621  CYS622 
 ASP623  PHE694  ASN695  SER759  ASP760  ASP761  ALA762  ILE779  LEU786  VAL792 
 PHE793  MET794  SER795  GLU796  ALA797  LYS798  CYS799  TRP800  GLU811  SER814 

> <Gold.Protein.RotatedAtoms>
  150.8043  134.7158  159.6629 H   0  0  0  0  0  0  0  0  0  0  0  0  # atno 6907 bound_to 6896
  152.4162  134.6034  160.0016 H   0  0  0  0  0  0  0  0  0  0  0  0  # atno 6908 bound_to 6896
  151.6263  133.3298  159.3135 H   0  0  0  0  0  0  0  0  0  0  0  0  # atno 6909 bound_to 6896
  146.2444  140.0837  142.8355 H   0  0  0  0  0  0  0  0  0  0  0  0  # atno 7974 bound_to 7965
  154.8035  140.2856  155.5904 H   0  0  0  0  0  0  0  0  0  0  0  0  # atno 8008 bound_to 7997
  156.2980  140.2582  156.2838 H   0  0  0  0  0  0  0  0  0  0  0  0  # atno 8009 bound_to 7997
  154.9530  140.0379  157.2143 H   0  0  0  0  0  0  0  0  0  0  0  0  # atno 8010 bound_to 7997
  139.6136  144.0765  152.1866 H   0  0  0  0  0  0  0  0  0  0  0  0  # atno 10167 bound_to 10162
  156.9419  130.5864  149.5653 H   0  0  0  0  0  0  0  0  0  0  0  0  # atno 10718 bound_to 10713
  153.0422  135.5122  154.7653 H   0  0  0  0  0  0  0  0  0  0  0  0  # atno 10763 bound_to 10752
  154.6581  135.2934  154.9904 H   0  0  0  0  0  0  0  0  0  0  0  0  # atno 10764 bound_to 10752
  154.0765  135.6670  153.4884 H   0  0  0  0  0  0  0  0  0  0  0  0  # atno 10765 bound_to 10752
  140.9811  134.0672  157.3764 H   0  0  0  0  0  0  0  0  0  0  0  0  # atno 11005 bound_to 11000
  145.0710  140.9155  143.4882 LP  0  0  0  0  0  0  0  0  0  0  0  0  # atno 17320 bound_to 7965
  145.0971  139.2848  143.5705 LP  0  0  0  0  0  0  0  0  0  0  0  0  # atno 17321 bound_to 7965
  140.0390  144.6022  150.7426 LP  0  0  0  0  0  0  0  0  0  0  0  0  # atno 17342 bound_to 10162
  140.7336  143.2718  151.3863 LP  0  0  0  0  0  0  0  0  0  0  0  0  # atno 17343 bound_to 10162
  156.0401  130.5484  150.8749 LP  0  0  0  0  0  0  0  0  0  0  0  0  # atno 17370 bound_to 10713
  157.5779  131.0946  150.9316 LP  0  0  0  0  0  0  0  0  0  0  0  0  # atno 17371 bound_to 10713
  139.8950  135.0139  156.6982 LP  0  0  0  0  0  0  0  0  0  0  0  0  # atno 17394 bound_to 11000
  140.7185  133.9161  155.8131 LP  0  0  0  0  0  0  0  0  0  0  0  0  # atno 17395 bound_to 11000

$$$$
