AV-unprocessed.smi:1280|AV-procd|sdf|5358|dock7
  -GOLD-   22720 4493D 1   1.00000     0.00000
 Structure written by MMmdl.
 44 45  0  0  0  0  0  0  0  0  2 V2000
  153.8971  132.8788  157.4925 C   0  0  0  0  0  0  0  0  0  0  0  0
  155.2377  134.0196  158.0172 S   0  0  0  0  0  0  0  0  0  0  0  0
  156.2761  133.1682  158.6201 O   0  0  0  0  0  0  0  0  0  0  0  0
  155.6081  134.7816  156.8136 O   0  0  0  0  0  0  0  0  0  0  0  0
  154.4520  134.9198  159.1119 N   0  5  0  0  0  0  0  0  0  0  0  0
  154.7948  136.3253  159.2518 C   0  0  0  0  0  0  0  0  0  0  0  0
  153.8664  137.0067  160.2777 C   0  0  0  0  0  0  0  0  0  0  0  0
  154.2783  138.4388  160.6880 C   0  0  0  0  0  0  0  0  0  0  0  0
  153.3960  139.4316  160.0844 N   0  0  0  0  0  0  0  0  0  0  0  0
  153.1170  139.5270  158.7740 C   0  0  0  0  0  0  0  0  0  0  0  0
  153.6064  138.7923  157.9162 O   0  0  0  0  0  0  0  0  0  0  0  0
  152.2041  140.6579  158.3809 C   0  0  0  0  0  0  0  0  0  0  0  0
  152.2940  141.8749  159.0926 C   0  0  0  0  0  0  0  0  0  0  0  0
  151.4428  142.9420  158.7553 C   0  0  0  0  0  0  0  0  0  0  0  0
  150.5292  142.7560  157.7040 C   0  0  0  0  0  0  0  0  0  0  0  0
  150.4428  141.6112  156.9972 N   0  0  0  0  0  0  0  0  0  0  0  0
  151.2636  140.5770  157.3101 C   0  0  0  0  0  0  0  0  0  0  0  0
  151.1819  139.4377  156.4838 N   0  0  0  0  0  0  0  0  0  0  0  0
  152.2349  139.2622  155.4887 C   0  0  0  0  0  0  0  0  0  0  0  0
  151.8805  138.0931  154.5548 C   0  0  0  0  0  0  0  0  0  0  0  0
  151.6730  136.9151  155.3290 O   0  0  0  0  0  0  0  0  0  0  0  0
  150.5948  137.0616  156.2487 C   0  0  0  0  0  0  0  0  0  0  0  0
  150.8907  138.2150  157.2233 C   0  0  0  0  0  0  0  0  0  0  0  0
  154.2823  132.1935  156.7383 H   0  0  0  0  0  0  0  0  0  0  0  0
  153.0732  133.4552  157.0726 H   0  0  0  0  0  0  0  0  0  0  0  0
  153.5446  132.3109  158.3531 H   0  0  0  0  0  0  0  0  0  0  0  0
  155.8254  136.4470  159.5859 H   0  0  0  0  0  0  0  0  0  0  0  0
  154.7271  136.8593  158.3034 H   0  0  0  0  0  0  0  0  0  0  0  0
  152.8426  137.0067  159.9004 H   0  0  0  0  0  0  0  0  0  0  0  0
  153.8529  136.3884  161.1751 H   0  0  0  0  0  0  0  0  0  0  0  0
  154.2132  138.5654  161.7702 H   0  0  0  0  0  0  0  0  0  0  0  0
  155.3135  138.6544  160.4138 H   0  0  0  0  0  0  0  0  0  0  0  0
  152.9610  140.0944  160.7096 H   0  0  0  0  0  0  0  0  0  0  0  0
  153.0003  141.9905  159.9020 H   0  0  0  0  0  0  0  0  0  0  0  0
  151.4874  143.8780  159.2920 H   0  0  0  0  0  0  0  0  0  0  0  0
  149.8562  143.5501  157.4162 H   0  0  0  0  0  0  0  0  0  0  0  0
  152.3563  140.1805  154.9125 H   0  0  0  0  0  0  0  0  0  0  0  0
  153.1854  139.0591  155.9843 H   0  0  0  0  0  0  0  0  0  0  0  0
  150.9887  138.3188  153.9678 H   0  0  0  0  0  0  0  0  0  0  0  0
  152.6920  137.9163  153.8491 H   0  0  0  0  0  0  0  0  0  0  0  0
  149.6659  137.2396  155.7063 H   0  0  0  0  0  0  0  0  0  0  0  0
  150.4667  136.1291  156.7984 H   0  0  0  0  0  0  0  0  0  0  0  0
  151.7477  137.9642  157.8497 H   0  0  0  0  0  0  0  0  0  0  0  0
  150.0401  138.3628  157.8895 H   0  0  0  0  0  0  0  0  0  0  0  0
  1  2  1  0  0  0  0
  1 24  1  0  0  0  0
  1 25  1  0  0  0  0
  1 26  1  0  0  0  0
  2  3  2  0  0  0  0
  2  4  2  0  0  0  0
  2  5  1  0  0  0  0
  5  6  1  0  0  0  0
  6  7  1  0  0  0  0
  6 27  1  0  0  0  0
  6 28  1  0  0  0  0
  7  8  1  0  0  0  0
  7 29  1  0  0  0  0
  7 30  1  0  0  0  0
  8  9  1  0  0  0  0
  8 31  1  0  0  0  0
  8 32  1  0  0  0  0
  9 10  1  0  0  0  0
  9 33  1  0  0  0  0
 10 11  2  0  0  0  0
 10 12  1  0  0  0  0
 12 17  1  0  0  0  0
 12 13  2  0  0  0  0
 13 14  1  0  0  0  0
 13 34  1  0  0  0  0
 14 15  2  0  0  0  0
 14 35  1  0  0  0  0
 15 16  1  0  0  0  0
 15 36  1  0  0  0  0
 16 17  2  0  0  0  0
 17 18  1  0  0  0  0
 18 23  1  0  0  0  0
 18 19  1  0  0  0  0
 19 20  1  0  0  0  0
 19 37  1  0  0  0  0
 19 38  1  0  0  0  0
 20 21  1  0  0  0  0
 20 39  1  0  0  0  0
 20 40  1  0  0  0  0
 21 22  1  0  0  0  0
 22 23  1  0  0  0  0
 22 41  1  0  0  0  0
 22 42  1  0  0  0  0
 23 43  1  0  0  0  0
 23 44  1  0  0  0  0
M  CHG  1   5  -1
M  END
> <s_m_source_file>
AV-unprocessed.smi

> <i_m_source_file_index>
1280

> <i_lp_mmshare_version>
43012

> <i_f3d_flags>
0

> <s_epik_input>
W0NIM11TKD1PKSg9TylbTkhdW0NIMl1bQ0gyXVtDSDJdW05IXUMoPU8pYzFbY0hdW2NIXVtjSF1uYzFOMltDSDJdW0NIMl1PW0NIMl1bQ0gyXTI=

> <s_epik_cmdline>
J2VwaWtfcHl0aG9uJywgJy1waCcsICc3LjAnLCAnLXRuJywgJzgnLCAnLW1hJywgJzIwMCcsICctbWV0YWxfYmluZGluZycsICctaW1hZScsICc8aW5maWxlLm1hZT4nLCAnLW9tYWUnLCAnPG91dGZpbGUubWFlPic=

> <r_lp_tautomer_probability>
1

> <r_epik_Ionization_Penalty>
6.65739

> <r_epik_Ionization_Penalty_Charging>
6.65737

> <r_epik_Ionization_Penalty_Neutral>
1.70916e-05

> <r_epik_State_Penalty>
6.65736

> <r_epik_Charging_Adjusted_Penalty>
13.3147

> <i_epik_Tot_Q>
-1

> <i_epik_Tot_abs_Q>
1

> <r_epik_Metal_State_Penalty>
2.58004

> <b_epik_Metal_Only>
1

> <s_lp_Force_Field>
OPLS_2005

> <r_lp_Energy>
24.7135

> <b_lp_Chiralities_Consistent>
1

> <s_lp_Variant>
AV-unprocessed.smi:1280-2

> <Gold.Version>
5.8.1

> <Gold.Id.Protein>
6NUR|6NUR_protein|mol2

> <Gold.PLP.Fitness>
44.9722

> <Gold.PLP.PLP>
-29.3291

> <Gold.PLP.part.hbond>
-4.0000

> <Gold.PLP.part.metal>
0.0000

> <Gold.PLP.part.buried>
-5.3268

> <Gold.PLP.part.nonpolar>
-21.0627

> <Gold.PLP.part.repulsive>
0.2337

> <Gold.PLP.ligand.clash>
0.0000

> <Gold.PLP.ligand.torsion>
1.7142

> <Gold.PLP.Chemscore.Hbond>
4.9500

> <Gold.PLP.Chemscore.CHOScore>
1.0000

> <Gold.PLP.Chemscore.Metal>
0.0000

> <Gold.Chemscore.Hbonds>
donor molecule, donor type, donor heavy atom, donor atom, acceptor molecule, acceptor atom, score
      P1  H  6896  6908       L1     5  1.50
      P1  H  7997  8009       L1    11  0.90
      P1  H 10752 10763       L1     4  1.00
      P1  H 10752 10765       L1    21  1.00
      L1  C    15    36       P1  8028  1.00

> <Gold.PLP.Chemscore.Internal.Correction>
1.2215

> <Gold.Rescore>
     Score         DG    S(hbond)    S(metal)    S(lipo)     H(rot)  DE(clash)    DE(int)     intcor
     16.29     -20.88       3.65        0.00      74.60       2.16       0.13       4.45       ----

> <Gold.Chemscore.Fitness>
16.2921

> <Gold.Chemscore.DG>
-20.8811

> <Gold.Chemscore.ZeroCoef>
-5.4800

> <Gold.Chemscore.Hbond>
3.6497

> <Gold.Chemscore.Metal>
0.0000

> <Gold.Chemscore.Lipo>
74.6044

> <Gold.Chemscore.Internal_Hbond>
0.0000

> <Gold.Chemscore.DEClash>
0.1350

> <Gold.Chemscore.DEInternal>
4.4541

> <Gold.Chemscore.Rot>
2.1554

> <Gold.Chemscore.Internal.Correction>
   9.000000E+99

> <Gold.Chemscore.Hbonds>
donor molecule, donor type, donor heavy atom, donor atom, acceptor molecule, acceptor atom, score
      P1  H  6896  6908       L1     5  0.57
      P1  H  7997  8009       L1    11  0.18
      P1  H 10752 10763       L1     4  0.96
      P1  H 10752 10765       L1    21  0.38

> <Gold.Chemscore.Hbond.Weighted>
-12.1902

> <Gold.Chemscore.Metal.Weighted>
-0.0000

> <Gold.Chemscore.Lipo.Weighted>
-8.7287

> <Gold.Chemscore.Internal_Hbond.Weighted>
0.0000

> <Gold.Chemscore.DEClash.Weighted>
0.1350

> <Gold.Chemscore.DEInternal.Weighted>
4.4541

> <Gold.Chemscore.Rot.Weighted>
5.5178

> <Gold.Chemscore.Internal.Correction.Weighted>
   9.000000E+99

> <Gold.Protein.RotatedTorsions>
[ 6907 6896 6895 6894 ] final  -49.96 input  -60.11 | X-H torsion
[ 7974 7965 7964 7962 ] final  -87.02 input  175.53 | X-H torsion
[ 8008 7997 7996 7995 ] final  144.75 input   59.86 | X-H torsion
[ 10167 10162 10161 10158 ] final  -54.19 input  -65.29 | X-H torsion
[ 10718 10713 10712 10709 ] final  110.80 input   66.30 | X-H torsion
[ 10763 10752 10751 10750 ] final  174.99 input  -60.55 | X-H torsion
[ 11005 11000 10999 10996 ] final  -71.80 input  -57.11 | X-H torsion

> <Gold.Protein.ActiveResidues>
 VAL166  LYS551  ARG553  GLY616  TRP617  ASP618  TYR619  PRO620  LYS621  CYS622 
 ASP623  PHE694  ASN695  SER759  ASP760  ASP761  ALA762  ILE779  LEU786  VAL792 
 PHE793  MET794  SER795  GLU796  ALA797  LYS798  CYS799  TRP800  GLU811  SER814 

> <Gold.Protein.RotatedAtoms>
  150.8754  134.8136  159.7185 H   0  0  0  0  0  0  0  0  0  0  0  0  # atno 6907 bound_to 6896
  152.4743  134.4880  159.9696 H   0  0  0  0  0  0  0  0  0  0  0  0  # atno 6908 bound_to 6896
  151.4963  133.3475  159.2897 H   0  0  0  0  0  0  0  0  0  0  0  0  # atno 6909 bound_to 6896
  145.4721  140.9559  143.1911 H   0  0  0  0  0  0  0  0  0  0  0  0  # atno 7974 bound_to 7965
  156.2900  140.2227  156.5104 H   0  0  0  0  0  0  0  0  0  0  0  0  # atno 8008 bound_to 7997
  154.7613  140.0473  157.0998 H   0  0  0  0  0  0  0  0  0  0  0  0  # atno 8009 bound_to 7997
  154.9987  140.3099  155.4879 H   0  0  0  0  0  0  0  0  0  0  0  0  # atno 8010 bound_to 7997
  140.6444  143.2526  151.4901 H   0  0  0  0  0  0  0  0  0  0  0  0  # atno 10167 bound_to 10162
  157.6476  131.0939  150.6656 H   0  0  0  0  0  0  0  0  0  0  0  0  # atno 10718 bound_to 10713
  154.4615  135.2768  155.1709 H   0  0  0  0  0  0  0  0  0  0  0  0  # atno 10763 bound_to 10752
  154.3495  135.6153  153.5639 H   0  0  0  0  0  0  0  0  0  0  0  0  # atno 10764 bound_to 10752
  152.9855  135.5808  154.4978 H   0  0  0  0  0  0  0  0  0  0  0  0  # atno 10765 bound_to 10752
  141.1598  133.6828  156.6961 H   0  0  0  0  0  0  0  0  0  0  0  0  # atno 11005 bound_to 11000
  144.7939  139.6274  143.7101 LP  0  0  0  0  0  0  0  0  0  0  0  0  # atno 17320 bound_to 7965
  146.2390  139.5963  142.9504 LP  0  0  0  0  0  0  0  0  0  0  0  0  # atno 17321 bound_to 7965
  139.5654  144.2055  152.1756 LP  0  0  0  0  0  0  0  0  0  0  0  0  # atno 17342 bound_to 10162
  140.1336  144.5266  150.6787 LP  0  0  0  0  0  0  0  0  0  0  0  0  # atno 17343 bound_to 10162
  156.6971  130.4612  149.5583 LP  0  0  0  0  0  0  0  0  0  0  0  0  # atno 17370 bound_to 10713
  156.1821  130.6506  151.0964 LP  0  0  0  0  0  0  0  0  0  0  0  0  # atno 17371 bound_to 10713
  140.2994  134.8176  157.4085 LP  0  0  0  0  0  0  0  0  0  0  0  0  # atno 17394 bound_to 11000
  140.1275  134.5138  155.8132 LP  0  0  0  0  0  0  0  0  0  0  0  0  # atno 17395 bound_to 11000

$$$$
