AV-unprocessed.smi:1328|AV-procd|sdf|5481|dock2
  -GOLD-   22720 5 53D 1   1.00000     0.00000
 Structure written by MMmdl.
 38 39  0  0  0  0  0  0  0  0  1 V2000
  150.4419  135.1397  156.0847 C   0  0  0  0  0  0  0  0  0  0  0  0
  150.6082  133.6478  156.0389 C   0  0  0  0  0  0  0  0  0  0  0  0
  151.1608  133.0179  157.0623 N   0  0  0  0  0  0  0  0  0  0  0  0
  151.1745  131.6633  156.7156 O   0  0  0  0  0  0  0  0  0  0  0  0
  150.6237  131.5299  155.4824 C   0  0  0  0  0  0  0  0  0  0  0  0
  150.5531  130.1479  154.9267 C   0  0  0  0  0  0  0  0  0  0  0  0
  150.2384  132.7497  154.9975 C   0  0  0  0  0  0  0  0  0  0  0  0
  149.5837  133.0766  153.6784 C   0  0  0  0  0  0  0  0  0  0  0  0
  148.1115  132.6493  153.6655 C   0  0  0  0  0  0  0  0  0  0  0  0
  147.3324  133.0406  154.5360 O   0  0  0  0  0  0  0  0  0  0  0  0
  147.7422  131.8501  152.6524 N   0  0  0  0  0  0  0  0  0  0  0  0
  146.3941  131.3366  152.4188 C   0  0  2  0  0  0  0  0  0  0  0  0
  146.4623  129.8030  152.3580 C   0  0  0  0  0  0  0  0  0  0  0  0
  145.8129  131.9482  151.1259 C   0  0  1  0  0  0  0  0  0  0  0  0
  144.3752  131.5375  150.8132 C   0  0  0  0  0  0  0  0  0  0  0  0
  143.9164  132.6293  149.8657 C   0  0  0  0  0  0  0  0  0  0  0  0
  144.7888  133.8289  150.2454 C   0  0  0  0  0  0  0  0  0  0  0  0
  145.6902  133.3589  151.2412 O   0  0  0  0  0  0  0  0  0  0  0  0
  149.3870  135.4126  156.1101 H   0  0  0  0  0  0  0  0  0  0  0  0
  150.8849  135.6079  155.2057 H   0  0  0  0  0  0  0  0  0  0  0  0
  150.9175  135.5741  156.9651 H   0  0  0  0  0  0  0  0  0  0  0  0
  150.5557  130.1665  153.8367 H   0  0  0  0  0  0  0  0  0  0  0  0
  149.6427  129.6469  155.2553 H   0  0  0  0  0  0  0  0  0  0  0  0
  151.4058  129.5524  155.2534 H   0  0  0  0  0  0  0  0  0  0  0  0
  149.6275  134.1463  153.4713 H   0  0  0  0  0  0  0  0  0  0  0  0
  150.1073  132.5878  152.8556 H   0  0  0  0  0  0  0  0  0  0  0  0
  148.4488  131.5849  151.9817 H   0  0  0  0  0  0  0  0  0  0  0  0
  145.7504  131.6053  153.2584 H   0  0  0  0  0  0  0  0  0  0  0  0
  145.4697  129.3643  152.2565 H   0  0  0  0  0  0  0  0  0  0  0  0
  146.9048  129.3937  153.2668 H   0  0  0  0  0  0  0  0  0  0  0  0
  147.0637  129.4650  151.5134 H   0  0  0  0  0  0  0  0  0  0  0  0
  146.4553  131.7209  150.2728 H   0  0  0  0  0  0  0  0  0  0  0  0
  144.3000  130.5416  150.3758 H   0  0  0  0  0  0  0  0  0  0  0  0
  143.7704  131.5577  151.7209 H   0  0  0  0  0  0  0  0  0  0  0  0
  144.1095  132.3399  148.8320 H   0  0  0  0  0  0  0  0  0  0  0  0
  142.8506  132.8376  149.9641 H   0  0  0  0  0  0  0  0  0  0  0  0
  145.3475  134.1917  149.3819 H   0  0  0  0  0  0  0  0  0  0  0  0
  144.1992  134.6565  150.6408 H   0  0  0  0  0  0  0  0  0  0  0  0
  1  2  1  0  0  0  0
  1 19  1  0  0  0  0
  1 20  1  0  0  0  0
  1 21  1  0  0  0  0
  2  7  1  0  0  0  0
  2  3  2  0  0  0  0
  3  4  1  0  0  0  0
  4  5  1  0  0  0  0
  5  6  1  0  0  0  0
  5  7  2  0  0  0  0
  6 22  1  0  0  0  0
  6 23  1  0  0  0  0
  6 24  1  0  0  0  0
  7  8  1  0  0  0  0
  8  9  1  0  0  0  0
  8 25  1  0  0  0  0
  8 26  1  0  0  0  0
  9 10  2  0  0  0  0
  9 11  1  0  0  0  0
 11 12  1  0  0  0  0
 11 27  1  0  0  0  0
 12 13  1  0  0  0  0
 12 14  1  0  0  0  0
 12 28  1  0  0  0  0
 13 29  1  0  0  0  0
 13 30  1  0  0  0  0
 13 31  1  0  0  0  0
 14 18  1  0  0  0  0
 14 15  1  0  0  0  0
 14 32  1  0  0  0  0
 15 16  1  0  0  0  0
 15 33  1  0  0  0  0
 15 34  1  0  0  0  0
 16 17  1  0  0  0  0
 16 35  1  0  0  0  0
 16 36  1  0  0  0  0
 17 18  1  0  0  0  0
 17 37  1  0  0  0  0
 17 38  1  0  0  0  0
M  END
> <s_m_source_file>
AV-unprocessed.smi

> <i_m_source_file_index>
1328

> <i_lp_mmshare_version>
43012

> <i_f3d_flags>
0

> <s_epik_input>
W0NIM11jMW5vYyhbQ0gzXSljMVtDSDJdQyg9TylbTkhdW0NASF0oW0NIM10pW0NAQEhdMltDSDJdW0NIMl1bQ0gyXU8y

> <s_epik_cmdline>
J2VwaWtfcHl0aG9uJywgJy1waCcsICc3LjAnLCAnLXRuJywgJzgnLCAnLW1hJywgJzIwMCcsICctbWV0YWxfYmluZGluZycsICctaW1hZScsICc8aW5maWxlLm1hZT4nLCAnLW9tYWUnLCAnPG91dGZpbGUubWFlPic=

> <r_lp_tautomer_probability>
1

> <r_epik_Ionization_Penalty>
2.66156e-08

> <r_epik_Ionization_Penalty_Charging>
0

> <r_epik_Ionization_Penalty_Neutral>
2.66156e-08

> <r_epik_State_Penalty>
-0

> <r_epik_Charging_Adjusted_Penalty>
0

> <i_epik_Tot_Q>
0

> <i_epik_Tot_abs_Q>
0

> <r_epik_Metal_State_Penalty>
-0

> <b_epik_Metal_Only>
0

> <s_lp_Force_Field>
OPLS_2005

> <r_lp_Energy>
12.7116

> <b_lp_Chiralities_Consistent>
1

> <s_lp_Variant>
AV-unprocessed.smi:1328-3

> <Gold.Version>
5.8.1

> <Gold.Id.Protein>
6NUR|6NUR_protein|mol2

> <Gold.PLP.Fitness>
39.5075

> <Gold.PLP.PLP>
-34.1017

> <Gold.PLP.part.hbond>
-2.0000

> <Gold.PLP.part.metal>
0.0000

> <Gold.PLP.part.buried>
-5.1260

> <Gold.PLP.part.nonpolar>
-27.3034

> <Gold.PLP.part.repulsive>
0.1581

> <Gold.PLP.ligand.clash>
0.0000

> <Gold.PLP.ligand.torsion>
0.2307

> <Gold.PLP.Chemscore.Hbond>
1.9200

> <Gold.PLP.Chemscore.CHOScore>
0.0000

> <Gold.PLP.Chemscore.Metal>
0.0000

> <Gold.Chemscore.Hbonds>
donor molecule, donor type, donor heavy atom, donor atom, acceptor molecule, acceptor atom, score
      L1  H    11    27       P1 10747  1.00
      P1  H  6896  6907       L1     3  0.58

> <Gold.PLP.Chemscore.Internal.Correction>
0.1073

> <Gold.Rescore>
     Score         DG    S(hbond)    S(metal)    S(lipo)     H(rot)  DE(clash)    DE(int)     intcor
     17.13     -17.44       1.79        0.00      84.25       1.52       0.04       0.27       ----

> <Gold.Chemscore.Fitness>
17.1328

> <Gold.Chemscore.DG>
-17.4398

> <Gold.Chemscore.ZeroCoef>
-5.4800

> <Gold.Chemscore.Hbond>
1.7913

> <Gold.Chemscore.Metal>
0.0000

> <Gold.Chemscore.Lipo>
84.2519

> <Gold.Chemscore.Internal_Hbond>
0.0000

> <Gold.Chemscore.DEClash>
0.0368

> <Gold.Chemscore.DEInternal>
0.2702

> <Gold.Chemscore.Rot>
1.5159

> <Gold.Chemscore.Internal.Correction>
   9.000000E+99

> <Gold.Chemscore.Hbonds>
donor molecule, donor type, donor heavy atom, donor atom, acceptor molecule, acceptor atom, score
      L1  H    11    27       P1 10747  0.96
      P1  H  6896  6907       L1     3  0.53

> <Gold.Chemscore.Hbond.Weighted>
-5.9831

> <Gold.Chemscore.Metal.Weighted>
-0.0000

> <Gold.Chemscore.Lipo.Weighted>
-9.8575

> <Gold.Chemscore.Internal_Hbond.Weighted>
0.0000

> <Gold.Chemscore.DEClash.Weighted>
0.0368

> <Gold.Chemscore.DEInternal.Weighted>
0.2702

> <Gold.Chemscore.Rot.Weighted>
3.8807

> <Gold.Chemscore.Internal.Correction.Weighted>
   9.000000E+99

> <Gold.Protein.RotatedTorsions>
[ 6907 6896 6895 6894 ] final -151.65 input  -60.11 | X-H torsion
[ 7974 7965 7964 7962 ] final   44.19 input  175.53 | X-H torsion
[ 8008 7997 7996 7995 ] final -109.64 input   59.86 | X-H torsion
[ 10167 10162 10161 10158 ] final  -47.65 input  -65.29 | X-H torsion
[ 10718 10713 10712 10709 ] final  131.74 input   66.30 | X-H torsion
[ 10763 10752 10751 10750 ] final -112.03 input  -60.55 | X-H torsion
[ 11005 11000 10999 10996 ] final -158.19 input  -57.11 | X-H torsion

> <Gold.Protein.ActiveResidues>
 VAL166  LYS551  ARG553  GLY616  TRP617  ASP618  TYR619  PRO620  LYS621  CYS622 
 ASP623  PHE694  ASN695  SER759  ASP760  ASP761  ALA762  ILE779  LEU786  VAL792 
 PHE793  MET794  SER795  GLU796  ALA797  LYS798  CYS799  TRP800  GLU811  SER814 

> <Gold.Protein.RotatedAtoms>
  151.2163  133.4527  159.2599 H   0  0  0  0  0  0  0  0  0  0  0  0  # atno 6907 bound_to 6896
  151.0928  134.9926  159.8421 H   0  0  0  0  0  0  0  0  0  0  0  0  # atno 6908 bound_to 6896
  152.5436  134.2095  159.8797 H   0  0  0  0  0  0  0  0  0  0  0  0  # atno 6909 bound_to 6896
  146.0590  139.5102  142.9670 H   0  0  0  0  0  0  0  0  0  0  0  0  # atno 7974 bound_to 7965
  154.9625  140.0399  157.2196 H   0  0  0  0  0  0  0  0  0  0  0  0  # atno 8008 bound_to 7997
  154.7876  140.2830  155.5994 H   0  0  0  0  0  0  0  0  0  0  0  0  # atno 8009 bound_to 7997
  156.2945  140.2579  156.2716 H   0  0  0  0  0  0  0  0  0  0  0  0  # atno 8010 bound_to 7997
  140.6766  143.2775  151.3957 H   0  0  0  0  0  0  0  0  0  0  0  0  # atno 10167 bound_to 10162
  157.4938  131.1091  150.9520 H   0  0  0  0  0  0  0  0  0  0  0  0  # atno 10718 bound_to 10713
  154.8330  135.4505  154.1131 H   0  0  0  0  0  0  0  0  0  0  0  0  # atno 10763 bound_to 10752
  153.2387  135.6914  153.7813 H   0  0  0  0  0  0  0  0  0  0  0  0  # atno 10764 bound_to 10752
  153.7169  135.3348  155.3234 H   0  0  0  0  0  0  0  0  0  0  0  0  # atno 10765 bound_to 10752
  140.6563  134.4397  157.5235 H   0  0  0  0  0  0  0  0  0  0  0  0  # atno 11005 bound_to 11000
  145.6593  141.0244  143.1717 LP  0  0  0  0  0  0  0  0  0  0  0  0  # atno 17320 bound_to 7965
  144.7164  139.8182  143.7397 LP  0  0  0  0  0  0  0  0  0  0  0  0  # atno 17321 bound_to 7965
  139.6061  144.1193  152.2251 LP  0  0  0  0  0  0  0  0  0  0  0  0  # atno 17342 bound_to 10162
  140.0593  144.5870  150.7275 LP  0  0  0  0  0  0  0  0  0  0  0  0  # atno 17343 bound_to 10162
  157.0213  130.5675  149.5332 LP  0  0  0  0  0  0  0  0  0  0  0  0  # atno 17370 bound_to 10713
  156.0189  130.5283  150.8216 LP  0  0  0  0  0  0  0  0  0  0  0  0  # atno 17371 bound_to 10713
  139.9028  134.8516  156.1825 LP  0  0  0  0  0  0  0  0  0  0  0  0  # atno 17394 bound_to 11000
  141.0499  133.6894  156.1752 LP  0  0  0  0  0  0  0  0  0  0  0  0  # atno 17395 bound_to 11000

$$$$
