AV-unprocessed.smi:813|AV-procd|sdf|3817|dock5
  -GOLD-   22720 1253D 1   1.00000     0.00000
 Structure written by MMmdl.
 36 37  0  0  0  0  0  0  0  0  1 V2000
  149.4676  141.7961  154.7190 C   0  0  0  0  0  0  0  0  0  0  0  0
  149.3852  141.3552  156.1897 C   0  0  2  0  0  0  0  0  0  0  0  0
  148.2284  142.0127  156.7969 N   0  0  0  0  0  0  0  0  0  0  0  0
  147.3951  141.4492  157.6847 C   0  0  0  0  0  0  0  0  0  0  0  0
  147.4994  140.2833  158.0675 O   0  0  0  0  0  0  0  0  0  0  0  0
  146.4559  142.3213  158.0907 N   0  0  0  0  0  0  0  0  0  0  0  0
  145.4132  142.1173  159.0329 C   0  0  0  0  0  0  0  0  0  0  0  0
  145.4481  141.1775  159.9908 N   0  0  0  0  0  0  0  0  0  0  0  0
  144.3032  141.1942  160.7771 N   0  0  0  0  0  0  0  0  0  0  0  0
  143.4512  142.1444  160.3817 C   0  0  0  0  0  0  0  0  0  0  0  0
  143.9636  143.1113  159.0093 S   0  0  0  0  0  0  0  0  0  0  0  0
  150.6844  141.7797  156.8933 C   0  0  0  0  0  0  0  0  0  0  0  0
  151.5796  140.9603  157.1079 O   0  0  0  0  0  0  0  0  0  0  0  0
  150.7652  143.0687  157.2556 N   0  0  0  0  0  0  0  0  0  0  0  0
  151.9144  143.6843  157.9126 C   0  0  0  0  0  0  0  0  0  0  0  0
  152.4655  142.7618  159.0146 C   0  0  0  0  0  0  0  0  0  0  0  0
  152.0621  143.4059  160.3408 C   0  0  0  0  0  0  0  0  0  0  0  0
  152.0615  144.9017  160.0414 C   0  0  0  0  0  0  0  0  0  0  0  0
  151.5251  145.0033  158.6122 C   0  0  0  0  0  0  0  0  0  0  0  0
  150.3181  141.3362  154.2140 H   0  0  0  0  0  0  0  0  0  0  0  0
  149.5697  142.8785  154.6240 H   0  0  0  0  0  0  0  0  0  0  0  0
  148.5704  141.5008  154.1742 H   0  0  0  0  0  0  0  0  0  0  0  0
  149.2652  140.2710  156.2410 H   0  0  0  0  0  0  0  0  0  0  0  0
  148.0718  142.9765  156.5419 H   0  0  0  0  0  0  0  0  0  0  0  0
  146.4997  143.2456  157.6882 H   0  0  0  0  0  0  0  0  0  0  0  0
  142.5144  142.2773  160.9024 H   0  0  0  0  0  0  0  0  0  0  0  0
  149.9838  143.6716  157.0428 H   0  0  0  0  0  0  0  0  0  0  0  0
  152.7028  143.8636  157.1790 H   0  0  0  0  0  0  0  0  0  0  0  0
  152.1162  141.7315  158.9341 H   0  0  0  0  0  0  0  0  0  0  0  0
  153.5540  142.7355  158.9478 H   0  0  0  0  0  0  0  0  0  0  0  0
  151.0561  143.0852  160.6153 H   0  0  0  0  0  0  0  0  0  0  0  0
  152.7328  143.1405  161.1583 H   0  0  0  0  0  0  0  0  0  0  0  0
  151.4664  145.4730  160.7543 H   0  0  0  0  0  0  0  0  0  0  0  0
  153.0828  145.2830  160.0784 H   0  0  0  0  0  0  0  0  0  0  0  0
  151.9197  145.8760  158.0910 H   0  0  0  0  0  0  0  0  0  0  0  0
  150.4401  145.1152  158.6476 H   0  0  0  0  0  0  0  0  0  0  0  0
  1  2  1  0  0  0  0
  1 20  1  0  0  0  0
  1 21  1  0  0  0  0
  1 22  1  0  0  0  0
  2  3  1  0  0  0  0
  2 12  1  0  0  0  0
  2 23  1  0  0  0  0
  3  4  1  0  0  0  0
  3 24  1  0  0  0  0
  4  5  2  0  0  0  0
  4  6  1  0  0  0  0
  6  7  1  0  0  0  0
  6 25  1  0  0  0  0
  7 11  1  0  0  0  0
  7  8  2  0  0  0  0
  8  9  1  0  0  0  0
  9 10  2  0  0  0  0
 10 11  1  0  0  0  0
 10 26  1  0  0  0  0
 12 13  2  0  0  0  0
 12 14  1  0  0  0  0
 14 15  1  0  0  0  0
 14 27  1  0  0  0  0
 15 19  1  0  0  0  0
 15 16  1  0  0  0  0
 15 28  1  0  0  0  0
 16 17  1  0  0  0  0
 16 29  1  0  0  0  0
 16 30  1  0  0  0  0
 17 18  1  0  0  0  0
 17 31  1  0  0  0  0
 17 32  1  0  0  0  0
 18 19  1  0  0  0  0
 18 33  1  0  0  0  0
 18 34  1  0  0  0  0
 19 35  1  0  0  0  0
 19 36  1  0  0  0  0
M  END
> <s_m_source_file>
AV-unprocessed.smi

> <i_m_source_file_index>
813

> <i_lp_mmshare_version>
43012

> <i_f3d_flags>
0

> <s_epik_input>
W0NIMl0xW0NIMl1bQ0gyXVtDSDJdW0NIXTFbTkhdQyg9TylbQ0BIXShbQ0gzXSlbTkhdQyg9TylbTkhdYzJubltjSF1zMg==

> <s_epik_cmdline>
J2VwaWtfcHl0aG9uJywgJy1waCcsICc3LjAnLCAnLXRuJywgJzgnLCAnLW1hJywgJzIwMCcsICctbWV0YWxfYmluZGluZycsICctaW1hZScsICc8aW5maWxlLm1hZT4nLCAnLW9tYWUnLCAnPG91dGZpbGUubWFlPic=

> <r_lp_tautomer_probability>
1

> <r_epik_Ionization_Penalty>
0.00321247

> <r_epik_Ionization_Penalty_Charging>
0

> <r_epik_Ionization_Penalty_Neutral>
0.00321247

> <r_epik_State_Penalty>
-0

> <r_epik_Charging_Adjusted_Penalty>
0

> <i_epik_Tot_Q>
0

> <i_epik_Tot_abs_Q>
0

> <r_epik_Metal_State_Penalty>
0.363968

> <b_epik_Metal_Only>
0

> <s_lp_Force_Field>
OPLS_2005

> <r_lp_Energy>
16.3209

> <b_lp_Chiralities_Consistent>
1

> <s_lp_Variant>
AV-unprocessed.smi:813-1

> <Gold.Version>
5.8.1

> <Gold.Id.Protein>
6NUR|6NUR_protein|mol2

> <Gold.PLP.Fitness>
39.2414

> <Gold.PLP.PLP>
-32.6423

> <Gold.PLP.part.hbond>
-4.0000

> <Gold.PLP.part.metal>
0.0000

> <Gold.PLP.part.buried>
-3.4759

> <Gold.PLP.part.nonpolar>
-23.1134

> <Gold.PLP.part.repulsive>
0.1013

> <Gold.PLP.ligand.clash>
0.0000

> <Gold.PLP.ligand.torsion>
1.2091

> <Gold.PLP.Chemscore.Hbond>
3.0000

> <Gold.PLP.Chemscore.CHOScore>
0.0000

> <Gold.PLP.Chemscore.Metal>
0.0000

> <Gold.Chemscore.Hbonds>
donor molecule, donor type, donor heavy atom, donor atom, acceptor molecule, acceptor atom, score
      L1  H     3    24       P1  8028  0.78
      L1  H    14    27       P1  8028  0.97
      P1  H  6934  6946       L1     8  0.86

> <Gold.PLP.Chemscore.Internal.Correction>
0.0173

> <Gold.Rescore>
     Score         DG    S(hbond)    S(metal)    S(lipo)     H(rot)  DE(clash)    DE(int)     intcor
     14.20     -17.90       2.29        0.00      78.80       1.74       0.22       3.48       ----

> <Gold.Chemscore.Fitness>
14.2026

> <Gold.Chemscore.DG>
-17.9013

> <Gold.Chemscore.ZeroCoef>
-5.4800

> <Gold.Chemscore.Hbond>
2.2947

> <Gold.Chemscore.Metal>
0.0000

> <Gold.Chemscore.Lipo>
78.8017

> <Gold.Chemscore.Internal_Hbond>
0.0000

> <Gold.Chemscore.DEClash>
0.2178

> <Gold.Chemscore.DEInternal>
3.4809

> <Gold.Chemscore.Rot>
1.7433

> <Gold.Chemscore.Internal.Correction>
   9.000000E+99

> <Gold.Chemscore.Hbonds>
donor molecule, donor type, donor heavy atom, donor atom, acceptor molecule, acceptor atom, score
      L1  H     3    24       P1  8028  0.30
      L1  H    14    27       P1  8028  0.84
      P1  H  6934  6946       L1     8  0.78

> <Gold.Chemscore.Hbond.Weighted>
-7.6643

> <Gold.Chemscore.Metal.Weighted>
-0.0000

> <Gold.Chemscore.Lipo.Weighted>
-9.2198

> <Gold.Chemscore.Internal_Hbond.Weighted>
0.0000

> <Gold.Chemscore.DEClash.Weighted>
0.2178

> <Gold.Chemscore.DEInternal.Weighted>
3.4809

> <Gold.Chemscore.Rot.Weighted>
4.4628

> <Gold.Chemscore.Internal.Correction.Weighted>
   9.000000E+99

> <Gold.Protein.RotatedTorsions>
[ 6907 6896 6895 6894 ] final -170.42 input  -60.11 | X-H torsion
[ 7974 7965 7964 7962 ] final -107.96 input  175.53 | X-H torsion
[ 8008 7997 7996 7995 ] final -164.19 input   59.86 | X-H torsion
[ 10167 10162 10161 10158 ] final -170.13 input  -65.29 | X-H torsion
[ 10718 10713 10712 10709 ] final  -22.79 input   66.30 | X-H torsion
[ 10763 10752 10751 10750 ] final   -2.62 input  -60.55 | X-H torsion
[ 11005 11000 10999 10996 ] final -145.74 input  -57.11 | X-H torsion

> <Gold.Protein.ActiveResidues>
 VAL166  LYS551  ARG553  GLY616  TRP617  ASP618  TYR619  PRO620  LYS621  CYS622 
 ASP623  PHE694  ASN695  SER759  ASP760  ASP761  ALA762  ILE779  LEU786  VAL792 
 PHE793  MET794  SER795  GLU796  ALA797  LYS798  CYS799  TRP800  GLU811  SER814 

> <Gold.Protein.RotatedAtoms>
  151.5075  133.3491  159.2879 H   0  0  0  0  0  0  0  0  0  0  0  0  # atno 6907 bound_to 6896
  150.8733  134.8114  159.7182 H   0  0  0  0  0  0  0  0  0  0  0  0  # atno 6908 bound_to 6896
  152.4714  134.4962  159.9762 H   0  0  0  0  0  0  0  0  0  0  0  0  # atno 6909 bound_to 6896
  145.1988  140.9047  143.3381 H   0  0  0  0  0  0  0  0  0  0  0  0  # atno 7974 bound_to 7965
  155.8320  140.0935  157.1786 H   0  0  0  0  0  0  0  0  0  0  0  0  # atno 8008 bound_to 7997
  154.3980  140.1417  156.3686 H   0  0  0  0  0  0  0  0  0  0  0  0  # atno 8009 bound_to 7997
  155.8156  140.3448  155.5486 H   0  0  0  0  0  0  0  0  0  0  0  0  # atno 8010 bound_to 7997
  139.5880  144.1275  152.1600 H   0  0  0  0  0  0  0  0  0  0  0  0  # atno 10167 bound_to 10162
  156.4998  130.4585  149.6707 H   0  0  0  0  0  0  0  0  0  0  0  0  # atno 10718 bound_to 10713
  153.3604  135.6990  153.6716 H   0  0  0  0  0  0  0  0  0  0  0  0  # atno 10763 bound_to 10752
  153.5407  135.3573  155.2717 H   0  0  0  0  0  0  0  0  0  0  0  0  # atno 10764 bound_to 10752
  154.8667  135.4203  154.2860 H   0  0  0  0  0  0  0  0  0  0  0  0  # atno 10765 bound_to 10752
  140.7891  134.2989  157.5019 H   0  0  0  0  0  0  0  0  0  0  0  0  # atno 11005 bound_to 11000
  144.9968  139.3636  143.6187 LP  0  0  0  0  0  0  0  0  0  0  0  0  # atno 17320 bound_to 7965
  146.3422  139.9174  142.8771 LP  0  0  0  0  0  0  0  0  0  0  0  0  # atno 17321 bound_to 7965
  140.0843  144.5674  150.7100 LP  0  0  0  0  0  0  0  0  0  0  0  0  # atno 17342 bound_to 10162
  140.7149  143.2536  151.4466 LP  0  0  0  0  0  0  0  0  0  0  0  0  # atno 17343 bound_to 10162
  156.3344  130.7348  151.2283 LP  0  0  0  0  0  0  0  0  0  0  0  0  # atno 17370 bound_to 10713
  157.7464  131.0421  150.4678 LP  0  0  0  0  0  0  0  0  0  0  0  0  # atno 17371 bound_to 10713
  139.8733  134.9364  156.3659 LP  0  0  0  0  0  0  0  0  0  0  0  0  # atno 17394 bound_to 11000
  140.9407  133.7516  156.0143 LP  0  0  0  0  0  0  0  0  0  0  0  0  # atno 17395 bound_to 11000

$$$$
