AV-unprocessed.smi:2981|AV-procd|sdf|11375|dock1
  -GOLD-   2272016293D 1   1.00000     0.00000
 Structure written by MMmdl.
 31 32  0  0  0  0  0  0  0  0  1 V2000
  149.6642  136.3538  156.6274 O   0  0  0  0  0  0  0  0  0  0  0  0
  149.2742  136.0557  155.4975 C   0  0  0  0  0  0  0  0  0  0  0  0
  148.3063  134.8826  155.2858 C   0  0  0  0  0  0  0  0  0  0  0  0
  148.9862  133.5829  155.1815 N   0  0  0  0  0  0  0  0  0  0  0  0
  148.7187  132.8977  154.0092 N   0  0  0  0  0  0  0  0  0  0  0  0
  149.2755  131.7545  153.8016 C   0  0  0  0  0  0  0  0  0  0  0  0
  150.1758  131.1507  154.7590 C   0  0  0  0  0  0  0  0  0  0  0  0
  150.8934  129.6142  154.4250 Cl  0  0  0  0  0  0  0  0  0  0  0  0
  150.4262  131.8276  155.9079 C   0  0  0  0  0  0  0  0  0  0  0  0
  151.4916  131.1691  157.1020 Cl  0  0  0  0  0  0  0  0  0  0  0  0
  149.8088  133.1333  156.1790 C   0  0  0  0  0  0  0  0  0  0  0  0
  150.0079  133.7778  157.2097 O   0  0  0  0  0  0  0  0  0  0  0  0
  149.6666  136.7041  154.3907 N   0  0  0  0  0  0  0  0  0  0  0  0
  150.5728  137.8476  154.3678 C   0  0  1  0  0  0  0  0  0  0  0  0
  149.9304  139.0809  155.0294 C   0  0  0  0  0  0  0  0  0  0  0  0
  151.0254  140.1208  155.2971 C   0  0  0  0  0  0  0  0  0  0  0  0
  152.5637  139.1721  155.6050 S   0  0  0  0  0  0  0  0  0  0  0  0
  153.5859  139.5953  154.6359 O   0  0  0  0  0  0  0  0  0  0  0  0
  152.8500  139.1514  157.0475 O   0  0  0  0  0  0  0  0  0  0  0  0
  151.8863  137.5449  155.1066 C   0  0  0  0  0  0  0  0  0  0  0  0
  147.5772  134.8550  156.0982 H   0  0  0  0  0  0  0  0  0  0  0  0
  147.7285  135.0821  154.3814 H   0  0  0  0  0  0  0  0  0  0  0  0
  149.0974  131.1806  152.8922 H   0  0  0  0  0  0  0  0  0  0  0  0
  149.3043  136.3897  153.5022 H   0  0  0  0  0  0  0  0  0  0  0  0
  150.8060  138.1084  153.3336 H   0  0  0  0  0  0  0  0  0  0  0  0
  149.1258  139.4954  154.4212 H   0  0  0  0  0  0  0  0  0  0  0  0
  149.4893  138.7877  155.9833 H   0  0  0  0  0  0  0  0  0  0  0  0
  151.1874  140.7458  154.4185 H   0  0  0  0  0  0  0  0  0  0  0  0
  150.8024  140.7659  156.1471 H   0  0  0  0  0  0  0  0  0  0  0  0
  151.7064  136.9676  156.0143 H   0  0  0  0  0  0  0  0  0  0  0  0
  152.6092  137.0087  154.4913 H   0  0  0  0  0  0  0  0  0  0  0  0
  1  2  2  0  0  0  0
  2  3  1  0  0  0  0
  2 13  1  0  0  0  0
  3  4  1  0  0  0  0
  3 21  1  0  0  0  0
  3 22  1  0  0  0  0
  4 11  1  0  0  0  0
  4  5  1  0  0  0  0
  5  6  2  0  0  0  0
  6  7  1  0  0  0  0
  6 23  1  0  0  0  0
  7  8  1  0  0  0  0
  7  9  2  0  0  0  0
  9 10  1  0  0  0  0
  9 11  1  0  0  0  0
 11 12  2  0  0  0  0
 13 14  1  0  0  0  0
 13 24  1  0  0  0  0
 14 20  1  0  0  0  0
 14 15  1  0  0  0  0
 14 25  1  0  0  0  0
 15 16  1  0  0  0  0
 15 26  1  0  0  0  0
 15 27  1  0  0  0  0
 16 17  1  0  0  0  0
 16 28  1  0  0  0  0
 16 29  1  0  0  0  0
 17 18  2  0  0  0  0
 17 19  2  0  0  0  0
 17 20  1  0  0  0  0
 20 30  1  0  0  0  0
 20 31  1  0  0  0  0
M  END
> <s_m_source_file>
AV-unprocessed.smi

> <i_m_source_file_index>
2981

> <i_lp_mmshare_version>
43012

> <i_f3d_flags>
0

> <s_epik_input>
Tz1TMSg9TylbQ0gyXVtDSDJdW0NASF0oW0NIMl0xKVtOSF1DKD1PKVtDSDJdbjJuW2NIXWMoQ2wpYyhDbCljMj1P

> <s_epik_cmdline>
J2VwaWtfcHl0aG9uJywgJy1waCcsICc3LjAnLCAnLXRuJywgJzgnLCAnLW1hJywgJzIwMCcsICctbWV0YWxfYmluZGluZycsICctaW1hZScsICc8aW5maWxlLm1hZT4nLCAnLW9tYWUnLCAnPG91dGZpbGUubWFlPic=

> <r_lp_tautomer_probability>
1

> <r_epik_Ionization_Penalty>
1.07216e-07

> <r_epik_Ionization_Penalty_Charging>
2.33395e-11

> <r_epik_Ionization_Penalty_Neutral>
1.07193e-07

> <r_epik_State_Penalty>
-0

> <r_epik_Charging_Adjusted_Penalty>
2.33395e-11

> <i_epik_Tot_Q>
0

> <i_epik_Tot_abs_Q>
0

> <r_epik_Metal_State_Penalty>
-0

> <b_epik_Metal_Only>
0

> <s_lp_Force_Field>
OPLS_2005

> <r_lp_Energy>
17.277

> <b_lp_Chiralities_Consistent>
1

> <s_lp_Variant>
AV-unprocessed.smi:2981-2

> <Gold.Version>
5.8.1

> <Gold.Id.Protein>
6NUR|6NUR_protein|mol2

> <Gold.PLP.Fitness>
40.5656

> <Gold.PLP.PLP>
-29.5308

> <Gold.PLP.part.hbond>
-4.7337

> <Gold.PLP.part.metal>
0.0000

> <Gold.PLP.part.buried>
0.5738

> <Gold.PLP.part.nonpolar>
-24.9725

> <Gold.PLP.part.repulsive>
0.1756

> <Gold.PLP.ligand.clash>
0.0000

> <Gold.PLP.ligand.torsion>
0.4102

> <Gold.PLP.Chemscore.Hbond>
3.0890

> <Gold.PLP.Chemscore.CHOScore>
0.8594

> <Gold.PLP.Chemscore.Metal>
0.0000

> <Gold.Chemscore.Hbonds>
donor molecule, donor type, donor heavy atom, donor atom, acceptor molecule, acceptor atom, score
      L1  H    13    24       P1  7948  1.00
      P1  H  6896  6907       L1    12  0.60
      P1  H  7997  8008       L1    18  0.75
      P1  H  7997  8010       L1    19  0.75
      L1  C     6    23       P1 10747  0.81

> <Gold.PLP.Chemscore.Internal.Correction>
0.0098

> <Gold.Rescore>
     Score         DG    S(hbond)    S(metal)    S(lipo)     H(rot)  DE(clash)    DE(int)     intcor
     12.35     -16.59       2.73        0.00      54.32       1.70       0.09       4.14       ----

> <Gold.Chemscore.Fitness>
12.3522

> <Gold.Chemscore.DG>
-16.5852

> <Gold.Chemscore.ZeroCoef>
-5.4800

> <Gold.Chemscore.Hbond>
2.7287

> <Gold.Chemscore.Metal>
0.0000

> <Gold.Chemscore.Lipo>
54.3232

> <Gold.Chemscore.Internal_Hbond>
0.0000

> <Gold.Chemscore.DEClash>
0.0884

> <Gold.Chemscore.DEInternal>
4.1446

> <Gold.Chemscore.Rot>
1.7049

> <Gold.Chemscore.Internal.Correction>
   9.000000E+99

> <Gold.Chemscore.Hbonds>
donor molecule, donor type, donor heavy atom, donor atom, acceptor molecule, acceptor atom, score
      L1  H    13    24       P1  7948  0.88
      P1  H  6896  6907       L1    12  0.57
      P1  H  7997  8008       L1    18  0.59
      P1  H  7997  8010       L1    19  0.18

> <Gold.Chemscore.Hbond.Weighted>
-9.1140

> <Gold.Chemscore.Metal.Weighted>
-0.0000

> <Gold.Chemscore.Lipo.Weighted>
-6.3558

> <Gold.Chemscore.Internal_Hbond.Weighted>
0.0000

> <Gold.Chemscore.DEClash.Weighted>
0.0884

> <Gold.Chemscore.DEInternal.Weighted>
4.1446

> <Gold.Chemscore.Rot.Weighted>
4.3646

> <Gold.Chemscore.Internal.Correction.Weighted>
   9.000000E+99

> <Gold.Protein.RotatedTorsions>
[ 6907 6896 6895 6894 ] final -121.93 input  -60.11 | X-H torsion
[ 7974 7965 7964 7962 ] final  -25.55 input  175.53 | X-H torsion
[ 8008 7997 7996 7995 ] final   27.35 input   59.86 | X-H torsion
[ 10167 10162 10161 10158 ] final -115.94 input  -65.29 | X-H torsion
[ 10718 10713 10712 10709 ] final  -84.55 input   66.30 | X-H torsion
[ 10763 10752 10751 10750 ] final -129.21 input  -60.55 | X-H torsion
[ 11005 11000 10999 10996 ] final -127.82 input  -57.11 | X-H torsion

> <Gold.Protein.ActiveResidues>
 VAL166  LYS551  ARG553  GLY616  TRP617  ASP618  TYR619  PRO620  LYS621  CYS622 
 ASP623  PHE694  ASN695  SER759  ASP760  ASP761  ALA762  ILE779  LEU786  VAL792 
 PHE793  MET794  SER795  GLU796  ALA797  LYS798  CYS799  TRP800  GLU811  SER814 

> <Gold.Protein.RotatedAtoms>
  150.8529  133.7759  159.3018 H   0  0  0  0  0  0  0  0  0  0  0  0  # atno 6907 bound_to 6896
  151.5426  135.1066  159.9939 H   0  0  0  0  0  0  0  0  0  0  0  0  # atno 6908 bound_to 6896
  152.4567  133.7694  159.6846 H   0  0  0  0  0  0  0  0  0  0  0  0  # atno 6909 bound_to 6896
  146.1484  140.4901  142.8622 H   0  0  0  0  0  0  0  0  0  0  0  0  # atno 7974 bound_to 7965
  155.0416  140.3170  155.4722 H   0  0  0  0  0  0  0  0  0  0  0  0  # atno 8008 bound_to 7997
  156.2853  140.2162  156.5483 H   0  0  0  0  0  0  0  0  0  0  0  0  # atno 8009 bound_to 7997
  154.7285  140.0483  157.0692 H   0  0  0  0  0  0  0  0  0  0  0  0  # atno 8010 bound_to 7997
  140.0846  143.4755  152.1905 H   0  0  0  0  0  0  0  0  0  0  0  0  # atno 10167 bound_to 10162
  156.0005  130.4702  150.4427 H   0  0  0  0  0  0  0  0  0  0  0  0  # atno 10718 bound_to 10713
  154.8757  135.3903  154.3883 H   0  0  0  0  0  0  0  0  0  0  0  0  # atno 10763 bound_to 10752
  153.4622  135.7029  153.6048 H   0  0  0  0  0  0  0  0  0  0  0  0  # atno 10764 bound_to 10752
  153.4542  135.3827  155.2270 H   0  0  0  0  0  0  0  0  0  0  0  0  # atno 10765 bound_to 10752
  140.9568  134.0991  157.4009 H   0  0  0  0  0  0  0  0  0  0  0  0  # atno 11005 bound_to 11000
  144.7874  140.5963  143.6564 LP  0  0  0  0  0  0  0  0  0  0  0  0  # atno 17320 bound_to 7965
  145.4882  139.1490  143.3724 LP  0  0  0  0  0  0  0  0  0  0  0  0  # atno 17321 bound_to 7965
  139.5759  144.7487  151.3766 LP  0  0  0  0  0  0  0  0  0  0  0  0  # atno 17342 bound_to 10162
  140.7060  143.7513  150.7483 LP  0  0  0  0  0  0  0  0  0  0  0  0  # atno 17343 bound_to 10162
  157.2467  131.0537  151.2404 LP  0  0  0  0  0  0  0  0  0  0  0  0  # atno 17370 bound_to 10713
  157.3568  130.7110  149.6476 LP  0  0  0  0  0  0  0  0  0  0  0  0  # atno 17371 bound_to 10713
  139.8865  135.0081  156.6500 LP  0  0  0  0  0  0  0  0  0  0  0  0  # atno 17394 bound_to 11000
  140.7525  133.8885  155.8357 LP  0  0  0  0  0  0  0  0  0  0  0  0  # atno 17395 bound_to 11000

$$$$
