AV-unprocessed.smi:2909|AV-procd|sdf|11171|dock9
  -GOLD-   2272016 63D 1   1.00000     0.00000
 Structure written by MMmdl.
 44 45  0  0  0  0  0  0  0  0  1 V2000
  149.4585  134.0327  157.1012 C   0  0  0  0  0  0  0  0  0  0  0  0
  150.2257  135.1215  156.4314 C   0  0  0  0  0  0  0  0  0  0  0  0
  149.8223  136.1461  155.6224 C   0  0  0  0  0  0  0  0  0  0  0  0
  151.0258  136.8469  155.3118 C   0  0  0  0  0  0  0  0  0  0  0  0
  151.1904  138.0728  154.4536 C   0  0  0  0  0  0  0  0  0  0  0  0
  151.9986  139.1322  155.2032 C   0  0  0  0  0  0  0  0  0  0  0  0
  153.0104  139.6113  154.6913 O   0  0  0  0  0  0  0  0  0  0  0  0
  151.5450  139.4838  156.4170 N   0  0  0  0  0  0  0  0  0  0  0  0
  152.1812  140.4484  157.3081 C   0  0  2  0  0  0  0  0  0  0  0  0
  152.3876  139.8391  158.7053 C   0  0  0  0  0  0  0  0  0  0  0  0
  152.9905  140.8597  159.6831 C   0  0  0  0  0  0  0  0  0  0  0  0
  152.1434  142.1514  159.7970 C   0  0  1  0  0  0  0  0  0  0  0  0
  152.7744  143.1866  160.7748 C   0  0  0  0  0  0  0  0  0  0  0  0
  153.0125  142.6062  162.1827 C   0  0  0  0  0  0  0  0  0  0  0  0
  151.9359  144.4729  160.9065 C   0  0  0  0  0  0  0  0  0  0  0  0
  151.9204  142.7363  158.3801 C   0  0  0  0  0  0  0  0  0  0  0  0
  151.3140  141.7118  157.4079 C   0  0  0  0  0  0  0  0  0  0  0  0
  152.0899  136.2952  155.8786 N   0  0  0  0  0  0  0  0  0  0  0  0
  151.5895  135.2482  156.5597 N   0  0  0  0  0  0  0  0  0  0  0  0
  152.1834  134.6358  157.1010 H   0  0  0  0  0  0  0  0  0  0  0  0
  148.5187  133.8434  156.5821 H   0  0  0  0  0  0  0  0  0  0  0  0
  149.2268  134.3020  158.1316 H   0  0  0  0  0  0  0  0  0  0  0  0
  150.0282  133.1032  157.1136 H   0  0  0  0  0  0  0  0  0  0  0  0
  148.8150  136.3672  155.3017 H   0  0  0  0  0  0  0  0  0  0  0  0
  151.6963  137.8300  153.5180 H   0  0  0  0  0  0  0  0  0  0  0  0
  150.2162  138.4797  154.1804 H   0  0  0  0  0  0  0  0  0  0  0  0
  150.7065  139.0355  156.7570 H   0  0  0  0  0  0  0  0  0  0  0  0
  153.1515  140.7322  156.8958 H   0  0  0  0  0  0  0  0  0  0  0  0
  151.4344  139.4818  159.0976 H   0  0  0  0  0  0  0  0  0  0  0  0
  153.0403  138.9674  158.6424 H   0  0  0  0  0  0  0  0  0  0  0  0
  153.0837  140.3722  160.6525 H   0  0  0  0  0  0  0  0  0  0  0  0
  154.0029  141.1111  159.3644 H   0  0  0  0  0  0  0  0  0  0  0  0
  151.1665  141.8719  160.1948 H   0  0  0  0  0  0  0  0  0  0  0  0
  153.7478  143.4774  160.3776 H   0  0  0  0  0  0  0  0  0  0  0  0
  152.0924  142.2021  162.6061 H   0  0  0  0  0  0  0  0  0  0  0  0
  153.3813  143.3715  162.8665 H   0  0  0  0  0  0  0  0  0  0  0  0
  153.7599  141.8137  162.1787 H   0  0  0  0  0  0  0  0  0  0  0  0
  150.9104  144.2498  161.2024 H   0  0  0  0  0  0  0  0  0  0  0  0
  151.9051  145.0385  159.9760 H   0  0  0  0  0  0  0  0  0  0  0  0
  152.3571  145.1418  161.6575 H   0  0  0  0  0  0  0  0  0  0  0  0
  151.2491  143.5931  158.4173 H   0  0  0  0  0  0  0  0  0  0  0  0
  152.8671  143.1009  157.9795 H   0  0  0  0  0  0  0  0  0  0  0  0
  151.2024  142.1655  156.4223 H   0  0  0  0  0  0  0  0  0  0  0  0
  150.3095  141.4479  157.7421 H   0  0  0  0  0  0  0  0  0  0  0  0
  1  2  1  0  0  0  0
  1 21  1  0  0  0  0
  1 22  1  0  0  0  0
  1 23  1  0  0  0  0
  2 19  1  0  0  0  0
  2  3  2  0  0  0  0
  3  4  1  0  0  0  0
  3 24  1  0  0  0  0
  4  5  1  0  0  0  0
  4 18  2  0  0  0  0
  5  6  1  0  0  0  0
  5 25  1  0  0  0  0
  5 26  1  0  0  0  0
  6  7  2  0  0  0  0
  6  8  1  0  0  0  0
  8  9  1  0  0  0  0
  8 27  1  0  0  0  0
  9 17  1  0  0  0  0
  9 10  1  0  0  0  0
  9 28  1  0  0  0  0
 10 11  1  0  0  0  0
 10 29  1  0  0  0  0
 10 30  1  0  0  0  0
 11 12  1  0  0  0  0
 11 31  1  0  0  0  0
 11 32  1  0  0  0  0
 12 13  1  0  0  0  0
 12 16  1  0  0  0  0
 12 33  1  0  0  0  0
 13 14  1  0  0  0  0
 13 15  1  0  0  0  0
 13 34  1  0  0  0  0
 14 35  1  0  0  0  0
 14 36  1  0  0  0  0
 14 37  1  0  0  0  0
 15 38  1  0  0  0  0
 15 39  1  0  0  0  0
 15 40  1  0  0  0  0
 16 17  1  0  0  0  0
 16 41  1  0  0  0  0
 16 42  1  0  0  0  0
 17 43  1  0  0  0  0
 17 44  1  0  0  0  0
 18 19  1  0  0  0  0
 19 20  1  0  0  0  0
M  END
> <s_m_source_file>
AV-unprocessed.smi

> <i_m_source_file_index>
2909

> <i_lp_mmshare_version>
43012

> <i_f3d_flags>
0

> <s_epik_input>
W0NIM11jMVtjSF1jKG5bbkhdMSlbQ0gyXUMoPU8pW05IXVtDQEBIXTJbQ0gyXVtDSDJdW0NAQEhdKFtDSF0oW0NIM10pW0NIM10pW0NIMl1bQ0gyXTI=

> <s_epik_cmdline>
J2VwaWtfcHl0aG9uJywgJy1waCcsICc3LjAnLCAnLXRuJywgJzgnLCAnLW1hJywgJzIwMCcsICctbWV0YWxfYmluZGluZycsICctaW1hZScsICc8aW5maWxlLm1hZT4nLCAnLW9tYWUnLCAnPG91dGZpbGUubWFlPic=

> <r_lp_tautomer_probability>
0.5

> <r_epik_Ionization_Penalty>
9.34828e-05

> <r_epik_Ionization_Penalty_Charging>
0

> <r_epik_Ionization_Penalty_Neutral>
9.34828e-05

> <r_epik_State_Penalty>
0.41068

> <r_epik_Charging_Adjusted_Penalty>
0.41068

> <i_epik_Tot_Q>
0

> <i_epik_Tot_abs_Q>
0

> <r_epik_Metal_State_Penalty>
0.4107

> <b_epik_Metal_Only>
0

> <s_lp_Force_Field>
OPLS_2005

> <r_lp_Energy>
11.82

> <b_lp_Chiralities_Consistent>
1

> <s_lp_Variant>
AV-unprocessed.smi:2909-1

> <Gold.Version>
5.8.1

> <Gold.Id.Protein>
6NUR|6NUR_protein|mol2

> <Gold.PLP.Fitness>
45.9646

> <Gold.PLP.PLP>
-39.9666

> <Gold.PLP.part.hbond>
-3.0000

> <Gold.PLP.part.metal>
0.0000

> <Gold.PLP.part.buried>
-5.6674

> <Gold.PLP.part.nonpolar>
-31.4632

> <Gold.PLP.part.repulsive>
0.3306

> <Gold.PLP.ligand.clash>
0.0000

> <Gold.PLP.ligand.torsion>
0.1900

> <Gold.PLP.Chemscore.Hbond>
2.1199

> <Gold.PLP.Chemscore.CHOScore>
0.0000

> <Gold.PLP.Chemscore.Metal>
0.0000

> <Gold.Chemscore.Hbonds>
donor molecule, donor type, donor heavy atom, donor atom, acceptor molecule, acceptor atom, score
      P1  H  7989  7998       L1     7  0.10
      P1  H  7997  8010       L1     7  1.00
      P1  H 10752 10763       L1    18  0.90

> <Gold.PLP.Chemscore.Internal.Correction>
0.0183

> <Gold.Rescore>
     Score         DG    S(hbond)    S(metal)    S(lipo)     H(rot)  DE(clash)    DE(int)     intcor
     20.27     -20.46       1.94        0.00     105.45       1.50       0.01       0.18       ----

> <Gold.Chemscore.Fitness>
20.2709

> <Gold.Chemscore.DG>
-20.4602

> <Gold.Chemscore.ZeroCoef>
-5.4800

> <Gold.Chemscore.Hbond>
1.9418

> <Gold.Chemscore.Metal>
0.0000

> <Gold.Chemscore.Lipo>
105.4488

> <Gold.Chemscore.Internal_Hbond>
0.0000

> <Gold.Chemscore.DEClash>
0.0119

> <Gold.Chemscore.DEInternal>
0.1773

> <Gold.Chemscore.Rot>
1.5011

> <Gold.Chemscore.Internal.Correction>
   9.000000E+99

> <Gold.Chemscore.Hbonds>
donor molecule, donor type, donor heavy atom, donor atom, acceptor molecule, acceptor atom, score
      P1  H  7997  8010       L1     7  0.98
      P1  H 10752 10763       L1    18  0.16

> <Gold.Chemscore.Hbond.Weighted>
-6.4855

> <Gold.Chemscore.Metal.Weighted>
-0.0000

> <Gold.Chemscore.Lipo.Weighted>
-12.3375

> <Gold.Chemscore.Internal_Hbond.Weighted>
0.0000

> <Gold.Chemscore.DEClash.Weighted>
0.0119

> <Gold.Chemscore.DEInternal.Weighted>
0.1773

> <Gold.Chemscore.Rot.Weighted>
3.8429

> <Gold.Chemscore.Internal.Correction.Weighted>
   9.000000E+99

> <Gold.Protein.RotatedTorsions>
[ 6907 6896 6895 6894 ] final  -31.51 input  -60.11 | X-H torsion
[ 7974 7965 7964 7962 ] final  178.14 input  175.53 | X-H torsion
[ 8008 7997 7996 7995 ] final  111.68 input   59.86 | X-H torsion
[ 10167 10162 10161 10158 ] final   -2.79 input  -65.29 | X-H torsion
[ 10718 10713 10712 10709 ] final  178.45 input   66.30 | X-H torsion
[ 10763 10752 10751 10750 ] final   82.05 input  -60.55 | X-H torsion
[ 11005 11000 10999 10996 ] final   -2.60 input  -57.11 | X-H torsion

> <Gold.Protein.ActiveResidues>
 VAL166  LYS551  ARG553  GLY616  TRP617  ASP618  TYR619  PRO620  LYS621  CYS622 
 ASP623  PHE694  ASN695  SER759  ASP760  ASP761  ALA762  ILE779  LEU786  VAL792 
 PHE793  MET794  SER795  GLU796  ALA797  LYS798  CYS799  TRP800  GLU811  SER814 

> <Gold.Protein.RotatedAtoms>
  151.0912  134.9917  159.8403 H   0  0  0  0  0  0  0  0  0  0  0  0  # atno 6907 bound_to 6896
  152.5429  134.2063  159.8742 H   0  0  0  0  0  0  0  0  0  0  0  0  # atno 6908 bound_to 6896
  151.2100  133.4517  159.2631 H   0  0  0  0  0  0  0  0  0  0  0  0  # atno 6909 bound_to 6896
  144.7160  140.0352  143.6438 H   0  0  0  0  0  0  0  0  0  0  0  0  # atno 7974 bound_to 7965
  156.2141  140.3014  155.9798 H   0  0  0  0  0  0  0  0  0  0  0  0  # atno 8008 bound_to 7997
  155.2651  140.0431  157.3018 H   0  0  0  0  0  0  0  0  0  0  0  0  # atno 8009 bound_to 7997
  154.5742  140.2357  155.8156 H   0  0  0  0  0  0  0  0  0  0  0  0  # atno 8010 bound_to 7997
  140.6865  143.6616  150.8262 H   0  0  0  0  0  0  0  0  0  0  0  0  # atno 10167 bound_to 10162
  156.8903  130.9845  151.3050 H   0  0  0  0  0  0  0  0  0  0  0  0  # atno 10718 bound_to 10713
  153.1169  135.4742  154.9131 H   0  0  0  0  0  0  0  0  0  0  0  0  # atno 10763 bound_to 10752
  154.7538  135.3113  154.8511 H   0  0  0  0  0  0  0  0  0  0  0  0  # atno 10764 bound_to 10752
  153.9085  135.6867  153.4805 H   0  0  0  0  0  0  0  0  0  0  0  0  # atno 10765 bound_to 10752
  140.6601  133.9327  155.8431 H   0  0  0  0  0  0  0  0  0  0  0  0  # atno 11005 bound_to 11000
  146.0069  139.3137  143.0894 LP  0  0  0  0  0  0  0  0  0  0  0  0  # atno 17320 bound_to 7965
  145.8727  140.9410  143.0642 LP  0  0  0  0  0  0  0  0  0  0  0  0  # atno 17321 bound_to 7965
  140.0323  143.5430  152.2754 LP  0  0  0  0  0  0  0  0  0  0  0  0  # atno 17342 bound_to 10162
  139.6228  144.7632  151.2704 LP  0  0  0  0  0  0  0  0  0  0  0  0  # atno 17343 bound_to 10162
  157.6087  130.8567  149.8917 LP  0  0  0  0  0  0  0  0  0  0  0  0  # atno 17370 bound_to 10713
  156.0632  130.3696  150.0936 LP  0  0  0  0  0  0  0  0  0  0  0  0  # atno 17371 bound_to 10713
  141.0471  134.0538  157.3830 LP  0  0  0  0  0  0  0  0  0  0  0  0  # atno 17394 bound_to 11000
  139.9016  135.0166  156.7293 LP  0  0  0  0  0  0  0  0  0  0  0  0  # atno 17395 bound_to 11000

$$$$
