AV-unprocessed.smi:1644|AV-procd|sdf|6597|dock2
  -GOLD-   22720 7303D 1   1.00000     0.00000
 Structure written by MMmdl.
 49 51  0  0  0  0  0  0  0  0  3 V2000
  148.3724  132.4496  153.8772 C   0  0  0  0  0  0  0  0  0  0  0  0
  149.2131  133.2342  154.8904 C   0  0  0  0  0  0  0  0  0  0  0  0
  148.3803  133.7404  156.0793 C   0  0  0  0  0  0  0  0  0  0  0  0
  149.0072  134.9595  156.7889 C   0  0  1  0  0  0  0  0  0  0  0  0
  150.2903  134.6306  157.3762 N   0  5  0  0  0  0  0  0  0  0  0  0
  151.2346  135.4343  156.8345 C   0  0  0  0  0  0  0  0  0  0  0  0
  152.4377  135.4320  157.0919 O   0  0  0  0  0  0  0  0  0  0  0  0
  150.6956  136.2706  155.9275 N   0  0  0  0  0  0  0  0  0  0  0  0
  151.4456  137.2400  155.1213 C   0  0  0  0  0  0  0  0  0  0  0  0
  150.9155  138.6748  155.3228 C   0  0  2  0  0  0  0  0  0  0  0  0
  151.1606  139.4154  154.1431 O   0  0  0  0  0  0  0  0  0  0  0  0
  151.6103  139.3813  156.5031 C   0  0  0  0  0  0  0  0  0  0  0  0
  151.0452  140.7091  156.7838 N   0  0  0  0  0  0  0  0  0  0  0  0
  150.0851  141.4005  156.1127 C   0  0  0  0  0  0  0  0  0  0  0  0
  149.9039  142.5853  156.7592 N   0  3  0  0  0  0  0  0  0  0  0  0
  150.7648  142.6532  157.8567 C   0  0  0  0  0  0  0  0  0  0  0  0
  150.9501  143.6504  158.8067 C   0  0  0  0  0  0  0  0  0  0  0  0
  151.9195  143.4160  159.8078 C   0  0  0  0  0  0  0  0  0  0  0  0
  152.1481  144.4870  160.8606 C   0  0  0  0  0  0  0  0  0  0  0  0
  152.6661  142.2096  159.8325 C   0  0  0  0  0  0  0  0  0  0  0  0
  153.7092  141.9698  160.9107 C   0  0  0  0  0  0  0  0  0  0  0  0
  152.4608  141.2064  158.8583 C   0  0  0  0  0  0  0  0  0  0  0  0
  151.5013  141.4529  157.8788 C   0  0  0  0  0  0  0  0  0  0  0  0
  149.3808  136.0574  155.8138 C   0  0  0  0  0  0  0  0  0  0  0  0
  148.5898  136.6214  155.0563 O   0  0  0  0  0  0  0  0  0  0  0  0
  148.9888  132.1003  153.0485 H   0  0  0  0  0  0  0  0  0  0  0  0
  147.5769  133.0692  153.4624 H   0  0  0  0  0  0  0  0  0  0  0  0
  147.9116  131.5768  154.3406 H   0  0  0  0  0  0  0  0  0  0  0  0
  150.0212  132.5989  155.2545 H   0  0  0  0  0  0  0  0  0  0  0  0
  149.6870  134.0768  154.3856 H   0  0  0  0  0  0  0  0  0  0  0  0
  147.3692  133.9789  155.7442 H   0  0  0  0  0  0  0  0  0  0  0  0
  148.2739  132.9235  156.7946 H   0  0  0  0  0  0  0  0  0  0  0  0
  148.3067  135.3719  157.5164 H   0  0  0  0  0  0  0  0  0  0  0  0
  152.4923  137.1909  155.4268 H   0  0  0  0  0  0  0  0  0  0  0  0
  151.4464  136.9652  154.0649 H   0  0  0  0  0  0  0  0  0  0  0  0
  149.8406  138.6568  155.5089 H   0  0  0  0  0  0  0  0  0  0  0  0
  150.8087  138.9325  153.4100 H   0  0  0  0  0  0  0  0  0  0  0  0
  151.4878  138.7893  157.4108 H   0  0  0  0  0  0  0  0  0  0  0  0
  152.6848  139.4698  156.3398 H   0  0  0  0  0  0  0  0  0  0  0  0
  149.5624  141.0685  155.2272 H   0  0  0  0  0  0  0  0  0  0  0  0
  150.3791  144.5670  158.7805 H   0  0  0  0  0  0  0  0  0  0  0  0
  151.9147  144.1029  161.8538 H   0  0  0  0  0  0  0  0  0  0  0  0
  151.5193  145.3604  160.6841 H   0  0  0  0  0  0  0  0  0  0  0  0
  153.1867  144.8183  160.8519 H   0  0  0  0  0  0  0  0  0  0  0  0
  154.1779  140.9912  160.8023 H   0  0  0  0  0  0  0  0  0  0  0  0
  153.2551  142.0132  161.9010 H   0  0  0  0  0  0  0  0  0  0  0  0
  154.4955  142.7230  160.8564 H   0  0  0  0  0  0  0  0  0  0  0  0
  153.0347  140.2916  158.8721 H   0  0  0  0  0  0  0  0  0  0  0  0
  149.2427  143.2947  156.4696 H   0  0  0  0  0  0  0  0  0  0  0  0
  1  2  1  0  0  0  0
  1 26  1  0  0  0  0
  1 27  1  0  0  0  0
  1 28  1  0  0  0  0
  2  3  1  0  0  0  0
  2 29  1  0  0  0  0
  2 30  1  0  0  0  0
  3  4  1  0  0  0  0
  3 31  1  0  0  0  0
  3 32  1  0  0  0  0
  4 24  1  0  0  0  0
  4  5  1  0  0  0  0
  4 33  1  0  0  0  0
  5  6  1  0  0  0  0
  6  7  2  0  0  0  0
  6  8  1  0  0  0  0
  8  9  1  0  0  0  0
  8 24  1  0  0  0  0
  9 10  1  0  0  0  0
  9 34  1  0  0  0  0
  9 35  1  0  0  0  0
 10 11  1  0  0  0  0
 10 12  1  0  0  0  0
 10 36  1  0  0  0  0
 11 37  1  0  0  0  0
 12 13  1  0  0  0  0
 12 38  1  0  0  0  0
 12 39  1  0  0  0  0
 13 23  1  0  0  0  0
 13 14  1  0  0  0  0
 14 15  2  0  0  0  0
 14 40  1  0  0  0  0
 15 16  1  0  0  0  0
 15 49  1  0  0  0  0
 16 23  2  0  0  0  0
 16 17  1  0  0  0  0
 17 18  2  0  0  0  0
 17 41  1  0  0  0  0
 18 19  1  0  0  0  0
 18 20  1  0  0  0  0
 19 42  1  0  0  0  0
 19 43  1  0  0  0  0
 19 44  1  0  0  0  0
 20 21  1  0  0  0  0
 20 22  2  0  0  0  0
 21 45  1  0  0  0  0
 21 46  1  0  0  0  0
 21 47  1  0  0  0  0
 22 23  1  0  0  0  0
 22 48  1  0  0  0  0
 24 25  2  0  0  0  0
M  CHG  1   5  -1
M  CHG  1  15   1
M  END
> <s_m_source_file>
AV-unprocessed.smi

> <i_m_source_file_index>
1644

> <i_lp_mmshare_version>
43012

> <i_f3d_flags>
0

> <s_epik_input>
W0NIM11bQ0gyXVtDSDJdW0NAQEhdMVtOSF1DKD1PKU4oQzE9TylbQ0gyXVtDQEhdKFtPSF0pW0NIMl1uKFtjSF1uMiljKGMyMylbY0hdYyhbQ0gzXSljKFtjSF0zKVtDSDNd

> <s_epik_cmdline>
J2VwaWtfcHl0aG9uJywgJy1waCcsICc3LjAnLCAnLXRuJywgJzgnLCAnLW1hJywgJzIwMCcsICctbWV0YWxfYmluZGluZycsICctaW1hZScsICc8aW5maWxlLm1hZT4nLCAnLW9tYWUnLCAnPG91dGZpbGUubWFlPic=

> <r_lp_tautomer_probability>
1

> <r_epik_Ionization_Penalty>
6.86868

> <r_epik_Ionization_Penalty_Charging>
6.86868

> <r_epik_Ionization_Penalty_Neutral>
5.84798e-07

> <r_epik_State_Penalty>
6.92818

> <r_epik_Charging_Adjusted_Penalty>
13.7969

> <i_epik_Tot_Q>
0

> <i_epik_Tot_abs_Q>
2

> <r_epik_Metal_State_Penalty>
2.98017

> <b_epik_Metal_Only>
1

> <s_lp_Force_Field>
OPLS_2005

> <r_lp_Energy>
23.8384

> <b_lp_Chiralities_Consistent>
1

> <s_lp_Variant>
AV-unprocessed.smi:1644-14

> <Gold.Version>
5.8.1

> <Gold.Id.Protein>
6NUR|6NUR_protein|mol2

> <Gold.PLP.Fitness>
58.1326

> <Gold.PLP.PLP>
-43.3633

> <Gold.PLP.part.hbond>
-4.2828

> <Gold.PLP.part.metal>
0.0000

> <Gold.PLP.part.buried>
-4.3922

> <Gold.PLP.part.nonpolar>
-36.6876

> <Gold.PLP.part.repulsive>
0.1533

> <Gold.PLP.ligand.clash>
0.1295

> <Gold.PLP.ligand.torsion>
0.5274

> <Gold.PLP.Chemscore.Hbond>
5.2886

> <Gold.PLP.Chemscore.CHOScore>
0.0000

> <Gold.PLP.Chemscore.Metal>
0.0000

> <Gold.Chemscore.Hbonds>
donor molecule, donor type, donor heavy atom, donor atom, acceptor molecule, acceptor atom, score
      L1  H    15    49       P1  8028  2.00
      P1  H  6896  6908       L1     5  1.27
      P1  H  7989  7998       L1    11  1.00
      P1  H 10752 10764       L1     7  0.94

> <Gold.PLP.Chemscore.Internal.Correction>
0.0879

> <Gold.Rescore>
     Score         DG    S(hbond)    S(metal)    S(lipo)     H(rot)  DE(clash)    DE(int)     intcor
     20.55     -22.97       3.39        0.00     112.39       2.72       0.57       1.84       ----

> <Gold.Chemscore.Fitness>
20.5547

> <Gold.Chemscore.DG>
-22.9673

> <Gold.Chemscore.ZeroCoef>
-5.4800

> <Gold.Chemscore.Hbond>
3.3871

> <Gold.Chemscore.Metal>
0.0000

> <Gold.Chemscore.Lipo>
112.3860

> <Gold.Chemscore.Internal_Hbond>
0.0000

> <Gold.Chemscore.DEClash>
0.5720

> <Gold.Chemscore.DEInternal>
1.8406

> <Gold.Chemscore.Rot>
2.7245

> <Gold.Chemscore.Internal.Correction>
   9.000000E+99

> <Gold.Chemscore.Hbonds>
donor molecule, donor type, donor heavy atom, donor atom, acceptor molecule, acceptor atom, score
      L1  H    15    49       P1  8028  0.95
      P1  H  6896  6908       L1     5  0.51
      P1  H  7989  7998       L1    11  0.45
      P1  H 10752 10764       L1     7  0.50

> <Gold.Chemscore.Hbond.Weighted>
-11.3129

> <Gold.Chemscore.Metal.Weighted>
-0.0000

> <Gold.Chemscore.Lipo.Weighted>
-13.1492

> <Gold.Chemscore.Internal_Hbond.Weighted>
0.0000

> <Gold.Chemscore.DEClash.Weighted>
0.5720

> <Gold.Chemscore.DEInternal.Weighted>
1.8406

> <Gold.Chemscore.Rot.Weighted>
6.9748

> <Gold.Chemscore.Internal.Correction.Weighted>
   9.000000E+99

> <Gold.Protein.RotatedTorsions>
[ 6907 6896 6895 6894 ] final  137.03 input  -60.11 | X-H torsion
[ 7974 7965 7964 7962 ] final   24.33 input  175.53 | X-H torsion
[ 8008 7997 7996 7995 ] final  127.07 input   59.86 | X-H torsion
[ 10167 10162 10161 10158 ] final -160.16 input  -65.29 | X-H torsion
[ 10718 10713 10712 10709 ] final  122.72 input   66.30 | X-H torsion
[ 10763 10752 10751 10750 ] final   -9.16 input  -60.55 | X-H torsion
[ 11005 11000 10999 10996 ] final   -3.60 input  -57.11 | X-H torsion

> <Gold.Protein.ActiveResidues>
 VAL166  LYS551  ARG553  GLY616  TRP617  ASP618  TYR619  PRO620  LYS621  CYS622 
 ASP623  PHE694  ASN695  SER759  ASP760  ASP761  ALA762  ILE779  LEU786  VAL792 
 PHE793  MET794  SER795  GLU796  ALA797  LYS798  CYS799  TRP800  GLU811  SER814 

> <Gold.Protein.RotatedAtoms>
  152.2827  133.5485  159.5507 H   0  0  0  0  0  0  0  0  0  0  0  0  # atno 6907 bound_to 6896
  150.7202  134.0541  159.3817 H   0  0  0  0  0  0  0  0  0  0  0  0  # atno 6908 bound_to 6896
  151.8451  135.0577  160.0503 H   0  0  0  0  0  0  0  0  0  0  0  0  # atno 6909 bound_to 6896
  146.1942  139.7620  142.8809 H   0  0  0  0  0  0  0  0  0  0  0  0  # atno 7974 bound_to 7965
  156.2881  140.2677  156.2213 H   0  0  0  0  0  0  0  0  0  0  0  0  # atno 8008 bound_to 7997
  155.0165  140.0387  157.2438 H   0  0  0  0  0  0  0  0  0  0  0  0  # atno 8009 bound_to 7997
  154.7472  140.2736  155.6328 H   0  0  0  0  0  0  0  0  0  0  0  0  # atno 8010 bound_to 7997
  139.6561  143.9997  152.2194 H   0  0  0  0  0  0  0  0  0  0  0  0  # atno 10167 bound_to 10162
  157.5721  131.1082  150.8348 H   0  0  0  0  0  0  0  0  0  0  0  0  # atno 10718 bound_to 10713
  153.4508  135.7015  153.6110 H   0  0  0  0  0  0  0  0  0  0  0  0  # atno 10763 bound_to 10752
  153.4446  135.3772  155.2248 H   0  0  0  0  0  0  0  0  0  0  0  0  # atno 10764 bound_to 10752
  154.8728  135.3982  154.3920 H   0  0  0  0  0  0  0  0  0  0  0  0  # atno 10765 bound_to 10752
  140.6711  133.9236  155.8495 H   0  0  0  0  0  0  0  0  0  0  0  0  # atno 11005 bound_to 11000
  145.3695  141.0340  143.3239 LP  0  0  0  0  0  0  0  0  0  0  0  0  # atno 17320 bound_to 7965
  144.8548  139.5267  143.6840 LP  0  0  0  0  0  0  0  0  0  0  0  0  # atno 17321 bound_to 7965
  139.9724  144.6485  150.7977 LP  0  0  0  0  0  0  0  0  0  0  0  0  # atno 17342 bound_to 10162
  140.7559  143.3056  151.2970 LP  0  0  0  0  0  0  0  0  0  0  0  0  # atno 17343 bound_to 10162
  156.8817  130.5181  149.5290 LP  0  0  0  0  0  0  0  0  0  0  0  0  # atno 17370 bound_to 10713
  156.0766  130.5786  150.9485 LP  0  0  0  0  0  0  0  0  0  0  0  0  # atno 17371 bound_to 10713
  141.0391  134.0647  157.3923 LP  0  0  0  0  0  0  0  0  0  0  0  0  # atno 17394 bound_to 11000
  139.8981  135.0153  156.7134 LP  0  0  0  0  0  0  0  0  0  0  0  0  # atno 17395 bound_to 11000

$$$$
