AV-unprocessed.smi:485|AV-procd|sdf|2692|dock8
  -GOLD-   2262023123D 1   1.00000     0.00000
 Structure written by MMmdl.
 36 38  0  0  0  0  0  0  0  0  1 V2000
  152.2455  137.2600  153.5458 O   0  0  0  0  0  0  0  0  0  0  0  0
  152.2480  138.4581  154.2920 C   0  0  0  0  0  0  0  0  0  0  0  0
  150.9830  139.2447  154.1288 C   0  0  0  0  0  0  0  0  0  0  0  0
  150.0071  138.8480  153.3115 N   0  0  0  0  0  0  0  0  0  0  0  0
  149.0530  139.8329  153.4767 C   0  0  0  0  0  0  0  0  0  0  0  0
  147.7790  139.9856  152.8841 C   0  0  0  0  0  0  0  0  0  0  0  0
  146.9670  141.0912  153.2116 C   0  0  0  0  0  0  0  0  0  0  0  0
  147.4160  142.0580  154.1346 C   0  0  0  0  0  0  0  0  0  0  0  0
  148.6818  141.9246  154.7370 C   0  0  0  0  0  0  0  0  0  0  0  0
  149.4886  140.8189  154.4068 C   0  0  0  0  0  0  0  0  0  0  0  0
  150.7535  140.3979  154.8062 N   0  0  0  0  0  0  0  0  0  0  0  0
  151.6264  141.0697  155.7596 C   0  0  0  0  0  0  0  0  0  0  0  0
  151.0197  141.1534  157.1747 C   0  0  1  0  0  0  0  0  0  0  0  0
  151.3315  139.9844  157.9084 O   0  0  0  0  0  0  0  0  0  0  0  0
  151.4641  142.4226  157.8851 C   0  0  0  0  0  0  0  0  0  0  0  0
  151.1664  143.6956  157.3492 C   0  0  0  0  0  0  0  0  0  0  0  0
  151.5735  144.8629  158.0245 C   0  0  0  0  0  0  0  0  0  0  0  0
  152.2753  144.7648  159.2413 C   0  0  0  0  0  0  0  0  0  0  0  0
  152.5701  143.4989  159.7828 C   0  0  0  0  0  0  0  0  0  0  0  0
  152.1646  142.3315  159.1071 C   0  0  0  0  0  0  0  0  0  0  0  0
  151.7927  137.4147  152.7311 H   0  0  0  0  0  0  0  0  0  0  0  0
  152.4119  138.2283  155.3442 H   0  0  0  0  0  0  0  0  0  0  0  0
  153.0941  139.0665  153.9706 H   0  0  0  0  0  0  0  0  0  0  0  0
  147.4260  139.2503  152.1763 H   0  0  0  0  0  0  0  0  0  0  0  0
  145.9953  141.1981  152.7521 H   0  0  0  0  0  0  0  0  0  0  0  0
  146.7883  142.9024  154.3798 H   0  0  0  0  0  0  0  0  0  0  0  0
  149.0306  142.6645  155.4421 H   0  0  0  0  0  0  0  0  0  0  0  0
  152.5809  140.5425  155.7885 H   0  0  0  0  0  0  0  0  0  0  0  0
  151.8487  142.0691  155.3851 H   0  0  0  0  0  0  0  0  0  0  0  0
  149.9328  141.1787  157.0949 H   0  0  0  0  0  0  0  0  0  0  0  0
  151.4255  139.2662  157.3013 H   0  0  0  0  0  0  0  0  0  0  0  0
  150.6217  143.7824  156.4203 H   0  0  0  0  0  0  0  0  0  0  0  0
  151.3453  145.8338  157.6101 H   0  0  0  0  0  0  0  0  0  0  0  0
  152.5853  145.6599  159.7602 H   0  0  0  0  0  0  0  0  0  0  0  0
  153.1057  143.4233  160.7176 H   0  0  0  0  0  0  0  0  0  0  0  0
  152.3906  141.3647  159.5330 H   0  0  0  0  0  0  0  0  0  0  0  0
  1  2  1  0  0  0  0
  1 21  1  0  0  0  0
  2  3  1  0  0  0  0
  2 22  1  0  0  0  0
  2 23  1  0  0  0  0
  3 11  1  0  0  0  0
  3  4  2  0  0  0  0
  4  5  1  0  0  0  0
  5 10  2  0  0  0  0
  5  6  1  0  0  0  0
  6  7  2  0  0  0  0
  6 24  1  0  0  0  0
  7  8  1  0  0  0  0
  7 25  1  0  0  0  0
  8  9  2  0  0  0  0
  8 26  1  0  0  0  0
  9 10  1  0  0  0  0
  9 27  1  0  0  0  0
 10 11  1  0  0  0  0
 11 12  1  0  0  0  0
 12 13  1  0  0  0  0
 12 28  1  0  0  0  0
 12 29  1  0  0  0  0
 13 14  1  0  0  0  0
 13 15  1  0  0  0  0
 13 30  1  0  0  0  0
 14 31  1  0  0  0  0
 15 20  1  0  0  0  0
 15 16  2  0  0  0  0
 16 17  1  0  0  0  0
 16 32  1  0  0  0  0
 17 18  2  0  0  0  0
 17 33  1  0  0  0  0
 18 19  1  0  0  0  0
 18 34  1  0  0  0  0
 19 20  2  0  0  0  0
 19 35  1  0  0  0  0
 20 36  1  0  0  0  0
M  END
> <s_m_source_file>
AV-unprocessed.smi

> <i_m_source_file_index>
485

> <i_lp_mmshare_version>
43012

> <i_f3d_flags>
0

> <s_epik_input>
W2NIXTFbY0hdW2NIXVtjSF1jKGMxMiluKGMobjIpW0NIMl1bT0hdKVtDSDJdW0NASF0oW09IXSljM1tjSF1bY0hdW2NIXVtjSF1bY0hdMw==

> <s_epik_cmdline>
J2VwaWtfcHl0aG9uJywgJy1waCcsICc3LjAnLCAnLXRuJywgJzgnLCAnLW1hJywgJzIwMCcsICctbWV0YWxfYmluZGluZycsICctaW1hZScsICc8aW5maWxlLm1hZT4nLCAnLW9tYWUnLCAnPG91dGZpbGUubWFlPic=

> <r_epik_Ionization_Penalty>
0.0634722

> <r_epik_Ionization_Penalty_Charging>
0

> <r_epik_Ionization_Penalty_Neutral>
0.0634722

> <r_epik_State_Penalty>
0.0551572

> <r_epik_Charging_Adjusted_Penalty>
0.0551572

> <i_epik_Tot_Q>
0

> <i_epik_Tot_abs_Q>
0

> <r_epik_Metal_State_Penalty>
5.78034e-05

> <b_epik_Metal_Only>
0

> <s_lp_Force_Field>
OPLS_2005

> <r_lp_Energy>
11.9135

> <b_lp_Chiralities_Consistent>
1

> <s_lp_Variant>
AV-unprocessed.smi:485-2

> <Gold.Version>
5.8.1

> <Gold.Id.Protein>
6NUR|6NUR_protein|mol2

> <Gold.PLP.Fitness>
51.3344

> <Gold.PLP.PLP>
-47.0768

> <Gold.PLP.part.hbond>
-2.0000

> <Gold.PLP.part.metal>
0.0000

> <Gold.PLP.part.buried>
-1.4249

> <Gold.PLP.part.nonpolar>
-44.6373

> <Gold.PLP.part.repulsive>
1.0542

> <Gold.PLP.ligand.clash>
0.0000

> <Gold.PLP.ligand.torsion>
0.3971

> <Gold.PLP.Chemscore.Hbond>
1.6720

> <Gold.PLP.Chemscore.CHOScore>
0.0000

> <Gold.PLP.Chemscore.Metal>
0.0000

> <Gold.Chemscore.Hbonds>
donor molecule, donor type, donor heavy atom, donor atom, acceptor molecule, acceptor atom, score
      L1  H     1    21       P1  7949  0.50
      P1  H 10752 10763       L1     1  1.00

> <Gold.PLP.Chemscore.Internal.Correction>
0.0357

> <Gold.Rescore>
     Score         DG    S(hbond)    S(metal)    S(lipo)     H(rot)  DE(clash)    DE(int)     intcor
     16.18     -17.22       1.14        0.00     125.18       2.62       0.45       0.60       ----

> <Gold.Chemscore.Fitness>
16.1804

> <Gold.Chemscore.DG>
-17.2246

> <Gold.Chemscore.ZeroCoef>
-5.4800

> <Gold.Chemscore.Hbond>
1.1418

> <Gold.Chemscore.Metal>
0.0000

> <Gold.Chemscore.Lipo>
125.1822

> <Gold.Chemscore.Internal_Hbond>
0.0000

> <Gold.Chemscore.DEClash>
0.4469

> <Gold.Chemscore.DEInternal>
0.5972

> <Gold.Chemscore.Rot>
2.6232

> <Gold.Chemscore.Internal.Correction>
   9.000000E+99

> <Gold.Chemscore.Hbonds>
donor molecule, donor type, donor heavy atom, donor atom, acceptor molecule, acceptor atom, score
      L1  H     1    21       P1  7949  0.48
      P1  H 10752 10763       L1     1  0.95

> <Gold.Chemscore.Hbond.Weighted>
-3.8137

> <Gold.Chemscore.Metal.Weighted>
-0.0000

> <Gold.Chemscore.Lipo.Weighted>
-14.6463

> <Gold.Chemscore.Internal_Hbond.Weighted>
0.0000

> <Gold.Chemscore.DEClash.Weighted>
0.4469

> <Gold.Chemscore.DEInternal.Weighted>
0.5972

> <Gold.Chemscore.Rot.Weighted>
6.7154

> <Gold.Chemscore.Internal.Correction.Weighted>
   9.000000E+99

> <Gold.Protein.RotatedTorsions>
[ 6907 6896 6895 6894 ] final  136.64 input  -60.11 | X-H torsion
[ 7974 7965 7964 7962 ] final   51.09 input  175.53 | X-H torsion
[ 8008 7997 7996 7995 ] final  -66.65 input   59.86 | X-H torsion
[ 10167 10162 10161 10158 ] final  -68.17 input  -65.29 | X-H torsion
[ 10718 10713 10712 10709 ] final   57.31 input   66.30 | X-H torsion
[ 10763 10752 10751 10750 ] final   18.85 input  -60.55 | X-H torsion
[ 11005 11000 10999 10996 ] final  137.51 input  -57.11 | X-H torsion

> <Gold.Protein.ActiveResidues>
 VAL166  LYS551  ARG553  GLY616  TRP617  ASP618  TYR619  PRO620  LYS621  CYS622 
 ASP623  PHE694  ASN695  SER759  ASP760  ASP761  ALA762  ILE779  LEU786  VAL792 
 PHE793  MET794  SER795  GLU796  ALA797  LYS798  CYS799  TRP800  GLU811  SER814 

> <Gold.Protein.RotatedAtoms>
  152.2871  133.5525  159.5533 H   0  0  0  0  0  0  0  0  0  0  0  0  # atno 6907 bound_to 6896
  150.7219  134.0482  159.3798 H   0  0  0  0  0  0  0  0  0  0  0  0  # atno 6908 bound_to 6896
  151.8390  135.0597  160.0496 H   0  0  0  0  0  0  0  0  0  0  0  0  # atno 6909 bound_to 6896
  145.9947  139.4376  143.0051 H   0  0  0  0  0  0  0  0  0  0  0  0  # atno 7974 bound_to 7965
  154.4748  140.0908  156.7235 H   0  0  0  0  0  0  0  0  0  0  0  0  # atno 8008 bound_to 7997
  155.4625  140.3461  155.4296 H   0  0  0  0  0  0  0  0  0  0  0  0  # atno 8009 bound_to 7997
  156.1099  140.1445  156.9341 H   0  0  0  0  0  0  0  0  0  0  0  0  # atno 8010 bound_to 7997
  140.5528  143.2312  151.6879 H   0  0  0  0  0  0  0  0  0  0  0  0  # atno 10167 bound_to 10162
  157.5504  130.8761  149.8955 H   0  0  0  0  0  0  0  0  0  0  0  0  # atno 10718 bound_to 10713
  153.1213  135.6720  153.9331 H   0  0  0  0  0  0  0  0  0  0  0  0  # atno 10763 bound_to 10752
  153.8845  135.3054  155.3447 H   0  0  0  0  0  0  0  0  0  0  0  0  # atno 10764 bound_to 10752
  154.7624  135.4981  153.9569 H   0  0  0  0  0  0  0  0  0  0  0  0  # atno 10765 bound_to 10752
  140.0119  134.9435  157.0296 H   0  0  0  0  0  0  0  0  0  0  0  0  # atno 11005 bound_to 11000
  145.7577  140.9948  143.1216 LP  0  0  0  0  0  0  0  0  0  0  0  0  # atno 17320 bound_to 7965
  144.6900  139.9292  143.7471 LP  0  0  0  0  0  0  0  0  0  0  0  0  # atno 17321 bound_to 7965
  139.5035  144.3790  152.0395 LP  0  0  0  0  0  0  0  0  0  0  0  0  # atno 17342 bound_to 10162
  140.2909  144.3755  150.6089 LP  0  0  0  0  0  0  0  0  0  0  0  0  # atno 17343 bound_to 10162
  156.0572  130.3706  150.1064 LP  0  0  0  0  0  0  0  0  0  0  0  0  # atno 17370 bound_to 10713
  156.9238  130.9691  151.3544 LP  0  0  0  0  0  0  0  0  0  0  0  0  # atno 17371 bound_to 10713
  140.4539  134.1554  155.7184 LP  0  0  0  0  0  0  0  0  0  0  0  0  # atno 17394 bound_to 11000
  141.1717  133.8596  157.1551 LP  0  0  0  0  0  0  0  0  0  0  0  0  # atno 17395 bound_to 11000

$$$$
