AV-unprocessed.smi:21|AV-procd|sdf|122|dock8
  -GOLD-   2262015293D 1   1.00000     0.00000
 Structure written by MMmdl.
 62 65  0  0  0  0  0  0  0  0  2 V2000
  144.8648  132.2109  149.1064 C   0  0  0  0  0  0  0  0  0  0  0  0
  144.8158  133.4486  149.7973 O   0  0  0  0  0  0  0  0  0  0  0  0
  145.9641  133.7001  150.5936 C   0  0  2  0  0  0  0  0  0  0  0  0
  146.0976  132.6424  151.6842 C   0  0  0  0  0  0  0  0  0  0  0  0
  146.8769  133.3337  152.8191 C   0  0  1  0  0  0  0  0  0  0  0  0
  148.3598  132.9062  152.9040 C   0  0  0  0  0  0  0  0  0  0  0  0
  148.6868  132.1548  154.1169 N   0  0  0  0  0  0  0  0  0  0  0  0
  147.8457  131.0195  154.4902 C   0  0  0  0  0  0  0  0  0  0  0  0
  149.5105  132.7008  155.0570 C   0  0  0  0  0  0  0  0  0  0  0  0
  150.2392  131.8656  155.8458 N   0  0  0  0  0  0  0  0  0  0  0  0
  151.0302  132.3476  156.8077 C   0  0  0  0  0  0  0  0  0  0  0  0
  151.2406  133.6174  157.1541 N   0  0  0  0  0  0  0  0  0  0  0  0
  150.5288  134.4670  156.3616 C   0  0  0  0  0  0  0  0  0  0  0  0
  149.6556  134.1021  155.2958 C   0  0  0  0  0  0  0  0  0  0  0  0
  149.1295  135.2535  154.7173 N   0  0  0  0  0  0  0  0  0  0  0  0
  149.6474  136.2332  155.4051 C   0  0  0  0  0  0  0  0  0  0  0  0
  150.4871  135.8478  156.4230 N   0  0  0  0  0  0  0  0  0  0  0  0
  151.1829  136.7144  157.3562 C   0  0  0  0  0  0  0  0  0  0  0  0
  151.0983  138.2206  156.9901 C   0  0  2  0  0  0  0  0  0  0  0  0
  152.0577  138.6014  155.8327 C   0  0  0  0  0  0  0  0  0  0  0  0
  151.6781  139.8033  155.1929 O   0  0  0  0  0  0  0  0  0  0  0  0
  151.3629  139.0974  158.2428 C   0  0  2  0  0  0  0  0  0  0  0  0
  151.1374  140.5874  158.0412 C   0  0  0  0  0  0  0  0  0  0  0  0
  151.9014  141.1934  159.2118 C   0  0  0  0  0  0  0  0  0  0  0  0
  153.0168  140.3367  159.4183 O   0  0  0  0  0  0  0  0  0  0  0  0
  152.8184  139.1051  158.7307 C   0  0  0  0  0  0  0  0  0  0  0  0
  146.7870  134.7897  152.5466 N   0  3  2  0  0  0  0  0  0  0  0  0
  146.4657  135.6187  153.7283 C   0  0  0  0  0  0  0  0  0  0  0  0
  145.8696  134.9893  151.4071 C   0  0  0  0  0  0  0  0  0  0  0  0
  146.8706  133.7006  149.9850 H   0  0  0  0  0  0  0  0  0  0  0  0
  146.3725  133.1160  153.7618 H   0  0  0  0  0  0  0  0  0  0  0  0
  143.9418  132.0725  148.5432 H   0  0  0  0  0  0  0  0  0  0  0  0
  144.9626  131.3750  149.8000 H   0  0  0  0  0  0  0  0  0  0  0  0
  145.6939  132.1786  148.3991 H   0  0  0  0  0  0  0  0  0  0  0  0
  145.1062  132.3703  152.0498 H   0  0  0  0  0  0  0  0  0  0  0  0
  146.5640  131.7298  151.3159 H   0  0  0  0  0  0  0  0  0  0  0  0
  148.6049  132.3002  152.0310 H   0  0  0  0  0  0  0  0  0  0  0  0
  149.0155  133.7722  152.8304 H   0  0  0  0  0  0  0  0  0  0  0  0
  148.4515  130.2178  154.9142 H   0  0  0  0  0  0  0  0  0  0  0  0
  147.3233  130.6132  153.6240 H   0  0  0  0  0  0  0  0  0  0  0  0
  147.0977  131.3125  155.2276 H   0  0  0  0  0  0  0  0  0  0  0  0
  151.5664  131.6098  157.3864 H   0  0  0  0  0  0  0  0  0  0  0  0
  149.4190  137.2684  155.1972 H   0  0  0  0  0  0  0  0  0  0  0  0
  150.7535  136.5298  158.3406 H   0  0  0  0  0  0  0  0  0  0  0  0
  152.2255  136.3989  157.4115 H   0  0  0  0  0  0  0  0  0  0  0  0
  150.0789  138.4323  156.6624 H   0  0  0  0  0  0  0  0  0  0  0  0
  153.0711  138.7626  156.1972 H   0  0  0  0  0  0  0  0  0  0  0  0
  152.1159  137.7979  155.0977 H   0  0  0  0  0  0  0  0  0  0  0  0
  150.7526  139.9354  155.3319 H   0  0  0  0  0  0  0  0  0  0  0  0
  150.7241  138.7618  159.0618 H   0  0  0  0  0  0  0  0  0  0  0  0
  151.5761  140.9160  157.0976 H   0  0  0  0  0  0  0  0  0  0  0  0
  150.0849  140.8720  158.0472 H   0  0  0  0  0  0  0  0  0  0  0  0
  152.2146  142.2202  159.0217 H   0  0  0  0  0  0  0  0  0  0  0  0
  151.2856  141.1869  160.1120 H   0  0  0  0  0  0  0  0  0  0  0  0
  153.0433  138.2625  159.3849 H   0  0  0  0  0  0  0  0  0  0  0  0
  153.5107  139.0713  157.8884 H   0  0  0  0  0  0  0  0  0  0  0  0
  145.4906  135.3567  154.1412 H   0  0  0  0  0  0  0  0  0  0  0  0
  146.4524  136.6753  153.4598 H   0  0  0  0  0  0  0  0  0  0  0  0
  147.2156  135.4799  154.5073 H   0  0  0  0  0  0  0  0  0  0  0  0
  146.1348  135.8756  150.8301 H   0  0  0  0  0  0  0  0  0  0  0  0
  144.8498  135.1168  151.7750 H   0  0  0  0  0  0  0  0  0  0  0  0
  147.7023  135.0691  152.2232 H   0  0  0  0  0  0  0  0  0  0  0  0
  1  2  1  0  0  0  0
  1 32  1  0  0  0  0
  1 33  1  0  0  0  0
  1 34  1  0  0  0  0
  2  3  1  0  0  0  0
  3 30  1  0  0  0  0
  3 29  1  0  0  0  0
  3  4  1  0  0  0  0
  4  5  1  0  0  0  0
  4 35  1  0  0  0  0
  4 36  1  0  0  0  0
  5 31  1  0  0  0  0
  5  6  1  0  0  0  0
  5 27  1  0  0  0  0
  6  7  1  0  0  0  0
  6 37  1  0  0  0  0
  6 38  1  0  0  0  0
  7  8  1  0  0  0  0
  7  9  1  0  0  0  0
  8 39  1  0  0  0  0
  8 40  1  0  0  0  0
  8 41  1  0  0  0  0
  9 14  1  0  0  0  0
  9 10  2  0  0  0  0
 10 11  1  0  0  0  0
 11 12  2  0  0  0  0
 11 42  1  0  0  0  0
 12 13  1  0  0  0  0
 13 17  1  0  0  0  0
 13 14  2  0  0  0  0
 14 15  1  0  0  0  0
 15 16  2  0  0  0  0
 16 17  1  0  0  0  0
 16 43  1  0  0  0  0
 17 18  1  0  0  0  0
 18 19  1  0  0  0  0
 18 44  1  0  0  0  0
 18 45  1  0  0  0  0
 19 20  1  0  0  0  0
 19 22  1  0  0  0  0
 19 46  1  0  0  0  0
 20 21  1  0  0  0  0
 20 47  1  0  0  0  0
 20 48  1  0  0  0  0
 21 49  1  0  0  0  0
 22 26  1  0  0  0  0
 22 23  1  0  0  0  0
 22 50  1  0  0  0  0
 23 24  1  0  0  0  0
 23 51  1  0  0  0  0
 23 52  1  0  0  0  0
 24 25  1  0  0  0  0
 24 53  1  0  0  0  0
 24 54  1  0  0  0  0
 25 26  1  0  0  0  0
 26 55  1  0  0  0  0
 26 56  1  0  0  0  0
 27 28  1  0  0  0  0
 27 29  1  0  0  0  0
 27 62  1  0  0  0  0
 28 57  1  0  0  0  0
 28 58  1  0  0  0  0
 28 59  1  0  0  0  0
 29 60  1  0  0  0  0
 29 61  1  0  0  0  0
M  CHG  1  27   1
M  END
> <s_m_source_file>
AV-unprocessed.smi

> <i_m_source_file_index>
21

> <i_lp_mmshare_version>
43012

> <i_f3d_flags>
0

> <s_epik_input>
W0NIM11PW0NASF0xW0NIMl1bQ0BIXShOKFtDSDNdKVtDSDJdMSlbQ0gyXU4oW0NIM10pYyhuW2NIXW4yKWMoYzIzKW5bY0hdbjNbQ0gyXVtDQEhdKFtDSDJdW09IXSlbQ0BASF00W0NIMl1bQ0gyXU9bQ0gyXTQ=

> <s_epik_cmdline>
J2VwaWtfcHl0aG9uJywgJy1waCcsICc3LjAnLCAnLXRuJywgJzgnLCAnLW1hJywgJzIwMCcsICctbWV0YWxfYmluZGluZycsICctaW1hZScsICc8aW5maWxlLm1hZT4nLCAnLW9tYWUnLCAnPG91dGZpbGUubWFlPic=

> <r_lp_tautomer_probability>
1

> <r_epik_Ionization_Penalty>
0.0157465

> <r_epik_Ionization_Penalty_Charging>
0.015354

> <r_epik_Ionization_Penalty_Neutral>
0.000392529

> <r_epik_State_Penalty>
0.0120612

> <r_epik_Charging_Adjusted_Penalty>
0.0274152

> <i_epik_Tot_Q>
1

> <i_epik_Tot_abs_Q>
1

> <r_epik_Metal_State_Penalty>
0.0121253

> <b_epik_Metal_Only>
0

> <s_lp_Force_Field>
OPLS_2005

> <r_lp_Energy>
59.339

> <b_lp_Chiralities_Consistent>
1

> <s_lp_Variant>
AV-unprocessed.smi:21-2

> <Gold.Version>
5.8.1

> <Gold.Id.Protein>
6NUR|6NUR_protein|mol2

> <Gold.PLP.Fitness>
50.4284

> <Gold.PLP.PLP>
-44.2859

> <Gold.PLP.part.hbond>
-2.9326

> <Gold.PLP.part.metal>
0.0000

> <Gold.PLP.part.buried>
-8.5553

> <Gold.PLP.part.nonpolar>
-34.2312

> <Gold.PLP.part.repulsive>
1.3054

> <Gold.PLP.ligand.clash>
0.0000

> <Gold.PLP.ligand.torsion>
1.8277

> <Gold.PLP.Chemscore.Hbond>
3.0667

> <Gold.PLP.Chemscore.CHOScore>
0.0000

> <Gold.PLP.Chemscore.Metal>
0.0000

> <Gold.Chemscore.Hbonds>
donor molecule, donor type, donor heavy atom, donor atom, acceptor molecule, acceptor atom, score
      L1  H    27    62       P1  7948  2.00
      P1  H  6896  6907       L1    12  0.57
      P1  H  7989  7998       L1    21  0.60

> <Gold.PLP.Chemscore.Internal.Correction>
0.5979

> <Gold.Rescore>
     Score         DG    S(hbond)    S(metal)    S(lipo)     H(rot)  DE(clash)    DE(int)     intcor
     11.03     -13.82       1.93        0.00      83.49       3.08       0.08       2.71       ----

> <Gold.Chemscore.Fitness>
11.0335

> <Gold.Chemscore.DG>
-13.8223

> <Gold.Chemscore.ZeroCoef>
-5.4800

> <Gold.Chemscore.Hbond>
1.9305

> <Gold.Chemscore.Metal>
0.0000

> <Gold.Chemscore.Lipo>
83.4908

> <Gold.Chemscore.Internal_Hbond>
0.0000

> <Gold.Chemscore.DEClash>
0.0786

> <Gold.Chemscore.DEInternal>
2.7103

> <Gold.Chemscore.Rot>
3.0758

> <Gold.Chemscore.Internal.Correction>
   9.000000E+99

> <Gold.Chemscore.Hbonds>
donor molecule, donor type, donor heavy atom, donor atom, acceptor molecule, acceptor atom, score
      L1  H    27    62       P1  7948  0.93
      P1  H  6896  6907       L1    12  0.14
      P1  H  7989  7998       L1    21  0.04

> <Gold.Chemscore.Hbond.Weighted>
-6.4480

> <Gold.Chemscore.Metal.Weighted>
-0.0000

> <Gold.Chemscore.Lipo.Weighted>
-9.7684

> <Gold.Chemscore.Internal_Hbond.Weighted>
0.0000

> <Gold.Chemscore.DEClash.Weighted>
0.0786

> <Gold.Chemscore.DEInternal.Weighted>
2.7103

> <Gold.Chemscore.Rot.Weighted>
7.8741

> <Gold.Chemscore.Internal.Correction.Weighted>
   9.000000E+99

> <Gold.Protein.RotatedTorsions>
[ 6907 6896 6895 6894 ] final -153.67 input  -60.11 | X-H torsion
[ 7974 7965 7964 7962 ] final  104.02 input  175.53 | X-H torsion
[ 8008 7997 7996 7995 ] final   15.79 input   59.86 | X-H torsion
[ 10167 10162 10161 10158 ] final  -25.28 input  -65.29 | X-H torsion
[ 10718 10713 10712 10709 ] final  -45.40 input   66.30 | X-H torsion
[ 10763 10752 10751 10750 ] final   38.96 input  -60.55 | X-H torsion
[ 11005 11000 10999 10996 ] final  148.16 input  -57.11 | X-H torsion

> <Gold.Protein.ActiveResidues>
 VAL166  LYS551  ARG553  GLY616  TRP617  ASP618  TYR619  PRO620  LYS621  CYS622 
 ASP623  PHE694  ASN695  SER759  ASP760  ASP761  ALA762  ILE779  LEU786  VAL792 
 PHE793  MET794  SER795  GLU796  ALA797  LYS798  CYS799  TRP800  GLU811  SER814 

> <Gold.Protein.RotatedAtoms>
  151.2461  133.4374  159.2609 H   0  0  0  0  0  0  0  0  0  0  0  0  # atno 6907 bound_to 6896
  151.0660  134.9768  159.8295 H   0  0  0  0  0  0  0  0  0  0  0  0  # atno 6908 bound_to 6896
  152.5405  134.2409  159.8914 H   0  0  0  0  0  0  0  0  0  0  0  0  # atno 6909 bound_to 6896
  145.3382  139.2469  143.3623 H   0  0  0  0  0  0  0  0  0  0  0  0  # atno 7974 bound_to 7965
  154.8677  140.2954  155.5500 H   0  0  0  0  0  0  0  0  0  0  0  0  # atno 8008 bound_to 7997
  156.3021  140.2466  156.3594 H   0  0  0  0  0  0  0  0  0  0  0  0  # atno 8009 bound_to 7997
  154.8850  140.0396  157.1794 H   0  0  0  0  0  0  0  0  0  0  0  0  # atno 8010 bound_to 7997
  140.7287  143.4279  151.0848 H   0  0  0  0  0  0  0  0  0  0  0  0  # atno 10167 bound_to 10162
  156.2287  130.4171  149.8901 H   0  0  0  0  0  0  0  0  0  0  0  0  # atno 10718 bound_to 10713
  152.9983  135.6234  154.2388 H   0  0  0  0  0  0  0  0  0  0  0  0  # atno 10763 bound_to 10752
  154.2129  135.2799  155.2953 H   0  0  0  0  0  0  0  0  0  0  0  0  # atno 10764 bound_to 10752
  154.5591  135.5710  153.7050 H   0  0  0  0  0  0  0  0  0  0  0  0  # atno 10765 bound_to 10752
  140.0936  134.9026  157.1689 H   0  0  0  0  0  0  0  0  0  0  0  0  # atno 11005 bound_to 11000
  146.3018  140.3974  142.8701 LP  0  0  0  0  0  0  0  0  0  0  0  0  # atno 17320 bound_to 7965
  144.8810  140.7401  143.5986 LP  0  0  0  0  0  0  0  0  0  0  0  0  # atno 17321 bound_to 7965
  139.7933  143.8188  152.3154 LP  0  0  0  0  0  0  0  0  0  0  0  0  # atno 17342 bound_to 10162
  139.8179  144.7308  150.9611 LP  0  0  0  0  0  0  0  0  0  0  0  0  # atno 17343 bound_to 10162
  156.6523  130.8748  151.3533 LP  0  0  0  0  0  0  0  0  0  0  0  0  # atno 17370 bound_to 10713
  157.7123  130.9455  150.1131 LP  0  0  0  0  0  0  0  0  0  0  0  0  # atno 17371 bound_to 10713
  140.3317  134.2802  155.7227 LP  0  0  0  0  0  0  0  0  0  0  0  0  # atno 17394 bound_to 11000
  141.2085  133.7775  157.0053 LP  0  0  0  0  0  0  0  0  0  0  0  0  # atno 17395 bound_to 11000

$$$$
