AV-unprocessed.smi:157|AV-procd|sdf|1298|dock4
  -GOLD-   2262018583D 1   1.00000     0.00000
 Structure written by MMmdl.
 35 37  0  0  0  0  0  0  0  0  1 V2000
  149.2528  138.5787  153.5660 O   0  0  0  0  0  0  0  0  0  0  0  0
  148.5749  139.3076  154.5678 C   0  0  0  0  0  0  0  0  0  0  0  0
  148.8419  140.8205  154.4223 C   0  0  2  0  0  0  0  0  0  0  0  0
  150.2213  141.0409  154.7228 O   0  0  0  0  0  0  0  0  0  0  0  0
  150.3640  141.7089  155.9430 C   0  0  2  0  0  0  0  0  0  0  0  0
  151.3499  140.9672  156.7912 N   0  0  0  0  0  0  0  0  0  0  0  0
  151.7900  139.7168  156.5956 C   0  0  0  0  0  0  0  0  0  0  0  0
  152.6518  139.2893  157.5025 N   0  0  0  0  0  0  0  0  0  0  0  0
  152.7857  140.3689  158.3736 C   0  0  0  0  0  0  0  0  0  0  0  0
  151.9858  141.4207  157.9501 C   0  0  0  0  0  0  0  0  0  0  0  0
  151.6977  142.6957  158.3981 N   0  0  0  0  0  0  0  0  0  0  0  0
  152.5165  143.2443  159.2394 C   0  0  0  0  0  0  0  0  0  0  0  0
  153.6370  142.7219  159.8694 N   0  0  0  0  0  0  0  0  0  0  0  0
  153.6467  141.4329  160.5401 C   0  0  0  0  0  0  0  0  0  0  0  0
  153.6754  140.2406  159.5761 C   0  0  2  0  0  0  0  0  0  0  0  0
  154.9923  140.0589  159.0975 O   0  0  0  0  0  0  0  0  0  0  0  0
  148.9940  141.7211  156.6149 C   0  0  0  0  0  0  0  0  0  0  0  0
  148.0894  141.7367  155.4035 C   0  0  2  0  0  0  0  0  0  0  0  0
  146.7795  141.3145  155.7246 O   0  0  0  0  0  0  0  0  0  0  0  0
  148.6582  141.1249  153.3910 H   0  0  0  0  0  0  0  0  0  0  0  0
  150.7870  142.7005  155.7784 H   0  0  0  0  0  0  0  0  0  0  0  0
  153.4158  139.3401  160.1338 H   0  0  0  0  0  0  0  0  0  0  0  0
  148.0471  142.7479  154.9961 H   0  0  0  0  0  0  0  0  0  0  0  0
  149.4040  139.1503  152.8286 H   0  0  0  0  0  0  0  0  0  0  0  0
  147.5090  139.0813  154.5401 H   0  0  0  0  0  0  0  0  0  0  0  0
  148.9485  138.9584  155.5307 H   0  0  0  0  0  0  0  0  0  0  0  0
  151.4680  139.0993  155.7703 H   0  0  0  0  0  0  0  0  0  0  0  0
  152.3364  144.2780  159.5378 H   0  0  0  0  0  0  0  0  0  0  0  0
  154.2896  143.3616  160.2990 H   0  0  0  0  0  0  0  0  0  0  0  0
  154.4804  141.3855  161.2412 H   0  0  0  0  0  0  0  0  0  0  0  0
  152.7391  141.3756  161.1428 H   0  0  0  0  0  0  0  0  0  0  0  0
  155.4876  139.6057  159.7631 H   0  0  0  0  0  0  0  0  0  0  0  0
  148.8576  140.8088  157.1985 H   0  0  0  0  0  0  0  0  0  0  0  0
  148.8796  142.5866  157.2683 H   0  0  0  0  0  0  0  0  0  0  0  0
  146.2710  142.0734  155.9671 H   0  0  0  0  0  0  0  0  0  0  0  0
  1  2  1  0  0  0  0
  1 24  1  0  0  0  0
  2  3  1  0  0  0  0
  2 25  1  0  0  0  0
  2 26  1  0  0  0  0
  3 20  1  0  0  0  0
  3 18  1  0  0  0  0
  3  4  1  0  0  0  0
  4  5  1  0  0  0  0
  5 21  1  0  0  0  0
  5  6  1  0  0  0  0
  5 17  1  0  0  0  0
  6 10  1  0  0  0  0
  6  7  1  0  0  0  0
  7  8  2  0  0  0  0
  7 27  1  0  0  0  0
  8  9  1  0  0  0  0
  9 15  1  0  0  0  0
  9 10  2  0  0  0  0
 10 11  1  0  0  0  0
 11 12  2  0  0  0  0
 12 13  1  0  0  0  0
 12 28  1  0  0  0  0
 13 14  1  0  0  0  0
 13 29  1  0  0  0  0
 14 15  1  0  0  0  0
 14 30  1  0  0  0  0
 14 31  1  0  0  0  0
 15 22  1  0  0  0  0
 15 16  1  0  0  0  0
 16 32  1  0  0  0  0
 17 18  1  0  0  0  0
 17 33  1  0  0  0  0
 17 34  1  0  0  0  0
 18 23  1  0  0  0  0
 18 19  1  0  0  0  0
 19 35  1  0  0  0  0
M  END
> <s_m_source_file>
AV-unprocessed.smi

> <i_m_source_file_index>
157

> <i_lp_mmshare_version>
43012

> <i_f3d_flags>
0

> <s_epik_input>
W09IXVtDSDJdW0NASF0xT1tDQEhdKFtDSDJdW0NAQEhdMVtPSF0pbihbY0hdbjIpYyhjMjMpTj1bQ0hdW05IXVtDSDJdW0NASF0zW09IXQ==

> <s_epik_cmdline>
J2VwaWtfcHl0aG9uJywgJy1waCcsICc3LjAnLCAnLXRuJywgJzgnLCAnLW1hJywgJzIwMCcsICctbWV0YWxfYmluZGluZycsICctaW1hZScsICc8aW5maWxlLm1hZT4nLCAnLW9tYWUnLCAnPG91dGZpbGUubWFlPic=

> <r_lp_tautomer_probability>
1

> <r_epik_Ionization_Penalty>
0.0357149

> <r_epik_Ionization_Penalty_Charging>
0.0355056

> <r_epik_Ionization_Penalty_Neutral>
0.000209255

> <r_epik_State_Penalty>
0.0296046

> <r_epik_Charging_Adjusted_Penalty>
0.0651102

> <i_epik_Tot_Q>
0

> <i_epik_Tot_abs_Q>
0

> <r_epik_Metal_State_Penalty>
3.03559e-05

> <b_epik_Metal_Only>
0

> <s_epik_Chemistry_Notes>
This compound has an imine and may undergo hydrolysis. This compound contains an acetal/aminal-like group ( X-CH(R)-Y where X, Y are N, S, or O) that may be acid/base labile, releasing an aldehyde.

> <s_lp_Force_Field>
OPLS_2005

> <r_lp_Energy>
46.5194

> <b_lp_Chiralities_Consistent>
1

> <s_lp_Variant>
AV-unprocessed.smi:157-8

> <Gold.Version>
5.8.1

> <Gold.Id.Protein>
6NUR|6NUR_protein|mol2

> <Gold.PLP.Fitness>
40.1070

> <Gold.PLP.PLP>
-32.6304

> <Gold.PLP.part.hbond>
-5.0000

> <Gold.PLP.part.metal>
0.0000

> <Gold.PLP.part.buried>
-4.0316

> <Gold.PLP.part.nonpolar>
-24.5608

> <Gold.PLP.part.repulsive>
0.1663

> <Gold.PLP.ligand.clash>
0.0000

> <Gold.PLP.ligand.torsion>
0.4315

> <Gold.PLP.Chemscore.Hbond>
2.7760

> <Gold.PLP.Chemscore.CHOScore>
0.0000

> <Gold.PLP.Chemscore.Metal>
0.0000

> <Gold.Chemscore.Hbonds>
donor molecule, donor type, donor heavy atom, donor atom, acceptor molecule, acceptor atom, score
      L1  H     1    24       P1  7957  1.00
      P1  H  7989  7998       L1     4  0.66
      P1  H  7997  8008       L1    16  1.00

> <Gold.PLP.Chemscore.Internal.Correction>
0.0117

> <Gold.Rescore>
     Score         DG    S(hbond)    S(metal)    S(lipo)     H(rot)  DE(clash)    DE(int)     intcor
      9.84     -10.45       2.69        0.00      45.26       3.64       0.02       0.59       ----

> <Gold.Chemscore.Fitness>
9.8421

> <Gold.Chemscore.DG>
-10.4483

> <Gold.Chemscore.ZeroCoef>
-5.4800

> <Gold.Chemscore.Hbond>
2.6891

> <Gold.Chemscore.Metal>
0.0000

> <Gold.Chemscore.Lipo>
45.2592

> <Gold.Chemscore.Internal_Hbond>
0.0000

> <Gold.Chemscore.DEClash>
0.0203

> <Gold.Chemscore.DEInternal>
0.5859

> <Gold.Chemscore.Rot>
3.6362

> <Gold.Chemscore.Internal.Correction>
   9.000000E+99

> <Gold.Chemscore.Hbonds>
donor molecule, donor type, donor heavy atom, donor atom, acceptor molecule, acceptor atom, score
      L1  H     1    24       P1  7957  0.99
      P1  H  7989  7998       L1     4  0.65
      P1  H  7997  8008       L1    16  0.92

> <Gold.Chemscore.Hbond.Weighted>
-8.9817

> <Gold.Chemscore.Metal.Weighted>
-0.0000

> <Gold.Chemscore.Lipo.Weighted>
-5.2953

> <Gold.Chemscore.Internal_Hbond.Weighted>
0.0000

> <Gold.Chemscore.DEClash.Weighted>
0.0203

> <Gold.Chemscore.DEInternal.Weighted>
0.5859

> <Gold.Chemscore.Rot.Weighted>
9.3087

> <Gold.Chemscore.Internal.Correction.Weighted>
   9.000000E+99

> <Gold.Protein.RotatedTorsions>
[ 6907 6896 6895 6894 ] final -131.68 input  -60.11 | X-H torsion
[ 7974 7965 7964 7962 ] final  -79.80 input  175.53 | X-H torsion
[ 8008 7997 7996 7995 ] final -128.92 input   59.86 | X-H torsion
[ 10167 10162 10161 10158 ] final   58.28 input  -65.29 | X-H torsion
[ 10718 10713 10712 10709 ] final   32.28 input   66.30 | X-H torsion
[ 10763 10752 10751 10750 ] final  -84.91 input  -60.55 | X-H torsion
[ 11005 11000 10999 10996 ] final -132.08 input  -57.11 | X-H torsion

> <Gold.Protein.ActiveResidues>
 VAL166  LYS551  ARG553  GLY616  TRP617  ASP618  TYR619  PRO620  LYS621  CYS622 
 ASP623  PHE694  ASN695  SER759  ASP760  ASP761  ALA762  ILE779  LEU786  VAL792 
 PHE793  MET794  SER795  GLU796  ALA797  LYS798  CYS799  TRP800  GLU811  SER814 

> <Gold.Protein.RotatedAtoms>
  150.9537  133.6521  159.2766 H   0  0  0  0  0  0  0  0  0  0  0  0  # atno 6907 bound_to 6896
  151.3867  135.0948  159.9523 H   0  0  0  0  0  0  0  0  0  0  0  0  # atno 6908 bound_to 6896
  152.5120  133.9060  159.7519 H   0  0  0  0  0  0  0  0  0  0  0  0  # atno 6909 bound_to 6896
  145.5685  140.9470  143.1408 H   0  0  0  0  0  0  0  0  0  0  0  0  # atno 7974 bound_to 7965
  155.2706  140.0440  157.3006 H   0  0  0  0  0  0  0  0  0  0  0  0  # atno 8008 bound_to 7997
  154.5656  140.2359  155.8238 H   0  0  0  0  0  0  0  0  0  0  0  0  # atno 8009 bound_to 7997
  156.2082  140.3006  155.9681 H   0  0  0  0  0  0  0  0  0  0  0  0  # atno 8010 bound_to 7997
  140.1889  144.4106  150.6580 H   0  0  0  0  0  0  0  0  0  0  0  0  # atno 10167 bound_to 10162
  157.2832  130.7265  149.6568 H   0  0  0  0  0  0  0  0  0  0  0  0  # atno 10718 bound_to 10713
  154.6050  135.5504  153.7413 H   0  0  0  0  0  0  0  0  0  0  0  0  # atno 10763 bound_to 10752
  153.0170  135.6375  154.1661 H   0  0  0  0  0  0  0  0  0  0  0  0  # atno 10764 bound_to 10752
  154.1600  135.2898  155.3091 H   0  0  0  0  0  0  0  0  0  0  0  0  # atno 10765 bound_to 10752
  140.9202  134.1455  157.4320 H   0  0  0  0  0  0  0  0  0  0  0  0  # atno 11005 bound_to 11000
  144.7449  139.7347  143.7296 LP  0  0  0  0  0  0  0  0  0  0  0  0  # atno 17320 bound_to 7965
  146.1801  139.4990  142.9872 LP  0  0  0  0  0  0  0  0  0  0  0  0  # atno 17321 bound_to 7965
  140.6469  143.2215  151.6165 LP  0  0  0  0  0  0  0  0  0  0  0  0  # atno 17342 bound_to 10162
  139.5264  144.3046  152.1045 LP  0  0  0  0  0  0  0  0  0  0  0  0  # atno 17343 bound_to 10162
  155.9665  130.4331  150.4994 LP  0  0  0  0  0  0  0  0  0  0  0  0  # atno 17370 bound_to 10713
  157.2942  131.0632  151.2113 LP  0  0  0  0  0  0  0  0  0  0  0  0  # atno 17371 bound_to 10713
  139.8774  134.9968  156.5815 LP  0  0  0  0  0  0  0  0  0  0  0  0  # atno 17394 bound_to 11000
  140.7998  133.8514  155.8717 LP  0  0  0  0  0  0  0  0  0  0  0  0  # atno 17395 bound_to 11000

$$$$
