AV-unprocessed.smi:1099|AV-procd|sdf|4756|dock5
  -GOLD-   22720 3293D 1   1.00000     0.00000
 Structure written by MMmdl.
 41 43  0  0  0  0  0  0  0  0  1 V2000
  151.6687  145.2058  159.1964 C   0  0  0  0  0  0  0  0  0  0  0  0
  151.2202  144.5297  160.4961 C   0  0  0  0  0  0  0  0  0  0  0  0
  152.0776  143.3642  160.8615 C   0  0  0  0  0  0  0  0  0  0  0  0
  152.4597  142.4279  159.9888 N   0  0  0  0  0  0  0  0  0  0  0  0
  153.2835  141.4569  160.5670 C   0  0  0  0  0  0  0  0  0  0  0  0
  153.7927  140.3170  159.7385 C   0  0  0  0  0  0  0  0  0  0  0  0
  152.6736  139.3339  159.3562 C   0  0  0  0  0  0  0  0  0  0  0  0
  152.0979  139.6512  158.0546 N   0  0  0  0  0  0  0  0  0  0  0  0
  152.5649  139.2083  156.8772 C   0  0  0  0  0  0  0  0  0  0  0  0
  153.5577  138.4858  156.7797 O   0  0  0  0  0  0  0  0  0  0  0  0
  151.8004  139.6786  155.6272 C   0  0  1  0  0  0  0  0  0  0  0  0
  151.5212  138.5691  154.5830 C   0  0  0  0  0  0  0  0  0  0  0  0
  149.9998  138.6737  154.3659 C   0  0  1  0  0  0  0  0  0  0  0  0
  149.2638  138.1194  155.6001 C   0  0  0  0  0  0  0  0  0  0  0  0
  149.4732  139.2294  156.6464 C   0  0  0  0  0  0  0  0  0  0  0  0
  150.3771  140.2348  155.8992 C   0  0  2  0  0  0  0  0  0  0  0  0
  149.7663  140.1740  154.5021 C   0  0  0  0  0  0  0  0  0  0  0  0
  153.5332  141.6813  161.8979 C   0  0  0  0  0  0  0  0  0  0  0  0
  152.7435  143.1236  162.4730 S   0  0  0  0  0  0  0  0  0  0  0  0
  151.0275  146.0548  158.9589 H   0  0  0  0  0  0  0  0  0  0  0  0
  151.6275  144.5111  158.3570 H   0  0  0  0  0  0  0  0  0  0  0  0
  152.6919  145.5734  159.2776 H   0  0  0  0  0  0  0  0  0  0  0  0
  151.2414  145.2487  161.3155 H   0  0  0  0  0  0  0  0  0  0  0  0
  150.1871  144.1928  160.4030 H   0  0  0  0  0  0  0  0  0  0  0  0
  154.2666  140.6994  158.8335 H   0  0  0  0  0  0  0  0  0  0  0  0
  154.5761  139.7887  160.2834 H   0  0  0  0  0  0  0  0  0  0  0  0
  153.0483  138.3090  159.3587 H   0  0  0  0  0  0  0  0  0  0  0  0
  151.8743  139.3732  160.0969 H   0  0  0  0  0  0  0  0  0  0  0  0
  151.2818  140.2459  158.0488 H   0  0  0  0  0  0  0  0  0  0  0  0
  152.3901  140.4593  155.1426 H   0  0  0  0  0  0  0  0  0  0  0  0
  152.0536  138.7849  153.6556 H   0  0  0  0  0  0  0  0  0  0  0  0
  151.8181  137.5675  154.8972 H   0  0  0  0  0  0  0  0  0  0  0  0
  149.6634  138.2373  153.4249 H   0  0  0  0  0  0  0  0  0  0  0  0
  148.2017  137.9811  155.3946 H   0  0  0  0  0  0  0  0  0  0  0  0
  149.6705  137.1610  155.9251 H   0  0  0  0  0  0  0  0  0  0  0  0
  148.5180  139.6952  156.8936 H   0  0  0  0  0  0  0  0  0  0  0  0
  149.8953  138.8608  157.5805 H   0  0  0  0  0  0  0  0  0  0  0  0
  150.3792  141.2314  156.3420 H   0  0  0  0  0  0  0  0  0  0  0  0
  150.3091  140.7666  153.7634 H   0  0  0  0  0  0  0  0  0  0  0  0
  148.7111  140.4522  154.4758 H   0  0  0  0  0  0  0  0  0  0  0  0
  154.1332  141.0877  162.5720 H   0  0  0  0  0  0  0  0  0  0  0  0
  1  2  1  0  0  0  0
  1 20  1  0  0  0  0
  1 21  1  0  0  0  0
  1 22  1  0  0  0  0
  2  3  1  0  0  0  0
  2 23  1  0  0  0  0
  2 24  1  0  0  0  0
  3 19  1  0  0  0  0
  3  4  2  0  0  0  0
  4  5  1  0  0  0  0
  5  6  1  0  0  0  0
  5 18  2  0  0  0  0
  6  7  1  0  0  0  0
  6 25  1  0  0  0  0
  6 26  1  0  0  0  0
  7  8  1  0  0  0  0
  7 27  1  0  0  0  0
  7 28  1  0  0  0  0
  8  9  1  0  0  0  0
  8 29  1  0  0  0  0
  9 10  2  0  0  0  0
  9 11  1  0  0  0  0
 11 16  1  0  0  0  0
 11 12  1  0  0  0  0
 11 30  1  0  0  0  0
 12 13  1  0  0  0  0
 12 31  1  0  0  0  0
 12 32  1  0  0  0  0
 13 17  1  0  0  0  0
 13 14  1  0  0  0  0
 13 33  1  0  0  0  0
 14 15  1  0  0  0  0
 14 34  1  0  0  0  0
 14 35  1  0  0  0  0
 15 16  1  0  0  0  0
 15 36  1  0  0  0  0
 15 37  1  0  0  0  0
 16 17  1  0  0  0  0
 16 38  1  0  0  0  0
 17 39  1  0  0  0  0
 17 40  1  0  0  0  0
 18 19  1  0  0  0  0
 18 41  1  0  0  0  0
M  END
> <s_m_source_file>
AV-unprocessed.smi

> <i_m_source_file_index>
1099

> <i_lp_mmshare_version>
43012

> <i_f3d_flags>
0

> <s_epik_input>
W0NIM11bQ0gyXWMxbmMoW2NIXXMxKVtDSDJdW0NIMl1bTkhdQyg9TylbQ0BIXShbQ0gyXVtDQEBIXTIzKVtDQEBIXShbQ0gyXTMpW0NIMl1bQ0gyXTI=

> <s_epik_cmdline>
J2VwaWtfcHl0aG9uJywgJy1waCcsICc3LjAnLCAnLXRuJywgJzgnLCAnLW1hJywgJzIwMCcsICctbWV0YWxfYmluZGluZycsICctaW1hZScsICc8aW5maWxlLm1hZT4nLCAnLW9tYWUnLCAnPG91dGZpbGUubWFlPic=

> <r_epik_Ionization_Penalty>
0.00110131

> <r_epik_Ionization_Penalty_Charging>
0

> <r_epik_Ionization_Penalty_Neutral>
0.00110131

> <r_epik_State_Penalty>
0.00072257

> <r_epik_Charging_Adjusted_Penalty>
0.00072257

> <i_epik_Tot_Q>
0

> <i_epik_Tot_abs_Q>
0

> <r_epik_Metal_State_Penalty>
-0

> <b_epik_Metal_Only>
0

> <s_lp_Force_Field>
OPLS_2005

> <r_lp_Energy>
38.0082

> <b_lp_Chiralities_Consistent>
1

> <s_lp_Variant>
AV-unprocessed.smi:1099-2

> <Gold.Version>
5.8.1

> <Gold.Id.Protein>
6NUR|6NUR_protein|mol2

> <Gold.PLP.Fitness>
43.0468

> <Gold.PLP.PLP>
-44.4391

> <Gold.PLP.part.hbond>
-1.0000

> <Gold.PLP.part.metal>
0.0000

> <Gold.PLP.part.buried>
-3.6558

> <Gold.PLP.part.nonpolar>
-39.2542

> <Gold.PLP.part.repulsive>
0.0810

> <Gold.PLP.ligand.clash>
0.0000

> <Gold.PLP.ligand.torsion>
1.0650

> <Gold.PLP.Chemscore.Hbond>
0.2387

> <Gold.PLP.Chemscore.CHOScore>
0.0000

> <Gold.PLP.Chemscore.Metal>
0.0000

> <Gold.Chemscore.Hbonds>
donor molecule, donor type, donor heavy atom, donor atom, acceptor molecule, acceptor atom, score
      P1  H  7997  8008       L1    10  0.29

> <Gold.PLP.Chemscore.Internal.Correction>
0.0217

> <Gold.Rescore>
     Score         DG    S(hbond)    S(metal)    S(lipo)     H(rot)  DE(clash)    DE(int)     intcor
     14.88     -16.32       0.00        0.00     123.65       1.42       0.11       1.33       ----

> <Gold.Chemscore.Fitness>
14.8843

> <Gold.Chemscore.DG>
-16.3222

> <Gold.Chemscore.ZeroCoef>
-5.4800

> <Gold.Chemscore.Hbond>
0.0005

> <Gold.Chemscore.Metal>
0.0000

> <Gold.Chemscore.Lipo>
123.6454

> <Gold.Chemscore.Internal_Hbond>
0.0000

> <Gold.Chemscore.DEClash>
0.1121

> <Gold.Chemscore.DEInternal>
1.3258

> <Gold.Chemscore.Rot>
1.4165

> <Gold.Chemscore.Internal.Correction>
   9.000000E+99

> <Gold.Chemscore.Hbonds>
donor molecule, donor type, donor heavy atom, donor atom, acceptor molecule, acceptor atom, score
      P1  H  7997  8008       L1    10  0.01

> <Gold.Chemscore.Hbond.Weighted>
-0.0018

> <Gold.Chemscore.Metal.Weighted>
-0.0000

> <Gold.Chemscore.Lipo.Weighted>
-14.4665

> <Gold.Chemscore.Internal_Hbond.Weighted>
0.0000

> <Gold.Chemscore.DEClash.Weighted>
0.1121

> <Gold.Chemscore.DEInternal.Weighted>
1.3258

> <Gold.Chemscore.Rot.Weighted>
3.6262

> <Gold.Chemscore.Internal.Correction.Weighted>
   9.000000E+99

> <Gold.Protein.RotatedTorsions>
[ 6907 6896 6895 6894 ] final   -9.45 input  -60.11 | X-H torsion
[ 7974 7965 7964 7962 ] final   27.56 input  175.53 | X-H torsion
[ 8008 7997 7996 7995 ] final  -89.50 input   59.86 | X-H torsion
[ 10167 10162 10161 10158 ] final  113.46 input  -65.29 | X-H torsion
[ 10718 10713 10712 10709 ] final  176.90 input   66.30 | X-H torsion
[ 10763 10752 10751 10750 ] final   -8.27 input  -60.55 | X-H torsion
[ 11005 11000 10999 10996 ] final  167.73 input  -57.11 | X-H torsion

> <Gold.Protein.ActiveResidues>
 VAL166  LYS551  ARG553  GLY616  TRP617  ASP618  TYR619  PRO620  LYS621  CYS622 
 ASP623  PHE694  ASN695  SER759  ASP760  ASP761  ALA762  ILE779  LEU786  VAL792 
 PHE793  MET794  SER795  GLU796  ALA797  LYS798  CYS799  TRP800  GLU811  SER814 

> <Gold.Protein.RotatedAtoms>
  151.4176  135.0993  159.9603 H   0  0  0  0  0  0  0  0  0  0  0  0  # atno 6907 bound_to 6896
  152.4999  133.8738  159.7322 H   0  0  0  0  0  0  0  0  0  0  0  0  # atno 6908 bound_to 6896
  150.9247  133.6781  159.2852 H   0  0  0  0  0  0  0  0  0  0  0  0  # atno 6909 bound_to 6896
  146.1777  139.7175  142.8922 H   0  0  0  0  0  0  0  0  0  0  0  0  # atno 7974 bound_to 7965
  154.6874  140.0541  157.0328 H   0  0  0  0  0  0  0  0  0  0  0  0  # atno 8008 bound_to 7997
  155.0865  140.3215  155.4567 H   0  0  0  0  0  0  0  0  0  0  0  0  # atno 8009 bound_to 7997
  156.2716  140.2055  156.5993 H   0  0  0  0  0  0  0  0  0  0  0  0  # atno 8010 bound_to 7997
  139.6459  144.7126  151.2143 H   0  0  0  0  0  0  0  0  0  0  0  0  # atno 10167 bound_to 10162
  156.9132  130.9916  151.3017 H   0  0  0  0  0  0  0  0  0  0  0  0  # atno 10718 bound_to 10713
  153.4381  135.7013  153.6187 H   0  0  0  0  0  0  0  0  0  0  0  0  # atno 10763 bound_to 10752
  153.4573  135.3744  155.2319 H   0  0  0  0  0  0  0  0  0  0  0  0  # atno 10764 bound_to 10752
  154.8727  135.4011  154.3775 H   0  0  0  0  0  0  0  0  0  0  0  0  # atno 10765 bound_to 10752
  140.2798  134.7759  157.3748 H   0  0  0  0  0  0  0  0  0  0  0  0  # atno 11005 bound_to 11000
  145.4164  141.0402  143.2988 LP  0  0  0  0  0  0  0  0  0  0  0  0  # atno 17320 bound_to 7965
  144.8263  139.5704  143.6964 LP  0  0  0  0  0  0  0  0  0  0  0  0  # atno 17321 bound_to 7965
  140.7514  143.6231  150.8494 LP  0  0  0  0  0  0  0  0  0  0  0  0  # atno 17342 bound_to 10162
  139.9874  143.5884  152.2922 LP  0  0  0  0  0  0  0  0  0  0  0  0  # atno 17343 bound_to 10162
  157.5954  130.8474  149.8721 LP  0  0  0  0  0  0  0  0  0  0  0  0  # atno 17370 bound_to 10713
  156.0526  130.3714  150.1166 LP  0  0  0  0  0  0  0  0  0  0  0  0  # atno 17371 bound_to 10713
  140.1294  134.5115  155.8118 LP  0  0  0  0  0  0  0  0  0  0  0  0  # atno 17394 bound_to 11000
  141.2164  133.6784  156.7012 LP  0  0  0  0  0  0  0  0  0  0  0  0  # atno 17395 bound_to 11000

$$$$
