AV-unprocessed.smi:1766|AV-procd|sdf|7137|dock9
  -GOLD-   22720 8373D 1   1.00000     0.00000
 Structure written by MMmdl.
 40 42  0  0  0  0  0  0  0  0  2 V2000
  149.5759  137.3125  157.8472 N   0  0  0  0  0  0  0  0  0  0  0  0
  150.8551  137.5417  158.1549 C   0  0  0  0  0  0  0  0  0  0  0  0
  151.4024  137.0173  159.1227 O   0  0  0  0  0  0  0  0  0  0  0  0
  151.6352  138.4989  157.2507 C   0  0  0  0  0  0  0  0  0  0  0  0
  151.7788  139.8467  157.8931 C   0  0  0  0  0  0  0  0  0  0  0  0
  152.2399  140.0794  159.1566 N   0  3  0  0  0  0  0  0  0  0  0  0
  152.2340  141.4481  159.4220 C   0  0  0  0  0  0  0  0  0  0  0  0
  152.6023  142.1571  160.5612 C   0  0  0  0  0  0  0  0  0  0  0  0
  152.4703  143.5601  160.5033 C   0  0  0  0  0  0  0  0  0  0  0  0
  151.9892  144.2047  159.3452 C   0  0  0  0  0  0  0  0  0  0  0  0
  151.6216  143.4747  158.1954 C   0  0  0  0  0  0  0  0  0  0  0  0
  151.7552  142.0878  158.2612 C   0  0  0  0  0  0  0  0  0  0  0  0
  151.4966  141.0652  157.3409 N   0  0  0  0  0  0  0  0  0  0  0  0
  150.9957  141.4271  156.0043 C   0  0  0  0  0  0  0  0  0  0  0  0
  149.9063  140.4675  155.4863 C   0  0  2  0  0  0  0  0  0  0  0  0
  150.3284  139.8678  154.2771 O   0  0  0  0  0  0  0  0  0  0  0  0
  148.5713  141.1805  155.3406 C   0  0  0  0  0  0  0  0  0  0  0  0
  148.0046  141.3588  154.0602 C   0  0  0  0  0  0  0  0  0  0  0  0
  146.7637  142.0097  153.9174 C   0  0  0  0  0  0  0  0  0  0  0  0
  146.0814  142.4842  155.0541 C   0  0  0  0  0  0  0  0  0  0  0  0
  144.8887  143.1101  154.9165 F   0  0  0  0  0  0  0  0  0  0  0  0
  146.6397  142.3060  156.3343 C   0  0  0  0  0  0  0  0  0  0  0  0
  147.8802  141.6545  156.4778 C   0  0  0  0  0  0  0  0  0  0  0  0
  149.0258  136.6912  158.4229 H   0  0  0  0  0  0  0  0  0  0  0  0
  149.1596  137.7637  157.0450 H   0  0  0  0  0  0  0  0  0  0  0  0
  152.6273  138.0887  157.0596 H   0  0  0  0  0  0  0  0  0  0  0  0
  151.1376  138.5826  156.2851 H   0  0  0  0  0  0  0  0  0  0  0  0
  152.9706  141.6646  161.4495 H   0  0  0  0  0  0  0  0  0  0  0  0
  152.7427  144.1531  161.3645 H   0  0  0  0  0  0  0  0  0  0  0  0
  151.9006  145.2815  159.3386 H   0  0  0  0  0  0  0  0  0  0  0  0
  151.2533  143.9790  157.3143 H   0  0  0  0  0  0  0  0  0  0  0  0
  150.6194  142.4499  156.0457 H   0  0  0  0  0  0  0  0  0  0  0  0
  151.8429  141.4521  155.3192 H   0  0  0  0  0  0  0  0  0  0  0  0
  149.7805  139.6562  156.2043 H   0  0  0  0  0  0  0  0  0  0  0  0
  149.8261  139.0778  154.1454 H   0  0  0  0  0  0  0  0  0  0  0  0
  148.5184  140.9962  153.1819 H   0  0  0  0  0  0  0  0  0  0  0  0
  146.3346  142.1447  152.9355 H   0  0  0  0  0  0  0  0  0  0  0  0
  146.1156  142.6683  157.2065 H   0  0  0  0  0  0  0  0  0  0  0  0
  148.2981  141.5182  157.4646 H   0  0  0  0  0  0  0  0  0  0  0  0
  152.5285  139.3467  159.7924 H   0  0  0  0  0  0  0  0  0  0  0  0
  1  2  1  0  0  0  0
  1 24  1  0  0  0  0
  1 25  1  0  0  0  0
  2  3  2  0  0  0  0
  2  4  1  0  0  0  0
  4  5  1  0  0  0  0
  4 26  1  0  0  0  0
  4 27  1  0  0  0  0
  5 13  1  0  0  0  0
  5  6  2  0  0  0  0
  6  7  1  0  0  0  0
  6 40  1  0  0  0  0
  7 12  2  0  0  0  0
  7  8  1  0  0  0  0
  8  9  2  0  0  0  0
  8 28  1  0  0  0  0
  9 10  1  0  0  0  0
  9 29  1  0  0  0  0
 10 11  2  0  0  0  0
 10 30  1  0  0  0  0
 11 12  1  0  0  0  0
 11 31  1  0  0  0  0
 12 13  1  0  0  0  0
 13 14  1  0  0  0  0
 14 15  1  0  0  0  0
 14 32  1  0  0  0  0
 14 33  1  0  0  0  0
 15 16  1  0  0  0  0
 15 17  1  0  0  0  0
 15 34  1  0  0  0  0
 16 35  1  0  0  0  0
 17 23  1  0  0  0  0
 17 18  2  0  0  0  0
 18 19  1  0  0  0  0
 18 36  1  0  0  0  0
 19 20  2  0  0  0  0
 19 37  1  0  0  0  0
 20 21  1  0  0  0  0
 20 22  1  0  0  0  0
 22 23  2  0  0  0  0
 22 38  1  0  0  0  0
 23 39  1  0  0  0  0
M  CHG  1   6   1
M  END
> <s_m_source_file>
AV-unprocessed.smi

> <i_m_source_file_index>
1766

> <i_lp_mmshare_version>
43012

> <i_f3d_flags>
0

> <s_epik_input>
W2NIXTFbY0hdW2NIXVtjSF1jKGMxMiluKGMobjIpW0NIMl1DKD1PKVtOSDJdKVtDSDJdW0NASF0oW09IXSljM1tjSF1bY0hdYyhGKVtjSF1bY0hdMw==

> <s_epik_cmdline>
J2VwaWtfcHl0aG9uJywgJy1waCcsICc3LjAnLCAnLXRuJywgJzgnLCAnLW1hJywgJzIwMCcsICctbWV0YWxfYmluZGluZycsICctaW1hZScsICc8aW5maWxlLm1hZT4nLCAnLW9tYWUnLCAnPG91dGZpbGUubWFlPic=

> <r_epik_Ionization_Penalty>
1.66646

> <r_epik_Ionization_Penalty_Charging>
1.66645

> <r_epik_Ionization_Penalty_Neutral>
2.12833e-06

> <r_epik_State_Penalty>
1.76975

> <r_epik_Charging_Adjusted_Penalty>
3.43621

> <i_epik_Tot_Q>
1

> <i_epik_Tot_abs_Q>
1

> <r_epik_Metal_State_Penalty>
1.80493

> <b_epik_Metal_Only>
0

> <s_lp_Force_Field>
OPLS_2005

> <r_lp_Energy>
14.4919

> <b_lp_Chiralities_Consistent>
1

> <s_lp_Variant>
AV-unprocessed.smi:1766-3

> <Gold.Version>
5.8.1

> <Gold.Id.Protein>
6NUR|6NUR_protein|mol2

> <Gold.PLP.Fitness>
50.6707

> <Gold.PLP.PLP>
-47.6295

> <Gold.PLP.part.hbond>
-2.4145

> <Gold.PLP.part.metal>
0.0000

> <Gold.PLP.part.buried>
-7.0109

> <Gold.PLP.part.nonpolar>
-38.1433

> <Gold.PLP.part.repulsive>
0.2157

> <Gold.PLP.ligand.clash>
0.0000

> <Gold.PLP.ligand.torsion>
1.4679

> <Gold.PLP.Chemscore.Hbond>
1.9750

> <Gold.PLP.Chemscore.CHOScore>
0.0000

> <Gold.PLP.Chemscore.Metal>
0.0000

> <Gold.Chemscore.Hbonds>
donor molecule, donor type, donor heavy atom, donor atom, acceptor molecule, acceptor atom, score
      P1  H  6896  6909       L1     3  0.92
      P1  H  7989  7998       L1    16  1.00

> <Gold.PLP.Chemscore.Internal.Correction>
0.0519

> <Gold.Rescore>
     Score         DG    S(hbond)    S(metal)    S(lipo)     H(rot)  DE(clash)    DE(int)     intcor
     15.75     -17.10       1.94        0.00     110.77       3.05       0.03       1.32       ----

> <Gold.Chemscore.Fitness>
15.7525

> <Gold.Chemscore.DG>
-17.1042

> <Gold.Chemscore.ZeroCoef>
-5.4800

> <Gold.Chemscore.Hbond>
1.9353

> <Gold.Chemscore.Metal>
0.0000

> <Gold.Chemscore.Lipo>
110.7745

> <Gold.Chemscore.Internal_Hbond>
0.0000

> <Gold.Chemscore.DEClash>
0.0348

> <Gold.Chemscore.DEInternal>
1.3168

> <Gold.Chemscore.Rot>
3.0470

> <Gold.Chemscore.Internal.Correction>
   9.000000E+99

> <Gold.Chemscore.Hbonds>
donor molecule, donor type, donor heavy atom, donor atom, acceptor molecule, acceptor atom, score
      P1  H  6896  6909       L1     3  0.83
      P1  H  7989  7998       L1    16  0.78

> <Gold.Chemscore.Hbond.Weighted>
-6.4640

> <Gold.Chemscore.Metal.Weighted>
-0.0000

> <Gold.Chemscore.Lipo.Weighted>
-12.9606

> <Gold.Chemscore.Internal_Hbond.Weighted>
0.0000

> <Gold.Chemscore.DEClash.Weighted>
0.0348

> <Gold.Chemscore.DEInternal.Weighted>
1.3168

> <Gold.Chemscore.Rot.Weighted>
7.8004

> <Gold.Chemscore.Internal.Correction.Weighted>
   9.000000E+99

> <Gold.Protein.RotatedTorsions>
[ 6907 6896 6895 6894 ] final   95.79 input  -60.11 | X-H torsion
[ 7974 7965 7964 7962 ] final   15.75 input  175.53 | X-H torsion
[ 8008 7997 7996 7995 ] final -147.79 input   59.86 | X-H torsion
[ 10167 10162 10161 10158 ] final -134.32 input  -65.29 | X-H torsion
[ 10718 10713 10712 10709 ] final  179.69 input   66.30 | X-H torsion
[ 10763 10752 10751 10750 ] final  108.67 input  -60.55 | X-H torsion
[ 11005 11000 10999 10996 ] final  -81.27 input  -57.11 | X-H torsion

> <Gold.Protein.ActiveResidues>
 VAL166  LYS551  ARG553  GLY616  TRP617  ASP618  TYR619  PRO620  LYS621  CYS622 
 ASP623  PHE694  ASN695  SER759  ASP760  ASP761  ALA762  ILE779  LEU786  VAL792 
 PHE793  MET794  SER795  GLU796  ALA797  LYS798  CYS799  TRP800  GLU811  SER814 

> <Gold.Protein.RotatedAtoms>
  152.5441  134.0985  159.8307 H   0  0  0  0  0  0  0  0  0  0  0  0  # atno 6907 bound_to 6896
  151.1066  133.5196  159.2615 H   0  0  0  0  0  0  0  0  0  0  0  0  # atno 6908 bound_to 6896
  151.1931  135.0420  159.8895 H   0  0  0  0  0  0  0  0  0  0  0  0  # atno 6909 bound_to 6896
  146.2269  139.8849  142.8564 H   0  0  0  0  0  0  0  0  0  0  0  0  # atno 7974 bound_to 7965
  155.5813  140.0643  157.2782 H   0  0  0  0  0  0  0  0  0  0  0  0  # atno 8008 bound_to 7997
  154.4332  140.1851  156.1026 H   0  0  0  0  0  0  0  0  0  0  0  0  # atno 8009 bound_to 7997
  156.0303  140.3307  155.7136 H   0  0  0  0  0  0  0  0  0  0  0  0  # atno 8010 bound_to 7997
  139.8893  143.6742  152.2615 H   0  0  0  0  0  0  0  0  0  0  0  0  # atno 10167 bound_to 10162
  156.8720  130.9787  151.3072 H   0  0  0  0  0  0  0  0  0  0  0  0  # atno 10718 bound_to 10713
  153.4239  135.3805  155.2128 H   0  0  0  0  0  0  0  0  0  0  0  0  # atno 10763 bound_to 10752
  154.8746  135.3823  154.4351 H   0  0  0  0  0  0  0  0  0  0  0  0  # atno 10764 bound_to 10752
  153.4874  135.7088  153.5966 H   0  0  0  0  0  0  0  0  0  0  0  0  # atno 10765 bound_to 10752
  141.1667  133.7188  156.8397 H   0  0  0  0  0  0  0  0  0  0  0  0  # atno 11005 bound_to 11000
  145.2476  141.0032  143.3900 LP  0  0  0  0  0  0  0  0  0  0  0  0  # atno 17320 bound_to 7965
  144.9401  139.4199  143.6453 LP  0  0  0  0  0  0  0  0  0  0  0  0  # atno 17321 bound_to 7965
  139.7124  144.7618  151.1089 LP  0  0  0  0  0  0  0  0  0  0  0  0  # atno 17342 bound_to 10162
  140.7730  143.5313  150.9420 LP  0  0  0  0  0  0  0  0  0  0  0  0  # atno 17343 bound_to 10162
  157.6190  130.8641  149.9077 LP  0  0  0  0  0  0  0  0  0  0  0  0  # atno 17370 bound_to 10713
  156.0722  130.3683  150.0753 LP  0  0  0  0  0  0  0  0  0  0  0  0  # atno 17371 bound_to 10713
  140.1992  134.8909  157.3149 LP  0  0  0  0  0  0  0  0  0  0  0  0  # atno 17394 bound_to 11000
  140.2206  134.4028  155.7568 LP  0  0  0  0  0  0  0  0  0  0  0  0  # atno 17395 bound_to 11000

$$$$
