AV-unprocessed.smi:2807|AV-procd|sdf|10822|dock2
  -GOLD-   2272015263D 1   1.00000     0.00000
 Structure written by MMmdl.
 31 32  0  0  0  0  0  0  0  0  2 V2000
  151.8437  139.6932  154.9510 O   0  0  0  0  0  0  0  0  0  0  0  0
  150.9866  140.1036  155.7418 C   0  0  0  0  0  0  0  0  0  0  0  0
  149.7844  140.6974  155.4938 N   0  5  0  0  0  0  0  0  0  0  0  0
  149.1906  140.8475  154.1602 C   0  0  2  0  0  0  0  0  0  0  0  0
  147.9778  141.7866  154.2444 C   0  0  0  0  0  0  0  0  0  0  0  0
  146.7563  140.9082  154.5740 C   0  0  0  0  0  0  0  0  0  0  0  0
  147.1884  139.4498  154.3571 C   0  0  0  0  0  0  0  0  0  0  0  0
  148.5571  139.5316  153.6695 C   0  0  2  0  0  0  0  0  0  0  0  0
  149.3482  138.3794  153.8903 O   0  0  0  0  0  0  0  0  0  0  0  0
  151.2564  139.9642  157.2552 C   0  0  0  0  0  0  0  0  0  0  0  0
  150.2346  139.3295  157.8400 F   0  0  0  0  0  0  0  0  0  0  0  0
  152.3453  139.2112  157.4310 F   0  0  0  0  0  0  0  0  0  0  0  0
  151.4958  141.3321  157.8932 C   0  0  0  0  0  0  0  0  0  0  0  0
  152.0577  141.4333  159.1865 C   0  0  0  0  0  0  0  0  0  0  0  0
  152.2756  142.7130  159.7314 C   0  0  0  0  0  0  0  0  0  0  0  0
  151.9246  143.8434  158.9696 C   0  0  0  0  0  0  0  0  0  0  0  0
  151.3700  143.6418  157.6904 C   0  0  0  0  0  0  0  0  0  0  0  0
  151.1561  142.4195  157.1595 N   0  0  0  0  0  0  0  0  0  0  0  0
  149.9044  141.2206  153.4239 H   0  0  0  0  0  0  0  0  0  0  0  0
  148.1128  142.5982  154.9612 H   0  0  0  0  0  0  0  0  0  0  0  0
  147.8238  142.2513  153.2698 H   0  0  0  0  0  0  0  0  0  0  0  0
  146.4356  141.0563  155.6064 H   0  0  0  0  0  0  0  0  0  0  0  0
  145.9130  141.1705  153.9340 H   0  0  0  0  0  0  0  0  0  0  0  0
  147.2704  138.9474  155.3236 H   0  0  0  0  0  0  0  0  0  0  0  0
  146.4665  138.8880  153.7636 H   0  0  0  0  0  0  0  0  0  0  0  0
  148.3973  139.6180  152.5938 H   0  0  0  0  0  0  0  0  0  0  0  0
  149.3027  137.8421  153.1142 H   0  0  0  0  0  0  0  0  0  0  0  0
  152.3240  140.5476  159.7444 H   0  0  0  0  0  0  0  0  0  0  0  0
  152.7059  142.8253  160.7155 H   0  0  0  0  0  0  0  0  0  0  0  0
  152.0782  144.8405  159.3544 H   0  0  0  0  0  0  0  0  0  0  0  0
  151.0890  144.4853  157.0775 H   0  0  0  0  0  0  0  0  0  0  0  0
  1  2  2  0  0  0  0
  2  3  1  0  0  0  0
  2 10  1  0  0  0  0
  3  4  1  0  0  0  0
  4  8  1  0  0  0  0
  4  5  1  0  0  0  0
  4 19  1  0  0  0  0
  5  6  1  0  0  0  0
  5 20  1  0  0  0  0
  5 21  1  0  0  0  0
  6  7  1  0  0  0  0
  6 22  1  0  0  0  0
  6 23  1  0  0  0  0
  7  8  1  0  0  0  0
  7 24  1  0  0  0  0
  7 25  1  0  0  0  0
  8  9  1  0  0  0  0
  8 26  1  0  0  0  0
  9 27  1  0  0  0  0
 10 11  1  0  0  0  0
 10 12  1  0  0  0  0
 10 13  1  0  0  0  0
 13 18  1  0  0  0  0
 13 14  2  0  0  0  0
 14 15  1  0  0  0  0
 14 28  1  0  0  0  0
 15 16  2  0  0  0  0
 15 29  1  0  0  0  0
 16 17  1  0  0  0  0
 16 30  1  0  0  0  0
 17 18  2  0  0  0  0
 17 31  1  0  0  0  0
M  CHG  1   3  -1
M  END
> <s_m_source_file>
AV-unprocessed.smi

> <i_m_source_file_index>
2807

> <i_lp_mmshare_version>
43012

> <i_f3d_flags>
0

> <s_epik_input>
bjFbY0hdW2NIXVtjSF1bY0hdYzFDKEYpKEYpQyg9TylbTkhdW0NAQEhdMltDSDJdW0NIMl1bQ0gyXVtDQEhdMltPSF0=

> <s_epik_cmdline>
J2VwaWtfcHl0aG9uJywgJy1waCcsICc3LjAnLCAnLXRuJywgJzgnLCAnLW1hJywgJzIwMCcsICctbWV0YWxfYmluZGluZycsICctaW1hZScsICc8aW5maWxlLm1hZT4nLCAnLW9tYWUnLCAnPG91dGZpbGUubWFlPic=

> <r_lp_tautomer_probability>
1

> <r_epik_Ionization_Penalty>
5.72231

> <r_epik_Ionization_Penalty_Charging>
5.72231

> <r_epik_Ionization_Penalty_Neutral>
5.49816e-06

> <r_epik_State_Penalty>
5.72227

> <r_epik_Charging_Adjusted_Penalty>
11.4446

> <i_epik_Tot_Q>
-1

> <i_epik_Tot_abs_Q>
1

> <r_epik_Metal_State_Penalty>
1.70075

> <b_epik_Metal_Only>
1

> <s_lp_Force_Field>
OPLS_2005

> <r_lp_Energy>
37.6883

> <b_lp_Chiralities_Consistent>
1

> <s_lp_Variant>
AV-unprocessed.smi:2807-7

> <Gold.Version>
5.8.1

> <Gold.Id.Protein>
6NUR|6NUR_protein|mol2

> <Gold.PLP.Fitness>
40.3504

> <Gold.PLP.PLP>
-33.3339

> <Gold.PLP.part.hbond>
-2.1032

> <Gold.PLP.part.metal>
0.0000

> <Gold.PLP.part.buried>
0.4287

> <Gold.PLP.part.nonpolar>
-31.2989

> <Gold.PLP.part.repulsive>
0.2113

> <Gold.PLP.ligand.clash>
0.0000

> <Gold.PLP.ligand.torsion>
0.8452

> <Gold.PLP.Chemscore.Hbond>
1.9913

> <Gold.PLP.Chemscore.CHOScore>
0.8867

> <Gold.PLP.Chemscore.Metal>
0.0000

> <Gold.Chemscore.Hbonds>
donor molecule, donor type, donor heavy atom, donor atom, acceptor molecule, acceptor atom, score
      L1  H     9    27       P1  7948  0.98
      P1  H  7989  7998       L1     1  0.99
      L1  C    17    31       P1  8028  0.80

> <Gold.PLP.Chemscore.Internal.Correction>
0.0729

> <Gold.Rescore>
     Score         DG    S(hbond)    S(metal)    S(lipo)     H(rot)  DE(clash)    DE(int)     intcor
     13.42     -15.56       1.79        0.00      78.69       2.00       0.06       2.08       ----

> <Gold.Chemscore.Fitness>
13.4248

> <Gold.Chemscore.DG>
-15.5598

> <Gold.Chemscore.ZeroCoef>
-5.4800

> <Gold.Chemscore.Hbond>
1.7915

> <Gold.Chemscore.Metal>
0.0000

> <Gold.Chemscore.Lipo>
78.6907

> <Gold.Chemscore.Internal_Hbond>
0.0000

> <Gold.Chemscore.DEClash>
0.0569

> <Gold.Chemscore.DEInternal>
2.0780

> <Gold.Chemscore.Rot>
1.9964

> <Gold.Chemscore.Internal.Correction>
   9.000000E+99

> <Gold.Chemscore.Hbonds>
donor molecule, donor type, donor heavy atom, donor atom, acceptor molecule, acceptor atom, score
      L1  H     9    27       P1  7948  0.89
      P1  H  7989  7998       L1     1  0.37

> <Gold.Chemscore.Hbond.Weighted>
-5.9838

> <Gold.Chemscore.Metal.Weighted>
-0.0000

> <Gold.Chemscore.Lipo.Weighted>
-9.2068

> <Gold.Chemscore.Internal_Hbond.Weighted>
0.0000

> <Gold.Chemscore.DEClash.Weighted>
0.0569

> <Gold.Chemscore.DEInternal.Weighted>
2.0780

> <Gold.Chemscore.Rot.Weighted>
5.1108

> <Gold.Chemscore.Internal.Correction.Weighted>
   9.000000E+99

> <Gold.Protein.RotatedTorsions>
[ 6907 6896 6895 6894 ] final  -17.18 input  -60.11 | X-H torsion
[ 7974 7965 7964 7962 ] final -157.07 input  175.53 | X-H torsion
[ 8008 7997 7996 7995 ] final  -21.68 input   59.86 | X-H torsion
[ 10167 10162 10161 10158 ] final -146.11 input  -65.29 | X-H torsion
[ 10718 10713 10712 10709 ] final    6.71 input   66.30 | X-H torsion
[ 10763 10752 10751 10750 ] final  -80.36 input  -60.55 | X-H torsion
[ 11005 11000 10999 10996 ] final -157.82 input  -57.11 | X-H torsion

> <Gold.Protein.ActiveResidues>
 VAL166  LYS551  ARG553  GLY616  TRP617  ASP618  TYR619  PRO620  LYS621  CYS622 
 ASP623  PHE694  ASN695  SER759  ASP760  ASP761  ALA762  ILE779  LEU786  VAL792 
 PHE793  MET794  SER795  GLU796  ALA797  LYS798  CYS799  TRP800  GLU811  SER814 

> <Gold.Protein.RotatedAtoms>
  151.2972  135.0758  159.9225 H   0  0  0  0  0  0  0  0  0  0  0  0  # atno 6907 bound_to 6896
  152.5305  133.9870  159.7843 H   0  0  0  0  0  0  0  0  0  0  0  0  # atno 6908 bound_to 6896
  151.0151  133.5878  159.2708 H   0  0  0  0  0  0  0  0  0  0  0  0  # atno 6909 bound_to 6896
  144.7564  140.4021  143.6009 H   0  0  0  0  0  0  0  0  0  0  0  0  # atno 7974 bound_to 7965
  154.4691  140.2028  156.0042 H   0  0  0  0  0  0  0  0  0  0  0  0  # atno 8008 bound_to 7997
  156.0979  140.3248  155.7872 H   0  0  0  0  0  0  0  0  0  0  0  0  # atno 8009 bound_to 7997
  155.4848  140.0541  157.2953 H   0  0  0  0  0  0  0  0  0  0  0  0  # atno 8010 bound_to 7997
  139.7743  143.8192  152.2629 H   0  0  0  0  0  0  0  0  0  0  0  0  # atno 10167 bound_to 10162
  156.9262  130.5809  149.5648 H   0  0  0  0  0  0  0  0  0  0  0  0  # atno 10718 bound_to 10713
  154.5502  135.5664  153.6915 H   0  0  0  0  0  0  0  0  0  0  0  0  # atno 10763 bound_to 10752
  152.9987  135.6249  154.2384 H   0  0  0  0  0  0  0  0  0  0  0  0  # atno 10764 bound_to 10752
  154.2319  135.2865  155.2866 H   0  0  0  0  0  0  0  0  0  0  0  0  # atno 10765 bound_to 10752
  140.6604  134.4355  157.5234 H   0  0  0  0  0  0  0  0  0  0  0  0  # atno 11005 bound_to 11000
  145.6764  139.1609  143.2726 LP  0  0  0  0  0  0  0  0  0  0  0  0  # atno 17320 bound_to 7965
  146.1580  140.6830  142.9291 LP  0  0  0  0  0  0  0  0  0  0  0  0  # atno 17321 bound_to 7965
  139.8236  144.7285  150.9541 LP  0  0  0  0  0  0  0  0  0  0  0  0  # atno 17342 bound_to 10162
  140.7815  143.4136  151.0954 LP  0  0  0  0  0  0  0  0  0  0  0  0  # atno 17343 bound_to 10162
  156.0468  130.5543  150.8899 LP  0  0  0  0  0  0  0  0  0  0  0  0  # atno 17370 bound_to 10713
  157.5876  131.0945  150.9171 LP  0  0  0  0  0  0  0  0  0  0  0  0  # atno 17371 bound_to 10713
  139.9015  134.8546  156.1878 LP  0  0  0  0  0  0  0  0  0  0  0  0  # atno 17394 bound_to 11000
  141.0469  133.6908  156.1700 LP  0  0  0  0  0  0  0  0  0  0  0  0  # atno 17395 bound_to 11000

$$$$
