AV-unprocessed.smi:2895|AV-procd|sdf|11128|dock3
  -GOLD-   2272016 03D 1   1.00000     0.00000
 Structure written by MMmdl.
 53 56  0  0  0  0  0  0  0  0  2 V2000
  155.3613  140.9072  162.9989 O   0  0  0  0  0  0  0  0  0  0  0  0
  155.2319  139.9363  162.2523 C   0  0  0  0  0  0  0  0  0  0  0  0
  154.8032  140.0648  160.9850 N   0  0  0  0  0  0  0  0  0  0  0  0
  154.4337  141.3213  160.3431 C   0  0  0  0  0  0  0  0  0  0  0  0
  153.1699  141.9325  160.9710 C   0  0  0  0  0  0  0  0  0  0  0  0
  152.6736  143.1391  160.1984 C   0  0  0  0  0  0  0  0  0  0  0  0
  152.6715  143.1386  158.7883 C   0  0  0  0  0  0  0  0  0  0  0  0
  152.1982  144.2838  158.1170 C   0  0  0  0  0  0  0  0  0  0  0  0
  151.7457  145.3842  158.7561 N   0  0  0  0  0  0  0  0  0  0  0  0
  151.7509  145.3769  160.1064 C   0  0  0  0  0  0  0  0  0  0  0  0
  152.2014  144.2837  160.8732 C   0  0  0  0  0  0  0  0  0  0  0  0
  155.5397  138.6676  162.6250 N   0  0  0  0  0  0  0  0  0  0  0  0
  155.4703  137.4679  161.7751 C   0  0  0  0  0  0  0  0  0  0  0  0
  154.3227  136.5585  162.2640 C   0  0  0  0  0  0  0  0  0  0  0  0
  154.4487  136.2150  163.7103 N   0  3  0  0  0  0  0  0  0  0  0  0
  155.4364  135.1257  163.9784 C   0  0  2  0  0  0  0  0  0  0  0  0
  155.2145  133.8490  163.1299 C   0  0  0  0  0  0  0  0  0  0  0  0
  155.2376  132.7199  164.1777 C   0  0  2  0  0  0  0  0  0  0  0  0
  153.9074  132.7339  164.9498 C   0  0  0  0  0  0  0  0  0  0  0  0
  154.0305  134.0090  165.8027 C   0  0  0  0  0  0  0  0  0  0  0  0
  155.4246  134.5509  165.4183 C   0  0  1  0  0  0  0  0  0  0  0  0
  156.2086  133.2577  165.2214 C   0  0  0  0  0  0  0  0  0  0  0  0
  154.6366  137.4378  164.5427 C   0  0  0  0  0  0  0  0  0  0  0  0
  155.7950  138.3122  164.0256 C   0  0  0  0  0  0  0  0  0  0  0  0
  154.7371  139.2303  160.4205 H   0  0  0  0  0  0  0  0  0  0  0  0
  155.2670  142.0244  160.3935 H   0  0  0  0  0  0  0  0  0  0  0  0
  154.2608  141.1201  159.2855 H   0  0  0  0  0  0  0  0  0  0  0  0
  152.3768  141.1849  161.0175 H   0  0  0  0  0  0  0  0  0  0  0  0
  153.3653  142.2372  162.0000 H   0  0  0  0  0  0  0  0  0  0  0  0
  153.0221  142.2817  158.2318 H   0  0  0  0  0  0  0  0  0  0  0  0
  152.1824  144.3161  157.0376 H   0  0  0  0  0  0  0  0  0  0  0  0
  151.3845  146.2694  160.5915 H   0  0  0  0  0  0  0  0  0  0  0  0
  152.1836  144.3273  161.9525 H   0  0  0  0  0  0  0  0  0  0  0  0
  155.3261  137.6816  160.7165 H   0  0  0  0  0  0  0  0  0  0  0  0
  156.4239  136.9419  161.8304 H   0  0  0  0  0  0  0  0  0  0  0  0
  153.3747  137.0802  162.1260 H   0  0  0  0  0  0  0  0  0  0  0  0
  154.2609  135.6653  161.6434 H   0  0  0  0  0  0  0  0  0  0  0  0
  156.4383  135.5079  163.7788 H   0  0  0  0  0  0  0  0  0  0  0  0
  154.2726  133.8499  162.5799 H   0  0  0  0  0  0  0  0  0  0  0  0
  156.0211  133.7294  162.4054 H   0  0  0  0  0  0  0  0  0  0  0  0
  155.4933  131.7427  163.7665 H   0  0  0  0  0  0  0  0  0  0  0  0
  153.0404  132.7553  164.2886 H   0  0  0  0  0  0  0  0  0  0  0  0
  153.8192  131.8532  165.5874 H   0  0  0  0  0  0  0  0  0  0  0  0
  153.2276  134.7194  165.6060 H   0  0  0  0  0  0  0  0  0  0  0  0
  153.9947  133.7590  166.8638 H   0  0  0  0  0  0  0  0  0  0  0  0
  155.8603  135.2153  166.1649 H   0  0  0  0  0  0  0  0  0  0  0  0
  156.2620  132.6420  166.1212 H   0  0  0  0  0  0  0  0  0  0  0  0
  157.2177  133.4140  164.8353 H   0  0  0  0  0  0  0  0  0  0  0  0
  153.7123  138.0155  164.4990 H   0  0  0  0  0  0  0  0  0  0  0  0
  154.7737  137.1976  165.5956 H   0  0  0  0  0  0  0  0  0  0  0  0
  156.7416  137.7749  164.0942 H   0  0  0  0  0  0  0  0  0  0  0  0
  155.9096  139.1850  164.6697 H   0  0  0  0  0  0  0  0  0  0  0  0
  153.5581  135.8272  163.9878 H   0  0  0  0  0  0  0  0  0  0  0  0
  1  2  2  0  0  0  0
  2  3  1  0  0  0  0
  2 12  1  0  0  0  0
  3  4  1  0  0  0  0
  3 25  1  0  0  0  0
  4  5  1  0  0  0  0
  4 26  1  0  0  0  0
  4 27  1  0  0  0  0
  5  6  1  0  0  0  0
  5 28  1  0  0  0  0
  5 29  1  0  0  0  0
  6 11  1  0  0  0  0
  6  7  2  0  0  0  0
  7  8  1  0  0  0  0
  7 30  1  0  0  0  0
  8  9  2  0  0  0  0
  8 31  1  0  0  0  0
  9 10  1  0  0  0  0
 10 11  2  0  0  0  0
 10 32  1  0  0  0  0
 11 33  1  0  0  0  0
 12 24  1  0  0  0  0
 12 13  1  0  0  0  0
 13 14  1  0  0  0  0
 13 34  1  0  0  0  0
 13 35  1  0  0  0  0
 14 15  1  0  0  0  0
 14 36  1  0  0  0  0
 14 37  1  0  0  0  0
 15 16  1  0  0  0  0
 15 23  1  0  0  0  0
 15 53  1  0  0  0  0
 16 21  1  0  0  0  0
 16 17  1  0  0  0  0
 16 38  1  0  0  0  0
 17 18  1  0  0  0  0
 17 39  1  0  0  0  0
 17 40  1  0  0  0  0
 18 22  1  0  0  0  0
 18 19  1  0  0  0  0
 18 41  1  0  0  0  0
 19 20  1  0  0  0  0
 19 42  1  0  0  0  0
 19 43  1  0  0  0  0
 20 21  1  0  0  0  0
 20 44  1  0  0  0  0
 20 45  1  0  0  0  0
 21 22  1  0  0  0  0
 21 46  1  0  0  0  0
 22 47  1  0  0  0  0
 22 48  1  0  0  0  0
 23 24  1  0  0  0  0
 23 49  1  0  0  0  0
 23 50  1  0  0  0  0
 24 51  1  0  0  0  0
 24 52  1  0  0  0  0
M  CHG  1  15   1
M  END
> <s_m_source_file>
AV-unprocessed.smi

> <i_m_source_file_index>
2895

> <i_lp_mmshare_version>
43012

> <i_f3d_flags>
0

> <s_epik_input>
W0NIMl0xW0NIMl1bQ0BASF0oW0NIMl0yKVtDQEBIXShbQ0gyXVtDQEhdMTIpTihbQ0gyXVtDSDJdMylbQ0gyXVtDSDJdTjNDKD1PKVtOSF1bQ0gyXVtDSDJdYzRbY0hdW2NIXW5bY0hdW2NIXTQ=

> <s_epik_cmdline>
J2VwaWtfcHl0aG9uJywgJy1waCcsICc3LjAnLCAnLXRuJywgJzgnLCAnLW1hJywgJzIwMCcsICctbWV0YWxfYmluZGluZycsICctaW1hZScsICc8aW5maWxlLm1hZT4nLCAnLW9tYWUnLCAnPG91dGZpbGUubWFlPic=

> <r_epik_Ionization_Penalty>
0.0566172

> <r_epik_Ionization_Penalty_Charging>
0.00262064

> <r_epik_Ionization_Penalty_Neutral>
0.0539965

> <r_epik_State_Penalty>
0.0463959

> <r_epik_Charging_Adjusted_Penalty>
0.0490165

> <i_epik_Tot_Q>
1

> <i_epik_Tot_abs_Q>
1

> <r_epik_Metal_State_Penalty>
0.0424856

> <b_epik_Metal_Only>
0

> <s_lp_Force_Field>
OPLS_2005

> <r_lp_Energy>
99.7754

> <b_lp_Chiralities_Consistent>
1

> <s_lp_Variant>
AV-unprocessed.smi:2895-1

> <Gold.Version>
5.8.1

> <Gold.Id.Protein>
6NUR|6NUR_protein|mol2

> <Gold.PLP.Fitness>
54.2686

> <Gold.PLP.PLP>
-54.9241

> <Gold.PLP.part.hbond>
-1.8116

> <Gold.PLP.part.metal>
0.0000

> <Gold.PLP.part.buried>
-5.6344

> <Gold.PLP.part.nonpolar>
-47.7836

> <Gold.PLP.part.repulsive>
0.1430

> <Gold.PLP.ligand.clash>
0.0000

> <Gold.PLP.ligand.torsion>
0.3775

> <Gold.PLP.Chemscore.Hbond>
0.0000

> <Gold.PLP.Chemscore.CHOScore>
0.0000

> <Gold.PLP.Chemscore.Metal>
0.0000

> <Gold.PLP.Chemscore.Internal.Correction>
0.0994

> <Gold.Rescore>
     Score         DG    S(hbond)    S(metal)    S(lipo)     H(rot)  DE(clash)    DE(int)     intcor
     19.96     -20.28       0.00        0.00     156.56       1.37       0.03       0.29       ----

> <Gold.Chemscore.Fitness>
19.9585

> <Gold.Chemscore.DG>
-20.2824

> <Gold.Chemscore.ZeroCoef>
-5.4800

> <Gold.Chemscore.Hbond>
0.0000

> <Gold.Chemscore.Metal>
0.0000

> <Gold.Chemscore.Lipo>
156.5608

> <Gold.Chemscore.Internal_Hbond>
0.0000

> <Gold.Chemscore.DEClash>
0.0344

> <Gold.Chemscore.DEInternal>
0.2895

> <Gold.Chemscore.Rot>
1.3731

> <Gold.Chemscore.Internal.Correction>
   9.000000E+99

> <Gold.Chemscore.Hbond.Weighted>
-0.0000

> <Gold.Chemscore.Metal.Weighted>
-0.0000

> <Gold.Chemscore.Lipo.Weighted>
-18.3176

> <Gold.Chemscore.Internal_Hbond.Weighted>
0.0000

> <Gold.Chemscore.DEClash.Weighted>
0.0344

> <Gold.Chemscore.DEInternal.Weighted>
0.2895

> <Gold.Chemscore.Rot.Weighted>
3.5152

> <Gold.Chemscore.Internal.Correction.Weighted>
   9.000000E+99

> <Gold.Protein.RotatedTorsions>
[ 6907 6896 6895 6894 ] final   74.48 input  -60.11 | X-H torsion
[ 7974 7965 7964 7962 ] final   64.28 input  175.53 | X-H torsion
[ 8008 7997 7996 7995 ] final -100.62 input   59.86 | X-H torsion
[ 10167 10162 10161 10158 ] final  -22.97 input  -65.29 | X-H torsion
[ 10718 10713 10712 10709 ] final   13.92 input   66.30 | X-H torsion
[ 10763 10752 10751 10750 ] final  125.65 input  -60.55 | X-H torsion
[ 11005 11000 10999 10996 ] final  115.01 input  -57.11 | X-H torsion

> <Gold.Protein.ActiveResidues>
 VAL166  LYS551  ARG553  GLY616  TRP617  ASP618  TYR619  PRO620  LYS621  CYS622 
 ASP623  PHE694  ASN695  SER759  ASP760  ASP761  ALA762  ILE779  LEU786  VAL792 
 PHE793  MET794  SER795  GLU796  ALA797  LYS798  CYS799  TRP800  GLU811  SER814 

> <Gold.Protein.RotatedAtoms>
  152.4978  134.4264  159.9497 H   0  0  0  0  0  0  0  0  0  0  0  0  # atno 6907 bound_to 6896
  151.4240  133.3684  159.2767 H   0  0  0  0  0  0  0  0  0  0  0  0  # atno 6908 bound_to 6896
  150.9202  134.8642  159.7543 H   0  0  0  0  0  0  0  0  0  0  0  0  # atno 6909 bound_to 6896
  145.8520  139.3260  143.0869 H   0  0  0  0  0  0  0  0  0  0  0  0  # atno 7974 bound_to 7965
  154.8311  140.0440  157.1477 H   0  0  0  0  0  0  0  0  0  0  0  0  # atno 8008 bound_to 7997
  154.9151  140.3019  155.5225 H   0  0  0  0  0  0  0  0  0  0  0  0  # atno 8009 bound_to 7997
  156.2987  140.2351  156.4195 H   0  0  0  0  0  0  0  0  0  0  0  0  # atno 8010 bound_to 7997
  140.7287  143.4485  151.0551 H   0  0  0  0  0  0  0  0  0  0  0  0  # atno 10167 bound_to 10162
  157.0317  130.6195  149.5736 H   0  0  0  0  0  0  0  0  0  0  0  0  # atno 10718 bound_to 10713
  153.6807  135.3315  155.3177 H   0  0  0  0  0  0  0  0  0  0  0  0  # atno 10763 bound_to 10752
  154.8466  135.4408  154.1609 H   0  0  0  0  0  0  0  0  0  0  0  0  # atno 10764 bound_to 10752
  153.2625  135.6992  153.7641 H   0  0  0  0  0  0  0  0  0  0  0  0  # atno 10765 bound_to 10752
  139.8997  134.9577  156.6980 H   0  0  0  0  0  0  0  0  0  0  0  0  # atno 11005 bound_to 11000
  145.9346  140.9024  143.0338 LP  0  0  0  0  0  0  0  0  0  0  0  0  # atno 17320 bound_to 7965
  144.6729  140.1465  143.7433 LP  0  0  0  0  0  0  0  0  0  0  0  0  # atno 17321 bound_to 7965
  139.8159  143.7886  152.3174 LP  0  0  0  0  0  0  0  0  0  0  0  0  # atno 17342 bound_to 10162
  139.7952  144.7395  150.9900 LP  0  0  0  0  0  0  0  0  0  0  0  0  # atno 17343 bound_to 10162
  156.0067  130.5155  150.7854 LP  0  0  0  0  0  0  0  0  0  0  0  0  # atno 17370 bound_to 10713
  157.5173  131.0929  151.0123 LP  0  0  0  0  0  0  0  0  0  0  0  0  # atno 17371 bound_to 10713
  140.7173  133.9171  155.8123 LP  0  0  0  0  0  0  0  0  0  0  0  0  # atno 17394 bound_to 11000
  141.0255  134.0830  157.4073 LP  0  0  0  0  0  0  0  0  0  0  0  0  # atno 17395 bound_to 11000

$$$$
