AV-unprocessed.smi:3290|AV-procd|sdf|12612|dock8
  -GOLD-   2272018543D 1   1.00000     0.00000
 Structure written by MMmdl.
 43 44  0  0  0  0  0  0  0  0  2 V2000
  145.7625  133.3422  152.9764 C   0  0  0  0  0  0  0  0  0  0  0  0
  146.2451  133.7083  151.5581 C   0  0  1  0  0  0  0  0  0  0  0  0
  146.4127  132.4541  150.6738 C   0  0  0  0  0  0  0  0  0  0  0  0
  145.0641  131.8585  150.2376 C   0  0  0  0  0  0  0  0  0  0  0  0
  144.1978  132.9098  149.5298 C   0  0  0  0  0  0  0  0  0  0  0  0
  144.0093  134.1610  150.4017 C   0  0  0  0  0  0  0  0  0  0  0  0
  145.3624  134.7653  150.8344 C   0  0  1  0  0  0  0  0  0  0  0  0
  145.1563  136.0686  151.6335 C   0  0  0  0  0  0  0  0  0  0  0  0
  146.2432  136.2915  152.6073 N   0  3  0  0  0  0  0  0  0  0  0  0
  146.1623  137.5835  153.3171 C   0  0  0  0  0  0  0  0  0  0  0  0
  146.6873  138.7379  152.4461 C   0  0  2  0  0  0  0  0  0  0  0  0
  147.4769  138.1975  151.4041 O   0  0  0  0  0  0  0  0  0  0  0  0
  147.4659  139.7437  153.2790 C   0  0  0  0  0  0  0  0  0  0  0  0
  148.5980  139.3373  154.0160 C   0  0  0  0  0  0  0  0  0  0  0  0
  149.2946  140.3036  154.7696 C   0  0  0  0  0  0  0  0  0  0  0  0
  148.9352  141.6039  154.8207 N   0  0  0  0  0  0  0  0  0  0  0  0
  147.8526  141.9886  154.1116 C   0  0  0  0  0  0  0  0  0  0  0  0
  147.0870  141.1030  153.3270 C   0  0  0  0  0  0  0  0  0  0  0  0
  144.7407  132.9641  152.9790 H   0  0  0  0  0  0  0  0  0  0  0  0
  145.8008  134.2000  153.6473 H   0  0  0  0  0  0  0  0  0  0  0  0
  146.3970  132.5720  153.4151 H   0  0  0  0  0  0  0  0  0  0  0  0
  147.2423  134.1330  151.6778 H   0  0  0  0  0  0  0  0  0  0  0  0
  146.9858  132.7181  149.7836 H   0  0  0  0  0  0  0  0  0  0  0  0
  147.0016  131.6986  151.1953 H   0  0  0  0  0  0  0  0  0  0  0  0
  145.2325  131.0107  149.5726 H   0  0  0  0  0  0  0  0  0  0  0  0
  144.5322  131.4648  151.1040 H   0  0  0  0  0  0  0  0  0  0  0  0
  144.6657  133.1909  148.5856 H   0  0  0  0  0  0  0  0  0  0  0  0
  143.2271  132.4823  149.2771 H   0  0  0  0  0  0  0  0  0  0  0  0
  143.4334  134.9006  149.8438 H   0  0  0  0  0  0  0  0  0  0  0  0
  143.4105  133.9109  151.2779 H   0  0  0  0  0  0  0  0  0  0  0  0
  145.8854  135.0408  149.9167 H   0  0  0  0  0  0  0  0  0  0  0  0
  145.1339  136.9175  150.9488 H   0  0  0  0  0  0  0  0  0  0  0  0
  144.1943  136.0608  152.1466 H   0  0  0  0  0  0  0  0  0  0  0  0
  146.2106  135.5536  153.2966 H   0  0  0  0  0  0  0  0  0  0  0  0
  145.1204  137.7663  153.5838 H   0  0  0  0  0  0  0  0  0  0  0  0
  146.7264  137.5246  154.2494 H   0  0  0  0  0  0  0  0  0  0  0  0
  145.8446  139.2527  151.9825 H   0  0  0  0  0  0  0  0  0  0  0  0
  148.1194  137.6176  151.7847 H   0  0  0  0  0  0  0  0  0  0  0  0
  148.9303  138.3097  154.0081 H   0  0  0  0  0  0  0  0  0  0  0  0
  150.1645  140.0239  155.3451 H   0  0  0  0  0  0  0  0  0  0  0  0
  147.5891  143.0342  154.1694 H   0  0  0  0  0  0  0  0  0  0  0  0
  146.2308  141.4639  152.7761 H   0  0  0  0  0  0  0  0  0  0  0  0
  147.1281  136.2415  152.1232 H   0  0  0  0  0  0  0  0  0  0  0  0
  1  2  1  0  0  0  0
  1 19  1  0  0  0  0
  1 20  1  0  0  0  0
  1 21  1  0  0  0  0
  2  7  1  0  0  0  0
  2  3  1  0  0  0  0
  2 22  1  0  0  0  0
  3  4  1  0  0  0  0
  3 23  1  0  0  0  0
  3 24  1  0  0  0  0
  4  5  1  0  0  0  0
  4 25  1  0  0  0  0
  4 26  1  0  0  0  0
  5  6  1  0  0  0  0
  5 27  1  0  0  0  0
  5 28  1  0  0  0  0
  6  7  1  0  0  0  0
  6 29  1  0  0  0  0
  6 30  1  0  0  0  0
  7  8  1  0  0  0  0
  7 31  1  0  0  0  0
  8  9  1  0  0  0  0
  8 32  1  0  0  0  0
  8 33  1  0  0  0  0
  9 10  1  0  0  0  0
  9 34  1  0  0  0  0
  9 43  1  0  0  0  0
 10 11  1  0  0  0  0
 10 35  1  0  0  0  0
 10 36  1  0  0  0  0
 11 12  1  0  0  0  0
 11 13  1  0  0  0  0
 11 37  1  0  0  0  0
 12 38  1  0  0  0  0
 13 18  1  0  0  0  0
 13 14  2  0  0  0  0
 14 15  1  0  0  0  0
 14 39  1  0  0  0  0
 15 16  2  0  0  0  0
 15 40  1  0  0  0  0
 16 17  1  0  0  0  0
 17 18  2  0  0  0  0
 17 41  1  0  0  0  0
 18 42  1  0  0  0  0
M  CHG  1   9   1
M  END
> <s_m_source_file>
AV-unprocessed.smi

> <i_m_source_file_index>
3290

> <i_lp_mmshare_version>
43012

> <i_f3d_flags>
0

> <s_epik_input>
W0NIM11bQ0BASF0xW0NIMl1bQ0gyXVtDSDJdW0NIMl1bQ0BIXTFbQ0gyXVtOSF1bQ0gyXVtDQEhdKFtPSF0pYzJbY0hdW2NIXW5bY0hdW2NIXTI=

> <s_epik_cmdline>
J2VwaWtfcHl0aG9uJywgJy1waCcsICc3LjAnLCAnLXRuJywgJzgnLCAnLW1hJywgJzIwMCcsICctbWV0YWxfYmluZGluZycsICctaW1hZScsICc8aW5maWxlLm1hZT4nLCAnLW9tYWUnLCAnPG91dGZpbGUubWFlPic=

> <r_lp_tautomer_probability>
1

> <r_epik_Ionization_Penalty>
0.00420552

> <r_epik_Ionization_Penalty_Charging>
0.00207255

> <r_epik_Ionization_Penalty_Neutral>
0.00213297

> <r_epik_State_Penalty>
-0

> <r_epik_Charging_Adjusted_Penalty>
0.00207255

> <i_epik_Tot_Q>
1

> <i_epik_Tot_abs_Q>
1

> <r_epik_Metal_State_Penalty>
-0

> <b_epik_Metal_Only>
0

> <s_lp_Force_Field>
OPLS_2005

> <r_lp_Energy>
18.26

> <b_lp_Chiralities_Consistent>
1

> <s_lp_Variant>
AV-unprocessed.smi:3290-2

> <Gold.Version>
5.8.1

> <Gold.Id.Protein>
6NUR|6NUR_protein|mol2

> <Gold.PLP.Fitness>
48.8993

> <Gold.PLP.PLP>
-37.9559

> <Gold.PLP.part.hbond>
-3.6858

> <Gold.PLP.part.metal>
0.0000

> <Gold.PLP.part.buried>
-1.9499

> <Gold.PLP.part.nonpolar>
-32.8611

> <Gold.PLP.part.repulsive>
0.1563

> <Gold.PLP.ligand.clash>
0.0000

> <Gold.PLP.ligand.torsion>
1.0937

> <Gold.PLP.Chemscore.Hbond>
3.4500

> <Gold.PLP.Chemscore.CHOScore>
0.9143

> <Gold.PLP.Chemscore.Metal>
0.0000

> <Gold.Chemscore.Hbonds>
donor molecule, donor type, donor heavy atom, donor atom, acceptor molecule, acceptor atom, score
      L1  H     9    43       P1  7948  2.00
      L1  H    12    38       P1  7948  1.00
      P1  H  7954  7966       L1    12  0.40
      L1  C    17    41       P1  8028  0.84

> <Gold.PLP.Chemscore.Internal.Correction>
0.0379

> <Gold.Rescore>
     Score         DG    S(hbond)    S(metal)    S(lipo)     H(rot)  DE(clash)    DE(int)     intcor
     17.25     -19.24       1.99        0.00     105.79       2.05       0.51       1.48       ----

> <Gold.Chemscore.Fitness>
17.2465

> <Gold.Chemscore.DG>
-19.2406

> <Gold.Chemscore.ZeroCoef>
-5.4800

> <Gold.Chemscore.Hbond>
1.9854

> <Gold.Chemscore.Metal>
0.0000

> <Gold.Chemscore.Lipo>
105.7858

> <Gold.Chemscore.Internal_Hbond>
0.0000

> <Gold.Chemscore.DEClash>
0.5097

> <Gold.Chemscore.DEInternal>
1.4844

> <Gold.Chemscore.Rot>
2.0498

> <Gold.Chemscore.Internal.Correction>
   9.000000E+99

> <Gold.Chemscore.Hbonds>
donor molecule, donor type, donor heavy atom, donor atom, acceptor molecule, acceptor atom, score
      L1  H     9    43       P1  7948  1.00
      L1  H    12    38       P1  7948  0.94
      P1  H  7954  7966       L1    12  0.01

> <Gold.Chemscore.Hbond.Weighted>
-6.6312

> <Gold.Chemscore.Metal.Weighted>
-0.0000

> <Gold.Chemscore.Lipo.Weighted>
-12.3769

> <Gold.Chemscore.Internal_Hbond.Weighted>
0.0000

> <Gold.Chemscore.DEClash.Weighted>
0.5097

> <Gold.Chemscore.DEInternal.Weighted>
1.4844

> <Gold.Chemscore.Rot.Weighted>
5.2475

> <Gold.Chemscore.Internal.Correction.Weighted>
   9.000000E+99

> <Gold.Protein.RotatedTorsions>
[ 6907 6896 6895 6894 ] final  -77.82 input  -60.11 | X-H torsion
[ 7974 7965 7964 7962 ] final  -71.28 input  175.53 | X-H torsion
[ 8008 7997 7996 7995 ] final  154.09 input   59.86 | X-H torsion
[ 10167 10162 10161 10158 ] final  -77.63 input  -65.29 | X-H torsion
[ 10718 10713 10712 10709 ] final -156.46 input   66.30 | X-H torsion
[ 10763 10752 10751 10750 ] final  -73.08 input  -60.55 | X-H torsion
[ 11005 11000 10999 10996 ] final  150.08 input  -57.11 | X-H torsion

> <Gold.Protein.ActiveResidues>
 VAL166  LYS551  ARG553  GLY616  TRP617  ASP618  TYR619  PRO620  LYS621  CYS622 
 ASP623  PHE694  ASN695  SER759  ASP760  ASP761  ALA762  ILE779  LEU786  VAL792 
 PHE793  MET794  SER795  GLU796  ALA797  LYS798  CYS799  TRP800  GLU811  SER814 

> <Gold.Protein.RotatedAtoms>
  150.6988  134.4365  159.5271 H   0  0  0  0  0  0  0  0  0  0  0  0  # atno 6907 bound_to 6896
  152.2082  134.8523  160.0509 H   0  0  0  0  0  0  0  0  0  0  0  0  # atno 6908 bound_to 6896
  151.9418  133.3605  159.4005 H   0  0  0  0  0  0  0  0  0  0  0  0  # atno 6909 bound_to 6896
  145.6801  140.9191  143.0837 H   0  0  0  0  0  0  0  0  0  0  0  0  # atno 7974 bound_to 7965
  156.2549  140.1976  156.6593 H   0  0  0  0  0  0  0  0  0  0  0  0  # atno 8008 bound_to 7997
  154.6477  140.0576  156.9945 H   0  0  0  0  0  0  0  0  0  0  0  0  # atno 8009 bound_to 7997
  155.1466  140.3247  155.4443 H   0  0  0  0  0  0  0  0  0  0  0  0  # atno 8010 bound_to 7997
  140.4754  143.2416  151.8141 H   0  0  0  0  0  0  0  0  0  0  0  0  # atno 10167 bound_to 10162
  156.5269  130.8503  151.2702 H   0  0  0  0  0  0  0  0  0  0  0  0  # atno 10718 bound_to 10713
  154.4546  135.5909  153.6214 H   0  0  0  0  0  0  0  0  0  0  0  0  # atno 10763 bound_to 10752
  152.9817  135.6029  154.3563 H   0  0  0  0  0  0  0  0  0  0  0  0  # atno 10764 bound_to 10752
  154.3428  135.2841  155.2393 H   0  0  0  0  0  0  0  0  0  0  0  0  # atno 10765 bound_to 10752
  140.1100  134.8930  157.1923 H   0  0  0  0  0  0  0  0  0  0  0  0  # atno 11005 bound_to 11000
  144.7029  139.8685  143.7439 LP  0  0  0  0  0  0  0  0  0  0  0  0  # atno 17320 bound_to 7965
  146.0971  139.3964  143.0369 LP  0  0  0  0  0  0  0  0  0  0  0  0  # atno 17321 bound_to 7965
  139.4825  144.4840  151.9270 LP  0  0  0  0  0  0  0  0  0  0  0  0  # atno 17342 bound_to 10162
  140.3925  144.2597  150.5898 LP  0  0  0  0  0  0  0  0  0  0  0  0  # atno 17343 bound_to 10162
  157.7428  130.9898  150.2544 LP  0  0  0  0  0  0  0  0  0  0  0  0  # atno 17370 bound_to 10713
  156.3097  130.3770  149.7673 LP  0  0  0  0  0  0  0  0  0  0  0  0  # atno 17371 bound_to 10713
  140.3103  134.3031  155.7268 LP  0  0  0  0  0  0  0  0  0  0  0  0  # atno 17394 bound_to 11000
  141.2128  133.7646  156.9767 LP  0  0  0  0  0  0  0  0  0  0  0  0  # atno 17395 bound_to 11000

$$$$
