AV-unprocessed.smi:212|AV-procd|sdf|1625|dock7
  -GOLD-   2262019563D 1   1.00000     0.00000
 Structure written by MMmdl.
 65 68  0  0  0  0  0  0  0  0  2 V2000
  148.0341  140.4776  154.1569 C   0  0  0  0  0  0  0  0  0  0  0  0
  148.1935  141.4031  155.3795 C   0  0  2  0  0  0  0  0  0  0  0  0
  149.6022  141.3186  156.0016 C   0  0  0  0  0  0  0  0  0  0  0  0
  149.7384  142.2672  157.1365 N   0  3  2  0  0  0  0  0  0  0  0  0
  151.1140  142.3202  157.6974 C   0  0  0  0  0  0  0  0  0  0  0  0
  151.5476  143.7606  158.0527 C   0  0  0  0  0  0  0  0  0  0  0  0
  150.5313  144.3969  159.0157 C   0  0  0  0  0  0  0  0  0  0  0  0
  152.9631  143.8229  158.6560 C   0  0  0  0  0  0  0  0  0  0  0  0
  151.5322  144.5377  156.8708 O   0  0  0  0  0  0  0  0  0  0  0  0
  148.6919  142.0699  158.1711 C   0  0  0  0  0  0  0  0  0  0  0  0
  147.2778  142.1078  157.5564 C   0  0  0  0  0  0  0  0  0  0  0  0
  147.1553  141.2236  156.4001 N   0  0  0  0  0  0  0  0  0  0  0  0
  146.7623  139.9596  156.6847 C   0  0  0  0  0  0  0  0  0  0  0  0
  145.6259  139.4547  156.1386 N   0  0  0  0  0  0  0  0  0  0  0  0
  145.2361  138.2122  156.4401 C   0  0  0  0  0  0  0  0  0  0  0  0
  145.8210  137.3277  157.2507 N   0  0  0  0  0  0  0  0  0  0  0  0
  146.9607  137.8356  157.8013 C   0  0  0  0  0  0  0  0  0  0  0  0
  147.5007  139.1307  157.5686 C   0  0  0  0  0  0  0  0  0  0  0  0
  148.6727  139.2995  158.2938 N   0  0  0  0  0  0  0  0  0  0  0  0
  148.8184  138.1658  158.9243 C   0  0  0  0  0  0  0  0  0  0  0  0
  147.8240  137.2386  158.7038 N   0  0  0  0  0  0  0  0  0  0  0  0
  147.7393  135.9101  159.2811 C   0  0  0  0  0  0  0  0  0  0  0  0
  147.0941  135.8633  160.6951 C   0  0  2  0  0  0  0  0  0  0  0  0
  148.0896  136.4031  161.7459 C   0  0  0  0  0  0  0  0  0  0  0  0
  147.6444  137.6292  162.2895 O   0  0  0  0  0  0  0  0  0  0  0  0
  146.5354  134.4854  161.1609 C   0  0  1  0  0  0  0  0  0  0  0  0
  147.5268  133.4153  161.5833 C   0  0  0  0  0  0  0  0  0  0  0  0
  146.6045  132.3929  162.2404 C   0  0  0  0  0  0  0  0  0  0  0  0
  145.5344  133.1414  162.8128 O   0  0  0  0  0  0  0  0  0  0  0  0
  145.5614  134.4862  162.3412 C   0  0  0  0  0  0  0  0  0  0  0  0
  148.7605  140.7287  153.3838 H   0  0  0  0  0  0  0  0  0  0  0  0
  147.0416  140.5756  153.7160 H   0  0  0  0  0  0  0  0  0  0  0  0
  148.1849  139.4287  154.4155 H   0  0  0  0  0  0  0  0  0  0  0  0
  148.0647  142.4218  155.0108 H   0  0  0  0  0  0  0  0  0  0  0  0
  149.8121  140.3045  156.3446 H   0  0  0  0  0  0  0  0  0  0  0  0
  150.3502  141.5551  155.2439 H   0  0  0  0  0  0  0  0  0  0  0  0
  151.1800  141.6915  158.5875 H   0  0  0  0  0  0  0  0  0  0  0  0
  151.8243  141.8888  156.9899 H   0  0  0  0  0  0  0  0  0  0  0  0
  150.4859  143.8499  159.9581 H   0  0  0  0  0  0  0  0  0  0  0  0
  149.5268  144.4019  158.5903 H   0  0  0  0  0  0  0  0  0  0  0  0
  150.7937  145.4298  159.2486 H   0  0  0  0  0  0  0  0  0  0  0  0
  153.0314  143.2185  159.5611 H   0  0  0  0  0  0  0  0  0  0  0  0
  153.2341  144.8451  158.9233 H   0  0  0  0  0  0  0  0  0  0  0  0
  153.7199  143.4609  157.9594 H   0  0  0  0  0  0  0  0  0  0  0  0
  150.7008  144.4128  156.4380 H   0  0  0  0  0  0  0  0  0  0  0  0
  148.8621  141.1204  158.6795 H   0  0  0  0  0  0  0  0  0  0  0  0
  148.7777  142.8488  158.9294 H   0  0  0  0  0  0  0  0  0  0  0  0
  146.5312  141.8539  158.3105 H   0  0  0  0  0  0  0  0  0  0  0  0
  147.0491  143.1225  157.2284 H   0  0  0  0  0  0  0  0  0  0  0  0
  144.3237  137.8793  155.9674 H   0  0  0  0  0  0  0  0  0  0  0  0
  149.6540  137.9772  159.5828 H   0  0  0  0  0  0  0  0  0  0  0  0
  147.2096  135.2524  158.5923 H   0  0  0  0  0  0  0  0  0  0  0  0
  148.7588  135.5258  159.3236 H   0  0  0  0  0  0  0  0  0  0  0  0
  146.2460  136.5495  160.6946 H   0  0  0  0  0  0  0  0  0  0  0  0
  148.1991  135.7032  162.5749 H   0  0  0  0  0  0  0  0  0  0  0  0
  149.0797  136.5386  161.3098 H   0  0  0  0  0  0  0  0  0  0  0  0
  146.9230  137.4549  162.8750 H   0  0  0  0  0  0  0  0  0  0  0  0
  146.0015  134.0530  160.3128 H   0  0  0  0  0  0  0  0  0  0  0  0
  148.0906  133.0003  160.7475 H   0  0  0  0  0  0  0  0  0  0  0  0
  148.2357  133.7716  162.3247 H   0  0  0  0  0  0  0  0  0  0  0  0
  146.1918  131.7166  161.4909 H   0  0  0  0  0  0  0  0  0  0  0  0
  147.1179  131.7920  162.9916 H   0  0  0  0  0  0  0  0  0  0  0  0
  145.9127  135.1137  163.1580 H   0  0  0  0  0  0  0  0  0  0  0  0
  144.5651  134.8271  162.0590 H   0  0  0  0  0  0  0  0  0  0  0  0
  149.5686  143.1861  156.7525 H   0  0  0  0  0  0  0  0  0  0  0  0
  1  2  1  0  0  0  0
  1 31  1  0  0  0  0
  1 32  1  0  0  0  0
  1 33  1  0  0  0  0
  2 12  1  0  0  0  0
  2  3  1  0  0  0  0
  2 34  1  0  0  0  0
  3  4  1  0  0  0  0
  3 35  1  0  0  0  0
  3 36  1  0  0  0  0
  4  5  1  0  0  0  0
  4 10  1  0  0  0  0
  4 65  1  0  0  0  0
  5  6  1  0  0  0  0
  5 37  1  0  0  0  0
  5 38  1  0  0  0  0
  6  7  1  0  0  0  0
  6  8  1  0  0  0  0
  6  9  1  0  0  0  0
  7 39  1  0  0  0  0
  7 40  1  0  0  0  0
  7 41  1  0  0  0  0
  8 42  1  0  0  0  0
  8 43  1  0  0  0  0
  8 44  1  0  0  0  0
  9 45  1  0  0  0  0
 10 11  1  0  0  0  0
 10 46  1  0  0  0  0
 10 47  1  0  0  0  0
 11 12  1  0  0  0  0
 11 48  1  0  0  0  0
 11 49  1  0  0  0  0
 12 13  1  0  0  0  0
 13 18  1  0  0  0  0
 13 14  2  0  0  0  0
 14 15  1  0  0  0  0
 15 16  2  0  0  0  0
 15 50  1  0  0  0  0
 16 17  1  0  0  0  0
 17 21  1  0  0  0  0
 17 18  2  0  0  0  0
 18 19  1  0  0  0  0
 19 20  2  0  0  0  0
 20 21  1  0  0  0  0
 20 51  1  0  0  0  0
 21 22  1  0  0  0  0
 22 23  1  0  0  0  0
 22 52  1  0  0  0  0
 22 53  1  0  0  0  0
 23 24  1  0  0  0  0
 23 26  1  0  0  0  0
 23 54  1  0  0  0  0
 24 25  1  0  0  0  0
 24 55  1  0  0  0  0
 24 56  1  0  0  0  0
 25 57  1  0  0  0  0
 26 30  1  0  0  0  0
 26 27  1  0  0  0  0
 26 58  1  0  0  0  0
 27 28  1  0  0  0  0
 27 59  1  0  0  0  0
 27 60  1  0  0  0  0
 28 29  1  0  0  0  0
 28 61  1  0  0  0  0
 28 62  1  0  0  0  0
 29 30  1  0  0  0  0
 30 63  1  0  0  0  0
 30 64  1  0  0  0  0
M  CHG  1   4   1
M  END
> <s_m_source_file>
AV-unprocessed.smi

> <i_m_source_file_index>
212

> <i_lp_mmshare_version>
43012

> <i_f3d_flags>
0

> <s_epik_input>
W0NIM11bQ0BASF0xW0NIMl1OKFtDSDJdQyhbQ0gzXSkoW0NIM10pW09IXSlbQ0gyXVtDSDJdTjFjKG5bY0hdbjIpYyhjMjMpbltjSF1uM1tDSDJdW0NASF0oW0NIMl1bT0hdKVtDQEBIXTRbQ0gyXVtDSDJdT1tDSDJdNA==

> <s_epik_cmdline>
J2VwaWtfcHl0aG9uJywgJy1waCcsICc3LjAnLCAnLXRuJywgJzgnLCAnLW1hJywgJzIwMCcsICctbWV0YWxfYmluZGluZycsICctaW1hZScsICc8aW5maWxlLm1hZT4nLCAnLW9tYWUnLCAnPG91dGZpbGUubWFlPic=

> <r_lp_tautomer_probability>
1

> <r_epik_Ionization_Penalty>
0.00182193

> <r_epik_Ionization_Penalty_Charging>
0.00173996

> <r_epik_Ionization_Penalty_Neutral>
8.19718e-05

> <r_epik_State_Penalty>
-0

> <r_epik_Charging_Adjusted_Penalty>
0.00173996

> <i_epik_Tot_Q>
1

> <i_epik_Tot_abs_Q>
1

> <r_epik_Metal_State_Penalty>
-0

> <b_epik_Metal_Only>
0

> <s_lp_Force_Field>
OPLS_2005

> <r_lp_Energy>
61.8926

> <b_lp_Chiralities_Consistent>
1

> <s_lp_Variant>
AV-unprocessed.smi:212-9

> <Gold.Version>
5.8.1

> <Gold.Id.Protein>
6NUR|6NUR_protein|mol2

> <Gold.PLP.Fitness>
48.2500

> <Gold.PLP.PLP>
-37.8439

> <Gold.PLP.part.hbond>
-4.1431

> <Gold.PLP.part.metal>
0.0000

> <Gold.PLP.part.buried>
-4.3449

> <Gold.PLP.part.nonpolar>
-30.1578

> <Gold.PLP.part.repulsive>
0.1929

> <Gold.PLP.ligand.clash>
0.0000

> <Gold.PLP.ligand.torsion>
2.1772

> <Gold.PLP.Chemscore.Hbond>
4.5680

> <Gold.PLP.Chemscore.CHOScore>
0.0000

> <Gold.PLP.Chemscore.Metal>
0.0000

> <Gold.Chemscore.Hbonds>
donor molecule, donor type, donor heavy atom, donor atom, acceptor molecule, acceptor atom, score
      L1  H     4    65       P1  8028  2.00
      L1  H     9    45       P1  8028  1.00
      P1  H  6931  6943       L1    25  0.34
      P1  H  6934  6947       L1    25  0.42

> <Gold.PLP.Chemscore.Internal.Correction>
1.0565

> <Gold.Rescore>
     Score         DG    S(hbond)    S(metal)    S(lipo)     H(rot)  DE(clash)    DE(int)     intcor
     14.28     -18.33       3.11        0.00     101.49       3.68       0.40       3.65       ----

> <Gold.Chemscore.Fitness>
14.2767

> <Gold.Chemscore.DG>
-18.3292

> <Gold.Chemscore.ZeroCoef>
-5.4800

> <Gold.Chemscore.Hbond>
3.1133

> <Gold.Chemscore.Metal>
0.0000

> <Gold.Chemscore.Lipo>
101.4930

> <Gold.Chemscore.Internal_Hbond>
0.0000

> <Gold.Chemscore.DEClash>
0.3989

> <Gold.Chemscore.DEInternal>
3.6536

> <Gold.Chemscore.Rot>
3.6812

> <Gold.Chemscore.Internal.Correction>
   9.000000E+99

> <Gold.Chemscore.Hbonds>
donor molecule, donor type, donor heavy atom, donor atom, acceptor molecule, acceptor atom, score
      L1  H     4    65       P1  8028  0.96
      L1  H     9    45       P1  8028  0.98
      P1  H  6931  6943       L1    25  0.01
      P1  H  6934  6947       L1    25  0.30

> <Gold.Chemscore.Hbond.Weighted>
-10.3985

> <Gold.Chemscore.Metal.Weighted>
-0.0000

> <Gold.Chemscore.Lipo.Weighted>
-11.8747

> <Gold.Chemscore.Internal_Hbond.Weighted>
0.0000

> <Gold.Chemscore.DEClash.Weighted>
0.3989

> <Gold.Chemscore.DEInternal.Weighted>
3.6536

> <Gold.Chemscore.Rot.Weighted>
9.4239

> <Gold.Chemscore.Internal.Correction.Weighted>
   9.000000E+99

> <Gold.Protein.RotatedTorsions>
[ 6907 6896 6895 6894 ] final   21.32 input  -60.11 | X-H torsion
[ 7974 7965 7964 7962 ] final -161.84 input  175.53 | X-H torsion
[ 8008 7997 7996 7995 ] final -153.79 input   59.86 | X-H torsion
[ 10167 10162 10161 10158 ] final   85.75 input  -65.29 | X-H torsion
[ 10718 10713 10712 10709 ] final -134.19 input   66.30 | X-H torsion
[ 10763 10752 10751 10750 ] final  -36.26 input  -60.55 | X-H torsion
[ 11005 11000 10999 10996 ] final   82.70 input  -57.11 | X-H torsion

> <Gold.Protein.ActiveResidues>
 VAL166  LYS551  ARG553  GLY616  TRP617  ASP618  TYR619  PRO620  LYS621  CYS622 
 ASP623  PHE694  ASN695  SER759  ASP760  ASP761  ALA762  ILE779  LEU786  VAL792 
 PHE793  MET794  SER795  GLU796  ALA797  LYS798  CYS799  TRP800  GLU811  SER814 

> <Gold.Protein.RotatedAtoms>
  151.9099  135.0343  160.0513 H   0  0  0  0  0  0  0  0  0  0  0  0  # atno 6907 bound_to 6896
  152.2288  133.5037  159.5212 H   0  0  0  0  0  0  0  0  0  0  0  0  # atno 6908 bound_to 6896
  150.7020  134.1161  159.4060 H   0  0  0  0  0  0  0  0  0  0  0  0  # atno 6909 bound_to 6896
  144.7377  140.3339  143.6148 H   0  0  0  0  0  0  0  0  0  0  0  0  # atno 7974 bound_to 7965
  155.6763  140.0739  157.2501 H   0  0  0  0  0  0  0  0  0  0  0  0  # atno 8008 bound_to 7997
  154.4114  140.1690  156.1985 H   0  0  0  0  0  0  0  0  0  0  0  0  # atno 8009 bound_to 7997
  155.9573  140.3372  155.6463 H   0  0  0  0  0  0  0  0  0  0  0  0  # atno 8010 bound_to 7997
  139.8946  144.6366  150.8702 H   0  0  0  0  0  0  0  0  0  0  0  0  # atno 10167 bound_to 10162
  156.2528  130.7163  151.1069 H   0  0  0  0  0  0  0  0  0  0  0  0  # atno 10718 bound_to 10713
  153.8768  135.6825  153.4770 H   0  0  0  0  0  0  0  0  0  0  0  0  # atno 10763 bound_to 10752
  153.1256  135.4720  154.9265 H   0  0  0  0  0  0  0  0  0  0  0  0  # atno 10764 bound_to 10752
  154.7688  135.3232  154.8183 H   0  0  0  0  0  0  0  0  0  0  0  0  # atno 10765 bound_to 10752
  139.9055  134.8090  156.2210 H   0  0  0  0  0  0  0  0  0  0  0  0  # atno 11005 bound_to 11000
  145.7444  139.1774  143.2358 LP  0  0  0  0  0  0  0  0  0  0  0  0  # atno 17320 bound_to 7965
  146.1109  140.7429  142.9503 LP  0  0  0  0  0  0  0  0  0  0  0  0  # atno 17321 bound_to 7965
  140.7719  143.3484  151.2065 LP  0  0  0  0  0  0  0  0  0  0  0  0  # atno 17342 bound_to 10162
  139.7079  143.9424  152.2935 LP  0  0  0  0  0  0  0  0  0  0  0  0  # atno 17343 bound_to 10162
  157.7221  131.0674  150.6091 LP  0  0  0  0  0  0  0  0  0  0  0  0  # atno 17370 bound_to 10713
  156.6172  130.4396  149.5836 LP  0  0  0  0  0  0  0  0  0  0  0  0  # atno 17371 bound_to 10713
  141.0406  133.6940  156.1591 LP  0  0  0  0  0  0  0  0  0  0  0  0  # atno 17394 bound_to 11000
  140.6961  134.4614  157.5587 LP  0  0  0  0  0  0  0  0  0  0  0  0  # atno 17395 bound_to 11000

$$$$
