AV-unprocessed.smi:672|AV-procd|sdf|3290|dock6
  -GOLD-   22720 0253D 1   1.00000     0.00000
 Structure written by MMmdl.
 36 37  0  0  0  0  0  0  0  0  1 V2000
  151.5117  141.7694  158.4419 C   0  0  0  0  0  0  0  0  0  0  0  0
  150.8689  142.3985  157.2013 C   0  0  0  0  0  0  0  0  0  0  0  0
  150.6220  141.4038  156.1165 C   0  0  0  0  0  0  0  0  0  0  0  0
  151.5986  140.6628  155.5783 N   0  0  0  0  0  0  0  0  0  0  0  0
  151.1240  139.7902  154.6092 N   0  0  0  0  0  0  0  0  0  0  0  0
  149.7964  139.8883  154.4552 C   0  0  0  0  0  0  0  0  0  0  0  0
  149.0491  139.1097  153.5325 N   0  0  0  0  0  0  0  0  0  0  0  0
  147.7140  139.0419  153.3882 C   0  0  0  0  0  0  0  0  0  0  0  0
  146.8917  139.6708  154.0551 O   0  0  0  0  0  0  0  0  0  0  0  0
  147.3750  138.1923  152.4080 N   0  0  0  0  0  0  0  0  0  0  0  0
  146.0068  137.8895  151.9956 C   0  0  1  0  0  0  0  0  0  0  0  0
  145.9613  137.3122  150.5667 C   0  0  0  0  0  0  0  0  0  0  0  0
  145.6047  135.8338  150.7206 C   0  0  0  0  0  0  0  0  0  0  0  0
  144.7361  135.7892  151.9764 C   0  0  1  0  0  0  0  0  0  0  0  0
  144.6385  134.1359  152.7220 S   0  0  0  0  0  0  0  0  0  0  0  0
  143.7821  133.2361  151.4023 C   0  0  0  0  0  0  0  0  0  0  0  0
  145.3842  136.8166  152.9091 C   0  0  0  0  0  0  0  0  0  0  0  0
  149.0113  141.0668  155.4924 S   0  0  0  0  0  0  0  0  0  0  0  0
  151.6771  142.5189  159.2159 H   0  0  0  0  0  0  0  0  0  0  0  0
  152.4760  141.3211  158.2007 H   0  0  0  0  0  0  0  0  0  0  0  0
  150.8752  140.9904  158.8624 H   0  0  0  0  0  0  0  0  0  0  0  0
  149.9207  142.8646  157.4705 H   0  0  0  0  0  0  0  0  0  0  0  0
  151.5074  143.1933  156.8138 H   0  0  0  0  0  0  0  0  0  0  0  0
  149.5966  138.5368  152.9074 H   0  0  0  0  0  0  0  0  0  0  0  0
  148.1145  137.7193  151.9096 H   0  0  0  0  0  0  0  0  0  0  0  0
  145.4017  138.7971  152.0398 H   0  0  0  0  0  0  0  0  0  0  0  0
  145.1737  137.8146  150.0035 H   0  0  0  0  0  0  0  0  0  0  0  0
  146.8889  137.4513  150.0096 H   0  0  0  0  0  0  0  0  0  0  0  0
  145.0979  135.4364  149.8411 H   0  0  0  0  0  0  0  0  0  0  0  0
  146.5151  135.2525  150.8737 H   0  0  0  0  0  0  0  0  0  0  0  0
  143.7282  136.1257  151.7291 H   0  0  0  0  0  0  0  0  0  0  0  0
  143.6033  132.2051  151.7074 H   0  0  0  0  0  0  0  0  0  0  0  0
  144.3818  133.2254  150.4923 H   0  0  0  0  0  0  0  0  0  0  0  0
  142.8220  133.7030  151.1829 H   0  0  0  0  0  0  0  0  0  0  0  0
  146.1584  136.3297  153.5048 H   0  0  0  0  0  0  0  0  0  0  0  0
  144.6634  137.2416  153.6084 H   0  0  0  0  0  0  0  0  0  0  0  0
  1  2  1  0  0  0  0
  1 19  1  0  0  0  0
  1 20  1  0  0  0  0
  1 21  1  0  0  0  0
  2  3  1  0  0  0  0
  2 22  1  0  0  0  0
  2 23  1  0  0  0  0
  3 18  1  0  0  0  0
  3  4  2  0  0  0  0
  4  5  1  0  0  0  0
  5  6  2  0  0  0  0
  6  7  1  0  0  0  0
  6 18  1  0  0  0  0
  7  8  1  0  0  0  0
  7 24  1  0  0  0  0
  8  9  2  0  0  0  0
  8 10  1  0  0  0  0
 10 11  1  0  0  0  0
 10 25  1  0  0  0  0
 11 17  1  0  0  0  0
 11 12  1  0  0  0  0
 11 26  1  0  0  0  0
 12 13  1  0  0  0  0
 12 27  1  0  0  0  0
 12 28  1  0  0  0  0
 13 14  1  0  0  0  0
 13 29  1  0  0  0  0
 13 30  1  0  0  0  0
 14 15  1  0  0  0  0
 14 17  1  0  0  0  0
 14 31  1  0  0  0  0
 15 16  1  0  0  0  0
 16 32  1  0  0  0  0
 16 33  1  0  0  0  0
 16 34  1  0  0  0  0
 17 35  1  0  0  0  0
 17 36  1  0  0  0  0
M  END
> <s_m_source_file>
AV-unprocessed.smi

> <i_m_source_file_index>
672

> <i_lp_mmshare_version>
43012

> <i_f3d_flags>
0

> <s_epik_input>
W0NIM11bQ0gyXWMxbm5jKHMxKVtOSF1DKD1PKVtOSF1bQ0BASF0yW0NIMl1bQ0gyXVtDQEhdKFtDSDJdMilTW0NIM10=

> <s_epik_cmdline>
J2VwaWtfcHl0aG9uJywgJy1waCcsICc3LjAnLCAnLXRuJywgJzgnLCAnLW1hJywgJzIwMCcsICctbWV0YWxfYmluZGluZycsICctaW1hZScsICc8aW5maWxlLm1hZT4nLCAnLW9tYWUnLCAnPG91dGZpbGUubWFlPic=

> <r_lp_tautomer_probability>
1

> <r_epik_Ionization_Penalty>
0.000422169

> <r_epik_Ionization_Penalty_Charging>
0

> <r_epik_Ionization_Penalty_Neutral>
0.000422169

> <r_epik_State_Penalty>
-0

> <r_epik_Charging_Adjusted_Penalty>
0

> <i_epik_Tot_Q>
0

> <i_epik_Tot_abs_Q>
0

> <r_epik_Metal_State_Penalty>
0.200061

> <b_epik_Metal_Only>
0

> <s_lp_Force_Field>
OPLS_2005

> <r_lp_Energy>
11.4796

> <b_lp_Chiralities_Consistent>
1

> <s_lp_Variant>
AV-unprocessed.smi:672-2

> <Gold.Version>
5.8.1

> <Gold.Id.Protein>
6NUR|6NUR_protein|mol2

> <Gold.PLP.Fitness>
35.7541

> <Gold.PLP.PLP>
-32.5483

> <Gold.PLP.part.hbond>
-4.5936

> <Gold.PLP.part.metal>
0.0000

> <Gold.PLP.part.buried>
-0.1822

> <Gold.PLP.part.nonpolar>
-29.5173

> <Gold.PLP.part.repulsive>
0.3758

> <Gold.PLP.ligand.clash>
0.0000

> <Gold.PLP.ligand.torsion>
0.3312

> <Gold.PLP.Chemscore.Hbond>
1.2850

> <Gold.PLP.Chemscore.CHOScore>
0.0000

> <Gold.PLP.Chemscore.Metal>
0.0000

> <Gold.Chemscore.Hbonds>
donor molecule, donor type, donor heavy atom, donor atom, acceptor molecule, acceptor atom, score
      L1  H    10    25       P1  7948  0.86
      P1  H  7989  7998       L1     5  0.40

> <Gold.PLP.Chemscore.Internal.Correction>
0.0133

> <Gold.Rescore>
     Score         DG    S(hbond)    S(metal)    S(lipo)     H(rot)  DE(clash)    DE(int)     intcor
     10.84     -14.15       1.05        0.00      74.02       1.37       1.55       1.77       ----

> <Gold.Chemscore.Fitness>
10.8371

> <Gold.Chemscore.DG>
-14.1530

> <Gold.Chemscore.ZeroCoef>
-5.4800

> <Gold.Chemscore.Hbond>
1.0514

> <Gold.Chemscore.Metal>
0.0000

> <Gold.Chemscore.Lipo>
74.0208

> <Gold.Chemscore.Internal_Hbond>
0.0000

> <Gold.Chemscore.DEClash>
1.5505

> <Gold.Chemscore.DEInternal>
1.7654

> <Gold.Chemscore.Rot>
1.3669

> <Gold.Chemscore.Internal.Correction>
   9.000000E+99

> <Gold.Chemscore.Hbonds>
donor molecule, donor type, donor heavy atom, donor atom, acceptor molecule, acceptor atom, score
      L1  H     7    24       P1  7957  0.01
      L1  H    10    25       P1  7948  0.85

> <Gold.Chemscore.Hbond.Weighted>
-3.5118

> <Gold.Chemscore.Metal.Weighted>
-0.0000

> <Gold.Chemscore.Lipo.Weighted>
-8.6604

> <Gold.Chemscore.Internal_Hbond.Weighted>
0.0000

> <Gold.Chemscore.DEClash.Weighted>
1.5505

> <Gold.Chemscore.DEInternal.Weighted>
1.7654

> <Gold.Chemscore.Rot.Weighted>
3.4992

> <Gold.Chemscore.Internal.Correction.Weighted>
   9.000000E+99

> <Gold.Protein.RotatedTorsions>
[ 6907 6896 6895 6894 ] final -149.44 input  -60.11 | X-H torsion
[ 7974 7965 7964 7962 ] final  175.96 input  175.53 | X-H torsion
[ 8008 7997 7996 7995 ] final  -46.27 input   59.86 | X-H torsion
[ 10167 10162 10161 10158 ] final -114.65 input  -65.29 | X-H torsion
[ 10718 10713 10712 10709 ] final -149.79 input   66.30 | X-H torsion
[ 10763 10752 10751 10750 ] final  -83.19 input  -60.55 | X-H torsion
[ 11005 11000 10999 10996 ] final   37.64 input  -57.11 | X-H torsion

> <Gold.Protein.ActiveResidues>
 VAL166  LYS551  ARG553  GLY616  TRP617  ASP618  TYR619  PRO620  LYS621  CYS622 
 ASP623  PHE694  ASN695  SER759  ASP760  ASP761  ALA762  ILE779  LEU786  VAL792 
 PHE793  MET794  SER795  GLU796  ALA797  LYS798  CYS799  TRP800  GLU811  SER814 

> <Gold.Protein.RotatedAtoms>
  151.1842  133.4706  159.2594 H   0  0  0  0  0  0  0  0  0  0  0  0  # atno 6907 bound_to 6896
  151.1229  135.0089  159.8557 H   0  0  0  0  0  0  0  0  0  0  0  0  # atno 6908 bound_to 6896
  152.5457  134.1751  159.8666 H   0  0  0  0  0  0  0  0  0  0  0  0  # atno 6909 bound_to 6896
  144.7192  140.0025  143.6440 H   0  0  0  0  0  0  0  0  0  0  0  0  # atno 7974 bound_to 7965
  154.4006  140.1376  156.3984 H   0  0  0  0  0  0  0  0  0  0  0  0  # atno 8008 bound_to 7997
  155.7848  140.3480  155.5296 H   0  0  0  0  0  0  0  0  0  0  0  0  # atno 8009 bound_to 7997
  155.8638  140.0961  157.1586 H   0  0  0  0  0  0  0  0  0  0  0  0  # atno 8010 bound_to 7997
  140.0986  143.4633  152.1826 H   0  0  0  0  0  0  0  0  0  0  0  0  # atno 10167 bound_to 10162
  156.4378  130.8107  151.2336 H   0  0  0  0  0  0  0  0  0  0  0  0  # atno 10718 bound_to 10713
  154.5847  135.5565  153.7220 H   0  0  0  0  0  0  0  0  0  0  0  0  # atno 10763 bound_to 10752
  153.0094  135.6328  154.1933 H   0  0  0  0  0  0  0  0  0  0  0  0  # atno 10764 bound_to 10752
  154.1874  135.2884  155.3013 H   0  0  0  0  0  0  0  0  0  0  0  0  # atno 10765 bound_to 10752
  140.2206  134.3646  155.8007 H   0  0  0  0  0  0  0  0  0  0  0  0  # atno 11005 bound_to 11000
  146.0324  139.3346  143.0747 LP  0  0  0  0  0  0  0  0  0  0  0  0  # atno 17320 bound_to 7965
  145.8437  140.9567  143.0786 LP  0  0  0  0  0  0  0  0  0  0  0  0  # atno 17321 bound_to 7965
  139.5684  144.7448  151.3959 LP  0  0  0  0  0  0  0  0  0  0  0  0  # atno 17342 bound_to 10162
  140.6990  143.7679  150.7372 LP  0  0  0  0  0  0  0  0  0  0  0  0  # atno 17343 bound_to 10162
  157.7507  131.0178  150.3600 LP  0  0  0  0  0  0  0  0  0  0  0  0  # atno 17370 bound_to 10713
  156.3951  130.3905  149.7001 LP  0  0  0  0  0  0  0  0  0  0  0  0  # atno 17371 bound_to 10713
  141.2223  133.7191  156.8569 LP  0  0  0  0  0  0  0  0  0  0  0  0  # atno 17394 bound_to 11000
  140.1854  134.9003  157.2998 LP  0  0  0  0  0  0  0  0  0  0  0  0  # atno 17395 bound_to 11000

$$$$
