AV-unprocessed.smi:3014|AV-procd|sdf|11468|dock3
  -GOLD-   2272016403D 1   1.00000     0.00000
 Structure written by MMmdl.
 45 46  0  0  0  0  0  0  0  0  1 V2000
  152.5426  143.9029  161.9164 C   0  0  0  0  0  0  0  0  0  0  0  0
  152.5551  143.4978  160.4355 C   0  0  2  0  0  0  0  0  0  0  0  0
  152.1454  144.6735  159.5272 C   0  0  0  0  0  0  0  0  0  0  0  0
  152.1476  144.2682  158.0447 C   0  0  0  0  0  0  0  0  0  0  0  0
  151.2458  143.0487  157.8024 C   0  0  0  0  0  0  0  0  0  0  0  0
  151.6618  141.8643  158.6902 C   0  0  2  0  0  0  0  0  0  0  0  0
  150.7316  140.8091  158.4555 O   0  0  0  0  0  0  0  0  0  0  0  0
  151.0497  139.9076  157.3977 C   0  0  0  0  0  0  0  0  0  0  0  0
  150.4349  138.5265  157.6507 C   0  0  0  0  0  0  0  0  0  0  0  0
  150.7587  137.5777  156.9360 O   0  0  0  0  0  0  0  0  0  0  0  0
  149.5623  138.4546  158.6729 N   0  0  0  0  0  0  0  0  0  0  0  0
  148.8533  137.3174  159.1409 C   0  0  0  0  0  0  0  0  0  0  0  0
  148.6826  136.2716  158.2086 C   0  0  0  0  0  0  0  0  0  0  0  0
  147.9840  135.1299  158.6464 C   0  0  0  0  0  0  0  0  0  0  0  0
  147.4961  135.0326  159.8998 N   0  0  0  0  0  0  0  0  0  0  0  0
  147.6997  136.0699  160.7211 C   0  0  0  0  0  0  0  0  0  0  0  0
  147.1956  135.9741  162.0213 N   0  0  0  0  0  0  0  0  0  0  0  0
  146.3506  134.8523  162.4217 C   0  0  0  0  0  0  0  0  0  0  0  0
  147.4893  136.9942  163.0236 C   0  0  0  0  0  0  0  0  0  0  0  0
  148.3506  137.1937  160.3938 N   0  0  0  0  0  0  0  0  0  0  0  0
  151.6528  142.2746  160.1774 C   0  0  0  0  0  0  0  0  0  0  0  0
  151.5443  144.2024  162.2375 H   0  0  0  0  0  0  0  0  0  0  0  0
  153.2162  144.7403  162.0999 H   0  0  0  0  0  0  0  0  0  0  0  0
  152.8631  143.0773  162.5526 H   0  0  0  0  0  0  0  0  0  0  0  0
  153.5786  143.2179  160.1806 H   0  0  0  0  0  0  0  0  0  0  0  0
  151.1509  145.0256  159.8051 H   0  0  0  0  0  0  0  0  0  0  0  0
  152.8231  145.5147  159.6767 H   0  0  0  0  0  0  0  0  0  0  0  0
  151.8145  145.1047  157.4297 H   0  0  0  0  0  0  0  0  0  0  0  0
  153.1659  144.0378  157.7292 H   0  0  0  0  0  0  0  0  0  0  0  0
  150.2083  143.3169  158.0065 H   0  0  0  0  0  0  0  0  0  0  0  0
  151.2897  142.7585  156.7521 H   0  0  0  0  0  0  0  0  0  0  0  0
  152.6712  141.5669  158.4023 H   0  0  0  0  0  0  0  0  0  0  0  0
  150.7435  140.3077  156.4306 H   0  0  0  0  0  0  0  0  0  0  0  0
  152.1331  139.7937  157.3616 H   0  0  0  0  0  0  0  0  0  0  0  0
  149.3878  139.3136  159.1734 H   0  0  0  0  0  0  0  0  0  0  0  0
  149.0686  136.3362  157.2017 H   0  0  0  0  0  0  0  0  0  0  0  0
  147.8163  134.2911  157.9872 H   0  0  0  0  0  0  0  0  0  0  0  0
  146.8913  133.9116  162.3118 H   0  0  0  0  0  0  0  0  0  0  0  0
  145.4557  134.8086  161.8000 H   0  0  0  0  0  0  0  0  0  0  0  0
  146.0298  134.9328  163.4602 H   0  0  0  0  0  0  0  0  0  0  0  0
  147.1101  137.9640  162.7003 H   0  0  0  0  0  0  0  0  0  0  0  0
  148.5656  137.0789  163.1768 H   0  0  0  0  0  0  0  0  0  0  0  0
  147.0346  136.7630  163.9870 H   0  0  0  0  0  0  0  0  0  0  0  0
  151.9855  141.4441  160.7999 H   0  0  0  0  0  0  0  0  0  0  0  0
  150.6311  142.5005  160.4863 H   0  0  0  0  0  0  0  0  0  0  0  0
  1  2  1  0  0  0  0
  1 22  1  0  0  0  0
  1 23  1  0  0  0  0
  1 24  1  0  0  0  0
  2 21  1  0  0  0  0
  2  3  1  0  0  0  0
  2 25  1  0  0  0  0
  3  4  1  0  0  0  0
  3 26  1  0  0  0  0
  3 27  1  0  0  0  0
  4  5  1  0  0  0  0
  4 28  1  0  0  0  0
  4 29  1  0  0  0  0
  5  6  1  0  0  0  0
  5 30  1  0  0  0  0
  5 31  1  0  0  0  0
  6  7  1  0  0  0  0
  6 21  1  0  0  0  0
  6 32  1  0  0  0  0
  7  8  1  0  0  0  0
  8  9  1  0  0  0  0
  8 33  1  0  0  0  0
  8 34  1  0  0  0  0
  9 10  2  0  0  0  0
  9 11  1  0  0  0  0
 11 12  1  0  0  0  0
 11 35  1  0  0  0  0
 12 20  1  0  0  0  0
 12 13  2  0  0  0  0
 13 14  1  0  0  0  0
 13 36  1  0  0  0  0
 14 15  2  0  0  0  0
 14 37  1  0  0  0  0
 15 16  1  0  0  0  0
 16 17  1  0  0  0  0
 16 20  2  0  0  0  0
 17 18  1  0  0  0  0
 17 19  1  0  0  0  0
 18 38  1  0  0  0  0
 18 39  1  0  0  0  0
 18 40  1  0  0  0  0
 19 41  1  0  0  0  0
 19 42  1  0  0  0  0
 19 43  1  0  0  0  0
 21 44  1  0  0  0  0
 21 45  1  0  0  0  0
M  END
> <s_m_source_file>
AV-unprocessed.smi

> <i_m_source_file_index>
3014

> <i_lp_mmshare_version>
43012

> <i_f3d_flags>
0

> <s_epik_input>
W0NIM11bQ0BASF0xW0NIMl1bQ0gyXVtDSDJdW0NASF0oW0NIMl0xKU9bQ0gyXUMoPU8pW05IXWMyW2NIXVtjSF1uYyhuMilOKFtDSDNdKVtDSDNd

> <s_epik_cmdline>
J2VwaWtfcHl0aG9uJywgJy1waCcsICc3LjAnLCAnLXRuJywgJzgnLCAnLW1hJywgJzIwMCcsICctbWV0YWxfYmluZGluZycsICctaW1hZScsICc8aW5maWxlLm1hZT4nLCAnLW9tYWUnLCAnPG91dGZpbGUubWFlPic=

> <r_lp_tautomer_probability>
1

> <r_epik_Ionization_Penalty>
0.000308195

> <r_epik_Ionization_Penalty_Charging>
0

> <r_epik_Ionization_Penalty_Neutral>
0.000308195

> <r_epik_State_Penalty>
-0

> <r_epik_Charging_Adjusted_Penalty>
0

> <i_epik_Tot_Q>
0

> <i_epik_Tot_abs_Q>
0

> <r_epik_Metal_State_Penalty>
-0

> <b_epik_Metal_Only>
0

> <s_lp_Force_Field>
OPLS_2005

> <r_lp_Energy>
8.92974

> <b_lp_Chiralities_Consistent>
1

> <s_lp_Variant>
AV-unprocessed.smi:3014-3

> <Gold.Version>
5.8.1

> <Gold.Id.Protein>
6NUR|6NUR_protein|mol2

> <Gold.PLP.Fitness>
44.8776

> <Gold.PLP.PLP>
-43.8911

> <Gold.PLP.part.hbond>
-1.7810

> <Gold.PLP.part.metal>
0.0000

> <Gold.PLP.part.buried>
-3.1027

> <Gold.PLP.part.nonpolar>
-39.4229

> <Gold.PLP.part.repulsive>
0.2055

> <Gold.PLP.ligand.clash>
0.0000

> <Gold.PLP.ligand.torsion>
0.7505

> <Gold.PLP.Chemscore.Hbond>
0.8227

> <Gold.PLP.Chemscore.CHOScore>
0.0000

> <Gold.PLP.Chemscore.Metal>
0.0000

> <Gold.Chemscore.Hbonds>
donor molecule, donor type, donor heavy atom, donor atom, acceptor molecule, acceptor atom, score
      P1  H  6931  6943       L1    20  0.70
      P1  H  6934  6947       L1    20  0.31

> <Gold.PLP.Chemscore.Internal.Correction>
0.0193

> <Gold.Rescore>
     Score         DG    S(hbond)    S(metal)    S(lipo)     H(rot)  DE(clash)    DE(int)     intcor
     15.20     -17.80       0.97        0.00     108.93       1.43       0.22       2.37       ----

> <Gold.Chemscore.Fitness>
15.2026

> <Gold.Chemscore.DG>
-17.7956

> <Gold.Chemscore.ZeroCoef>
-5.4800

> <Gold.Chemscore.Hbond>
0.9684

> <Gold.Chemscore.Metal>
0.0000

> <Gold.Chemscore.Lipo>
108.9257

> <Gold.Chemscore.Internal_Hbond>
0.0000

> <Gold.Chemscore.DEClash>
0.2228

> <Gold.Chemscore.DEInternal>
2.3702

> <Gold.Chemscore.Rot>
1.4310

> <Gold.Chemscore.Internal.Correction>
   9.000000E+99

> <Gold.Chemscore.Hbonds>
donor molecule, donor type, donor heavy atom, donor atom, acceptor molecule, acceptor atom, score
      P1  H  6931  6943       L1    20  0.64
      P1  H  6934  6947       L1    20  0.19

> <Gold.Chemscore.Hbond.Weighted>
-3.2345

> <Gold.Chemscore.Metal.Weighted>
-0.0000

> <Gold.Chemscore.Lipo.Weighted>
-12.7443

> <Gold.Chemscore.Internal_Hbond.Weighted>
0.0000

> <Gold.Chemscore.DEClash.Weighted>
0.2228

> <Gold.Chemscore.DEInternal.Weighted>
2.3702

> <Gold.Chemscore.Rot.Weighted>
3.6632

> <Gold.Chemscore.Internal.Correction.Weighted>
   9.000000E+99

> <Gold.Protein.RotatedTorsions>
[ 6907 6896 6895 6894 ] final -108.65 input  -60.11 | X-H torsion
[ 7974 7965 7964 7962 ] final   16.96 input  175.53 | X-H torsion
[ 8008 7997 7996 7995 ] final   50.96 input   59.86 | X-H torsion
[ 10167 10162 10161 10158 ] final  126.05 input  -65.29 | X-H torsion
[ 10718 10713 10712 10709 ] final  -69.24 input   66.30 | X-H torsion
[ 10763 10752 10751 10750 ] final  178.68 input  -60.55 | X-H torsion
[ 11005 11000 10999 10996 ] final  -32.51 input  -57.11 | X-H torsion

> <Gold.Protein.ActiveResidues>
 VAL166  LYS551  ARG553  GLY616  TRP617  ASP618  TYR619  PRO620  LYS621  CYS622 
 ASP623  PHE694  ASN695  SER759  ASP760  ASP761  ALA762  ILE779  LEU786  VAL792 
 PHE793  MET794  SER795  GLU796  ALA797  LYS798  CYS799  TRP800  GLU811  SER814 

> <Gold.Protein.RotatedAtoms>
  150.7514  133.9646  159.3526 H   0  0  0  0  0  0  0  0  0  0  0  0  # atno 6907 bound_to 6896
  151.7575  135.0816  160.0350 H   0  0  0  0  0  0  0  0  0  0  0  0  # atno 6908 bound_to 6896
  152.3425  133.6047  159.5923 H   0  0  0  0  0  0  0  0  0  0  0  0  # atno 6909 bound_to 6896
  146.2233  139.8671  142.8594 H   0  0  0  0  0  0  0  0  0  0  0  0  # atno 7974 bound_to 7965
  155.4274  140.3449  155.4277 H   0  0  0  0  0  0  0  0  0  0  0  0  # atno 8008 bound_to 7997
  156.1357  140.1527  156.9029 H   0  0  0  0  0  0  0  0  0  0  0  0  # atno 8009 bound_to 7997
  154.4930  140.0836  156.7615 H   0  0  0  0  0  0  0  0  0  0  0  0  # atno 8010 bound_to 7997
  139.5652  144.6907  151.3931 H   0  0  0  0  0  0  0  0  0  0  0  0  # atno 10167 bound_to 10162
  156.0465  130.4309  150.2119 H   0  0  0  0  0  0  0  0  0  0  0  0  # atno 10718 bound_to 10713
  154.5109  135.2788  155.1344 H   0  0  0  0  0  0  0  0  0  0  0  0  # atno 10763 bound_to 10752
  154.2939  135.6261  153.5400 H   0  0  0  0  0  0  0  0  0  0  0  0  # atno 10764 bound_to 10752
  152.9918  135.5681  154.5574 H   0  0  0  0  0  0  0  0  0  0  0  0  # atno 10765 bound_to 10752
  140.9558  133.7193  156.1291 H   0  0  0  0  0  0  0  0  0  0  0  0  # atno 11005 bound_to 11000
  145.2645  141.0088  143.3807 LP  0  0  0  0  0  0  0  0  0  0  0  0  # atno 17320 bound_to 7965
  144.9272  139.4341  143.6513 LP  0  0  0  0  0  0  0  0  0  0  0  0  # atno 17321 bound_to 7965
  140.6935  143.7806  150.7290 LP  0  0  0  0  0  0  0  0  0  0  0  0  # atno 17342 bound_to 10162
  140.1295  143.4539  152.2263 LP  0  0  0  0  0  0  0  0  0  0  0  0  # atno 17343 bound_to 10162
  157.0208  130.9978  151.3340 LP  0  0  0  0  0  0  0  0  0  0  0  0  # atno 17370 bound_to 10713
  157.5346  130.8080  149.7956 LP  0  0  0  0  0  0  0  0  0  0  0  0  # atno 17371 bound_to 10713
  140.7538  134.4015  157.5537 LP  0  0  0  0  0  0  0  0  0  0  0  0  # atno 17394 bound_to 11000
  139.8862  134.8917  156.2600 LP  0  0  0  0  0  0  0  0  0  0  0  0  # atno 17395 bound_to 11000

$$$$
