AV-unprocessed.smi:1603|AV-procd|sdf|6446|dock4
  -GOLD-   22720 7 93D 1   1.00000     0.00000
 Structure written by MMmdl.
 44 46  0  0  0  0  0  0  0  0  1 V2000
  154.0195  139.5712  158.3394 O   0  0  0  0  0  0  0  0  0  0  0  0
  153.3906  140.5243  158.8007 C   0  0  0  0  0  0  0  0  0  0  0  0
  153.5859  141.0436  160.1630 C   0  0  0  0  0  0  0  0  0  0  0  0
  154.6354  140.3694  161.0426 C   0  0  0  0  0  0  0  0  0  0  0  0
  154.5793  140.8065  162.3016 F   0  0  0  0  0  0  0  0  0  0  0  0
  154.4521  139.0486  161.0604 F   0  0  0  0  0  0  0  0  0  0  0  0
  155.8622  140.6140  160.5805 F   0  0  0  0  0  0  0  0  0  0  0  0
  152.8478  142.0920  160.6024 C   0  0  0  0  0  0  0  0  0  0  0  0
  151.8636  142.7084  159.7358 C   0  0  0  0  0  0  0  0  0  0  0  0
  151.0062  143.8652  160.1627 C   0  0  0  0  0  0  0  0  0  0  0  0
  150.9034  145.1328  159.3452 C   0  0  0  0  0  0  0  0  0  0  0  0
  151.6068  145.1504  160.6825 C   0  0  0  0  0  0  0  0  0  0  0  0
  151.7000  142.2566  158.5382 N   0  0  0  0  0  0  0  0  0  0  0  0
  152.4407  141.1869  158.0762 N   0  0  0  0  0  0  0  0  0  0  0  0
  152.1116  140.7872  156.7020 C   0  0  0  0  0  0  0  0  0  0  0  0
  150.7575  141.3691  156.2353 C   0  0  1  0  0  0  0  0  0  0  0  0
  150.8798  142.7790  156.2321 O   0  0  0  0  0  0  0  0  0  0  0  0
  150.3998  140.9203  154.8005 C   0  0  0  0  0  0  0  0  0  0  0  0
  150.5545  139.4890  154.5367 N   0  0  0  0  0  0  0  0  0  0  0  0
  151.9303  139.1191  154.2112 C   0  0  0  0  0  0  0  0  0  0  0  0
  152.0774  137.6070  153.9660 C   0  0  0  0  0  0  0  0  0  0  0  0
  151.6107  136.8879  155.1031 O   0  0  0  0  0  0  0  0  0  0  0  0
  150.2553  137.1855  155.4210 C   0  0  0  0  0  0  0  0  0  0  0  0
  150.1075  138.6953  155.6767 C   0  0  0  0  0  0  0  0  0  0  0  0
  152.9773  142.4884  161.5984 H   0  0  0  0  0  0  0  0  0  0  0  0
  150.0952  143.5133  160.6432 H   0  0  0  0  0  0  0  0  0  0  0  0
  151.5249  145.2265  158.4565 H   0  0  0  0  0  0  0  0  0  0  0  0
  149.9285  145.6120  159.2835 H   0  0  0  0  0  0  0  0  0  0  0  0
  151.1002  145.6416  161.5109 H   0  0  0  0  0  0  0  0  0  0  0  0
  152.6912  145.2468  160.6761 H   0  0  0  0  0  0  0  0  0  0  0  0
  152.9083  141.0711  156.0111 H   0  0  0  0  0  0  0  0  0  0  0  0
  152.0844  139.6969  156.6602 H   0  0  0  0  0  0  0  0  0  0  0  0
  149.9633  141.0700  156.9211 H   0  0  0  0  0  0  0  0  0  0  0  0
  150.0659  143.1508  155.9279 H   0  0  0  0  0  0  0  0  0  0  0  0
  149.3959  141.2538  154.5318 H   0  0  0  0  0  0  0  0  0  0  0  0
  151.0670  141.4460  154.1165 H   0  0  0  0  0  0  0  0  0  0  0  0
  152.2621  139.6488  153.3186 H   0  0  0  0  0  0  0  0  0  0  0  0
  152.5962  139.4207  155.0213 H   0  0  0  0  0  0  0  0  0  0  0  0
  151.5170  137.3035  153.0803 H   0  0  0  0  0  0  0  0  0  0  0  0
  153.1221  137.3519  153.7871 H   0  0  0  0  0  0  0  0  0  0  0  0
  149.6038  136.8653  154.6063 H   0  0  0  0  0  0  0  0  0  0  0  0
  149.9641  136.6200  156.3063 H   0  0  0  0  0  0  0  0  0  0  0  0
  150.6806  138.9676  156.5645 H   0  0  0  0  0  0  0  0  0  0  0  0
  149.0634  138.9200  155.8987 H   0  0  0  0  0  0  0  0  0  0  0  0
  1  2  2  0  0  0  0
  2 14  1  0  0  0  0
  2  3  1  0  0  0  0
  3  4  1  0  0  0  0
  3  8  2  0  0  0  0
  4  5  1  0  0  0  0
  4  6  1  0  0  0  0
  4  7  1  0  0  0  0
  8  9  1  0  0  0  0
  8 25  1  0  0  0  0
  9 10  1  0  0  0  0
  9 13  2  0  0  0  0
 10 12  1  0  0  0  0
 10 11  1  0  0  0  0
 10 26  1  0  0  0  0
 11 12  1  0  0  0  0
 11 27  1  0  0  0  0
 11 28  1  0  0  0  0
 12 29  1  0  0  0  0
 12 30  1  0  0  0  0
 13 14  1  0  0  0  0
 14 15  1  0  0  0  0
 15 16  1  0  0  0  0
 15 31  1  0  0  0  0
 15 32  1  0  0  0  0
 16 17  1  0  0  0  0
 16 18  1  0  0  0  0
 16 33  1  0  0  0  0
 17 34  1  0  0  0  0
 18 19  1  0  0  0  0
 18 35  1  0  0  0  0
 18 36  1  0  0  0  0
 19 24  1  0  0  0  0
 19 20  1  0  0  0  0
 20 21  1  0  0  0  0
 20 37  1  0  0  0  0
 20 38  1  0  0  0  0
 21 22  1  0  0  0  0
 21 39  1  0  0  0  0
 21 40  1  0  0  0  0
 22 23  1  0  0  0  0
 23 24  1  0  0  0  0
 23 41  1  0  0  0  0
 23 42  1  0  0  0  0
 24 43  1  0  0  0  0
 24 44  1  0  0  0  0
M  END
> <s_m_source_file>
AV-unprocessed.smi

> <i_m_source_file_index>
1603

> <i_lp_mmshare_version>
43012

> <i_f3d_flags>
0

> <s_epik_input>
Tz1jMWMoQyhGKShGKUYpW2NIXWMoW0NIXTJbQ0gyXVtDSDJdMilubjFbQ0gyXVtDQEhdKFtPSF0pW0NIMl1OM1tDSDJdW0NIMl1PW0NIMl1bQ0gyXTM=

> <s_epik_cmdline>
J2VwaWtfcHl0aG9uJywgJy1waCcsICc3LjAnLCAnLXRuJywgJzgnLCAnLW1hJywgJzIwMCcsICctbWV0YWxfYmluZGluZycsICctaW1hZScsICc8aW5maWxlLm1hZT4nLCAnLW9tYWUnLCAnPG91dGZpbGUubWFlPic=

> <r_lp_tautomer_probability>
1

> <r_epik_Ionization_Penalty>
0.450313

> <r_epik_Ionization_Penalty_Charging>
7.22079e-10

> <r_epik_Ionization_Penalty_Neutral>
0.450313

> <r_epik_State_Penalty>
0.45306

> <r_epik_Charging_Adjusted_Penalty>
0.45306

> <i_epik_Tot_Q>
0

> <i_epik_Tot_abs_Q>
0

> <r_epik_Metal_State_Penalty>
0.45306

> <b_epik_Metal_Only>
0

> <s_lp_Force_Field>
OPLS_2005

> <r_lp_Energy>
51.835

> <b_lp_Chiralities_Consistent>
1

> <s_lp_Variant>
AV-unprocessed.smi:1603-4

> <Gold.Version>
5.8.1

> <Gold.Id.Protein>
6NUR|6NUR_protein|mol2

> <Gold.PLP.Fitness>
52.2938

> <Gold.PLP.PLP>
-47.5044

> <Gold.PLP.part.hbond>
-2.0000

> <Gold.PLP.part.metal>
0.0000

> <Gold.PLP.part.buried>
-3.6821

> <Gold.PLP.part.nonpolar>
-41.2709

> <Gold.PLP.part.repulsive>
0.1936

> <Gold.PLP.ligand.clash>
0.1612

> <Gold.PLP.ligand.torsion>
0.8381

> <Gold.PLP.Chemscore.Hbond>
2.0000

> <Gold.PLP.Chemscore.CHOScore>
0.0000

> <Gold.PLP.Chemscore.Metal>
0.0000

> <Gold.Chemscore.Hbonds>
donor molecule, donor type, donor heavy atom, donor atom, acceptor molecule, acceptor atom, score
      L1  H    17    34       P1  8028  0.99
      P1  H  7997  8010       L1     1  0.86
      P1  H 10752 10765       L1    22  0.51

> <Gold.PLP.Chemscore.Internal.Correction>
0.6268

> <Gold.Rescore>
     Score         DG    S(hbond)    S(metal)    S(lipo)     H(rot)  DE(clash)    DE(int)     intcor
     13.25     -16.97       1.52        0.00     107.87       2.43       0.85       2.87       ----

> <Gold.Chemscore.Fitness>
13.2516

> <Gold.Chemscore.DG>
-16.9683

> <Gold.Chemscore.ZeroCoef>
-5.4800

> <Gold.Chemscore.Hbond>
1.5212

> <Gold.Chemscore.Metal>
0.0000

> <Gold.Chemscore.Lipo>
107.8716

> <Gold.Chemscore.Internal_Hbond>
0.0000

> <Gold.Chemscore.DEClash>
0.8497

> <Gold.Chemscore.DEInternal>
2.8669

> <Gold.Chemscore.Rot>
2.4272

> <Gold.Chemscore.Internal.Correction>
   9.000000E+99

> <Gold.Chemscore.Hbonds>
donor molecule, donor type, donor heavy atom, donor atom, acceptor molecule, acceptor atom, score
      L1  H    17    34       P1  8028  0.92
      P1  H  7997  8010       L1     1  0.65
      P1  H 10752 10765       L1    22  0.03

> <Gold.Chemscore.Hbond.Weighted>
-5.0808

> <Gold.Chemscore.Metal.Weighted>
-0.0000

> <Gold.Chemscore.Lipo.Weighted>
-12.6210

> <Gold.Chemscore.Internal_Hbond.Weighted>
0.0000

> <Gold.Chemscore.DEClash.Weighted>
0.8497

> <Gold.Chemscore.DEInternal.Weighted>
2.8669

> <Gold.Chemscore.Rot.Weighted>
6.2135

> <Gold.Chemscore.Internal.Correction.Weighted>
   9.000000E+99

> <Gold.Protein.RotatedTorsions>
[ 6907 6896 6895 6894 ] final   77.72 input  -60.11 | X-H torsion
[ 7974 7965 7964 7962 ] final  -95.97 input  175.53 | X-H torsion
[ 8008 7997 7996 7995 ] final    8.59 input   59.86 | X-H torsion
[ 10167 10162 10161 10158 ] final  -20.71 input  -65.29 | X-H torsion
[ 10718 10713 10712 10709 ] final  115.66 input   66.30 | X-H torsion
[ 10763 10752 10751 10750 ] final -158.66 input  -60.55 | X-H torsion
[ 11005 11000 10999 10996 ] final  -33.51 input  -57.11 | X-H torsion

> <Gold.Protein.ActiveResidues>
 VAL166  LYS551  ARG553  GLY616  TRP617  ASP618  TYR619  PRO620  LYS621  CYS622 
 ASP623  PHE694  ASN695  SER759  ASP760  ASP761  ALA762  ILE779  LEU786  VAL792 
 PHE793  MET794  SER795  GLU796  ALA797  LYS798  CYS799  TRP800  GLU811  SER814 

> <Gold.Protein.RotatedAtoms>
  152.5129  134.3774  159.9339 H   0  0  0  0  0  0  0  0  0  0  0  0  # atno 6907 bound_to 6896
  151.3730  133.3842  159.2709 H   0  0  0  0  0  0  0  0  0  0  0  0  # atno 6908 bound_to 6896
  150.9563  134.8976  159.7761 H   0  0  0  0  0  0  0  0  0  0  0  0  # atno 6909 bound_to 6896
  145.3530  140.9479  143.2544 H   0  0  0  0  0  0  0  0  0  0  0  0  # atno 7974 bound_to 7965
  154.7688  140.2798  155.6154 H   0  0  0  0  0  0  0  0  0  0  0  0  # atno 8008 bound_to 7997
  156.2930  140.2645  156.2413 H   0  0  0  0  0  0  0  0  0  0  0  0  # atno 8009 bound_to 7997
  154.9925  140.0373  157.2315 H   0  0  0  0  0  0  0  0  0  0  0  0  # atno 8010 bound_to 7997
  140.7278  143.4697  151.0264 H   0  0  0  0  0  0  0  0  0  0  0  0  # atno 10167 bound_to 10162
  157.6208  131.1015  150.7361 H   0  0  0  0  0  0  0  0  0  0  0  0  # atno 10718 bound_to 10713
  154.7538  135.3099  154.8507 H   0  0  0  0  0  0  0  0  0  0  0  0  # atno 10763 bound_to 10752
  153.9287  135.6787  153.4750 H   0  0  0  0  0  0  0  0  0  0  0  0  # atno 10764 bound_to 10752
  153.1135  135.4855  154.9005 H   0  0  0  0  0  0  0  0  0  0  0  0  # atno 10765 bound_to 10752
  140.9641  133.7147  156.1417 H   0  0  0  0  0  0  0  0  0  0  0  0  # atno 11005 bound_to 11000
  144.8703  139.5047  143.6770 LP  0  0  0  0  0  0  0  0  0  0  0  0  # atno 17320 bound_to 7965
  146.2960  139.7279  142.9126 LP  0  0  0  0  0  0  0  0  0  0  0  0  # atno 17321 bound_to 7965
  139.8388  143.7592  152.3180 LP  0  0  0  0  0  0  0  0  0  0  0  0  # atno 17342 bound_to 10162
  139.7733  144.7469  151.0193 LP  0  0  0  0  0  0  0  0  0  0  0  0  # atno 17343 bound_to 10162
  156.7719  130.4831  149.5417 LP  0  0  0  0  0  0  0  0  0  0  0  0  # atno 17370 bound_to 10713
  156.1353  130.6207  151.0392 LP  0  0  0  0  0  0  0  0  0  0  0  0  # atno 17371 bound_to 10713
  140.7425  134.4134  157.5553 LP  0  0  0  0  0  0  0  0  0  0  0  0  # atno 17394 bound_to 11000
  139.8888  134.8846  156.2453 LP  0  0  0  0  0  0  0  0  0  0  0  0  # atno 17395 bound_to 11000

$$$$
