AV-unprocessed.smi:2679|AV-procd|sdf|10371|dock4
  -GOLD-   2272014403D 1   1.00000     0.00000
 Structure written by MMmdl.
 39 40  0  0  0  0  0  0  0  0  1 V2000
  151.2845  135.0021  155.8001 C   0  0  0  0  0  0  0  0  0  0  0  0
  150.6237  136.1048  156.5626 C   0  0  0  0  0  0  0  0  0  0  0  0
  149.7943  135.8969  157.5869 N   0  0  0  0  0  0  0  0  0  0  0  0
  149.4079  137.1507  158.0032 N   0  0  0  0  0  0  0  0  0  0  0  0
  150.0328  138.0091  157.1925 C   0  0  0  0  0  0  0  0  0  0  0  0
  149.8745  139.7657  157.2922 S   0  0  0  0  0  0  0  0  0  0  0  0
  151.2579  140.1671  158.4116 C   0  0  1  0  0  0  0  0  0  0  0  0
  152.4918  139.7061  157.7538 C   0  0  0  0  0  0  0  0  0  0  0  0
  153.4621  139.3446  157.2370 N   0  0  0  0  0  0  0  0  0  0  0  0
  151.3065  141.6694  158.7938 C   0  0  0  0  0  0  0  0  0  0  0  0
  151.2172  142.5812  157.5470 C   0  0  0  0  0  0  0  0  0  0  0  0
  151.2630  144.0737  157.9123 C   0  0  0  0  0  0  0  0  0  0  0  0
  152.5208  144.4111  158.7234 C   0  0  0  0  0  0  0  0  0  0  0  0
  152.6118  143.5295  159.9751 C   0  0  0  0  0  0  0  0  0  0  0  0
  152.5662  142.0375  159.6115 C   0  0  0  0  0  0  0  0  0  0  0  0
  150.8167  137.4082  156.2724 N   0  0  0  0  0  0  0  0  0  0  0  0
  151.6391  138.0089  155.2295 C   0  0  0  0  0  0  0  0  0  0  0  0
  150.8378  139.0205  154.4064 C   0  0  0  0  0  0  0  0  0  0  0  0
  150.1174  138.5448  153.3880 N   0  0  0  0  0  0  0  0  0  0  0  0
  150.8778  140.2182  154.6785 O   0  0  0  0  0  0  0  0  0  0  0  0
  150.9330  134.0316  156.1513 H   0  0  0  0  0  0  0  0  0  0  0  0
  152.3653  135.0475  155.9347 H   0  0  0  0  0  0  0  0  0  0  0  0
  151.0566  135.0865  154.7374 H   0  0  0  0  0  0  0  0  0  0  0  0
  151.1873  139.5661  159.3170 H   0  0  0  0  0  0  0  0  0  0  0  0
  150.4327  141.8793  159.4126 H   0  0  0  0  0  0  0  0  0  0  0  0
  152.0358  142.3485  156.8650 H   0  0  0  0  0  0  0  0  0  0  0  0
  150.2958  142.3903  156.9971 H   0  0  0  0  0  0  0  0  0  0  0  0
  151.2333  144.6788  157.0059 H   0  0  0  0  0  0  0  0  0  0  0  0
  150.3747  144.3361  158.4883 H   0  0  0  0  0  0  0  0  0  0  0  0
  153.4077  144.2644  158.1056 H   0  0  0  0  0  0  0  0  0  0  0  0
  152.5105  145.4636  159.0080 H   0  0  0  0  0  0  0  0  0  0  0  0
  153.5304  143.7501  160.5195 H   0  0  0  0  0  0  0  0  0  0  0  0
  151.7884  143.7656  160.6504 H   0  0  0  0  0  0  0  0  0  0  0  0
  152.6017  141.4681  160.5368 H   0  0  0  0  0  0  0  0  0  0  0  0
  153.4615  141.7694  159.0489 H   0  0  0  0  0  0  0  0  0  0  0  0
  152.5101  138.4802  155.6867 H   0  0  0  0  0  0  0  0  0  0  0  0
  152.0207  137.2284  154.5711 H   0  0  0  0  0  0  0  0  0  0  0  0
  149.5723  139.1735  152.8160 H   0  0  0  0  0  0  0  0  0  0  0  0
  150.1206  137.5539  153.1929 H   0  0  0  0  0  0  0  0  0  0  0  0
  1  2  1  0  0  0  0
  1 21  1  0  0  0  0
  1 22  1  0  0  0  0
  1 23  1  0  0  0  0
  2 16  1  0  0  0  0
  2  3  2  0  0  0  0
  3  4  1  0  0  0  0
  4  5  2  0  0  0  0
  5  6  1  0  0  0  0
  5 16  1  0  0  0  0
  6  7  1  0  0  0  0
  7  8  1  0  0  0  0
  7 10  1  0  0  0  0
  7 24  1  0  0  0  0
  8  9  3  0  0  0  0
 10 15  1  0  0  0  0
 10 11  1  0  0  0  0
 10 25  1  0  0  0  0
 11 12  1  0  0  0  0
 11 26  1  0  0  0  0
 11 27  1  0  0  0  0
 12 13  1  0  0  0  0
 12 28  1  0  0  0  0
 12 29  1  0  0  0  0
 13 14  1  0  0  0  0
 13 30  1  0  0  0  0
 13 31  1  0  0  0  0
 14 15  1  0  0  0  0
 14 32  1  0  0  0  0
 14 33  1  0  0  0  0
 15 34  1  0  0  0  0
 15 35  1  0  0  0  0
 16 17  1  0  0  0  0
 17 18  1  0  0  0  0
 17 36  1  0  0  0  0
 17 37  1  0  0  0  0
 18 19  1  0  0  0  0
 18 20  2  0  0  0  0
 19 38  1  0  0  0  0
 19 39  1  0  0  0  0
M  END
> <s_m_source_file>
AV-unprocessed.smi

> <i_m_source_file_index>
2679

> <i_lp_mmshare_version>
43012

> <i_f3d_flags>
0

> <s_epik_input>
W0NIM11jMW5uYyhuMVtDSDJdQyg9TylbTkgyXSlTW0NASF0oQyNOKVtDSF0yW0NIMl1bQ0gyXVtDSDJdW0NIMl1bQ0gyXTI=

> <s_epik_cmdline>
J2VwaWtfcHl0aG9uJywgJy1waCcsICc3LjAnLCAnLXRuJywgJzgnLCAnLW1hJywgJzIwMCcsICctbWV0YWxfYmluZGluZycsICctaW1hZScsICc8aW5maWxlLm1hZT4nLCAnLW9tYWUnLCAnPG91dGZpbGUubWFlPic=

> <r_lp_tautomer_probability>
1

> <r_epik_Ionization_Penalty>
1.94949e-07

> <r_epik_Ionization_Penalty_Charging>
0

> <r_epik_Ionization_Penalty_Neutral>
1.94949e-07

> <r_epik_State_Penalty>
-0

> <r_epik_Charging_Adjusted_Penalty>
0

> <i_epik_Tot_Q>
0

> <i_epik_Tot_abs_Q>
0

> <r_epik_Metal_State_Penalty>
-0

> <b_epik_Metal_Only>
0

> <s_lp_Force_Field>
OPLS_2005

> <r_lp_Energy>
6.13609

> <b_lp_Chiralities_Consistent>
1

> <s_lp_Variant>
AV-unprocessed.smi:2679-2

> <Gold.Version>
5.8.1

> <Gold.Id.Protein>
6NUR|6NUR_protein|mol2

> <Gold.PLP.Fitness>
46.2730

> <Gold.PLP.PLP>
-37.0591

> <Gold.PLP.part.hbond>
-4.0000

> <Gold.PLP.part.metal>
0.0000

> <Gold.PLP.part.buried>
-5.7585

> <Gold.PLP.part.nonpolar>
-27.6514

> <Gold.PLP.part.repulsive>
0.1791

> <Gold.PLP.ligand.clash>
0.0000

> <Gold.PLP.ligand.torsion>
0.8892

> <Gold.PLP.Chemscore.Hbond>
3.6480

> <Gold.PLP.Chemscore.CHOScore>
0.0000

> <Gold.PLP.Chemscore.Metal>
0.0000

> <Gold.Chemscore.Hbonds>
donor molecule, donor type, donor heavy atom, donor atom, acceptor molecule, acceptor atom, score
      L1  H    19    38       P1  7957  0.82
      L1  H    19    39       P1  7948  0.46
      P1  H  7989  7998       L1    20  1.00
      P1  H  7997  8010       L1     9  0.54

> <Gold.PLP.Chemscore.Internal.Correction>
0.0482

> <Gold.Rescore>
     Score         DG    S(hbond)    S(metal)    S(lipo)     H(rot)  DE(clash)    DE(int)     intcor
     17.92     -20.15       3.38        0.00      85.08       2.57       0.02       2.20       ----

> <Gold.Chemscore.Fitness>
17.9241

> <Gold.Chemscore.DG>
-20.1454

> <Gold.Chemscore.ZeroCoef>
-5.4800

> <Gold.Chemscore.Hbond>
3.3824

> <Gold.Chemscore.Metal>
0.0000

> <Gold.Chemscore.Lipo>
85.0825

> <Gold.Chemscore.Internal_Hbond>
0.0000

> <Gold.Chemscore.DEClash>
0.0174

> <Gold.Chemscore.DEInternal>
2.2039

> <Gold.Chemscore.Rot>
2.5728

> <Gold.Chemscore.Internal.Correction>
   9.000000E+99

> <Gold.Chemscore.Hbonds>
donor molecule, donor type, donor heavy atom, donor atom, acceptor molecule, acceptor atom, score
      L1  H    19    38       P1  7957  0.79
      L1  H    19    39       P1  7948  0.10
      P1  H  7989  7998       L1    20  0.47
      P1  H  7997  8010       L1     9  0.51

> <Gold.Chemscore.Hbond.Weighted>
-11.2972

> <Gold.Chemscore.Metal.Weighted>
-0.0000

> <Gold.Chemscore.Lipo.Weighted>
-9.9547

> <Gold.Chemscore.Internal_Hbond.Weighted>
0.0000

> <Gold.Chemscore.DEClash.Weighted>
0.0174

> <Gold.Chemscore.DEInternal.Weighted>
2.2039

> <Gold.Chemscore.Rot.Weighted>
6.5865

> <Gold.Chemscore.Internal.Correction.Weighted>
   9.000000E+99

> <Gold.Protein.RotatedTorsions>
[ 6907 6896 6895 6894 ] final  -16.00 input  -60.11 | X-H torsion
[ 7974 7965 7964 7962 ] final  170.28 input  175.53 | X-H torsion
[ 8008 7997 7996 7995 ] final   33.17 input   59.86 | X-H torsion
[ 10167 10162 10161 10158 ] final  139.29 input  -65.29 | X-H torsion
[ 10718 10713 10712 10709 ] final  142.24 input   66.30 | X-H torsion
[ 10763 10752 10751 10750 ] final  -89.29 input  -60.55 | X-H torsion
[ 11005 11000 10999 10996 ] final  136.27 input  -57.11 | X-H torsion

> <Gold.Protein.ActiveResidues>
 VAL166  LYS551  ARG553  GLY616  TRP617  ASP618  TYR619  PRO620  LYS621  CYS622 
 ASP623  PHE694  ASN695  SER759  ASP760  ASP761  ALA762  ILE779  LEU786  VAL792 
 PHE793  MET794  SER795  GLU796  ALA797  LYS798  CYS799  TRP800  GLU811  SER814 

> <Gold.Protein.RotatedAtoms>
  151.3152  135.0804  159.9286 H   0  0  0  0  0  0  0  0  0  0  0  0  # atno 6907 bound_to 6896
  152.5269  133.9695  159.7765 H   0  0  0  0  0  0  0  0  0  0  0  0  # atno 6908 bound_to 6896
  151.0005  133.6008  159.2726 H   0  0  0  0  0  0  0  0  0  0  0  0  # atno 6909 bound_to 6896
  144.7329  139.9178  143.6418 H   0  0  0  0  0  0  0  0  0  0  0  0  # atno 7974 bound_to 7965
  155.1343  140.3260  155.4467 H   0  0  0  0  0  0  0  0  0  0  0  0  # atno 8008 bound_to 7997
  156.2624  140.2005  156.6410 H   0  0  0  0  0  0  0  0  0  0  0  0  # atno 8009 bound_to 7997
  154.6589  140.0549  157.0027 H   0  0  0  0  0  0  0  0  0  0  0  0  # atno 8010 bound_to 7997
  139.5083  144.6303  151.5833 H   0  0  0  0  0  0  0  0  0  0  0  0  # atno 10167 bound_to 10162
  157.3828  131.0994  151.0722 H   0  0  0  0  0  0  0  0  0  0  0  0  # atno 10718 bound_to 10713
  154.6537  135.5346  153.7933 H   0  0  0  0  0  0  0  0  0  0  0  0  # atno 10763 bound_to 10752
  153.0401  135.6489  154.0977 H   0  0  0  0  0  0  0  0  0  0  0  0  # atno 10764 bound_to 10752
  154.0892  135.2941  155.3255 H   0  0  0  0  0  0  0  0  0  0  0  0  # atno 10765 bound_to 10752
  140.0035  134.9469  157.0123 H   0  0  0  0  0  0  0  0  0  0  0  0  # atno 11005 bound_to 11000
  146.0952  139.3944  143.0381 LP  0  0  0  0  0  0  0  0  0  0  0  0  # atno 17320 bound_to 7965
  145.7656  140.9918  143.1177 LP  0  0  0  0  0  0  0  0  0  0  0  0  # atno 17321 bound_to 7965
  140.6034  143.9568  150.6402 LP  0  0  0  0  0  0  0  0  0  0  0  0  # atno 17342 bound_to 10162
  140.2787  143.3404  152.1171 LP  0  0  0  0  0  0  0  0  0  0  0  0  # atno 17343 bound_to 10162
  157.1784  130.6298  149.5664 LP  0  0  0  0  0  0  0  0  0  0  0  0  # atno 17370 bound_to 10713
  155.9780  130.4761  150.6626 LP  0  0  0  0  0  0  0  0  0  0  0  0  # atno 17371 bound_to 10713
  140.4685  134.1411  155.7200 LP  0  0  0  0  0  0  0  0  0  0  0  0  # atno 17394 bound_to 11000
  141.1659  133.8703  157.1715 LP  0  0  0  0  0  0  0  0  0  0  0  0  # atno 17395 bound_to 11000

$$$$
