AV-unprocessed.smi:21|AV-procd|sdf|123|dock10
  -GOLD-   2262015303D 1   1.00000     0.00000
 Structure written by MMmdl.
 62 65  0  0  0  0  0  0  0  0  2 V2000
  146.2151  136.9062  162.1169 C   0  0  0  0  0  0  0  0  0  0  0  0
  147.0274  137.4081  161.0669 O   0  0  0  0  0  0  0  0  0  0  0  0
  146.9564  136.6372  159.8752 C   0  0  1  0  0  0  0  0  0  0  0  0
  145.7021  137.0346  159.0891 C   0  0  0  0  0  0  0  0  0  0  0  0
  146.2214  137.9201  157.9545 C   0  0  2  0  0  0  0  0  0  0  0  0
  145.2721  138.0592  156.7410 C   0  0  0  0  0  0  0  0  0  0  0  0
  145.5003  139.2845  155.9790 N   0  0  0  0  0  0  0  0  0  0  0  0
  144.3489  140.1297  155.6653 C   0  0  0  0  0  0  0  0  0  0  0  0
  146.7581  139.7337  155.6874 C   0  0  0  0  0  0  0  0  0  0  0  0
  147.3431  139.2793  154.5455 N   0  0  0  0  0  0  0  0  0  0  0  0
  148.5706  139.6681  154.1947 C   0  0  0  0  0  0  0  0  0  0  0  0
  149.3911  140.5017  154.8311 N   0  0  0  0  0  0  0  0  0  0  0  0
  148.8237  140.9717  155.9768 C   0  0  0  0  0  0  0  0  0  0  0  0
  147.5279  140.6462  156.4791 C   0  0  0  0  0  0  0  0  0  0  0  0
  147.3191  141.3352  157.6720 N   0  0  0  0  0  0  0  0  0  0  0  0
  148.4145  142.0173  157.8598 C   0  0  0  0  0  0  0  0  0  0  0  0
  149.3696  141.8619  156.8851 N   0  0  0  0  0  0  0  0  0  0  0  0
  150.6728  142.5034  156.8423 C   0  0  0  0  0  0  0  0  0  0  0  0
  151.6721  141.9217  157.8730 C   0  0  2  0  0  0  0  0  0  0  0  0
  151.5437  140.3864  158.0289 C   0  0  0  0  0  0  0  0  0  0  0  0
  151.8606  139.7168  156.8260 O   0  0  0  0  0  0  0  0  0  0  0  0
  151.5832  142.6575  159.2342 C   0  0  2  0  0  0  0  0  0  0  0  0
  151.9567  144.1290  159.1911 C   0  0  0  0  0  0  0  0  0  0  0  0
  152.2268  144.4346  160.6603 C   0  0  0  0  0  0  0  0  0  0  0  0
  152.7524  143.2331  161.2121 O   0  0  0  0  0  0  0  0  0  0  0  0
  152.5623  142.1553  160.3010 C   0  0  0  0  0  0  0  0  0  0  0  0
  147.5608  137.3695  157.6368 N   0  3  2  0  0  0  0  0  0  0  0  0
  147.5848  136.2736  156.6369 C   0  0  0  0  0  0  0  0  0  0  0  0
  148.1372  136.9598  158.9364 C   0  0  0  0  0  0  0  0  0  0  0  0
  146.9103  135.5723  160.1104 H   0  0  0  0  0  0  0  0  0  0  0  0
  146.4043  138.9106  158.3734 H   0  0  0  0  0  0  0  0  0  0  0  0
  146.3175  137.5453  162.9938 H   0  0  0  0  0  0  0  0  0  0  0  0
  146.5064  135.8957  162.4049 H   0  0  0  0  0  0  0  0  0  0  0  0
  145.1625  136.8975  161.8307 H   0  0  0  0  0  0  0  0  0  0  0  0
  145.2352  136.1393  158.6762 H   0  0  0  0  0  0  0  0  0  0  0  0
  144.9562  137.5369  159.7059 H   0  0  0  0  0  0  0  0  0  0  0  0
  145.3460  137.1967  156.0808 H   0  0  0  0  0  0  0  0  0  0  0  0
  144.2365  138.0590  157.0823 H   0  0  0  0  0  0  0  0  0  0  0  0
  144.2653  140.2828  154.5887 H   0  0  0  0  0  0  0  0  0  0  0  0
  144.4407  141.1031  156.1490 H   0  0  0  0  0  0  0  0  0  0  0  0
  143.4179  139.6766  156.0064 H   0  0  0  0  0  0  0  0  0  0  0  0
  148.9494  139.2518  153.2729 H   0  0  0  0  0  0  0  0  0  0  0  0
  148.5562  142.6599  158.7167 H   0  0  0  0  0  0  0  0  0  0  0  0
  151.0583  142.3912  155.8289 H   0  0  0  0  0  0  0  0  0  0  0  0
  150.5424  143.5742  157.0024 H   0  0  0  0  0  0  0  0  0  0  0  0
  152.6721  142.1042  157.4770 H   0  0  0  0  0  0  0  0  0  0  0  0
  152.1962  140.0151  158.8189 H   0  0  0  0  0  0  0  0  0  0  0  0
  150.5319  140.1099  158.3241 H   0  0  0  0  0  0  0  0  0  0  0  0
  151.0863  139.2741  156.5137 H   0  0  0  0  0  0  0  0  0  0  0  0
  150.5690  142.5752  159.6289 H   0  0  0  0  0  0  0  0  0  0  0  0
  152.8652  144.2765  158.6054 H   0  0  0  0  0  0  0  0  0  0  0  0
  151.1734  144.7622  158.7733 H   0  0  0  0  0  0  0  0  0  0  0  0
  152.9143  145.2700  160.7944 H   0  0  0  0  0  0  0  0  0  0  0  0
  151.2960  144.6745  161.1756 H   0  0  0  0  0  0  0  0  0  0  0  0
  152.1961  141.2676  160.8175 H   0  0  0  0  0  0  0  0  0  0  0  0
  153.5285  141.9123  159.8567 H   0  0  0  0  0  0  0  0  0  0  0  0
  146.9546  135.4386  156.9458 H   0  0  0  0  0  0  0  0  0  0  0  0
  148.6014  135.9004  156.5082 H   0  0  0  0  0  0  0  0  0  0  0  0
  147.2479  136.6191  155.6596 H   0  0  0  0  0  0  0  0  0  0  0  0
  148.7026  137.8091  159.3216 H   0  0  0  0  0  0  0  0  0  0  0  0
  148.8355  136.1264  158.8485 H   0  0  0  0  0  0  0  0  0  0  0  0
  148.1276  138.1150  157.2577 H   0  0  0  0  0  0  0  0  0  0  0  0
  1  2  1  0  0  0  0
  1 32  1  0  0  0  0
  1 33  1  0  0  0  0
  1 34  1  0  0  0  0
  2  3  1  0  0  0  0
  3 30  1  0  0  0  0
  3 29  1  0  0  0  0
  3  4  1  0  0  0  0
  4  5  1  0  0  0  0
  4 35  1  0  0  0  0
  4 36  1  0  0  0  0
  5 31  1  0  0  0  0
  5  6  1  0  0  0  0
  5 27  1  0  0  0  0
  6  7  1  0  0  0  0
  6 37  1  0  0  0  0
  6 38  1  0  0  0  0
  7  8  1  0  0  0  0
  7  9  1  0  0  0  0
  8 39  1  0  0  0  0
  8 40  1  0  0  0  0
  8 41  1  0  0  0  0
  9 14  1  0  0  0  0
  9 10  2  0  0  0  0
 10 11  1  0  0  0  0
 11 12  2  0  0  0  0
 11 42  1  0  0  0  0
 12 13  1  0  0  0  0
 13 17  1  0  0  0  0
 13 14  2  0  0  0  0
 14 15  1  0  0  0  0
 15 16  2  0  0  0  0
 16 17  1  0  0  0  0
 16 43  1  0  0  0  0
 17 18  1  0  0  0  0
 18 19  1  0  0  0  0
 18 44  1  0  0  0  0
 18 45  1  0  0  0  0
 19 20  1  0  0  0  0
 19 22  1  0  0  0  0
 19 46  1  0  0  0  0
 20 21  1  0  0  0  0
 20 47  1  0  0  0  0
 20 48  1  0  0  0  0
 21 49  1  0  0  0  0
 22 26  1  0  0  0  0
 22 23  1  0  0  0  0
 22 50  1  0  0  0  0
 23 24  1  0  0  0  0
 23 51  1  0  0  0  0
 23 52  1  0  0  0  0
 24 25  1  0  0  0  0
 24 53  1  0  0  0  0
 24 54  1  0  0  0  0
 25 26  1  0  0  0  0
 26 55  1  0  0  0  0
 26 56  1  0  0  0  0
 27 28  1  0  0  0  0
 27 29  1  0  0  0  0
 27 62  1  0  0  0  0
 28 57  1  0  0  0  0
 28 58  1  0  0  0  0
 28 59  1  0  0  0  0
 29 60  1  0  0  0  0
 29 61  1  0  0  0  0
M  CHG  1  27   1
M  END
> <s_m_source_file>
AV-unprocessed.smi

> <i_m_source_file_index>
21

> <i_lp_mmshare_version>
43012

> <i_f3d_flags>
0

> <s_epik_input>
W0NIM11PW0NASF0xW0NIMl1bQ0BIXShOKFtDSDNdKVtDSDJdMSlbQ0gyXU4oW0NIM10pYyhuW2NIXW4yKWMoYzIzKW5bY0hdbjNbQ0gyXVtDQEhdKFtDSDJdW09IXSlbQ0BASF00W0NIMl1bQ0gyXU9bQ0gyXTQ=

> <s_epik_cmdline>
J2VwaWtfcHl0aG9uJywgJy1waCcsICc3LjAnLCAnLXRuJywgJzgnLCAnLW1hJywgJzIwMCcsICctbWV0YWxfYmluZGluZycsICctaW1hZScsICc8aW5maWxlLm1hZT4nLCAnLW9tYWUnLCAnPG91dGZpbGUubWFlPic=

> <r_lp_tautomer_probability>
1

> <r_epik_Ionization_Penalty>
0.0157465

> <r_epik_Ionization_Penalty_Charging>
0.015354

> <r_epik_Ionization_Penalty_Neutral>
0.000392529

> <r_epik_State_Penalty>
0.0120612

> <r_epik_Charging_Adjusted_Penalty>
0.0274152

> <i_epik_Tot_Q>
1

> <i_epik_Tot_abs_Q>
1

> <r_epik_Metal_State_Penalty>
0.0121253

> <b_epik_Metal_Only>
0

> <s_lp_Force_Field>
OPLS_2005

> <r_lp_Energy>
63.0646

> <b_lp_Chiralities_Consistent>
1

> <s_lp_Variant>
AV-unprocessed.smi:21-3

> <Gold.Version>
5.8.1

> <Gold.Id.Protein>
6NUR|6NUR_protein|mol2

> <Gold.PLP.Fitness>
48.3860

> <Gold.PLP.PLP>
-39.8623

> <Gold.PLP.part.hbond>
-4.0000

> <Gold.PLP.part.metal>
0.0000

> <Gold.PLP.part.buried>
-5.6662

> <Gold.PLP.part.nonpolar>
-29.9365

> <Gold.PLP.part.repulsive>
0.4036

> <Gold.PLP.ligand.clash>
0.0000

> <Gold.PLP.ligand.torsion>
2.5796

> <Gold.PLP.Chemscore.Hbond>
3.7673

> <Gold.PLP.Chemscore.CHOScore>
0.6699

> <Gold.PLP.Chemscore.Metal>
0.0000

> <Gold.Chemscore.Hbonds>
donor molecule, donor type, donor heavy atom, donor atom, acceptor molecule, acceptor atom, score
      P1  H  6931  6943       L1     2  0.18
      P1  H  6934  6947       L1     2  1.00
      L1  C    11    42       P1  7957  1.00

> <Gold.PLP.Chemscore.Internal.Correction>
0.3716

> <Gold.Rescore>
     Score         DG    S(hbond)    S(metal)    S(lipo)     H(rot)  DE(clash)    DE(int)     intcor
     16.26     -18.82       3.16        0.00      91.09       3.08       0.05       2.51       ----

> <Gold.Chemscore.Fitness>
16.2614

> <Gold.Chemscore.DG>
-18.8203

> <Gold.Chemscore.ZeroCoef>
-5.4800

> <Gold.Chemscore.Hbond>
3.1606

> <Gold.Chemscore.Metal>
0.0000

> <Gold.Chemscore.Lipo>
91.0936

> <Gold.Chemscore.Internal_Hbond>
0.0000

> <Gold.Chemscore.DEClash>
0.0456

> <Gold.Chemscore.DEInternal>
2.5133

> <Gold.Chemscore.Rot>
3.0758

> <Gold.Chemscore.Internal.Correction>
   9.000000E+99

> <Gold.Chemscore.Hbonds>
donor molecule, donor type, donor heavy atom, donor atom, acceptor molecule, acceptor atom, score
      P1  H  6931  6943       L1     2  0.14
      P1  H  6934  6947       L1     2  0.90

> <Gold.Chemscore.Hbond.Weighted>
-10.5565

> <Gold.Chemscore.Metal.Weighted>
-0.0000

> <Gold.Chemscore.Lipo.Weighted>
-10.6580

> <Gold.Chemscore.Internal_Hbond.Weighted>
0.0000

> <Gold.Chemscore.DEClash.Weighted>
0.0456

> <Gold.Chemscore.DEInternal.Weighted>
2.5133

> <Gold.Chemscore.Rot.Weighted>
7.8741

> <Gold.Chemscore.Internal.Correction.Weighted>
   9.000000E+99

> <Gold.Protein.RotatedTorsions>
[ 6907 6896 6895 6894 ] final   64.74 input  -60.11 | X-H torsion
[ 7974 7965 7964 7962 ] final   83.65 input  175.53 | X-H torsion
[ 8008 7997 7996 7995 ] final   77.03 input   59.86 | X-H torsion
[ 10167 10162 10161 10158 ] final  125.56 input  -65.29 | X-H torsion
[ 10718 10713 10712 10709 ] final  -24.85 input   66.30 | X-H torsion
[ 10763 10752 10751 10750 ] final  129.48 input  -60.55 | X-H torsion
[ 11005 11000 10999 10996 ] final   16.43 input  -57.11 | X-H torsion

> <Gold.Protein.ActiveResidues>
 VAL166  LYS551  ARG553  GLY616  TRP617  ASP618  TYR619  PRO620  LYS621  CYS622 
 ASP623  PHE694  ASN695  SER759  ASP760  ASP761  ALA762  ILE779  LEU786  VAL792 
 PHE793  MET794  SER795  GLU796  ALA797  LYS798  CYS799  TRP800  GLU811  SER814 

> <Gold.Protein.RotatedAtoms>
  152.4355  134.5695  159.9916 H   0  0  0  0  0  0  0  0  0  0  0  0  # atno 6907 bound_to 6896
  151.5807  133.3372  159.3016 H   0  0  0  0  0  0  0  0  0  0  0  0  # atno 6908 bound_to 6896
  150.8252  134.7515  159.6871 H   0  0  0  0  0  0  0  0  0  0  0  0  # atno 6909 bound_to 6896
  145.6091  139.2365  143.2202 H   0  0  0  0  0  0  0  0  0  0  0  0  # atno 7974 bound_to 7965
  155.8357  140.3464  155.5600 H   0  0  0  0  0  0  0  0  0  0  0  0  # atno 8008 bound_to 7997
  155.8194  140.0910  157.1877 H   0  0  0  0  0  0  0  0  0  0  0  0  # atno 8009 bound_to 7997
  154.4004  140.1433  156.3469 H   0  0  0  0  0  0  0  0  0  0  0  0  # atno 8010 bound_to 7997
  139.5679  144.6922  151.3860 H   0  0  0  0  0  0  0  0  0  0  0  0  # atno 10167 bound_to 10162
  156.4722  130.4527  149.6862 H   0  0  0  0  0  0  0  0  0  0  0  0  # atno 10718 bound_to 10713
  153.7425  135.3222  155.3306 H   0  0  0  0  0  0  0  0  0  0  0  0  # atno 10763 bound_to 10752
  154.8290  135.4548  154.1012 H   0  0  0  0  0  0  0  0  0  0  0  0  # atno 10764 bound_to 10752
  153.2191  135.6946  153.8103 H   0  0  0  0  0  0  0  0  0  0  0  0  # atno 10765 bound_to 10752
  140.4472  134.1262  155.7697 H   0  0  0  0  0  0  0  0  0  0  0  0  # atno 11005 bound_to 11000
  146.1518  140.6915  142.9318 LP  0  0  0  0  0  0  0  0  0  0  0  0  # atno 17320 bound_to 7965
  144.7277  140.4577  143.6961 LP  0  0  0  0  0  0  0  0  0  0  0  0  # atno 17321 bound_to 7965
  140.6963  143.7741  150.7331 LP  0  0  0  0  0  0  0  0  0  0  0  0  # atno 17342 bound_to 10162
  140.1238  143.4587  152.2296 LP  0  0  0  0  0  0  0  0  0  0  0  0  # atno 17343 bound_to 10162
  156.3606  130.7480  151.2451 LP  0  0  0  0  0  0  0  0  0  0  0  0  # atno 17370 bound_to 10713
  157.7490  131.0351  150.4348 LP  0  0  0  0  0  0  0  0  0  0  0  0  # atno 17371 bound_to 10713
  141.1680  133.8665  157.1657 LP  0  0  0  0  0  0  0  0  0  0  0  0  # atno 17394 bound_to 11000
  140.0031  135.0020  157.0233 LP  0  0  0  0  0  0  0  0  0  0  0  0  # atno 17395 bound_to 11000

$$$$
