AV-unprocessed.smi:2532|AV-procd|sdf|9970|dock3
  -GOLD-   2272014 13D 1   1.00000     0.00000
 Structure written by MMmdl.
 37 39  0  0  0  0  0  0  0  0  2 V2000
  151.8256  138.4767  159.2295 O   0  0  0  0  0  0  0  0  0  0  0  0
  150.7528  138.8554  158.3902 C   0  0  2  0  0  0  0  0  0  0  0  0
  149.8783  137.6177  158.1367 C   0  0  0  0  0  0  0  0  0  0  0  0
  149.1196  137.3443  159.3026 O   0  0  0  0  0  0  0  0  0  0  0  0
  148.3215  136.1779  159.1780 C   0  0  0  0  0  0  0  0  0  0  0  0
  147.9172  135.7412  160.5514 C   0  0  0  0  0  0  0  0  0  0  0  0
  147.9278  136.5061  161.6902 C   0  0  0  0  0  0  0  0  0  0  0  0
  147.4695  135.8067  162.8453 C   0  0  0  0  0  0  0  0  0  0  0  0
  147.1074  134.5143  162.5746 C   0  0  0  0  0  0  0  0  0  0  0  0
  147.3210  134.1308  160.8887 S   0  0  0  0  0  0  0  0  0  0  0  0
  151.3134  139.4403  157.0786 C   0  0  0  0  0  0  0  0  0  0  0  0
  151.0877  140.8879  156.9545 N   0  0  0  0  0  0  0  0  0  0  0  0
  150.3331  141.5728  156.0529 C   0  0  0  0  0  0  0  0  0  0  0  0
  150.4435  142.8983  156.3450 N   0  3  0  0  0  0  0  0  0  0  0  0
  151.2797  143.0640  157.4509 C   0  0  0  0  0  0  0  0  0  0  0  0
  151.6915  144.2147  158.1163 C   0  0  0  0  0  0  0  0  0  0  0  0
  152.5513  144.0344  159.2196 C   0  0  0  0  0  0  0  0  0  0  0  0
  152.9679  142.7494  159.6237 C   0  0  0  0  0  0  0  0  0  0  0  0
  152.5451  141.5899  158.9409 C   0  0  0  0  0  0  0  0  0  0  0  0
  151.6967  141.7760  157.8496 C   0  0  0  0  0  0  0  0  0  0  0  0
  151.5255  137.7868  159.8020 H   0  0  0  0  0  0  0  0  0  0  0  0
  150.1633  139.6219  158.8952 H   0  0  0  0  0  0  0  0  0  0  0  0
  149.1855  137.8185  157.3178 H   0  0  0  0  0  0  0  0  0  0  0  0
  150.4845  136.7585  157.8439 H   0  0  0  0  0  0  0  0  0  0  0  0
  147.4373  136.3864  158.5741 H   0  0  0  0  0  0  0  0  0  0  0  0
  148.8837  135.3830  158.6863 H   0  0  0  0  0  0  0  0  0  0  0  0
  148.2473  137.5369  161.7337 H   0  0  0  0  0  0  0  0  0  0  0  0
  147.4206  136.2700  163.8197 H   0  0  0  0  0  0  0  0  0  0  0  0
  146.7277  133.7686  163.2575 H   0  0  0  0  0  0  0  0  0  0  0  0
  152.3775  139.2285  156.9716 H   0  0  0  0  0  0  0  0  0  0  0  0
  150.8230  138.9700  156.2253 H   0  0  0  0  0  0  0  0  0  0  0  0
  149.7522  141.1426  155.2498 H   0  0  0  0  0  0  0  0  0  0  0  0
  151.3720  145.2001  157.8105 H   0  0  0  0  0  0  0  0  0  0  0  0
  152.8968  144.8988  159.7679 H   0  0  0  0  0  0  0  0  0  0  0  0
  153.6242  142.6501  160.4762 H   0  0  0  0  0  0  0  0  0  0  0  0
  152.8655  140.6105  159.2636 H   0  0  0  0  0  0  0  0  0  0  0  0
  149.9803  143.6335  155.8263 H   0  0  0  0  0  0  0  0  0  0  0  0
  1  2  1  0  0  0  0
  1 21  1  0  0  0  0
  2  3  1  0  0  0  0
  2 11  1  0  0  0  0
  2 22  1  0  0  0  0
  3  4  1  0  0  0  0
  3 23  1  0  0  0  0
  3 24  1  0  0  0  0
  4  5  1  0  0  0  0
  5  6  1  0  0  0  0
  5 25  1  0  0  0  0
  5 26  1  0  0  0  0
  6 10  1  0  0  0  0
  6  7  2  0  0  0  0
  7  8  1  0  0  0  0
  7 27  1  0  0  0  0
  8  9  2  0  0  0  0
  8 28  1  0  0  0  0
  9 10  1  0  0  0  0
  9 29  1  0  0  0  0
 11 12  1  0  0  0  0
 11 30  1  0  0  0  0
 11 31  1  0  0  0  0
 12 20  1  0  0  0  0
 12 13  1  0  0  0  0
 13 14  2  0  0  0  0
 13 32  1  0  0  0  0
 14 15  1  0  0  0  0
 14 37  1  0  0  0  0
 15 20  2  0  0  0  0
 15 16  1  0  0  0  0
 16 17  2  0  0  0  0
 16 33  1  0  0  0  0
 17 18  1  0  0  0  0
 17 34  1  0  0  0  0
 18 19  2  0  0  0  0
 18 35  1  0  0  0  0
 19 20  1  0  0  0  0
 19 36  1  0  0  0  0
M  CHG  1  14   1
M  END
> <s_m_source_file>
AV-unprocessed.smi

> <i_m_source_file_index>
2532

> <i_lp_mmshare_version>
43012

> <i_f3d_flags>
0

> <s_epik_input>
W2NIXTFbY0hdW2NIXVtjSF1jKGMxMiluKFtjSF1uMilbQ0gyXVtDQEhdKFtPSF0pW0NIMl1PW0NIMl1jM1tjSF1bY0hdW2NIXXMz

> <s_epik_cmdline>
J2VwaWtfcHl0aG9uJywgJy1waCcsICc3LjAnLCAnLXRuJywgJzgnLCAnLW1hJywgJzIwMCcsICctbWV0YWxfYmluZGluZycsICctaW1hZScsICc8aW5maWxlLm1hZT4nLCAnLW9tYWUnLCAnPG91dGZpbGUubWFlPic=

> <r_epik_Ionization_Penalty>
1.31758

> <r_epik_Ionization_Penalty_Charging>
1.31758

> <r_epik_Ionization_Penalty_Neutral>
1.26231e-06

> <r_epik_State_Penalty>
1.39289

> <r_epik_Charging_Adjusted_Penalty>
2.71047

> <i_epik_Tot_Q>
1

> <i_epik_Tot_abs_Q>
1

> <r_epik_Metal_State_Penalty>
5.42637

> <b_epik_Metal_Only>
0

> <s_lp_Force_Field>
OPLS_2005

> <r_lp_Energy>
15.3098

> <b_lp_Chiralities_Consistent>
1

> <s_lp_Variant>
AV-unprocessed.smi:2532-3

> <Gold.Version>
5.8.1

> <Gold.Id.Protein>
6NUR|6NUR_protein|mol2

> <Gold.PLP.Fitness>
51.8282

> <Gold.PLP.PLP>
-48.0526

> <Gold.PLP.part.hbond>
-1.6348

> <Gold.PLP.part.metal>
0.0000

> <Gold.PLP.part.buried>
-4.7665

> <Gold.PLP.part.nonpolar>
-42.2376

> <Gold.PLP.part.repulsive>
0.0716

> <Gold.PLP.ligand.clash>
0.0000

> <Gold.PLP.ligand.torsion>
1.1578

> <Gold.PLP.Chemscore.Hbond>
2.0000

> <Gold.PLP.Chemscore.CHOScore>
0.0000

> <Gold.PLP.Chemscore.Metal>
0.0000

> <Gold.Chemscore.Hbonds>
donor molecule, donor type, donor heavy atom, donor atom, acceptor molecule, acceptor atom, score
      L1  H    14    37       P1  8028  2.00

> <Gold.PLP.Chemscore.Internal.Correction>
0.0912

> <Gold.Rescore>
     Score         DG    S(hbond)    S(metal)    S(lipo)     H(rot)  DE(clash)    DE(int)     intcor
     16.01     -17.54       1.00        0.00     128.36       2.46       0.23       1.30       ----

> <Gold.Chemscore.Fitness>
16.0114

> <Gold.Chemscore.DG>
-17.5376

> <Gold.Chemscore.ZeroCoef>
-5.4800

> <Gold.Chemscore.Hbond>
0.9998

> <Gold.Chemscore.Metal>
0.0000

> <Gold.Chemscore.Lipo>
128.3576

> <Gold.Chemscore.Internal_Hbond>
0.0000

> <Gold.Chemscore.DEClash>
0.2308

> <Gold.Chemscore.DEInternal>
1.2953

> <Gold.Chemscore.Rot>
2.4608

> <Gold.Chemscore.Internal.Correction>
   9.000000E+99

> <Gold.Chemscore.Hbonds>
donor molecule, donor type, donor heavy atom, donor atom, acceptor molecule, acceptor atom, score
      L1  H    14    37       P1  8028  0.92

> <Gold.Chemscore.Hbond.Weighted>
-3.3394

> <Gold.Chemscore.Metal.Weighted>
-0.0000

> <Gold.Chemscore.Lipo.Weighted>
-15.0178

> <Gold.Chemscore.Internal_Hbond.Weighted>
0.0000

> <Gold.Chemscore.DEClash.Weighted>
0.2308

> <Gold.Chemscore.DEInternal.Weighted>
1.2953

> <Gold.Chemscore.Rot.Weighted>
6.2996

> <Gold.Chemscore.Internal.Correction.Weighted>
   9.000000E+99

> <Gold.Protein.RotatedTorsions>
[ 6907 6896 6895 6894 ] final   59.15 input  -60.11 | X-H torsion
[ 7974 7965 7964 7962 ] final  111.65 input  175.53 | X-H torsion
[ 8008 7997 7996 7995 ] final   49.32 input   59.86 | X-H torsion
[ 10167 10162 10161 10158 ] final   31.21 input  -65.29 | X-H torsion
[ 10718 10713 10712 10709 ] final  106.92 input   66.30 | X-H torsion
[ 10763 10752 10751 10750 ] final  167.75 input  -60.55 | X-H torsion
[ 11005 11000 10999 10996 ] final  -63.51 input  -57.11 | X-H torsion

> <Gold.Protein.ActiveResidues>
 VAL166  LYS551  ARG553  GLY616  TRP617  ASP618  TYR619  PRO620  LYS621  CYS622 
 ASP623  PHE694  ASN695  SER759  ASP760  ASP761  ALA762  ILE779  LEU786  VAL792 
 PHE793  MET794  SER795  GLU796  ALA797  LYS798  CYS799  TRP800  GLU811  SER814 

> <Gold.Protein.RotatedAtoms>
  152.3889  134.6473  160.0114 H   0  0  0  0  0  0  0  0  0  0  0  0  # atno 6907 bound_to 6896
  151.6713  133.3308  159.3205 H   0  0  0  0  0  0  0  0  0  0  0  0  # atno 6908 bound_to 6896
  150.7809  134.6796  159.6481 H   0  0  0  0  0  0  0  0  0  0  0  0  # atno 6909 bound_to 6896
  145.2395  139.2785  143.4125 H   0  0  0  0  0  0  0  0  0  0  0  0  # atno 7974 bound_to 7965
  155.4002  140.3437  155.4256 H   0  0  0  0  0  0  0  0  0  0  0  0  # atno 8008 bound_to 7997
  156.1508  140.1570  156.8805 H   0  0  0  0  0  0  0  0  0  0  0  0  # atno 8009 bound_to 7997
  154.5050  140.0804  156.7858 H   0  0  0  0  0  0  0  0  0  0  0  0  # atno 8010 bound_to 7997
  140.4609  144.0908  150.6212 H   0  0  0  0  0  0  0  0  0  0  0  0  # atno 10167 bound_to 10162
  157.6649  131.0861  150.6079 H   0  0  0  0  0  0  0  0  0  0  0  0  # atno 10718 bound_to 10713
  154.3585  135.2753  155.2333 H   0  0  0  0  0  0  0  0  0  0  0  0  # atno 10763 bound_to 10752
  154.4532  135.5926  153.6209 H   0  0  0  0  0  0  0  0  0  0  0  0  # atno 10764 bound_to 10752
  152.9845  135.6047  154.3803 H   0  0  0  0  0  0  0  0  0  0  0  0  # atno 10765 bound_to 10752
  141.1395  133.6653  156.5691 H   0  0  0  0  0  0  0  0  0  0  0  0  # atno 11005 bound_to 11000
  146.3332  140.2754  142.8608 LP  0  0  0  0  0  0  0  0  0  0  0  0  # atno 17320 bound_to 7965
  144.9602  140.8267  143.5518 LP  0  0  0  0  0  0  0  0  0  0  0  0  # atno 17321 bound_to 7965
  140.4095  143.2664  151.9850 LP  0  0  0  0  0  0  0  0  0  0  0  0  # atno 17342 bound_to 10162
  139.4806  144.5928  151.7742 LP  0  0  0  0  0  0  0  0  0  0  0  0  # atno 17343 bound_to 10162
  156.6380  130.4450  149.5762 LP  0  0  0  0  0  0  0  0  0  0  0  0  # atno 17370 bound_to 10713
  156.2231  130.6749  151.1388 LP  0  0  0  0  0  0  0  0  0  0  0  0  # atno 17371 bound_to 10713
  140.3927  134.7426  157.4731 LP  0  0  0  0  0  0  0  0  0  0  0  0  # atno 17394 bound_to 11000
  140.0554  134.6071  155.8811 LP  0  0  0  0  0  0  0  0  0  0  0  0  # atno 17395 bound_to 11000

$$$$
