AV-unprocessed.smi:175|AV-procd|sdf|1430|dock10
  -GOLD-   2262019213D 1   1.00000     0.00000
 Structure written by MMmdl.
 47 50  0  0  0  0  0  0  0  0  1 V2000
  147.1829  133.4600  152.1802 C   0  0  0  0  0  0  0  0  0  0  0  0
  145.9728  133.4288  151.2329 C   0  0  1  0  0  0  0  0  0  0  0  0
  145.9361  132.2070  150.5097 O   0  0  0  0  0  0  0  0  0  0  0  0
  144.6302  132.0808  149.9776 C   0  0  0  0  0  0  0  0  0  0  0  0
  143.7489  132.4849  151.1533 C   0  0  0  0  0  0  0  0  0  0  0  0
  144.5665  133.5595  151.8767 C   0  0  1  0  0  0  0  0  0  0  0  0
  144.5882  133.2401  153.2585 O   0  0  0  0  0  0  0  0  0  0  0  0
  143.9477  134.9702  151.7149 C   0  0  0  0  0  0  0  0  0  0  0  0
  144.7924  136.0376  152.2302 N   0  0  0  0  0  0  0  0  0  0  0  0
  145.3595  137.0629  151.5060 C   0  0  0  0  0  0  0  0  0  0  0  0
  146.0741  137.9062  152.1992 N   0  0  0  0  0  0  0  0  0  0  0  0
  146.0020  137.4207  153.4987 C   0  0  0  0  0  0  0  0  0  0  0  0
  146.5378  137.8434  154.7481 C   0  0  0  0  0  0  0  0  0  0  0  0
  147.3147  138.9360  154.9200 N   0  0  0  0  0  0  0  0  0  0  0  0
  148.4133  139.0504  153.9591 C   0  0  0  0  0  0  0  0  0  0  0  0
  149.6355  139.1673  154.8478 C   0  0  0  0  0  0  0  0  0  0  0  0
  150.7835  139.2422  154.4129 O   0  0  0  0  0  0  0  0  0  0  0  0
  149.2679  139.1653  156.1297 N   0  0  0  0  0  0  0  0  0  0  0  0
  150.1468  139.2463  157.2936 C   0  0  0  0  0  0  0  0  0  0  0  0
  150.9849  140.5373  157.3030 C   0  0  0  0  0  0  0  0  0  0  0  0
  150.1785  141.5785  157.1021 F   0  0  0  0  0  0  0  0  0  0  0  0
  151.5885  140.6897  158.4819 F   0  0  0  0  0  0  0  0  0  0  0  0
  151.9050  140.5228  156.3388 F   0  0  0  0  0  0  0  0  0  0  0  0
  147.8242  139.1035  156.2826 C   0  0  0  0  0  0  0  0  0  0  0  0
  146.2554  137.1026  155.8467 N   0  0  0  0  0  0  0  0  0  0  0  0
  145.4943  136.0094  155.7349 C   0  0  0  0  0  0  0  0  0  0  0  0
  144.9270  135.4939  154.6416 N   0  0  0  0  0  0  0  0  0  0  0  0
  145.2076  136.2414  153.5353 C   0  0  0  0  0  0  0  0  0  0  0  0
  147.2099  134.3867  152.7539 H   0  0  0  0  0  0  0  0  0  0  0  0
  148.1137  133.3931  151.6172 H   0  0  0  0  0  0  0  0  0  0  0  0
  147.1640  132.6265  152.8824 H   0  0  0  0  0  0  0  0  0  0  0  0
  146.1012  134.2116  150.4846 H   0  0  0  0  0  0  0  0  0  0  0  0
  144.5053  132.7671  149.1383 H   0  0  0  0  0  0  0  0  0  0  0  0
  144.4316  131.0673  149.6293 H   0  0  0  0  0  0  0  0  0  0  0  0
  142.7646  132.8280  150.8326 H   0  0  0  0  0  0  0  0  0  0  0  0
  143.5963  131.6127  151.7912 H   0  0  0  0  0  0  0  0  0  0  0  0
  143.7915  132.7793  153.4729 H   0  0  0  0  0  0  0  0  0  0  0  0
  143.7469  135.1712  150.6618 H   0  0  0  0  0  0  0  0  0  0  0  0
  142.9832  135.0234  152.2222 H   0  0  0  0  0  0  0  0  0  0  0  0
  145.2193  137.1716  150.4404 H   0  0  0  0  0  0  0  0  0  0  0  0
  148.5062  138.1946  153.2876 H   0  0  0  0  0  0  0  0  0  0  0  0
  148.2953  139.9523  153.3582 H   0  0  0  0  0  0  0  0  0  0  0  0
  149.5504  139.1815  158.2049 H   0  0  0  0  0  0  0  0  0  0  0  0
  150.8078  138.3786  157.3007 H   0  0  0  0  0  0  0  0  0  0  0  0
  147.4495  140.0379  156.7018 H   0  0  0  0  0  0  0  0  0  0  0  0
  147.5423  138.2932  156.9575 H   0  0  0  0  0  0  0  0  0  0  0  0
  145.3126  135.4709  156.6534 H   0  0  0  0  0  0  0  0  0  0  0  0
  1  2  1  0  0  0  0
  1 29  1  0  0  0  0
  1 30  1  0  0  0  0
  1 31  1  0  0  0  0
  2  6  1  0  0  0  0
  2  3  1  0  0  0  0
  2 32  1  0  0  0  0
  3  4  1  0  0  0  0
  4  5  1  0  0  0  0
  4 33  1  0  0  0  0
  4 34  1  0  0  0  0
  5  6  1  0  0  0  0
  5 35  1  0  0  0  0
  5 36  1  0  0  0  0
  6  7  1  0  0  0  0
  6  8  1  0  0  0  0
  7 37  1  0  0  0  0
  8  9  1  0  0  0  0
  8 38  1  0  0  0  0
  8 39  1  0  0  0  0
  9 28  1  0  0  0  0
  9 10  1  0  0  0  0
 10 11  2  0  0  0  0
 10 40  1  0  0  0  0
 11 12  1  0  0  0  0
 12 28  2  0  0  0  0
 12 13  1  0  0  0  0
 13 14  1  0  0  0  0
 13 25  2  0  0  0  0
 14 24  1  0  0  0  0
 14 15  1  0  0  0  0
 15 16  1  0  0  0  0
 15 41  1  0  0  0  0
 15 42  1  0  0  0  0
 16 17  2  0  0  0  0
 16 18  1  0  0  0  0
 18 19  1  0  0  0  0
 18 24  1  0  0  0  0
 19 20  1  0  0  0  0
 19 43  1  0  0  0  0
 19 44  1  0  0  0  0
 20 21  1  0  0  0  0
 20 22  1  0  0  0  0
 20 23  1  0  0  0  0
 24 45  1  0  0  0  0
 24 46  1  0  0  0  0
 25 26  1  0  0  0  0
 26 27  2  0  0  0  0
 26 47  1  0  0  0  0
 27 28  1  0  0  0  0
M  END
> <s_m_source_file>
AV-unprocessed.smi

> <i_m_source_file_index>
175

> <i_lp_mmshare_version>
43012

> <i_f3d_flags>
0

> <s_epik_input>
W0NIMl0xW0NIMl1PW0NAQEhdKFtDSDNdKVtDQEBdMShbT0hdKVtDSDJdbihbY0hdbjIpYyhjMjMpbltjSF1uYzNONFtDSDJdQyg9TylOKFtDSDJdNClbQ0gyXUMoRikoRilG

> <s_epik_cmdline>
J2VwaWtfcHl0aG9uJywgJy1waCcsICc3LjAnLCAnLXRuJywgJzgnLCAnLW1hJywgJzIwMCcsICctbWV0YWxfYmluZGluZycsICctaW1hZScsICc8aW5maWxlLm1hZT4nLCAnLW9tYWUnLCAnPG91dGZpbGUubWFlPic=

> <r_lp_tautomer_probability>
1

> <r_epik_Ionization_Penalty>
0.000307802

> <r_epik_Ionization_Penalty_Charging>
0

> <r_epik_Ionization_Penalty_Neutral>
0.000307802

> <r_epik_State_Penalty>
-0

> <r_epik_Charging_Adjusted_Penalty>
0

> <i_epik_Tot_Q>
0

> <i_epik_Tot_abs_Q>
0

> <r_epik_Metal_State_Penalty>
-0

> <b_epik_Metal_Only>
0

> <s_epik_Chemistry_Notes>
This compound contains an acetal/aminal-like group ( X-CH(R)-Y where X, Y are N, S, or O) that may be acid/base labile, releasing an aldehyde.

> <s_lp_Force_Field>
OPLS_2005

> <r_lp_Energy>
36.8699

> <b_lp_Chiralities_Consistent>
1

> <s_lp_Variant>
AV-unprocessed.smi:175-2

> <Gold.Version>
5.8.1

> <Gold.Id.Protein>
6NUR|6NUR_protein|mol2

> <Gold.PLP.Fitness>
39.5996

> <Gold.PLP.PLP>
-31.6795

> <Gold.PLP.part.hbond>
-2.0000

> <Gold.PLP.part.metal>
0.0000

> <Gold.PLP.part.buried>
-4.2980

> <Gold.PLP.part.nonpolar>
-26.5363

> <Gold.PLP.part.repulsive>
0.6995

> <Gold.PLP.ligand.clash>
0.0000

> <Gold.PLP.ligand.torsion>
0.2810

> <Gold.PLP.Chemscore.Hbond>
1.9913

> <Gold.PLP.Chemscore.CHOScore>
0.7729

> <Gold.PLP.Chemscore.Metal>
0.0000

> <Gold.Chemscore.Hbonds>
donor molecule, donor type, donor heavy atom, donor atom, acceptor molecule, acceptor atom, score
      L1  H     7    37       P1 10957  1.00
      P1  H  7989  7998       L1    17  0.96
      L1  C    10    40       P1 10171  0.76

> <Gold.PLP.Chemscore.Internal.Correction>
0.1897

> <Gold.Rescore>
     Score         DG    S(hbond)    S(metal)    S(lipo)     H(rot)  DE(clash)    DE(int)     intcor
      4.68     -10.49       1.95        0.00      53.93       3.05       1.38       4.43       ----

> <Gold.Chemscore.Fitness>
4.6791

> <Gold.Chemscore.DG>
-10.4918

> <Gold.Chemscore.ZeroCoef>
-5.4800

> <Gold.Chemscore.Hbond>
1.9482

> <Gold.Chemscore.Metal>
0.0000

> <Gold.Chemscore.Lipo>
53.9263

> <Gold.Chemscore.Internal_Hbond>
0.0000

> <Gold.Chemscore.DEClash>
1.3816

> <Gold.Chemscore.DEInternal>
4.4312

> <Gold.Chemscore.Rot>
3.0487

> <Gold.Chemscore.Internal.Correction>
   9.000000E+99

> <Gold.Chemscore.Hbonds>
donor molecule, donor type, donor heavy atom, donor atom, acceptor molecule, acceptor atom, score
      L1  H     7    37       P1 10957  0.56
      P1  H  7989  7998       L1    17  0.91

> <Gold.Chemscore.Hbond.Weighted>
-6.5070

> <Gold.Chemscore.Metal.Weighted>
-0.0000

> <Gold.Chemscore.Lipo.Weighted>
-6.3094

> <Gold.Chemscore.Internal_Hbond.Weighted>
0.0000

> <Gold.Chemscore.DEClash.Weighted>
1.3816

> <Gold.Chemscore.DEInternal.Weighted>
4.4312

> <Gold.Chemscore.Rot.Weighted>
7.8046

> <Gold.Chemscore.Internal.Correction.Weighted>
   9.000000E+99

> <Gold.Protein.RotatedTorsions>
[ 6907 6896 6895 6894 ] final -132.09 input  -60.11 | X-H torsion
[ 7974 7965 7964 7962 ] final  -14.07 input  175.53 | X-H torsion
[ 8008 7997 7996 7995 ] final -126.92 input   59.86 | X-H torsion
[ 10167 10162 10161 10158 ] final  130.89 input  -65.29 | X-H torsion
[ 10718 10713 10712 10709 ] final -130.86 input   66.30 | X-H torsion
[ 10763 10752 10751 10750 ] final  151.03 input  -60.55 | X-H torsion
[ 11005 11000 10999 10996 ] final   95.49 input  -57.11 | X-H torsion

> <Gold.Protein.ActiveResidues>
 VAL166  LYS551  ARG553  GLY616  TRP617  ASP618  TYR619  PRO620  LYS621  CYS622 
 ASP623  PHE694  ASN695  SER759  ASP760  ASP761  ALA762  ILE779  LEU786  VAL792 
 PHE793  MET794  SER795  GLU796  ALA797  LYS798  CYS799  TRP800  GLU811  SER814 

> <Gold.Protein.RotatedAtoms>
  150.9584  133.6472  159.2758 H   0  0  0  0  0  0  0  0  0  0  0  0  # atno 6907 bound_to 6896
  151.3803  135.0937  159.9503 H   0  0  0  0  0  0  0  0  0  0  0  0  # atno 6908 bound_to 6896
  152.5138  133.9120  159.7547 H   0  0  0  0  0  0  0  0  0  0  0  0  # atno 6909 bound_to 6896
  146.2089  140.3295  142.8397 H   0  0  0  0  0  0  0  0  0  0  0  0  # atno 7974 bound_to 7965
  155.2376  140.0427  157.2970 H   0  0  0  0  0  0  0  0  0  0  0  0  # atno 8008 bound_to 7997
  154.5848  140.2411  155.7972 H   0  0  0  0  0  0  0  0  0  0  0  0  # atno 8009 bound_to 7997
  156.2219  140.2967  155.9981 H   0  0  0  0  0  0  0  0  0  0  0  0  # atno 8010 bound_to 7997
  139.5409  144.6729  151.4629 H   0  0  0  0  0  0  0  0  0  0  0  0  # atno 10167 bound_to 10162
  156.2186  130.6964  151.0731 H   0  0  0  0  0  0  0  0  0  0  0  0  # atno 10718 bound_to 10713
  154.0971  135.2848  155.3259 H   0  0  0  0  0  0  0  0  0  0  0  0  # atno 10763 bound_to 10752
  154.6581  135.5345  153.7987 H   0  0  0  0  0  0  0  0  0  0  0  0  # atno 10764 bound_to 10752
  153.0392  135.6527  154.1137 H   0  0  0  0  0  0  0  0  0  0  0  0  # atno 10765 bound_to 10752
  139.8789  134.8901  156.4018 H   0  0  0  0  0  0  0  0  0  0  0  0  # atno 11005 bound_to 11000
  144.8862  140.7465  143.5955 LP  0  0  0  0  0  0  0  0  0  0  0  0  # atno 17320 bound_to 7965
  145.3216  139.1786  143.4584 LP  0  0  0  0  0  0  0  0  0  0  0  0  # atno 17321 bound_to 7965
  140.6638  143.8442  150.6918 LP  0  0  0  0  0  0  0  0  0  0  0  0  # atno 17342 bound_to 10162
  140.1845  143.4087  152.1909 LP  0  0  0  0  0  0  0  0  0  0  0  0  # atno 17343 bound_to 10162
  157.7076  131.0749  150.6613 LP  0  0  0  0  0  0  0  0  0  0  0  0  # atno 17370 bound_to 10713
  156.6675  130.4530  149.5667 LP  0  0  0  0  0  0  0  0  0  0  0  0  # atno 17371 bound_to 10713
  140.9261  133.7611  155.9967 LP  0  0  0  0  0  0  0  0  0  0  0  0  # atno 17394 bound_to 11000
  140.8384  134.3096  157.5323 LP  0  0  0  0  0  0  0  0  0  0  0  0  # atno 17395 bound_to 11000

$$$$
