AV-unprocessed.smi:2766|AV-procd|sdf|10646|dock6
  -GOLD-   2272015 93D 1   1.00000     0.00000
 Structure written by MMmdl.
 32 33  0  0  0  0  0  0  0  0  1 V2000
  147.6458  140.3095  153.7313 C   0  0  0  0  0  0  0  0  0  0  0  0
  148.7228  140.2246  154.6483 O   0  0  0  0  0  0  0  0  0  0  0  0
  149.4157  141.4544  154.7874 C   0  0  0  0  0  0  0  0  0  0  0  0
  150.5760  141.2779  155.7828 C   0  0  2  0  0  0  0  0  0  0  0  0
  151.3772  140.2017  155.3273 O   0  0  0  0  0  0  0  0  0  0  0  0
  150.0744  141.0640  157.2386 C   0  0  0  0  0  0  0  0  0  0  0  0
  151.0100  141.4739  158.2805 N   0  0  0  0  0  0  0  0  0  0  0  0
  151.8941  140.7103  158.9729 C   0  0  0  0  0  0  0  0  0  0  0  0
  152.0383  139.2343  158.7282 C   0  0  0  0  0  0  0  0  0  0  0  0
  150.8772  138.6047  158.9135 F   0  0  0  0  0  0  0  0  0  0  0  0
  152.4339  138.9961  157.4775 F   0  0  0  0  0  0  0  0  0  0  0  0
  152.9292  138.7072  159.5678 F   0  0  0  0  0  0  0  0  0  0  0  0
  152.6385  141.3633  159.8689 N   0  0  0  0  0  0  0  0  0  0  0  0
  152.1879  142.6637  159.7547 C   0  0  0  0  0  0  0  0  0  0  0  0
  152.5783  143.8358  160.4410 C   0  0  0  0  0  0  0  0  0  0  0  0
  151.9647  145.0718  160.1492 C   0  0  0  0  0  0  0  0  0  0  0  0
  150.9538  145.1532  159.1696 C   0  0  0  0  0  0  0  0  0  0  0  0
  150.5510  143.9974  158.4736 C   0  0  0  0  0  0  0  0  0  0  0  0
  151.1678  142.7669  158.7683 C   0  0  0  0  0  0  0  0  0  0  0  0
  151.1925  142.1775  155.7690 H   0  0  0  0  0  0  0  0  0  0  0  0
  147.1519  139.3410  153.6556 H   0  0  0  0  0  0  0  0  0  0  0  0
  147.9939  140.5890  152.7360 H   0  0  0  0  0  0  0  0  0  0  0  0
  146.9054  141.0397  154.0606 H   0  0  0  0  0  0  0  0  0  0  0  0
  149.8060  141.7276  153.8057 H   0  0  0  0  0  0  0  0  0  0  0  0
  148.7472  142.2572  155.1045 H   0  0  0  0  0  0  0  0  0  0  0  0
  152.1747  140.1856  155.8337 H   0  0  0  0  0  0  0  0  0  0  0  0
  149.1315  141.5910  157.3815 H   0  0  0  0  0  0  0  0  0  0  0  0
  149.8338  140.0147  157.4131 H   0  0  0  0  0  0  0  0  0  0  0  0
  153.3508  143.7840  161.1939 H   0  0  0  0  0  0  0  0  0  0  0  0
  152.2706  145.9615  160.6800 H   0  0  0  0  0  0  0  0  0  0  0  0
  150.4874  146.1032  158.9530 H   0  0  0  0  0  0  0  0  0  0  0  0
  149.7757  144.0548  157.7243 H   0  0  0  0  0  0  0  0  0  0  0  0
  1  2  1  0  0  0  0
  1 21  1  0  0  0  0
  1 22  1  0  0  0  0
  1 23  1  0  0  0  0
  2  3  1  0  0  0  0
  3  4  1  0  0  0  0
  3 24  1  0  0  0  0
  3 25  1  0  0  0  0
  4 20  1  0  0  0  0
  4  5  1  0  0  0  0
  4  6  1  0  0  0  0
  5 26  1  0  0  0  0
  6  7  1  0  0  0  0
  6 27  1  0  0  0  0
  6 28  1  0  0  0  0
  7 19  1  0  0  0  0
  7  8  1  0  0  0  0
  8  9  1  0  0  0  0
  8 13  2  0  0  0  0
  9 10  1  0  0  0  0
  9 11  1  0  0  0  0
  9 12  1  0  0  0  0
 13 14  1  0  0  0  0
 14 19  2  0  0  0  0
 14 15  1  0  0  0  0
 15 16  2  0  0  0  0
 15 29  1  0  0  0  0
 16 17  1  0  0  0  0
 16 30  1  0  0  0  0
 17 18  2  0  0  0  0
 17 31  1  0  0  0  0
 18 19  1  0  0  0  0
 18 32  1  0  0  0  0
M  END
> <s_m_source_file>
AV-unprocessed.smi

> <i_m_source_file_index>
2766

> <i_lp_mmshare_version>
43012

> <i_f3d_flags>
0

> <s_epik_input>
W0NIM11PW0NIMl1bQ0BASF0oW09IXSlbQ0gyXW4oYyhuMSlDKEYpKEYpRiljKGMxMilbY0hdW2NIXVtjSF1bY0hdMg==

> <s_epik_cmdline>
J2VwaWtfcHl0aG9uJywgJy1waCcsICc3LjAnLCAnLXRuJywgJzgnLCAnLW1hJywgJzIwMCcsICctbWV0YWxfYmluZGluZycsICctaW1hZScsICc8aW5maWxlLm1hZT4nLCAnLW9tYWUnLCAnPG91dGZpbGUubWFlPic=

> <r_epik_Ionization_Penalty>
0.00044827

> <r_epik_Ionization_Penalty_Charging>
0

> <r_epik_Ionization_Penalty_Neutral>
0.00044827

> <r_epik_State_Penalty>
0.000276591

> <r_epik_Charging_Adjusted_Penalty>
0.000276591

> <i_epik_Tot_Q>
0

> <i_epik_Tot_abs_Q>
0

> <r_epik_Metal_State_Penalty>
-0

> <b_epik_Metal_Only>
0

> <s_lp_Force_Field>
OPLS_2005

> <r_lp_Energy>
17.0941

> <b_lp_Chiralities_Consistent>
1

> <s_lp_Variant>
AV-unprocessed.smi:2766-2

> <Gold.Version>
5.8.1

> <Gold.Id.Protein>
6NUR|6NUR_protein|mol2

> <Gold.PLP.Fitness>
40.9977

> <Gold.PLP.PLP>
-39.2801

> <Gold.PLP.part.hbond>
-1.0000

> <Gold.PLP.part.metal>
0.0000

> <Gold.PLP.part.buried>
-6.6729

> <Gold.PLP.part.nonpolar>
-32.5535

> <Gold.PLP.part.repulsive>
0.0974

> <Gold.PLP.ligand.clash>
0.0000

> <Gold.PLP.ligand.torsion>
0.6665

> <Gold.PLP.Chemscore.Hbond>
0.9920

> <Gold.PLP.Chemscore.CHOScore>
0.0000

> <Gold.PLP.Chemscore.Metal>
0.0000

> <Gold.Chemscore.Hbonds>
donor molecule, donor type, donor heavy atom, donor atom, acceptor molecule, acceptor atom, score
      P1  H  7989  7998       L1     5  0.85

> <Gold.PLP.Chemscore.Internal.Correction>
0.0746

> <Gold.Rescore>
     Score         DG    S(hbond)    S(metal)    S(lipo)     H(rot)  DE(clash)    DE(int)     intcor
     12.55     -13.15       0.60        0.00      99.08       2.32       0.35       0.25       ----

> <Gold.Chemscore.Fitness>
12.5516

> <Gold.Chemscore.DG>
-13.1468

> <Gold.Chemscore.ZeroCoef>
-5.4800

> <Gold.Chemscore.Hbond>
0.6001

> <Gold.Chemscore.Metal>
0.0000

> <Gold.Chemscore.Lipo>
99.0788

> <Gold.Chemscore.Internal_Hbond>
0.0000

> <Gold.Chemscore.DEClash>
0.3495

> <Gold.Chemscore.DEInternal>
0.2458

> <Gold.Chemscore.Rot>
2.3164

> <Gold.Chemscore.Internal.Correction>
   9.000000E+99

> <Gold.Chemscore.Hbonds>
donor molecule, donor type, donor heavy atom, donor atom, acceptor molecule, acceptor atom, score
      P1  H  7989  7998       L1     5  0.12

> <Gold.Chemscore.Hbond.Weighted>
-2.0045

> <Gold.Chemscore.Metal.Weighted>
-0.0000

> <Gold.Chemscore.Lipo.Weighted>
-11.5922

> <Gold.Chemscore.Internal_Hbond.Weighted>
0.0000

> <Gold.Chemscore.DEClash.Weighted>
0.3495

> <Gold.Chemscore.DEInternal.Weighted>
0.2458

> <Gold.Chemscore.Rot.Weighted>
5.9299

> <Gold.Chemscore.Internal.Correction.Weighted>
   9.000000E+99

> <Gold.Protein.RotatedTorsions>
[ 6907 6896 6895 6894 ] final  103.34 input  -60.11 | X-H torsion
[ 7974 7965 7964 7962 ] final   67.60 input  175.53 | X-H torsion
[ 8008 7997 7996 7995 ] final   43.86 input   59.86 | X-H torsion
[ 10167 10162 10161 10158 ] final  135.52 input  -65.29 | X-H torsion
[ 10718 10713 10712 10709 ] final  174.43 input   66.30 | X-H torsion
[ 10763 10752 10751 10750 ] final -104.51 input  -60.55 | X-H torsion
[ 11005 11000 10999 10996 ] final  140.43 input  -57.11 | X-H torsion

> <Gold.Protein.ActiveResidues>
 VAL166  LYS551  ARG553  GLY616  TRP617  ASP618  TYR619  PRO620  LYS621  CYS622 
 ASP623  PHE694  ASN695  SER759  ASP760  ASP761  ALA762  ILE779  LEU786  VAL792 
 PHE793  MET794  SER795  GLU796  ALA797  LYS798  CYS799  TRP800  GLU811  SER814 

> <Gold.Protein.RotatedAtoms>
  152.5298  133.9840  159.7819 H   0  0  0  0  0  0  0  0  0  0  0  0  # atno 6907 bound_to 6896
  151.0088  133.5977  159.2692 H   0  0  0  0  0  0  0  0  0  0  0  0  # atno 6908 bound_to 6896
  151.3059  135.0788  159.9308 H   0  0  0  0  0  0  0  0  0  0  0  0  # atno 6909 bound_to 6896
  145.8127  139.3041  143.1089 H   0  0  0  0  0  0  0  0  0  0  0  0  # atno 7974 bound_to 7965
  155.3098  140.3390  155.4244 H   0  0  0  0  0  0  0  0  0  0  0  0  # atno 8008 bound_to 7997
  156.1961  140.1715  156.8033 H   0  0  0  0  0  0  0  0  0  0  0  0  # atno 8009 bound_to 7997
  154.5501  140.0707  156.8637 H   0  0  0  0  0  0  0  0  0  0  0  0  # atno 8010 bound_to 7997
  139.5214  144.6512  151.5295 H   0  0  0  0  0  0  0  0  0  0  0  0  # atno 10167 bound_to 10162
  156.9497  131.0027  151.2951 H   0  0  0  0  0  0  0  0  0  0  0  0  # atno 10718 bound_to 10713
  154.7883  135.4783  153.9995 H   0  0  0  0  0  0  0  0  0  0  0  0  # atno 10763 bound_to 10752
  153.1593  135.6805  153.8774 H   0  0  0  0  0  0  0  0  0  0  0  0  # atno 10764 bound_to 10752
  153.8393  135.3181  155.3403 H   0  0  0  0  0  0  0  0  0  0  0  0  # atno 10765 bound_to 10752
  140.0327  134.9344  157.0693 H   0  0  0  0  0  0  0  0  0  0  0  0  # atno 11005 bound_to 11000
  145.9760  140.8722  143.0138 LP  0  0  0  0  0  0  0  0  0  0  0  0  # atno 17320 bound_to 7965
  144.6755  140.2012  143.7387 LP  0  0  0  0  0  0  0  0  0  0  0  0  # atno 17321 bound_to 7965
  140.6318  143.9060  150.6612 LP  0  0  0  0  0  0  0  0  0  0  0  0  # atno 17342 bound_to 10162
  140.2367  143.3694  152.1521 LP  0  0  0  0  0  0  0  0  0  0  0  0  # atno 17343 bound_to 10162
  157.5730  130.8323  149.8417 LP  0  0  0  0  0  0  0  0  0  0  0  0  # atno 17370 bound_to 10713
  156.0368  130.3749  150.1540 LP  0  0  0  0  0  0  0  0  0  0  0  0  # atno 17371 bound_to 10713
  140.4199  134.1892  155.7164 LP  0  0  0  0  0  0  0  0  0  0  0  0  # atno 17394 bound_to 11000
  141.1840  133.8353  157.1155 LP  0  0  0  0  0  0  0  0  0  0  0  0  # atno 17395 bound_to 11000

$$$$
