AV-unprocessed.smi:1794|AV-procd|sdf|7232|dock8
  -GOLD-   22720 8473D 1   1.00000     0.00000
 Structure written by MMmdl.
 54 56  0  0  0  0  0  0  0  0  1 V2000
  151.7627  138.9808  155.9999 C   0  0  0  0  0  0  0  0  0  0  0  0
  150.8214  138.2409  155.0152 C   0  0  0  0  0  0  0  0  0  0  0  0
  151.5549  138.1585  153.6547 C   0  0  0  0  0  0  0  0  0  0  0  0
  150.6845  136.7874  155.5542 C   0  0  0  0  0  0  0  0  0  0  0  0
  149.8886  135.9413  154.6658 N   0  0  0  0  0  0  0  0  0  0  0  0
  149.6328  134.6377  154.8401 C   0  0  0  0  0  0  0  0  0  0  0  0
  150.0707  133.9748  155.7798 O   0  0  0  0  0  0  0  0  0  0  0  0
  148.8523  134.1682  153.8527 N   0  0  0  0  0  0  0  0  0  0  0  0
  148.4121  132.8337  153.6192 C   0  0  0  0  0  0  0  0  0  0  0  0
  149.1762  131.6930  153.9677 C   0  0  0  0  0  0  0  0  0  0  0  0
  148.6531  130.4129  153.7095 C   0  0  0  0  0  0  0  0  0  0  0  0
  147.3794  130.3164  153.1212 C   0  0  0  0  0  0  0  0  0  0  0  0
  146.6319  131.3914  152.7989 N   0  0  0  0  0  0  0  0  0  0  0  0
  147.1317  132.6273  153.0441 C   0  0  0  0  0  0  0  0  0  0  0  0
  146.3304  133.7335  152.7094 N   0  0  0  0  0  0  0  0  0  0  0  0
  146.0259  133.8977  151.2982 C   0  0  0  0  0  0  0  0  0  0  0  0
  144.8922  134.9237  151.2521 C   0  0  0  0  0  0  0  0  0  0  0  0
  144.2180  134.8238  152.6264 C   0  0  0  0  0  0  0  0  0  0  0  0
  145.0590  133.8101  153.4090 C   0  0  0  0  0  0  0  0  0  0  0  0
  149.4991  138.9226  154.9239 N   0  0  0  0  0  0  0  0  0  0  0  0
  149.5537  140.3208  154.4802 C   0  0  0  0  0  0  0  0  0  0  0  0
  148.1508  140.9225  154.2907 C   0  0  0  0  0  0  0  0  0  0  0  0
  147.4152  140.8136  155.5029 O   0  0  0  0  0  0  0  0  0  0  0  0
  147.2865  139.4660  155.9391 C   0  0  0  0  0  0  0  0  0  0  0  0
  148.6814  138.8497  156.1405 C   0  0  0  0  0  0  0  0  0  0  0  0
  152.6611  138.3986  156.2078 H   0  0  0  0  0  0  0  0  0  0  0  0
  151.2746  139.1741  156.9558 H   0  0  0  0  0  0  0  0  0  0  0  0
  152.1058  139.9373  155.6059 H   0  0  0  0  0  0  0  0  0  0  0  0
  152.5222  137.6662  153.7615 H   0  0  0  0  0  0  0  0  0  0  0  0
  151.7514  139.1433  153.2317 H   0  0  0  0  0  0  0  0  0  0  0  0
  150.9920  137.5863  152.9175 H   0  0  0  0  0  0  0  0  0  0  0  0
  151.6599  136.3190  155.6825 H   0  0  0  0  0  0  0  0  0  0  0  0
  150.2571  136.8048  156.5586 H   0  0  0  0  0  0  0  0  0  0  0  0
  149.4794  136.3985  153.8642 H   0  0  0  0  0  0  0  0  0  0  0  0
  148.6280  134.8248  153.1193 H   0  0  0  0  0  0  0  0  0  0  0  0
  150.1431  131.7725  154.4392 H   0  0  0  0  0  0  0  0  0  0  0  0
  149.2139  129.5252  153.9617 H   0  0  0  0  0  0  0  0  0  0  0  0
  146.9459  129.3500  152.9113 H   0  0  0  0  0  0  0  0  0  0  0  0
  146.9003  134.2397  150.7435 H   0  0  0  0  0  0  0  0  0  0  0  0
  145.6956  132.9538  150.8621 H   0  0  0  0  0  0  0  0  0  0  0  0
  145.2995  135.9261  151.1139 H   0  0  0  0  0  0  0  0  0  0  0  0
  144.2016  134.7290  150.4311 H   0  0  0  0  0  0  0  0  0  0  0  0
  144.2309  135.7960  153.1207 H   0  0  0  0  0  0  0  0  0  0  0  0
  143.1787  134.5024  152.5527 H   0  0  0  0  0  0  0  0  0  0  0  0
  144.5667  132.8367  153.4134 H   0  0  0  0  0  0  0  0  0  0  0  0
  145.2005  134.1206  154.4446 H   0  0  0  0  0  0  0  0  0  0  0  0
  150.1004  140.9257  155.2038 H   0  0  0  0  0  0  0  0  0  0  0  0
  150.0800  140.4089  153.5316 H   0  0  0  0  0  0  0  0  0  0  0  0
  148.2236  141.9738  154.0120 H   0  0  0  0  0  0  0  0  0  0  0  0
  147.6184  140.4140  153.4852 H   0  0  0  0  0  0  0  0  0  0  0  0
  146.7259  139.4467  156.8738 H   0  0  0  0  0  0  0  0  0  0  0  0
  146.7129  138.8925  155.2092 H   0  0  0  0  0  0  0  0  0  0  0  0
  148.5441  137.8172  156.4559 H   0  0  0  0  0  0  0  0  0  0  0  0
  149.1777  139.3689  156.9606 H   0  0  0  0  0  0  0  0  0  0  0  0
  1  2  1  0  0  0  0
  1 26  1  0  0  0  0
  1 27  1  0  0  0  0
  1 28  1  0  0  0  0
  2  3  1  0  0  0  0
  2  4  1  0  0  0  0
  2 20  1  0  0  0  0
  3 29  1  0  0  0  0
  3 30  1  0  0  0  0
  3 31  1  0  0  0  0
  4  5  1  0  0  0  0
  4 32  1  0  0  0  0
  4 33  1  0  0  0  0
  5  6  1  0  0  0  0
  5 34  1  0  0  0  0
  6  7  2  0  0  0  0
  6  8  1  0  0  0  0
  8  9  1  0  0  0  0
  8 35  1  0  0  0  0
  9 14  1  0  0  0  0
  9 10  2  0  0  0  0
 10 11  1  0  0  0  0
 10 36  1  0  0  0  0
 11 12  2  0  0  0  0
 11 37  1  0  0  0  0
 12 13  1  0  0  0  0
 12 38  1  0  0  0  0
 13 14  2  0  0  0  0
 14 15  1  0  0  0  0
 15 19  1  0  0  0  0
 15 16  1  0  0  0  0
 16 17  1  0  0  0  0
 16 39  1  0  0  0  0
 16 40  1  0  0  0  0
 17 18  1  0  0  0  0
 17 41  1  0  0  0  0
 17 42  1  0  0  0  0
 18 19  1  0  0  0  0
 18 43  1  0  0  0  0
 18 44  1  0  0  0  0
 19 45  1  0  0  0  0
 19 46  1  0  0  0  0
 20 25  1  0  0  0  0
 20 21  1  0  0  0  0
 21 22  1  0  0  0  0
 21 47  1  0  0  0  0
 21 48  1  0  0  0  0
 22 23  1  0  0  0  0
 22 49  1  0  0  0  0
 22 50  1  0  0  0  0
 23 24  1  0  0  0  0
 24 25  1  0  0  0  0
 24 51  1  0  0  0  0
 24 52  1  0  0  0  0
 25 53  1  0  0  0  0
 25 54  1  0  0  0  0
M  END
> <s_m_source_file>
AV-unprocessed.smi

> <i_m_source_file_index>
1794

> <i_lp_mmshare_version>
43012

> <i_f3d_flags>
0

> <s_epik_input>
W0NIMl0xW0NIMl1PW0NIMl1bQ0gyXU4xQyhbQ0gzXSkoW0NIM10pW0NIMl1bTkhdQyg9TylbTkhdYzJbY0hdW2NIXVtjSF1uYzJOM1tDSDJdW0NIMl1bQ0gyXVtDSDJdMw==

> <s_epik_cmdline>
J2VwaWtfcHl0aG9uJywgJy1waCcsICc3LjAnLCAnLXRuJywgJzgnLCAnLW1hJywgJzIwMCcsICctbWV0YWxfYmluZGluZycsICctaW1hZScsICc8aW5maWxlLm1hZT4nLCAnLW9tYWUnLCAnPG91dGZpbGUubWFlPic=

> <r_lp_tautomer_probability>
1

> <r_epik_Ionization_Penalty>
0.366523

> <r_epik_Ionization_Penalty_Charging>
0

> <r_epik_Ionization_Penalty_Neutral>
0.366523

> <r_epik_State_Penalty>
0.351681

> <r_epik_Charging_Adjusted_Penalty>
0.351681

> <i_epik_Tot_Q>
0

> <i_epik_Tot_abs_Q>
0

> <r_epik_Metal_State_Penalty>
0.334668

> <b_epik_Metal_Only>
0

> <s_lp_Force_Field>
OPLS_2005

> <r_lp_Energy>
72.3516

> <b_lp_Chiralities_Consistent>
1

> <s_lp_Variant>
AV-unprocessed.smi:1794-1

> <Gold.Version>
5.8.1

> <Gold.Id.Protein>
6NUR|6NUR_protein|mol2

> <Gold.PLP.Fitness>
40.3583

> <Gold.PLP.PLP>
-35.0130

> <Gold.PLP.part.hbond>
-2.0000

> <Gold.PLP.part.metal>
0.0000

> <Gold.PLP.part.buried>
-3.9431

> <Gold.PLP.part.nonpolar>
-28.5411

> <Gold.PLP.part.repulsive>
0.5031

> <Gold.PLP.ligand.clash>
0.0000

> <Gold.PLP.ligand.torsion>
0.3012

> <Gold.PLP.Chemscore.Hbond>
1.9440

> <Gold.PLP.Chemscore.CHOScore>
0.0000

> <Gold.PLP.Chemscore.Metal>
0.0000

> <Gold.Chemscore.Hbonds>
donor molecule, donor type, donor heavy atom, donor atom, acceptor molecule, acceptor atom, score
      L1  H     5    34       P1  7948  0.87
      L1  H     8    35       P1  7948  1.00

> <Gold.PLP.Chemscore.Internal.Correction>
0.1156

> <Gold.Rescore>
     Score         DG    S(hbond)    S(metal)    S(lipo)     H(rot)  DE(clash)    DE(int)     intcor
     15.83     -16.45       1.58        0.00      82.52       1.55       0.16       0.46       ----

> <Gold.Chemscore.Fitness>
15.8261

> <Gold.Chemscore.DG>
-16.4464

> <Gold.Chemscore.ZeroCoef>
-5.4800

> <Gold.Chemscore.Hbond>
1.5799

> <Gold.Chemscore.Metal>
0.0000

> <Gold.Chemscore.Lipo>
82.5236

> <Gold.Chemscore.Internal_Hbond>
0.0000

> <Gold.Chemscore.DEClash>
0.1648

> <Gold.Chemscore.DEInternal>
0.4555

> <Gold.Chemscore.Rot>
1.5491

> <Gold.Chemscore.Internal.Correction>
   9.000000E+99

> <Gold.Chemscore.Hbonds>
donor molecule, donor type, donor heavy atom, donor atom, acceptor molecule, acceptor atom, score
      L1  H     5    34       P1  7948  0.62
      L1  H     8    35       P1  7948  0.44

> <Gold.Chemscore.Hbond.Weighted>
-5.2769

> <Gold.Chemscore.Metal.Weighted>
-0.0000

> <Gold.Chemscore.Lipo.Weighted>
-9.6553

> <Gold.Chemscore.Internal_Hbond.Weighted>
0.0000

> <Gold.Chemscore.DEClash.Weighted>
0.1648

> <Gold.Chemscore.DEInternal.Weighted>
0.4555

> <Gold.Chemscore.Rot.Weighted>
3.9657

> <Gold.Chemscore.Internal.Correction.Weighted>
   9.000000E+99

> <Gold.Protein.RotatedTorsions>
[ 6907 6896 6895 6894 ] final   -1.71 input  -60.11 | X-H torsion
[ 7974 7965 7964 7962 ] final   16.84 input  175.53 | X-H torsion
[ 8008 7997 7996 7995 ] final   11.82 input   59.86 | X-H torsion
[ 10167 10162 10161 10158 ] final  -50.65 input  -65.29 | X-H torsion
[ 10718 10713 10712 10709 ] final  -20.85 input   66.30 | X-H torsion
[ 10763 10752 10751 10750 ] final   59.74 input  -60.55 | X-H torsion
[ 11005 11000 10999 10996 ] final  156.86 input  -57.11 | X-H torsion

> <Gold.Protein.ActiveResidues>
 VAL166  LYS551  ARG553  GLY616  TRP617  ASP618  TYR619  PRO620  LYS621  CYS622 
 ASP623  PHE694  ASN695  SER759  ASP760  ASP761  ALA762  ILE779  LEU786  VAL792 
 PHE793  MET794  SER795  GLU796  ALA797  LYS798  CYS799  TRP800  GLU811  SER814 

> <Gold.Protein.RotatedAtoms>
  151.5416  135.1068  159.9927 H   0  0  0  0  0  0  0  0  0  0  0  0  # atno 6907 bound_to 6896
  152.4533  133.7668  159.6787 H   0  0  0  0  0  0  0  0  0  0  0  0  # atno 6908 bound_to 6896
  150.8468  133.7783  159.3065 H   0  0  0  0  0  0  0  0  0  0  0  0  # atno 6909 bound_to 6896
  146.2237  139.8689  142.8591 H   0  0  0  0  0  0  0  0  0  0  0  0  # atno 7974 bound_to 7965
  154.8122  140.2870  155.5845 H   0  0  0  0  0  0  0  0  0  0  0  0  # atno 8008 bound_to 7997
  156.2989  140.2566  156.2942 H   0  0  0  0  0  0  0  0  0  0  0  0  # atno 8009 bound_to 7997
  154.9435  140.0381  157.2098 H   0  0  0  0  0  0  0  0  0  0  0  0  # atno 8010 bound_to 7997
  140.6627  143.2649  151.4390 H   0  0  0  0  0  0  0  0  0  0  0  0  # atno 10167 bound_to 10162
  156.5262  130.4644  149.6571 H   0  0  0  0  0  0  0  0  0  0  0  0  # atno 10718 bound_to 10713
  152.9902  135.5561  154.5761 H   0  0  0  0  0  0  0  0  0  0  0  0  # atno 10763 bound_to 10752
  154.5152  135.2804  155.1311 H   0  0  0  0  0  0  0  0  0  0  0  0  # atno 10764 bound_to 10752
  154.2687  135.6367  153.5355 H   0  0  0  0  0  0  0  0  0  0  0  0  # atno 10765 bound_to 10752
  140.1715  134.8540  157.2695 H   0  0  0  0  0  0  0  0  0  0  0  0  # atno 11005 bound_to 11000
  145.2628  141.0083  143.3816 LP  0  0  0  0  0  0  0  0  0  0  0  0  # atno 17320 bound_to 7965
  144.9285  139.4327  143.6507 LP  0  0  0  0  0  0  0  0  0  0  0  0  # atno 17321 bound_to 7965
  139.5866  144.1591  152.2036 LP  0  0  0  0  0  0  0  0  0  0  0  0  # atno 17342 bound_to 10162
  140.0933  144.5602  150.7039 LP  0  0  0  0  0  0  0  0  0  0  0  0  # atno 17343 bound_to 10162
  156.3103  130.7225  151.2116 LP  0  0  0  0  0  0  0  0  0  0  0  0  # atno 17370 bound_to 10713
  157.7429  131.0483  150.4988 LP  0  0  0  0  0  0  0  0  0  0  0  0  # atno 17371 bound_to 10713
  140.2372  134.3838  155.7496 LP  0  0  0  0  0  0  0  0  0  0  0  0  # atno 17394 bound_to 11000
  141.2217  133.7246  156.8733 LP  0  0  0  0  0  0  0  0  0  0  0  0  # atno 17395 bound_to 11000

$$$$
