AV-unprocessed.smi:264|AV-procd|sdf|2011|dock3
  -GOLD-   2262021213D 1   1.00000     0.00000
 Structure written by MMmdl.
 52 56  0  0  0  0  0  0  0  0  1 V2000
  153.2728  137.0977  157.5827 C   0  0  0  0  0  0  0  0  0  0  0  0
  152.8570  137.6682  156.2175 C   0  0  2  0  0  0  0  0  0  0  0  0
  152.6808  139.0743  156.3693 O   0  0  0  0  0  0  0  0  0  0  0  0
  151.7057  139.5131  155.4406 C   0  0  0  0  0  0  0  0  0  0  0  0
  150.6710  138.4002  155.5058 C   0  0  0  0  0  0  0  0  0  0  0  0
  151.5259  137.1396  155.6101 C   0  0  1  0  0  0  0  0  0  0  0  0
  151.8035  136.6944  154.2925 O   0  0  0  0  0  0  0  0  0  0  0  0
  150.8307  135.9800  156.3710 C   0  0  0  0  0  0  0  0  0  0  0  0
  149.8266  135.2857  155.5778 N   0  0  0  0  0  0  0  0  0  0  0  0
  148.6595  135.8161  155.0797 C   0  0  0  0  0  0  0  0  0  0  0  0
  147.9214  134.9867  154.3956 N   0  0  0  0  0  0  0  0  0  0  0  0
  148.6346  133.7916  154.4078 C   0  0  0  0  0  0  0  0  0  0  0  0
  148.4228  132.4862  153.8658 C   0  0  0  0  0  0  0  0  0  0  0  0
  147.3584  132.1017  153.1125 N   0  0  0  0  0  0  0  0  0  0  0  0
  147.1151  130.6671  153.0021 C   0  0  0  0  0  0  0  0  0  0  0  0
  146.2232  130.3788  151.7864 C   0  0  0  0  0  0  0  0  0  0  0  0
  145.0249  131.1494  151.8596 O   0  0  0  0  0  0  0  0  0  0  0  0
  145.2380  132.5627  151.9166 C   0  0  2  0  0  0  0  0  0  0  0  0
  143.8756  133.2345  152.0458 C   0  0  0  0  0  0  0  0  0  0  0  0
  144.0587  134.5356  151.2802 C   0  0  0  0  0  0  0  0  0  0  0  0
  144.8179  134.1245  150.1584 O   0  0  0  0  0  0  0  0  0  0  0  0
  145.7636  133.1496  150.5855 C   0  0  0  0  0  0  0  0  0  0  0  0
  146.1404  132.9029  153.1257 C   0  0  0  0  0  0  0  0  0  0  0  0
  149.3764  131.5507  154.1144 N   0  0  0  0  0  0  0  0  0  0  0  0
  150.4610  131.8562  154.8311 C   0  0  0  0  0  0  0  0  0  0  0  0
  150.7898  133.0217  155.3882 N   0  0  0  0  0  0  0  0  0  0  0  0
  149.8376  133.9684  155.1525 C   0  0  0  0  0  0  0  0  0  0  0  0
  153.4314  136.0203  157.5330 H   0  0  0  0  0  0  0  0  0  0  0  0
  152.5222  137.2993  158.3472 H   0  0  0  0  0  0  0  0  0  0  0  0
  154.2068  137.5491  157.9179 H   0  0  0  0  0  0  0  0  0  0  0  0
  153.6809  137.5159  155.5176 H   0  0  0  0  0  0  0  0  0  0  0  0
  151.2981  140.4865  155.7133 H   0  0  0  0  0  0  0  0  0  0  0  0
  152.1466  139.5857  154.4451 H   0  0  0  0  0  0  0  0  0  0  0  0
  150.0809  138.5298  156.4136 H   0  0  0  0  0  0  0  0  0  0  0  0
  149.9829  138.4001  154.6593 H   0  0  0  0  0  0  0  0  0  0  0  0
  150.9839  136.5782  153.8368 H   0  0  0  0  0  0  0  0  0  0  0  0
  151.5664  135.2464  156.7033 H   0  0  0  0  0  0  0  0  0  0  0  0
  150.3403  136.3533  157.2703 H   0  0  0  0  0  0  0  0  0  0  0  0
  148.3676  136.8429  155.2456 H   0  0  0  0  0  0  0  0  0  0  0  0
  148.0423  130.1017  152.9064 H   0  0  0  0  0  0  0  0  0  0  0  0
  146.6262  130.3229  153.9143 H   0  0  0  0  0  0  0  0  0  0  0  0
  146.7609  130.5859  150.8610 H   0  0  0  0  0  0  0  0  0  0  0  0
  145.9579  129.3220  151.7620 H   0  0  0  0  0  0  0  0  0  0  0  0
  143.1120  132.6352  151.5479 H   0  0  0  0  0  0  0  0  0  0  0  0
  143.5558  133.3862  153.0771 H   0  0  0  0  0  0  0  0  0  0  0  0
  143.1132  134.9888  150.9826 H   0  0  0  0  0  0  0  0  0  0  0  0
  144.6246  135.2619  151.8656 H   0  0  0  0  0  0  0  0  0  0  0  0
  146.7406  133.6182  150.7109 H   0  0  0  0  0  0  0  0  0  0  0  0
  145.8568  132.3974  149.8025 H   0  0  0  0  0  0  0  0  0  0  0  0
  145.6066  132.7024  154.0556 H   0  0  0  0  0  0  0  0  0  0  0  0
  146.3838  133.9659  153.1114 H   0  0  0  0  0  0  0  0  0  0  0  0
  151.1661  131.0517  154.9781 H   0  0  0  0  0  0  0  0  0  0  0  0
  1  2  1  0  0  0  0
  1 28  1  0  0  0  0
  1 29  1  0  0  0  0
  1 30  1  0  0  0  0
  2  6  1  0  0  0  0
  2  3  1  0  0  0  0
  2 31  1  0  0  0  0
  3  4  1  0  0  0  0
  4  5  1  0  0  0  0
  4 32  1  0  0  0  0
  4 33  1  0  0  0  0
  5  6  1  0  0  0  0
  5 34  1  0  0  0  0
  5 35  1  0  0  0  0
  6  7  1  0  0  0  0
  6  8  1  0  0  0  0
  7 36  1  0  0  0  0
  8  9  1  0  0  0  0
  8 37  1  0  0  0  0
  8 38  1  0  0  0  0
  9 27  1  0  0  0  0
  9 10  1  0  0  0  0
 10 11  2  0  0  0  0
 10 39  1  0  0  0  0
 11 12  1  0  0  0  0
 12 27  2  0  0  0  0
 12 13  1  0  0  0  0
 13 14  1  0  0  0  0
 13 24  2  0  0  0  0
 14 23  1  0  0  0  0
 14 15  1  0  0  0  0
 15 16  1  0  0  0  0
 15 40  1  0  0  0  0
 15 41  1  0  0  0  0
 16 17  1  0  0  0  0
 16 42  1  0  0  0  0
 16 43  1  0  0  0  0
 17 18  1  0  0  0  0
 18 22  1  0  0  0  0
 18 19  1  0  0  0  0
 18 23  1  0  0  0  0
 19 20  1  0  0  0  0
 19 44  1  0  0  0  0
 19 45  1  0  0  0  0
 20 21  1  0  0  0  0
 20 46  1  0  0  0  0
 20 47  1  0  0  0  0
 21 22  1  0  0  0  0
 22 48  1  0  0  0  0
 22 49  1  0  0  0  0
 23 50  1  0  0  0  0
 23 51  1  0  0  0  0
 24 25  1  0  0  0  0
 25 26  2  0  0  0  0
 25 52  1  0  0  0  0
 26 27  1  0  0  0  0
M  END
> <s_m_source_file>
AV-unprocessed.smi

> <i_m_source_file_index>
264

> <i_lp_mmshare_version>
43012

> <i_f3d_flags>
0

> <s_epik_input>
W0NIMl0xW0NIMl1PW0NAQEhdKFtDSDNdKVtDQEBdMShbT0hdKVtDSDJdbihbY0hdbjIpYyhjMjMpbltjSF1uYzNOKFtDSDJdNClbQ0gyXVtDSDJdT1tDQF00NVtDSDJdW0NIMl1PW0NIMl01

> <s_epik_cmdline>
J2VwaWtfcHl0aG9uJywgJy1waCcsICc3LjAnLCAnLXRuJywgJzgnLCAnLW1hJywgJzIwMCcsICctbWV0YWxfYmluZGluZycsICctaW1hZScsICc8aW5maWxlLm1hZT4nLCAnLW9tYWUnLCAnPG91dGZpbGUubWFlPic=

> <r_lp_tautomer_probability>
1

> <r_epik_Ionization_Penalty>
0.00539389

> <r_epik_Ionization_Penalty_Charging>
0

> <r_epik_Ionization_Penalty_Neutral>
0.00539389

> <r_epik_State_Penalty>
0.00375441

> <r_epik_Charging_Adjusted_Penalty>
0.00375441

> <i_epik_Tot_Q>
0

> <i_epik_Tot_abs_Q>
0

> <r_epik_Metal_State_Penalty>
-0

> <b_epik_Metal_Only>
0

> <s_lp_Force_Field>
OPLS_2005

> <r_lp_Energy>
55.2391

> <b_lp_Chiralities_Consistent>
1

> <s_lp_Variant>
AV-unprocessed.smi:264-5

> <Gold.Version>
5.8.1

> <Gold.Id.Protein>
6NUR|6NUR_protein|mol2

> <Gold.PLP.Fitness>
41.8112

> <Gold.PLP.PLP>
-36.1634

> <Gold.PLP.part.hbond>
-3.0000

> <Gold.PLP.part.metal>
0.0000

> <Gold.PLP.part.buried>
-6.4089

> <Gold.PLP.part.nonpolar>
-30.5687

> <Gold.PLP.part.repulsive>
4.0904

> <Gold.PLP.ligand.clash>
0.0000

> <Gold.PLP.ligand.torsion>
0.3749

> <Gold.PLP.Chemscore.Hbond>
2.0328

> <Gold.PLP.Chemscore.CHOScore>
0.0000

> <Gold.PLP.Chemscore.Metal>
0.0000

> <Gold.Chemscore.Hbonds>
donor molecule, donor type, donor heavy atom, donor atom, acceptor molecule, acceptor atom, score
      P1  H  7997  8008       L1     3  1.00
      P1  H 10752 10765       L1     7  1.00

> <Gold.PLP.Chemscore.Internal.Correction>
0.2994

> <Gold.Rescore>
     Score         DG    S(hbond)    S(metal)    S(lipo)     H(rot)  DE(clash)    DE(int)     intcor
     13.81     -15.42       1.79        0.00      73.03       1.79       0.27       1.35       ----

> <Gold.Chemscore.Fitness>
13.8055

> <Gold.Chemscore.DG>
-15.4216

> <Gold.Chemscore.ZeroCoef>
-5.4800

> <Gold.Chemscore.Hbond>
1.7928

> <Gold.Chemscore.Metal>
0.0000

> <Gold.Chemscore.Lipo>
73.0340

> <Gold.Chemscore.Internal_Hbond>
0.0000

> <Gold.Chemscore.DEClash>
0.2693

> <Gold.Chemscore.DEInternal>
1.3469

> <Gold.Chemscore.Rot>
1.7935

> <Gold.Chemscore.Internal.Correction>
   9.000000E+99

> <Gold.Chemscore.Hbonds>
donor molecule, donor type, donor heavy atom, donor atom, acceptor molecule, acceptor atom, score
      L1  H     7    36       P1  7949  0.01
      P1  H  7997  8008       L1     3  0.81
      P1  H 10752 10765       L1     7  0.79

> <Gold.Chemscore.Hbond.Weighted>
-5.9879

> <Gold.Chemscore.Metal.Weighted>
-0.0000

> <Gold.Chemscore.Lipo.Weighted>
-8.5450

> <Gold.Chemscore.Internal_Hbond.Weighted>
0.0000

> <Gold.Chemscore.DEClash.Weighted>
0.2693

> <Gold.Chemscore.DEInternal.Weighted>
1.3469

> <Gold.Chemscore.Rot.Weighted>
4.5913

> <Gold.Chemscore.Internal.Correction.Weighted>
   9.000000E+99

> <Gold.Protein.RotatedTorsions>
[ 6907 6896 6895 6894 ] final  -11.53 input  -60.11 | X-H torsion
[ 7974 7965 7964 7962 ] final  -73.56 input  175.53 | X-H torsion
[ 8008 7997 7996 7995 ] final  -44.68 input   59.86 | X-H torsion
[ 10167 10162 10161 10158 ] final  -98.65 input  -65.29 | X-H torsion
[ 10718 10713 10712 10709 ] final  134.48 input   66.30 | X-H torsion
[ 10763 10752 10751 10750 ] final  158.57 input  -60.55 | X-H torsion
[ 11005 11000 10999 10996 ] final  -60.60 input  -57.11 | X-H torsion

> <Gold.Protein.ActiveResidues>
 VAL166  LYS551  ARG553  GLY616  TRP617  ASP618  TYR619  PRO620  LYS621  CYS622 
 ASP623  PHE694  ASN695  SER759  ASP760  ASP761  ALA762  ILE779  LEU786  VAL792 
 PHE793  MET794  SER795  GLU796  ALA797  LYS798  CYS799  TRP800  GLU811  SER814 

> <Gold.Protein.RotatedAtoms>
  151.3848  135.0946  159.9507 H   0  0  0  0  0  0  0  0  0  0  0  0  # atno 6907 bound_to 6896
  152.5097  133.9037  159.7464 H   0  0  0  0  0  0  0  0  0  0  0  0  # atno 6908 bound_to 6896
  150.9478  133.6528  159.2807 H   0  0  0  0  0  0  0  0  0  0  0  0  # atno 6909 bound_to 6896
  145.6506  140.9283  143.0987 H   0  0  0  0  0  0  0  0  0  0  0  0  # atno 7974 bound_to 7965
  154.3998  140.1416  156.3722 H   0  0  0  0  0  0  0  0  0  0  0  0  # atno 8008 bound_to 7997
  155.8082  140.3473  155.5421 H   0  0  0  0  0  0  0  0  0  0  0  0  # atno 8009 bound_to 7997
  155.8414  140.0927  157.1722 H   0  0  0  0  0  0  0  0  0  0  0  0  # atno 8010 bound_to 7997
  140.2708  143.3345  152.0537 H   0  0  0  0  0  0  0  0  0  0  0  0  # atno 10167 bound_to 10162
  157.4668  131.1077  150.9852 H   0  0  0  0  0  0  0  0  0  0  0  0  # atno 10718 bound_to 10713
  154.2181  135.2783  155.2934 H   0  0  0  0  0  0  0  0  0  0  0  0  # atno 10763 bound_to 10752
  154.5724  135.5614  153.7111 H   0  0  0  0  0  0  0  0  0  0  0  0  # atno 10764 bound_to 10752
  153.0048  135.6324  154.2321 H   0  0  0  0  0  0  0  0  0  0  0  0  # atno 10765 bound_to 10752
  141.1293  133.6623  156.5248 H   0  0  0  0  0  0  0  0  0  0  0  0  # atno 11005 bound_to 11000
  144.7124  139.8322  143.7410 LP  0  0  0  0  0  0  0  0  0  0  0  0  # atno 17320 bound_to 7965
  146.1207  139.4224  143.0230 LP  0  0  0  0  0  0  0  0  0  0  0  0  # atno 17321 bound_to 7965
  139.4989  144.6658  151.6360 LP  0  0  0  0  0  0  0  0  0  0  0  0  # atno 17342 bound_to 10162
  140.5891  143.9811  150.6314 LP  0  0  0  0  0  0  0  0  0  0  0  0  # atno 17343 bound_to 10162
  157.0631  130.5833  149.5389 LP  0  0  0  0  0  0  0  0  0  0  0  0  # atno 17370 bound_to 10713
  156.0054  130.5140  150.7811 LP  0  0  0  0  0  0  0  0  0  0  0  0  # atno 17371 bound_to 10713
  140.4263  134.7142  157.4917 LP  0  0  0  0  0  0  0  0  0  0  0  0  # atno 17394 bound_to 11000
  140.0325  134.6386  155.9088 LP  0  0  0  0  0  0  0  0  0  0  0  0  # atno 17395 bound_to 11000

$$$$
