AV-unprocessed.smi:1302|AV-procd|sdf|5427|dock1
  -GOLD-   22720 4583D 1   1.00000     0.00000
 Structure written by MMmdl.
 43 44  0  0  0  0  0  0  0  0  1 V2000
  146.9204  139.5610  151.5279 C   0  0  0  0  0  0  0  0  0  0  0  0
  147.1145  138.6828  152.7713 C   0  0  0  0  0  0  0  0  0  0  0  0
  145.7715  138.1923  153.3349 C   0  0  0  0  0  0  0  0  0  0  0  0
  147.8501  139.4334  153.7849 N   0  0  0  0  0  0  0  0  0  0  0  0
  149.0565  139.1041  154.2759 C   0  0  0  0  0  0  0  0  0  0  0  0
  149.6769  138.0957  153.9384 O   0  0  0  0  0  0  0  0  0  0  0  0
  149.5956  140.0181  155.3382 C   0  0  0  0  0  0  0  0  0  0  0  0
  148.7437  140.9159  156.0152 C   0  0  0  0  0  0  0  0  0  0  0  0
  149.2781  141.7437  157.0210 C   0  0  0  0  0  0  0  0  0  0  0  0
  150.6546  141.6505  157.3335 C   0  0  0  0  0  0  0  0  0  0  0  0
  151.2108  142.4745  158.3352 N   0  0  0  0  0  0  0  0  0  0  0  0
  151.8183  143.7156  157.8631 C   0  0  0  0  0  0  0  0  0  0  0  0
  152.0935  144.6784  159.0351 C   0  0  1  0  0  0  0  0  0  0  0  0
  150.8264  145.3702  159.5690 C   0  0  0  0  0  0  0  0  0  0  0  0
  152.8191  144.0074  160.0677 O   0  0  0  0  0  0  0  0  0  0  0  0
  152.1947  142.8247  160.5656 C   0  0  2  0  0  0  0  0  0  0  0  0
  153.0977  142.2331  161.6529 C   0  0  0  0  0  0  0  0  0  0  0  0
  151.9675  141.8362  159.4085 C   0  0  0  0  0  0  0  0  0  0  0  0
  151.4686  140.7741  156.6950 N   0  0  0  0  0  0  0  0  0  0  0  0
  150.9519  139.9828  155.7314 C   0  0  0  0  0  0  0  0  0  0  0  0
  146.3973  139.0159  150.7417 H   0  0  0  0  0  0  0  0  0  0  0  0
  147.8794  139.8842  151.1214 H   0  0  0  0  0  0  0  0  0  0  0  0
  146.3371  140.4534  151.7581 H   0  0  0  0  0  0  0  0  0  0  0  0
  147.7052  137.8142  152.4743 H   0  0  0  0  0  0  0  0  0  0  0  0
  145.2156  137.6281  152.5857 H   0  0  0  0  0  0  0  0  0  0  0  0
  145.1461  139.0266  153.6545 H   0  0  0  0  0  0  0  0  0  0  0  0
  145.9178  137.5374  154.1945 H   0  0  0  0  0  0  0  0  0  0  0  0
  147.4060  140.2668  154.1424 H   0  0  0  0  0  0  0  0  0  0  0  0
  147.6927  140.9765  155.7718 H   0  0  0  0  0  0  0  0  0  0  0  0
  148.6274  142.4256  157.5478 H   0  0  0  0  0  0  0  0  0  0  0  0
  152.7576  143.4658  157.3680 H   0  0  0  0  0  0  0  0  0  0  0  0
  151.1999  144.2179  157.1204 H   0  0  0  0  0  0  0  0  0  0  0  0
  152.7505  145.4671  158.6675 H   0  0  0  0  0  0  0  0  0  0  0  0
  150.3669  145.9844  158.7943 H   0  0  0  0  0  0  0  0  0  0  0  0
  151.0642  146.0233  160.4087 H   0  0  0  0  0  0  0  0  0  0  0  0
  150.0736  144.6561  159.9017 H   0  0  0  0  0  0  0  0  0  0  0  0
  151.2382  143.0782  161.0233 H   0  0  0  0  0  0  0  0  0  0  0  0
  152.6607  141.3287  162.0769 H   0  0  0  0  0  0  0  0  0  0  0  0
  153.2444  142.9438  162.4665 H   0  0  0  0  0  0  0  0  0  0  0  0
  154.0795  141.9758  161.2542 H   0  0  0  0  0  0  0  0  0  0  0  0
  151.4309  140.9625  159.7809 H   0  0  0  0  0  0  0  0  0  0  0  0
  152.9241  141.4891  159.0150 H   0  0  0  0  0  0  0  0  0  0  0  0
  151.6510  139.3021  155.2677 H   0  0  0  0  0  0  0  0  0  0  0  0
  1  2  1  0  0  0  0
  1 21  1  0  0  0  0
  1 22  1  0  0  0  0
  1 23  1  0  0  0  0
  2  3  1  0  0  0  0
  2  4  1  0  0  0  0
  2 24  1  0  0  0  0
  3 25  1  0  0  0  0
  3 26  1  0  0  0  0
  3 27  1  0  0  0  0
  4  5  1  0  0  0  0
  4 28  1  0  0  0  0
  5  6  2  0  0  0  0
  5  7  1  0  0  0  0
  7 20  1  0  0  0  0
  7  8  2  0  0  0  0
  8  9  1  0  0  0  0
  8 29  1  0  0  0  0
  9 10  2  0  0  0  0
  9 30  1  0  0  0  0
 10 11  1  0  0  0  0
 10 19  1  0  0  0  0
 11 18  1  0  0  0  0
 11 12  1  0  0  0  0
 12 13  1  0  0  0  0
 12 31  1  0  0  0  0
 12 32  1  0  0  0  0
 13 14  1  0  0  0  0
 13 15  1  0  0  0  0
 13 33  1  0  0  0  0
 14 34  1  0  0  0  0
 14 35  1  0  0  0  0
 14 36  1  0  0  0  0
 15 16  1  0  0  0  0
 16 17  1  0  0  0  0
 16 18  1  0  0  0  0
 16 37  1  0  0  0  0
 17 38  1  0  0  0  0
 17 39  1  0  0  0  0
 17 40  1  0  0  0  0
 18 41  1  0  0  0  0
 18 42  1  0  0  0  0
 19 20  2  0  0  0  0
 20 43  1  0  0  0  0
M  END
> <s_m_source_file>
AV-unprocessed.smi

> <i_m_source_file_index>
1302

> <i_lp_mmshare_version>
43012

> <i_f3d_flags>
0

> <s_epik_input>
W0NIM11bQ0hdKFtDSDNdKVtOSF1DKD1PKWMxW2NIXVtjSF1jKG5bY0hdMSlOMltDSDJdW0NAQEhdKFtDSDNdKU9bQ0BASF0oW0NIM10pW0NIMl0y

> <s_epik_cmdline>
J2VwaWtfcHl0aG9uJywgJy1waCcsICc3LjAnLCAnLXRuJywgJzgnLCAnLW1hJywgJzIwMCcsICctbWV0YWxfYmluZGluZycsICctaW1hZScsICc8aW5maWxlLm1hZT4nLCAnLW9tYWUnLCAnPG91dGZpbGUubWFlPic=

> <r_lp_tautomer_probability>
1

> <r_epik_Ionization_Penalty>
2.23089e-05

> <r_epik_Ionization_Penalty_Charging>
0

> <r_epik_Ionization_Penalty_Neutral>
2.23089e-05

> <r_epik_State_Penalty>
-0

> <r_epik_Charging_Adjusted_Penalty>
0

> <i_epik_Tot_Q>
0

> <i_epik_Tot_abs_Q>
0

> <r_epik_Metal_State_Penalty>
-0

> <b_epik_Metal_Only>
0

> <s_lp_Force_Field>
OPLS_2005

> <r_lp_Energy>
20.4022

> <b_lp_Chiralities_Consistent>
1

> <s_lp_Variant>
AV-unprocessed.smi:1302-3

> <Gold.Version>
5.8.1

> <Gold.Id.Protein>
6NUR|6NUR_protein|mol2

> <Gold.PLP.Fitness>
36.3594

> <Gold.PLP.PLP>
-37.0990

> <Gold.PLP.part.hbond>
-0.4587

> <Gold.PLP.part.metal>
0.0000

> <Gold.PLP.part.buried>
-0.4153

> <Gold.PLP.part.nonpolar>
-38.9682

> <Gold.PLP.part.repulsive>
2.0852

> <Gold.PLP.ligand.clash>
0.0000

> <Gold.PLP.ligand.torsion>
0.5396

> <Gold.PLP.Chemscore.Hbond>
0.0000

> <Gold.PLP.Chemscore.CHOScore>
0.0000

> <Gold.PLP.Chemscore.Metal>
0.0000

> <Gold.PLP.Chemscore.Internal.Correction>
0.3397

> <Gold.Rescore>
     Score         DG    S(hbond)    S(metal)    S(lipo)     H(rot)  DE(clash)    DE(int)     intcor
     13.50     -15.22       0.00        0.00     108.42       1.15       1.00       0.71       ----

> <Gold.Chemscore.Fitness>
13.5033

> <Gold.Chemscore.DG>
-15.2196

> <Gold.Chemscore.ZeroCoef>
-5.4800

> <Gold.Chemscore.Hbond>
0.0000

> <Gold.Chemscore.Metal>
0.0000

> <Gold.Chemscore.Lipo>
108.4247

> <Gold.Chemscore.Internal_Hbond>
0.0000

> <Gold.Chemscore.DEClash>
1.0048

> <Gold.Chemscore.DEInternal>
0.7115

> <Gold.Chemscore.Rot>
1.1508

> <Gold.Chemscore.Internal.Correction>
   9.000000E+99

> <Gold.Chemscore.Hbond.Weighted>
-0.0000

> <Gold.Chemscore.Metal.Weighted>
-0.0000

> <Gold.Chemscore.Lipo.Weighted>
-12.6857

> <Gold.Chemscore.Internal_Hbond.Weighted>
0.0000

> <Gold.Chemscore.DEClash.Weighted>
1.0048

> <Gold.Chemscore.DEInternal.Weighted>
0.7115

> <Gold.Chemscore.Rot.Weighted>
2.9461

> <Gold.Chemscore.Internal.Correction.Weighted>
   9.000000E+99

> <Gold.Protein.RotatedTorsions>
[ 6907 6896 6895 6894 ] final  -38.31 input  -60.11 | X-H torsion
[ 7974 7965 7964 7962 ] final   30.31 input  175.53 | X-H torsion
[ 8008 7997 7996 7995 ] final   12.83 input   59.86 | X-H torsion
[ 10167 10162 10161 10158 ] final  -13.98 input  -65.29 | X-H torsion
[ 10718 10713 10712 10709 ] final  -42.14 input   66.30 | X-H torsion
[ 10763 10752 10751 10750 ] final  -40.84 input  -60.55 | X-H torsion
[ 11005 11000 10999 10996 ] final  -89.88 input  -57.11 | X-H torsion

> <Gold.Protein.ActiveResidues>
 VAL166  LYS551  ARG553  GLY616  TRP617  ASP618  TYR619  PRO620  LYS621  CYS622 
 ASP623  PHE694  ASN695  SER759  ASP760  ASP761  ALA762  ILE779  LEU786  VAL792 
 PHE793  MET794  SER795  GLU796  ALA797  LYS798  CYS799  TRP800  GLU811  SER814 

> <Gold.Protein.RotatedAtoms>
  151.0040  134.9345  159.7969 H   0  0  0  0  0  0  0  0  0  0  0  0  # atno 6907 bound_to 6896
  152.5285  134.3116  159.9125 H   0  0  0  0  0  0  0  0  0  0  0  0  # atno 6908 bound_to 6896
  151.3122  133.4034  159.2682 H   0  0  0  0  0  0  0  0  0  0  0  0  # atno 6909 bound_to 6896
  146.1619  139.6805  142.9027 H   0  0  0  0  0  0  0  0  0  0  0  0  # atno 7974 bound_to 7965
  154.8260  140.2891  155.5754 H   0  0  0  0  0  0  0  0  0  0  0  0  # atno 8008 bound_to 7997
  156.3001  140.2541  156.3107 H   0  0  0  0  0  0  0  0  0  0  0  0  # atno 8009 bound_to 7997
  154.9285  140.0384  157.2025 H   0  0  0  0  0  0  0  0  0  0  0  0  # atno 8010 bound_to 7997
  140.7192  143.5369  150.9454 H   0  0  0  0  0  0  0  0  0  0  0  0  # atno 10167 bound_to 10162
  156.2628  130.4198  149.8524 H   0  0  0  0  0  0  0  0  0  0  0  0  # atno 10718 bound_to 10713
  153.9527  135.6749  153.4744 H   0  0  0  0  0  0  0  0  0  0  0  0  # atno 10763 bound_to 10752
  153.0876  135.4891  154.8625 H   0  0  0  0  0  0  0  0  0  0  0  0  # atno 10764 bound_to 10752
  154.7316  135.3139  154.8840 H   0  0  0  0  0  0  0  0  0  0  0  0  # atno 10765 bound_to 10752
  141.1576  133.7657  156.9657 H   0  0  0  0  0  0  0  0  0  0  0  0  # atno 11005 bound_to 11000
  145.4566  141.0431  143.2775 LP  0  0  0  0  0  0  0  0  0  0  0  0  # atno 17320 bound_to 7965
  144.8039  139.6088  143.7059 LP  0  0  0  0  0  0  0  0  0  0  0  0  # atno 17321 bound_to 7965
  139.9091  143.6742  152.3118 LP  0  0  0  0  0  0  0  0  0  0  0  0  # atno 17342 bound_to 10162
  139.7119  144.7619  151.1099 LP  0  0  0  0  0  0  0  0  0  0  0  0  # atno 17343 bound_to 10162
  156.6033  130.8556  151.3437 LP  0  0  0  0  0  0  0  0  0  0  0  0  # atno 17370 bound_to 10713
  157.7256  130.9619  150.1623 LP  0  0  0  0  0  0  0  0  0  0  0  0  # atno 17371 bound_to 10713
  140.1163  134.9445  157.2138 LP  0  0  0  0  0  0  0  0  0  0  0  0  # atno 17394 bound_to 11000
  140.3129  134.3003  155.7263 LP  0  0  0  0  0  0  0  0  0  0  0  0  # atno 17395 bound_to 11000

$$$$
