AV-unprocessed.smi:2075|AV-procd|sdf|8456|dock7
  -GOLD-   2272011153D 1   1.00000     0.00000
 Structure written by MMmdl.
 37 38  0  0  0  0  0  0  0  0  1 V2000
  148.7712  144.4081  161.7347 O   0  0  0  0  0  0  0  0  0  0  0  0
  148.3913  144.9481  160.6955 C   0  0  0  0  0  0  0  0  0  0  0  0
  146.9725  145.5182  160.5757 C   0  0  0  0  0  0  0  0  0  0  0  0
  145.8454  144.5006  160.8446 C   0  0  0  0  0  0  0  0  0  0  0  0
  146.0601  143.4084  160.1118 F   0  0  0  0  0  0  0  0  0  0  0  0
  145.8143  144.1483  162.1306 F   0  0  0  0  0  0  0  0  0  0  0  0
  144.6606  145.0129  160.5086 F   0  0  0  0  0  0  0  0  0  0  0  0
  149.1718  145.0789  159.6113 N   0  0  0  0  0  0  0  0  0  0  0  0
  150.5550  144.6218  159.5179 C   0  0  0  0  0  0  0  0  0  0  0  0
  150.7249  143.2865  158.8073 C   0  0  0  0  0  0  0  0  0  0  0  0
  149.6277  142.6738  158.1725 C   0  0  0  0  0  0  0  0  0  0  0  0
  149.8126  141.4401  157.5197 C   0  0  0  0  0  0  0  0  0  0  0  0
  151.0998  140.8437  157.5150 C   0  0  0  0  0  0  0  0  0  0  0  0
  151.3566  139.6088  156.8749 N   0  0  0  0  0  0  0  0  0  0  0  0
  152.4710  138.7917  157.3494 C   0  0  0  0  0  0  0  0  0  0  0  0
  152.3905  137.3704  156.7670 C   0  0  0  0  0  0  0  0  0  0  0  0
  152.3118  137.4342  155.3481 O   0  0  0  0  0  0  0  0  0  0  0  0
  151.1394  138.1169  154.9192 C   0  0  0  0  0  0  0  0  0  0  0  0
  151.1665  139.5693  155.4246 C   0  0  0  0  0  0  0  0  0  0  0  0
  152.1531  141.4453  158.1200 N   0  0  0  0  0  0  0  0  0  0  0  0
  151.9702  142.6273  158.7441 C   0  0  0  0  0  0  0  0  0  0  0  0
  146.8738  146.3499  161.2752 H   0  0  0  0  0  0  0  0  0  0  0  0
  146.8563  145.9398  159.5766 H   0  0  0  0  0  0  0  0  0  0  0  0
  148.7839  145.5310  158.7960 H   0  0  0  0  0  0  0  0  0  0  0  0
  151.1607  145.3850  159.0260 H   0  0  0  0  0  0  0  0  0  0  0  0
  150.9483  144.5214  160.5295 H   0  0  0  0  0  0  0  0  0  0  0  0
  148.6526  143.1383  158.1872 H   0  0  0  0  0  0  0  0  0  0  0  0
  148.9600  140.9765  157.0478 H   0  0  0  0  0  0  0  0  0  0  0  0
  153.4113  139.2635  157.0613 H   0  0  0  0  0  0  0  0  0  0  0  0
  152.4547  138.7208  158.4374 H   0  0  0  0  0  0  0  0  0  0  0  0
  153.2754  136.7997  157.0486 H   0  0  0  0  0  0  0  0  0  0  0  0
  151.5273  136.8352  157.1664 H   0  0  0  0  0  0  0  0  0  0  0  0
  151.0980  138.1009  153.8301 H   0  0  0  0  0  0  0  0  0  0  0  0
  150.2495  137.5971  155.2784 H   0  0  0  0  0  0  0  0  0  0  0  0
  150.2391  140.0567  155.1243 H   0  0  0  0  0  0  0  0  0  0  0  0
  151.9825  140.1153  154.9495 H   0  0  0  0  0  0  0  0  0  0  0  0
  152.8489  143.0558  159.2033 H   0  0  0  0  0  0  0  0  0  0  0  0
  1  2  2  0  0  0  0
  2  3  1  0  0  0  0
  2  8  1  0  0  0  0
  3  4  1  0  0  0  0
  3 22  1  0  0  0  0
  3 23  1  0  0  0  0
  4  5  1  0  0  0  0
  4  6  1  0  0  0  0
  4  7  1  0  0  0  0
  8  9  1  0  0  0  0
  8 24  1  0  0  0  0
  9 10  1  0  0  0  0
  9 25  1  0  0  0  0
  9 26  1  0  0  0  0
 10 21  1  0  0  0  0
 10 11  2  0  0  0  0
 11 12  1  0  0  0  0
 11 27  1  0  0  0  0
 12 13  2  0  0  0  0
 12 28  1  0  0  0  0
 13 14  1  0  0  0  0
 13 20  1  0  0  0  0
 14 19  1  0  0  0  0
 14 15  1  0  0  0  0
 15 16  1  0  0  0  0
 15 29  1  0  0  0  0
 15 30  1  0  0  0  0
 16 17  1  0  0  0  0
 16 31  1  0  0  0  0
 16 32  1  0  0  0  0
 17 18  1  0  0  0  0
 18 19  1  0  0  0  0
 18 33  1  0  0  0  0
 18 34  1  0  0  0  0
 19 35  1  0  0  0  0
 19 36  1  0  0  0  0
 20 21  2  0  0  0  0
 21 37  1  0  0  0  0
M  END
> <s_m_source_file>
AV-unprocessed.smi

> <i_m_source_file_index>
2075

> <i_lp_mmshare_version>
43012

> <i_f3d_flags>
0

> <s_epik_input>
RkMoRikoRilbQ0gyXUMoPU8pW05IXVtDSDJdYzFbY0hdW2NIXWMobltjSF0xKU4yW0NIMl1bQ0gyXU9bQ0gyXVtDSDJdMg==

> <s_epik_cmdline>
J2VwaWtfcHl0aG9uJywgJy1waCcsICc3LjAnLCAnLXRuJywgJzgnLCAnLW1hJywgJzIwMCcsICctbWV0YWxfYmluZGluZycsICctaW1hZScsICc8aW5maWxlLm1hZT4nLCAnLW9tYWUnLCAnPG91dGZpbGUubWFlPic=

> <r_lp_tautomer_probability>
1

> <r_epik_Ionization_Penalty>
0.00347018

> <r_epik_Ionization_Penalty_Charging>
0

> <r_epik_Ionization_Penalty_Neutral>
0.00347018

> <r_epik_State_Penalty>
0.00246037

> <r_epik_Charging_Adjusted_Penalty>
0.00246037

> <i_epik_Tot_Q>
0

> <i_epik_Tot_abs_Q>
0

> <r_epik_Metal_State_Penalty>
-0

> <b_epik_Metal_Only>
0

> <s_lp_Force_Field>
OPLS_2005

> <r_lp_Energy>
11.9442

> <b_lp_Chiralities_Consistent>
1

> <s_lp_Variant>
AV-unprocessed.smi:2075-1

> <Gold.Version>
5.8.1

> <Gold.Id.Protein>
6NUR|6NUR_protein|mol2

> <Gold.PLP.Fitness>
41.5651

> <Gold.PLP.PLP>
-35.3923

> <Gold.PLP.part.hbond>
-3.0000

> <Gold.PLP.part.metal>
0.0000

> <Gold.PLP.part.buried>
-7.7983

> <Gold.PLP.part.nonpolar>
-25.5543

> <Gold.PLP.part.repulsive>
0.4726

> <Gold.PLP.ligand.clash>
0.0000

> <Gold.PLP.ligand.torsion>
0.6411

> <Gold.PLP.Chemscore.Hbond>
2.3280

> <Gold.PLP.Chemscore.CHOScore>
0.0000

> <Gold.PLP.Chemscore.Metal>
0.0000

> <Gold.Chemscore.Hbonds>
donor molecule, donor type, donor heavy atom, donor atom, acceptor molecule, acceptor atom, score
      L1  H     8    24       P1  8029  1.00
      P1  H  6933  6944       L1     1  0.59
      P1  H 10752 10764       L1    17  0.64

> <Gold.PLP.Chemscore.Internal.Correction>
0.4710

> <Gold.Rescore>
     Score         DG    S(hbond)    S(metal)    S(lipo)     H(rot)  DE(clash)    DE(int)     intcor
     15.92     -16.58       2.84        0.00      57.77       2.01       0.00       0.67       ----

> <Gold.Chemscore.Fitness>
15.9162

> <Gold.Chemscore.DG>
-16.5826

> <Gold.Chemscore.ZeroCoef>
-5.4800

> <Gold.Chemscore.Hbond>
2.8411

> <Gold.Chemscore.Metal>
0.0000

> <Gold.Chemscore.Lipo>
57.7688

> <Gold.Chemscore.Internal_Hbond>
0.0000

> <Gold.Chemscore.DEClash>
0.0000

> <Gold.Chemscore.DEInternal>
0.6664

> <Gold.Chemscore.Rot>
2.0101

> <Gold.Chemscore.Internal.Correction>
   9.000000E+99

> <Gold.Chemscore.Hbonds>
donor molecule, donor type, donor heavy atom, donor atom, acceptor molecule, acceptor atom, score
      L1  H     8    24       P1  8029  1.00
      P1  H  6933  6944       L1     1  0.34
      P1  H 10752 10764       L1    17  0.21

> <Gold.Chemscore.Hbond.Weighted>
-9.4894

> <Gold.Chemscore.Metal.Weighted>
-0.0000

> <Gold.Chemscore.Lipo.Weighted>
-6.7589

> <Gold.Chemscore.Internal_Hbond.Weighted>
0.0000

> <Gold.Chemscore.DEClash.Weighted>
0.0000

> <Gold.Chemscore.DEInternal.Weighted>
0.6664

> <Gold.Chemscore.Rot.Weighted>
5.1458

> <Gold.Chemscore.Internal.Correction.Weighted>
   9.000000E+99

> <Gold.Protein.RotatedTorsions>
[ 6907 6896 6895 6894 ] final  176.92 input  -60.11 | X-H torsion
[ 7974 7965 7964 7962 ] final  -30.05 input  175.53 | X-H torsion
[ 8008 7997 7996 7995 ] final  164.47 input   59.86 | X-H torsion
[ 10167 10162 10161 10158 ] final  -33.78 input  -65.29 | X-H torsion
[ 10718 10713 10712 10709 ] final  159.02 input   66.30 | X-H torsion
[ 10763 10752 10751 10750 ] final  -47.80 input  -60.55 | X-H torsion
[ 11005 11000 10999 10996 ] final  122.06 input  -57.11 | X-H torsion

> <Gold.Protein.ActiveResidues>
 VAL166  LYS551  ARG553  GLY616  TRP617  ASP618  TYR619  PRO620  LYS621  CYS622 
 ASP623  PHE694  ASN695  SER759  ASP760  ASP761  ALA762  ILE779  LEU786  VAL792 
 PHE793  MET794  SER795  GLU796  ALA797  LYS798  CYS799  TRP800  GLU811  SER814 

> <Gold.Protein.RotatedAtoms>
  151.7124  133.3312  159.3293 H   0  0  0  0  0  0  0  0  0  0  0  0  # atno 6907 bound_to 6896
  150.7688  134.6520  159.6303 H   0  0  0  0  0  0  0  0  0  0  0  0  # atno 6908 bound_to 6896
  152.3703  134.6746  160.0230 H   0  0  0  0  0  0  0  0  0  0  0  0  # atno 6909 bound_to 6896
  146.1171  140.5491  142.8752 H   0  0  0  0  0  0  0  0  0  0  0  0  # atno 7974 bound_to 7965
  156.1877  140.1696  156.8152 H   0  0  0  0  0  0  0  0  0  0  0  0  # atno 8008 bound_to 7997
  154.5434  140.0732  156.8581 H   0  0  0  0  0  0  0  0  0  0  0  0  # atno 8009 bound_to 7997
  155.3169  140.3371  155.4244 H   0  0  0  0  0  0  0  0  0  0  0  0  # atno 8010 bound_to 7997
  140.7198  143.3595  151.1991 H   0  0  0  0  0  0  0  0  0  0  0  0  # atno 10167 bound_to 10162
  157.1699  131.0607  151.2188 H   0  0  0  0  0  0  0  0  0  0  0  0  # atno 10718 bound_to 10713
  154.0674  135.6609  153.4819 H   0  0  0  0  0  0  0  0  0  0  0  0  # atno 10763 bound_to 10752
  153.0403  135.5149  154.7600 H   0  0  0  0  0  0  0  0  0  0  0  0  # atno 10764 bound_to 10752
  154.6655  135.3021  154.9778 H   0  0  0  0  0  0  0  0  0  0  0  0  # atno 10765 bound_to 10752
  139.9252  134.9640  156.8053 H   0  0  0  0  0  0  0  0  0  0  0  0  # atno 11005 bound_to 11000
  144.7563  140.5316  143.6766 LP  0  0  0  0  0  0  0  0  0  0  0  0  # atno 17320 bound_to 7965
  145.5543  139.1477  143.3377 LP  0  0  0  0  0  0  0  0  0  0  0  0  # atno 17321 bound_to 7965
  139.7144  143.9324  152.2960 LP  0  0  0  0  0  0  0  0  0  0  0  0  # atno 17342 bound_to 10162
  139.9060  144.6884  150.8613 LP  0  0  0  0  0  0  0  0  0  0  0  0  # atno 17343 bound_to 10162
  157.4053  130.7355  149.6798 LP  0  0  0  0  0  0  0  0  0  0  0  0  # atno 17370 bound_to 10713
  155.9740  130.4110  150.3957 LP  0  0  0  0  0  0  0  0  0  0  0  0  # atno 17371 bound_to 10713
  140.6356  133.9865  155.7683 LP  0  0  0  0  0  0  0  0  0  0  0  0  # atno 17394 bound_to 11000
  141.0804  134.0070  157.3394 LP  0  0  0  0  0  0  0  0  0  0  0  0  # atno 17395 bound_to 11000

$$$$
