AV-unprocessed.smi:3025|AV-procd|sdf|11511|dock4
  -GOLD-   2272016443D 1   1.00000     0.00000
 Structure written by MMmdl.
 41 42  0  0  0  0  0  0  0  0  3 V2000
  151.9182  143.6712  158.7204 C   0  0  0  0  0  0  0  0  0  0  0  0
  151.2761  143.2154  157.4052 C   0  0  0  0  0  0  0  0  0  0  0  0
  151.3456  141.6907  157.2145 C   0  0  0  0  0  0  0  0  0  0  0  0
  150.7101  141.1879  155.9018 C   0  0  2  0  0  0  0  0  0  0  0  0
  149.1781  141.3771  155.8727 C   0  0  0  0  0  0  0  0  0  0  0  0
  148.5583  140.8462  154.5697 C   0  0  0  0  0  0  0  0  0  0  0  0
  148.9134  139.3640  154.3338 C   0  0  1  0  0  0  0  0  0  0  0  0
  148.3656  138.8695  153.0510 N   0  3  0  0  0  0  0  0  0  0  0  0
  146.8942  138.9197  152.9334 C   0  0  0  0  0  0  0  0  0  0  0  0
  146.3924  137.9016  151.9041 C   0  0  0  0  0  0  0  0  0  0  0  0
  145.1826  137.1501  152.4095 C   0  0  0  0  0  0  0  0  0  0  0  0
  144.5387  137.3903  153.5692 N   0  5  0  0  0  0  0  0  0  0  0  0
  143.5013  136.5844  153.6857 N   0  0  0  0  0  0  0  0  0  0  0  0
  143.5237  135.8566  152.5629 C   0  0  0  0  0  0  0  0  0  0  0  0
  144.5388  136.1866  151.7567 N   0  0  0  0  0  0  0  0  0  0  0  0
  150.4412  139.1799  154.3542 C   0  0  0  0  0  0  0  0  0  0  0  0
  151.0565  139.7049  155.6610 C   0  0  0  0  0  0  0  0  0  0  0  0
  151.8594  144.7547  158.8259 H   0  0  0  0  0  0  0  0  0  0  0  0
  152.9708  143.3898  158.7637 H   0  0  0  0  0  0  0  0  0  0  0  0
  151.4154  143.2257  159.5794 H   0  0  0  0  0  0  0  0  0  0  0  0
  150.2396  143.5513  157.3888 H   0  0  0  0  0  0  0  0  0  0  0  0
  151.7764  143.7124  156.5733 H   0  0  0  0  0  0  0  0  0  0  0  0
  152.3953  141.3942  157.2317 H   0  0  0  0  0  0  0  0  0  0  0  0
  150.8792  141.1917  158.0650 H   0  0  0  0  0  0  0  0  0  0  0  0
  151.1400  141.7635  155.0804 H   0  0  0  0  0  0  0  0  0  0  0  0
  148.7271  140.8649  156.7239 H   0  0  0  0  0  0  0  0  0  0  0  0
  148.9216  142.4310  155.9771 H   0  0  0  0  0  0  0  0  0  0  0  0
  147.4777  140.9804  154.6154 H   0  0  0  0  0  0  0  0  0  0  0  0
  148.9088  141.4487  153.7302 H   0  0  0  0  0  0  0  0  0  0  0  0
  148.4904  138.7621  155.1397 H   0  0  0  0  0  0  0  0  0  0  0  0
  148.7767  139.3953  152.2931 H   0  0  0  0  0  0  0  0  0  0  0  0
  146.4462  138.7125  153.9062 H   0  0  0  0  0  0  0  0  0  0  0  0
  146.5777  139.9201  152.6379 H   0  0  0  0  0  0  0  0  0  0  0  0
  146.1297  138.4025  150.9716 H   0  0  0  0  0  0  0  0  0  0  0  0
  147.1770  137.1818  151.6675 H   0  0  0  0  0  0  0  0  0  0  0  0
  142.7967  135.0880  152.3312 H   0  0  0  0  0  0  0  0  0  0  0  0
  150.6919  138.1252  154.2329 H   0  0  0  0  0  0  0  0  0  0  0  0
  150.8902  139.7026  153.5084 H   0  0  0  0  0  0  0  0  0  0  0  0
  152.1390  139.5754  155.6270 H   0  0  0  0  0  0  0  0  0  0  0  0
  150.7015  139.1023  156.4983 H   0  0  0  0  0  0  0  0  0  0  0  0
  148.6378  137.9018  152.9541 H   0  0  0  0  0  0  0  0  0  0  0  0
  1  2  1  0  0  0  0
  1 18  1  0  0  0  0
  1 19  1  0  0  0  0
  1 20  1  0  0  0  0
  2  3  1  0  0  0  0
  2 21  1  0  0  0  0
  2 22  1  0  0  0  0
  3  4  1  0  0  0  0
  3 23  1  0  0  0  0
  3 24  1  0  0  0  0
  4 17  1  0  0  0  0
  4  5  1  0  0  0  0
  4 25  1  0  0  0  0
  5  6  1  0  0  0  0
  5 26  1  0  0  0  0
  5 27  1  0  0  0  0
  6  7  1  0  0  0  0
  6 28  1  0  0  0  0
  6 29  1  0  0  0  0
  7  8  1  0  0  0  0
  7 16  1  0  0  0  0
  7 30  1  0  0  0  0
  8  9  1  0  0  0  0
  8 31  1  0  0  0  0
  8 41  1  0  0  0  0
  9 10  1  0  0  0  0
  9 32  1  0  0  0  0
  9 33  1  0  0  0  0
 10 34  1  0  0  0  0
 10 35  1  0  0  0  0
 10 11  1  0  0  0  0
 11 15  2  0  0  0  0
 11 12  1  0  0  0  0
 12 13  1  0  0  0  0
 13 14  2  0  0  0  0
 14 15  1  0  0  0  0
 14 36  1  0  0  0  0
 16 17  1  0  0  0  0
 16 37  1  0  0  0  0
 16 38  1  0  0  0  0
 17 39  1  0  0  0  0
 17 40  1  0  0  0  0
M  CHG  1   8   1
M  CHG  1  12  -1
M  END
> <s_m_source_file>
AV-unprocessed.smi

> <i_m_source_file_index>
3025

> <i_lp_mmshare_version>
43012

> <i_f3d_flags>
0

> <s_epik_input>
W0NIM11bQ0gyXVtDSDJdW0NAQEhdMVtDSDJdW0NIMl1bQ0BIXShbQ0gyXVtDSDJdMSlbTkhdW0NIMl1bQ0gyXWMybm5bY0hdW25IXTI=

> <s_epik_cmdline>
J2VwaWtfcHl0aG9uJywgJy1waCcsICc3LjAnLCAnLXRuJywgJzgnLCAnLW1hJywgJzIwMCcsICctbWV0YWxfYmluZGluZycsICctaW1hZScsICc8aW5maWxlLm1hZT4nLCAnLW9tYWUnLCAnPG91dGZpbGUubWFlPic=

> <r_lp_tautomer_probability>
0.948284

> <r_epik_Ionization_Penalty>
6.65342

> <r_epik_Ionization_Penalty_Charging>
6.65342

> <r_epik_Ionization_Penalty_Neutral>
1.40767e-13

> <r_epik_State_Penalty>
2.88894

> <r_epik_Charging_Adjusted_Penalty>
9.54236

> <i_epik_Tot_Q>
0

> <i_epik_Tot_abs_Q>
2

> <r_epik_Metal_State_Penalty>
0.664188

> <b_epik_Metal_Only>
1

> <s_lp_Force_Field>
OPLS_2005

> <r_lp_Energy>
6.5819

> <b_lp_Chiralities_Consistent>
1

> <s_lp_Variant>
AV-unprocessed.smi:3025-7

> <Gold.Version>
5.8.1

> <Gold.Id.Protein>
6NUR|6NUR_protein|mol2

> <Gold.PLP.Fitness>
41.4620

> <Gold.PLP.PLP>
-33.3877

> <Gold.PLP.part.hbond>
-2.0000

> <Gold.PLP.part.metal>
0.0000

> <Gold.PLP.part.buried>
-3.1129

> <Gold.PLP.part.nonpolar>
-30.5646

> <Gold.PLP.part.repulsive>
0.7900

> <Gold.PLP.ligand.clash>
0.0000

> <Gold.PLP.ligand.torsion>
0.4999

> <Gold.PLP.Chemscore.Hbond>
3.0000

> <Gold.PLP.Chemscore.CHOScore>
0.0000

> <Gold.PLP.Chemscore.Metal>
0.0000

> <Gold.Chemscore.Hbonds>
donor molecule, donor type, donor heavy atom, donor atom, acceptor molecule, acceptor atom, score
      L1  H     8    31       P1  7957  1.00
      L1  H     8    41       P1  7948  2.00

> <Gold.PLP.Chemscore.Internal.Correction>
0.0741

> <Gold.Rescore>
     Score         DG    S(hbond)    S(metal)    S(lipo)     H(rot)  DE(clash)    DE(int)     intcor
     15.03     -15.63       1.93        0.00      86.49       2.50       0.07       0.53       ----

> <Gold.Chemscore.Fitness>
15.0343

> <Gold.Chemscore.DG>
-15.6347

> <Gold.Chemscore.ZeroCoef>
-5.4800

> <Gold.Chemscore.Hbond>
1.9284

> <Gold.Chemscore.Metal>
0.0000

> <Gold.Chemscore.Lipo>
86.4851

> <Gold.Chemscore.Internal_Hbond>
0.0000

> <Gold.Chemscore.DEClash>
0.0730

> <Gold.Chemscore.DEInternal>
0.5274

> <Gold.Chemscore.Rot>
2.5019

> <Gold.Chemscore.Internal.Correction>
   9.000000E+99

> <Gold.Chemscore.Hbonds>
donor molecule, donor type, donor heavy atom, donor atom, acceptor molecule, acceptor atom, score
      L1  H     8    31       P1  7957  0.93
      L1  H     8    41       P1  7948  0.92

> <Gold.Chemscore.Hbond.Weighted>
-6.4408

> <Gold.Chemscore.Metal.Weighted>
-0.0000

> <Gold.Chemscore.Lipo.Weighted>
-10.1188

> <Gold.Chemscore.Internal_Hbond.Weighted>
0.0000

> <Gold.Chemscore.DEClash.Weighted>
0.0730

> <Gold.Chemscore.DEInternal.Weighted>
0.5274

> <Gold.Chemscore.Rot.Weighted>
6.4049

> <Gold.Chemscore.Internal.Correction.Weighted>
   9.000000E+99

> <Gold.Protein.RotatedTorsions>
[ 6907 6896 6895 6894 ] final   53.62 input  -60.11 | X-H torsion
[ 7974 7965 7964 7962 ] final  176.93 input  175.53 | X-H torsion
[ 8008 7997 7996 7995 ] final   21.91 input   59.86 | X-H torsion
[ 10167 10162 10161 10158 ] final -154.11 input  -65.29 | X-H torsion
[ 10718 10713 10712 10709 ] final -132.50 input   66.30 | X-H torsion
[ 10763 10752 10751 10750 ] final  129.21 input  -60.55 | X-H torsion
[ 11005 11000 10999 10996 ] final  130.38 input  -57.11 | X-H torsion

> <Gold.Protein.ActiveResidues>
 VAL166  LYS551  ARG553  GLY616  TRP617  ASP618  TYR619  PRO620  LYS621  CYS622 
 ASP623  PHE694  ASN695  SER759  ASP760  ASP761  ALA762  ILE779  LEU786  VAL792 
 PHE793  MET794  SER795  GLU796  ALA797  LYS798  CYS799  TRP800  GLU811  SER814 

> <Gold.Protein.RotatedAtoms>
  152.3355  134.7203  160.0277 H   0  0  0  0  0  0  0  0  0  0  0  0  # atno 6907 bound_to 6896
  151.7605  133.3328  159.3424 H   0  0  0  0  0  0  0  0  0  0  0  0  # atno 6908 bound_to 6896
  150.7448  134.6042  159.6097 H   0  0  0  0  0  0  0  0  0  0  0  0  # atno 6909 bound_to 6896
  144.7176  140.0170  143.6440 H   0  0  0  0  0  0  0  0  0  0  0  0  # atno 7974 bound_to 7965
  154.9578  140.3074  155.5045 H   0  0  0  0  0  0  0  0  0  0  0  0  # atno 8008 bound_to 7997
  156.2980  140.2307  156.4599 H   0  0  0  0  0  0  0  0  0  0  0  0  # atno 8009 bound_to 7997
  154.7994  140.0435  157.1249 H   0  0  0  0  0  0  0  0  0  0  0  0  # atno 8010 bound_to 7997
  139.7041  143.9215  152.2441 H   0  0  0  0  0  0  0  0  0  0  0  0  # atno 10167 bound_to 10162
  156.2352  130.7062  151.0900 H   0  0  0  0  0  0  0  0  0  0  0  0  # atno 10718 bound_to 10713
  153.7381  135.3228  155.3299 H   0  0  0  0  0  0  0  0  0  0  0  0  # atno 10763 bound_to 10752
  154.8304  135.4538  154.1054 H   0  0  0  0  0  0  0  0  0  0  0  0  # atno 10764 bound_to 10752
  153.2221  135.6949  153.8070 H   0  0  0  0  0  0  0  0  0  0  0  0  # atno 10765 bound_to 10752
  139.9668  134.9588  156.9285 H   0  0  0  0  0  0  0  0  0  0  0  0  # atno 11005 bound_to 11000
  146.0212  139.3252  143.0812 LP  0  0  0  0  0  0  0  0  0  0  0  0  # atno 17320 bound_to 7965
  145.8566  140.9499  143.0722 LP  0  0  0  0  0  0  0  0  0  0  0  0  # atno 17321 bound_to 7965
  139.9066  144.6881  150.8607 LP  0  0  0  0  0  0  0  0  0  0  0  0  # atno 17342 bound_to 10162
  140.7717  143.3474  151.2083 LP  0  0  0  0  0  0  0  0  0  0  0  0  # atno 17343 bound_to 10162
  157.7151  131.0714  150.6357 LP  0  0  0  0  0  0  0  0  0  0  0  0  # atno 17370 bound_to 10713
  156.6427  130.4463  149.5747 LP  0  0  0  0  0  0  0  0  0  0  0  0  # atno 17371 bound_to 10713
  140.5378  134.0750  155.7333 LP  0  0  0  0  0  0  0  0  0  0  0  0  # atno 17394 bound_to 11000
  141.1348  133.9240  157.2457 LP  0  0  0  0  0  0  0  0  0  0  0  0  # atno 17395 bound_to 11000

$$$$
