AV-unprocessed.smi:2332|AV-procd|sdf|9318|dock8
  -GOLD-   2272012543D 1   1.00000     0.00000
 Structure written by MMmdl.
 32 33  0  0  0  0  0  0  0  0  1 V2000
  146.1463  145.1336  160.4711 C   0  0  0  0  0  0  0  0  0  0  0  0
  147.3939  144.9583  159.7438 N   0  0  0  0  0  0  0  0  0  0  0  0
  148.5223  144.4701  160.2811 C   0  0  0  0  0  0  0  0  0  0  0  0
  148.5991  144.1121  161.4570 O   0  0  0  0  0  0  0  0  0  0  0  0
  149.7408  144.3484  159.3531 C   0  0  2  0  0  0  0  0  0  0  0  0
  149.9242  142.9086  158.8207 C   0  0  0  0  0  0  0  0  0  0  0  0
  151.1537  142.7970  158.0389 N   0  0  0  0  0  0  0  0  0  0  0  0
  151.2923  141.6080  157.2901 C   0  0  0  0  0  0  0  0  0  0  0  0
  150.4708  141.3787  156.1599 C   0  0  0  0  0  0  0  0  0  0  0  0
  150.6226  140.1839  155.4298 C   0  0  0  0  0  0  0  0  0  0  0  0
  151.5915  139.2517  155.8468 C   0  0  0  0  0  0  0  0  0  0  0  0
  151.7861  138.0049  155.1272 C   0  0  0  0  0  0  0  0  0  0  0  0
  151.9412  137.0117  154.5543 N   0  0  0  0  0  0  0  0  0  0  0  0
  152.3700  139.5624  156.9786 C   0  0  0  0  0  0  0  0  0  0  0  0
  152.2287  140.7073  157.6806 N   0  0  0  0  0  0  0  0  0  0  0  0
  152.3334  143.3081  158.7330 C   0  0  0  0  0  0  0  0  0  0  0  0
  152.0748  144.7336  159.2438 C   0  0  0  0  0  0  0  0  0  0  0  0
  150.9147  144.7388  160.0673 O   0  0  0  0  0  0  0  0  0  0  0  0
  145.3976  145.5863  159.8211 H   0  0  0  0  0  0  0  0  0  0  0  0
  146.2871  145.7851  161.3345 H   0  0  0  0  0  0  0  0  0  0  0  0
  145.7620  144.1737  160.8178 H   0  0  0  0  0  0  0  0  0  0  0  0
  147.4073  145.2307  158.7714 H   0  0  0  0  0  0  0  0  0  0  0  0
  149.5855  145.0344  158.5185 H   0  0  0  0  0  0  0  0  0  0  0  0
  149.9744  142.2024  159.6508 H   0  0  0  0  0  0  0  0  0  0  0  0
  149.0543  142.6344  158.2253 H   0  0  0  0  0  0  0  0  0  0  0  0
  149.7413  142.1067  155.8374 H   0  0  0  0  0  0  0  0  0  0  0  0
  150.0050  139.9943  154.5636 H   0  0  0  0  0  0  0  0  0  0  0  0
  153.1280  138.8796  157.3347 H   0  0  0  0  0  0  0  0  0  0  0  0
  152.5755  142.6501  159.5687 H   0  0  0  0  0  0  0  0  0  0  0  0
  153.1931  143.3158  158.0614 H   0  0  0  0  0  0  0  0  0  0  0  0
  152.9261  145.0833  159.8278 H   0  0  0  0  0  0  0  0  0  0  0  0
  151.9500  145.4300  158.4132 H   0  0  0  0  0  0  0  0  0  0  0  0
  1  2  1  0  0  0  0
  1 19  1  0  0  0  0
  1 20  1  0  0  0  0
  1 21  1  0  0  0  0
  2  3  1  0  0  0  0
  2 22  1  0  0  0  0
  3  4  2  0  0  0  0
  3  5  1  0  0  0  0
  5 18  1  0  0  0  0
  5  6  1  0  0  0  0
  5 23  1  0  0  0  0
  6  7  1  0  0  0  0
  6 24  1  0  0  0  0
  6 25  1  0  0  0  0
  7  8  1  0  0  0  0
  7 16  1  0  0  0  0
  8 15  1  0  0  0  0
  8  9  2  0  0  0  0
  9 10  1  0  0  0  0
  9 26  1  0  0  0  0
 10 11  2  0  0  0  0
 10 27  1  0  0  0  0
 11 12  1  0  0  0  0
 11 14  1  0  0  0  0
 12 13  3  0  0  0  0
 14 15  2  0  0  0  0
 14 28  1  0  0  0  0
 16 17  1  0  0  0  0
 16 29  1  0  0  0  0
 16 30  1  0  0  0  0
 17 18  1  0  0  0  0
 17 31  1  0  0  0  0
 17 32  1  0  0  0  0
M  END
> <s_m_source_file>
AV-unprocessed.smi

> <i_m_source_file_index>
2332

> <i_lp_mmshare_version>
43012

> <i_f3d_flags>
0

> <s_epik_input>
W0NIM11bTkhdQyg9TylbQ0BASF0xW0NIMl1OKFtDSDJdW0NIMl1PMSljMltjSF1bY0hdYyhDI04pW2NIXW4y

> <s_epik_cmdline>
J2VwaWtfcHl0aG9uJywgJy1waCcsICc3LjAnLCAnLXRuJywgJzgnLCAnLW1hJywgJzIwMCcsICctbWV0YWxfYmluZGluZycsICctaW1hZScsICc8aW5maWxlLm1hZT4nLCAnLW9tYWUnLCAnPG91dGZpbGUubWFlPic=

> <r_lp_tautomer_probability>
1

> <r_epik_Ionization_Penalty>
6.95229e-08

> <r_epik_Ionization_Penalty_Charging>
0

> <r_epik_Ionization_Penalty_Neutral>
6.95229e-08

> <r_epik_State_Penalty>
-0

> <r_epik_Charging_Adjusted_Penalty>
0

> <i_epik_Tot_Q>
0

> <i_epik_Tot_abs_Q>
0

> <r_epik_Metal_State_Penalty>
-0

> <b_epik_Metal_Only>
0

> <s_lp_Force_Field>
OPLS_2005

> <r_lp_Energy>
17.7289

> <b_lp_Chiralities_Consistent>
1

> <s_lp_Variant>
AV-unprocessed.smi:2332-1

> <Gold.Version>
5.8.1

> <Gold.Id.Protein>
6NUR|6NUR_protein|mol2

> <Gold.PLP.Fitness>
40.8130

> <Gold.PLP.PLP>
-34.1787

> <Gold.PLP.part.hbond>
-3.0000

> <Gold.PLP.part.metal>
0.0000

> <Gold.PLP.part.buried>
-5.5089

> <Gold.PLP.part.nonpolar>
-27.3869

> <Gold.PLP.part.repulsive>
0.7387

> <Gold.PLP.ligand.clash>
0.0000

> <Gold.PLP.ligand.torsion>
1.0262

> <Gold.PLP.Chemscore.Hbond>
2.7840

> <Gold.PLP.Chemscore.CHOScore>
0.0000

> <Gold.PLP.Chemscore.Metal>
0.0000

> <Gold.Chemscore.Hbonds>
donor molecule, donor type, donor heavy atom, donor atom, acceptor molecule, acceptor atom, score
      L1  H     2    22       P1  8029  1.00
      P1  H  6933  6944       L1     4  0.77
      P1  H 10752 10763       L1    13  0.99

> <Gold.PLP.Chemscore.Internal.Correction>
0.3348

> <Gold.Rescore>
     Score         DG    S(hbond)    S(metal)    S(lipo)     H(rot)  DE(clash)    DE(int)     intcor
     18.57     -19.08       2.76        0.00      66.89       1.35       0.13       0.38       ----

> <Gold.Chemscore.Fitness>
18.5719

> <Gold.Chemscore.DG>
-19.0804

> <Gold.Chemscore.ZeroCoef>
-5.4800

> <Gold.Chemscore.Hbond>
2.7633

> <Gold.Chemscore.Metal>
0.0000

> <Gold.Chemscore.Lipo>
66.8938

> <Gold.Chemscore.Internal_Hbond>
0.0000

> <Gold.Chemscore.DEClash>
0.1334

> <Gold.Chemscore.DEInternal>
0.3750

> <Gold.Chemscore.Rot>
1.3498

> <Gold.Chemscore.Internal.Correction>
   9.000000E+99

> <Gold.Chemscore.Hbonds>
donor molecule, donor type, donor heavy atom, donor atom, acceptor molecule, acceptor atom, score
      L1  H     2    22       P1  8029  1.00
      P1  H  6933  6944       L1     4  0.46
      P1  H 10752 10763       L1    13  0.94

> <Gold.Chemscore.Hbond.Weighted>
-9.2294

> <Gold.Chemscore.Metal.Weighted>
-0.0000

> <Gold.Chemscore.Lipo.Weighted>
-7.8266

> <Gold.Chemscore.Internal_Hbond.Weighted>
0.0000

> <Gold.Chemscore.DEClash.Weighted>
0.1334

> <Gold.Chemscore.DEInternal.Weighted>
0.3750

> <Gold.Chemscore.Rot.Weighted>
3.4556

> <Gold.Chemscore.Internal.Correction.Weighted>
   9.000000E+99

> <Gold.Protein.RotatedTorsions>
[ 6907 6896 6895 6894 ] final -152.57 input  -60.11 | X-H torsion
[ 7974 7965 7964 7962 ] final  108.40 input  175.53 | X-H torsion
[ 8008 7997 7996 7995 ] final  164.19 input   59.86 | X-H torsion
[ 10167 10162 10161 10158 ] final  -30.15 input  -65.29 | X-H torsion
[ 10718 10713 10712 10709 ] final  -48.54 input   66.30 | X-H torsion
[ 10763 10752 10751 10750 ] final   38.71 input  -60.55 | X-H torsion
[ 11005 11000 10999 10996 ] final -121.90 input  -57.11 | X-H torsion

> <Gold.Protein.ActiveResidues>
 VAL166  LYS551  ARG553  GLY616  TRP617  ASP618  TYR619  PRO620  LYS621  CYS622 
 ASP623  PHE694  ASN695  SER759  ASP760  ASP761  ALA762  ILE779  LEU786  VAL792 
 PHE793  MET794  SER795  GLU796  ALA797  LYS798  CYS799  TRP800  GLU811  SER814 

> <Gold.Protein.RotatedAtoms>
  151.2298  133.4456  159.2603 H   0  0  0  0  0  0  0  0  0  0  0  0  # atno 6907 bound_to 6896
  151.0805  134.9855  159.8364 H   0  0  0  0  0  0  0  0  0  0  0  0  # atno 6908 bound_to 6896
  152.5423  134.2238  159.8851 H   0  0  0  0  0  0  0  0  0  0  0  0  # atno 6909 bound_to 6896
  145.2812  139.2632  143.3914 H   0  0  0  0  0  0  0  0  0  0  0  0  # atno 7974 bound_to 7965
  156.1899  140.1703  156.8112 H   0  0  0  0  0  0  0  0  0  0  0  0  # atno 8008 bound_to 7997
  154.5458  140.0727  156.8619 H   0  0  0  0  0  0  0  0  0  0  0  0  # atno 8009 bound_to 7997
  155.3124  140.3368  155.4246 H   0  0  0  0  0  0  0  0  0  0  0  0  # atno 8010 bound_to 7997
  140.7252  143.3872  151.1495 H   0  0  0  0  0  0  0  0  0  0  0  0  # atno 10167 bound_to 10162
  156.1978  130.4155  149.9282 H   0  0  0  0  0  0  0  0  0  0  0  0  # atno 10718 bound_to 10713
  152.9991  135.6241  154.2348 H   0  0  0  0  0  0  0  0  0  0  0  0  # atno 10763 bound_to 10752
  154.2090  135.2801  155.2967 H   0  0  0  0  0  0  0  0  0  0  0  0  # atno 10764 bound_to 10752
  154.5622  135.5701  153.7077 H   0  0  0  0  0  0  0  0  0  0  0  0  # atno 10765 bound_to 10752
  141.0035  134.0368  157.3507 H   0  0  0  0  0  0  0  0  0  0  0  0  # atno 11005 bound_to 11000
  146.3216  140.3280  142.8638 LP  0  0  0  0  0  0  0  0  0  0  0  0  # atno 17320 bound_to 7965
  144.9252  140.7913  143.5724 LP  0  0  0  0  0  0  0  0  0  0  0  0  # atno 17321 bound_to 7965
  139.7470  143.8836  152.3066 LP  0  0  0  0  0  0  0  0  0  0  0  0  # atno 17342 bound_to 10162
  139.8677  144.7084  150.9025 LP  0  0  0  0  0  0  0  0  0  0  0  0  # atno 17343 bound_to 10162
  156.7001  130.8929  151.3598 LP  0  0  0  0  0  0  0  0  0  0  0  0  # atno 17370 bound_to 10713
  157.6968  130.9290  150.0668 LP  0  0  0  0  0  0  0  0  0  0  0  0  # atno 17371 bound_to 10713
  139.9051  135.0177  156.7449 LP  0  0  0  0  0  0  0  0  0  0  0  0  # atno 17394 bound_to 11000
  140.6850  133.9440  155.7932 LP  0  0  0  0  0  0  0  0  0  0  0  0  # atno 17395 bound_to 11000

$$$$
