AV-unprocessed.smi:1420|AV-procd|sdf|5786|dock6
  -GOLD-   22720 5433D 1   1.00000     0.00000
 Structure written by MMmdl.
 38 39  0  0  0  0  0  0  0  0  1 V2000
  151.7150  145.9021  159.7236 C   0  0  0  0  0  0  0  0  0  0  0  0
  151.9347  144.4967  159.1055 C   0  0  2  0  0  0  0  0  0  0  0  0
  150.5473  143.8503  158.8207 C   0  0  0  0  0  0  0  0  0  0  0  0
  150.5378  143.0270  157.6160 N   0  0  0  0  0  0  0  0  0  0  0  0
  150.3320  141.7015  157.5886 C   0  0  0  0  0  0  0  0  0  0  0  0
  150.0514  141.0351  158.5847 O   0  0  0  0  0  0  0  0  0  0  0  0
  150.4956  141.0191  156.2309 C   0  0  0  0  0  0  0  0  0  0  0  0
  149.1998  140.7762  155.6232 N   0  0  0  0  0  0  0  0  0  0  0  0
  148.9230  140.2394  154.3830 C   0  0  0  0  0  0  0  0  0  0  0  0
  147.5651  140.2246  154.2405 C   0  0  0  0  0  0  0  0  0  0  0  0
  147.0907  140.7807  155.4614 C   0  0  0  0  0  0  0  0  0  0  0  0
  148.0708  141.1090  156.2878 N   0  0  0  0  0  0  0  0  0  0  0  0
  152.8199  143.6385  159.9270 N   0  0  0  0  0  0  0  0  0  0  0  0
  153.0134  142.3056  159.3440 C   0  0  0  0  0  0  0  0  0  0  0  0
  153.9079  141.3994  160.2070 C   0  0  0  0  0  0  0  0  0  0  0  0
  153.3544  141.2830  161.5103 O   0  0  0  0  0  0  0  0  0  0  0  0
  153.2216  142.5465  162.1462 C   0  0  0  0  0  0  0  0  0  0  0  0
  152.3242  143.4640  161.2976 C   0  0  0  0  0  0  0  0  0  0  0  0
  151.0292  146.5137  159.1384 H   0  0  0  0  0  0  0  0  0  0  0  0
  152.6360  146.4814  159.7695 H   0  0  0  0  0  0  0  0  0  0  0  0
  151.3095  145.8298  160.7331 H   0  0  0  0  0  0  0  0  0  0  0  0
  152.4221  144.6497  158.1412 H   0  0  0  0  0  0  0  0  0  0  0  0
  150.2112  143.2169  159.6404 H   0  0  0  0  0  0  0  0  0  0  0  0
  149.7932  144.6293  158.7048 H   0  0  0  0  0  0  0  0  0  0  0  0
  150.7652  143.4886  156.7469 H   0  0  0  0  0  0  0  0  0  0  0  0
  151.0853  141.6498  155.5644 H   0  0  0  0  0  0  0  0  0  0  0  0
  151.0318  140.0747  156.3394 H   0  0  0  0  0  0  0  0  0  0  0  0
  149.7071  139.9202  153.7121 H   0  0  0  0  0  0  0  0  0  0  0  0
  146.9977  139.8723  153.3922 H   0  0  0  0  0  0  0  0  0  0  0  0
  146.0703  140.9550  155.7693 H   0  0  0  0  0  0  0  0  0  0  0  0
  152.0464  141.8230  159.1932 H   0  0  0  0  0  0  0  0  0  0  0  0
  153.4875  142.3794  158.3668 H   0  0  0  0  0  0  0  0  0  0  0  0
  153.9829  140.4071  159.7623 H   0  0  0  0  0  0  0  0  0  0  0  0
  154.9208  141.8006  160.2671 H   0  0  0  0  0  0  0  0  0  0  0  0
  152.7878  142.4024  163.1359 H   0  0  0  0  0  0  0  0  0  0  0  0
  154.2055  142.9953  162.2908 H   0  0  0  0  0  0  0  0  0  0  0  0
  152.2728  144.4191  161.8158 H   0  0  0  0  0  0  0  0  0  0  0  0
  151.3110  143.0595  161.2759 H   0  0  0  0  0  0  0  0  0  0  0  0
  1  2  1  0  0  0  0
  1 19  1  0  0  0  0
  1 20  1  0  0  0  0
  1 21  1  0  0  0  0
  2  3  1  0  0  0  0
  2 13  1  0  0  0  0
  2 22  1  0  0  0  0
  3  4  1  0  0  0  0
  3 23  1  0  0  0  0
  3 24  1  0  0  0  0
  4  5  1  0  0  0  0
  4 25  1  0  0  0  0
  5  6  2  0  0  0  0
  5  7  1  0  0  0  0
  7  8  1  0  0  0  0
  7 26  1  0  0  0  0
  7 27  1  0  0  0  0
  8 12  1  0  0  0  0
  8  9  1  0  0  0  0
  9 10  2  0  0  0  0
  9 28  1  0  0  0  0
 10 11  1  0  0  0  0
 10 29  1  0  0  0  0
 11 12  2  0  0  0  0
 11 30  1  0  0  0  0
 13 18  1  0  0  0  0
 13 14  1  0  0  0  0
 14 15  1  0  0  0  0
 14 31  1  0  0  0  0
 14 32  1  0  0  0  0
 15 16  1  0  0  0  0
 15 33  1  0  0  0  0
 15 34  1  0  0  0  0
 16 17  1  0  0  0  0
 17 18  1  0  0  0  0
 17 35  1  0  0  0  0
 17 36  1  0  0  0  0
 18 37  1  0  0  0  0
 18 38  1  0  0  0  0
M  END
> <s_m_source_file>
AV-unprocessed.smi

> <i_m_source_file_index>
1420

> <i_lp_mmshare_version>
43012

> <i_f3d_flags>
0

> <s_epik_input>
W0NIMl0xW0NIMl1PW0NIMl1bQ0gyXU4xW0NASF0oW0NIM10pW0NIMl1bTkhdQyg9TylbQ0gyXW4yW2NIXVtjSF1bY0hdbjI=

> <s_epik_cmdline>
J2VwaWtfcHl0aG9uJywgJy1waCcsICc3LjAnLCAnLXRuJywgJzgnLCAnLW1hJywgJzIwMCcsICctbWV0YWxfYmluZGluZycsICctaW1hZScsICc8aW5maWxlLm1hZT4nLCAnLW9tYWUnLCAnPG91dGZpbGUubWFlPic=

> <r_lp_tautomer_probability>
1

> <r_epik_Ionization_Penalty>
0.196927

> <r_epik_Ionization_Penalty_Charging>
0

> <r_epik_Ionization_Penalty_Neutral>
0.196927

> <r_epik_State_Penalty>
0.186684

> <r_epik_Charging_Adjusted_Penalty>
0.186684

> <i_epik_Tot_Q>
0

> <i_epik_Tot_abs_Q>
0

> <r_epik_Metal_State_Penalty>
0.186682

> <b_epik_Metal_Only>
0

> <s_lp_Force_Field>
OPLS_2005

> <r_lp_Energy>
27.7246

> <b_lp_Chiralities_Consistent>
1

> <s_lp_Variant>
AV-unprocessed.smi:1420-1

> <Gold.Version>
5.8.1

> <Gold.Id.Protein>
6NUR|6NUR_protein|mol2

> <Gold.PLP.Fitness>
44.3992

> <Gold.PLP.PLP>
-42.6598

> <Gold.PLP.part.hbond>
-1.0000

> <Gold.PLP.part.metal>
0.0000

> <Gold.PLP.part.buried>
-5.1477

> <Gold.PLP.part.nonpolar>
-37.0272

> <Gold.PLP.part.repulsive>
0.1660

> <Gold.PLP.ligand.clash>
0.0000

> <Gold.PLP.ligand.torsion>
0.7320

> <Gold.PLP.Chemscore.Hbond>
0.0468

> <Gold.PLP.Chemscore.CHOScore>
1.0000

> <Gold.PLP.Chemscore.Metal>
0.0000

> <Gold.Chemscore.Hbonds>
donor molecule, donor type, donor heavy atom, donor atom, acceptor molecule, acceptor atom, score
      L1  C     9    28       P1  7957  0.86

> <Gold.PLP.Chemscore.Internal.Correction>
0.0631

> <Gold.Rescore>
     Score         DG    S(hbond)    S(metal)    S(lipo)     H(rot)  DE(clash)    DE(int)     intcor
     13.02     -15.01       0.77        0.00     100.41       1.87       0.02       1.96       ----

> <Gold.Chemscore.Fitness>
13.0247

> <Gold.Chemscore.DG>
-15.0063

> <Gold.Chemscore.ZeroCoef>
-5.4800

> <Gold.Chemscore.Hbond>
0.7658

> <Gold.Chemscore.Metal>
0.0000

> <Gold.Chemscore.Lipo>
100.4084

> <Gold.Chemscore.Internal_Hbond>
0.0000

> <Gold.Chemscore.DEClash>
0.0200

> <Gold.Chemscore.DEInternal>
1.9616

> <Gold.Chemscore.Rot>
1.8669

> <Gold.Chemscore.Internal.Correction>
   9.000000E+99

> <Gold.Chemscore.Hbonds>
donor molecule, donor type, donor heavy atom, donor atom, acceptor molecule, acceptor atom, score
      L1  H     4    25       P1  8028  0.01

> <Gold.Chemscore.Hbond.Weighted>
-2.5577

> <Gold.Chemscore.Metal.Weighted>
-0.0000

> <Gold.Chemscore.Lipo.Weighted>
-11.7478

> <Gold.Chemscore.Internal_Hbond.Weighted>
0.0000

> <Gold.Chemscore.DEClash.Weighted>
0.0200

> <Gold.Chemscore.DEInternal.Weighted>
1.9616

> <Gold.Chemscore.Rot.Weighted>
4.7792

> <Gold.Chemscore.Internal.Correction.Weighted>
   9.000000E+99

> <Gold.Protein.RotatedTorsions>
[ 6907 6896 6895 6894 ] final  -38.63 input  -60.11 | X-H torsion
[ 7974 7965 7964 7962 ] final  -48.03 input  175.53 | X-H torsion
[ 8008 7997 7996 7995 ] final   45.84 input   59.86 | X-H torsion
[ 10167 10162 10161 10158 ] final   -7.79 input  -65.29 | X-H torsion
[ 10718 10713 10712 10709 ] final   95.81 input   66.30 | X-H torsion
[ 10763 10752 10751 10750 ] final    3.15 input  -60.55 | X-H torsion
[ 11005 11000 10999 10996 ] final   26.44 input  -57.11 | X-H torsion

> <Gold.Protein.ActiveResidues>
 VAL166  LYS551  ARG553  GLY616  TRP617  ASP618  TYR619  PRO620  LYS621  CYS622 
 ASP623  PHE694  ASN695  SER759  ASP760  ASP761  ALA762  ILE779  LEU786  VAL792 
 PHE793  MET794  SER795  GLU796  ALA797  LYS798  CYS799  TRP800  GLU811  SER814 

> <Gold.Protein.RotatedAtoms>
  151.0001  134.9315  159.7948 H   0  0  0  0  0  0  0  0  0  0  0  0  # atno 6907 bound_to 6896
  152.5275  134.3165  159.9143 H   0  0  0  0  0  0  0  0  0  0  0  0  # atno 6908 bound_to 6896
  151.3171  133.4014  159.2686 H   0  0  0  0  0  0  0  0  0  0  0  0  # atno 6909 bound_to 6896
  145.9555  140.7531  142.9483 H   0  0  0  0  0  0  0  0  0  0  0  0  # atno 7974 bound_to 7965
  155.3425  140.3409  155.4239 H   0  0  0  0  0  0  0  0  0  0  0  0  # atno 8008 bound_to 7997
  156.1805  140.1662  156.8318 H   0  0  0  0  0  0  0  0  0  0  0  0  # atno 8009 bound_to 7997
  154.5329  140.0741  156.8359 H   0  0  0  0  0  0  0  0  0  0  0  0  # atno 8010 bound_to 7997
  140.7039  143.6042  150.8768 H   0  0  0  0  0  0  0  0  0  0  0  0  # atno 10167 bound_to 10162
  157.6934  131.0558  150.4395 H   0  0  0  0  0  0  0  0  0  0  0  0  # atno 10718 bound_to 10713
  153.2868  135.6945  153.7331 H   0  0  0  0  0  0  0  0  0  0  0  0  # atno 10763 bound_to 10752
  153.6297  135.3412  155.3038 H   0  0  0  0  0  0  0  0  0  0  0  0  # atno 10764 bound_to 10752
  154.8512  135.4406  154.1939 H   0  0  0  0  0  0  0  0  0  0  0  0  # atno 10765 bound_to 10752
  140.3370  134.2375  155.7695 H   0  0  0  0  0  0  0  0  0  0  0  0  # atno 11005 bound_to 11000
  144.6804  140.2504  143.7332 LP  0  0  0  0  0  0  0  0  0  0  0  0  # atno 17320 bound_to 7965
  145.8113  139.2004  143.1991 LP  0  0  0  0  0  0  0  0  0  0  0  0  # atno 17321 bound_to 7965
  139.9765  143.5998  152.2957 LP  0  0  0  0  0  0  0  0  0  0  0  0  # atno 17342 bound_to 10162
  139.6604  144.7662  151.1974 LP  0  0  0  0  0  0  0  0  0  0  0  0  # atno 17343 bound_to 10162
  156.4755  130.4062  149.6492 LP  0  0  0  0  0  0  0  0  0  0  0  0  # atno 17370 bound_to 10713
  156.3557  130.7455  151.2421 LP  0  0  0  0  0  0  0  0  0  0  0  0  # atno 17371 bound_to 10713
  141.2048  133.7875  157.0265 LP  0  0  0  0  0  0  0  0  0  0  0  0  # atno 17394 bound_to 11000
  140.0813  134.9647  157.1628 LP  0  0  0  0  0  0  0  0  0  0  0  0  # atno 17395 bound_to 11000

$$$$
