AV-unprocessed.smi:1864|AV-procd|sdf|7553|dock10
  -GOLD-   22720 9273D 1   1.00000     0.00000
 Structure written by MMmdl.
 33 34  0  0  0  0  0  0  0  0  2 V2000
  152.3520  142.6847  160.7674 C   0  0  0  0  0  0  0  0  0  0  0  0
  152.3931  141.5118  159.8483 C   0  0  0  0  0  0  0  0  0  0  0  0
  153.5439  141.0104  159.4177 N   0  0  0  0  0  0  0  0  0  0  0  0
  153.1452  139.9499  158.5912 O   0  0  0  0  0  0  0  0  0  0  0  0
  151.7885  139.9366  158.6291 C   0  0  0  0  0  0  0  0  0  0  0  0
  151.0464  138.9170  157.8186 C   0  0  0  0  0  0  0  0  0  0  0  0
  149.6088  138.6554  158.3077 C   0  0  0  0  0  0  0  0  0  0  0  0
  149.6215  137.6580  159.3785 N   0  5  0  0  0  0  0  0  0  0  0  0
  149.1999  136.3637  159.2468 C   0  0  0  0  0  0  0  0  0  0  0  0
  149.5794  135.5571  158.3887 O   0  0  0  0  0  0  0  0  0  0  0  0
  148.1802  135.8385  160.2045 C   0  0  0  0  0  0  0  0  0  0  0  0
  147.5300  136.6626  160.9659 N   0  0  0  0  0  0  0  0  0  0  0  0
  146.5577  136.2439  161.8506 N   0  0  0  0  0  0  0  0  0  0  0  0
  145.7598  137.3390  162.4008 C   0  0  0  0  0  0  0  0  0  0  0  0
  146.3555  134.9516  162.2140 C   0  0  0  0  0  0  0  0  0  0  0  0
  145.4738  134.5808  162.9889 O   0  0  0  0  0  0  0  0  0  0  0  0
  147.3231  133.9199  161.6280 C   0  0  0  0  0  0  0  0  0  0  0  0
  147.8788  134.3515  160.2574 C   0  0  0  0  0  0  0  0  0  0  0  0
  151.2677  140.8931  159.3989 N   0  0  0  0  0  0  0  0  0  0  0  0
  153.3579  143.0422  160.9906 H   0  0  0  0  0  0  0  0  0  0  0  0
  151.8672  142.4110  161.7047 H   0  0  0  0  0  0  0  0  0  0  0  0
  151.7903  143.5000  160.3109 H   0  0  0  0  0  0  0  0  0  0  0  0
  151.0319  139.2517  156.7805 H   0  0  0  0  0  0  0  0  0  0  0  0
  151.6178  137.9880  157.8345 H   0  0  0  0  0  0  0  0  0  0  0  0
  149.1725  139.5987  158.6397 H   0  0  0  0  0  0  0  0  0  0  0  0
  149.0005  138.3243  157.4652 H   0  0  0  0  0  0  0  0  0  0  0  0
  145.0038  137.0187  163.1187 H   0  0  0  0  0  0  0  0  0  0  0  0
  145.2446  137.8656  161.5966 H   0  0  0  0  0  0  0  0  0  0  0  0
  146.4077  138.0551  162.9075 H   0  0  0  0  0  0  0  0  0  0  0  0
  148.1442  133.8023  162.3362 H   0  0  0  0  0  0  0  0  0  0  0  0
  146.8339  132.9485  161.5483 H   0  0  0  0  0  0  0  0  0  0  0  0
  147.1667  134.1020  159.4701 H   0  0  0  0  0  0  0  0  0  0  0  0
  148.7762  133.7647  160.0586 H   0  0  0  0  0  0  0  0  0  0  0  0
  1  2  1  0  0  0  0
  1 20  1  0  0  0  0
  1 21  1  0  0  0  0
  1 22  1  0  0  0  0
  2 19  1  0  0  0  0
  2  3  2  0  0  0  0
  3  4  1  0  0  0  0
  4  5  1  0  0  0  0
  5  6  1  0  0  0  0
  5 19  2  0  0  0  0
  6  7  1  0  0  0  0
  6 23  1  0  0  0  0
  6 24  1  0  0  0  0
  7  8  1  0  0  0  0
  7 25  1  0  0  0  0
  7 26  1  0  0  0  0
  8  9  1  0  0  0  0
  9 10  2  0  0  0  0
  9 11  1  0  0  0  0
 11 18  1  0  0  0  0
 11 12  2  0  0  0  0
 12 13  1  0  0  0  0
 13 14  1  0  0  0  0
 13 15  1  0  0  0  0
 14 27  1  0  0  0  0
 14 28  1  0  0  0  0
 14 29  1  0  0  0  0
 15 16  2  0  0  0  0
 15 17  1  0  0  0  0
 17 18  1  0  0  0  0
 17 30  1  0  0  0  0
 17 31  1  0  0  0  0
 18 32  1  0  0  0  0
 18 33  1  0  0  0  0
M  CHG  1   8  -1
M  END
> <s_m_source_file>
AV-unprocessed.smi

> <i_m_source_file_index>
1864

> <i_lp_mmshare_version>
43012

> <i_f3d_flags>
0

> <s_epik_input>
W0NIM11jMW5vYyhuMSlbQ0gyXVtDSDJdW05IXUMoPU8pQzI9Tk4oW0NIM10pQyg9TylbQ0gyXVtDSDJdMg==

> <s_epik_cmdline>
J2VwaWtfcHl0aG9uJywgJy1waCcsICc3LjAnLCAnLXRuJywgJzgnLCAnLW1hJywgJzIwMCcsICctbWV0YWxfYmluZGluZycsICctaW1hZScsICc8aW5maWxlLm1hZT4nLCAnLW9tYWUnLCAnPG91dGZpbGUubWFlPic=

> <r_lp_tautomer_probability>
1

> <r_epik_Ionization_Penalty>
5.04632

> <r_epik_Ionization_Penalty_Charging>
5.04632

> <r_epik_Ionization_Penalty_Neutral>
3.43742e-09

> <r_epik_State_Penalty>
5.0462

> <r_epik_Charging_Adjusted_Penalty>
10.0925

> <i_epik_Tot_Q>
-1

> <i_epik_Tot_abs_Q>
1

> <r_epik_Metal_State_Penalty>
1.15274

> <b_epik_Metal_Only>
1

> <s_epik_Chemistry_Notes>
This compound has an imine and may undergo hydrolysis.

> <s_lp_Force_Field>
OPLS_2005

> <r_lp_Energy>
22.1734

> <b_lp_Chiralities_Consistent>
1

> <s_lp_Variant>
AV-unprocessed.smi:1864-2

> <Gold.Version>
5.8.1

> <Gold.Id.Protein>
6NUR|6NUR_protein|mol2

> <Gold.PLP.Fitness>
42.8068

> <Gold.PLP.PLP>
-34.0277

> <Gold.PLP.part.hbond>
-5.4944

> <Gold.PLP.part.metal>
0.0000

> <Gold.PLP.part.buried>
-3.0775

> <Gold.PLP.part.nonpolar>
-25.5681

> <Gold.PLP.part.repulsive>
0.0058

> <Gold.PLP.ligand.clash>
0.0000

> <Gold.PLP.ligand.torsion>
1.0747

> <Gold.PLP.Chemscore.Hbond>
3.6396

> <Gold.PLP.Chemscore.CHOScore>
0.0000

> <Gold.PLP.Chemscore.Metal>
0.0000

> <Gold.Chemscore.Hbonds>
donor molecule, donor type, donor heavy atom, donor atom, acceptor molecule, acceptor atom, score
      P1  H  6896  6909       L1    10  0.95
      P1  H  6931  6943       L1    12  0.13
      P1  H  6934  6947       L1    12  0.11
      P1  H  7997  8008       L1     4  0.71

> <Gold.PLP.Chemscore.Internal.Correction>
0.0096

> <Gold.Rescore>
     Score         DG    S(hbond)    S(metal)    S(lipo)     H(rot)  DE(clash)    DE(int)     intcor
     13.55     -14.38       2.44        0.00      45.26       1.77       0.05       0.78       ----

> <Gold.Chemscore.Fitness>
13.5505

> <Gold.Chemscore.DG>
-14.3840

> <Gold.Chemscore.ZeroCoef>
-5.4800

> <Gold.Chemscore.Hbond>
2.4394

> <Gold.Chemscore.Metal>
0.0000

> <Gold.Chemscore.Lipo>
45.2612

> <Gold.Chemscore.Internal_Hbond>
0.0000

> <Gold.Chemscore.DEClash>
0.0547

> <Gold.Chemscore.DEInternal>
0.7788

> <Gold.Chemscore.Rot>
1.7731

> <Gold.Chemscore.Internal.Correction>
   9.000000E+99

> <Gold.Chemscore.Hbonds>
donor molecule, donor type, donor heavy atom, donor atom, acceptor molecule, acceptor atom, score
      P1  H  6896  6909       L1    10  0.21
      P1  H  6931  6943       L1    12  0.10
      P1  H  6934  6947       L1    12  0.05
      P1  H  7997  8008       L1     4  0.16

> <Gold.Chemscore.Hbond.Weighted>
-8.1477

> <Gold.Chemscore.Metal.Weighted>
-0.0000

> <Gold.Chemscore.Lipo.Weighted>
-5.2956

> <Gold.Chemscore.Internal_Hbond.Weighted>
0.0000

> <Gold.Chemscore.DEClash.Weighted>
0.0547

> <Gold.Chemscore.DEInternal.Weighted>
0.7788

> <Gold.Chemscore.Rot.Weighted>
4.5393

> <Gold.Chemscore.Internal.Correction.Weighted>
   9.000000E+99

> <Gold.Protein.RotatedTorsions>
[ 6907 6896 6895 6894 ] final   41.41 input  -60.11 | X-H torsion
[ 7974 7965 7964 7962 ] final   55.70 input  175.53 | X-H torsion
[ 8008 7997 7996 7995 ] final  -94.60 input   59.86 | X-H torsion
[ 10167 10162 10161 10158 ] final   54.92 input  -65.29 | X-H torsion
[ 10718 10713 10712 10709 ] final  -97.31 input   66.30 | X-H torsion
[ 10763 10752 10751 10750 ] final -153.24 input  -60.55 | X-H torsion
[ 11005 11000 10999 10996 ] final -141.49 input  -57.11 | X-H torsion

> <Gold.Protein.ActiveResidues>
 VAL166  LYS551  ARG553  GLY616  TRP617  ASP618  TYR619  PRO620  LYS621  CYS622 
 ASP623  PHE694  ASN695  SER759  ASP760  ASP761  ALA762  ILE779  LEU786  VAL792 
 PHE793  MET794  SER795  GLU796  ALA797  LYS798  CYS799  TRP800  GLU811  SER814 

> <Gold.Protein.RotatedAtoms>
  152.1948  134.8640  160.0513 H   0  0  0  0  0  0  0  0  0  0  0  0  # atno 6907 bound_to 6896
  151.9515  133.3662  159.4010 H   0  0  0  0  0  0  0  0  0  0  0  0  # atno 6908 bound_to 6896
  150.6942  134.4259  159.5270 H   0  0  0  0  0  0  0  0  0  0  0  0  # atno 6909 bound_to 6896
  145.9476  139.3944  143.0325 H   0  0  0  0  0  0  0  0  0  0  0  0  # atno 7974 bound_to 7965
  154.7506  140.0488  157.0890 H   0  0  0  0  0  0  0  0  0  0  0  0  # atno 8008 bound_to 7997
  155.0062  140.3130  155.4828 H   0  0  0  0  0  0  0  0  0  0  0  0  # atno 8009 bound_to 7997
  156.2884  140.2192  156.5175 H   0  0  0  0  0  0  0  0  0  0  0  0  # atno 8010 bound_to 7997
  140.2250  144.3748  150.6436 H   0  0  0  0  0  0  0  0  0  0  0  0  # atno 10167 bound_to 10162
  156.0081  130.5189  150.6355 H   0  0  0  0  0  0  0  0  0  0  0  0  # atno 10718 bound_to 10713
  154.7941  135.3217  154.7709 H   0  0  0  0  0  0  0  0  0  0  0  0  # atno 10763 bound_to 10752
  153.8391  135.6872  153.4809 H   0  0  0  0  0  0  0  0  0  0  0  0  # atno 10764 bound_to 10752
  153.1624  135.4655  154.9732 H   0  0  0  0  0  0  0  0  0  0  0  0  # atno 10765 bound_to 10752
  140.8319  134.2507  157.4853 H   0  0  0  0  0  0  0  0  0  0  0  0  # atno 11005 bound_to 11000
  145.8214  140.9677  143.0897 LP  0  0  0  0  0  0  0  0  0  0  0  0  # atno 17320 bound_to 7965
  144.6790  140.0046  143.7484 LP  0  0  0  0  0  0  0  0  0  0  0  0  # atno 17321 bound_to 7965
  140.6227  143.2178  151.6660 LP  0  0  0  0  0  0  0  0  0  0  0  0  # atno 17342 bound_to 10162
  139.5130  144.3456  152.0699 LP  0  0  0  0  0  0  0  0  0  0  0  0  # atno 17343 bound_to 10162
  157.4145  131.0828  151.1190 LP  0  0  0  0  0  0  0  0  0  0  0  0  # atno 17370 bound_to 10713
  157.1811  130.6310  149.5672 LP  0  0  0  0  0  0  0  0  0  0  0  0  # atno 17371 bound_to 10713
  139.8705  134.9590  156.4319 LP  0  0  0  0  0  0  0  0  0  0  0  0  # atno 17394 bound_to 11000
  140.8989  133.7794  155.9657 LP  0  0  0  0  0  0  0  0  0  0  0  0  # atno 17395 bound_to 11000

$$$$
