AV-unprocessed.smi:1284|AV-procd|sdf|5364|dock1
  -GOLD-   22720 4503D 1   1.00000     0.00000
 Structure written by MMmdl.
 39 41  0  0  0  0  0  0  0  0  1 V2000
  152.3643  137.5556  157.7157 N   0  0  0  0  0  0  0  0  0  0  0  0
  152.1610  137.6426  156.3984 C   0  0  0  0  0  0  0  0  0  0  0  0
  151.8404  136.6685  155.7210 O   0  0  0  0  0  0  0  0  0  0  0  0
  152.3387  139.0209  155.7511 C   0  0  0  0  0  0  0  0  0  0  0  0
  151.0127  139.4789  155.2017 C   0  0  0  0  0  0  0  0  0  0  0  0
  150.2899  138.7069  154.3855 N   0  0  0  0  0  0  0  0  0  0  0  0
  149.1763  139.4816  154.1321 C   0  0  0  0  0  0  0  0  0  0  0  0
  148.0318  139.2139  153.3475 C   0  0  0  0  0  0  0  0  0  0  0  0
  147.0026  140.1716  153.2364 C   0  0  0  0  0  0  0  0  0  0  0  0
  147.1044  141.4083  153.9052 C   0  0  0  0  0  0  0  0  0  0  0  0
  148.2384  141.6959  154.6886 C   0  0  0  0  0  0  0  0  0  0  0  0
  149.2625  140.7354  154.7988 C   0  0  0  0  0  0  0  0  0  0  0  0
  150.4783  140.6988  155.4771 N   0  0  0  0  0  0  0  0  0  0  0  0
  151.0225  141.7710  156.3023 C   0  0  0  0  0  0  0  0  0  0  0  0
  150.7114  141.5863  157.8010 C   0  0  1  0  0  0  0  0  0  0  0  0
  151.2765  140.3614  158.2207 O   0  0  0  0  0  0  0  0  0  0  0  0
  151.1923  142.7627  158.6398 C   0  0  0  0  0  0  0  0  0  0  0  0
  150.7959  144.0749  158.3024 C   0  0  0  0  0  0  0  0  0  0  0  0
  151.2605  145.1724  159.0523 C   0  0  0  0  0  0  0  0  0  0  0  0
  152.1235  144.9644  160.1450 C   0  0  0  0  0  0  0  0  0  0  0  0
  152.5223  143.6581  160.4872 C   0  0  0  0  0  0  0  0  0  0  0  0
  152.0588  142.5602  159.7368 C   0  0  0  0  0  0  0  0  0  0  0  0
  152.2682  136.6638  158.1794 H   0  0  0  0  0  0  0  0  0  0  0  0
  152.6235  138.3771  158.2423 H   0  0  0  0  0  0  0  0  0  0  0  0
  152.7346  139.7144  156.4906 H   0  0  0  0  0  0  0  0  0  0  0  0
  153.0650  138.9741  154.9385 H   0  0  0  0  0  0  0  0  0  0  0  0
  147.9448  138.2693  152.8317 H   0  0  0  0  0  0  0  0  0  0  0  0
  146.1311  139.9561  152.6359 H   0  0  0  0  0  0  0  0  0  0  0  0
  146.3116  142.1365  153.8165 H   0  0  0  0  0  0  0  0  0  0  0  0
  148.3156  142.6418  155.2036 H   0  0  0  0  0  0  0  0  0  0  0  0
  152.0974  141.8321  156.1330 H   0  0  0  0  0  0  0  0  0  0  0  0
  150.6192  142.7215  155.9507 H   0  0  0  0  0  0  0  0  0  0  0  0
  149.6357  141.4827  157.9346 H   0  0  0  0  0  0  0  0  0  0  0  0
  152.1557  140.5280  158.5248 H   0  0  0  0  0  0  0  0  0  0  0  0
  150.1427  144.2459  157.4593 H   0  0  0  0  0  0  0  0  0  0  0  0
  150.9573  146.1743  158.7863 H   0  0  0  0  0  0  0  0  0  0  0  0
  152.4809  145.8066  160.7190 H   0  0  0  0  0  0  0  0  0  0  0  0
  153.1871  143.4980  161.3231 H   0  0  0  0  0  0  0  0  0  0  0  0
  152.3792  141.5629  160.0002 H   0  0  0  0  0  0  0  0  0  0  0  0
  1  2  1  0  0  0  0
  1 23  1  0  0  0  0
  1 24  1  0  0  0  0
  2  3  2  0  0  0  0
  2  4  1  0  0  0  0
  4  5  1  0  0  0  0
  4 25  1  0  0  0  0
  4 26  1  0  0  0  0
  5 13  1  0  0  0  0
  5  6  2  0  0  0  0
  6  7  1  0  0  0  0
  7 12  2  0  0  0  0
  7  8  1  0  0  0  0
  8  9  2  0  0  0  0
  8 27  1  0  0  0  0
  9 10  1  0  0  0  0
  9 28  1  0  0  0  0
 10 11  2  0  0  0  0
 10 29  1  0  0  0  0
 11 12  1  0  0  0  0
 11 30  1  0  0  0  0
 12 13  1  0  0  0  0
 13 14  1  0  0  0  0
 14 15  1  0  0  0  0
 14 31  1  0  0  0  0
 14 32  1  0  0  0  0
 15 16  1  0  0  0  0
 15 17  1  0  0  0  0
 15 33  1  0  0  0  0
 16 34  1  0  0  0  0
 17 22  1  0  0  0  0
 17 18  2  0  0  0  0
 18 19  1  0  0  0  0
 18 35  1  0  0  0  0
 19 20  2  0  0  0  0
 19 36  1  0  0  0  0
 20 21  1  0  0  0  0
 20 37  1  0  0  0  0
 21 22  2  0  0  0  0
 21 38  1  0  0  0  0
 22 39  1  0  0  0  0
M  END
> <s_m_source_file>
AV-unprocessed.smi

> <i_m_source_file_index>
1284

> <i_lp_mmshare_version>
43012

> <i_f3d_flags>
0

> <s_epik_input>
W2NIXTFbY0hdW2NIXVtjSF1jKGMxMiluKGMobjIpW0NIMl1DKD1PKVtOSDJdKVtDSDJdW0NASF0oW09IXSljM1tjSF1bY0hdW2NIXVtjSF1bY0hdMw==

> <s_epik_cmdline>
J2VwaWtfcHl0aG9uJywgJy1waCcsICc3LjAnLCAnLXRuJywgJzgnLCAnLW1hJywgJzIwMCcsICctbWV0YWxfYmluZGluZycsICctaW1hZScsICc8aW5maWxlLm1hZT4nLCAnLW9tYWUnLCAnPG91dGZpbGUubWFlPic=

> <r_epik_Ionization_Penalty>
0.0366899

> <r_epik_Ionization_Penalty_Charging>
0

> <r_epik_Ionization_Penalty_Neutral>
0.0366899

> <r_epik_State_Penalty>
0.0306642

> <r_epik_Charging_Adjusted_Penalty>
0.0306642

> <i_epik_Tot_Q>
0

> <i_epik_Tot_abs_Q>
0

> <r_epik_Metal_State_Penalty>
0.028853

> <b_epik_Metal_Only>
0

> <s_lp_Force_Field>
OPLS_2005

> <r_lp_Energy>
12.7879

> <b_lp_Chiralities_Consistent>
1

> <s_lp_Variant>
AV-unprocessed.smi:1284-2

> <Gold.Version>
5.8.1

> <Gold.Id.Protein>
6NUR|6NUR_protein|mol2

> <Gold.PLP.Fitness>
48.1201

> <Gold.PLP.PLP>
-46.0245

> <Gold.PLP.part.hbond>
-1.0000

> <Gold.PLP.part.metal>
0.0000

> <Gold.PLP.part.buried>
-1.9673

> <Gold.PLP.part.nonpolar>
-43.9696

> <Gold.PLP.part.repulsive>
0.3441

> <Gold.PLP.ligand.clash>
0.0000

> <Gold.PLP.ligand.torsion>
0.4791

> <Gold.PLP.Chemscore.Hbond>
1.0000

> <Gold.PLP.Chemscore.CHOScore>
0.0000

> <Gold.PLP.Chemscore.Metal>
0.0000

> <Gold.Chemscore.Hbonds>
donor molecule, donor type, donor heavy atom, donor atom, acceptor molecule, acceptor atom, score
      P1  H 10752 10763       L1     3  1.00

> <Gold.PLP.Chemscore.Internal.Correction>
0.0538

> <Gold.Rescore>
     Score         DG    S(hbond)    S(metal)    S(lipo)     H(rot)  DE(clash)    DE(int)     intcor
     14.34     -16.43       0.99        0.00     127.78       2.86       0.32       1.77       ----

> <Gold.Chemscore.Fitness>
14.3384

> <Gold.Chemscore.DG>
-16.4265

> <Gold.Chemscore.ZeroCoef>
-5.4800

> <Gold.Chemscore.Hbond>
0.9938

> <Gold.Chemscore.Metal>
0.0000

> <Gold.Chemscore.Lipo>
127.7812

> <Gold.Chemscore.Internal_Hbond>
0.0000

> <Gold.Chemscore.DEClash>
0.3174

> <Gold.Chemscore.DEInternal>
1.7707

> <Gold.Chemscore.Rot>
2.8606

> <Gold.Chemscore.Internal.Correction>
   9.000000E+99

> <Gold.Chemscore.Hbonds>
donor molecule, donor type, donor heavy atom, donor atom, acceptor molecule, acceptor atom, score
      P1  H 10752 10763       L1     3  0.99

> <Gold.Chemscore.Hbond.Weighted>
-3.3192

> <Gold.Chemscore.Metal.Weighted>
-0.0000

> <Gold.Chemscore.Lipo.Weighted>
-14.9504

> <Gold.Chemscore.Internal_Hbond.Weighted>
0.0000

> <Gold.Chemscore.DEClash.Weighted>
0.3174

> <Gold.Chemscore.DEInternal.Weighted>
1.7707

> <Gold.Chemscore.Rot.Weighted>
7.3231

> <Gold.Chemscore.Internal.Correction.Weighted>
   9.000000E+99

> <Gold.Protein.RotatedTorsions>
[ 6907 6896 6895 6894 ] final  -14.12 input  -60.11 | X-H torsion
[ 7974 7965 7964 7962 ] final   22.31 input  175.53 | X-H torsion
[ 8008 7997 7996 7995 ] final -135.68 input   59.86 | X-H torsion
[ 10167 10162 10161 10158 ] final  156.97 input  -65.29 | X-H torsion
[ 10718 10713 10712 10709 ] final  -95.16 input   66.30 | X-H torsion
[ 10763 10752 10751 10750 ] final   81.06 input  -60.55 | X-H torsion
[ 11005 11000 10999 10996 ] final  141.29 input  -57.11 | X-H torsion

> <Gold.Protein.ActiveResidues>
 VAL166  LYS551  ARG553  GLY616  TRP617  ASP618  TYR619  PRO620  LYS621  CYS622 
 ASP623  PHE694  ASN695  SER759  ASP760  ASP761  ALA762  ILE779  LEU786  VAL792 
 PHE793  MET794  SER795  GLU796  ALA797  LYS798  CYS799  TRP800  GLU811  SER814 

> <Gold.Protein.RotatedAtoms>
  151.3443  135.0870  159.9381 H   0  0  0  0  0  0  0  0  0  0  0  0  # atno 6907 bound_to 6896
  152.5203  133.9416  159.7639 H   0  0  0  0  0  0  0  0  0  0  0  0  # atno 6908 bound_to 6896
  150.9779  133.6222  159.2757 H   0  0  0  0  0  0  0  0  0  0  0  0  # atno 6909 bound_to 6896
  146.2034  139.7903  142.8744 H   0  0  0  0  0  0  0  0  0  0  0  0  # atno 7974 bound_to 7965
  155.3826  140.0495  157.3043 H   0  0  0  0  0  0  0  0  0  0  0  0  # atno 8008 bound_to 7997
  154.5075  140.2179  155.9184 H   0  0  0  0  0  0  0  0  0  0  0  0  # atno 8009 bound_to 7997
  156.1543  140.3129  155.8705 H   0  0  0  0  0  0  0  0  0  0  0  0  # atno 8010 bound_to 7997
  139.4822  144.4960  151.8238 H   0  0  0  0  0  0  0  0  0  0  0  0  # atno 10167 bound_to 10162
  156.0038  130.5097  150.6034 H   0  0  0  0  0  0  0  0  0  0  0  0  # atno 10718 bound_to 10713
  153.1085  135.4779  154.8993 H   0  0  0  0  0  0  0  0  0  0  0  0  # atno 10763 bound_to 10752
  154.7455  135.3093  154.8654 H   0  0  0  0  0  0  0  0  0  0  0  0  # atno 10764 bound_to 10752
  153.9250  135.6851  153.4800 H   0  0  0  0  0  0  0  0  0  0  0  0  # atno 10765 bound_to 10752
  140.0390  134.9314  157.0807 H   0  0  0  0  0  0  0  0  0  0  0  0  # atno 11005 bound_to 11000
  145.3404  141.0286  143.3395 LP  0  0  0  0  0  0  0  0  0  0  0  0  # atno 17320 bound_to 7965
  144.8736  139.5003  143.6756 LP  0  0  0  0  0  0  0  0  0  0  0  0  # atno 17321 bound_to 7965
  140.4449  144.1935  150.5893 LP  0  0  0  0  0  0  0  0  0  0  0  0  # atno 17342 bound_to 10162
  140.4645  143.2436  151.9174 LP  0  0  0  0  0  0  0  0  0  0  0  0  # atno 17343 bound_to 10162
  157.3879  131.0791  151.1419 LP  0  0  0  0  0  0  0  0  0  0  0  0  # atno 17370 bound_to 10713
  157.2121  130.6442  149.5778 LP  0  0  0  0  0  0  0  0  0  0  0  0  # atno 17371 bound_to 10713
  140.4100  134.1991  155.7163 LP  0  0  0  0  0  0  0  0  0  0  0  0  # atno 17394 bound_to 11000
  141.1873  133.8284  157.1037 LP  0  0  0  0  0  0  0  0  0  0  0  0  # atno 17395 bound_to 11000

$$$$
