AV-unprocessed.smi:707|AV-procd|sdf|3456|dock4
  -GOLD-   22720 0443D 1   1.00000     0.00000
 Structure written by MMmdl.
 44 45  0  0  0  0  0  0  0  0  1 V2000
  151.0949  136.3848  155.8140 C   0  0  0  0  0  0  0  0  0  0  0  0
  152.2318  137.3368  155.6281 C   0  0  0  0  0  0  0  0  0  0  0  0
  153.4199  137.2046  156.2300 N   0  0  0  0  0  0  0  0  0  0  0  0
  154.1758  138.2767  155.7979 N   0  0  0  0  0  0  0  0  0  0  0  0
  153.3680  138.9483  154.9781 C   0  0  0  0  0  0  0  0  0  0  0  0
  152.1445  138.4183  154.8274 N   0  0  0  0  0  0  0  0  0  0  0  0
  151.0432  138.9044  154.0179 C   0  0  0  0  0  0  0  0  0  0  0  0
  149.8850  139.4150  154.8914 C   0  0  0  0  0  0  0  0  0  0  0  0
  150.2337  140.6536  155.5766 N   0  0  0  0  0  0  0  0  0  0  0  0
  150.8147  140.7293  156.7837 C   0  0  0  0  0  0  0  0  0  0  0  0
  151.1247  139.7430  157.4516 O   0  0  0  0  0  0  0  0  0  0  0  0
  151.0962  142.1325  157.3137 C   0  0  0  0  0  0  0  0  0  0  0  0
  151.5856  142.0205  158.6424 O   0  0  0  0  0  0  0  0  0  0  0  0
  152.6498  142.9090  158.9671 C   0  0  1  0  0  0  0  0  0  0  0  0
  152.1253  144.3451  158.7913 C   0  0  0  0  0  0  0  0  0  0  0  0
  151.0551  144.6940  159.8395 C   0  0  0  0  0  0  0  0  0  0  0  0
  151.5742  144.4665  161.2684 C   0  0  0  0  0  0  0  0  0  0  0  0
  152.0876  143.0268  161.4620 C   0  0  2  0  0  0  0  0  0  0  0  0
  152.6122  142.8042  162.8876 C   0  0  0  0  0  0  0  0  0  0  0  0
  153.1629  142.6948  160.4083 C   0  0  0  0  0  0  0  0  0  0  0  0
  151.3574  135.6134  156.5385 H   0  0  0  0  0  0  0  0  0  0  0  0
  150.8516  135.9012  154.8679 H   0  0  0  0  0  0  0  0  0  0  0  0
  150.2143  136.9149  156.1770 H   0  0  0  0  0  0  0  0  0  0  0  0
  153.6765  139.8530  154.4746 H   0  0  0  0  0  0  0  0  0  0  0  0
  151.4200  139.7002  153.3742 H   0  0  0  0  0  0  0  0  0  0  0  0
  150.7052  138.1034  153.3600 H   0  0  0  0  0  0  0  0  0  0  0  0
  149.0075  139.6072  154.2730 H   0  0  0  0  0  0  0  0  0  0  0  0
  149.5903  138.6575  155.6198 H   0  0  0  0  0  0  0  0  0  0  0  0
  150.0112  141.5177  155.1037 H   0  0  0  0  0  0  0  0  0  0  0  0
  151.8212  142.6226  156.6641 H   0  0  0  0  0  0  0  0  0  0  0  0
  150.1758  142.7176  157.2893 H   0  0  0  0  0  0  0  0  0  0  0  0
  153.4678  142.7571  158.2611 H   0  0  0  0  0  0  0  0  0  0  0  0
  152.9562  145.0461  158.8802 H   0  0  0  0  0  0  0  0  0  0  0  0
  151.7206  144.4755  157.7873 H   0  0  0  0  0  0  0  0  0  0  0  0
  150.7429  145.7315  159.7191 H   0  0  0  0  0  0  0  0  0  0  0  0
  150.1659  144.0848  159.6729 H   0  0  0  0  0  0  0  0  0  0  0  0
  152.3761  145.1753  161.4798 H   0  0  0  0  0  0  0  0  0  0  0  0
  150.7787  144.6789  161.9836 H   0  0  0  0  0  0  0  0  0  0  0  0
  151.2479  142.3462  161.3137 H   0  0  0  0  0  0  0  0  0  0  0  0
  153.4588  143.4559  163.1053 H   0  0  0  0  0  0  0  0  0  0  0  0
  152.9400  141.7737  163.0277 H   0  0  0  0  0  0  0  0  0  0  0  0
  151.8370  143.0061  163.6273 H   0  0  0  0  0  0  0  0  0  0  0  0
  153.5226  141.6757  160.5449 H   0  0  0  0  0  0  0  0  0  0  0  0
  154.0312  143.3351  160.5707 H   0  0  0  0  0  0  0  0  0  0  0  0
  1  2  1  0  0  0  0
  1 21  1  0  0  0  0
  1 22  1  0  0  0  0
  1 23  1  0  0  0  0
  2  6  1  0  0  0  0
  2  3  2  0  0  0  0
  3  4  1  0  0  0  0
  4  5  2  0  0  0  0
  5  6  1  0  0  0  0
  5 24  1  0  0  0  0
  6  7  1  0  0  0  0
  7  8  1  0  0  0  0
  7 25  1  0  0  0  0
  7 26  1  0  0  0  0
  8  9  1  0  0  0  0
  8 27  1  0  0  0  0
  8 28  1  0  0  0  0
  9 10  1  0  0  0  0
  9 29  1  0  0  0  0
 10 11  2  0  0  0  0
 10 12  1  0  0  0  0
 12 13  1  0  0  0  0
 12 30  1  0  0  0  0
 12 31  1  0  0  0  0
 13 14  1  0  0  0  0
 14 20  1  0  0  0  0
 14 15  1  0  0  0  0
 14 32  1  0  0  0  0
 15 16  1  0  0  0  0
 15 33  1  0  0  0  0
 15 34  1  0  0  0  0
 16 17  1  0  0  0  0
 16 35  1  0  0  0  0
 16 36  1  0  0  0  0
 17 18  1  0  0  0  0
 17 37  1  0  0  0  0
 17 38  1  0  0  0  0
 18 19  1  0  0  0  0
 18 20  1  0  0  0  0
 18 39  1  0  0  0  0
 19 40  1  0  0  0  0
 19 41  1  0  0  0  0
 19 42  1  0  0  0  0
 20 43  1  0  0  0  0
 20 44  1  0  0  0  0
M  END
> <s_m_source_file>
AV-unprocessed.smi

> <i_m_source_file_index>
707

> <i_lp_mmshare_version>
43012

> <i_f3d_flags>
0

> <s_epik_input>
W0NIM11jMW5uW2NIXW4xW0NIMl1bQ0gyXVtOSF1DKD1PKVtDSDJdT1tDQEBIXTJbQ0gyXVtDSDJdW0NIMl1bQ0BASF0oW0NIM10pW0NIMl0y

> <s_epik_cmdline>
J2VwaWtfcHl0aG9uJywgJy1waCcsICc3LjAnLCAnLXRuJywgJzgnLCAnLW1hJywgJzIwMCcsICctbWV0YWxfYmluZGluZycsICctaW1hZScsICc8aW5maWxlLm1hZT4nLCAnLW9tYWUnLCAnPG91dGZpbGUubWFlPic=

> <r_lp_tautomer_probability>
1

> <r_epik_Ionization_Penalty>
0.000271783

> <r_epik_Ionization_Penalty_Charging>
0

> <r_epik_Ionization_Penalty_Neutral>
0.000271783

> <r_epik_State_Penalty>
-0

> <r_epik_Charging_Adjusted_Penalty>
0

> <i_epik_Tot_Q>
0

> <i_epik_Tot_abs_Q>
0

> <r_epik_Metal_State_Penalty>
-0

> <b_epik_Metal_Only>
0

> <s_lp_Force_Field>
OPLS_2005

> <r_lp_Energy>
13.3948

> <b_lp_Chiralities_Consistent>
1

> <s_lp_Variant>
AV-unprocessed.smi:707-4

> <Gold.Version>
5.8.1

> <Gold.Id.Protein>
6NUR|6NUR_protein|mol2

> <Gold.PLP.Fitness>
50.6140

> <Gold.PLP.PLP>
-49.4092

> <Gold.PLP.part.hbond>
-2.6486

> <Gold.PLP.part.metal>
0.0000

> <Gold.PLP.part.buried>
-6.4331

> <Gold.PLP.part.nonpolar>
-41.0819

> <Gold.PLP.part.repulsive>
0.1038

> <Gold.PLP.ligand.clash>
0.0000

> <Gold.PLP.ligand.torsion>
0.6028

> <Gold.PLP.Chemscore.Hbond>
0.7840

> <Gold.PLP.Chemscore.CHOScore>
0.0000

> <Gold.PLP.Chemscore.Metal>
0.0000

> <Gold.PLP.Chemscore.Internal.Correction>
0.0584

> <Gold.Rescore>
     Score         DG    S(hbond)    S(metal)    S(lipo)     H(rot)  DE(clash)    DE(int)     intcor
     12.68     -13.22       0.35        0.00     109.08       2.42       0.03       0.51       ----

> <Gold.Chemscore.Fitness>
12.6781

> <Gold.Chemscore.DG>
-13.2200

> <Gold.Chemscore.ZeroCoef>
-5.4800

> <Gold.Chemscore.Hbond>
0.3504

> <Gold.Chemscore.Metal>
0.0000

> <Gold.Chemscore.Lipo>
109.0805

> <Gold.Chemscore.Internal_Hbond>
0.0000

> <Gold.Chemscore.DEClash>
0.0272

> <Gold.Chemscore.DEInternal>
0.5147

> <Gold.Chemscore.Rot>
2.4191

> <Gold.Chemscore.Internal.Correction>
   9.000000E+99

> <Gold.Chemscore.Hbond.Weighted>
-1.1705

> <Gold.Chemscore.Metal.Weighted>
-0.0000

> <Gold.Chemscore.Lipo.Weighted>
-12.7624

> <Gold.Chemscore.Internal_Hbond.Weighted>
0.0000

> <Gold.Chemscore.DEClash.Weighted>
0.0272

> <Gold.Chemscore.DEInternal.Weighted>
0.5147

> <Gold.Chemscore.Rot.Weighted>
6.1929

> <Gold.Chemscore.Internal.Correction.Weighted>
   9.000000E+99

> <Gold.Protein.RotatedTorsions>
[ 6907 6896 6895 6894 ] final   68.06 input  -60.11 | X-H torsion
[ 7974 7965 7964 7962 ] final  153.12 input  175.53 | X-H torsion
[ 8008 7997 7996 7995 ] final   27.83 input   59.86 | X-H torsion
[ 10167 10162 10161 10158 ] final -137.18 input  -65.29 | X-H torsion
[ 10718 10713 10712 10709 ] final -166.70 input   66.30 | X-H torsion
[ 10763 10752 10751 10750 ] final -137.97 input  -60.55 | X-H torsion
[ 11005 11000 10999 10996 ] final   49.25 input  -57.11 | X-H torsion

> <Gold.Protein.ActiveResidues>
 VAL166  LYS551  ARG553  GLY616  TRP617  ASP618  TYR619  PRO620  LYS621  CYS622 
 ASP623  PHE694  ASN695  SER759  ASP760  ASP761  ALA762  ILE779  LEU786  VAL792 
 PHE793  MET794  SER795  GLU796  ALA797  LYS798  CYS799  TRP800  GLU811  SER814 

> <Gold.Protein.RotatedAtoms>
  152.4595  134.5217  159.9784 H   0  0  0  0  0  0  0  0  0  0  0  0  # atno 6907 bound_to 6896
  151.5269  133.3450  159.2919 H   0  0  0  0  0  0  0  0  0  0  0  0  # atno 6908 bound_to 6896
  150.8552  134.7918  159.7102 H   0  0  0  0  0  0  0  0  0  0  0  0  # atno 6909 bound_to 6896
  144.8176  139.6759  143.6115 H   0  0  0  0  0  0  0  0  0  0  0  0  # atno 7974 bound_to 7965
  155.0492  140.3178  155.4698 H   0  0  0  0  0  0  0  0  0  0  0  0  # atno 8008 bound_to 7997
  156.2838  140.2149  156.5561 H   0  0  0  0  0  0  0  0  0  0  0  0  # atno 8009 bound_to 7997
  154.7225  140.0488  157.0640 H   0  0  0  0  0  0  0  0  0  0  0  0  # atno 8010 bound_to 7997
  139.8603  143.7086  152.2650 H   0  0  0  0  0  0  0  0  0  0  0  0  # atno 10167 bound_to 10162
  156.6716  130.9086  151.3044 H   0  0  0  0  0  0  0  0  0  0  0  0  # atno 10718 bound_to 10713
  154.8649  135.3626  154.5309 H   0  0  0  0  0  0  0  0  0  0  0  0  # atno 10763 bound_to 10752
  153.5935  135.7015  153.5418 H   0  0  0  0  0  0  0  0  0  0  0  0  # atno 10764 bound_to 10752
  153.3353  135.4113  155.1490 H   0  0  0  0  0  0  0  0  0  0  0  0  # atno 10765 bound_to 10752
  140.1120  134.4942  155.8670 H   0  0  0  0  0  0  0  0  0  0  0  0  # atno 11005 bound_to 11000
  146.2479  139.6138  142.9447 LP  0  0  0  0  0  0  0  0  0  0  0  0  # atno 17320 bound_to 7965
  145.5180  141.0433  143.2451 LP  0  0  0  0  0  0  0  0  0  0  0  0  # atno 17321 bound_to 7965
  139.7380  144.7566  151.0697 LP  0  0  0  0  0  0  0  0  0  0  0  0  # atno 17342 bound_to 10162
  140.7776  143.5007  150.9775 LP  0  0  0  0  0  0  0  0  0  0  0  0  # atno 17343 bound_to 10162
  157.7075  130.9402  150.0979 LP  0  0  0  0  0  0  0  0  0  0  0  0  # atno 17370 bound_to 10713
  156.1934  130.3656  149.8880 LP  0  0  0  0  0  0  0  0  0  0  0  0  # atno 17371 bound_to 10713
  141.2132  133.6730  156.6723 LP  0  0  0  0  0  0  0  0  0  0  0  0  # atno 17394 bound_to 11000
  140.3079  134.8110  157.4152 LP  0  0  0  0  0  0  0  0  0  0  0  0  # atno 17395 bound_to 11000

$$$$
