AV-unprocessed.smi:3256|AV-procd|sdf|12465|dock5
  -GOLD-   2272018363D 1   1.00000     0.00000
 Structure written by MMmdl.
 36 37  0  0  0  0  0  0  0  0  1 V2000
  148.1922  132.8770  154.5782 O   0  0  0  0  0  0  0  0  0  0  0  0
  148.3334  133.7965  153.7732 C   0  0  0  0  0  0  0  0  0  0  0  0
  149.0931  134.8759  154.0086 N   0  0  0  0  0  0  0  0  0  0  0  0
  149.8455  135.1318  155.2326 C   0  0  0  0  0  0  0  0  0  0  0  0
  151.1134  135.9633  154.9562 C   0  0  0  0  0  0  0  0  0  0  0  0
  151.0413  137.3741  155.3368 N   0  0  0  0  0  0  0  0  0  0  0  0
  149.9716  138.0579  154.6187 C   0  0  0  0  0  0  0  0  0  0  0  0
  149.8747  139.5425  155.0106 C   0  0  0  0  0  0  0  0  0  0  0  0
  151.1261  140.1795  154.7761 O   0  0  0  0  0  0  0  0  0  0  0  0
  152.1949  139.5697  155.4924 C   0  0  0  0  0  0  0  0  0  0  0  0
  152.2970  138.0846  155.1039 C   0  0  0  0  0  0  0  0  0  0  0  0
  147.7562  133.8722  152.5613 N   0  0  0  0  0  0  0  0  0  0  0  0
  146.8931  132.9481  151.9099 C   0  0  0  0  0  0  0  0  0  0  0  0
  146.3078  133.1434  150.6345 C   0  0  0  0  0  0  0  0  0  0  0  0
  145.4614  132.1450  150.1146 C   0  0  0  0  0  0  0  0  0  0  0  0
  145.2258  130.9917  150.8873 C   0  0  0  0  0  0  0  0  0  0  0  0
  145.7710  130.7943  152.1055 N   0  0  0  0  0  0  0  0  0  0  0  0
  146.5821  131.7550  152.5968 C   0  0  0  0  0  0  0  0  0  0  0  0
  149.1461  135.5829  153.2902 H   0  0  0  0  0  0  0  0  0  0  0  0
  149.2188  135.5840  156.0016 H   0  0  0  0  0  0  0  0  0  0  0  0
  150.1438  134.1623  155.6321 H   0  0  0  0  0  0  0  0  0  0  0  0
  151.9608  135.4972  155.4609 H   0  0  0  0  0  0  0  0  0  0  0  0
  151.3309  135.8915  153.8896 H   0  0  0  0  0  0  0  0  0  0  0  0
  150.1381  137.9789  153.5432 H   0  0  0  0  0  0  0  0  0  0  0  0
  149.0179  137.5701  154.8235 H   0  0  0  0  0  0  0  0  0  0  0  0
  149.1046  140.0408  154.4218 H   0  0  0  0  0  0  0  0  0  0  0  0
  149.5958  139.6478  156.0603 H   0  0  0  0  0  0  0  0  0  0  0  0
  153.1240  140.0883  155.2558 H   0  0  0  0  0  0  0  0  0  0  0  0
  152.0314  139.6771  156.5658 H   0  0  0  0  0  0  0  0  0  0  0  0
  153.1043  137.6310  155.6775 H   0  0  0  0  0  0  0  0  0  0  0  0
  152.5778  138.0054  154.0525 H   0  0  0  0  0  0  0  0  0  0  0  0
  147.9434  134.7171  152.0415 H   0  0  0  0  0  0  0  0  0  0  0  0
  146.4763  134.0307  150.0462 H   0  0  0  0  0  0  0  0  0  0  0  0
  145.0000  132.2629  149.1453 H   0  0  0  0  0  0  0  0  0  0  0  0
  144.5799  130.2088  150.5188 H   0  0  0  0  0  0  0  0  0  0  0  0
  146.9983  131.5626  153.5751 H   0  0  0  0  0  0  0  0  0  0  0  0
  1  2  2  0  0  0  0
  2  3  1  0  0  0  0
  2 12  1  0  0  0  0
  3  4  1  0  0  0  0
  3 19  1  0  0  0  0
  4  5  1  0  0  0  0
  4 20  1  0  0  0  0
  4 21  1  0  0  0  0
  5  6  1  0  0  0  0
  5 22  1  0  0  0  0
  5 23  1  0  0  0  0
  6 11  1  0  0  0  0
  6  7  1  0  0  0  0
  7  8  1  0  0  0  0
  7 24  1  0  0  0  0
  7 25  1  0  0  0  0
  8  9  1  0  0  0  0
  8 26  1  0  0  0  0
  8 27  1  0  0  0  0
  9 10  1  0  0  0  0
 10 11  1  0  0  0  0
 10 28  1  0  0  0  0
 10 29  1  0  0  0  0
 11 30  1  0  0  0  0
 11 31  1  0  0  0  0
 12 13  1  0  0  0  0
 12 32  1  0  0  0  0
 13 18  1  0  0  0  0
 13 14  2  0  0  0  0
 14 15  1  0  0  0  0
 14 33  1  0  0  0  0
 15 16  2  0  0  0  0
 15 34  1  0  0  0  0
 16 17  1  0  0  0  0
 16 35  1  0  0  0  0
 17 18  2  0  0  0  0
 18 36  1  0  0  0  0
M  END
> <s_m_source_file>
AV-unprocessed.smi

> <i_m_source_file_index>
3256

> <i_lp_mmshare_version>
43012

> <i_f3d_flags>
0

> <s_epik_input>
W2NIXTFuW2NIXVtjSF1bY0hdYzFbTkhdQyg9TylbTkhdW0NIMl1bQ0gyXU4yW0NIMl1bQ0gyXU9bQ0gyXVtDSDJdMg==

> <s_epik_cmdline>
J2VwaWtfcHl0aG9uJywgJy1waCcsICc3LjAnLCAnLXRuJywgJzgnLCAnLW1hJywgJzIwMCcsICctbWV0YWxfYmluZGluZycsICctaW1hZScsICc8aW5maWxlLm1hZT4nLCAnLW9tYWUnLCAnPG91dGZpbGUubWFlPic=

> <r_epik_Ionization_Penalty>
0.270703

> <r_epik_Ionization_Penalty_Charging>
0

> <r_epik_Ionization_Penalty_Neutral>
0.270703

> <r_epik_State_Penalty>
0.268226

> <r_epik_Charging_Adjusted_Penalty>
0.268226

> <i_epik_Tot_Q>
0

> <i_epik_Tot_abs_Q>
0

> <r_epik_Metal_State_Penalty>
0.26483

> <b_epik_Metal_Only>
0

> <s_lp_Force_Field>
OPLS_2005

> <r_lp_Energy>
28.1533

> <b_lp_Chiralities_Consistent>
1

> <s_lp_Variant>
AV-unprocessed.smi:3256-1

> <Gold.Version>
5.8.1

> <Gold.Id.Protein>
6NUR|6NUR_protein|mol2

> <Gold.PLP.Fitness>
38.0766

> <Gold.PLP.PLP>
-30.0630

> <Gold.PLP.part.hbond>
-2.9443

> <Gold.PLP.part.metal>
0.0000

> <Gold.PLP.part.buried>
-2.9958

> <Gold.PLP.part.nonpolar>
-23.7886

> <Gold.PLP.part.repulsive>
0.3693

> <Gold.PLP.ligand.clash>
0.0000

> <Gold.PLP.ligand.torsion>
0.5022

> <Gold.PLP.Chemscore.Hbond>
3.0000

> <Gold.PLP.Chemscore.CHOScore>
0.0000

> <Gold.PLP.Chemscore.Metal>
0.0000

> <Gold.Chemscore.Hbonds>
donor molecule, donor type, donor heavy atom, donor atom, acceptor molecule, acceptor atom, score
      L1  H     3    19       P1  7948  1.00
      L1  H    12    32       P1  7948  0.96
      P1  H  7989  7998       L1     9  1.00

> <Gold.PLP.Chemscore.Internal.Correction>
0.0180

> <Gold.Rescore>
     Score         DG    S(hbond)    S(metal)    S(lipo)     H(rot)  DE(clash)    DE(int)     intcor
     17.10     -19.02       2.54        0.00      75.77       1.49       0.02       1.89       ----

> <Gold.Chemscore.Fitness>
17.1028

> <Gold.Chemscore.DG>
-19.0172

> <Gold.Chemscore.ZeroCoef>
-5.4800

> <Gold.Chemscore.Hbond>
2.5447

> <Gold.Chemscore.Metal>
0.0000

> <Gold.Chemscore.Lipo>
75.7672

> <Gold.Chemscore.Internal_Hbond>
0.0000

> <Gold.Chemscore.DEClash>
0.0231

> <Gold.Chemscore.DEInternal>
1.8912

> <Gold.Chemscore.Rot>
1.4949

> <Gold.Chemscore.Internal.Correction>
   9.000000E+99

> <Gold.Chemscore.Hbonds>
donor molecule, donor type, donor heavy atom, donor atom, acceptor molecule, acceptor atom, score
      L1  H     3    19       P1  7948  0.47
      L1  H    12    32       P1  7948  0.32
      P1  H  7989  7998       L1     9  0.73

> <Gold.Chemscore.Hbond.Weighted>
-8.4993

> <Gold.Chemscore.Metal.Weighted>
-0.0000

> <Gold.Chemscore.Lipo.Weighted>
-8.8648

> <Gold.Chemscore.Internal_Hbond.Weighted>
0.0000

> <Gold.Chemscore.DEClash.Weighted>
0.0231

> <Gold.Chemscore.DEInternal.Weighted>
1.8912

> <Gold.Chemscore.Rot.Weighted>
3.8269

> <Gold.Chemscore.Internal.Correction.Weighted>
   9.000000E+99

> <Gold.Protein.RotatedTorsions>
[ 6907 6896 6895 6894 ] final  -51.33 input  -60.11 | X-H torsion
[ 7974 7965 7964 7962 ] final  120.16 input  175.53 | X-H torsion
[ 8008 7997 7996 7995 ] final   -6.75 input   59.86 | X-H torsion
[ 10167 10162 10161 10158 ] final  -80.85 input  -65.29 | X-H torsion
[ 10718 10713 10712 10709 ] final -111.74 input   66.30 | X-H torsion
[ 10763 10752 10751 10750 ] final  170.80 input  -60.55 | X-H torsion
[ 11005 11000 10999 10996 ] final   61.42 input  -57.11 | X-H torsion

> <Gold.Protein.ActiveResidues>
 VAL166  LYS551  ARG553  GLY616  TRP617  ASP618  TYR619  PRO620  LYS621  CYS622 
 ASP623  PHE694  ASN695  SER759  ASP760  ASP761  ALA762  ILE779  LEU786  VAL792 
 PHE793  MET794  SER795  GLU796  ALA797  LYS798  CYS799  TRP800  GLU811  SER814 

> <Gold.Protein.RotatedAtoms>
  150.8621  134.7976  159.7090 H   0  0  0  0  0  0  0  0  0  0  0  0  # atno 6907 bound_to 6896
  152.4655  134.5082  159.9755 H   0  0  0  0  0  0  0  0  0  0  0  0  # atno 6908 bound_to 6896
  151.5184  133.3433  159.2933 H   0  0  0  0  0  0  0  0  0  0  0  0  # atno 6909 bound_to 6896
  145.1345  139.3306  143.4648 H   0  0  0  0  0  0  0  0  0  0  0  0  # atno 7974 bound_to 7965
  154.5906  140.2425  155.7926 H   0  0  0  0  0  0  0  0  0  0  0  0  # atno 8008 bound_to 7997
  156.2244  140.2987  155.9986 H   0  0  0  0  0  0  0  0  0  0  0  0  # atno 8009 bound_to 7997
  155.2380  140.0406  157.2961 H   0  0  0  0  0  0  0  0  0  0  0  0  # atno 8010 bound_to 7997
  140.4465  143.2497  151.8550 H   0  0  0  0  0  0  0  0  0  0  0  0  # atno 10167 bound_to 10162
  156.0665  130.5883  150.8415 H   0  0  0  0  0  0  0  0  0  0  0  0  # atno 10718 bound_to 10713
  154.4028  135.2755  155.2086 H   0  0  0  0  0  0  0  0  0  0  0  0  # atno 10763 bound_to 10752
  154.4105  135.6023  153.5953 H   0  0  0  0  0  0  0  0  0  0  0  0  # atno 10764 bound_to 10752
  152.9831  135.5948  154.4298 H   0  0  0  0  0  0  0  0  0  0  0  0  # atno 10765 bound_to 10752
  140.0162  134.6221  155.9706 H   0  0  0  0  0  0  0  0  0  0  0  0  # atno 11005 bound_to 11000
  146.3511  140.1357  142.8596 LP  0  0  0  0  0  0  0  0  0  0  0  0  # atno 17320 bound_to 7965
  145.0599  140.9080  143.4945 LP  0  0  0  0  0  0  0  0  0  0  0  0  # atno 17321 bound_to 7965
  139.4793  144.5169  151.8855 LP  0  0  0  0  0  0  0  0  0  0  0  0  # atno 17342 bound_to 10162
  140.4257  144.2183  150.5887 LP  0  0  0  0  0  0  0  0  0  0  0  0  # atno 17343 bound_to 10162
  157.5709  131.0946  150.9419 LP  0  0  0  0  0  0  0  0  0  0  0  0  # atno 17370 bound_to 10713
  156.9635  130.5464  149.5287 LP  0  0  0  0  0  0  0  0  0  0  0  0  # atno 17371 bound_to 10713
  141.1744  133.6539  156.4774 LP  0  0  0  0  0  0  0  0  0  0  0  0  # atno 17394 bound_to 11000
  140.4466  134.6966  157.5019 LP  0  0  0  0  0  0  0  0  0  0  0  0  # atno 17395 bound_to 11000

$$$$
