AV-unprocessed.smi:3131|AV-procd|sdf|11928|dock8
  -GOLD-   2272017313D 1   1.00000     0.00000
 Structure written by MMmdl.
 43 43  0  0  0  0  0  0  0  0  2 V2000
  147.7984  132.6610  152.8847 C   0  0  0  0  0  0  0  0  0  0  0  0
  149.0115  133.3555  153.5217 C   0  0  0  0  0  0  0  0  0  0  0  0
  148.7532  133.9299  154.9350 C   0  0  0  0  0  0  0  0  0  0  0  0
  148.3653  132.8073  155.9292 C   0  0  0  0  0  0  0  0  0  0  0  0
  149.3836  131.6607  156.0141 C   0  0  0  0  0  0  0  0  0  0  0  0
  147.6716  135.0331  154.9005 C   0  0  0  0  0  0  0  0  0  0  0  0
  148.1799  136.2767  154.2885 N   0  3  0  0  0  0  0  0  0  0  0  0
  147.3538  137.4730  154.5557 C   0  0  0  0  0  0  0  0  0  0  0  0
  147.8772  138.7096  153.7934 C   0  0  2  0  0  0  0  0  0  0  0  0
  146.9707  139.9253  154.0500 C   0  0  0  0  0  0  0  0  0  0  0  0
  147.7715  138.4296  152.4093 O   0  0  0  0  0  0  0  0  0  0  0  0
  149.3001  139.0326  154.1982 C   0  0  0  0  0  0  0  0  0  0  0  0
  149.7836  140.2358  154.7918 C   0  0  0  0  0  0  0  0  0  0  0  0
  151.0806  140.2048  155.0449 N   0  0  0  0  0  0  0  0  0  0  0  0
  151.4768  138.9903  154.6150 N   0  0  0  0  0  0  0  0  0  0  0  0
  152.8682  138.6107  154.7351 C   0  0  0  0  0  0  0  0  0  0  0  0
  150.4269  138.2625  154.0985 C   0  0  0  0  0  0  0  0  0  0  0  0
  148.0207  132.3711  151.8575 H   0  0  0  0  0  0  0  0  0  0  0  0
  146.9325  133.3232  152.8597 H   0  0  0  0  0  0  0  0  0  0  0  0
  147.5164  131.7544  153.4188 H   0  0  0  0  0  0  0  0  0  0  0  0
  149.8548  132.6645  153.5503 H   0  0  0  0  0  0  0  0  0  0  0  0
  149.3083  134.1572  152.8471 H   0  0  0  0  0  0  0  0  0  0  0  0
  149.6810  134.3842  155.2870 H   0  0  0  0  0  0  0  0  0  0  0  0
  148.2651  133.2178  156.9341 H   0  0  0  0  0  0  0  0  0  0  0  0
  147.3827  132.4080  155.6745 H   0  0  0  0  0  0  0  0  0  0  0  0
  149.0963  130.9494  156.7888 H   0  0  0  0  0  0  0  0  0  0  0  0
  150.3774  132.0339  156.2633 H   0  0  0  0  0  0  0  0  0  0  0  0
  149.4569  131.1056  155.0795 H   0  0  0  0  0  0  0  0  0  0  0  0
  146.8106  134.7120  154.3156 H   0  0  0  0  0  0  0  0  0  0  0  0
  147.3119  135.2412  155.9093 H   0  0  0  0  0  0  0  0  0  0  0  0
  149.1079  136.4495  154.6483 H   0  0  0  0  0  0  0  0  0  0  0  0
  146.3172  137.2633  154.2872 H   0  0  0  0  0  0  0  0  0  0  0  0
  147.3660  137.6706  155.6287 H   0  0  0  0  0  0  0  0  0  0  0  0
  146.9647  140.2014  155.1050 H   0  0  0  0  0  0  0  0  0  0  0  0
  145.9387  139.7234  153.7603 H   0  0  0  0  0  0  0  0  0  0  0  0
  147.3066  140.7965  153.4857 H   0  0  0  0  0  0  0  0  0  0  0  0
  148.4633  138.8852  151.9536 H   0  0  0  0  0  0  0  0  0  0  0  0
  149.2280  141.1248  155.0518 H   0  0  0  0  0  0  0  0  0  0  0  0
  153.0076  137.5854  154.3913 H   0  0  0  0  0  0  0  0  0  0  0  0
  153.1824  138.6809  155.7769 H   0  0  0  0  0  0  0  0  0  0  0  0
  153.4850  139.2748  154.1288 H   0  0  0  0  0  0  0  0  0  0  0  0
  150.5659  137.2645  153.7092 H   0  0  0  0  0  0  0  0  0  0  0  0
  148.2435  136.1491  153.2885 H   0  0  0  0  0  0  0  0  0  0  0  0
  1  2  1  0  0  0  0
  1 18  1  0  0  0  0
  1 19  1  0  0  0  0
  1 20  1  0  0  0  0
  2  3  1  0  0  0  0
  2 21  1  0  0  0  0
  2 22  1  0  0  0  0
  3  4  1  0  0  0  0
  3  6  1  0  0  0  0
  3 23  1  0  0  0  0
  4  5  1  0  0  0  0
  4 24  1  0  0  0  0
  4 25  1  0  0  0  0
  5 26  1  0  0  0  0
  5 27  1  0  0  0  0
  5 28  1  0  0  0  0
  6  7  1  0  0  0  0
  6 29  1  0  0  0  0
  6 30  1  0  0  0  0
  7  8  1  0  0  0  0
  7 31  1  0  0  0  0
  7 43  1  0  0  0  0
  8  9  1  0  0  0  0
  8 32  1  0  0  0  0
  8 33  1  0  0  0  0
  9 10  1  0  0  0  0
  9 11  1  0  0  0  0
  9 12  1  0  0  0  0
 10 34  1  0  0  0  0
 10 35  1  0  0  0  0
 10 36  1  0  0  0  0
 11 37  1  0  0  0  0
 12 17  2  0  0  0  0
 12 13  1  0  0  0  0
 13 14  2  0  0  0  0
 13 38  1  0  0  0  0
 14 15  1  0  0  0  0
 15 16  1  0  0  0  0
 15 17  1  0  0  0  0
 16 39  1  0  0  0  0
 16 40  1  0  0  0  0
 16 41  1  0  0  0  0
 17 42  1  0  0  0  0
M  CHG  1   7   1
M  END
> <s_m_source_file>
AV-unprocessed.smi

> <i_m_source_file_index>
3131

> <i_lp_mmshare_version>
43012

> <i_f3d_flags>
0

> <s_epik_input>
W0NIM11bQ0gyXVtDSF0oW0NIMl1bQ0gzXSlbQ0gyXVtOSF1bQ0gyXVtDQEBdKFtDSDNdKShbT0hdKWMxW2NIXW5uKFtDSDNdKVtjSF0x

> <s_epik_cmdline>
J2VwaWtfcHl0aG9uJywgJy1waCcsICc3LjAnLCAnLXRuJywgJzgnLCAnLW1hJywgJzIwMCcsICctbWV0YWxfYmluZGluZycsICctaW1hZScsICc8aW5maWxlLm1hZT4nLCAnLW9tYWUnLCAnPG91dGZpbGUubWFlPic=

> <r_lp_tautomer_probability>
1

> <r_epik_Ionization_Penalty>
0.00304809

> <r_epik_Ionization_Penalty_Charging>
0.00302982

> <r_epik_Ionization_Penalty_Neutral>
1.82731e-05

> <r_epik_State_Penalty>
0.00212874

> <r_epik_Charging_Adjusted_Penalty>
0.00515857

> <i_epik_Tot_Q>
1

> <i_epik_Tot_abs_Q>
1

> <r_epik_Metal_State_Penalty>
-0

> <b_epik_Metal_Only>
0

> <s_lp_Force_Field>
OPLS_2005

> <r_lp_Energy>
9.85369

> <b_lp_Chiralities_Consistent>
1

> <s_lp_Variant>
AV-unprocessed.smi:3131-2

> <Gold.Version>
5.8.1

> <Gold.Id.Protein>
6NUR|6NUR_protein|mol2

> <Gold.PLP.Fitness>
43.3968

> <Gold.PLP.PLP>
-30.2606

> <Gold.PLP.part.hbond>
-4.0000

> <Gold.PLP.part.metal>
0.0000

> <Gold.PLP.part.buried>
-2.4685

> <Gold.PLP.part.nonpolar>
-24.7525

> <Gold.PLP.part.repulsive>
0.0477

> <Gold.PLP.ligand.clash>
0.0000

> <Gold.PLP.ligand.torsion>
0.1957

> <Gold.PLP.Chemscore.Hbond>
3.4500

> <Gold.PLP.Chemscore.CHOScore>
0.9796

> <Gold.PLP.Chemscore.Metal>
0.0000

> <Gold.Chemscore.Hbonds>
donor molecule, donor type, donor heavy atom, donor atom, acceptor molecule, acceptor atom, score
      L1  H     7    43       P1  7948  2.00
      L1  H    11    37       P1  7957  1.00
      P1  H  7989  7998       L1    14  0.36
      L1  C    17    42       P1  7948  0.46
      L1  C    17    42       P1  7949  0.47

> <Gold.PLP.Chemscore.Internal.Correction>
0.2388

> <Gold.Rescore>
     Score         DG    S(hbond)    S(metal)    S(lipo)     H(rot)  DE(clash)    DE(int)     intcor
     13.62     -13.96       1.95        0.00      68.17       2.34       0.07       0.27       ----

> <Gold.Chemscore.Fitness>
13.6175

> <Gold.Chemscore.DG>
-13.9641

> <Gold.Chemscore.ZeroCoef>
-5.4800

> <Gold.Chemscore.Hbond>
1.9476

> <Gold.Chemscore.Metal>
0.0000

> <Gold.Chemscore.Lipo>
68.1749

> <Gold.Chemscore.Internal_Hbond>
0.0000

> <Gold.Chemscore.DEClash>
0.0728

> <Gold.Chemscore.DEInternal>
0.2738

> <Gold.Chemscore.Rot>
2.3426

> <Gold.Chemscore.Internal.Correction>
   9.000000E+99

> <Gold.Chemscore.Hbonds>
donor molecule, donor type, donor heavy atom, donor atom, acceptor molecule, acceptor atom, score
      L1  H     7    43       P1  7948  0.96
      L1  H    11    37       P1  7957  0.91

> <Gold.Chemscore.Hbond.Weighted>
-6.5049

> <Gold.Chemscore.Metal.Weighted>
-0.0000

> <Gold.Chemscore.Lipo.Weighted>
-7.9765

> <Gold.Chemscore.Internal_Hbond.Weighted>
0.0000

> <Gold.Chemscore.DEClash.Weighted>
0.0728

> <Gold.Chemscore.DEInternal.Weighted>
0.2738

> <Gold.Chemscore.Rot.Weighted>
5.9972

> <Gold.Chemscore.Internal.Correction.Weighted>
   9.000000E+99

> <Gold.Protein.RotatedTorsions>
[ 6907 6896 6895 6894 ] final  -39.40 input  -60.11 | X-H torsion
[ 7974 7965 7964 7962 ] final   59.46 input  175.53 | X-H torsion
[ 8008 7997 7996 7995 ] final -160.04 input   59.86 | X-H torsion
[ 10167 10162 10161 10158 ] final  -61.34 input  -65.29 | X-H torsion
[ 10718 10713 10712 10709 ] final  -35.26 input   66.30 | X-H torsion
[ 10763 10752 10751 10750 ] final   -1.23 input  -60.55 | X-H torsion
[ 11005 11000 10999 10996 ] final   11.25 input  -57.11 | X-H torsion

> <Gold.Protein.ActiveResidues>
 VAL166  LYS551  ARG553  GLY616  TRP617  ASP618  TYR619  PRO620  LYS621  CYS622 
 ASP623  PHE694  ASN695  SER759  ASP760  ASP761  ALA762  ILE779  LEU786  VAL792 
 PHE793  MET794  SER795  GLU796  ALA797  LYS798  CYS799  TRP800  GLU811  SER814 

> <Gold.Protein.RotatedAtoms>
  150.9908  134.9243  159.7897 H   0  0  0  0  0  0  0  0  0  0  0  0  # atno 6907 bound_to 6896
  152.5250  134.3285  159.9184 H   0  0  0  0  0  0  0  0  0  0  0  0  # atno 6908 bound_to 6896
  151.3291  133.3967  159.2695 H   0  0  0  0  0  0  0  0  0  0  0  0  # atno 6909 bound_to 6896
  145.9069  139.3624  143.0559 H   0  0  0  0  0  0  0  0  0  0  0  0  # atno 7974 bound_to 7965
  155.7715  140.0852  157.2105 H   0  0  0  0  0  0  0  0  0  0  0  0  # atno 8008 bound_to 7997
  154.3996  140.1524  156.3004 H   0  0  0  0  0  0  0  0  0  0  0  0  # atno 8009 bound_to 7997
  155.8742  140.3424  155.5845 H   0  0  0  0  0  0  0  0  0  0  0  0  # atno 8010 bound_to 7997
  140.6012  143.2362  151.5924 H   0  0  0  0  0  0  0  0  0  0  0  0  # atno 10167 bound_to 10162
  156.3407  130.4293  149.7790 H   0  0  0  0  0  0  0  0  0  0  0  0  # atno 10718 bound_to 10713
  153.3422  135.6981  153.6858 H   0  0  0  0  0  0  0  0  0  0  0  0  # atno 10763 bound_to 10752
  153.5618  135.3533  155.2803 H   0  0  0  0  0  0  0  0  0  0  0  0  # atno 10764 bound_to 10752
  154.8638  135.4251  154.2637 H   0  0  0  0  0  0  0  0  0  0  0  0  # atno 10765 bound_to 10752
  140.5053  134.0705  155.7804 H   0  0  0  0  0  0  0  0  0  0  0  0  # atno 11005 bound_to 11000
  145.8720  140.9414  143.0645 LP  0  0  0  0  0  0  0  0  0  0  0  0  # atno 17320 bound_to 7965
  144.6740  140.0667  143.7474 LP  0  0  0  0  0  0  0  0  0  0  0  0  # atno 17321 bound_to 7965
  139.5292  144.2966  152.1108 LP  0  0  0  0  0  0  0  0  0  0  0  0  # atno 17342 bound_to 10162
  140.2147  144.4527  150.6369 LP  0  0  0  0  0  0  0  0  0  0  0  0  # atno 17343 bound_to 10162
  156.5027  130.8136  151.3139 LP  0  0  0  0  0  0  0  0  0  0  0  0  # atno 17370 bound_to 10713
  157.7446  130.9939  150.2689 LP  0  0  0  0  0  0  0  0  0  0  0  0  # atno 17371 bound_to 10713
  141.1414  133.9131  157.2317 LP  0  0  0  0  0  0  0  0  0  0  0  0  # atno 17394 bound_to 11000
  139.9690  135.0134  156.9461 LP  0  0  0  0  0  0  0  0  0  0  0  0  # atno 17395 bound_to 11000

$$$$
