AV-unprocessed.smi:2892|AV-procd|sdf|11121|dock6
  -GOLD-   2272015593D 1   1.00000     0.00000
 Structure written by MMmdl.
 42 42  0  0  0  0  0  0  0  0  2 V2000
  148.2638  132.2170  161.5783 C   0  0  0  0  0  0  0  0  0  0  0  0
  146.8984  132.7514  161.1216 C   0  0  0  0  0  0  0  0  0  0  0  0
  146.7019  134.2768  161.3295 C   0  0  1  0  0  0  0  0  0  0  0  0
  146.5770  134.6018  162.8363 C   0  0  0  0  0  0  0  0  0  0  0  0
  147.8375  135.0992  160.6450 C   0  0  1  0  0  0  0  0  0  0  0  0
  147.7436  134.9404  159.1948 N   0  0  0  0  0  0  0  0  0  0  0  0
  148.7216  135.1731  158.3044 C   0  0  0  0  0  0  0  0  0  0  0  0
  149.8360  135.5968  158.6098 O   0  0  0  0  0  0  0  0  0  0  0  0
  148.3922  134.8753  156.8390 C   0  0  0  0  0  0  0  0  0  0  0  0
  149.2507  133.7502  156.3207 C   0  0  0  0  0  0  0  0  0  0  0  0
  150.6721  133.6927  156.2493 C   0  0  0  0  0  0  0  0  0  0  0  0
  150.9250  132.4808  155.6743 C   0  0  0  0  0  0  0  0  0  0  0  0
  149.7095  131.8737  155.4395 N   0  0  0  0  0  0  0  0  0  0  0  0
  149.4532  130.5809  154.8227 C   0  0  0  0  0  0  0  0  0  0  0  0
  150.7679  129.8372  154.5380 C   0  0  0  0  0  0  0  0  0  0  0  0
  148.5881  130.7244  153.5596 C   0  0  0  0  0  0  0  0  0  0  0  0
  148.6815  132.6528  155.8425 N   0  0  0  0  0  0  0  0  0  0  0  0
  147.7182  136.6024  160.9507 C   0  0  0  0  0  0  0  0  0  0  0  0
  147.3557  137.3461  160.0132 O   0  0  0  0  0  0  0  0  0  0  0  0
  147.9918  136.9836  162.1113 O   0  5  0  0  0  0  0  0  0  0  0  0
  148.2973  131.1311  161.4932 H   0  0  0  0  0  0  0  0  0  0  0  0
  148.4584  132.4724  162.6201 H   0  0  0  0  0  0  0  0  0  0  0  0
  149.0801  132.6101  160.9738 H   0  0  0  0  0  0  0  0  0  0  0  0
  146.7385  132.4983  160.0728 H   0  0  0  0  0  0  0  0  0  0  0  0
  146.1452  132.1929  161.6771 H   0  0  0  0  0  0  0  0  0  0  0  0
  145.7573  134.5509  160.8565 H   0  0  0  0  0  0  0  0  0  0  0  0
  147.4953  134.3538  163.3693 H   0  0  0  0  0  0  0  0  0  0  0  0
  145.7625  134.0508  163.3040 H   0  0  0  0  0  0  0  0  0  0  0  0
  146.3664  135.6559  163.0149 H   0  0  0  0  0  0  0  0  0  0  0  0
  148.8016  134.7404  161.0109 H   0  0  0  0  0  0  0  0  0  0  0  0
  146.8549  134.6169  158.8418 H   0  0  0  0  0  0  0  0  0  0  0  0
  147.3355  134.6171  156.7621 H   0  0  0  0  0  0  0  0  0  0  0  0
  148.5378  135.7756  156.2404 H   0  0  0  0  0  0  0  0  0  0  0  0
  151.3929  134.4343  156.5599 H   0  0  0  0  0  0  0  0  0  0  0  0
  151.8599  132.0075  155.4121 H   0  0  0  0  0  0  0  0  0  0  0  0
  148.8876  129.9890  155.5439 H   0  0  0  0  0  0  0  0  0  0  0  0
  150.5762  128.8419  154.1366 H   0  0  0  0  0  0  0  0  0  0  0  0
  151.3539  129.7178  155.4495 H   0  0  0  0  0  0  0  0  0  0  0  0
  151.3837  130.3731  153.8148 H   0  0  0  0  0  0  0  0  0  0  0  0
  148.3325  129.7472  153.1491 H   0  0  0  0  0  0  0  0  0  0  0  0
  149.1045  131.2846  152.7794 H   0  0  0  0  0  0  0  0  0  0  0  0
  147.6548  131.2427  153.7813 H   0  0  0  0  0  0  0  0  0  0  0  0
  1  2  1  0  0  0  0
  1 21  1  0  0  0  0
  1 22  1  0  0  0  0
  1 23  1  0  0  0  0
  2  3  1  0  0  0  0
  2 24  1  0  0  0  0
  2 25  1  0  0  0  0
  3  4  1  0  0  0  0
  3  5  1  0  0  0  0
  3 26  1  0  0  0  0
  4 27  1  0  0  0  0
  4 28  1  0  0  0  0
  4 29  1  0  0  0  0
  5  6  1  0  0  0  0
  5 18  1  0  0  0  0
  5 30  1  0  0  0  0
  6  7  1  0  0  0  0
  6 31  1  0  0  0  0
  7  8  2  0  0  0  0
  7  9  1  0  0  0  0
  9 10  1  0  0  0  0
  9 32  1  0  0  0  0
  9 33  1  0  0  0  0
 10 17  2  0  0  0  0
 10 11  1  0  0  0  0
 11 12  2  0  0  0  0
 11 34  1  0  0  0  0
 12 13  1  0  0  0  0
 12 35  1  0  0  0  0
 13 14  1  0  0  0  0
 13 17  1  0  0  0  0
 14 15  1  0  0  0  0
 14 16  1  0  0  0  0
 14 36  1  0  0  0  0
 15 37  1  0  0  0  0
 15 38  1  0  0  0  0
 15 39  1  0  0  0  0
 16 40  1  0  0  0  0
 16 41  1  0  0  0  0
 16 42  1  0  0  0  0
 18 19  2  0  0  0  0
 18 20  1  0  0  0  0
M  CHG  1  20  -1
M  END
> <s_m_source_file>
AV-unprocessed.smi

> <i_m_source_file_index>
2892

> <i_lp_mmshare_version>
43012

> <i_f3d_flags>
0

> <s_epik_input>
W0NIM11bQ0gyXVtDQEhdKFtDSDNdKVtDQEBIXShDKD1PKVtPSF0pW05IXUMoPU8pW0NIMl1jMVtjSF1bY0hdbihuMSlbQ0hdKFtDSDNdKVtDSDNd

> <s_epik_cmdline>
J2VwaWtfcHl0aG9uJywgJy1waCcsICc3LjAnLCAnLXRuJywgJzgnLCAnLW1hJywgJzIwMCcsICctbWV0YWxfYmluZGluZycsICctaW1hZScsICc8aW5maWxlLm1hZT4nLCAnLW9tYWUnLCAnPG91dGZpbGUubWFlPic=

> <r_lp_tautomer_probability>
1

> <r_epik_Ionization_Penalty>
0.000286846

> <r_epik_Ionization_Penalty_Charging>
0.000224481

> <r_epik_Ionization_Penalty_Neutral>
6.23655e-05

> <r_epik_State_Penalty>
-0

> <r_epik_Charging_Adjusted_Penalty>
0.000224481

> <i_epik_Tot_Q>
-1

> <i_epik_Tot_abs_Q>
1

> <r_epik_Metal_State_Penalty>
-0

> <b_epik_Metal_Only>
0

> <s_lp_Force_Field>
OPLS_2005

> <r_lp_Energy>
13.265

> <b_lp_Chiralities_Consistent>
1

> <s_lp_Variant>
AV-unprocessed.smi:2892-4

> <Gold.Version>
5.8.1

> <Gold.Id.Protein>
6NUR|6NUR_protein|mol2

> <Gold.PLP.Fitness>
43.6399

> <Gold.PLP.PLP>
-29.7927

> <Gold.PLP.part.hbond>
-3.4359

> <Gold.PLP.part.metal>
0.0000

> <Gold.PLP.part.buried>
-2.7697

> <Gold.PLP.part.nonpolar>
-23.1427

> <Gold.PLP.part.repulsive>
0.0566

> <Gold.PLP.ligand.clash>
0.0000

> <Gold.PLP.ligand.torsion>
0.6456

> <Gold.PLP.Chemscore.Hbond>
5.0000

> <Gold.PLP.Chemscore.CHOScore>
0.0000

> <Gold.PLP.Chemscore.Metal>
0.0000

> <Gold.Chemscore.Hbonds>
donor molecule, donor type, donor heavy atom, donor atom, acceptor molecule, acceptor atom, score
      P1  H  6896  6909       L1     8  1.00
      P1  H  6931  6943       L1    20  2.00
      P1  H  6934  6947       L1    19  1.98

> <Gold.PLP.Chemscore.Internal.Correction>
0.1383

> <Gold.Rescore>
     Score         DG    S(hbond)    S(metal)    S(lipo)     H(rot)  DE(clash)    DE(int)     intcor
     14.44     -15.81       2.61        0.00      65.89       2.39       0.17       1.20       ----

> <Gold.Chemscore.Fitness>
14.4380

> <Gold.Chemscore.DG>
-15.8090

> <Gold.Chemscore.ZeroCoef>
-5.4800

> <Gold.Chemscore.Hbond>
2.6136

> <Gold.Chemscore.Metal>
0.0000

> <Gold.Chemscore.Lipo>
65.8881

> <Gold.Chemscore.Internal_Hbond>
0.0000

> <Gold.Chemscore.DEClash>
0.1683

> <Gold.Chemscore.DEInternal>
1.2027

> <Gold.Chemscore.Rot>
2.3865

> <Gold.Chemscore.Internal.Correction>
   9.000000E+99

> <Gold.Chemscore.Hbonds>
donor molecule, donor type, donor heavy atom, donor atom, acceptor molecule, acceptor atom, score
      P1  H  6896  6909       L1     8  0.83
      P1  H  6931  6943       L1    20  0.55
      P1  H  6934  6947       L1    19  0.32

> <Gold.Chemscore.Hbond.Weighted>
-8.7294

> <Gold.Chemscore.Metal.Weighted>
-0.0000

> <Gold.Chemscore.Lipo.Weighted>
-7.7089

> <Gold.Chemscore.Internal_Hbond.Weighted>
0.0000

> <Gold.Chemscore.DEClash.Weighted>
0.1683

> <Gold.Chemscore.DEInternal.Weighted>
1.2027

> <Gold.Chemscore.Rot.Weighted>
6.1093

> <Gold.Chemscore.Internal.Correction.Weighted>
   9.000000E+99

> <Gold.Protein.RotatedTorsions>
[ 6907 6896 6895 6894 ] final   47.45 input  -60.11 | X-H torsion
[ 7974 7965 7964 7962 ] final  172.76 input  175.53 | X-H torsion
[ 8008 7997 7996 7995 ] final   76.58 input   59.86 | X-H torsion
[ 10167 10162 10161 10158 ] final  -10.93 input  -65.29 | X-H torsion
[ 10718 10713 10712 10709 ] final  -87.95 input   66.30 | X-H torsion
[ 10763 10752 10751 10750 ] final  -68.04 input  -60.55 | X-H torsion
[ 11005 11000 10999 10996 ] final -176.29 input  -57.11 | X-H torsion

> <Gold.Protein.ActiveResidues>
 VAL166  LYS551  ARG553  GLY616  TRP617  ASP618  TYR619  PRO620  LYS621  CYS622 
 ASP623  PHE694  ASN695  SER759  ASP760  ASP761  ALA762  ILE779  LEU786  VAL792 
 PHE793  MET794  SER795  GLU796  ALA797  LYS798  CYS799  TRP800  GLU811  SER814 

> <Gold.Protein.RotatedAtoms>
  152.2681  134.7962  160.0418 H   0  0  0  0  0  0  0  0  0  0  0  0  # atno 6907 bound_to 6896
  151.8584  133.3447  159.3704 H   0  0  0  0  0  0  0  0  0  0  0  0  # atno 6908 bound_to 6896
  150.7141  134.5158  159.5673 H   0  0  0  0  0  0  0  0  0  0  0  0  # atno 6909 bound_to 6896
  144.7260  139.9546  143.6433 H   0  0  0  0  0  0  0  0  0  0  0  0  # atno 7974 bound_to 7965
  155.8293  140.3467  155.5562 H   0  0  0  0  0  0  0  0  0  0  0  0  # atno 8008 bound_to 7997
  155.8259  140.0920  157.1841 H   0  0  0  0  0  0  0  0  0  0  0  0  # atno 8009 bound_to 7997
  154.4004  140.1421  156.3543 H   0  0  0  0  0  0  0  0  0  0  0  0  # atno 8010 bound_to 7997
  140.7126  143.5694  150.9109 H   0  0  0  0  0  0  0  0  0  0  0  0  # atno 10167 bound_to 10162
  155.9984  130.4818  150.4945 H   0  0  0  0  0  0  0  0  0  0  0  0  # atno 10718 bound_to 10713
  154.3833  135.6069  153.5803 H   0  0  0  0  0  0  0  0  0  0  0  0  # atno 10763 bound_to 10752
  152.9788  135.5866  154.4384 H   0  0  0  0  0  0  0  0  0  0  0  0  # atno 10764 bound_to 10752
  154.4157  135.2845  155.1986 H   0  0  0  0  0  0  0  0  0  0  0  0  # atno 10765 bound_to 10752
  140.4537  134.6319  157.4812 H   0  0  0  0  0  0  0  0  0  0  0  0  # atno 11005 bound_to 11000
  146.0685  139.3675  143.0538 LP  0  0  0  0  0  0  0  0  0  0  0  0  # atno 17320 bound_to 7965
  145.7999  140.9775  143.1004 LP  0  0  0  0  0  0  0  0  0  0  0  0  # atno 17321 bound_to 7965
  139.9420  143.6371  152.3051 LP  0  0  0  0  0  0  0  0  0  0  0  0  # atno 17342 bound_to 10162
  139.6859  144.7651  151.1525 LP  0  0  0  0  0  0  0  0  0  0  0  0  # atno 17343 bound_to 10162
  157.2936  131.0631  151.2117 LP  0  0  0  0  0  0  0  0  0  0  0  0  # atno 17370 bound_to 10713
  157.3120  130.6895  149.6221 LP  0  0  0  0  0  0  0  0  0  0  0  0  # atno 17371 bound_to 10713
  139.9990  134.6866  155.9561 LP  0  0  0  0  0  0  0  0  0  0  0  0  # atno 17394 bound_to 11000
  141.1652  133.6537  156.4457 LP  0  0  0  0  0  0  0  0  0  0  0  0  # atno 17395 bound_to 11000

$$$$
