AV-unprocessed.smi:46|AV-procd|sdf|419|dock1
  -GOLD-   2262016293D 1   1.00000     0.00000
 Structure written by MMmdl.
 35 36  0  0  0  0  0  0  0  0  2 V2000
  152.7096  143.3213  160.7092 C   0  0  0  0  0  0  0  0  0  0  0  0
  152.4092  141.9032  160.2007 C   0  0  0  0  0  0  0  0  0  0  0  0
  153.6210  140.9706  160.3452 C   0  0  0  0  0  0  0  0  0  0  0  0
  151.9431  141.9348  158.8228 N   0  0  0  0  0  0  0  0  0  0  0  0
  151.5865  140.8806  158.0069 C   0  0  0  0  0  0  0  0  0  0  0  0
  151.2107  141.3984  156.7985 C   0  0  0  0  0  0  0  0  0  0  0  0
  150.7400  140.6843  155.5578 C   0  0  2  0  0  0  0  0  0  0  0  0
  149.3908  141.1915  155.0465 C   0  0  0  0  0  0  0  0  0  0  0  0
  148.9013  140.1318  154.1483 N   0  3  0  0  0  0  0  0  0  0  0  0
  149.5704  138.8695  154.5276 C   0  0  0  0  0  0  0  0  0  0  0  0
  150.4707  139.1876  155.7356 C   0  0  1  0  0  0  0  0  0  0  0  0
  151.7428  138.3257  155.8172 C   0  0  0  0  0  0  0  0  0  0  0  0
  152.7582  138.8815  155.0098 O   0  0  0  0  0  0  0  0  0  0  0  0
  151.3738  142.8011  156.9797 C   0  0  0  0  0  0  0  0  0  0  0  0
  151.8086  143.1181  158.1873 N   0  0  0  0  0  0  0  0  0  0  0  0
  151.4710  140.8085  154.7565 H   0  0  0  0  0  0  0  0  0  0  0  0
  149.8809  139.0467  156.6436 H   0  0  0  0  0  0  0  0  0  0  0  0
  153.0025  143.3060  161.7592 H   0  0  0  0  0  0  0  0  0  0  0  0
  151.8325  143.9634  160.6217 H   0  0  0  0  0  0  0  0  0  0  0  0
  153.5200  143.7856  160.1465 H   0  0  0  0  0  0  0  0  0  0  0  0
  151.6050  141.4968  160.8170 H   0  0  0  0  0  0  0  0  0  0  0  0
  153.9349  140.8968  161.3866 H   0  0  0  0  0  0  0  0  0  0  0  0
  154.4728  141.3294  159.7667 H   0  0  0  0  0  0  0  0  0  0  0  0
  153.3838  139.9636  160.0007 H   0  0  0  0  0  0  0  0  0  0  0  0
  151.6304  139.8576  158.3510 H   0  0  0  0  0  0  0  0  0  0  0  0
  148.6785  141.2892  155.8670 H   0  0  0  0  0  0  0  0  0  0  0  0
  149.4600  142.1565  154.5436 H   0  0  0  0  0  0  0  0  0  0  0  0
  147.8977  140.0452  154.2230 H   0  0  0  0  0  0  0  0  0  0  0  0
  148.8414  138.0917  154.7575 H   0  0  0  0  0  0  0  0  0  0  0  0
  150.1613  138.5307  153.6757 H   0  0  0  0  0  0  0  0  0  0  0  0
  152.0999  138.2444  156.8443 H   0  0  0  0  0  0  0  0  0  0  0  0
  151.5383  137.3142  155.4653 H   0  0  0  0  0  0  0  0  0  0  0  0
  152.7091  138.4892  154.1509 H   0  0  0  0  0  0  0  0  0  0  0  0
  151.1897  143.5949  156.2709 H   0  0  0  0  0  0  0  0  0  0  0  0
  149.1540  140.3572  153.1967 H   0  0  0  0  0  0  0  0  0  0  0  0
  1  2  1  0  0  0  0
  1 18  1  0  0  0  0
  1 19  1  0  0  0  0
  1 20  1  0  0  0  0
  2  3  1  0  0  0  0
  2  4  1  0  0  0  0
  2 21  1  0  0  0  0
  3 22  1  0  0  0  0
  3 23  1  0  0  0  0
  3 24  1  0  0  0  0
  4 15  1  0  0  0  0
  4  5  1  0  0  0  0
  5  6  2  0  0  0  0
  5 25  1  0  0  0  0
  6  7  1  0  0  0  0
  6 14  1  0  0  0  0
  7 16  1  0  0  0  0
  7 11  1  0  0  0  0
  7  8  1  0  0  0  0
  8  9  1  0  0  0  0
  8 26  1  0  0  0  0
  8 27  1  0  0  0  0
  9 10  1  0  0  0  0
  9 28  1  0  0  0  0
  9 35  1  0  0  0  0
 10 11  1  0  0  0  0
 10 29  1  0  0  0  0
 10 30  1  0  0  0  0
 11 17  1  0  0  0  0
 11 12  1  0  0  0  0
 12 13  1  0  0  0  0
 12 31  1  0  0  0  0
 12 32  1  0  0  0  0
 13 33  1  0  0  0  0
 14 15  2  0  0  0  0
 14 34  1  0  0  0  0
M  CHG  1   9   1
M  END
> <s_m_source_file>
AV-unprocessed.smi

> <i_m_source_file_index>
46

> <i_lp_mmshare_version>
43012

> <i_f3d_flags>
0

> <s_epik_input>
W0NIM11bQ0hdKFtDSDNdKW4xW2NIXWMoW2NIXW4xKVtDQEBIXTJbQ0gyXVtOSF1bQ0gyXVtDQEhdMltDSDJdW09IXQ==

> <s_epik_cmdline>
J2VwaWtfcHl0aG9uJywgJy1waCcsICc3LjAnLCAnLXRuJywgJzgnLCAnLW1hJywgJzIwMCcsICctbWV0YWxfYmluZGluZycsICctaW1hZScsICc8aW5maWxlLm1hZT4nLCAnLW9tYWUnLCAnPG91dGZpbGUubWFlPic=

> <r_lp_tautomer_probability>
1

> <r_epik_Ionization_Penalty>
0.000236226

> <r_epik_Ionization_Penalty_Charging>
0.00021985

> <r_epik_Ionization_Penalty_Neutral>
1.63752e-05

> <r_epik_State_Penalty>
-0

> <r_epik_Charging_Adjusted_Penalty>
0.00021985

> <i_epik_Tot_Q>
1

> <i_epik_Tot_abs_Q>
1

> <r_epik_Metal_State_Penalty>
-0

> <b_epik_Metal_Only>
0

> <s_lp_Force_Field>
OPLS_2005

> <r_lp_Energy>
29.3902

> <b_lp_Chiralities_Consistent>
1

> <s_lp_Variant>
AV-unprocessed.smi:46-1

> <Gold.Version>
5.8.1

> <Gold.Id.Protein>
6NUR|6NUR_protein|mol2

> <Gold.PLP.Fitness>
43.8127

> <Gold.PLP.PLP>
-35.6335

> <Gold.PLP.part.hbond>
-3.0000

> <Gold.PLP.part.metal>
0.0000

> <Gold.PLP.part.buried>
-2.0558

> <Gold.PLP.part.nonpolar>
-30.0278

> <Gold.PLP.part.repulsive>
0.1848

> <Gold.PLP.ligand.clash>
0.0000

> <Gold.PLP.ligand.torsion>
0.4306

> <Gold.PLP.Chemscore.Hbond>
2.0000

> <Gold.PLP.Chemscore.CHOScore>
1.0000

> <Gold.PLP.Chemscore.Metal>
0.0000

> <Gold.Chemscore.Hbonds>
donor molecule, donor type, donor heavy atom, donor atom, acceptor molecule, acceptor atom, score
      L1  H     9    35       P1  7957  0.80
      P1  H  7997  8009       L1    13  0.04
      L1  C    14    34       P1  8028  0.76

> <Gold.PLP.Chemscore.Internal.Correction>
0.0404

> <Gold.Rescore>
     Score         DG    S(hbond)    S(metal)    S(lipo)     H(rot)  DE(clash)    DE(int)     intcor
     16.75     -17.58       1.93        0.00      89.78       1.90       0.37       0.46       ----

> <Gold.Chemscore.Fitness>
16.7499

> <Gold.Chemscore.DG>
-17.5821

> <Gold.Chemscore.ZeroCoef>
-5.4800

> <Gold.Chemscore.Hbond>
1.9329

> <Gold.Chemscore.Metal>
0.0000

> <Gold.Chemscore.Lipo>
89.7778

> <Gold.Chemscore.Internal_Hbond>
0.0000

> <Gold.Chemscore.DEClash>
0.3725

> <Gold.Chemscore.DEInternal>
0.4596

> <Gold.Chemscore.Rot>
1.8976

> <Gold.Chemscore.Internal.Correction>
   9.000000E+99

> <Gold.Chemscore.Hbonds>
donor molecule, donor type, donor heavy atom, donor atom, acceptor molecule, acceptor atom, score
      L1  H     9    35       P1  7957  0.78
      P1  H  7997  8009       L1    13  0.09

> <Gold.Chemscore.Hbond.Weighted>
-6.4559

> <Gold.Chemscore.Metal.Weighted>
-0.0000

> <Gold.Chemscore.Lipo.Weighted>
-10.5040

> <Gold.Chemscore.Internal_Hbond.Weighted>
0.0000

> <Gold.Chemscore.DEClash.Weighted>
0.3725

> <Gold.Chemscore.DEInternal.Weighted>
0.4596

> <Gold.Chemscore.Rot.Weighted>
4.8579

> <Gold.Chemscore.Internal.Correction.Weighted>
   9.000000E+99

> <Gold.Protein.RotatedTorsions>
[ 6907 6896 6895 6894 ] final  -98.79 input  -60.11 | X-H torsion
[ 7974 7965 7964 7962 ] final -135.90 input  175.53 | X-H torsion
[ 8008 7997 7996 7995 ] final -116.20 input   59.86 | X-H torsion
[ 10167 10162 10161 10158 ] final   60.86 input  -65.29 | X-H torsion
[ 10718 10713 10712 10709 ] final -103.94 input   66.30 | X-H torsion
[ 10763 10752 10751 10750 ] final -103.25 input  -60.55 | X-H torsion
[ 11005 11000 10999 10996 ] final  178.51 input  -57.11 | X-H torsion

> <Gold.Protein.ActiveResidues>
 VAL166  LYS551  ARG553  GLY616  TRP617  ASP618  TYR619  PRO620  LYS621  CYS622 
 ASP623  PHE694  ASN695  SER759  ASP760  ASP761  ALA762  ILE779  LEU786  VAL792 
 PHE793  MET794  SER795  GLU796  ALA797  LYS798  CYS799  TRP800  GLU811  SER814 

> <Gold.Protein.RotatedAtoms>
  150.7058  134.1140  159.4010 H   0  0  0  0  0  0  0  0  0  0  0  0  # atno 6907 bound_to 6896
  151.9127  135.0330  160.0525 H   0  0  0  0  0  0  0  0  0  0  0  0  # atno 6908 bound_to 6896
  152.2322  133.5032  159.5259 H   0  0  0  0  0  0  0  0  0  0  0  0  # atno 6909 bound_to 6896
  144.8973  140.6724  143.5107 H   0  0  0  0  0  0  0  0  0  0  0  0  # atno 7974 bound_to 7965
  155.0641  140.0393  157.2587 H   0  0  0  0  0  0  0  0  0  0  0  0  # atno 8008 bound_to 7997
  154.7035  140.2678  155.6672 H   0  0  0  0  0  0  0  0  0  0  0  0  # atno 8009 bound_to 7997
  156.2768  140.2736  156.1654 H   0  0  0  0  0  0  0  0  0  0  0  0  # atno 8010 bound_to 7997
  140.1610  144.4370  150.6709 H   0  0  0  0  0  0  0  0  0  0  0  0  # atno 10167 bound_to 10162
  156.0285  130.5491  150.7326 H   0  0  0  0  0  0  0  0  0  0  0  0  # atno 10718 bound_to 10713
  154.7794  135.4830  153.9812 H   0  0  0  0  0  0  0  0  0  0  0  0  # atno 10763 bound_to 10752
  153.1472  135.6784  153.8943 H   0  0  0  0  0  0  0  0  0  0  0  0  # atno 10764 bound_to 10752
  153.8599  135.3156  155.3415 H   0  0  0  0  0  0  0  0  0  0  0  0  # atno 10765 bound_to 10752
  140.3959  134.6820  157.4534 H   0  0  0  0  0  0  0  0  0  0  0  0  # atno 11005 bound_to 11000
  145.3677  139.1666  143.4349 LP  0  0  0  0  0  0  0  0  0  0  0  0  # atno 17320 bound_to 7965
  146.3089  140.3746  142.8677 LP  0  0  0  0  0  0  0  0  0  0  0  0  # atno 17321 bound_to 7965
  140.6643  143.2262  151.5781 LP  0  0  0  0  0  0  0  0  0  0  0  0  # atno 17342 bound_to 10162
  139.5381  144.2724  152.1294 LP  0  0  0  0  0  0  0  0  0  0  0  0  # atno 17343 bound_to 10162
  157.4914  131.0911  151.0422 LP  0  0  0  0  0  0  0  0  0  0  0  0  # atno 17370 bound_to 10713
  157.0827  130.5910  149.5424 LP  0  0  0  0  0  0  0  0  0  0  0  0  # atno 17371 bound_to 10713
  140.0372  134.6320  155.9028 LP  0  0  0  0  0  0  0  0  0  0  0  0  # atno 17394 bound_to 11000
  141.1874  133.6560  156.5280 LP  0  0  0  0  0  0  0  0  0  0  0  0  # atno 17395 bound_to 11000

$$$$
