AV-unprocessed.smi:2889|AV-procd|sdf|11108|dock7
  -GOLD-   2272015573D 1   1.00000     0.00000
 Structure written by MMmdl.
 36 37  0  0  0  0  0  0  0  0  1 V2000
  150.3228  144.5826  159.9633 C   0  0  0  0  0  0  0  0  0  0  0  0
  152.1109  144.3465  159.7738 S   0  0  0  0  0  0  0  0  0  0  0  0
  152.2699  142.5611  160.0992 C   0  0  2  0  0  0  0  0  0  0  0  0
  153.7161  142.2444  160.5255 C   0  0  0  0  0  0  0  0  0  0  0  0
  153.9266  140.7431  160.7705 C   0  0  0  0  0  0  0  0  0  0  0  0
  153.5491  139.9263  159.5270 C   0  0  0  0  0  0  0  0  0  0  0  0
  152.1020  140.2121  159.1007 C   0  0  0  0  0  0  0  0  0  0  0  0
  151.8626  141.7167  158.8680 C   0  0  1  0  0  0  0  0  0  0  0  0
  150.4486  141.9320  158.5499 N   0  0  0  0  0  0  0  0  0  0  0  0
  149.7330  141.0316  157.2655 S   0  0  0  0  0  0  0  0  0  0  0  0
  149.7745  139.6089  157.6378 O   0  0  0  0  0  0  0  0  0  0  0  0
  148.4483  141.6686  156.9385 O   0  0  0  0  0  0  0  0  0  0  0  0
  150.9175  141.3088  155.8827 C   0  0  0  0  0  0  0  0  0  0  0  0
  151.2999  139.9892  155.2767 C   0  0  0  0  0  0  0  0  0  0  0  0
  150.4873  139.0911  154.5308 C   0  0  0  0  0  0  0  0  0  0  0  0
  151.3377  138.0657  154.2321 C   0  0  0  0  0  0  0  0  0  0  0  0
  152.5693  138.3035  154.7502 O   0  0  0  0  0  0  0  0  0  0  0  0
  152.5350  139.5336  155.4169 N   0  0  0  0  0  0  0  0  0  0  0  0
  150.0685  145.6320  159.8154 H   0  0  0  0  0  0  0  0  0  0  0  0
  150.0037  144.2894  160.9635 H   0  0  0  0  0  0  0  0  0  0  0  0
  149.7699  143.9923  159.2336 H   0  0  0  0  0  0  0  0  0  0  0  0
  151.6159  142.3123  160.9364 H   0  0  0  0  0  0  0  0  0  0  0  0
  154.4085  142.5831  159.7534 H   0  0  0  0  0  0  0  0  0  0  0  0
  153.9674  142.8009  161.4290 H   0  0  0  0  0  0  0  0  0  0  0  0
  154.9665  140.5530  161.0382 H   0  0  0  0  0  0  0  0  0  0  0  0
  153.3239  140.4207  161.6206 H   0  0  0  0  0  0  0  0  0  0  0  0
  154.2273  140.1691  158.7079 H   0  0  0  0  0  0  0  0  0  0  0  0
  153.6744  138.8620  159.7282 H   0  0  0  0  0  0  0  0  0  0  0  0
  151.8712  139.6508  158.1945 H   0  0  0  0  0  0  0  0  0  0  0  0
  151.4225  139.8455  159.8716 H   0  0  0  0  0  0  0  0  0  0  0  0
  152.4695  142.0377  158.0203 H   0  0  0  0  0  0  0  0  0  0  0  0
  149.8728  141.8988  159.3907 H   0  0  0  0  0  0  0  0  0  0  0  0
  150.4468  141.9652  155.1502 H   0  0  0  0  0  0  0  0  0  0  0  0
  151.7923  141.8240  156.2791 H   0  0  0  0  0  0  0  0  0  0  0  0
  149.4476  139.1868  154.2552 H   0  0  0  0  0  0  0  0  0  0  0  0
  151.2226  137.1412  153.6861 H   0  0  0  0  0  0  0  0  0  0  0  0
  1  2  1  0  0  0  0
  1 19  1  0  0  0  0
  1 20  1  0  0  0  0
  1 21  1  0  0  0  0
  2  3  1  0  0  0  0
  3  8  1  0  0  0  0
  3  4  1  0  0  0  0
  3 22  1  0  0  0  0
  4  5  1  0  0  0  0
  4 23  1  0  0  0  0
  4 24  1  0  0  0  0
  5  6  1  0  0  0  0
  5 25  1  0  0  0  0
  5 26  1  0  0  0  0
  6  7  1  0  0  0  0
  6 27  1  0  0  0  0
  6 28  1  0  0  0  0
  7  8  1  0  0  0  0
  7 29  1  0  0  0  0
  7 30  1  0  0  0  0
  8  9  1  0  0  0  0
  8 31  1  0  0  0  0
  9 10  1  0  0  0  0
  9 32  1  0  0  0  0
 10 11  2  0  0  0  0
 10 12  2  0  0  0  0
 10 13  1  0  0  0  0
 13 14  1  0  0  0  0
 13 33  1  0  0  0  0
 13 34  1  0  0  0  0
 14 18  2  0  0  0  0
 14 15  1  0  0  0  0
 15 16  2  0  0  0  0
 15 35  1  0  0  0  0
 16 17  1  0  0  0  0
 16 36  1  0  0  0  0
 17 18  1  0  0  0  0
M  END
> <s_m_source_file>
AV-unprocessed.smi

> <i_m_source_file_index>
2889

> <i_lp_mmshare_version>
43012

> <i_f3d_flags>
0

> <s_epik_input>
W0NIM11TW0NAQEhdMVtDSDJdW0NIMl1bQ0gyXVtDSDJdW0NASF0xW05IXVMoPU8pKD1PKVtDSDJdYzJbY0hdW2NIXW9uMg==

> <s_epik_cmdline>
J2VwaWtfcHl0aG9uJywgJy1waCcsICc3LjAnLCAnLXRuJywgJzgnLCAnLW1hJywgJzIwMCcsICctbWV0YWxfYmluZGluZycsICctaW1hZScsICc8aW5maWxlLm1hZT4nLCAnLW9tYWUnLCAnPG91dGZpbGUubWFlPic=

> <r_lp_tautomer_probability>
1

> <r_epik_Ionization_Penalty>
0.000229547

> <r_epik_Ionization_Penalty_Charging>
0

> <r_epik_Ionization_Penalty_Neutral>
0.000229547

> <r_epik_State_Penalty>
-0

> <r_epik_Charging_Adjusted_Penalty>
0

> <i_epik_Tot_Q>
0

> <i_epik_Tot_abs_Q>
0

> <r_epik_Metal_State_Penalty>
0.145979

> <b_epik_Metal_Only>
0

> <s_lp_Force_Field>
OPLS_2005

> <r_lp_Energy>
3.33114

> <b_lp_Chiralities_Consistent>
1

> <s_lp_Variant>
AV-unprocessed.smi:2889-1

> <Gold.Version>
5.8.1

> <Gold.Id.Protein>
6NUR|6NUR_protein|mol2

> <Gold.PLP.Fitness>
44.0241

> <Gold.PLP.PLP>
-39.0932

> <Gold.PLP.part.hbond>
-1.7816

> <Gold.PLP.part.metal>
0.0000

> <Gold.PLP.part.buried>
-4.7664

> <Gold.PLP.part.nonpolar>
-31.9718

> <Gold.PLP.part.repulsive>
0.1393

> <Gold.PLP.ligand.clash>
0.0000

> <Gold.PLP.ligand.torsion>
0.5454

> <Gold.PLP.Chemscore.Hbond>
1.0000

> <Gold.PLP.Chemscore.CHOScore>
0.9544

> <Gold.PLP.Chemscore.Metal>
0.0000

> <Gold.Chemscore.Hbonds>
donor molecule, donor type, donor heavy atom, donor atom, acceptor molecule, acceptor atom, score
      P1  H  7997  8009       L1    18  0.93
      L1  C    16    36       P1  7949  1.00

> <Gold.PLP.Chemscore.Internal.Correction>
0.1586

> <Gold.Rescore>
     Score         DG    S(hbond)    S(metal)    S(lipo)     H(rot)  DE(clash)    DE(int)     intcor
     14.03     -16.33       0.98        0.00     104.26       1.81       0.16       2.15       ----

> <Gold.Chemscore.Fitness>
14.0272

> <Gold.Chemscore.DG>
-16.3345

> <Gold.Chemscore.ZeroCoef>
-5.4800

> <Gold.Chemscore.Hbond>
0.9817

> <Gold.Chemscore.Metal>
0.0000

> <Gold.Chemscore.Lipo>
104.2606

> <Gold.Chemscore.Internal_Hbond>
0.0000

> <Gold.Chemscore.DEClash>
0.1611

> <Gold.Chemscore.DEInternal>
2.1462

> <Gold.Chemscore.Rot>
1.8058

> <Gold.Chemscore.Internal.Correction>
   9.000000E+99

> <Gold.Chemscore.Hbonds>
donor molecule, donor type, donor heavy atom, donor atom, acceptor molecule, acceptor atom, score
      P1  H  7997  8009       L1    18  0.78

> <Gold.Chemscore.Hbond.Weighted>
-3.2789

> <Gold.Chemscore.Metal.Weighted>
-0.0000

> <Gold.Chemscore.Lipo.Weighted>
-12.1985

> <Gold.Chemscore.Internal_Hbond.Weighted>
0.0000

> <Gold.Chemscore.DEClash.Weighted>
0.1611

> <Gold.Chemscore.DEInternal.Weighted>
2.1462

> <Gold.Chemscore.Rot.Weighted>
4.6228

> <Gold.Chemscore.Internal.Correction.Weighted>
   9.000000E+99

> <Gold.Protein.RotatedTorsions>
[ 6907 6896 6895 6894 ] final  -44.37 input  -60.11 | X-H torsion
[ 7974 7965 7964 7962 ] final  127.41 input  175.53 | X-H torsion
[ 8008 7997 7996 7995 ] final -153.29 input   59.86 | X-H torsion
[ 10167 10162 10161 10158 ] final   -8.78 input  -65.29 | X-H torsion
[ 10718 10713 10712 10709 ] final  -10.14 input   66.30 | X-H torsion
[ 10763 10752 10751 10750 ] final -123.15 input  -60.55 | X-H torsion
[ 11005 11000 10999 10996 ] final -103.86 input  -57.11 | X-H torsion

> <Gold.Protein.ActiveResidues>
 VAL166  LYS551  ARG553  GLY616  TRP617  ASP618  TYR619  PRO620  LYS621  CYS622 
 ASP623  PHE694  ASN695  SER759  ASP760  ASP761  ALA762  ILE779  LEU786  VAL792 
 PHE793  MET794  SER795  GLU796  ALA797  LYS798  CYS799  TRP800  GLU811  SER814 

> <Gold.Protein.RotatedAtoms>
  150.9336  134.8750  159.7566 H   0  0  0  0  0  0  0  0  0  0  0  0  # atno 6907 bound_to 6896
  152.5049  134.4043  159.9437 H   0  0  0  0  0  0  0  0  0  0  0  0  # atno 6908 bound_to 6896
  151.4068  133.3700  159.2774 H   0  0  0  0  0  0  0  0  0  0  0  0  # atno 6909 bound_to 6896
  145.0509  139.3883  143.5054 H   0  0  0  0  0  0  0  0  0  0  0  0  # atno 7974 bound_to 7965
  155.6685  140.0730  157.2529 H   0  0  0  0  0  0  0  0  0  0  0  0  # atno 8008 bound_to 7997
  154.4128  140.1703  156.1904 H   0  0  0  0  0  0  0  0  0  0  0  0  # atno 8009 bound_to 7997
  155.9637  140.3368  155.6516 H   0  0  0  0  0  0  0  0  0  0  0  0  # atno 8010 bound_to 7997
  140.7069  143.5930  150.8874 H   0  0  0  0  0  0  0  0  0  0  0  0  # atno 10167 bound_to 10162
  156.6778  130.5028  149.5980 H   0  0  0  0  0  0  0  0  0  0  0  0  # atno 10718 bound_to 10713
  154.8703  135.4108  154.2897 H   0  0  0  0  0  0  0  0  0  0  0  0  # atno 10763 bound_to 10752
  153.3775  135.7010  153.6596 H   0  0  0  0  0  0  0  0  0  0  0  0  # atno 10764 bound_to 10752
  153.5432  135.3644  155.2699 H   0  0  0  0  0  0  0  0  0  0  0  0  # atno 10765 bound_to 10752
  141.1127  133.8675  157.1539 H   0  0  0  0  0  0  0  0  0  0  0  0  # atno 11005 bound_to 11000
  146.3518  140.0159  142.8663 LP  0  0  0  0  0  0  0  0  0  0  0  0  # atno 17320 bound_to 7965
  145.1528  140.9632  143.4423 LP  0  0  0  0  0  0  0  0  0  0  0  0  # atno 17321 bound_to 7965
  139.9656  143.6115  152.2989 LP  0  0  0  0  0  0  0  0  0  0  0  0  # atno 17342 bound_to 10162
  139.6683  144.7661  151.1831 LP  0  0  0  0  0  0  0  0  0  0  0  0  # atno 17343 bound_to 10162
  156.1890  130.6547  151.1039 LP  0  0  0  0  0  0  0  0  0  0  0  0  # atno 17370 bound_to 10713
  157.7054  131.0758  150.6683 LP  0  0  0  0  0  0  0  0  0  0  0  0  # atno 17371 bound_to 10713
  140.0030  135.0020  157.0230 LP  0  0  0  0  0  0  0  0  0  0  0  0  # atno 17394 bound_to 11000
  140.4732  134.1365  155.7206 LP  0  0  0  0  0  0  0  0  0  0  0  0  # atno 17395 bound_to 11000

$$$$
