AV-unprocessed.smi:1363|AV-procd|sdf|5564|dock5
  -GOLD-   22720 5153D 1   1.00000     0.00000
 Structure written by MMmdl.
 44 45  0  0  0  0  0  0  0  0  1 V2000
  147.0336  139.0824  151.3378 C   0  0  0  0  0  0  0  0  0  0  0  0
  147.2875  139.8745  152.6028 C   0  0  0  0  0  0  0  0  0  0  0  0
  146.8158  141.0583  152.8187 N   0  0  0  0  0  0  0  0  0  0  0  0
  147.1240  141.6957  154.0286 C   0  0  0  0  0  0  0  0  0  0  0  0
  146.5400  143.0871  154.2048 C   0  0  0  0  0  0  0  0  0  0  0  0
  147.9025  141.0953  154.9763 C   0  0  0  0  0  0  0  0  0  0  0  0
  148.2607  141.7680  156.3008 C   0  0  0  0  0  0  0  0  0  0  0  0
  149.7540  141.8337  156.6304 C   0  0  0  0  0  0  0  0  0  0  0  0
  150.3633  140.8169  156.9637 O   0  0  0  0  0  0  0  0  0  0  0  0
  150.3343  143.0384  156.5235 N   0  0  0  0  0  0  0  0  0  0  0  0
  151.7468  143.3106  156.7608 C   0  0  0  0  0  0  0  0  0  0  0  0
  151.9355  144.3888  157.8463 C   0  0  0  0  0  0  0  0  0  0  0  0
  152.2655  143.8740  159.2438 C   0  0  0  0  0  0  0  0  0  0  0  0
  151.9204  144.5025  160.3882 C   0  0  0  0  0  0  0  0  0  0  0  0
  152.2200  143.9707  161.7791 C   0  0  0  0  0  0  0  0  0  0  0  0
  152.6304  142.4895  161.7657 C   0  0  0  0  0  0  0  0  0  0  0  0
  153.6206  142.2044  160.6313 C   0  0  0  0  0  0  0  0  0  0  0  0
  153.0140  142.5461  159.2589 C   0  0  0  0  0  0  0  0  0  0  0  0
  148.4346  139.7429  154.7195 C   0  0  0  0  0  0  0  0  0  0  0  0
  149.1487  139.1140  155.4989 O   0  0  0  0  0  0  0  0  0  0  0  0
  148.0876  139.2062  153.5282 N   0  0  0  0  0  0  0  0  0  0  0  0
  148.4292  138.2829  153.3042 H   0  0  0  0  0  0  0  0  0  0  0  0
  147.4030  139.6314  150.4714 H   0  0  0  0  0  0  0  0  0  0  0  0
  145.9642  138.9154  151.2081 H   0  0  0  0  0  0  0  0  0  0  0  0
  147.5305  138.1115  151.3631 H   0  0  0  0  0  0  0  0  0  0  0  0
  145.8451  143.1073  155.0443 H   0  0  0  0  0  0  0  0  0  0  0  0
  145.9961  143.4036  153.3140 H   0  0  0  0  0  0  0  0  0  0  0  0
  147.3289  143.8164  154.3885 H   0  0  0  0  0  0  0  0  0  0  0  0
  147.8590  142.7819  156.2904 H   0  0  0  0  0  0  0  0  0  0  0  0
  147.7515  141.2773  157.1309 H   0  0  0  0  0  0  0  0  0  0  0  0
  149.7587  143.8204  156.2458 H   0  0  0  0  0  0  0  0  0  0  0  0
  152.2150  142.3768  157.0734 H   0  0  0  0  0  0  0  0  0  0  0  0
  152.2268  143.6099  155.8274 H   0  0  0  0  0  0  0  0  0  0  0  0
  152.7352  145.0680  157.5483 H   0  0  0  0  0  0  0  0  0  0  0  0
  151.0289  144.9913  157.9143 H   0  0  0  0  0  0  0  0  0  0  0  0
  151.4018  145.4486  160.3659 H   0  0  0  0  0  0  0  0  0  0  0  0
  153.0163  144.5795  162.2085 H   0  0  0  0  0  0  0  0  0  0  0  0
  151.3420  144.1048  162.4116 H   0  0  0  0  0  0  0  0  0  0  0  0
  153.0626  142.2129  162.7276 H   0  0  0  0  0  0  0  0  0  0  0  0
  151.7448  141.8662  161.6332 H   0  0  0  0  0  0  0  0  0  0  0  0
  154.5233  142.7964  160.7879 H   0  0  0  0  0  0  0  0  0  0  0  0
  153.9303  141.1593  160.6513 H   0  0  0  0  0  0  0  0  0  0  0  0
  152.3156  141.7650  158.9569 H   0  0  0  0  0  0  0  0  0  0  0  0
  153.8067  142.5648  158.5100 H   0  0  0  0  0  0  0  0  0  0  0  0
  1  2  1  0  0  0  0
  1 23  1  0  0  0  0
  1 24  1  0  0  0  0
  1 25  1  0  0  0  0
  2 21  1  0  0  0  0
  2  3  2  0  0  0  0
  3  4  1  0  0  0  0
  4  5  1  0  0  0  0
  4  6  2  0  0  0  0
  5 26  1  0  0  0  0
  5 27  1  0  0  0  0
  5 28  1  0  0  0  0
  6  7  1  0  0  0  0
  6 19  1  0  0  0  0
  7  8  1  0  0  0  0
  7 29  1  0  0  0  0
  7 30  1  0  0  0  0
  8  9  2  0  0  0  0
  8 10  1  0  0  0  0
 10 11  1  0  0  0  0
 10 31  1  0  0  0  0
 11 12  1  0  0  0  0
 11 32  1  0  0  0  0
 11 33  1  0  0  0  0
 12 13  1  0  0  0  0
 12 34  1  0  0  0  0
 12 35  1  0  0  0  0
 13 18  1  0  0  0  0
 13 14  2  0  0  0  0
 14 15  1  0  0  0  0
 14 36  1  0  0  0  0
 15 16  1  0  0  0  0
 15 37  1  0  0  0  0
 15 38  1  0  0  0  0
 16 17  1  0  0  0  0
 16 39  1  0  0  0  0
 16 40  1  0  0  0  0
 17 18  1  0  0  0  0
 17 41  1  0  0  0  0
 17 42  1  0  0  0  0
 18 43  1  0  0  0  0
 18 44  1  0  0  0  0
 19 20  2  0  0  0  0
 19 21  1  0  0  0  0
 21 22  1  0  0  0  0
M  END
> <s_m_source_file>
AV-unprocessed.smi

> <i_m_source_file_index>
1363

> <i_lp_mmshare_version>
43012

> <i_f3d_flags>
0

> <s_epik_input>
W0NIM11jMW5jKFtDSDNdKWMoYyg9TylbbkhdMSlbQ0gyXUMoPU8pW05IXVtDSDJdW0NIMl1DMj1bQ0hdW0NIMl1bQ0gyXVtDSDJdW0NIMl0y

> <s_epik_cmdline>
J2VwaWtfcHl0aG9uJywgJy1waCcsICc3LjAnLCAnLXRuJywgJzgnLCAnLW1hJywgJzIwMCcsICctbWV0YWxfYmluZGluZycsICctaW1hZScsICc8aW5maWxlLm1hZT4nLCAnLW9tYWUnLCAnPG91dGZpbGUubWFlPic=

> <r_lp_tautomer_probability>
0.839158

> <r_epik_Ionization_Penalty>
0.000390001

> <r_epik_Ionization_Penalty_Charging>
0.000357609

> <r_epik_Ionization_Penalty_Neutral>
3.23917e-05

> <r_epik_State_Penalty>
0.0470088

> <r_epik_Charging_Adjusted_Penalty>
0.0473664

> <i_epik_Tot_Q>
0

> <i_epik_Tot_abs_Q>
0

> <r_epik_Metal_State_Penalty>
0.223611

> <b_epik_Metal_Only>
0

> <s_lp_Force_Field>
OPLS_2005

> <r_lp_Energy>
9.33337

> <b_lp_Chiralities_Consistent>
1

> <s_lp_Variant>
AV-unprocessed.smi:1363-1

> <Gold.Version>
5.8.1

> <Gold.Id.Protein>
6NUR|6NUR_protein|mol2

> <Gold.PLP.Fitness>
46.8786

> <Gold.PLP.PLP>
-45.5809

> <Gold.PLP.part.hbond>
-0.9958

> <Gold.PLP.part.metal>
0.0000

> <Gold.PLP.part.buried>
-3.6719

> <Gold.PLP.part.nonpolar>
-41.7664

> <Gold.PLP.part.repulsive>
0.7011

> <Gold.PLP.ligand.clash>
0.0000

> <Gold.PLP.ligand.torsion>
0.8437

> <Gold.PLP.Chemscore.Hbond>
0.9913

> <Gold.PLP.Chemscore.CHOScore>
0.0000

> <Gold.PLP.Chemscore.Metal>
0.0000

> <Gold.Chemscore.Hbonds>
donor molecule, donor type, donor heavy atom, donor atom, acceptor molecule, acceptor atom, score
      L1  H    10    31       P1  8028  0.62

> <Gold.PLP.Chemscore.Internal.Correction>
0.0112

> <Gold.Rescore>
     Score         DG    S(hbond)    S(metal)    S(lipo)     H(rot)  DE(clash)    DE(int)     intcor
     14.04     -21.60       1.91        0.00     123.89       1.86       3.68       3.88       ----

> <Gold.Chemscore.Fitness>
14.0386

> <Gold.Chemscore.DG>
-21.6012

> <Gold.Chemscore.ZeroCoef>
-5.4800

> <Gold.Chemscore.Hbond>
1.9148

> <Gold.Chemscore.Metal>
0.0000

> <Gold.Chemscore.Lipo>
123.8926

> <Gold.Chemscore.Internal_Hbond>
0.0000

> <Gold.Chemscore.DEClash>
3.6825

> <Gold.Chemscore.DEInternal>
3.8802

> <Gold.Chemscore.Rot>
1.8631

> <Gold.Chemscore.Internal.Correction>
   9.000000E+99

> <Gold.Chemscore.Hbonds>
donor molecule, donor type, donor heavy atom, donor atom, acceptor molecule, acceptor atom, score
      L1  H    10    31       P1  8028  0.63

> <Gold.Chemscore.Hbond.Weighted>
-6.3954

> <Gold.Chemscore.Metal.Weighted>
-0.0000

> <Gold.Chemscore.Lipo.Weighted>
-14.4954

> <Gold.Chemscore.Internal_Hbond.Weighted>
0.0000

> <Gold.Chemscore.DEClash.Weighted>
3.6825

> <Gold.Chemscore.DEInternal.Weighted>
3.8802

> <Gold.Chemscore.Rot.Weighted>
4.7697

> <Gold.Chemscore.Internal.Correction.Weighted>
   9.000000E+99

> <Gold.Protein.RotatedTorsions>
[ 6907 6896 6895 6894 ] final -148.80 input  -60.11 | X-H torsion
[ 7974 7965 7964 7962 ] final  -84.35 input  175.53 | X-H torsion
[ 8008 7997 7996 7995 ] final  141.89 input   59.86 | X-H torsion
[ 10167 10162 10161 10158 ] final  -53.40 input  -65.29 | X-H torsion
[ 10718 10713 10712 10709 ] final  120.31 input   66.30 | X-H torsion
[ 10763 10752 10751 10750 ] final -145.39 input  -60.55 | X-H torsion
[ 11005 11000 10999 10996 ] final -175.99 input  -57.11 | X-H torsion

> <Gold.Protein.ActiveResidues>
 VAL166  LYS551  ARG553  GLY616  TRP617  ASP618  TYR619  PRO620  LYS621  CYS622 
 ASP623  PHE694  ASN695  SER759  ASP760  ASP761  ALA762  ILE779  LEU786  VAL792 
 PHE793  MET794  SER795  GLU796  ALA797  LYS798  CYS799  TRP800  GLU811  SER814 

> <Gold.Protein.RotatedAtoms>
  151.1749  133.4761  159.2593 H   0  0  0  0  0  0  0  0  0  0  0  0  # atno 6907 bound_to 6896
  151.1318  135.0134  159.8596 H   0  0  0  0  0  0  0  0  0  0  0  0  # atno 6908 bound_to 6896
  152.5460  134.1651  159.8627 H   0  0  0  0  0  0  0  0  0  0  0  0  # atno 6909 bound_to 6896
  145.5078  140.9542  143.1724 H   0  0  0  0  0  0  0  0  0  0  0  0  # atno 7974 bound_to 7965
  156.2958  140.2303  156.4638 H   0  0  0  0  0  0  0  0  0  0  0  0  # atno 8008 bound_to 7997
  154.7995  140.0449  157.1283 H   0  0  0  0  0  0  0  0  0  0  0  0  # atno 8009 bound_to 7997
  154.9550  140.3047  155.5060 H   0  0  0  0  0  0  0  0  0  0  0  0  # atno 8010 bound_to 7997
  140.6486  143.2551  151.4787 H   0  0  0  0  0  0  0  0  0  0  0  0  # atno 10167 bound_to 10162
  157.5900  131.1065  150.8017 H   0  0  0  0  0  0  0  0  0  0  0  0  # atno 10718 bound_to 10713
  154.8385  135.3414  154.6497 H   0  0  0  0  0  0  0  0  0  0  0  0  # atno 10763 bound_to 10752
  153.7110  135.6964  153.5042 H   0  0  0  0  0  0  0  0  0  0  0  0  # atno 10764 bound_to 10752
  153.2452  135.4371  155.0693 H   0  0  0  0  0  0  0  0  0  0  0  0  # atno 10765 bound_to 10752
  140.4571  134.6289  157.4827 H   0  0  0  0  0  0  0  0  0  0  0  0  # atno 11005 bound_to 11000
  144.7744  139.6663  143.7181 LP  0  0  0  0  0  0  0  0  0  0  0  0  # atno 17320 bound_to 7965
  146.2185  139.5593  142.9634 LP  0  0  0  0  0  0  0  0  0  0  0  0  # atno 17321 bound_to 7965
  139.5699  144.1953  152.1821 LP  0  0  0  0  0  0  0  0  0  0  0  0  # atno 17342 bound_to 10162
  140.1246  144.5343  150.6841 LP  0  0  0  0  0  0  0  0  0  0  0  0  # atno 17343 bound_to 10162
  156.8441  130.5058  149.5318 LP  0  0  0  0  0  0  0  0  0  0  0  0  # atno 17370 bound_to 10713
  156.0954  130.5928  150.9804 LP  0  0  0  0  0  0  0  0  0  0  0  0  # atno 17371 bound_to 10713
  139.9969  134.6897  155.9595 LP  0  0  0  0  0  0  0  0  0  0  0  0  # atno 17394 bound_to 11000
  141.1638  133.6537  156.4408 LP  0  0  0  0  0  0  0  0  0  0  0  0  # atno 17395 bound_to 11000

$$$$
