AV-unprocessed.smi:33|AV-procd|sdf|213|dock3
  -GOLD-   2262015513D 1   1.00000     0.00000
 Structure written by MMmdl.
 67 72  0  0  0  0  0  0  0  0  1 V2000
  152.4801  139.8225  156.6635 O   0  0  0  0  0  0  0  0  0  0  0  0
  151.5728  140.4611  157.2008 C   0  0  0  0  0  0  0  0  0  0  0  0
  150.2838  140.0669  157.2100 O   0  0  0  0  0  0  0  0  0  0  0  0
  149.8474  139.0252  156.3514 C   0  0  0  0  0  0  0  0  0  0  0  0
  148.3126  138.9809  156.3543 C   0  0  2  0  0  0  0  0  0  0  0  0
  147.8813  137.9933  157.2940 O   0  0  0  0  0  0  0  0  0  0  0  0
  147.2435  136.9336  156.6486 C   0  0  2  0  0  0  0  0  0  0  0  0
  147.6861  135.6299  157.2396 N   0  0  0  0  0  0  0  0  0  0  0  0
  148.7593  135.4235  158.0778 C   0  0  0  0  0  0  0  0  0  0  0  0
  148.9339  134.1923  158.4752 N   0  0  0  0  0  0  0  0  0  0  0  0
  147.9019  133.4940  157.8627 C   0  0  0  0  0  0  0  0  0  0  0  0
  147.4950  132.1323  157.8639 C   0  0  0  0  0  0  0  0  0  0  0  0
  148.1385  131.1736  158.5711 N   0  0  0  0  0  0  0  0  0  0  0  0
  148.6613  130.0251  157.8164 C   0  0  0  0  0  0  0  0  0  0  0  0
  148.8276  128.9461  158.3884 O   0  0  0  0  0  0  0  0  0  0  0  0
  148.9513  130.1468  156.3471 C   0  0  0  0  0  0  0  0  0  0  0  0
  148.6755  129.0670  155.4799 C   0  0  0  0  0  0  0  0  0  0  0  0
  148.9595  129.1705  154.1044 C   0  0  0  0  0  0  0  0  0  0  0  0
  149.5393  130.3461  153.5907 C   0  0  0  0  0  0  0  0  0  0  0  0
  149.8436  131.4153  154.4543 C   0  0  0  0  0  0  0  0  0  0  0  0
  149.5580  131.3134  155.8295 C   0  0  0  0  0  0  0  0  0  0  0  0
  148.2580  131.3706  160.0234 C   0  0  0  0  0  0  0  0  0  0  0  0
  149.1784  130.8262  160.6362 O   0  0  0  0  0  0  0  0  0  0  0  0
  147.3051  132.2754  160.7526 C   0  0  0  0  0  0  0  0  0  0  0  0
  147.7957  133.2033  161.6972 C   0  0  0  0  0  0  0  0  0  0  0  0
  146.9069  134.0447  162.3943 C   0  0  0  0  0  0  0  0  0  0  0  0
  145.5212  133.9515  162.1643 C   0  0  0  0  0  0  0  0  0  0  0  0
  145.0233  133.0096  161.2443 C   0  0  0  0  0  0  0  0  0  0  0  0
  145.9110  132.1673  160.5475 C   0  0  0  0  0  0  0  0  0  0  0  0
  146.4084  131.7900  157.1244 N   0  0  0  0  0  0  0  0  0  0  0  0
  145.7582  132.7271  156.4292 C   0  0  0  0  0  0  0  0  0  0  0  0
  146.0223  134.0322  156.3406 N   0  0  0  0  0  0  0  0  0  0  0  0
  147.1147  134.3820  157.0789 C   0  0  0  0  0  0  0  0  0  0  0  0
  147.5520  137.0464  155.1509 C   0  0  2  0  0  0  0  0  0  0  0  0
  148.7024  136.3307  154.7376 O   0  0  0  0  0  0  0  0  0  0  0  0
  147.7397  138.5438  155.0006 C   0  0  1  0  0  0  0  0  0  0  0  0
  146.5497  139.1188  154.8162 F   0  0  0  0  0  0  0  0  0  0  0  0
  151.7890  141.7513  157.9166 C   0  0  0  0  0  0  0  0  0  0  0  0
  152.5434  141.7623  159.1131 C   0  0  0  0  0  0  0  0  0  0  0  0
  152.7660  142.9659  159.8099 C   0  0  0  0  0  0  0  0  0  0  0  0
  152.2364  144.1735  159.3187 C   0  0  0  0  0  0  0  0  0  0  0  0
  151.4825  144.1758  158.1308 C   0  0  0  0  0  0  0  0  0  0  0  0
  151.2582  142.9730  157.4331 C   0  0  0  0  0  0  0  0  0  0  0  0
  150.2164  139.2274  155.3455 H   0  0  0  0  0  0  0  0  0  0  0  0
  150.2548  138.0611  156.6561 H   0  0  0  0  0  0  0  0  0  0  0  0
  147.9229  139.9600  156.6356 H   0  0  0  0  0  0  0  0  0  0  0  0
  146.1745  136.9879  156.8591 H   0  0  0  0  0  0  0  0  0  0  0  0
  149.4118  136.2248  158.3930 H   0  0  0  0  0  0  0  0  0  0  0  0
  148.2310  128.1597  155.8631 H   0  0  0  0  0  0  0  0  0  0  0  0
  148.7336  128.3470  153.4434 H   0  0  0  0  0  0  0  0  0  0  0  0
  149.7571  130.4249  152.5357 H   0  0  0  0  0  0  0  0  0  0  0  0
  150.2976  132.3138  154.0629 H   0  0  0  0  0  0  0  0  0  0  0  0
  149.8000  132.1388  156.4838 H   0  0  0  0  0  0  0  0  0  0  0  0
  148.8574  133.2840  161.8809 H   0  0  0  0  0  0  0  0  0  0  0  0
  147.2891  134.7613  163.1062 H   0  0  0  0  0  0  0  0  0  0  0  0
  144.8401  134.5970  162.6988 H   0  0  0  0  0  0  0  0  0  0  0  0
  143.9598  132.9321  161.0738 H   0  0  0  0  0  0  0  0  0  0  0  0
  145.5163  131.4442  159.8484 H   0  0  0  0  0  0  0  0  0  0  0  0
  144.9034  132.3846  155.8646 H   0  0  0  0  0  0  0  0  0  0  0  0
  146.7026  136.6772  154.5751 H   0  0  0  0  0  0  0  0  0  0  0  0
  148.7893  136.4191  153.8005 H   0  0  0  0  0  0  0  0  0  0  0  0
  148.3595  138.8258  154.1483 H   0  0  0  0  0  0  0  0  0  0  0  0
  152.9592  140.8472  159.5097 H   0  0  0  0  0  0  0  0  0  0  0  0
  153.3437  142.9617  160.7222 H   0  0  0  0  0  0  0  0  0  0  0  0
  152.4077  145.0965  159.8529 H   0  0  0  0  0  0  0  0  0  0  0  0
  151.0746  145.1019  157.7531 H   0  0  0  0  0  0  0  0  0  0  0  0
  150.6740  143.0099  156.5251 H   0  0  0  0  0  0  0  0  0  0  0  0
  1  2  2  0  0  0  0
  2  3  1  0  0  0  0
  2 38  1  0  0  0  0
  3  4  1  0  0  0  0
  4  5  1  0  0  0  0
  4 44  1  0  0  0  0
  4 45  1  0  0  0  0
  5 36  1  0  0  0  0
  5  6  1  0  0  0  0
  5 46  1  0  0  0  0
  6  7  1  0  0  0  0
  7  8  1  0  0  0  0
  7 34  1  0  0  0  0
  7 47  1  0  0  0  0
  8 33  1  0  0  0  0
  8  9  1  0  0  0  0
  9 10  2  0  0  0  0
  9 48  1  0  0  0  0
 10 11  1  0  0  0  0
 11 33  2  0  0  0  0
 11 12  1  0  0  0  0
 12 13  1  0  0  0  0
 12 30  2  0  0  0  0
 13 14  1  0  0  0  0
 13 22  1  0  0  0  0
 14 15  2  0  0  0  0
 14 16  1  0  0  0  0
 16 21  1  0  0  0  0
 16 17  2  0  0  0  0
 17 18  1  0  0  0  0
 17 49  1  0  0  0  0
 18 19  2  0  0  0  0
 18 50  1  0  0  0  0
 19 20  1  0  0  0  0
 19 51  1  0  0  0  0
 20 21  2  0  0  0  0
 20 52  1  0  0  0  0
 21 53  1  0  0  0  0
 22 23  2  0  0  0  0
 22 24  1  0  0  0  0
 24 29  1  0  0  0  0
 24 25  2  0  0  0  0
 25 26  1  0  0  0  0
 25 54  1  0  0  0  0
 26 27  2  0  0  0  0
 26 55  1  0  0  0  0
 27 28  1  0  0  0  0
 27 56  1  0  0  0  0
 28 29  2  0  0  0  0
 28 57  1  0  0  0  0
 29 58  1  0  0  0  0
 30 31  1  0  0  0  0
 31 32  2  0  0  0  0
 31 59  1  0  0  0  0
 32 33  1  0  0  0  0
 34 35  1  0  0  0  0
 34 36  1  0  0  0  0
 34 60  1  0  0  0  0
 35 61  1  0  0  0  0
 36 37  1  0  0  0  0
 36 62  1  0  0  0  0
 38 43  1  0  0  0  0
 38 39  2  0  0  0  0
 39 40  1  0  0  0  0
 39 63  1  0  0  0  0
 40 41  2  0  0  0  0
 40 64  1  0  0  0  0
 41 42  1  0  0  0  0
 41 65  1  0  0  0  0
 42 43  2  0  0  0  0
 42 66  1  0  0  0  0
 43 67  1  0  0  0  0
M  END
> <s_m_source_file>
AV-unprocessed.smi

> <i_m_source_file_index>
33

> <i_lp_mmshare_version>
43012

> <i_f3d_flags>
0

> <s_epik_input>
W2NIXTFbY0hdW2NIXVtjSF1bY0hdYzFDKD1PKU9bQ0gyXVtDQEBIXTJPW0NASF0oW0NAQEhdKFtPSF0pW0NAQEhdMkYpbihbY0hdbjMpYyhjMzQpbltjSF1uYzROKEMoPU8pYzVbY0hdW2NIXVtjSF1bY0hdW2NIXTUpQyg9TyljNltjSF1bY0hdW2NIXVtjSF1bY0hdNg==

> <s_epik_cmdline>
J2VwaWtfcHl0aG9uJywgJy1waCcsICc3LjAnLCAnLXRuJywgJzgnLCAnLW1hJywgJzIwMCcsICctbWV0YWxfYmluZGluZycsICctaW1hZScsICc8aW5maWxlLm1hZT4nLCAnLW9tYWUnLCAnPG91dGZpbGUubWFlPic=

> <r_lp_tautomer_probability>
1

> <r_epik_Ionization_Penalty>
0.00067664

> <r_epik_Ionization_Penalty_Charging>
0

> <r_epik_Ionization_Penalty_Neutral>
0.00067664

> <r_epik_State_Penalty>
0.000428095

> <r_epik_Charging_Adjusted_Penalty>
0.000428095

> <i_epik_Tot_Q>
0

> <i_epik_Tot_abs_Q>
0

> <r_epik_Metal_State_Penalty>
-0

> <b_epik_Metal_Only>
0

> <s_epik_Chemistry_Notes>
This compound has an ester and may undergo hydrolysis at high or low pH. This compound contains an acetal/aminal-like group ( X-CH(R)-Y where X, Y are N, S, or O) that may be acid/base labile, releasing an aldehyde.

> <s_lp_Force_Field>
OPLS_2005

> <r_lp_Energy>
74.9187

> <b_lp_Chiralities_Consistent>
1

> <s_lp_Variant>
AV-unprocessed.smi:33-15

> <Gold.Version>
5.8.1

> <Gold.Id.Protein>
6NUR|6NUR_protein|mol2

> <Gold.PLP.Fitness>
56.4292

> <Gold.PLP.PLP>
-49.6016

> <Gold.PLP.part.hbond>
-3.0000

> <Gold.PLP.part.metal>
0.0000

> <Gold.PLP.part.buried>
-6.5980

> <Gold.PLP.part.nonpolar>
-39.7925

> <Gold.PLP.part.repulsive>
0.0800

> <Gold.PLP.ligand.clash>
0.0000

> <Gold.PLP.ligand.torsion>
5.1313

> <Gold.PLP.Chemscore.Hbond>
3.0000

> <Gold.PLP.Chemscore.CHOScore>
0.9064

> <Gold.PLP.Chemscore.Metal>
0.0000

> <Gold.Chemscore.Hbonds>
donor molecule, donor type, donor heavy atom, donor atom, acceptor molecule, acceptor atom, score
      L1  H    35    61       P1  7948  1.00
      P1  H  6896  6909       L1    10  1.00
      P1  H  7997  8009       L1     1  1.00
      L1  C    31    59       P1 10957  1.00

> <Gold.PLP.Chemscore.Internal.Correction>
5.3710

> <Gold.Rescore>
     Score         DG    S(hbond)    S(metal)    S(lipo)     H(rot)  DE(clash)    DE(int)     intcor
     17.39     -24.61       2.81        0.00     138.52       2.52       0.17       7.05       ----

> <Gold.Chemscore.Fitness>
17.3902

> <Gold.Chemscore.DG>
-24.6112

> <Gold.Chemscore.ZeroCoef>
-5.4800

> <Gold.Chemscore.Hbond>
2.8108

> <Gold.Chemscore.Metal>
0.0000

> <Gold.Chemscore.Lipo>
138.5158

> <Gold.Chemscore.Internal_Hbond>
0.0000

> <Gold.Chemscore.DEClash>
0.1671

> <Gold.Chemscore.DEInternal>
7.0539

> <Gold.Chemscore.Rot>
2.5247

> <Gold.Chemscore.Internal.Correction>
   9.000000E+99

> <Gold.Chemscore.Hbonds>
donor molecule, donor type, donor heavy atom, donor atom, acceptor molecule, acceptor atom, score
      L1  H    35    61       P1  7948  0.99
      P1  H  6896  6909       L1    10  0.34
      P1  H  7997  8009       L1     1  0.99

> <Gold.Chemscore.Hbond.Weighted>
-9.3881

> <Gold.Chemscore.Metal.Weighted>
-0.0000

> <Gold.Chemscore.Lipo.Weighted>
-16.2063

> <Gold.Chemscore.Internal_Hbond.Weighted>
0.0000

> <Gold.Chemscore.DEClash.Weighted>
0.1671

> <Gold.Chemscore.DEInternal.Weighted>
7.0539

> <Gold.Chemscore.Rot.Weighted>
6.4633

> <Gold.Chemscore.Internal.Correction.Weighted>
   9.000000E+99

> <Gold.Protein.RotatedTorsions>
[ 6907 6896 6895 6894 ] final   33.21 input  -60.11 | X-H torsion
[ 7974 7965 7964 7962 ] final   71.48 input  175.53 | X-H torsion
[ 8008 7997 7996 7995 ] final -160.45 input   59.86 | X-H torsion
[ 10167 10162 10161 10158 ] final  120.58 input  -65.29 | X-H torsion
[ 10718 10713 10712 10709 ] final -112.84 input   66.30 | X-H torsion
[ 10763 10752 10751 10750 ] final   37.18 input  -60.55 | X-H torsion
[ 11005 11000 10999 10996 ] final   29.15 input  -57.11 | X-H torsion

> <Gold.Protein.ActiveResidues>
 VAL166  LYS551  ARG553  GLY616  TRP617  ASP618  TYR619  PRO620  LYS621  CYS622 
 ASP623  PHE694  ASN695  SER759  ASP760  ASP761  ALA762  ILE779  LEU786  VAL792 
 PHE793  MET794  SER795  GLU796  ALA797  LYS798  CYS799  TRP800  GLU811  SER814 

> <Gold.Protein.RotatedAtoms>
  152.0853  134.9444  160.0572 H   0  0  0  0  0  0  0  0  0  0  0  0  # atno 6907 bound_to 6896
  152.0716  133.4105  159.4470 H   0  0  0  0  0  0  0  0  0  0  0  0  # atno 6908 bound_to 6896
  150.6836  134.3004  159.4747 H   0  0  0  0  0  0  0  0  0  0  0  0  # atno 6909 bound_to 6896
  145.7652  139.2818  143.1353 H   0  0  0  0  0  0  0  0  0  0  0  0  # atno 7974 bound_to 7965
  155.7776  140.0860  157.2076 H   0  0  0  0  0  0  0  0  0  0  0  0  # atno 8008 bound_to 7997
  154.3992  140.1513  156.3072 H   0  0  0  0  0  0  0  0  0  0  0  0  # atno 8009 bound_to 7997
  155.8685  140.3426  155.5808 H   0  0  0  0  0  0  0  0  0  0  0  0  # atno 8010 bound_to 7997
  139.5973  144.7046  151.3145 H   0  0  0  0  0  0  0  0  0  0  0  0  # atno 10167 bound_to 10162
  156.0730  130.5941  150.8563 H   0  0  0  0  0  0  0  0  0  0  0  0  # atno 10718 bound_to 10713
  153.0047  135.6285  154.2104 H   0  0  0  0  0  0  0  0  0  0  0  0  # atno 10763 bound_to 10752
  154.1847  135.2811  155.3042 H   0  0  0  0  0  0  0  0  0  0  0  0  # atno 10764 bound_to 10752
  154.5807  135.5648  153.7242 H   0  0  0  0  0  0  0  0  0  0  0  0  # atno 10765 bound_to 10752
  140.3080  134.2682  155.7740 H   0  0  0  0  0  0  0  0  0  0  0  0  # atno 11005 bound_to 11000
  146.0224  140.8335  142.9916 LP  0  0  0  0  0  0  0  0  0  0  0  0  # atno 17320 bound_to 7965
  144.6823  140.2648  143.7314 LP  0  0  0  0  0  0  0  0  0  0  0  0  # atno 17321 bound_to 7965
  140.7222  143.7104  150.7774 LP  0  0  0  0  0  0  0  0  0  0  0  0  # atno 17342 bound_to 10162
  140.0673  143.5096  152.2598 LP  0  0  0  0  0  0  0  0  0  0  0  0  # atno 17343 bound_to 10162
  157.5811  131.0946  150.9269 LP  0  0  0  0  0  0  0  0  0  0  0  0  # atno 17370 bound_to 10713
  156.9465  130.5404  149.5281 LP  0  0  0  0  0  0  0  0  0  0  0  0  # atno 17371 bound_to 10713
  141.2114  133.7689  156.9865 LP  0  0  0  0  0  0  0  0  0  0  0  0  # atno 17394 bound_to 11000
  140.1050  134.9512  157.1981 LP  0  0  0  0  0  0  0  0  0  0  0  0  # atno 17395 bound_to 11000

$$$$
