AV-unprocessed.smi:2004|AV-procd|sdf|8124|dock4
  -GOLD-   2272010363D 1   1.00000     0.00000
 Structure written by MMmdl.
 40 42  0  0  0  0  0  0  0  0  2 V2000
  151.1498  139.3248  154.4282 O   0  0  0  0  0  0  0  0  0  0  0  0
  150.8634  138.8206  155.7180 C   0  0  1  0  0  0  0  0  0  0  0  0
  151.1186  137.3060  155.7178 C   0  0  0  0  0  0  0  0  0  0  0  0
  149.9756  136.6485  155.1962 O   0  0  0  0  0  0  0  0  0  0  0  0
  149.9028  135.2848  155.5793 C   0  0  0  0  0  0  0  0  0  0  0  0
  149.0171  134.4850  154.6439 C   0  0  0  0  0  0  0  0  0  0  0  0
  147.6765  134.8727  154.4356 C   0  0  0  0  0  0  0  0  0  0  0  0
  146.8469  134.1223  153.5794 C   0  0  0  0  0  0  0  0  0  0  0  0
  147.3530  132.9787  152.9320 C   0  0  0  0  0  0  0  0  0  0  0  0
  148.6885  132.5845  153.1426 C   0  0  0  0  0  0  0  0  0  0  0  0
  149.5184  133.3342  153.9991 C   0  0  0  0  0  0  0  0  0  0  0  0
  151.7477  139.5541  156.7458 C   0  0  0  0  0  0  0  0  0  0  0  0
  151.3906  140.9708  156.8961 N   0  0  0  0  0  0  0  0  0  0  0  0
  150.6204  141.7679  156.1071 C   0  0  0  0  0  0  0  0  0  0  0  0
  150.5863  143.0033  156.6797 N   0  3  0  0  0  0  0  0  0  0  0  0
  151.3460  142.9949  157.8518 C   0  0  0  0  0  0  0  0  0  0  0  0
  151.6107  144.0016  158.7754 C   0  0  0  0  0  0  0  0  0  0  0  0
  152.4290  143.6562  159.8713 C   0  0  0  0  0  0  0  0  0  0  0  0
  152.9503  142.3540  160.0179 C   0  0  0  0  0  0  0  0  0  0  0  0
  152.6760  141.3413  159.0753 C   0  0  0  0  0  0  0  0  0  0  0  0
  151.8662  141.6915  157.9959 C   0  0  0  0  0  0  0  0  0  0  0  0
  150.8236  138.7090  153.7894 H   0  0  0  0  0  0  0  0  0  0  0  0
  149.8142  139.0119  155.9455 H   0  0  0  0  0  0  0  0  0  0  0  0
  152.0178  137.0568  155.1515 H   0  0  0  0  0  0  0  0  0  0  0  0
  151.2742  136.9594  156.7407 H   0  0  0  0  0  0  0  0  0  0  0  0
  150.9053  134.8539  155.5937 H   0  0  0  0  0  0  0  0  0  0  0  0
  149.4988  135.2023  156.5892 H   0  0  0  0  0  0  0  0  0  0  0  0
  147.2812  135.7468  154.9320 H   0  0  0  0  0  0  0  0  0  0  0  0
  145.8218  134.4233  153.4205 H   0  0  0  0  0  0  0  0  0  0  0  0
  146.7168  132.4029  152.2760 H   0  0  0  0  0  0  0  0  0  0  0  0
  149.0763  131.7062  152.6483 H   0  0  0  0  0  0  0  0  0  0  0  0
  150.5405  133.0223  154.1571 H   0  0  0  0  0  0  0  0  0  0  0  0
  151.6874  139.0794  157.7261 H   0  0  0  0  0  0  0  0  0  0  0  0
  152.7954  139.5107  156.4444 H   0  0  0  0  0  0  0  0  0  0  0  0
  150.1220  141.4714  155.1954 H   0  0  0  0  0  0  0  0  0  0  0  0
  151.2124  144.9997  158.6662 H   0  0  0  0  0  0  0  0  0  0  0  0
  152.6617  144.4049  160.6148 H   0  0  0  0  0  0  0  0  0  0  0  0
  153.5730  142.1269  160.8711 H   0  0  0  0  0  0  0  0  0  0  0  0
  153.0775  140.3460  159.1960 H   0  0  0  0  0  0  0  0  0  0  0  0
  150.0785  143.7907  156.2975 H   0  0  0  0  0  0  0  0  0  0  0  0
  1  2  1  0  0  0  0
  1 22  1  0  0  0  0
  2  3  1  0  0  0  0
  2 12  1  0  0  0  0
  2 23  1  0  0  0  0
  3  4  1  0  0  0  0
  3 24  1  0  0  0  0
  3 25  1  0  0  0  0
  4  5  1  0  0  0  0
  5  6  1  0  0  0  0
  5 26  1  0  0  0  0
  5 27  1  0  0  0  0
  6 11  1  0  0  0  0
  6  7  2  0  0  0  0
  7  8  1  0  0  0  0
  7 28  1  0  0  0  0
  8  9  2  0  0  0  0
  8 29  1  0  0  0  0
  9 10  1  0  0  0  0
  9 30  1  0  0  0  0
 10 11  2  0  0  0  0
 10 31  1  0  0  0  0
 11 32  1  0  0  0  0
 12 13  1  0  0  0  0
 12 33  1  0  0  0  0
 12 34  1  0  0  0  0
 13 21  1  0  0  0  0
 13 14  1  0  0  0  0
 14 15  2  0  0  0  0
 14 35  1  0  0  0  0
 15 16  1  0  0  0  0
 15 40  1  0  0  0  0
 16 21  2  0  0  0  0
 16 17  1  0  0  0  0
 17 18  2  0  0  0  0
 17 36  1  0  0  0  0
 18 19  1  0  0  0  0
 18 37  1  0  0  0  0
 19 20  2  0  0  0  0
 19 38  1  0  0  0  0
 20 21  1  0  0  0  0
 20 39  1  0  0  0  0
M  CHG  1  15   1
M  END
> <s_m_source_file>
AV-unprocessed.smi

> <i_m_source_file_index>
2004

> <i_lp_mmshare_version>
43012

> <i_f3d_flags>
0

> <s_epik_input>
W2NIXTFbY0hdW2NIXVtjSF1jKGMxMiluKFtjSF1uMilbQ0gyXVtDQEhdKFtPSF0pW0NIMl1PW0NIMl1jM1tjSF1bY0hdW2NIXVtjSF1bY0hdMw==

> <s_epik_cmdline>
J2VwaWtfcHl0aG9uJywgJy1waCcsICc3LjAnLCAnLXRuJywgJzgnLCAnLW1hJywgJzIwMCcsICctbWV0YWxfYmluZGluZycsICctaW1hZScsICc8aW5maWxlLm1hZT4nLCAnLW9tYWUnLCAnPG91dGZpbGUubWFlPic=

> <r_epik_Ionization_Penalty>
1.28975

> <r_epik_Ionization_Penalty_Charging>
1.28975

> <r_epik_Ionization_Penalty_Neutral>
1.07667e-06

> <r_epik_State_Penalty>
1.36276

> <r_epik_Charging_Adjusted_Penalty>
2.65251

> <i_epik_Tot_Q>
1

> <i_epik_Tot_abs_Q>
1

> <r_epik_Metal_State_Penalty>
5.39298

> <b_epik_Metal_Only>
0

> <s_lp_Force_Field>
OPLS_2005

> <r_lp_Energy>
18.9764

> <b_lp_Chiralities_Consistent>
1

> <s_lp_Variant>
AV-unprocessed.smi:2004-4

> <Gold.Version>
5.8.1

> <Gold.Id.Protein>
6NUR|6NUR_protein|mol2

> <Gold.PLP.Fitness>
50.5648

> <Gold.PLP.PLP>
-42.8457

> <Gold.PLP.part.hbond>
-2.0000

> <Gold.PLP.part.metal>
0.0000

> <Gold.PLP.part.buried>
-5.4615

> <Gold.PLP.part.nonpolar>
-35.6646

> <Gold.PLP.part.repulsive>
0.1845

> <Gold.PLP.ligand.clash>
0.0000

> <Gold.PLP.ligand.torsion>
0.6846

> <Gold.PLP.Chemscore.Hbond>
3.0000

> <Gold.PLP.Chemscore.CHOScore>
0.0000

> <Gold.PLP.Chemscore.Metal>
0.0000

> <Gold.Chemscore.Hbonds>
donor molecule, donor type, donor heavy atom, donor atom, acceptor molecule, acceptor atom, score
      L1  H    15    40       P1  8028  2.00
      P1  H  7989  7998       L1     1  1.00

> <Gold.PLP.Chemscore.Internal.Correction>
0.0882

> <Gold.Rescore>
     Score         DG    S(hbond)    S(metal)    S(lipo)     H(rot)  DE(clash)    DE(int)     intcor
     18.37     -19.18       1.90        0.00     115.97       2.43       0.27       0.54       ----

> <Gold.Chemscore.Fitness>
18.3732

> <Gold.Chemscore.DG>
-19.1825

> <Gold.Chemscore.ZeroCoef>
-5.4800

> <Gold.Chemscore.Hbond>
1.9003

> <Gold.Chemscore.Metal>
0.0000

> <Gold.Chemscore.Lipo>
115.9688

> <Gold.Chemscore.Internal_Hbond>
0.0000

> <Gold.Chemscore.DEClash>
0.2719

> <Gold.Chemscore.DEInternal>
0.5374

> <Gold.Chemscore.Rot>
2.4269

> <Gold.Chemscore.Internal.Correction>
   9.000000E+99

> <Gold.Chemscore.Hbonds>
donor molecule, donor type, donor heavy atom, donor atom, acceptor molecule, acceptor atom, score
      L1  H    15    40       P1  8028  0.99
      P1  H  7989  7998       L1     1  0.55

> <Gold.Chemscore.Hbond.Weighted>
-6.3469

> <Gold.Chemscore.Metal.Weighted>
-0.0000

> <Gold.Chemscore.Lipo.Weighted>
-13.5683

> <Gold.Chemscore.Internal_Hbond.Weighted>
0.0000

> <Gold.Chemscore.DEClash.Weighted>
0.2719

> <Gold.Chemscore.DEInternal.Weighted>
0.5374

> <Gold.Chemscore.Rot.Weighted>
6.2127

> <Gold.Chemscore.Internal.Correction.Weighted>
   9.000000E+99

> <Gold.Protein.RotatedTorsions>
[ 6907 6896 6895 6894 ] final  -29.88 input  -60.11 | X-H torsion
[ 7974 7965 7964 7962 ] final   37.78 input  175.53 | X-H torsion
[ 8008 7997 7996 7995 ] final  143.68 input   59.86 | X-H torsion
[ 10167 10162 10161 10158 ] final  -91.26 input  -65.29 | X-H torsion
[ 10718 10713 10712 10709 ] final  -72.62 input   66.30 | X-H torsion
[ 10763 10752 10751 10750 ] final   46.88 input  -60.55 | X-H torsion
[ 11005 11000 10999 10996 ] final -153.39 input  -57.11 | X-H torsion

> <Gold.Protein.ActiveResidues>
 VAL166  LYS551  ARG553  GLY616  TRP617  ASP618  TYR619  PRO620  LYS621  CYS622 
 ASP623  PHE694  ASN695  SER759  ASP760  ASP761  ALA762  ILE779  LEU786  VAL792 
 PHE793  MET794  SER795  GLU796  ALA797  LYS798  CYS799  TRP800  GLU811  SER814 

> <Gold.Protein.RotatedAtoms>
  151.1131  135.0038  159.8503 H   0  0  0  0  0  0  0  0  0  0  0  0  # atno 6907 bound_to 6896
  152.5444  134.1811  159.8646 H   0  0  0  0  0  0  0  0  0  0  0  0  # atno 6908 bound_to 6896
  151.1863  133.4649  159.2627 H   0  0  0  0  0  0  0  0  0  0  0  0  # atno 6909 bound_to 6896
  146.1112  139.5852  142.9351 H   0  0  0  0  0  0  0  0  0  0  0  0  # atno 7974 bound_to 7965
  156.2925  140.2256  156.4929 H   0  0  0  0  0  0  0  0  0  0  0  0  # atno 8008 bound_to 7997
  154.7755  140.0464  157.1107 H   0  0  0  0  0  0  0  0  0  0  0  0  # atno 8009 bound_to 7997
  154.9822  140.3080  155.4945 H   0  0  0  0  0  0  0  0  0  0  0  0  # atno 8010 bound_to 7997
  140.3467  143.2913  151.9773 H   0  0  0  0  0  0  0  0  0  0  0  0  # atno 10167 bound_to 10162
  156.0313  130.4376  150.2620 H   0  0  0  0  0  0  0  0  0  0  0  0  # atno 10718 bound_to 10713
  152.9805  135.5994  154.3672 H   0  0  0  0  0  0  0  0  0  0  0  0  # atno 10763 bound_to 10752
  154.3349  135.2768  155.2454 H   0  0  0  0  0  0  0  0  0  0  0  0  # atno 10764 bound_to 10752
  154.4562  135.5977  153.6280 H   0  0  0  0  0  0  0  0  0  0  0  0  # atno 10765 bound_to 10752
  140.7086  134.3858  157.5200 H   0  0  0  0  0  0  0  0  0  0  0  0  # atno 11005 bound_to 11000
  145.5660  141.0399  143.2200 LP  0  0  0  0  0  0  0  0  0  0  0  0  # atno 17320 bound_to 7965
  144.7513  139.7187  143.7272 LP  0  0  0  0  0  0  0  0  0  0  0  0  # atno 17321 bound_to 7965
  139.4832  144.6111  151.7432 LP  0  0  0  0  0  0  0  0  0  0  0  0  # atno 17342 bound_to 10162
  140.5258  144.0808  150.6037 LP  0  0  0  0  0  0  0  0  0  0  0  0  # atno 17343 bound_to 10162
  157.0722  131.0120  151.3186 LP  0  0  0  0  0  0  0  0  0  0  0  0  # atno 17370 bound_to 10713
  157.4991  130.7869  149.7586 LP  0  0  0  0  0  0  0  0  0  0  0  0  # atno 17371 bound_to 10713
  139.8877  134.8874  156.2511 LP  0  0  0  0  0  0  0  0  0  0  0  0  # atno 17394 bound_to 11000
  141.0103  133.7099  156.1101 LP  0  0  0  0  0  0  0  0  0  0  0  0  # atno 17395 bound_to 11000

$$$$
