AV-unprocessed.smi:35|AV-procd|sdf|253|dock8
  -GOLD-   2262016 13D 1   1.00000     0.00000
 Structure written by MMmdl.
 29 30  0  0  0  0  0  0  0  0  1 V2000
  140.7334  135.0178  154.0166 O   0  0  0  0  0  0  0  0  0  0  0  0
  141.8495  135.4397  153.7220 C   0  0  0  0  0  0  0  0  0  0  0  0
  142.9777  134.6351  153.8969 N   0  0  0  0  0  0  0  0  0  0  0  0
  144.2901  134.9996  153.5902 C   0  0  0  0  0  0  0  0  0  0  0  0
  145.2105  134.2206  153.8337 O   0  0  0  0  0  0  0  0  0  0  0  0
  144.4949  136.2747  153.0114 N   0  0  0  0  0  0  0  0  0  0  0  0
  145.9153  136.7227  152.6999 C   0  0  2  0  0  0  0  0  0  0  0  0
  146.5843  137.0130  153.8962 O   0  0  0  0  0  0  0  0  0  0  0  0
  146.7142  138.4190  154.1020 C   0  0  2  0  0  0  0  0  0  0  0  0
  145.4812  138.9875  154.8432 C   0  0  0  0  0  0  0  0  0  0  0  0
  145.4760  140.3966  154.7583 O   0  0  0  0  0  0  0  0  0  0  0  0
  146.8948  138.9140  152.6632 C   0  0  2  0  0  0  0  0  0  0  0  0
  146.5820  140.2839  152.5003 O   0  0  0  0  0  0  0  0  0  0  0  0
  145.9611  138.0212  151.8563 C   0  0  1  0  0  0  0  0  0  0  0  0
  146.5147  137.8026  150.5737 O   0  0  0  0  0  0  0  0  0  0  0  0
  143.4055  137.1314  152.8817 C   0  0  0  0  0  0  0  0  0  0  0  0
  142.1399  136.7668  153.1938 C   0  0  0  0  0  0  0  0  0  0  0  0
  140.7313  138.1316  152.9144 Br  0  0  0  0  0  0  0  0  0  0  0  0
  142.8328  133.7174  154.2925 H   0  0  0  0  0  0  0  0  0  0  0  0
  146.3777  135.8563  152.2230 H   0  0  0  0  0  0  0  0  0  0  0  0
  147.6132  138.6294  154.6828 H   0  0  0  0  0  0  0  0  0  0  0  0
  144.5607  138.6508  154.3668 H   0  0  0  0  0  0  0  0  0  0  0  0
  145.4292  138.6653  155.8820 H   0  0  0  0  0  0  0  0  0  0  0  0
  146.3620  140.7075  154.8665 H   0  0  0  0  0  0  0  0  0  0  0  0
  147.9315  138.7448  152.3662 H   0  0  0  0  0  0  0  0  0  0  0  0
  145.6653  140.3552  152.2808 H   0  0  0  0  0  0  0  0  0  0  0  0
  144.9671  138.4665  151.7877 H   0  0  0  0  0  0  0  0  0  0  0  0
  145.8439  137.9692  149.9285 H   0  0  0  0  0  0  0  0  0  0  0  0
  143.5451  138.1384  152.5190 H   0  0  0  0  0  0  0  0  0  0  0  0
  1  2  2  0  0  0  0
  2 17  1  0  0  0  0
  2  3  1  0  0  0  0
  3 19  1  0  0  0  0
  3  4  1  0  0  0  0
  4  5  2  0  0  0  0
  4  6  1  0  0  0  0
  6  7  1  0  0  0  0
  6 16  1  0  0  0  0
  7 14  1  0  0  0  0
  7  8  1  0  0  0  0
  7 20  1  0  0  0  0
  8  9  1  0  0  0  0
  9 10  1  0  0  0  0
  9 12  1  0  0  0  0
  9 21  1  0  0  0  0
 10 11  1  0  0  0  0
 10 22  1  0  0  0  0
 10 23  1  0  0  0  0
 11 24  1  0  0  0  0
 12 13  1  0  0  0  0
 12 14  1  0  0  0  0
 12 25  1  0  0  0  0
 13 26  1  0  0  0  0
 14 15  1  0  0  0  0
 14 27  1  0  0  0  0
 15 28  1  0  0  0  0
 16 17  2  0  0  0  0
 16 29  1  0  0  0  0
 17 18  1  0  0  0  0
M  END
> <s_m_source_file>
AV-unprocessed.smi

> <i_m_source_file_index>
35

> <i_lp_mmshare_version>
43012

> <i_f3d_flags>
0

> <s_epik_input>
Tz1jMVtuSF1jKD1PKW4oW2NIXWMxQnIpW0NAQEhdMk9bQ0BASF0oW0NIMl1bT0hdKVtDQEBIXShbT0hdKVtDQEhdMltPSF0=

> <s_epik_cmdline>
J2VwaWtfcHl0aG9uJywgJy1waCcsICc3LjAnLCAnLXRuJywgJzgnLCAnLW1hJywgJzIwMCcsICctbWV0YWxfYmluZGluZycsICctaW1hZScsICc8aW5maWxlLm1hZT4nLCAnLW9tYWUnLCAnPG91dGZpbGUubWFlPic=

> <r_lp_tautomer_probability>
0.999537

> <r_epik_Ionization_Penalty>
0.10812

> <r_epik_Ionization_Penalty_Charging>
0.108119

> <r_epik_Ionization_Penalty_Neutral>
4.93006e-07

> <r_epik_State_Penalty>
0.0979238

> <r_epik_Charging_Adjusted_Penalty>
0.206043

> <i_epik_Tot_Q>
0

> <i_epik_Tot_abs_Q>
0

> <r_epik_Metal_State_Penalty>
3.07911

> <b_epik_Metal_Only>
0

> <s_epik_Chemistry_Notes>
This compound contains an acetal/aminal-like group ( X-CH(R)-Y where X, Y are N, S, or O) that may be acid/base labile, releasing an aldehyde.

> <s_lp_Force_Field>
OPLS_2005

> <r_lp_Energy>
30.5173

> <b_lp_Chiralities_Consistent>
1

> <s_lp_Variant>
AV-unprocessed.smi:35-7

> <Gold.Version>
5.8.1

> <Gold.Id.Protein>
6NUR|6NUR_protein|mol2

> <Gold.PLP.Fitness>
44.7002

> <Gold.PLP.PLP>
-26.9546

> <Gold.PLP.part.hbond>
-7.5791

> <Gold.PLP.part.metal>
0.0000

> <Gold.PLP.part.buried>
-3.0616

> <Gold.PLP.part.nonpolar>
-16.5265

> <Gold.PLP.part.repulsive>
0.3767

> <Gold.PLP.ligand.clash>
0.0000

> <Gold.PLP.ligand.torsion>
0.4176

> <Gold.PLP.Chemscore.Hbond>
4.8080

> <Gold.PLP.Chemscore.CHOScore>
1.3639

> <Gold.PLP.Chemscore.Metal>
0.0000

> <Gold.Chemscore.Hbonds>
donor molecule, donor type, donor heavy atom, donor atom, acceptor molecule, acceptor atom, score
      L1  H     3    19       P1 10957  1.00
      L1  H    13    26       P1 10175  1.00
      L1  H    15    28       P1 10171  0.80
      P1  H  7954  7966       L1    15  0.99
      P1  H 11000 11005       L1     1  1.00
      L1  C    16    29       P1 10171  0.37
      L1  C    16    29       P1 10175  1.00

> <Gold.PLP.Chemscore.Internal.Correction>
0.0653

> <Gold.Rescore>
     Score         DG    S(hbond)    S(metal)    S(lipo)     H(rot)  DE(clash)    DE(int)     intcor
     14.49     -14.97       4.56        0.00      31.21       3.67       0.09       0.39       ----

> <Gold.Chemscore.Fitness>
14.4862

> <Gold.Chemscore.DG>
-14.9707

> <Gold.Chemscore.ZeroCoef>
-5.4800

> <Gold.Chemscore.Hbond>
4.5613

> <Gold.Chemscore.Metal>
0.0000

> <Gold.Chemscore.Lipo>
31.2081

> <Gold.Chemscore.Internal_Hbond>
0.0000

> <Gold.Chemscore.DEClash>
0.0939

> <Gold.Chemscore.DEInternal>
0.3906

> <Gold.Chemscore.Rot>
3.6701

> <Gold.Chemscore.Internal.Correction>
   9.000000E+99

> <Gold.Chemscore.Hbonds>
donor molecule, donor type, donor heavy atom, donor atom, acceptor molecule, acceptor atom, score
      L1  H     3    19       P1 10957  0.94
      L1  H    13    26       P1 10175  0.43
      L1  H    15    28       P1 10171  0.74
      P1  H  7954  7966       L1    15  0.77
      P1  H 11000 11005       L1     1  0.99

> <Gold.Chemscore.Hbond.Weighted>
-15.2348

> <Gold.Chemscore.Metal.Weighted>
-0.0000

> <Gold.Chemscore.Lipo.Weighted>
-3.6513

> <Gold.Chemscore.Internal_Hbond.Weighted>
0.0000

> <Gold.Chemscore.DEClash.Weighted>
0.0939

> <Gold.Chemscore.DEInternal.Weighted>
0.3906

> <Gold.Chemscore.Rot.Weighted>
9.3955

> <Gold.Chemscore.Internal.Correction.Weighted>
   9.000000E+99

> <Gold.Protein.RotatedTorsions>
[ 6907 6896 6895 6894 ] final  179.25 input  -60.11 | X-H torsion
[ 7974 7965 7964 7962 ] final    4.93 input  175.53 | X-H torsion
[ 8008 7997 7996 7995 ] final  -56.03 input   59.86 | X-H torsion
[ 10167 10162 10161 10158 ] final  169.11 input  -65.29 | X-H torsion
[ 10718 10713 10712 10709 ] final   58.65 input   66.30 | X-H torsion
[ 10763 10752 10751 10750 ] final  -51.03 input  -60.55 | X-H torsion
[ 11005 11000 10999 10996 ] final   28.62 input  -57.11 | X-H torsion

> <Gold.Protein.ActiveResidues>
 VAL166  LYS551  ARG553  GLY616  TRP617  ASP618  TYR619  PRO620  LYS621  CYS622 
 ASP623  PHE694  ASN695  SER759  ASP760  ASP761  ALA762  ILE779  LEU786  VAL792 
 PHE793  MET794  SER795  GLU796  ALA797  LYS798  CYS799  TRP800  GLU811  SER814 

> <Gold.Protein.RotatedAtoms>
  151.6747  133.3313  159.3204 H   0  0  0  0  0  0  0  0  0  0  0  0  # atno 6907 bound_to 6896
  150.7851  134.6832  159.6465 H   0  0  0  0  0  0  0  0  0  0  0  0  # atno 6908 bound_to 6896
  152.3919  134.6431  160.0156 H   0  0  0  0  0  0  0  0  0  0  0  0  # atno 6909 bound_to 6896
  146.2442  140.0460  142.8378 H   0  0  0  0  0  0  0  0  0  0  0  0  # atno 7974 bound_to 7965
  154.4215  140.1139  156.5572 H   0  0  0  0  0  0  0  0  0  0  0  0  # atno 8008 bound_to 7997
  155.6348  140.3496  155.4676 H   0  0  0  0  0  0  0  0  0  0  0  0  # atno 8009 bound_to 7997
  155.9918  140.1181  157.0620 H   0  0  0  0  0  0  0  0  0  0  0  0  # atno 8010 bound_to 7997
  139.4984  144.3742  151.9692 H   0  0  0  0  0  0  0  0  0  0  0  0  # atno 10167 bound_to 10162
  157.5613  130.8838  149.9116 H   0  0  0  0  0  0  0  0  0  0  0  0  # atno 10718 bound_to 10713
  154.1200  135.6536  153.4901 H   0  0  0  0  0  0  0  0  0  0  0  0  # atno 10763 bound_to 10752
  153.0228  135.5268  154.7106 H   0  0  0  0  0  0  0  0  0  0  0  0  # atno 10764 bound_to 10752
  154.6311  135.2976  155.0185 H   0  0  0  0  0  0  0  0  0  0  0  0  # atno 10765 bound_to 10752
  140.3137  134.2621  155.7729 H   0  0  0  0  0  0  0  0  0  0  0  0  # atno 11005 bound_to 11000
  145.1027  140.9356  143.4703 LP  0  0  0  0  0  0  0  0  0  0  0  0  # atno 17320 bound_to 7965
  145.0656  139.3071  143.5858 LP  0  0  0  0  0  0  0  0  0  0  0  0  # atno 17321 bound_to 7965
  140.3178  144.3463  150.6017 LP  0  0  0  0  0  0  0  0  0  0  0  0  # atno 17342 bound_to 10162
  140.5747  143.2177  151.7536 LP  0  0  0  0  0  0  0  0  0  0  0  0  # atno 17343 bound_to 10162
  156.0665  130.3691  150.0867 LP  0  0  0  0  0  0  0  0  0  0  0  0  # atno 17370 bound_to 10713
  156.9030  130.9626  151.3573 LP  0  0  0  0  0  0  0  0  0  0  0  0  # atno 17371 bound_to 10713
  141.2102  133.7725  156.9944 LP  0  0  0  0  0  0  0  0  0  0  0  0  # atno 17394 bound_to 11000
  140.1002  134.9540  157.1912 LP  0  0  0  0  0  0  0  0  0  0  0  0  # atno 17395 bound_to 11000

$$$$
