AV-unprocessed.smi:1356|AV-procd|sdf|5546|dock3
  -GOLD-   22720 5133D 1   1.00000     0.00000
 Structure written by MMmdl.
 42 43  0  0  0  0  0  0  0  0  2 V2000
  147.0632  134.5137  153.8787 C   0  0  0  0  0  0  0  0  0  0  0  0
  148.1261  133.5289  153.4243 C   0  0  2  0  0  0  0  0  0  0  0  0
  148.7110  132.5246  154.3887 C   0  0  0  0  0  0  0  0  0  0  0  0
  149.5967  133.6109  153.8117 C   0  0  2  0  0  0  0  0  0  0  0  0
  150.0771  134.6861  154.7362 C   0  0  0  0  0  0  0  0  0  0  0  0
  150.7070  134.4646  155.7708 O   0  0  0  0  0  0  0  0  0  0  0  0
  149.7758  135.9257  154.3205 N   0  0  0  0  0  0  0  0  0  0  0  0
  150.1579  137.1655  154.9953 C   0  0  0  0  0  0  0  0  0  0  0  0
  151.5750  137.6575  154.6232 C   0  0  0  0  0  0  0  0  0  0  0  0
  151.8323  139.1191  155.0042 C   0  0  0  0  0  0  0  0  0  0  0  0
  152.9618  139.5974  154.8995 O   0  0  0  0  0  0  0  0  0  0  0  0
  150.7787  139.8096  155.4663 N   0  0  0  0  0  0  0  0  0  0  0  0
  150.8290  141.1812  155.9556 C   0  0  0  0  0  0  0  0  0  0  0  0
  150.6939  141.2343  157.4871 C   0  0  0  0  0  0  0  0  0  0  0  0
  151.2703  142.5091  158.0709 C   0  0  0  0  0  0  0  0  0  0  0  0
  152.2330  142.4963  159.1033 C   0  0  0  0  0  0  0  0  0  0  0  0
  152.7241  143.7210  159.6023 C   0  0  0  0  0  0  0  0  0  0  0  0
  152.2428  144.9305  159.0593 C   0  0  0  0  0  0  0  0  0  0  0  0
  151.2805  144.8847  158.0300 C   0  0  0  0  0  0  0  0  0  0  0  0
  150.8346  143.6915  157.5792 N   0  3  0  0  0  0  0  0  0  0  0  0
  147.0910  134.6670  154.9569 H   0  0  0  0  0  0  0  0  0  0  0  0
  146.0745  134.1340  153.6210 H   0  0  0  0  0  0  0  0  0  0  0  0
  147.2039  135.4736  153.3818 H   0  0  0  0  0  0  0  0  0  0  0  0
  147.9588  133.1845  152.4055 H   0  0  0  0  0  0  0  0  0  0  0  0
  148.4147  132.5947  155.4340 H   0  0  0  0  0  0  0  0  0  0  0  0
  148.8752  131.5108  154.0294 H   0  0  0  0  0  0  0  0  0  0  0  0
  150.3013  133.3064  153.0390 H   0  0  0  0  0  0  0  0  0  0  0  0
  149.2527  136.0208  153.4620 H   0  0  0  0  0  0  0  0  0  0  0  0
  149.4228  137.9283  154.7363 H   0  0  0  0  0  0  0  0  0  0  0  0
  150.0837  137.0271  156.0749 H   0  0  0  0  0  0  0  0  0  0  0  0
  152.3180  137.0367  155.1246 H   0  0  0  0  0  0  0  0  0  0  0  0
  151.7434  137.5223  153.5539 H   0  0  0  0  0  0  0  0  0  0  0  0
  149.8868  139.3377  155.5144 H   0  0  0  0  0  0  0  0  0  0  0  0
  151.7562  141.6577  155.6323 H   0  0  0  0  0  0  0  0  0  0  0  0
  150.0145  141.7377  155.4907 H   0  0  0  0  0  0  0  0  0  0  0  0
  149.6438  141.1521  157.7718 H   0  0  0  0  0  0  0  0  0  0  0  0
  151.2013  140.3831  157.9439 H   0  0  0  0  0  0  0  0  0  0  0  0
  152.5915  141.5616  159.5101 H   0  0  0  0  0  0  0  0  0  0  0  0
  153.4606  143.7329  160.3926 H   0  0  0  0  0  0  0  0  0  0  0  0
  152.6058  145.8791  159.4276 H   0  0  0  0  0  0  0  0  0  0  0  0
  150.8571  145.7590  157.5573 H   0  0  0  0  0  0  0  0  0  0  0  0
  150.1368  143.6818  156.8347 H   0  0  0  0  0  0  0  0  0  0  0  0
  1  2  1  0  0  0  0
  1 21  1  0  0  0  0
  1 22  1  0  0  0  0
  1 23  1  0  0  0  0
  2  4  1  0  0  0  0
  2  3  1  0  0  0  0
  2 24  1  0  0  0  0
  3  4  1  0  0  0  0
  3 25  1  0  0  0  0
  3 26  1  0  0  0  0
  4  5  1  0  0  0  0
  4 27  1  0  0  0  0
  5  6  2  0  0  0  0
  5  7  1  0  0  0  0
  7  8  1  0  0  0  0
  7 28  1  0  0  0  0
  8  9  1  0  0  0  0
  8 29  1  0  0  0  0
  8 30  1  0  0  0  0
  9 10  1  0  0  0  0
  9 31  1  0  0  0  0
  9 32  1  0  0  0  0
 10 11  2  0  0  0  0
 10 12  1  0  0  0  0
 12 13  1  0  0  0  0
 12 33  1  0  0  0  0
 13 14  1  0  0  0  0
 13 34  1  0  0  0  0
 13 35  1  0  0  0  0
 14 15  1  0  0  0  0
 14 36  1  0  0  0  0
 14 37  1  0  0  0  0
 15 20  1  0  0  0  0
 15 16  2  0  0  0  0
 16 17  1  0  0  0  0
 16 38  1  0  0  0  0
 17 18  2  0  0  0  0
 17 39  1  0  0  0  0
 18 19  1  0  0  0  0
 18 40  1  0  0  0  0
 19 20  2  0  0  0  0
 19 41  1  0  0  0  0
 20 42  1  0  0  0  0
M  CHG  1  20   1
M  END
> <s_m_source_file>
AV-unprocessed.smi

> <i_m_source_file_index>
1356

> <i_lp_mmshare_version>
43012

> <i_f3d_flags>
0

> <s_epik_input>
W0NIM11bQ0BASF0xW0NIMl1bQ0BIXTFDKD1PKVtOSF1bQ0gyXVtDSDJdQyg9TylbTkhdW0NIMl1bQ0gyXWMyW2NIXVtjSF1bY0hdW2NIXW4y

> <s_epik_cmdline>
J2VwaWtfcHl0aG9uJywgJy1waCcsICc3LjAnLCAnLXRuJywgJzgnLCAnLW1hJywgJzIwMCcsICctbWV0YWxfYmluZGluZycsICctaW1hZScsICc8aW5maWxlLm1hZT4nLCAnLW9tYWUnLCAnPG91dGZpbGUubWFlPic=

> <r_epik_Ionization_Penalty>
1.86966

> <r_epik_Ionization_Penalty_Charging>
1.86966

> <r_epik_Ionization_Penalty_Neutral>
5.0403e-08

> <r_epik_State_Penalty>
1.98858

> <r_epik_Charging_Adjusted_Penalty>
3.85824

> <i_epik_Tot_Q>
1

> <i_epik_Tot_abs_Q>
1

> <r_epik_Metal_State_Penalty>
2.01347

> <b_epik_Metal_Only>
0

> <s_lp_Force_Field>
OPLS_2005

> <r_lp_Energy>
10.2403

> <b_lp_Chiralities_Consistent>
1

> <s_lp_Variant>
AV-unprocessed.smi:1356-7

> <Gold.Version>
5.8.1

> <Gold.Id.Protein>
6NUR|6NUR_protein|mol2

> <Gold.PLP.Fitness>
55.7264

> <Gold.PLP.PLP>
-44.9522

> <Gold.PLP.part.hbond>
-4.3827

> <Gold.PLP.part.metal>
0.0000

> <Gold.PLP.part.buried>
-5.1298

> <Gold.PLP.part.nonpolar>
-35.9361

> <Gold.PLP.part.repulsive>
0.2000

> <Gold.PLP.ligand.clash>
0.0000

> <Gold.PLP.ligand.torsion>
0.5668

> <Gold.PLP.Chemscore.Hbond>
3.9200

> <Gold.PLP.Chemscore.CHOScore>
0.0000

> <Gold.PLP.Chemscore.Metal>
0.0000

> <Gold.Chemscore.Hbonds>
donor molecule, donor type, donor heavy atom, donor atom, acceptor molecule, acceptor atom, score
      L1  H     7    28       P1  7948  1.00
      L1  H    20    42       P1  8028  1.89
      P1  H  7997  8009       L1    11  1.00

> <Gold.PLP.Chemscore.Internal.Correction>
0.1478

> <Gold.Rescore>
     Score         DG    S(hbond)    S(metal)    S(lipo)     H(rot)  DE(clash)    DE(int)     intcor
     20.24     -20.86       2.81        0.00     101.97       2.31       0.05       0.57       ----

> <Gold.Chemscore.Fitness>
20.2422

> <Gold.Chemscore.DG>
-20.8576

> <Gold.Chemscore.ZeroCoef>
-5.4800

> <Gold.Chemscore.Hbond>
2.8057

> <Gold.Chemscore.Metal>
0.0000

> <Gold.Chemscore.Lipo>
101.9690

> <Gold.Chemscore.Internal_Hbond>
0.0000

> <Gold.Chemscore.DEClash>
0.0459

> <Gold.Chemscore.DEInternal>
0.5695

> <Gold.Chemscore.Rot>
2.3140

> <Gold.Chemscore.Internal.Correction>
   9.000000E+99

> <Gold.Chemscore.Hbonds>
donor molecule, donor type, donor heavy atom, donor atom, acceptor molecule, acceptor atom, score
      L1  H     7    28       P1  7948  0.73
      L1  H    20    42       P1  8028  0.88
      P1  H  7997  8009       L1    11  1.00

> <Gold.Chemscore.Hbond.Weighted>
-9.3710

> <Gold.Chemscore.Metal.Weighted>
-0.0000

> <Gold.Chemscore.Lipo.Weighted>
-11.9304

> <Gold.Chemscore.Internal_Hbond.Weighted>
0.0000

> <Gold.Chemscore.DEClash.Weighted>
0.0459

> <Gold.Chemscore.DEInternal.Weighted>
0.5695

> <Gold.Chemscore.Rot.Weighted>
5.9238

> <Gold.Chemscore.Internal.Correction.Weighted>
   9.000000E+99

> <Gold.Protein.RotatedTorsions>
[ 6907 6896 6895 6894 ] final -163.11 input  -60.11 | X-H torsion
[ 7974 7965 7964 7962 ] final  -21.47 input  175.53 | X-H torsion
[ 8008 7997 7996 7995 ] final -137.11 input   59.86 | X-H torsion
[ 10167 10162 10161 10158 ] final   57.87 input  -65.29 | X-H torsion
[ 10718 10713 10712 10709 ] final  122.06 input   66.30 | X-H torsion
[ 10763 10752 10751 10750 ] final   40.64 input  -60.55 | X-H torsion
[ 11005 11000 10999 10996 ] final   31.25 input  -57.11 | X-H torsion

> <Gold.Protein.ActiveResidues>
 VAL166  LYS551  ARG553  GLY616  TRP617  ASP618  TYR619  PRO620  LYS621  CYS622 
 ASP623  PHE694  ASN695  SER759  ASP760  ASP761  ALA762  ILE779  LEU786  VAL792 
 PHE793  MET794  SER795  GLU796  ALA797  LYS798  CYS799  TRP800  GLU811  SER814 

> <Gold.Protein.RotatedAtoms>
  151.3909  133.3789  159.2720 H   0  0  0  0  0  0  0  0  0  0  0  0  # atno 6907 bound_to 6896
  150.9506  134.8907  159.7680 H   0  0  0  0  0  0  0  0  0  0  0  0  # atno 6908 bound_to 6896
  152.5110  134.3864  159.9421 H   0  0  0  0  0  0  0  0  0  0  0  0  # atno 6909 bound_to 6896
  146.1731  140.4345  142.8524 H   0  0  0  0  0  0  0  0  0  0  0  0  # atno 7974 bound_to 7965
  155.4064  140.0509  157.3034 H   0  0  0  0  0  0  0  0  0  0  0  0  # atno 8008 bound_to 7997
  154.4967  140.2141  155.9393 H   0  0  0  0  0  0  0  0  0  0  0  0  # atno 8009 bound_to 7997
  156.1414  140.3153  155.8507 H   0  0  0  0  0  0  0  0  0  0  0  0  # atno 8010 bound_to 7997
  140.1934  144.4062  150.6561 H   0  0  0  0  0  0  0  0  0  0  0  0  # atno 10167 bound_to 10162
  157.5771  131.1078  150.8259 H   0  0  0  0  0  0  0  0  0  0  0  0  # atno 10718 bound_to 10713
  152.9930  135.6185  154.2659 H   0  0  0  0  0  0  0  0  0  0  0  0  # atno 10763 bound_to 10752
  154.2394  135.2789  155.2861 H   0  0  0  0  0  0  0  0  0  0  0  0  # atno 10764 bound_to 10752
  154.5382  135.5768  153.6874 H   0  0  0  0  0  0  0  0  0  0  0  0  # atno 10765 bound_to 10752
  140.2858  134.2921  155.7788 H   0  0  0  0  0  0  0  0  0  0  0  0  # atno 11005 bound_to 11000
  144.8194  140.6523  143.6363 LP  0  0  0  0  0  0  0  0  0  0  0  0  # atno 17320 bound_to 7965
  145.4286  139.1552  143.4035 LP  0  0  0  0  0  0  0  0  0  0  0  0  # atno 17321 bound_to 7965
  140.6440  143.2209  151.6227 LP  0  0  0  0  0  0  0  0  0  0  0  0  # atno 17342 bound_to 10162
  139.5246  144.3097  152.1003 LP  0  0  0  0  0  0  0  0  0  0  0  0  # atno 17343 bound_to 10162
  156.8715  130.5147  149.5296 LP  0  0  0  0  0  0  0  0  0  0  0  0  # atno 17370 bound_to 10713
  156.0816  130.5825  150.9572 LP  0  0  0  0  0  0  0  0  0  0  0  0  # atno 17371 bound_to 10713
  141.2155  133.7554  156.9550 LP  0  0  0  0  0  0  0  0  0  0  0  0  # atno 17394 bound_to 11000
  140.1241  134.9398  157.2245 LP  0  0  0  0  0  0  0  0  0  0  0  0  # atno 17395 bound_to 11000

$$$$
