AV-unprocessed.smi:327|AV-procd|sdf|2346|dock2
  -GOLD-   2262022253D 1   1.00000     0.00000
 Structure written by MMmdl.
 47 48  0  0  0  0  0  0  0  0  1 V2000
  145.7385  142.9118  160.5111 C   0  0  0  0  0  0  0  0  0  0  0  0
  146.4317  142.0819  159.5961 O   0  0  0  0  0  0  0  0  0  0  0  0
  145.5986  141.6104  158.5499 C   0  0  0  0  0  0  0  0  0  0  0  0
  145.5927  142.6191  157.3898 C   0  0  0  0  0  0  0  0  0  0  0  0
  146.5229  142.2304  156.3234 N   0  0  0  0  0  0  0  0  0  0  0  0
  147.8410  142.1321  156.7381 N   0  0  0  0  0  0  0  0  0  0  0  0
  148.7668  141.8085  155.8938 C   0  0  0  0  0  0  0  0  0  0  0  0
  150.1965  141.7059  156.2977 C   0  0  0  0  0  0  0  0  0  0  0  0
  151.0458  141.1995  155.5624 O   0  0  0  0  0  0  0  0  0  0  0  0
  150.4875  142.2122  157.5099 N   0  0  0  0  0  0  0  0  0  0  0  0
  151.8137  142.2693  158.1200 C   0  0  0  0  0  0  0  0  0  0  0  0
  151.8536  141.3074  159.3275 C   0  0  0  0  0  0  0  0  0  0  0  0
  153.0914  141.4296  160.2388 C   0  0  0  0  0  0  0  0  0  0  0  0
  152.8418  142.1865  161.5596 C   0  0  0  0  0  0  0  0  0  0  0  0
  152.5869  143.7044  161.4576 C   0  0  0  0  0  0  0  0  0  0  0  0
  151.2440  144.0924  160.8060 C   0  0  0  0  0  0  0  0  0  0  0  0
  151.3313  144.5589  159.3401 C   0  0  0  0  0  0  0  0  0  0  0  0
  152.2302  143.7328  158.3986 C   0  0  0  0  0  0  0  0  0  0  0  0
  148.4437  141.5367  154.5034 C   0  0  0  0  0  0  0  0  0  0  0  0
  147.1548  141.6414  154.1124 C   0  0  0  0  0  0  0  0  0  0  0  0
  146.0896  142.0145  155.0446 C   0  0  0  0  0  0  0  0  0  0  0  0
  144.9114  142.1253  154.7070 O   0  0  0  0  0  0  0  0  0  0  0  0
  146.4195  143.2397  161.2962 H   0  0  0  0  0  0  0  0  0  0  0  0
  144.9137  142.3762  160.9830 H   0  0  0  0  0  0  0  0  0  0  0  0
  145.3426  143.7996  160.0164 H   0  0  0  0  0  0  0  0  0  0  0  0
  145.9366  140.6325  158.2028 H   0  0  0  0  0  0  0  0  0  0  0  0
  144.5822  141.4860  158.9262 H   0  0  0  0  0  0  0  0  0  0  0  0
  144.5851  142.6754  156.9743 H   0  0  0  0  0  0  0  0  0  0  0  0
  145.8032  143.6227  157.7630 H   0  0  0  0  0  0  0  0  0  0  0  0
  149.7275  142.6071  158.0450 H   0  0  0  0  0  0  0  0  0  0  0  0
  152.5344  141.8770  157.4001 H   0  0  0  0  0  0  0  0  0  0  0  0
  150.9425  141.3792  159.9198 H   0  0  0  0  0  0  0  0  0  0  0  0
  151.8310  140.2927  158.9275 H   0  0  0  0  0  0  0  0  0  0  0  0
  153.3974  140.4184  160.5098 H   0  0  0  0  0  0  0  0  0  0  0  0
  153.9448  141.8438  159.7023 H   0  0  0  0  0  0  0  0  0  0  0  0
  152.0182  141.7160  162.0978 H   0  0  0  0  0  0  0  0  0  0  0  0
  153.7181  142.0423  162.1925 H   0  0  0  0  0  0  0  0  0  0  0  0
  152.5779  144.0906  162.4774 H   0  0  0  0  0  0  0  0  0  0  0  0
  153.4231  144.2105  160.9753 H   0  0  0  0  0  0  0  0  0  0  0  0
  150.5194  143.2866  160.9122 H   0  0  0  0  0  0  0  0  0  0  0  0
  150.8137  144.9159  161.3772 H   0  0  0  0  0  0  0  0  0  0  0  0
  150.3248  144.6279  158.9260 H   0  0  0  0  0  0  0  0  0  0  0  0
  151.7139  145.5802  159.3387 H   0  0  0  0  0  0  0  0  0  0  0  0
  153.2623  143.7693  158.7429 H   0  0  0  0  0  0  0  0  0  0  0  0
  152.2587  144.2562  157.4421 H   0  0  0  0  0  0  0  0  0  0  0  0
  149.2091  141.2586  153.7934 H   0  0  0  0  0  0  0  0  0  0  0  0
  146.9007  141.4440  153.0814 H   0  0  0  0  0  0  0  0  0  0  0  0
  1  2  1  0  0  0  0
  1 23  1  0  0  0  0
  1 24  1  0  0  0  0
  1 25  1  0  0  0  0
  2  3  1  0  0  0  0
  3  4  1  0  0  0  0
  3 26  1  0  0  0  0
  3 27  1  0  0  0  0
  4  5  1  0  0  0  0
  4 28  1  0  0  0  0
  4 29  1  0  0  0  0
  5 21  1  0  0  0  0
  5  6  1  0  0  0  0
  6  7  2  0  0  0  0
  7  8  1  0  0  0  0
  7 19  1  0  0  0  0
  8  9  2  0  0  0  0
  8 10  1  0  0  0  0
 10 11  1  0  0  0  0
 10 30  1  0  0  0  0
 11 18  1  0  0  0  0
 11 12  1  0  0  0  0
 11 31  1  0  0  0  0
 12 13  1  0  0  0  0
 12 32  1  0  0  0  0
 12 33  1  0  0  0  0
 13 14  1  0  0  0  0
 13 34  1  0  0  0  0
 13 35  1  0  0  0  0
 14 15  1  0  0  0  0
 14 36  1  0  0  0  0
 14 37  1  0  0  0  0
 15 16  1  0  0  0  0
 15 38  1  0  0  0  0
 15 39  1  0  0  0  0
 16 17  1  0  0  0  0
 16 40  1  0  0  0  0
 16 41  1  0  0  0  0
 17 18  1  0  0  0  0
 17 42  1  0  0  0  0
 17 43  1  0  0  0  0
 18 44  1  0  0  0  0
 18 45  1  0  0  0  0
 19 20  2  0  0  0  0
 19 46  1  0  0  0  0
 20 21  1  0  0  0  0
 20 47  1  0  0  0  0
 21 22  2  0  0  0  0
M  END
> <s_m_source_file>
AV-unprocessed.smi

> <i_m_source_file_index>
327

> <i_lp_mmshare_version>
43012

> <i_f3d_flags>
0

> <s_epik_input>
W0NIM11PW0NIMl1bQ0gyXW4xbmMoW2NIXVtjSF1jMT1PKUMoPU8pW05IXVtDSF0yW0NIMl1bQ0gyXVtDSDJdW0NIMl1bQ0gyXVtDSDJdW0NIMl0y

> <s_epik_cmdline>
J2VwaWtfcHl0aG9uJywgJy1waCcsICc3LjAnLCAnLXRuJywgJzgnLCAnLW1hJywgJzIwMCcsICctbWV0YWxfYmluZGluZycsICctaW1hZScsICc8aW5maWxlLm1hZT4nLCAnLW9tYWUnLCAnPG91dGZpbGUubWFlPic=

> <r_lp_tautomer_probability>
1

> <r_epik_Ionization_Penalty>
5.81787e-07

> <r_epik_Ionization_Penalty_Charging>
6.75108e-09

> <r_epik_Ionization_Penalty_Neutral>
5.75036e-07

> <r_epik_State_Penalty>
-0

> <r_epik_Charging_Adjusted_Penalty>
6.75108e-09

> <i_epik_Tot_Q>
0

> <i_epik_Tot_abs_Q>
0

> <r_epik_Metal_State_Penalty>
-0

> <b_epik_Metal_Only>
0

> <s_lp_Force_Field>
OPLS_2005

> <r_lp_Energy>
41.0284

> <b_lp_Chiralities_Consistent>
1

> <s_lp_Variant>
AV-unprocessed.smi:327-1

> <Gold.Version>
5.8.1

> <Gold.Id.Protein>
6NUR|6NUR_protein|mol2

> <Gold.PLP.Fitness>
43.9142

> <Gold.PLP.PLP>
-40.7738

> <Gold.PLP.part.hbond>
-2.0000

> <Gold.PLP.part.metal>
0.0000

> <Gold.PLP.part.buried>
-4.6116

> <Gold.PLP.part.nonpolar>
-35.5667

> <Gold.PLP.part.repulsive>
2.2967

> <Gold.PLP.ligand.clash>
0.0000

> <Gold.PLP.ligand.torsion>
0.5327

> <Gold.PLP.Chemscore.Hbond>
1.3853

> <Gold.PLP.Chemscore.CHOScore>
0.0000

> <Gold.PLP.Chemscore.Metal>
0.0000

> <Gold.Chemscore.Hbonds>
donor molecule, donor type, donor heavy atom, donor atom, acceptor molecule, acceptor atom, score
      P1  H  6934  6946       L1     2  0.90
      P1  H  7989  7998       L1     9  0.40

> <Gold.PLP.Chemscore.Internal.Correction>
0.0498

> <Gold.Rescore>
     Score         DG    S(hbond)    S(metal)    S(lipo)     H(rot)  DE(clash)    DE(int)     intcor
     17.83     -18.57       1.30        0.00     108.22       1.53       0.21       0.53       ----

> <Gold.Chemscore.Fitness>
17.8261

> <Gold.Chemscore.DG>
-18.5726

> <Gold.Chemscore.ZeroCoef>
-5.4800

> <Gold.Chemscore.Hbond>
1.3002

> <Gold.Chemscore.Metal>
0.0000

> <Gold.Chemscore.Lipo>
108.2248

> <Gold.Chemscore.Internal_Hbond>
0.0000

> <Gold.Chemscore.DEClash>
0.2129

> <Gold.Chemscore.DEInternal>
0.5336

> <Gold.Chemscore.Rot>
1.5283

> <Gold.Chemscore.Internal.Correction>
   9.000000E+99

> <Gold.Chemscore.Hbonds>
donor molecule, donor type, donor heavy atom, donor atom, acceptor molecule, acceptor atom, score
      P1  H  6934  6946       L1     2  0.15
      P1  H  7989  7998       L1     9  0.40

> <Gold.Chemscore.Hbond.Weighted>
-4.3427

> <Gold.Chemscore.Metal.Weighted>
-0.0000

> <Gold.Chemscore.Lipo.Weighted>
-12.6623

> <Gold.Chemscore.Internal_Hbond.Weighted>
0.0000

> <Gold.Chemscore.DEClash.Weighted>
0.2129

> <Gold.Chemscore.DEInternal.Weighted>
0.5336

> <Gold.Chemscore.Rot.Weighted>
3.9124

> <Gold.Chemscore.Internal.Correction.Weighted>
   9.000000E+99

> <Gold.Protein.RotatedTorsions>
[ 6907 6896 6895 6894 ] final  166.45 input  -60.11 | X-H torsion
[ 7974 7965 7964 7962 ] final  160.03 input  175.53 | X-H torsion
[ 8008 7997 7996 7995 ] final  -23.63 input   59.86 | X-H torsion
[ 10167 10162 10161 10158 ] final  123.66 input  -65.29 | X-H torsion
[ 10718 10713 10712 10709 ] final  -87.73 input   66.30 | X-H torsion
[ 10763 10752 10751 10750 ] final  -98.67 input  -60.55 | X-H torsion
[ 11005 11000 10999 10996 ] final  167.04 input  -57.11 | X-H torsion

> <Gold.Protein.ActiveResidues>
 VAL166  LYS551  ARG553  GLY616  TRP617  ASP618  TYR619  PRO620  LYS621  CYS622 
 ASP623  PHE694  ASN695  SER759  ASP760  ASP761  ALA762  ILE779  LEU786  VAL792 
 PHE793  MET794  SER795  GLU796  ALA797  LYS798  CYS799  TRP800  GLU811  SER814 

> <Gold.Protein.RotatedAtoms>
  151.8788  133.3491  159.3758 H   0  0  0  0  0  0  0  0  0  0  0  0  # atno 6907 bound_to 6896
  150.7133  134.5040  159.5584 H   0  0  0  0  0  0  0  0  0  0  0  0  # atno 6908 bound_to 6896
  152.2587  134.8057  160.0485 H   0  0  0  0  0  0  0  0  0  0  0  0  # atno 6909 bound_to 6896
  144.7758  139.7700  143.6279 H   0  0  0  0  0  0  0  0  0  0  0  0  # atno 7974 bound_to 7965
  154.4574  140.1975  156.0341 H   0  0  0  0  0  0  0  0  0  0  0  0  # atno 8008 bound_to 7997
  156.0773  140.3276  155.7622 H   0  0  0  0  0  0  0  0  0  0  0  0  # atno 8009 bound_to 7997
  155.5168  140.0566  157.2904 H   0  0  0  0  0  0  0  0  0  0  0  0  # atno 8010 bound_to 7997
  139.5786  144.6975  151.3587 H   0  0  0  0  0  0  0  0  0  0  0  0  # atno 10167 bound_to 10162
  155.9984  130.4810  150.4911 H   0  0  0  0  0  0  0  0  0  0  0  0  # atno 10718 bound_to 10713
  154.7433  135.5001  153.9161 H   0  0  0  0  0  0  0  0  0  0  0  0  # atno 10763 bound_to 10752
  153.1066  135.6699  153.9583 H   0  0  0  0  0  0  0  0  0  0  0  0  # atno 10764 bound_to 10752
  153.9355  135.3073  155.3423 H   0  0  0  0  0  0  0  0  0  0  0  0  # atno 10765 bound_to 10752
  140.2726  134.7814  157.3689 H   0  0  0  0  0  0  0  0  0  0  0  0  # atno 11005 bound_to 11000
  146.1937  139.5191  142.9789 LP  0  0  0  0  0  0  0  0  0  0  0  0  # atno 17320 bound_to 7965
  145.6190  141.0326  143.1925 LP  0  0  0  0  0  0  0  0  0  0  0  0  # atno 17321 bound_to 7965
  140.7067  143.7496  150.7494 LP  0  0  0  0  0  0  0  0  0  0  0  0  # atno 17342 bound_to 10162
  140.1023  143.4777  152.2418 LP  0  0  0  0  0  0  0  0  0  0  0  0  # atno 17343 bound_to 10162
  157.2906  131.0625  151.2136 LP  0  0  0  0  0  0  0  0  0  0  0  0  # atno 17370 bound_to 10713
  157.3150  130.6908  149.6237 LP  0  0  0  0  0  0  0  0  0  0  0  0  # atno 17371 bound_to 10713
  140.1358  134.5035  155.8069 LP  0  0  0  0  0  0  0  0  0  0  0  0  # atno 17394 bound_to 11000
  141.2175  133.6807  156.7122 LP  0  0  0  0  0  0  0  0  0  0  0  0  # atno 17395 bound_to 11000

$$$$
