AV-unprocessed.smi:261|AV-procd|sdf|1987|dock2
  -GOLD-   2262021163D 1   1.00000     0.00000
 Structure written by MMmdl.
 51 54  0  0  0  0  0  0  0  0  1 V2000
  144.3797  132.5794  150.8677 C   0  0  0  0  0  0  0  0  0  0  0  0
  144.7790  133.8206  150.3094 O   0  0  0  0  0  0  0  0  0  0  0  0
  144.6280  134.9142  151.2022 C   0  0  1  0  0  0  0  0  0  0  0  0
  143.2285  134.9347  151.8040 C   0  0  0  0  0  0  0  0  0  0  0  0
  143.4116  135.7754  153.0750 C   0  0  1  0  0  0  0  0  0  0  0  0
  142.3469  135.4555  154.1342 C   0  0  0  0  0  0  0  0  0  0  0  0
  142.3275  134.2079  154.6089 N   0  0  0  0  0  0  0  0  0  0  0  0
  141.5645  136.3176  154.5311 O   0  0  0  0  0  0  0  0  0  0  0  0
  144.7652  135.4464  153.5315 N   0  0  0  0  0  0  0  0  0  0  0  0
  145.4066  136.4375  154.1892 C   0  0  0  0  0  0  0  0  0  0  0  0
  145.8211  136.1775  155.4530 N   0  0  0  0  0  0  0  0  0  0  0  0
  146.4567  137.1216  156.1540 C   0  0  0  0  0  0  0  0  0  0  0  0
  146.7711  138.3664  155.7867 N   0  0  0  0  0  0  0  0  0  0  0  0
  146.3510  138.6291  154.5156 C   0  0  0  0  0  0  0  0  0  0  0  0
  145.6657  137.7299  153.6523 C   0  0  0  0  0  0  0  0  0  0  0  0
  145.3946  138.3492  152.4378 N   0  0  0  0  0  0  0  0  0  0  0  0
  145.8923  139.5480  152.5757 C   0  0  0  0  0  0  0  0  0  0  0  0
  146.4845  139.8007  153.7921 N   0  0  0  0  0  0  0  0  0  0  0  0
  147.1093  141.0428  154.2113 C   0  0  0  0  0  0  0  0  0  0  0  0
  148.5299  140.8297  154.7707 C   0  0  1  0  0  0  0  0  0  0  0  0
  149.4345  140.6407  153.6992 O   0  0  0  0  0  0  0  0  0  0  0  0
  149.0037  142.0251  155.6177 C   0  0  2  0  0  0  0  0  0  0  0  0
  150.3744  141.8416  156.2680 C   0  0  0  0  0  0  0  0  0  0  0  0
  150.3385  142.8225  157.4266 C   0  0  0  0  0  0  0  0  0  0  0  0
  148.8434  143.0423  157.6767 C   0  0  0  0  0  0  0  0  0  0  0  0
  148.1705  142.1943  156.7542 O   0  0  0  0  0  0  0  0  0  0  0  0
  145.5130  134.8139  152.4484 C   0  0  0  0  0  0  0  0  0  0  0  0
  144.8031  135.8618  150.6890 H   0  0  0  0  0  0  0  0  0  0  0  0
  143.3521  136.8338  152.8122 H   0  0  0  0  0  0  0  0  0  0  0  0
  144.5438  131.7836  150.1413 H   0  0  0  0  0  0  0  0  0  0  0  0
  143.3209  132.5791  151.1285 H   0  0  0  0  0  0  0  0  0  0  0  0
  144.9605  132.3437  151.7603 H   0  0  0  0  0  0  0  0  0  0  0  0
  142.4887  135.3557  151.1225 H   0  0  0  0  0  0  0  0  0  0  0  0
  142.9177  133.9174  152.0507 H   0  0  0  0  0  0  0  0  0  0  0  0
  141.6484  133.9437  155.3077 H   0  0  0  0  0  0  0  0  0  0  0  0
  142.9951  133.5323  154.2661 H   0  0  0  0  0  0  0  0  0  0  0  0
  146.7559  136.8391  157.1526 H   0  0  0  0  0  0  0  0  0  0  0  0
  145.8387  140.2875  151.7899 H   0  0  0  0  0  0  0  0  0  0  0  0
  147.1306  141.7283  153.3632 H   0  0  0  0  0  0  0  0  0  0  0  0
  146.4711  141.5041  154.9657 H   0  0  0  0  0  0  0  0  0  0  0  0
  148.5436  139.9264  155.3821 H   0  0  0  0  0  0  0  0  0  0  0  0
  148.9373  140.5096  152.9063 H   0  0  0  0  0  0  0  0  0  0  0  0
  148.9900  142.9442  155.0285 H   0  0  0  0  0  0  0  0  0  0  0  0
  150.4767  140.8254  156.6508 H   0  0  0  0  0  0  0  0  0  0  0  0
  151.1997  142.0278  155.5804 H   0  0  0  0  0  0  0  0  0  0  0  0
  150.8518  142.4277  158.3037 H   0  0  0  0  0  0  0  0  0  0  0  0
  150.8162  143.7637  157.1523 H   0  0  0  0  0  0  0  0  0  0  0  0
  148.5532  142.7997  158.6991 H   0  0  0  0  0  0  0  0  0  0  0  0
  148.5698  144.0802  157.4829 H   0  0  0  0  0  0  0  0  0  0  0  0
  145.6629  133.7692  152.7231 H   0  0  0  0  0  0  0  0  0  0  0  0
  146.5001  135.2473  152.2787 H   0  0  0  0  0  0  0  0  0  0  0  0
  1  2  1  0  0  0  0
  1 30  1  0  0  0  0
  1 31  1  0  0  0  0
  1 32  1  0  0  0  0
  2  3  1  0  0  0  0
  3 28  1  0  0  0  0
  3 27  1  0  0  0  0
  3  4  1  0  0  0  0
  4  5  1  0  0  0  0
  4 33  1  0  0  0  0
  4 34  1  0  0  0  0
  5 29  1  0  0  0  0
  5  6  1  0  0  0  0
  5  9  1  0  0  0  0
  6  7  1  0  0  0  0
  6  8  2  0  0  0  0
  7 35  1  0  0  0  0
  7 36  1  0  0  0  0
  9 10  1  0  0  0  0
  9 27  1  0  0  0  0
 10 15  1  0  0  0  0
 10 11  2  0  0  0  0
 11 12  1  0  0  0  0
 12 13  2  0  0  0  0
 12 37  1  0  0  0  0
 13 14  1  0  0  0  0
 14 18  1  0  0  0  0
 14 15  2  0  0  0  0
 15 16  1  0  0  0  0
 16 17  2  0  0  0  0
 17 18  1  0  0  0  0
 17 38  1  0  0  0  0
 18 19  1  0  0  0  0
 19 20  1  0  0  0  0
 19 39  1  0  0  0  0
 19 40  1  0  0  0  0
 20 21  1  0  0  0  0
 20 22  1  0  0  0  0
 20 41  1  0  0  0  0
 21 42  1  0  0  0  0
 22 26  1  0  0  0  0
 22 23  1  0  0  0  0
 22 43  1  0  0  0  0
 23 24  1  0  0  0  0
 23 44  1  0  0  0  0
 23 45  1  0  0  0  0
 24 25  1  0  0  0  0
 24 46  1  0  0  0  0
 24 47  1  0  0  0  0
 25 26  1  0  0  0  0
 25 48  1  0  0  0  0
 25 49  1  0  0  0  0
 27 50  1  0  0  0  0
 27 51  1  0  0  0  0
M  END
> <s_m_source_file>
AV-unprocessed.smi

> <i_m_source_file_index>
261

> <i_lp_mmshare_version>
43012

> <i_f3d_flags>
0

> <s_epik_input>
W0NIM11PW0NASF0xW0NIMl1bQ0BASF0oQyg9TylbTkgyXSlOKFtDSDJdMSljKG5bY0hdbjIpYyhjMjMpbltjSF1uM1tDSDJdW0NASF0oW09IXSlbQ0BASF00W0NIMl1bQ0gyXVtDSDJdTzQ=

> <s_epik_cmdline>
J2VwaWtfcHl0aG9uJywgJy1waCcsICc3LjAnLCAnLXRuJywgJzgnLCAnLW1hJywgJzIwMCcsICctbWV0YWxfYmluZGluZycsICctaW1hZScsICc8aW5maWxlLm1hZT4nLCAnLW9tYWUnLCAnPG91dGZpbGUubWFlPic=

> <r_lp_tautomer_probability>
1

> <r_epik_Ionization_Penalty>
0.000713824

> <r_epik_Ionization_Penalty_Charging>
0

> <r_epik_Ionization_Penalty_Neutral>
0.000713824

> <r_epik_State_Penalty>
0.000402132

> <r_epik_Charging_Adjusted_Penalty>
0.000402132

> <i_epik_Tot_Q>
0

> <i_epik_Tot_abs_Q>
0

> <r_epik_Metal_State_Penalty>
-0

> <b_epik_Metal_Only>
0

> <s_lp_Force_Field>
OPLS_2005

> <r_lp_Energy>
45.3763

> <b_lp_Chiralities_Consistent>
1

> <s_lp_Variant>
AV-unprocessed.smi:261-5

> <Gold.Version>
5.8.1

> <Gold.Id.Protein>
6NUR|6NUR_protein|mol2

> <Gold.PLP.Fitness>
46.5965

> <Gold.PLP.PLP>
-35.0875

> <Gold.PLP.part.hbond>
-4.0000

> <Gold.PLP.part.metal>
0.0000

> <Gold.PLP.part.buried>
-5.3010

> <Gold.PLP.part.nonpolar>
-26.3304

> <Gold.PLP.part.repulsive>
0.7264

> <Gold.PLP.ligand.clash>
0.0000

> <Gold.PLP.ligand.torsion>
0.4203

> <Gold.PLP.Chemscore.Hbond>
3.5920

> <Gold.PLP.Chemscore.CHOScore>
0.4711

> <Gold.PLP.Chemscore.Metal>
0.0000

> <Gold.Chemscore.Hbonds>
donor molecule, donor type, donor heavy atom, donor atom, acceptor molecule, acceptor atom, score
      L1  H     7    35       P1 11000  1.00
      L1  H     7    36       P1 10957  0.29
      L1  H    21    42       P1  7957  0.56
      P1  H  7989  7998       L1    21  0.28
      L1  C    17    38       P1 10175  0.08

> <Gold.PLP.Chemscore.Internal.Correction>
0.1602

> <Gold.Rescore>
     Score         DG    S(hbond)    S(metal)    S(lipo)     H(rot)  DE(clash)    DE(int)     intcor
     13.26     -13.76       2.99        0.00      63.51       3.57       0.03       0.47       ----

> <Gold.Chemscore.Fitness>
13.2610

> <Gold.Chemscore.DG>
-13.7594

> <Gold.Chemscore.ZeroCoef>
-5.4800

> <Gold.Chemscore.Hbond>
2.9936

> <Gold.Chemscore.Metal>
0.0000

> <Gold.Chemscore.Lipo>
63.5055

> <Gold.Chemscore.Internal_Hbond>
0.0000

> <Gold.Chemscore.DEClash>
0.0324

> <Gold.Chemscore.DEInternal>
0.4659

> <Gold.Chemscore.Rot>
3.5740

> <Gold.Chemscore.Internal.Correction>
   9.000000E+99

> <Gold.Chemscore.Hbonds>
donor molecule, donor type, donor heavy atom, donor atom, acceptor molecule, acceptor atom, score
      L1  H     7    35       P1 11000  0.98
      L1  H     7    36       P1 10957  0.28
      L1  H    21    42       P1  7957  0.56
      P1  H  7989  7998       L1    21  0.26

> <Gold.Chemscore.Hbond.Weighted>
-9.9987

> <Gold.Chemscore.Metal.Weighted>
-0.0000

> <Gold.Chemscore.Lipo.Weighted>
-7.4301

> <Gold.Chemscore.Internal_Hbond.Weighted>
0.0000

> <Gold.Chemscore.DEClash.Weighted>
0.0324

> <Gold.Chemscore.DEInternal.Weighted>
0.4659

> <Gold.Chemscore.Rot.Weighted>
9.1495

> <Gold.Chemscore.Internal.Correction.Weighted>
   9.000000E+99

> <Gold.Protein.RotatedTorsions>
[ 6907 6896 6895 6894 ] final   42.62 input  -60.11 | X-H torsion
[ 7974 7965 7964 7962 ] final  -17.01 input  175.53 | X-H torsion
[ 8008 7997 7996 7995 ] final  117.70 input   59.86 | X-H torsion
[ 10167 10162 10161 10158 ] final -167.24 input  -65.29 | X-H torsion
[ 10718 10713 10712 10709 ] final -111.09 input   66.30 | X-H torsion
[ 10763 10752 10751 10750 ] final  -68.64 input  -60.55 | X-H torsion
[ 11005 11000 10999 10996 ] final  133.67 input  -57.11 | X-H torsion

> <Gold.Protein.ActiveResidues>
 VAL166  LYS551  ARG553  GLY616  TRP617  ASP618  TYR619  PRO620  LYS621  CYS622 
 ASP623  PHE694  ASN695  SER759  ASP760  ASP761  ALA762  ILE779  LEU786  VAL792 
 PHE793  MET794  SER795  GLU796  ALA797  LYS798  CYS799  TRP800  GLU811  SER814 

> <Gold.Protein.RotatedAtoms>
  152.2102  134.8508  160.0498 H   0  0  0  0  0  0  0  0  0  0  0  0  # atno 6907 bound_to 6896
  151.9330  133.3611  159.3946 H   0  0  0  0  0  0  0  0  0  0  0  0  # atno 6908 bound_to 6896
  150.6974  134.4443  159.5350 H   0  0  0  0  0  0  0  0  0  0  0  0  # atno 6909 bound_to 6896
  146.1961  140.3718  142.8440 H   0  0  0  0  0  0  0  0  0  0  0  0  # atno 7974 bound_to 7965
  156.2508  140.2890  156.0720 H   0  0  0  0  0  0  0  0  0  0  0  0  # atno 8008 bound_to 7997
  155.1661  140.0400  157.2870 H   0  0  0  0  0  0  0  0  0  0  0  0  # atno 8009 bound_to 7997
  154.6359  140.2510  155.7386 H   0  0  0  0  0  0  0  0  0  0  0  0  # atno 8010 bound_to 7997
  139.6062  144.0907  152.1795 H   0  0  0  0  0  0  0  0  0  0  0  0  # atno 10167 bound_to 10162
  156.0627  130.5849  150.8326 H   0  0  0  0  0  0  0  0  0  0  0  0  # atno 10718 bound_to 10713
  154.3920  135.6050  153.5848 H   0  0  0  0  0  0  0  0  0  0  0  0  # atno 10763 bound_to 10752
  152.9787  135.5886  154.4286 H   0  0  0  0  0  0  0  0  0  0  0  0  # atno 10764 bound_to 10752
  154.4072  135.2843  155.2038 H   0  0  0  0  0  0  0  0  0  0  0  0  # atno 10765 bound_to 10752
  139.9866  134.9530  156.9758 H   0  0  0  0  0  0  0  0  0  0  0  0  # atno 11005 bound_to 11000
  144.8583  140.7103  143.6123 LP  0  0  0  0  0  0  0  0  0  0  0  0  # atno 17320 bound_to 7965
  145.3639  139.1675  143.4368 LP  0  0  0  0  0  0  0  0  0  0  0  0  # atno 17321 bound_to 7965
  140.0515  144.5928  150.7332 LP  0  0  0  0  0  0  0  0  0  0  0  0  # atno 17342 bound_to 10162
  140.7287  143.2664  151.4031 LP  0  0  0  0  0  0  0  0  0  0  0  0  # atno 17343 bound_to 10162
  157.5648  131.0946  150.9506 LP  0  0  0  0  0  0  0  0  0  0  0  0  # atno 17370 bound_to 10713
  156.9736  130.5500  149.5292 LP  0  0  0  0  0  0  0  0  0  0  0  0  # atno 17371 bound_to 10713
  140.4990  134.1116  155.7247 LP  0  0  0  0  0  0  0  0  0  0  0  0  # atno 17394 bound_to 11000
  141.1530  133.8934  157.2050 LP  0  0  0  0  0  0  0  0  0  0  0  0  # atno 17395 bound_to 11000

$$$$
