AV-unprocessed.smi:3116|AV-procd|sdf|11872|dock3
  -GOLD-   2272017253D 1   1.00000     0.00000
 Structure written by MMmdl.
 33 33  0  0  0  0  0  0  0  0  1 V2000
  147.2750  140.2944  153.9538 C   0  0  0  0  0  0  0  0  0  0  0  0
  147.3100  138.8523  153.4248 C   0  0  2  0  0  0  0  0  0  0  0  0
  148.7057  138.3891  153.3442 N   0  0  0  0  0  0  0  0  0  0  0  0
  149.3652  138.1511  154.6291 C   0  0  1  0  0  0  0  0  0  0  0  0
  149.3682  136.6348  154.8933 C   0  0  0  0  0  0  0  0  0  0  0  0
  150.7891  138.7690  154.6296 C   0  0  2  0  0  0  0  0  0  0  0  0
  151.9081  137.7123  154.5861 C   0  0  0  0  0  0  0  0  0  0  0  0
  151.0029  139.7299  155.7088 N   0  0  0  0  0  0  0  0  0  0  0  0
  151.9272  139.6949  156.7350 C   0  0  0  0  0  0  0  0  0  0  0  0
  151.7265  140.8027  157.5070 C   0  0  0  0  0  0  0  0  0  0  0  0
  150.6400  141.4641  156.8708 C   0  0  0  0  0  0  0  0  0  0  0  0
  150.2080  140.8198  155.7994 N   0  0  0  0  0  0  0  0  0  0  0  0
  146.5648  138.7544  152.0838 C   0  0  0  0  0  0  0  0  0  0  0  0
  145.2317  138.8210  152.1195 N   0  0  0  0  0  0  0  0  0  0  0  0
  147.1846  138.6045  151.0323 O   0  0  0  0  0  0  0  0  0  0  0  0
  146.2509  140.6586  154.0457 H   0  0  0  0  0  0  0  0  0  0  0  0
  147.8140  140.9780  153.2964 H   0  0  0  0  0  0  0  0  0  0  0  0
  147.7329  140.3579  154.9415 H   0  0  0  0  0  0  0  0  0  0  0  0
  146.7929  138.2260  154.1541 H   0  0  0  0  0  0  0  0  0  0  0  0
  148.7985  137.5769  152.7506 H   0  0  0  0  0  0  0  0  0  0  0  0
  148.8115  138.6306  155.4376 H   0  0  0  0  0  0  0  0  0  0  0  0
  149.8823  136.4043  155.8266 H   0  0  0  0  0  0  0  0  0  0  0  0
  149.8677  136.0836  154.0956 H   0  0  0  0  0  0  0  0  0  0  0  0
  148.3540  136.2440  154.9767 H   0  0  0  0  0  0  0  0  0  0  0  0
  150.8784  139.3258  153.6949 H   0  0  0  0  0  0  0  0  0  0  0  0
  151.7886  137.0526  153.7264 H   0  0  0  0  0  0  0  0  0  0  0  0
  151.9158  137.0893  155.4806 H   0  0  0  0  0  0  0  0  0  0  0  0
  152.8874  138.1850  154.5037 H   0  0  0  0  0  0  0  0  0  0  0  0
  152.6428  138.8918  156.8314 H   0  0  0  0  0  0  0  0  0  0  0  0
  152.2707  141.0948  158.3926 H   0  0  0  0  0  0  0  0  0  0  0  0
  150.1544  142.3859  157.1547 H   0  0  0  0  0  0  0  0  0  0  0  0
  144.7000  138.7602  151.2634 H   0  0  0  0  0  0  0  0  0  0  0  0
  144.7601  138.9313  153.0055 H   0  0  0  0  0  0  0  0  0  0  0  0
  1  2  1  0  0  0  0
  1 16  1  0  0  0  0
  1 17  1  0  0  0  0
  1 18  1  0  0  0  0
  2  3  1  0  0  0  0
  2 13  1  0  0  0  0
  2 19  1  0  0  0  0
  3  4  1  0  0  0  0
  3 20  1  0  0  0  0
  4  5  1  0  0  0  0
  4  6  1  0  0  0  0
  4 21  1  0  0  0  0
  5 22  1  0  0  0  0
  5 23  1  0  0  0  0
  5 24  1  0  0  0  0
  6  7  1  0  0  0  0
  6  8  1  0  0  0  0
  6 25  1  0  0  0  0
  7 26  1  0  0  0  0
  7 27  1  0  0  0  0
  7 28  1  0  0  0  0
  8 12  1  0  0  0  0
  8  9  1  0  0  0  0
  9 10  2  0  0  0  0
  9 29  1  0  0  0  0
 10 11  1  0  0  0  0
 10 30  1  0  0  0  0
 11 12  2  0  0  0  0
 11 31  1  0  0  0  0
 13 14  1  0  0  0  0
 13 15  2  0  0  0  0
 14 32  1  0  0  0  0
 14 33  1  0  0  0  0
M  END
> <s_m_source_file>
AV-unprocessed.smi

> <i_m_source_file_index>
3116

> <i_lp_mmshare_version>
43012

> <i_f3d_flags>
0

> <s_epik_input>
W05IMl1DKD1PKVtDQEhdKFtDSDNdKVtOSF1bQ0BIXShbQ0gzXSlbQ0BIXShbQ0gzXSluMVtjSF1bY0hdW2NIXW4x

> <s_epik_cmdline>
J2VwaWtfcHl0aG9uJywgJy1waCcsICc3LjAnLCAnLXRuJywgJzgnLCAnLW1hJywgJzIwMCcsICctbWV0YWxfYmluZGluZycsICctaW1hZScsICc8aW5maWxlLm1hZT4nLCAnLW9tYWUnLCAnPG91dGZpbGUubWFlPic=

> <r_lp_tautomer_probability>
1

> <r_epik_Ionization_Penalty>
0.865977

> <r_epik_Ionization_Penalty_Charging>
0

> <r_epik_Ionization_Penalty_Neutral>
0.865977

> <r_epik_State_Penalty>
0.901888

> <r_epik_Charging_Adjusted_Penalty>
0.901888

> <i_epik_Tot_Q>
0

> <i_epik_Tot_abs_Q>
0

> <r_epik_Metal_State_Penalty>
0.901181

> <b_epik_Metal_Only>
0

> <s_lp_Force_Field>
OPLS_2005

> <r_lp_Energy>
10.1697

> <b_lp_Chiralities_Consistent>
1

> <s_lp_Variant>
AV-unprocessed.smi:3116-11

> <Gold.Version>
5.8.1

> <Gold.Id.Protein>
6NUR|6NUR_protein|mol2

> <Gold.PLP.Fitness>
36.1883

> <Gold.PLP.PLP>
-28.9504

> <Gold.PLP.part.hbond>
-5.0000

> <Gold.PLP.part.metal>
0.0000

> <Gold.PLP.part.buried>
-2.7572

> <Gold.PLP.part.nonpolar>
-23.1083

> <Gold.PLP.part.repulsive>
2.8483

> <Gold.PLP.ligand.clash>
0.0000

> <Gold.PLP.ligand.torsion>
2.5510

> <Gold.PLP.Chemscore.Hbond>
3.0000

> <Gold.PLP.Chemscore.CHOScore>
1.0000

> <Gold.PLP.Chemscore.Metal>
0.0000

> <Gold.Chemscore.Hbonds>
donor molecule, donor type, donor heavy atom, donor atom, acceptor molecule, acceptor atom, score
      L1  H     3    20       P1  7948  1.00
      L1  H    14    32       P1 10171  1.00
      P1  H  7954  7966       L1    15  0.99

> <Gold.PLP.Chemscore.Internal.Correction>
0.3398

> <Gold.Rescore>
     Score         DG    S(hbond)    S(metal)    S(lipo)     H(rot)  DE(clash)    DE(int)     intcor
     13.24     -16.89       3.22        0.00      57.68       2.38       1.46       2.18       ----

> <Gold.Chemscore.Fitness>
13.2394

> <Gold.Chemscore.DG>
-16.8858

> <Gold.Chemscore.ZeroCoef>
-5.4800

> <Gold.Chemscore.Hbond>
3.2212

> <Gold.Chemscore.Metal>
0.0000

> <Gold.Chemscore.Lipo>
57.6850

> <Gold.Chemscore.Internal_Hbond>
0.0000

> <Gold.Chemscore.DEClash>
1.4633

> <Gold.Chemscore.DEInternal>
2.1832

> <Gold.Chemscore.Rot>
2.3836

> <Gold.Chemscore.Internal.Correction>
   9.000000E+99

> <Gold.Chemscore.Hbonds>
donor molecule, donor type, donor heavy atom, donor atom, acceptor molecule, acceptor atom, score
      L1  H     3    20       P1  7948  0.98
      L1  H    14    32       P1 10171  1.00
      L1  H    14    33       P1 10175  0.02
      P1  H  7954  7966       L1    15  0.93

> <Gold.Chemscore.Hbond.Weighted>
-10.7587

> <Gold.Chemscore.Metal.Weighted>
-0.0000

> <Gold.Chemscore.Lipo.Weighted>
-6.7491

> <Gold.Chemscore.Internal_Hbond.Weighted>
0.0000

> <Gold.Chemscore.DEClash.Weighted>
1.4633

> <Gold.Chemscore.DEInternal.Weighted>
2.1832

> <Gold.Chemscore.Rot.Weighted>
6.1020

> <Gold.Chemscore.Internal.Correction.Weighted>
   9.000000E+99

> <Gold.Protein.RotatedTorsions>
[ 6907 6896 6895 6894 ] final -121.37 input  -60.11 | X-H torsion
[ 7974 7965 7964 7962 ] final -129.83 input  175.53 | X-H torsion
[ 8008 7997 7996 7995 ] final  -36.58 input   59.86 | X-H torsion
[ 10167 10162 10161 10158 ] final -103.82 input  -65.29 | X-H torsion
[ 10718 10713 10712 10709 ] final -149.36 input   66.30 | X-H torsion
[ 10763 10752 10751 10750 ] final -153.76 input  -60.55 | X-H torsion
[ 11005 11000 10999 10996 ] final -157.29 input  -57.11 | X-H torsion

> <Gold.Protein.ActiveResidues>
 VAL166  LYS551  ARG553  GLY616  TRP617  ASP618  TYR619  PRO620  LYS621  CYS622 
 ASP623  PHE694  ASN695  SER759  ASP760  ASP761  ALA762  ILE779  LEU786  VAL792 
 PHE793  MET794  SER795  GLU796  ALA797  LYS798  CYS799  TRP800  GLU811  SER814 

> <Gold.Protein.RotatedAtoms>
  150.8477  133.7836  159.3036 H   0  0  0  0  0  0  0  0  0  0  0  0  # atno 6907 bound_to 6896
  151.5518  135.1065  159.9961 H   0  0  0  0  0  0  0  0  0  0  0  0  # atno 6908 bound_to 6896
  152.4527  133.7618  159.6807 H   0  0  0  0  0  0  0  0  0  0  0  0  # atno 6909 bound_to 6896
  144.9534  140.7369  143.4774 H   0  0  0  0  0  0  0  0  0  0  0  0  # atno 7974 bound_to 7965
  154.4070  140.1627  156.2397 H   0  0  0  0  0  0  0  0  0  0  0  0  # atno 8008 bound_to 7997
  155.9212  140.3421  155.6151 H   0  0  0  0  0  0  0  0  0  0  0  0  # atno 8009 bound_to 7997
  155.7220  140.0769  157.2317 H   0  0  0  0  0  0  0  0  0  0  0  0  # atno 8010 bound_to 7997
  140.2159  143.3711  152.1011 H   0  0  0  0  0  0  0  0  0  0  0  0  # atno 10167 bound_to 10162
  156.4322  130.8081  151.2308 H   0  0  0  0  0  0  0  0  0  0  0  0  # atno 10718 bound_to 10713
  154.7906  135.3205  154.7787 H   0  0  0  0  0  0  0  0  0  0  0  0  # atno 10763 bound_to 10752
  153.8476  135.6865  153.4800 H   0  0  0  0  0  0  0  0  0  0  0  0  # atno 10764 bound_to 10752
  153.1574  135.4674  154.9664 H   0  0  0  0  0  0  0  0  0  0  0  0  # atno 10765 bound_to 10752
  140.6662  134.4296  157.5233 H   0  0  0  0  0  0  0  0  0  0  0  0  # atno 11005 bound_to 11000
  145.2809  139.1919  143.4791 LP  0  0  0  0  0  0  0  0  0  0  0  0  # atno 17320 bound_to 7965
  146.3329  140.2771  142.8608 LP  0  0  0  0  0  0  0  0  0  0  0  0  # atno 17321 bound_to 7965
  139.5162  144.6974  151.5591 LP  0  0  0  0  0  0  0  0  0  0  0  0  # atno 17342 bound_to 10162
  140.6290  143.9113  150.6589 LP  0  0  0  0  0  0  0  0  0  0  0  0  # atno 17343 bound_to 10162
  157.7508  131.0195  150.3668 LP  0  0  0  0  0  0  0  0  0  0  0  0  # atno 17370 bound_to 10713
  156.4008  130.3915  149.6961 LP  0  0  0  0  0  0  0  0  0  0  0  0  # atno 17371 bound_to 10713
  139.8996  134.8587  156.1952 LP  0  0  0  0  0  0  0  0  0  0  0  0  # atno 17394 bound_to 11000
  141.0427  133.6929  156.1627 LP  0  0  0  0  0  0  0  0  0  0  0  0  # atno 17395 bound_to 11000

$$$$
