AV-unprocessed.smi:150|AV-procd|sdf|1242|dock7
  -GOLD-   2262018463D 1   1.00000     0.00000
 Structure written by MMmdl.
 55 57  0  0  0  0  0  0  0  0  1 V2000
  152.9051  141.9776  160.5771 C   0  0  0  0  0  0  0  0  0  0  0  0
  152.3451  142.1290  159.1519 C   0  0  0  0  0  0  0  0  0  0  0  0
  151.7986  143.5505  158.9469 C   0  0  0  0  0  0  0  0  0  0  0  0
  151.2557  141.0803  158.8290 C   0  0  0  0  0  0  0  0  0  0  0  0
  150.6112  141.1900  157.4208 C   0  0  2  0  0  0  0  0  0  0  0  0
  149.1337  141.6540  157.4611 C   0  0  0  0  0  0  0  0  0  0  0  0
  149.0701  143.0364  157.7418 O   0  0  0  0  0  0  0  0  0  0  0  0
  150.8020  139.9616  156.6308 N   0  0  0  0  0  0  0  0  0  0  0  0
  151.8001  139.9906  155.5658 C   0  0  0  0  0  0  0  0  0  0  0  0
  150.5592  138.7189  157.1293 C   0  0  0  0  0  0  0  0  0  0  0  0
  150.2250  138.5564  158.4365 N   0  0  0  0  0  0  0  0  0  0  0  0
  150.0023  137.3371  158.9349 C   0  0  0  0  0  0  0  0  0  0  0  0
  150.0638  136.1584  158.3138 N   0  0  0  0  0  0  0  0  0  0  0  0
  150.4053  136.3094  157.0026 C   0  0  0  0  0  0  0  0  0  0  0  0
  150.6661  137.5404  156.3355 C   0  0  0  0  0  0  0  0  0  0  0  0
  150.9673  137.2967  155.0002 N   0  0  0  0  0  0  0  0  0  0  0  0
  150.8940  135.9992  154.8866 C   0  0  0  0  0  0  0  0  0  0  0  0
  150.5721  135.3259  156.0431 N   0  0  0  0  0  0  0  0  0  0  0  0
  150.4254  133.8866  156.1996 C   0  0  0  0  0  0  0  0  0  0  0  0
  149.3029  133.2655  155.3308 C   0  0  0  0  0  0  0  0  0  0  0  0
  148.0873  133.9128  155.6643 O   0  0  0  0  0  0  0  0  0  0  0  0
  149.5894  133.5089  153.8351 C   0  0  0  0  0  0  0  0  0  0  0  0
  148.6014  132.7606  152.9229 C   0  0  0  0  0  0  0  0  0  0  0  0
  148.6105  131.3724  153.2323 O   0  0  0  0  0  0  0  0  0  0  0  0
  148.1714  131.1037  154.5579 C   0  0  0  0  0  0  0  0  0  0  0  0
  149.1291  131.7500  155.5747 C   0  0  0  0  0  0  0  0  0  0  0  0
  152.1119  142.0368  161.3231 H   0  0  0  0  0  0  0  0  0  0  0  0
  153.6267  142.7642  160.7990 H   0  0  0  0  0  0  0  0  0  0  0  0
  153.4210  141.0278  160.7125 H   0  0  0  0  0  0  0  0  0  0  0  0
  153.1735  142.0098  158.4549 H   0  0  0  0  0  0  0  0  0  0  0  0
  150.9655  143.7563  159.6198 H   0  0  0  0  0  0  0  0  0  0  0  0
  151.4446  143.6940  157.9256 H   0  0  0  0  0  0  0  0  0  0  0  0
  152.5692  144.2992  159.1328 H   0  0  0  0  0  0  0  0  0  0  0  0
  151.6946  140.0899  158.9561 H   0  0  0  0  0  0  0  0  0  0  0  0
  150.4731  141.1499  159.5843 H   0  0  0  0  0  0  0  0  0  0  0  0
  151.1610  141.9585  156.8786 H   0  0  0  0  0  0  0  0  0  0  0  0
  148.5862  141.4368  156.5456 H   0  0  0  0  0  0  0  0  0  0  0  0
  148.5938  141.1519  158.2620 H   0  0  0  0  0  0  0  0  0  0  0  0
  149.1530  143.5117  156.9293 H   0  0  0  0  0  0  0  0  0  0  0  0
  151.3294  139.8088  154.5998 H   0  0  0  0  0  0  0  0  0  0  0  0
  152.5708  139.2344  155.7225 H   0  0  0  0  0  0  0  0  0  0  0  0
  152.2953  140.9605  155.5133 H   0  0  0  0  0  0  0  0  0  0  0  0
  149.7388  137.3012  159.9817 H   0  0  0  0  0  0  0  0  0  0  0  0
  151.0802  135.4933  153.9504 H   0  0  0  0  0  0  0  0  0  0  0  0
  151.3842  133.4168  155.9743 H   0  0  0  0  0  0  0  0  0  0  0  0
  150.2319  133.6860  157.2543 H   0  0  0  0  0  0  0  0  0  0  0  0
  147.3897  133.5228  155.1601 H   0  0  0  0  0  0  0  0  0  0  0  0
  149.5718  134.5764  153.6105 H   0  0  0  0  0  0  0  0  0  0  0  0
  150.5981  133.1656  153.6011 H   0  0  0  0  0  0  0  0  0  0  0  0
  147.5912  133.1609  153.0215 H   0  0  0  0  0  0  0  0  0  0  0  0
  148.8897  132.8877  151.8793 H   0  0  0  0  0  0  0  0  0  0  0  0
  147.1506  131.4635  154.6952 H   0  0  0  0  0  0  0  0  0  0  0  0
  148.1462  130.0241  154.7060 H   0  0  0  0  0  0  0  0  0  0  0  0
  150.1006  131.2603  155.4952 H   0  0  0  0  0  0  0  0  0  0  0  0
  148.7692  131.5570  156.5858 H   0  0  0  0  0  0  0  0  0  0  0  0
  1  2  1  0  0  0  0
  1 27  1  0  0  0  0
  1 28  1  0  0  0  0
  1 29  1  0  0  0  0
  2  3  1  0  0  0  0
  2  4  1  0  0  0  0
  2 30  1  0  0  0  0
  3 31  1  0  0  0  0
  3 32  1  0  0  0  0
  3 33  1  0  0  0  0
  4  5  1  0  0  0  0
  4 34  1  0  0  0  0
  4 35  1  0  0  0  0
  5  6  1  0  0  0  0
  5  8  1  0  0  0  0
  5 36  1  0  0  0  0
  6  7  1  0  0  0  0
  6 37  1  0  0  0  0
  6 38  1  0  0  0  0
  7 39  1  0  0  0  0
  8  9  1  0  0  0  0
  8 10  1  0  0  0  0
  9 40  1  0  0  0  0
  9 41  1  0  0  0  0
  9 42  1  0  0  0  0
 10 15  1  0  0  0  0
 10 11  2  0  0  0  0
 11 12  1  0  0  0  0
 12 13  2  0  0  0  0
 12 43  1  0  0  0  0
 13 14  1  0  0  0  0
 14 18  1  0  0  0  0
 14 15  2  0  0  0  0
 15 16  1  0  0  0  0
 16 17  2  0  0  0  0
 17 18  1  0  0  0  0
 17 44  1  0  0  0  0
 18 19  1  0  0  0  0
 19 20  1  0  0  0  0
 19 45  1  0  0  0  0
 19 46  1  0  0  0  0
 20 26  1  0  0  0  0
 20 21  1  0  0  0  0
 20 22  1  0  0  0  0
 21 47  1  0  0  0  0
 22 23  1  0  0  0  0
 22 48  1  0  0  0  0
 22 49  1  0  0  0  0
 23 24  1  0  0  0  0
 23 50  1  0  0  0  0
 23 51  1  0  0  0  0
 24 25  1  0  0  0  0
 25 26  1  0  0  0  0
 25 52  1  0  0  0  0
 25 53  1  0  0  0  0
 26 54  1  0  0  0  0
 26 55  1  0  0  0  0
M  END
> <s_m_source_file>
AV-unprocessed.smi

> <i_m_source_file_index>
150

> <i_lp_mmshare_version>
43012

> <i_f3d_flags>
0

> <s_epik_input>
W0NIM11bQ0hdKFtDSDNdKVtDSDJdW0NASF0oW0NIMl1bT0hdKU4oW0NIM10pYyhuW2NIXW4xKWMoYzEyKW5bY0hdbjJbQ0gyXUMzKFtPSF0pW0NIMl1bQ0gyXU9bQ0gyXVtDSDJdMw==

> <s_epik_cmdline>
J2VwaWtfcHl0aG9uJywgJy1waCcsICc3LjAnLCAnLXRuJywgJzgnLCAnLW1hJywgJzIwMCcsICctbWV0YWxfYmluZGluZycsICctaW1hZScsICc8aW5maWxlLm1hZT4nLCAnLW9tYWUnLCAnPG91dGZpbGUubWFlPic=

> <r_lp_tautomer_probability>
1

> <r_epik_Ionization_Penalty>
0.00548416

> <r_epik_Ionization_Penalty_Charging>
0

> <r_epik_Ionization_Penalty_Neutral>
0.00548416

> <r_epik_State_Penalty>
0.0038135

> <r_epik_Charging_Adjusted_Penalty>
0.0038135

> <i_epik_Tot_Q>
0

> <i_epik_Tot_abs_Q>
0

> <r_epik_Metal_State_Penalty>
-0

> <b_epik_Metal_Only>
0

> <s_lp_Force_Field>
OPLS_2005

> <r_lp_Energy>
31.7552

> <b_lp_Chiralities_Consistent>
1

> <s_lp_Variant>
AV-unprocessed.smi:150-1

> <Gold.Version>
5.8.1

> <Gold.Id.Protein>
6NUR|6NUR_protein|mol2

> <Gold.PLP.Fitness>
46.5275

> <Gold.PLP.PLP>
-39.8421

> <Gold.PLP.part.hbond>
-2.2247

> <Gold.PLP.part.metal>
0.0000

> <Gold.PLP.part.buried>
-3.0599

> <Gold.PLP.part.nonpolar>
-34.5997

> <Gold.PLP.part.repulsive>
0.6718

> <Gold.PLP.ligand.clash>
0.0000

> <Gold.PLP.ligand.torsion>
1.4665

> <Gold.PLP.Chemscore.Hbond>
1.9280

> <Gold.PLP.Chemscore.CHOScore>
0.9015

> <Gold.PLP.Chemscore.Metal>
0.0000

> <Gold.Chemscore.Hbonds>
donor molecule, donor type, donor heavy atom, donor atom, acceptor molecule, acceptor atom, score
      L1  H     7    39       P1  8028  1.00
      P1  H  6896  6908       L1    13  0.98
      L1  C    17    44       P1  7949  0.93

> <Gold.PLP.Chemscore.Internal.Correction>
1.1299

> <Gold.Rescore>
     Score         DG    S(hbond)    S(metal)    S(lipo)     H(rot)  DE(clash)    DE(int)     intcor
      8.55     -12.93       1.72        0.00      88.98       3.40       0.02       4.36       ----

> <Gold.Chemscore.Fitness>
8.5511

> <Gold.Chemscore.DG>
-12.9346

> <Gold.Chemscore.ZeroCoef>
-5.4800

> <Gold.Chemscore.Hbond>
1.7207

> <Gold.Chemscore.Metal>
0.0000

> <Gold.Chemscore.Lipo>
88.9777

> <Gold.Chemscore.Internal_Hbond>
0.0000

> <Gold.Chemscore.DEClash>
0.0234

> <Gold.Chemscore.DEInternal>
4.3600

> <Gold.Chemscore.Rot>
3.3995

> <Gold.Chemscore.Internal.Correction>
   9.000000E+99

> <Gold.Chemscore.Hbonds>
donor molecule, donor type, donor heavy atom, donor atom, acceptor molecule, acceptor atom, score
      L1  H     7    39       P1  8028  0.82
      P1  H  6896  6908       L1    13  0.49

> <Gold.Chemscore.Hbond.Weighted>
-5.7470

> <Gold.Chemscore.Metal.Weighted>
-0.0000

> <Gold.Chemscore.Lipo.Weighted>
-10.4104

> <Gold.Chemscore.Internal_Hbond.Weighted>
0.0000

> <Gold.Chemscore.DEClash.Weighted>
0.0234

> <Gold.Chemscore.DEInternal.Weighted>
4.3600

> <Gold.Chemscore.Rot.Weighted>
8.7028

> <Gold.Chemscore.Internal.Correction.Weighted>
   9.000000E+99

> <Gold.Protein.RotatedTorsions>
[ 6907 6896 6895 6894 ] final -171.04 input  -60.11 | X-H torsion
[ 7974 7965 7964 7962 ] final   35.68 input  175.53 | X-H torsion
[ 8008 7997 7996 7995 ] final  117.21 input   59.86 | X-H torsion
[ 10167 10162 10161 10158 ] final -161.43 input  -65.29 | X-H torsion
[ 10718 10713 10712 10709 ] final    6.95 input   66.30 | X-H torsion
[ 10763 10752 10751 10750 ] final  145.51 input  -60.55 | X-H torsion
[ 11005 11000 10999 10996 ] final   18.03 input  -57.11 | X-H torsion

> <Gold.Protein.ActiveResidues>
 VAL166  LYS551  ARG553  GLY616  TRP617  ASP618  TYR619  PRO620  LYS621  CYS622 
 ASP623  PHE694  ASN695  SER759  ASP760  ASP761  ALA762  ILE779  LEU786  VAL792 
 PHE793  MET794  SER795  GLU796  ALA797  LYS798  CYS799  TRP800  GLU811  SER814 

> <Gold.Protein.RotatedAtoms>
  151.5174  133.3473  159.2895 H   0  0  0  0  0  0  0  0  0  0  0  0  # atno 6907 bound_to 6896
  150.8674  134.8042  159.7140 H   0  0  0  0  0  0  0  0  0  0  0  0  # atno 6908 bound_to 6896
  152.4674  134.5053  159.9789 H   0  0  0  0  0  0  0  0  0  0  0  0  # atno 6909 bound_to 6896
  146.1266  139.6112  142.9254 H   0  0  0  0  0  0  0  0  0  0  0  0  # atno 7974 bound_to 7965
  156.2482  140.2901  156.0643 H   0  0  0  0  0  0  0  0  0  0  0  0  # atno 8008 bound_to 7997
  155.1741  140.0402  157.2886 H   0  0  0  0  0  0  0  0  0  0  0  0  # atno 8009 bound_to 7997
  154.6305  140.2498  155.7447 H   0  0  0  0  0  0  0  0  0  0  0  0  # atno 8010 bound_to 7997
  139.6466  144.0161  152.2131 H   0  0  0  0  0  0  0  0  0  0  0  0  # atno 10167 bound_to 10162
  156.9297  130.5821  149.5649 H   0  0  0  0  0  0  0  0  0  0  0  0  # atno 10718 bound_to 10713
  154.0066  135.2918  155.3397 H   0  0  0  0  0  0  0  0  0  0  0  0  # atno 10763 bound_to 10752
  154.7128  135.5142  153.8695 H   0  0  0  0  0  0  0  0  0  0  0  0  # atno 10764 bound_to 10752
  153.0742  135.6658  154.0302 H   0  0  0  0  0  0  0  0  0  0  0  0  # atno 10765 bound_to 10752
  140.4293  134.1436  155.7679 H   0  0  0  0  0  0  0  0  0  0  0  0  # atno 11005 bound_to 11000
  145.5352  141.0424  143.2361 LP  0  0  0  0  0  0  0  0  0  0  0  0  # atno 17320 bound_to 7965
  144.7648  139.6871  143.7219 LP  0  0  0  0  0  0  0  0  0  0  0  0  # atno 17321 bound_to 7965
  139.9864  144.6392  150.7853 LP  0  0  0  0  0  0  0  0  0  0  0  0  # atno 17342 bound_to 10162
  140.7517  143.2978  151.3159 LP  0  0  0  0  0  0  0  0  0  0  0  0  # atno 17343 bound_to 10162
  156.0453  130.5530  150.8865 LP  0  0  0  0  0  0  0  0  0  0  0  0  # atno 17370 bound_to 10713
  157.5855  131.0945  150.9204 LP  0  0  0  0  0  0  0  0  0  0  0  0  # atno 17371 bound_to 10713
  141.1752  133.8528  157.1444 LP  0  0  0  0  0  0  0  0  0  0  0  0  # atno 17394 bound_to 11000
  140.0145  134.9973  157.0465 LP  0  0  0  0  0  0  0  0  0  0  0  0  # atno 17395 bound_to 11000

$$$$
