AV-unprocessed.smi:228|AV-procd|sdf|1745|dock10
  -GOLD-   2262020263D 1   1.00000     0.00000
 Structure written by MMmdl.
 59 62  0  0  0  0  0  0  0  0  1 V2000
  147.3163  141.1328  153.8133 C   0  0  0  0  0  0  0  0  0  0  0  0
  147.5547  139.7223  153.5211 N   0  0  0  0  0  0  0  0  0  0  0  0
  148.8707  139.1703  153.8353 C   0  0  0  0  0  0  0  0  0  0  0  0
  149.7986  140.2037  154.5145 C   0  0  2  0  0  0  0  0  0  0  0  0
  151.1281  139.8268  154.2160 O   0  0  0  0  0  0  0  0  0  0  0  0
  149.6364  140.2190  156.0516 C   0  0  0  0  0  0  0  0  0  0  0  0
  150.6866  140.9236  156.7895 N   0  0  0  0  0  0  0  0  0  0  0  0
  150.8121  140.4662  158.1717 C   0  0  0  0  0  0  0  0  0  0  0  0
  151.8966  141.2430  158.9393 C   0  0  0  0  0  0  0  0  0  0  0  0
  151.6164  142.6380  158.8878 O   0  0  0  0  0  0  0  0  0  0  0  0
  151.5368  143.1312  157.5547 C   0  0  0  0  0  0  0  0  0  0  0  0
  150.4468  142.3633  156.7877 C   0  0  0  0  0  0  0  0  0  0  0  0
  146.4935  138.8733  153.4937 C   0  0  0  0  0  0  0  0  0  0  0  0
  145.6373  138.8505  154.5500 N   0  0  0  0  0  0  0  0  0  0  0  0
  144.5980  138.0118  154.5630 C   0  0  0  0  0  0  0  0  0  0  0  0
  144.2282  137.1289  153.6348 N   0  0  0  0  0  0  0  0  0  0  0  0
  145.0648  137.1600  152.5584 C   0  0  0  0  0  0  0  0  0  0  0  0
  146.2132  137.9900  152.4098 C   0  0  0  0  0  0  0  0  0  0  0  0
  146.8171  137.7358  151.1845 N   0  0  0  0  0  0  0  0  0  0  0  0
  146.0862  136.7948  150.6538 C   0  0  0  0  0  0  0  0  0  0  0  0
  144.9897  136.4116  151.3946 N   0  0  0  0  0  0  0  0  0  0  0  0
  144.0409  135.3784  151.0723 C   0  0  0  0  0  0  0  0  0  0  0  0
  144.0714  134.0162  151.7792 C   0  0  0  0  0  0  0  0  0  0  0  0
  144.7549  133.3821  150.5486 C   0  0  0  0  0  0  0  0  0  0  0  0
  146.2937  133.3215  150.6544 C   0  0  0  0  0  0  0  0  0  0  0  0
  146.7362  132.2610  151.4762 O   0  0  0  0  0  0  0  0  0  0  0  0
  144.2164  131.9908  150.1694 C   0  0  0  0  0  0  0  0  0  0  0  0
  142.9584  132.0641  149.5307 O   0  0  0  0  0  0  0  0  0  0  0  0
  144.1687  134.5795  149.7696 C   0  0  0  0  0  0  0  0  0  0  0  0
  146.5031  141.5245  153.2010 H   0  0  0  0  0  0  0  0  0  0  0  0
  148.2062  141.7267  153.6038 H   0  0  0  0  0  0  0  0  0  0  0  0
  147.0596  141.2703  154.8641 H   0  0  0  0  0  0  0  0  0  0  0  0
  148.6940  138.3311  154.5085 H   0  0  0  0  0  0  0  0  0  0  0  0
  149.3468  138.7178  152.9648 H   0  0  0  0  0  0  0  0  0  0  0  0
  149.6133  141.2016  154.1140 H   0  0  0  0  0  0  0  0  0  0  0  0
  151.5859  139.6792  155.0298 H   0  0  0  0  0  0  0  0  0  0  0  0
  148.6984  140.7277  156.2770 H   0  0  0  0  0  0  0  0  0  0  0  0
  149.5127  139.2042  156.4340 H   0  0  0  0  0  0  0  0  0  0  0  0
  149.8562  140.5753  158.6861 H   0  0  0  0  0  0  0  0  0  0  0  0
  151.0629  139.4062  158.1965 H   0  0  0  0  0  0  0  0  0  0  0  0
  151.9263  140.9236  159.9809 H   0  0  0  0  0  0  0  0  0  0  0  0
  152.8833  141.0480  158.5163 H   0  0  0  0  0  0  0  0  0  0  0  0
  151.3035  144.1956  157.5815 H   0  0  0  0  0  0  0  0  0  0  0  0
  152.5044  143.0265  157.0617 H   0  0  0  0  0  0  0  0  0  0  0  0
  150.4037  142.7309  155.7619 H   0  0  0  0  0  0  0  0  0  0  0  0
  149.4750  142.5767  157.2358 H   0  0  0  0  0  0  0  0  0  0  0  0
  143.9740  138.0527  155.4436 H   0  0  0  0  0  0  0  0  0  0  0  0
  146.3331  136.3607  149.6963 H   0  0  0  0  0  0  0  0  0  0  0  0
  143.0587  135.8454  151.1544 H   0  0  0  0  0  0  0  0  0  0  0  0
  144.6618  133.9681  152.6937 H   0  0  0  0  0  0  0  0  0  0  0  0
  143.0664  133.6296  151.9567 H   0  0  0  0  0  0  0  0  0  0  0  0
  146.7500  133.1827  149.6745 H   0  0  0  0  0  0  0  0  0  0  0  0
  146.6975  134.2563  151.0439 H   0  0  0  0  0  0  0  0  0  0  0  0
  147.3759  131.7560  150.9981 H   0  0  0  0  0  0  0  0  0  0  0  0
  144.9124  131.4604  149.5191 H   0  0  0  0  0  0  0  0  0  0  0  0
  144.0928  131.3685  151.0564 H   0  0  0  0  0  0  0  0  0  0  0  0
  142.5820  132.9135  149.7030 H   0  0  0  0  0  0  0  0  0  0  0  0
  143.1962  134.3588  149.3262 H   0  0  0  0  0  0  0  0  0  0  0  0
  144.8419  135.0024  149.0242 H   0  0  0  0  0  0  0  0  0  0  0  0
  1  2  1  0  0  0  0
  1 30  1  0  0  0  0
  1 31  1  0  0  0  0
  1 32  1  0  0  0  0
  2  3  1  0  0  0  0
  2 13  1  0  0  0  0
  3  4  1  0  0  0  0
  3 33  1  0  0  0  0
  3 34  1  0  0  0  0
  4  5  1  0  0  0  0
  4  6  1  0  0  0  0
  4 35  1  0  0  0  0
  5 36  1  0  0  0  0
  6  7  1  0  0  0  0
  6 37  1  0  0  0  0
  6 38  1  0  0  0  0
  7 12  1  0  0  0  0
  7  8  1  0  0  0  0
  8  9  1  0  0  0  0
  8 39  1  0  0  0  0
  8 40  1  0  0  0  0
  9 10  1  0  0  0  0
  9 41  1  0  0  0  0
  9 42  1  0  0  0  0
 10 11  1  0  0  0  0
 11 12  1  0  0  0  0
 11 43  1  0  0  0  0
 11 44  1  0  0  0  0
 12 45  1  0  0  0  0
 12 46  1  0  0  0  0
 13 18  1  0  0  0  0
 13 14  2  0  0  0  0
 14 15  1  0  0  0  0
 15 16  2  0  0  0  0
 15 47  1  0  0  0  0
 16 17  1  0  0  0  0
 17 21  1  0  0  0  0
 17 18  2  0  0  0  0
 18 19  1  0  0  0  0
 19 20  2  0  0  0  0
 20 21  1  0  0  0  0
 20 48  1  0  0  0  0
 21 22  1  0  0  0  0
 22 29  1  0  0  0  0
 22 23  1  0  0  0  0
 22 49  1  0  0  0  0
 23 24  1  0  0  0  0
 23 50  1  0  0  0  0
 23 51  1  0  0  0  0
 24 25  1  0  0  0  0
 24 27  1  0  0  0  0
 24 29  1  0  0  0  0
 25 26  1  0  0  0  0
 25 52  1  0  0  0  0
 25 53  1  0  0  0  0
 26 54  1  0  0  0  0
 27 28  1  0  0  0  0
 27 55  1  0  0  0  0
 27 56  1  0  0  0  0
 28 57  1  0  0  0  0
 29 58  1  0  0  0  0
 29 59  1  0  0  0  0
M  END
> <s_m_source_file>
AV-unprocessed.smi

> <i_m_source_file_index>
228

> <i_lp_mmshare_version>
43012

> <i_f3d_flags>
0

> <s_epik_input>
W0NIMl0xW0NIMl1PW0NIMl1bQ0gyXU4xW0NIMl1bQ0BASF0oW09IXSlbQ0gyXU4oW0NIM10pYyhuW2NIXW4yKWMoYzIzKW5bY0hdbjNbQ0hdKFtDSDJdNClbQ0gyXUM0KFtDSDJdW09IXSlbQ0gyXVtPSF0=

> <s_epik_cmdline>
J2VwaWtfcHl0aG9uJywgJy1waCcsICc3LjAnLCAnLXRuJywgJzgnLCAnLW1hJywgJzIwMCcsICctbWV0YWxfYmluZGluZycsICctaW1hZScsICc8aW5maWxlLm1hZT4nLCAnLW9tYWUnLCAnPG91dGZpbGUubWFlPic=

> <r_lp_tautomer_probability>
1

> <r_epik_Ionization_Penalty>
0.423559

> <r_epik_Ionization_Penalty_Charging>
0

> <r_epik_Ionization_Penalty_Neutral>
0.423559

> <r_epik_State_Penalty>
0.438466

> <r_epik_Charging_Adjusted_Penalty>
0.438466

> <i_epik_Tot_Q>
0

> <i_epik_Tot_abs_Q>
0

> <r_epik_Metal_State_Penalty>
0.436601

> <b_epik_Metal_Only>
0

> <s_lp_Force_Field>
OPLS_2005

> <r_lp_Energy>
66.0814

> <b_lp_Chiralities_Consistent>
1

> <s_lp_Variant>
AV-unprocessed.smi:228-3

> <Gold.Version>
5.8.1

> <Gold.Id.Protein>
6NUR|6NUR_protein|mol2

> <Gold.PLP.Fitness>
51.7121

> <Gold.PLP.PLP>
-41.6635

> <Gold.PLP.part.hbond>
-5.8730

> <Gold.PLP.part.metal>
0.0000

> <Gold.PLP.part.buried>
0.7823

> <Gold.PLP.part.nonpolar>
-40.9330

> <Gold.PLP.part.repulsive>
3.6161

> <Gold.PLP.ligand.clash>
0.3028

> <Gold.PLP.ligand.torsion>
2.7349

> <Gold.PLP.Chemscore.Hbond>
4.0131

> <Gold.PLP.Chemscore.CHOScore>
0.8165

> <Gold.PLP.Chemscore.Metal>
0.0000

> <Gold.Chemscore.Hbonds>
donor molecule, donor type, donor heavy atom, donor atom, acceptor molecule, acceptor atom, score
      L1  H    26    54       P1 10747  1.00
      L1  H    28    57       P1 10186  0.62
      P1  H  7954  7966       L1    19  1.00
      P1  H  7989  7998       L1     5  0.57
      P1  H 10785 10796       L1    28  0.46
      L1  C    20    48       P1  7921  0.94

> <Gold.PLP.Chemscore.Internal.Correction>
1.3322

> <Gold.Rescore>
     Score         DG    S(hbond)    S(metal)    S(lipo)     H(rot)  DE(clash)    DE(int)     intcor
      7.98     -13.63       2.67        0.00      95.28       4.66       2.75       2.90       ----

> <Gold.Chemscore.Fitness>
7.9763

> <Gold.Chemscore.DG>
-13.6318

> <Gold.Chemscore.ZeroCoef>
-5.4800

> <Gold.Chemscore.Hbond>
2.6749

> <Gold.Chemscore.Metal>
0.0000

> <Gold.Chemscore.Lipo>
95.2758

> <Gold.Chemscore.Internal_Hbond>
0.0000

> <Gold.Chemscore.DEClash>
2.7514

> <Gold.Chemscore.DEInternal>
2.9041

> <Gold.Chemscore.Rot>
4.6600

> <Gold.Chemscore.Internal.Correction>
   9.000000E+99

> <Gold.Chemscore.Hbonds>
donor molecule, donor type, donor heavy atom, donor atom, acceptor molecule, acceptor atom, score
      L1  H    26    54       P1 10747  0.98
      L1  H    28    57       P1 10186  0.61
      P1  H  7954  7966       L1    19  0.26
      P1  H  7989  7998       L1     5  0.25
      P1  H 10785 10796       L1    28  0.03

> <Gold.Chemscore.Hbond.Weighted>
-8.9342

> <Gold.Chemscore.Metal.Weighted>
-0.0000

> <Gold.Chemscore.Lipo.Weighted>
-11.1473

> <Gold.Chemscore.Internal_Hbond.Weighted>
0.0000

> <Gold.Chemscore.DEClash.Weighted>
2.7514

> <Gold.Chemscore.DEInternal.Weighted>
2.9041

> <Gold.Chemscore.Rot.Weighted>
11.9297

> <Gold.Chemscore.Internal.Correction.Weighted>
   9.000000E+99

> <Gold.Protein.RotatedTorsions>
[ 6907 6896 6895 6894 ] final  156.31 input  -60.11 | X-H torsion
[ 7974 7965 7964 7962 ] final  -62.16 input  175.53 | X-H torsion
[ 8008 7997 7996 7995 ] final   49.43 input   59.86 | X-H torsion
[ 10167 10162 10161 10158 ] final  -34.17 input  -65.29 | X-H torsion
[ 10718 10713 10712 10709 ] final   74.48 input   66.30 | X-H torsion
[ 10763 10752 10751 10750 ] final  103.05 input  -60.55 | X-H torsion
[ 11005 11000 10999 10996 ] final  119.07 input  -57.11 | X-H torsion

> <Gold.Protein.ActiveResidues>
 VAL166  LYS551  ARG553  GLY616  TRP617  ASP618  TYR619  PRO620  LYS621  CYS622 
 ASP623  PHE694  ASN695  SER759  ASP760  ASP761  ALA762  ILE779  LEU786  VAL792 
 PHE793  MET794  SER795  GLU796  ALA797  LYS798  CYS799  TRP800  GLU811  SER814 

> <Gold.Protein.RotatedAtoms>
  152.0315  133.3939  159.4298 H   0  0  0  0  0  0  0  0  0  0  0  0  # atno 6907 bound_to 6896
  150.6882  134.3516  159.4920 H   0  0  0  0  0  0  0  0  0  0  0  0  # atno 6908 bound_to 6896
  152.1302  134.9140  160.0610 H   0  0  0  0  0  0  0  0  0  0  0  0  # atno 6909 bound_to 6896
  145.7947  140.8689  143.0262 H   0  0  0  0  0  0  0  0  0  0  0  0  # atno 7974 bound_to 7965
  155.4022  140.3438  155.4258 H   0  0  0  0  0  0  0  0  0  0  0  0  # atno 8008 bound_to 7997
  156.1497  140.1567  156.8822 H   0  0  0  0  0  0  0  0  0  0  0  0  # atno 8009 bound_to 7997
  154.5042  140.0807  156.7840 H   0  0  0  0  0  0  0  0  0  0  0  0  # atno 8010 bound_to 7997
  140.7191  143.3567  151.2045 H   0  0  0  0  0  0  0  0  0  0  0  0  # atno 10167 bound_to 10162
  157.6594  130.9680  150.1218 H   0  0  0  0  0  0  0  0  0  0  0  0  # atno 10718 bound_to 10713
  153.3475  135.3990  155.1620 H   0  0  0  0  0  0  0  0  0  0  0  0  # atno 10763 bound_to 10752
  154.8656  135.3648  154.5265 H   0  0  0  0  0  0  0  0  0  0  0  0  # atno 10764 bound_to 10752
  153.5714  135.7079  153.5563 H   0  0  0  0  0  0  0  0  0  0  0  0  # atno 10765 bound_to 10752
  139.9133  134.9625  156.7599 H   0  0  0  0  0  0  0  0  0  0  0  0  # atno 11005 bound_to 11000
  144.6777  140.0174  143.7484 LP  0  0  0  0  0  0  0  0  0  0  0  0  # atno 17320 bound_to 7965
  145.9940  139.3037  143.0968 LP  0  0  0  0  0  0  0  0  0  0  0  0  # atno 17321 bound_to 7965
  139.7110  143.9377  152.2947 LP  0  0  0  0  0  0  0  0  0  0  0  0  # atno 17342 bound_to 10162
  139.9102  144.6861  150.8570 LP  0  0  0  0  0  0  0  0  0  0  0  0  # atno 17343 bound_to 10162
  156.2087  130.3665  149.8697 LP  0  0  0  0  0  0  0  0  0  0  0  0  # atno 17370 bound_to 10713
  156.6582  130.8771  151.3543 LP  0  0  0  0  0  0  0  0  0  0  0  0  # atno 17371 bound_to 10713
  140.6705  133.9563  155.7854 LP  0  0  0  0  0  0  0  0  0  0  0  0  # atno 17394 bound_to 11000
  141.0580  134.0387  157.3696 LP  0  0  0  0  0  0  0  0  0  0  0  0  # atno 17395 bound_to 11000

$$$$
