AV-unprocessed.smi:2532|AV-procd|sdf|9971|dock5
  -GOLD-   2272014 13D 1   1.00000     0.00000
 Structure written by MMmdl.
 37 39  0  0  0  0  0  0  0  0  2 V2000
  151.1687  138.6960  157.5366 O   0  0  0  0  0  0  0  0  0  0  0  0
  151.4181  139.9962  157.0402 C   0  0  1  0  0  0  0  0  0  0  0  0
  152.5386  140.6264  157.8815 C   0  0  0  0  0  0  0  0  0  0  0  0
  152.0529  140.8455  159.1950 O   0  0  0  0  0  0  0  0  0  0  0  0
  152.7911  141.8305  159.8994 C   0  0  0  0  0  0  0  0  0  0  0  0
  152.2467  143.1661  159.5064 C   0  0  0  0  0  0  0  0  0  0  0  0
  152.6467  144.3931  159.9716 C   0  0  0  0  0  0  0  0  0  0  0  0
  151.9361  145.4790  159.3807 C   0  0  0  0  0  0  0  0  0  0  0  0
  151.0076  145.0687  158.4617 C   0  0  0  0  0  0  0  0  0  0  0  0
  150.9873  143.3338  158.3048 S   0  0  0  0  0  0  0  0  0  0  0  0
  151.7950  139.9090  155.5480 C   0  0  0  0  0  0  0  0  0  0  0  0
  150.7077  139.3717  154.7167 N   0  0  0  0  0  0  0  0  0  0  0  0
  150.5674  138.1348  154.1672 C   0  0  0  0  0  0  0  0  0  0  0  0
  149.3917  138.1199  153.4802 N   0  3  0  0  0  0  0  0  0  0  0  0
  148.7710  139.3658  153.5911 C   0  0  0  0  0  0  0  0  0  0  0  0
  147.5681  139.8328  153.0703 C   0  0  0  0  0  0  0  0  0  0  0  0
  147.2241  141.1672  153.3705 C   0  0  0  0  0  0  0  0  0  0  0  0
  148.0621  141.9821  154.1591 C   0  0  0  0  0  0  0  0  0  0  0  0
  149.2790  141.4979  154.6821 C   0  0  0  0  0  0  0  0  0  0  0  0
  149.6116  140.1767  154.3831 C   0  0  0  0  0  0  0  0  0  0  0  0
  150.4389  138.3311  157.0590 H   0  0  0  0  0  0  0  0  0  0  0  0
  150.5087  140.5909  157.1388 H   0  0  0  0  0  0  0  0  0  0  0  0
  153.4327  140.0000  157.8828 H   0  0  0  0  0  0  0  0  0  0  0  0
  152.8206  141.5916  157.4576 H   0  0  0  0  0  0  0  0  0  0  0  0
  152.6928  141.6806  160.9759 H   0  0  0  0  0  0  0  0  0  0  0  0
  153.8505  141.7709  159.6463 H   0  0  0  0  0  0  0  0  0  0  0  0
  153.4177  144.5476  160.7120 H   0  0  0  0  0  0  0  0  0  0  0  0
  152.1301  146.5082  159.6446 H   0  0  0  0  0  0  0  0  0  0  0  0
  150.3400  145.6755  157.8679 H   0  0  0  0  0  0  0  0  0  0  0  0
  152.0233  140.9045  155.1656 H   0  0  0  0  0  0  0  0  0  0  0  0
  152.6953  139.3126  155.3989 H   0  0  0  0  0  0  0  0  0  0  0  0
  151.2638  137.3137  154.2587 H   0  0  0  0  0  0  0  0  0  0  0  0
  146.9249  139.2112  152.4647 H   0  0  0  0  0  0  0  0  0  0  0  0
  146.2997  141.5740  152.9869 H   0  0  0  0  0  0  0  0  0  0  0  0
  147.7665  143.0003  154.3669 H   0  0  0  0  0  0  0  0  0  0  0  0
  149.9157  142.1335  155.2792 H   0  0  0  0  0  0  0  0  0  0  0  0
  149.0417  137.3175  152.9725 H   0  0  0  0  0  0  0  0  0  0  0  0
  1  2  1  0  0  0  0
  1 21  1  0  0  0  0
  2  3  1  0  0  0  0
  2 11  1  0  0  0  0
  2 22  1  0  0  0  0
  3  4  1  0  0  0  0
  3 23  1  0  0  0  0
  3 24  1  0  0  0  0
  4  5  1  0  0  0  0
  5  6  1  0  0  0  0
  5 25  1  0  0  0  0
  5 26  1  0  0  0  0
  6 10  1  0  0  0  0
  6  7  2  0  0  0  0
  7  8  1  0  0  0  0
  7 27  1  0  0  0  0
  8  9  2  0  0  0  0
  8 28  1  0  0  0  0
  9 10  1  0  0  0  0
  9 29  1  0  0  0  0
 11 12  1  0  0  0  0
 11 30  1  0  0  0  0
 11 31  1  0  0  0  0
 12 20  1  0  0  0  0
 12 13  1  0  0  0  0
 13 14  2  0  0  0  0
 13 32  1  0  0  0  0
 14 15  1  0  0  0  0
 14 37  1  0  0  0  0
 15 20  2  0  0  0  0
 15 16  1  0  0  0  0
 16 17  2  0  0  0  0
 16 33  1  0  0  0  0
 17 18  1  0  0  0  0
 17 34  1  0  0  0  0
 18 19  2  0  0  0  0
 18 35  1  0  0  0  0
 19 20  1  0  0  0  0
 19 36  1  0  0  0  0
M  CHG  1  14   1
M  END
> <s_m_source_file>
AV-unprocessed.smi

> <i_m_source_file_index>
2532

> <i_lp_mmshare_version>
43012

> <i_f3d_flags>
0

> <s_epik_input>
W2NIXTFbY0hdW2NIXVtjSF1jKGMxMiluKFtjSF1uMilbQ0gyXVtDQEhdKFtPSF0pW0NIMl1PW0NIMl1jM1tjSF1bY0hdW2NIXXMz

> <s_epik_cmdline>
J2VwaWtfcHl0aG9uJywgJy1waCcsICc3LjAnLCAnLXRuJywgJzgnLCAnLW1hJywgJzIwMCcsICctbWV0YWxfYmluZGluZycsICctaW1hZScsICc8aW5maWxlLm1hZT4nLCAnLW9tYWUnLCAnPG91dGZpbGUubWFlPic=

> <r_epik_Ionization_Penalty>
1.31758

> <r_epik_Ionization_Penalty_Charging>
1.31758

> <r_epik_Ionization_Penalty_Neutral>
1.26231e-06

> <r_epik_State_Penalty>
1.39289

> <r_epik_Charging_Adjusted_Penalty>
2.71047

> <i_epik_Tot_Q>
1

> <i_epik_Tot_abs_Q>
1

> <r_epik_Metal_State_Penalty>
5.42637

> <b_epik_Metal_Only>
0

> <s_lp_Force_Field>
OPLS_2005

> <r_lp_Energy>
15.1458

> <b_lp_Chiralities_Consistent>
1

> <s_lp_Variant>
AV-unprocessed.smi:2532-4

> <Gold.Version>
5.8.1

> <Gold.Id.Protein>
6NUR|6NUR_protein|mol2

> <Gold.PLP.Fitness>
54.4099

> <Gold.PLP.PLP>
-46.2737

> <Gold.PLP.part.hbond>
-1.9102

> <Gold.PLP.part.metal>
0.0000

> <Gold.PLP.part.buried>
1.6182

> <Gold.PLP.part.nonpolar>
-45.5469

> <Gold.PLP.part.repulsive>
0.0578

> <Gold.PLP.ligand.clash>
0.0000

> <Gold.PLP.ligand.torsion>
0.4851

> <Gold.PLP.Chemscore.Hbond>
2.0000

> <Gold.PLP.Chemscore.CHOScore>
0.9996

> <Gold.PLP.Chemscore.Metal>
0.0000

> <Gold.Chemscore.Hbonds>
donor molecule, donor type, donor heavy atom, donor atom, acceptor molecule, acceptor atom, score
      L1  H    14    37       P1  7948  2.00
      L1  C     9    29       P1  8028  0.05
      L1  C     9    29       P1  8029  0.69

> <Gold.PLP.Chemscore.Internal.Correction>
0.1075

> <Gold.Rescore>
     Score         DG    S(hbond)    S(metal)    S(lipo)     H(rot)  DE(clash)    DE(int)     intcor
     16.41     -17.63       0.97        0.00     129.90       2.46       0.74       0.49       ----

> <Gold.Chemscore.Fitness>
16.4070

> <Gold.Chemscore.DG>
-17.6309

> <Gold.Chemscore.ZeroCoef>
-5.4800

> <Gold.Chemscore.Hbond>
0.9738

> <Gold.Chemscore.Metal>
0.0000

> <Gold.Chemscore.Lipo>
129.8984

> <Gold.Chemscore.Internal_Hbond>
0.0000

> <Gold.Chemscore.DEClash>
0.7371

> <Gold.Chemscore.DEInternal>
0.4869

> <Gold.Chemscore.Rot>
2.4608

> <Gold.Chemscore.Internal.Correction>
   9.000000E+99

> <Gold.Chemscore.Hbonds>
donor molecule, donor type, donor heavy atom, donor atom, acceptor molecule, acceptor atom, score
      L1  H    14    37       P1  7948  0.92

> <Gold.Chemscore.Hbond.Weighted>
-3.2525

> <Gold.Chemscore.Metal.Weighted>
-0.0000

> <Gold.Chemscore.Lipo.Weighted>
-15.1981

> <Gold.Chemscore.Internal_Hbond.Weighted>
0.0000

> <Gold.Chemscore.DEClash.Weighted>
0.7371

> <Gold.Chemscore.DEInternal.Weighted>
0.4869

> <Gold.Chemscore.Rot.Weighted>
6.2996

> <Gold.Chemscore.Internal.Correction.Weighted>
   9.000000E+99

> <Gold.Protein.RotatedTorsions>
[ 6907 6896 6895 6894 ] final -173.74 input  -60.11 | X-H torsion
[ 7974 7965 7964 7962 ] final  175.41 input  175.53 | X-H torsion
[ 8008 7997 7996 7995 ] final -130.95 input   59.86 | X-H torsion
[ 10167 10162 10161 10158 ] final    4.68 input  -65.29 | X-H torsion
[ 10718 10713 10712 10709 ] final -132.68 input   66.30 | X-H torsion
[ 10763 10752 10751 10750 ] final  -83.97 input  -60.55 | X-H torsion
[ 11005 11000 10999 10996 ] final -157.00 input  -57.11 | X-H torsion

> <Gold.Protein.ActiveResidues>
 VAL166  LYS551  ARG553  GLY616  TRP617  ASP618  TYR619  PRO620  LYS621  CYS622 
 ASP623  PHE694  ASN695  SER759  ASP760  ASP761  ALA762  ILE779  LEU786  VAL792 
 PHE793  MET794  SER795  GLU796  ALA797  LYS798  CYS799  TRP800  GLU811  SER814 

> <Gold.Protein.RotatedAtoms>
  151.5610  133.3403  159.2970 H   0  0  0  0  0  0  0  0  0  0  0  0  # atno 6907 bound_to 6896
  150.8422  134.7721  159.6953 H   0  0  0  0  0  0  0  0  0  0  0  0  # atno 6908 bound_to 6896
  152.4487  134.5446  159.9900 H   0  0  0  0  0  0  0  0  0  0  0  0  # atno 6909 bound_to 6896
  144.7202  139.9943  143.6440 H   0  0  0  0  0  0  0  0  0  0  0  0  # atno 7974 bound_to 7965
  155.3043  140.0454  157.3031 H   0  0  0  0  0  0  0  0  0  0  0  0  # atno 8008 bound_to 7997
  154.5469  140.2305  155.8516 H   0  0  0  0  0  0  0  0  0  0  0  0  # atno 8009 bound_to 7997
  156.1932  140.3045  155.9380 H   0  0  0  0  0  0  0  0  0  0  0  0  # atno 8010 bound_to 7997
  140.6522  143.7517  150.7593 H   0  0  0  0  0  0  0  0  0  0  0  0  # atno 10167 bound_to 10162
  156.2370  130.7073  151.0918 H   0  0  0  0  0  0  0  0  0  0  0  0  # atno 10718 bound_to 10713
  154.5940  135.5537  153.7307 H   0  0  0  0  0  0  0  0  0  0  0  0  # atno 10763 bound_to 10752
  153.0128  135.6350  154.1808 H   0  0  0  0  0  0  0  0  0  0  0  0  # atno 10764 bound_to 10752
  154.1749  135.2890  155.3050 H   0  0  0  0  0  0  0  0  0  0  0  0  # atno 10765 bound_to 10752
  140.6694  134.4264  157.5232 H   0  0  0  0  0  0  0  0  0  0  0  0  # atno 11005 bound_to 11000
  146.0386  139.3401  143.0711 LP  0  0  0  0  0  0  0  0  0  0  0  0  # atno 17320 bound_to 7965
  145.8363  140.9604  143.0823 LP  0  0  0  0  0  0  0  0  0  0  0  0  # atno 17321 bound_to 7965
  140.1170  143.4647  152.2336 LP  0  0  0  0  0  0  0  0  0  0  0  0  # atno 17342 bound_to 10162
  139.5738  144.7477  151.3818 LP  0  0  0  0  0  0  0  0  0  0  0  0  # atno 17343 bound_to 10162
  157.7159  131.0710  150.6329 LP  0  0  0  0  0  0  0  0  0  0  0  0  # atno 17370 bound_to 10713
  156.6400  130.4456  149.5756 LP  0  0  0  0  0  0  0  0  0  0  0  0  # atno 17371 bound_to 10713
  139.8986  134.8609  156.1993 LP  0  0  0  0  0  0  0  0  0  0  0  0  # atno 17394 bound_to 11000
  141.0404  133.6941  156.1587 LP  0  0  0  0  0  0  0  0  0  0  0  0  # atno 17395 bound_to 11000

$$$$
