AV-unprocessed.smi:447|AV-procd|sdf|2599|dock4
  -GOLD-   2262022593D 1   1.00000     0.00000
 Structure written by MMmdl.
 45 47  0  0  0  0  0  0  0  0  1 V2000
  152.4835  131.9471  157.0419 C   0  0  0  0  0  0  0  0  0  0  0  0
  151.1587  132.7001  156.9755 C   0  0  0  0  0  0  0  0  0  0  0  0
  150.3874  132.6651  157.9334 O   0  0  0  0  0  0  0  0  0  0  0  0
  150.9077  133.3782  155.8444 N   0  0  0  0  0  0  0  0  0  0  0  0
  149.7117  134.1795  155.5849 C   0  0  2  0  0  0  0  0  0  0  0  0
  149.0508  133.7307  154.2753 C   0  0  0  0  0  0  0  0  0  0  0  0
  150.0926  135.6401  155.5514 C   0  0  0  0  0  0  0  0  0  0  0  0
  150.9814  136.1275  154.6806 N   0  0  0  0  0  0  0  0  0  0  0  0
  151.0166  137.4708  154.9945 C   0  0  0  0  0  0  0  0  0  0  0  0
  151.7756  138.5239  154.4359 C   0  0  0  0  0  0  0  0  0  0  0  0
  151.6411  139.8391  154.9268 C   0  0  0  0  0  0  0  0  0  0  0  0
  150.7476  140.1188  155.9810 C   0  0  0  0  0  0  0  0  0  0  0  0
  149.9812  139.0836  156.5504 C   0  0  0  0  0  0  0  0  0  0  0  0
  150.1194  137.7724  156.0566 C   0  0  0  0  0  0  0  0  0  0  0  0
  149.5299  136.5546  156.3833 N   0  0  0  0  0  0  0  0  0  0  0  0
  148.5177  136.3401  157.4094 C   0  0  0  0  0  0  0  0  0  0  0  0
  149.0768  136.4822  158.8394 C   0  0  1  0  0  0  0  0  0  0  0  0
  149.2072  137.8501  159.1742 O   0  0  0  0  0  0  0  0  0  0  0  0
  148.2256  135.7210  159.8430 C   0  0  0  0  0  0  0  0  0  0  0  0
  147.9737  134.3414  159.6754 C   0  0  0  0  0  0  0  0  0  0  0  0
  147.1898  133.6439  160.6152 C   0  0  0  0  0  0  0  0  0  0  0  0
  146.6561  134.3209  161.7286 C   0  0  0  0  0  0  0  0  0  0  0  0
  146.9080  135.6952  161.9029 C   0  0  0  0  0  0  0  0  0  0  0  0
  147.6916  136.3931  160.9635 C   0  0  0  0  0  0  0  0  0  0  0  0
  153.0990  132.1384  156.1622 H   0  0  0  0  0  0  0  0  0  0  0  0
  152.3027  130.8741  157.1070 H   0  0  0  0  0  0  0  0  0  0  0  0
  153.0463  132.2534  157.9240 H   0  0  0  0  0  0  0  0  0  0  0  0
  151.6056  133.3569  155.1152 H   0  0  0  0  0  0  0  0  0  0  0  0
  149.0054  133.9958  156.3942 H   0  0  0  0  0  0  0  0  0  0  0  0
  148.1407  134.3000  154.0844 H   0  0  0  0  0  0  0  0  0  0  0  0
  148.7779  132.6758  154.3144 H   0  0  0  0  0  0  0  0  0  0  0  0
  149.7168  133.8730  153.4237 H   0  0  0  0  0  0  0  0  0  0  0  0
  152.4631  138.3188  153.6287 H   0  0  0  0  0  0  0  0  0  0  0  0
  152.2271  140.6362  154.4932 H   0  0  0  0  0  0  0  0  0  0  0  0
  150.6516  141.1282  156.3534 H   0  0  0  0  0  0  0  0  0  0  0  0
  149.2990  139.2935  157.3608 H   0  0  0  0  0  0  0  0  0  0  0  0
  147.7046  137.0493  157.2501 H   0  0  0  0  0  0  0  0  0  0  0  0
  148.0795  135.3522  157.2655 H   0  0  0  0  0  0  0  0  0  0  0  0
  150.0827  136.0654  158.8714 H   0  0  0  0  0  0  0  0  0  0  0  0
  150.1012  138.0092  159.4357 H   0  0  0  0  0  0  0  0  0  0  0  0
  148.3824  133.8132  158.8262 H   0  0  0  0  0  0  0  0  0  0  0  0
  146.9988  132.5893  160.4824 H   0  0  0  0  0  0  0  0  0  0  0  0
  146.0553  133.7860  162.4493 H   0  0  0  0  0  0  0  0  0  0  0  0
  146.5007  136.2145  162.7580 H   0  0  0  0  0  0  0  0  0  0  0  0
  147.8819  137.4470  161.1067 H   0  0  0  0  0  0  0  0  0  0  0  0
  1  2  1  0  0  0  0
  1 25  1  0  0  0  0
  1 26  1  0  0  0  0
  1 27  1  0  0  0  0
  2  3  2  0  0  0  0
  2  4  1  0  0  0  0
  4  5  1  0  0  0  0
  4 28  1  0  0  0  0
  5  6  1  0  0  0  0
  5  7  1  0  0  0  0
  5 29  1  0  0  0  0
  6 30  1  0  0  0  0
  6 31  1  0  0  0  0
  6 32  1  0  0  0  0
  7 15  1  0  0  0  0
  7  8  2  0  0  0  0
  8  9  1  0  0  0  0
  9 14  2  0  0  0  0
  9 10  1  0  0  0  0
 10 11  2  0  0  0  0
 10 33  1  0  0  0  0
 11 12  1  0  0  0  0
 11 34  1  0  0  0  0
 12 13  2  0  0  0  0
 12 35  1  0  0  0  0
 13 14  1  0  0  0  0
 13 36  1  0  0  0  0
 14 15  1  0  0  0  0
 15 16  1  0  0  0  0
 16 17  1  0  0  0  0
 16 37  1  0  0  0  0
 16 38  1  0  0  0  0
 17 18  1  0  0  0  0
 17 19  1  0  0  0  0
 17 39  1  0  0  0  0
 18 40  1  0  0  0  0
 19 24  1  0  0  0  0
 19 20  2  0  0  0  0
 20 21  1  0  0  0  0
 20 41  1  0  0  0  0
 21 22  2  0  0  0  0
 21 42  1  0  0  0  0
 22 23  1  0  0  0  0
 22 43  1  0  0  0  0
 23 24  2  0  0  0  0
 23 44  1  0  0  0  0
 24 45  1  0  0  0  0
M  END
> <s_m_source_file>
AV-unprocessed.smi

> <i_m_source_file_index>
447

> <i_lp_mmshare_version>
43012

> <i_f3d_flags>
0

> <s_epik_input>
W0NIM11DKD1PKVtOSF1bQ0BIXShbQ0gzXSljKG4xKW4oYyhjMTIpW2NIXVtjSF1bY0hdW2NIXTIpW0NIMl1bQ0BIXShbT0hdKWMzW2NIXVtjSF1bY0hdW2NIXVtjSF0z

> <s_epik_cmdline>
J2VwaWtfcHl0aG9uJywgJy1waCcsICc3LjAnLCAnLXRuJywgJzgnLCAnLW1hJywgJzIwMCcsICctbWV0YWxfYmluZGluZycsICctaW1hZScsICc8aW5maWxlLm1hZT4nLCAnLW9tYWUnLCAnPG91dGZpbGUubWFlPic=

> <r_epik_Ionization_Penalty>
0.13301

> <r_epik_Ionization_Penalty_Charging>
0

> <r_epik_Ionization_Penalty_Neutral>
0.13301

> <r_epik_State_Penalty>
0.122384

> <r_epik_Charging_Adjusted_Penalty>
0.122384

> <i_epik_Tot_Q>
0

> <i_epik_Tot_abs_Q>
0

> <r_epik_Metal_State_Penalty>
0.0997374

> <b_epik_Metal_Only>
0

> <s_lp_Force_Field>
OPLS_2005

> <r_lp_Energy>
6.23771

> <b_lp_Chiralities_Consistent>
1

> <s_lp_Variant>
AV-unprocessed.smi:447-3

> <Gold.Version>
5.8.1

> <Gold.Id.Protein>
6NUR|6NUR_protein|mol2

> <Gold.PLP.Fitness>
43.1020

> <Gold.PLP.PLP>
-38.0226

> <Gold.PLP.part.hbond>
-3.0000

> <Gold.PLP.part.metal>
0.0000

> <Gold.PLP.part.buried>
-3.3511

> <Gold.PLP.part.nonpolar>
-32.8572

> <Gold.PLP.part.repulsive>
0.2706

> <Gold.PLP.ligand.clash>
0.0000

> <Gold.PLP.ligand.torsion>
0.4094

> <Gold.PLP.Chemscore.Hbond>
1.9500

> <Gold.PLP.Chemscore.CHOScore>
0.0000

> <Gold.PLP.Chemscore.Metal>
0.0000

> <Gold.Chemscore.Hbonds>
donor molecule, donor type, donor heavy atom, donor atom, acceptor molecule, acceptor atom, score
      P1  H  6896  6907       L1     3  1.00
      P1  H 10752 10764       L1     8  1.00

> <Gold.PLP.Chemscore.Internal.Correction>
0.0482

> <Gold.Rescore>
     Score         DG    S(hbond)    S(metal)    S(lipo)     H(rot)  DE(clash)    DE(int)     intcor
     15.28     -15.96       1.83        0.00      88.95       2.35       0.01       0.67       ----

> <Gold.Chemscore.Fitness>
15.2847

> <Gold.Chemscore.DG>
-15.9606

> <Gold.Chemscore.ZeroCoef>
-5.4800

> <Gold.Chemscore.Hbond>
1.8252

> <Gold.Chemscore.Metal>
0.0000

> <Gold.Chemscore.Lipo>
88.9548

> <Gold.Chemscore.Internal_Hbond>
0.0000

> <Gold.Chemscore.DEClash>
0.0104

> <Gold.Chemscore.DEInternal>
0.6656

> <Gold.Chemscore.Rot>
2.3528

> <Gold.Chemscore.Internal.Correction>
   9.000000E+99

> <Gold.Chemscore.Hbonds>
donor molecule, donor type, donor heavy atom, donor atom, acceptor molecule, acceptor atom, score
      P1  H  6896  6907       L1     3  0.55
      P1  H 10752 10764       L1     8  0.47

> <Gold.Chemscore.Hbond.Weighted>
-6.0961

> <Gold.Chemscore.Metal.Weighted>
-0.0000

> <Gold.Chemscore.Lipo.Weighted>
-10.4077

> <Gold.Chemscore.Internal_Hbond.Weighted>
0.0000

> <Gold.Chemscore.DEClash.Weighted>
0.0104

> <Gold.Chemscore.DEInternal.Weighted>
0.6656

> <Gold.Chemscore.Rot.Weighted>
6.0231

> <Gold.Chemscore.Internal.Correction.Weighted>
   9.000000E+99

> <Gold.Protein.RotatedTorsions>
[ 6907 6896 6895 6894 ] final -151.90 input  -60.11 | X-H torsion
[ 7974 7965 7964 7962 ] final  -25.06 input  175.53 | X-H torsion
[ 8008 7997 7996 7995 ] final  -33.79 input   59.86 | X-H torsion
[ 10167 10162 10161 10158 ] final   90.31 input  -65.29 | X-H torsion
[ 10718 10713 10712 10709 ] final  161.74 input   66.30 | X-H torsion
[ 10763 10752 10751 10750 ] final  -73.84 input  -60.55 | X-H torsion
[ 11005 11000 10999 10996 ] final   71.63 input  -57.11 | X-H torsion

> <Gold.Protein.ActiveResidues>
 VAL166  LYS551  ARG553  GLY616  TRP617  ASP618  TYR619  PRO620  LYS621  CYS622 
 ASP623  PHE694  ASN695  SER759  ASP760  ASP761  ALA762  ILE779  LEU786  VAL792 
 PHE793  MET794  SER795  GLU796  ALA797  LYS798  CYS799  TRP800  GLU811  SER814 

> <Gold.Protein.RotatedAtoms>
  151.2199  133.4508  159.2600 H   0  0  0  0  0  0  0  0  0  0  0  0  # atno 6907 bound_to 6896
  151.0895  134.9908  159.8406 H   0  0  0  0  0  0  0  0  0  0  0  0  # atno 6908 bound_to 6896
  152.5433  134.2133  159.8811 H   0  0  0  0  0  0  0  0  0  0  0  0  # atno 6909 bound_to 6896
  146.1515  140.4836  142.8609 H   0  0  0  0  0  0  0  0  0  0  0  0  # atno 7974 bound_to 7965
  154.4139  140.1701  156.1945 H   0  0  0  0  0  0  0  0  0  0  0  0  # atno 8008 bound_to 7997
  155.9575  140.3396  155.6438 H   0  0  0  0  0  0  0  0  0  0  0  0  # atno 8009 bound_to 7997
  155.6791  140.0720  157.2482 H   0  0  0  0  0  0  0  0  0  0  0  0  # atno 8010 bound_to 7997
  139.8485  144.6605  150.9197 H   0  0  0  0  0  0  0  0  0  0  0  0  # atno 10167 bound_to 10162
  157.1323  131.0519  151.2366 H   0  0  0  0  0  0  0  0  0  0  0  0  # atno 10718 bound_to 10713
  154.4650  135.5884  153.6282 H   0  0  0  0  0  0  0  0  0  0  0  0  # atno 10763 bound_to 10752
  152.9827  135.6053  154.3438 H   0  0  0  0  0  0  0  0  0  0  0  0  # atno 10764 bound_to 10752
  154.3314  135.2842  155.2449 H   0  0  0  0  0  0  0  0  0  0  0  0  # atno 10765 bound_to 10752
  139.9533  134.7188  156.0811 H   0  0  0  0  0  0  0  0  0  0  0  0  # atno 11005 bound_to 11000
  144.7910  140.6031  143.6542 LP  0  0  0  0  0  0  0  0  0  0  0  0  # atno 17320 bound_to 7965
  145.4812  139.1495  143.3761 LP  0  0  0  0  0  0  0  0  0  0  0  0  # atno 17321 bound_to 7965
  140.7790  143.3848  151.1413 LP  0  0  0  0  0  0  0  0  0  0  0  0  # atno 17342 bound_to 10162
  139.7488  143.8810  152.3071 LP  0  0  0  0  0  0  0  0  0  0  0  0  # atno 17343 bound_to 10162
  157.4382  130.7529  149.7046 LP  0  0  0  0  0  0  0  0  0  0  0  0  # atno 17370 bound_to 10713
  155.9805  130.4028  150.3523 LP  0  0  0  0  0  0  0  0  0  0  0  0  # atno 17371 bound_to 10713
  141.1200  133.6615  156.3191 LP  0  0  0  0  0  0  0  0  0  0  0  0  # atno 17394 bound_to 11000
  140.5667  134.5880  157.5447 LP  0  0  0  0  0  0  0  0  0  0  0  0  # atno 17395 bound_to 11000

$$$$
