AV-unprocessed.smi:1261|AV-procd|sdf|5305|dock4
  -GOLD-   22720 4423D 1   1.00000     0.00000
 Structure written by MMmdl.
 50 51  0  0  0  0  0  0  0  0  2 V2000
  146.9441  128.9640  151.5006 C   0  0  0  0  0  0  0  0  0  0  0  0
  146.0377  129.9030  152.3163 C   0  0  2  0  0  0  0  0  0  0  0  0
  144.9961  130.6354  151.4497 C   0  0  0  0  0  0  0  0  0  0  0  0
  145.6383  131.7566  150.6126 C   0  0  1  0  0  0  0  0  0  0  0  0
  144.5837  132.5232  149.8019 C   0  0  0  0  0  0  0  0  0  0  0  0
  146.4501  132.7021  151.5191 C   0  0  0  0  0  0  0  0  0  0  0  0
  147.4718  131.9571  152.2989 N   0  3  1  0  0  0  0  0  0  0  0  0
  148.3826  132.8589  153.0484 C   0  0  0  0  0  0  0  0  0  0  0  0
  147.6872  133.5162  154.2524 C   0  0  0  0  0  0  0  0  0  0  0  0
  148.6720  133.8677  155.3791 C   0  0  0  0  0  0  0  0  0  0  0  0
  148.2671  133.2650  156.6428 N   0  0  0  0  0  0  0  0  0  0  0  0
  148.8063  133.5425  157.8426 C   0  0  0  0  0  0  0  0  0  0  0  0
  149.7323  134.3400  157.9856 O   0  0  0  0  0  0  0  0  0  0  0  0
  148.2257  132.8400  159.0825 C   0  0  0  0  0  0  0  0  0  0  0  0
  147.8222  133.7400  160.1755 N   0  0  0  0  0  0  0  0  0  0  0  0
  147.9864  135.0871  159.8899 N   0  0  0  0  0  0  0  0  0  0  0  0
  147.6691  135.9764  160.7693 C   0  0  0  0  0  0  0  0  0  0  0  0
  147.8513  137.2987  160.4464 O   0  0  0  0  0  0  0  0  0  0  0  0
  147.1372  135.5963  162.0598 C   0  0  0  0  0  0  0  0  0  0  0  0
  146.9818  134.2815  162.3296 C   0  0  0  0  0  0  0  0  0  0  0  0
  147.3372  133.2467  161.3567 C   0  0  0  0  0  0  0  0  0  0  0  0
  147.2222  132.0421  161.5814 O   0  0  0  0  0  0  0  0  0  0  0  0
  146.8483  130.9114  153.1540 C   0  0  0  0  0  0  0  0  0  0  0  0
  148.1552  137.3006  159.5518 H   0  0  0  0  0  0  0  0  0  0  0  0
  147.5685  129.5097  150.7933 H   0  0  0  0  0  0  0  0  0  0  0  0
  146.3534  128.2432  150.9343 H   0  0  0  0  0  0  0  0  0  0  0  0
  147.6083  128.3985  152.1549 H   0  0  0  0  0  0  0  0  0  0  0  0
  145.4890  129.2679  153.0130 H   0  0  0  0  0  0  0  0  0  0  0  0
  144.4773  129.9266  150.8029 H   0  0  0  0  0  0  0  0  0  0  0  0
  144.2337  131.0660  152.1007 H   0  0  0  0  0  0  0  0  0  0  0  0
  146.3248  131.3022  149.8975 H   0  0  0  0  0  0  0  0  0  0  0  0
  143.8548  133.0064  150.4531 H   0  0  0  0  0  0  0  0  0  0  0  0
  144.0405  131.8548  149.1332 H   0  0  0  0  0  0  0  0  0  0  0  0
  145.0454  133.2970  149.1878 H   0  0  0  0  0  0  0  0  0  0  0  0
  146.9409  133.4538  150.8994 H   0  0  0  0  0  0  0  0  0  0  0  0
  145.7895  133.2373  152.2033 H   0  0  0  0  0  0  0  0  0  0  0  0
  149.2296  132.2841  153.4255 H   0  0  0  0  0  0  0  0  0  0  0  0
  148.7967  133.6123  152.3766 H   0  0  0  0  0  0  0  0  0  0  0  0
  147.1696  134.4225  153.9392 H   0  0  0  0  0  0  0  0  0  0  0  0
  146.9209  132.8434  154.6403 H   0  0  0  0  0  0  0  0  0  0  0  0
  149.6684  133.4993  155.1333 H   0  0  0  0  0  0  0  0  0  0  0  0
  148.7587  134.9500  155.4905 H   0  0  0  0  0  0  0  0  0  0  0  0
  147.5128  132.5940  156.6095 H   0  0  0  0  0  0  0  0  0  0  0  0
  147.3697  132.2461  158.7573 H   0  0  0  0  0  0  0  0  0  0  0  0
  148.9551  132.1139  159.4461 H   0  0  0  0  0  0  0  0  0  0  0  0
  146.8724  136.3522  162.7847 H   0  0  0  0  0  0  0  0  0  0  0  0
  146.5849  133.9835  163.2889 H   0  0  0  0  0  0  0  0  0  0  0  0
  146.1955  131.3927  153.8841 H   0  0  0  0  0  0  0  0  0  0  0  0
  147.6056  130.3758  153.7255 H   0  0  0  0  0  0  0  0  0  0  0  0
  148.0453  131.4779  151.6196 H   0  0  0  0  0  0  0  0  0  0  0  0
  1  2  1  0  0  0  0
  1 25  1  0  0  0  0
  1 26  1  0  0  0  0
  1 27  1  0  0  0  0
  2 23  1  0  0  0  0
  2  3  1  0  0  0  0
  2 28  1  0  0  0  0
  3  4  1  0  0  0  0
  3 29  1  0  0  0  0
  3 30  1  0  0  0  0
  4  5  1  0  0  0  0
  4  6  1  0  0  0  0
  4 31  1  0  0  0  0
  5 32  1  0  0  0  0
  5 33  1  0  0  0  0
  5 34  1  0  0  0  0
  6  7  1  0  0  0  0
  6 35  1  0  0  0  0
  6 36  1  0  0  0  0
  7  8  1  0  0  0  0
  7 23  1  0  0  0  0
  7 50  1  0  0  0  0
  8  9  1  0  0  0  0
  8 37  1  0  0  0  0
  8 38  1  0  0  0  0
  9 10  1  0  0  0  0
  9 39  1  0  0  0  0
  9 40  1  0  0  0  0
 10 11  1  0  0  0  0
 10 41  1  0  0  0  0
 10 42  1  0  0  0  0
 11 12  1  0  0  0  0
 11 43  1  0  0  0  0
 12 13  2  0  0  0  0
 12 14  1  0  0  0  0
 14 44  1  0  0  0  0
 14 45  1  0  0  0  0
 14 15  1  0  0  0  0
 15 16  1  0  0  0  0
 15 21  1  0  0  0  0
 16 17  2  0  0  0  0
 17 18  1  0  0  0  0
 17 19  1  0  0  0  0
 18 24  1  0  0  0  0
 19 46  1  0  0  0  0
 19 20  2  0  0  0  0
 20 47  1  0  0  0  0
 20 21  1  0  0  0  0
 21 22  2  0  0  0  0
 23 48  1  0  0  0  0
 23 49  1  0  0  0  0
M  CHG  1   7   1
M  END
> <s_m_source_file>
AV-unprocessed.smi

> <i_m_source_file_index>
1261

> <i_lp_mmshare_version>
43012

> <i_f3d_flags>
0

> <s_epik_input>
W0NIM11bQ0BASF0xW0NIMl1bQ0BASF0oW0NIM10pW0NIMl1OKFtDSDJdMSlbQ0gyXVtDSDJdW0NIMl1bTkhdQyg9TylbQ0gyXW4yW25IXWMoPU8pW2NIXVtjSF1jMj1P

> <s_epik_cmdline>
J2VwaWtfcHl0aG9uJywgJy1waCcsICc3LjAnLCAnLXRuJywgJzgnLCAnLW1hJywgJzIwMCcsICctbWV0YWxfYmluZGluZycsICctaW1hZScsICc8aW5maWxlLm1hZT4nLCAnLW9tYWUnLCAnPG91dGZpbGUubWFlPic=

> <r_lp_tautomer_probability>
0.9996

> <r_epik_Ionization_Penalty>
2.1425

> <r_epik_Ionization_Penalty_Charging>
0.000312112

> <r_epik_Ionization_Penalty_Neutral>
2.14218

> <r_epik_State_Penalty>
1.71978

> <r_epik_Charging_Adjusted_Penalty>
1.72009

> <i_epik_Tot_Q>
1

> <i_epik_Tot_abs_Q>
1

> <r_epik_Metal_State_Penalty>
1.71978

> <b_epik_Metal_Only>
0

> <s_lp_Force_Field>
OPLS_2005

> <r_lp_Energy>
29.6525

> <b_lp_Chiralities_Consistent>
1

> <s_lp_Variant>
AV-unprocessed.smi:1261-5

> <Gold.Version>
5.8.1

> <Gold.Id.Protein>
6NUR|6NUR_protein|mol2

> <Gold.PLP.Fitness>
53.3290

> <Gold.PLP.PLP>
-44.1806

> <Gold.PLP.part.hbond>
-4.0000

> <Gold.PLP.part.metal>
0.0000

> <Gold.PLP.part.buried>
-4.8975

> <Gold.PLP.part.nonpolar>
-35.3763

> <Gold.PLP.part.repulsive>
0.0173

> <Gold.PLP.ligand.clash>
0.0000

> <Gold.PLP.ligand.torsion>
0.6835

> <Gold.PLP.Chemscore.Hbond>
3.4730

> <Gold.PLP.Chemscore.CHOScore>
0.0000

> <Gold.PLP.Chemscore.Metal>
0.0000

> <Gold.Chemscore.Hbonds>
donor molecule, donor type, donor heavy atom, donor atom, acceptor molecule, acceptor atom, score
      L1  H     7    50       P1 10747  1.00
      P1  H  6896  6909       L1    13  0.94
      P1  H  6931  6943       L1    18  0.57
      P1  H  6934  6947       L1    18  0.82

> <Gold.PLP.Chemscore.Internal.Correction>
0.0965

> <Gold.Rescore>
     Score         DG    S(hbond)    S(metal)    S(lipo)     H(rot)  DE(clash)    DE(int)     intcor
     16.93     -19.17       3.17        0.00      95.11       3.14       0.01       2.24       ----

> <Gold.Chemscore.Fitness>
16.9319

> <Gold.Chemscore.DG>
-19.1747

> <Gold.Chemscore.ZeroCoef>
-5.4800

> <Gold.Chemscore.Hbond>
3.1716

> <Gold.Chemscore.Metal>
0.0000

> <Gold.Chemscore.Lipo>
95.1074

> <Gold.Chemscore.Internal_Hbond>
0.0000

> <Gold.Chemscore.DEClash>
0.0073

> <Gold.Chemscore.DEInternal>
2.2355

> <Gold.Chemscore.Rot>
3.1352

> <Gold.Chemscore.Internal.Correction>
   9.000000E+99

> <Gold.Chemscore.Hbonds>
donor molecule, donor type, donor heavy atom, donor atom, acceptor molecule, acceptor atom, score
      L1  H     7    50       P1 10747  1.00
      P1  H  6896  6909       L1    13  0.71
      P1  H  6931  6943       L1    18  0.43
      P1  H  6934  6947       L1    18  0.60

> <Gold.Chemscore.Hbond.Weighted>
-10.5932

> <Gold.Chemscore.Metal.Weighted>
-0.0000

> <Gold.Chemscore.Lipo.Weighted>
-11.1276

> <Gold.Chemscore.Internal_Hbond.Weighted>
0.0000

> <Gold.Chemscore.DEClash.Weighted>
0.0073

> <Gold.Chemscore.DEInternal.Weighted>
2.2355

> <Gold.Chemscore.Rot.Weighted>
8.0260

> <Gold.Chemscore.Internal.Correction.Weighted>
   9.000000E+99

> <Gold.Protein.RotatedTorsions>
[ 6907 6896 6895 6894 ] final    2.28 input  -60.11 | X-H torsion
[ 7974 7965 7964 7962 ] final -174.34 input  175.53 | X-H torsion
[ 8008 7997 7996 7995 ] final  152.85 input   59.86 | X-H torsion
[ 10167 10162 10161 10158 ] final  156.45 input  -65.29 | X-H torsion
[ 10718 10713 10712 10709 ] final -100.44 input   66.30 | X-H torsion
[ 10763 10752 10751 10750 ] final -160.54 input  -60.55 | X-H torsion
[ 11005 11000 10999 10996 ] final   31.63 input  -57.11 | X-H torsion

> <Gold.Protein.ActiveResidues>
 VAL166  LYS551  ARG553  GLY616  TRP617  ASP618  TYR619  PRO620  LYS621  CYS622 
 ASP623  PHE694  ASN695  SER759  ASP760  ASP761  ALA762  ILE779  LEU786  VAL792 
 PHE793  MET794  SER795  GLU796  ALA797  LYS798  CYS799  TRP800  GLU811  SER814 

> <Gold.Protein.RotatedAtoms>
  151.6063  135.1043  160.0071 H   0  0  0  0  0  0  0  0  0  0  0  0  # atno 6907 bound_to 6896
  152.4231  133.7146  159.6509 H   0  0  0  0  0  0  0  0  0  0  0  0  # atno 6908 bound_to 6896
  150.8119  133.8333  159.3200 H   0  0  0  0  0  0  0  0  0  0  0  0  # atno 6909 bound_to 6896
  144.7132  140.1486  143.6386 H   0  0  0  0  0  0  0  0  0  0  0  0  # atno 7974 bound_to 7965
  156.2610  140.2010  156.6397 H   0  0  0  0  0  0  0  0  0  0  0  0  # atno 8008 bound_to 7997
  154.6619  140.0560  157.0096 H   0  0  0  0  0  0  0  0  0  0  0  0  # atno 8009 bound_to 7997
  155.1264  140.3229  155.4487 H   0  0  0  0  0  0  0  0  0  0  0  0  # atno 8010 bound_to 7997
  139.4821  144.5008  151.8171 H   0  0  0  0  0  0  0  0  0  0  0  0  # atno 10167 bound_to 10162
  156.0163  130.5328  150.6817 H   0  0  0  0  0  0  0  0  0  0  0  0  # atno 10718 bound_to 10713
  154.7381  135.3062  154.8776 H   0  0  0  0  0  0  0  0  0  0  0  0  # atno 10763 bound_to 10752
  153.9598  135.6754  153.4749 H   0  0  0  0  0  0  0  0  0  0  0  0  # atno 10764 bound_to 10752
  153.0982  135.4925  154.8742 H   0  0  0  0  0  0  0  0  0  0  0  0  # atno 10765 bound_to 10752
  140.2819  134.2963  155.7798 H   0  0  0  0  0  0  0  0  0  0  0  0  # atno 11005 bound_to 11000
  145.9137  139.2502  143.1422 LP  0  0  0  0  0  0  0  0  0  0  0  0  # atno 17320 bound_to 7965
  145.9691  140.8775  143.0172 LP  0  0  0  0  0  0  0  0  0  0  0  0  # atno 17321 bound_to 7965
  140.4501  144.1867  150.5897 LP  0  0  0  0  0  0  0  0  0  0  0  0  # atno 17342 bound_to 10162
  140.4594  143.2455  151.9241 LP  0  0  0  0  0  0  0  0  0  0  0  0  # atno 17343 bound_to 10162
  157.4518  131.0873  151.0838 LP  0  0  0  0  0  0  0  0  0  0  0  0  # atno 17370 bound_to 10713
  157.1352  130.6119  149.5540 LP  0  0  0  0  0  0  0  0  0  0  0  0  # atno 17371 bound_to 10713
  141.2161  133.7531  156.9494 LP  0  0  0  0  0  0  0  0  0  0  0  0  # atno 17394 bound_to 11000
  140.1275  134.9377  157.2291 LP  0  0  0  0  0  0  0  0  0  0  0  0  # atno 17395 bound_to 11000

$$$$
