AV-unprocessed.smi:3263|AV-procd|sdf|12492|dock10
  -GOLD-   2272018393D 1   1.00000     0.00000
 Structure written by MMmdl.
 42 44  0  0  0  0  0  0  0  0  2 V2000
  144.2441  135.7179  153.5702 O   0  0  0  0  0  0  0  0  0  0  0  0
  145.3117  135.5635  152.9768 C   0  0  0  0  0  0  0  0  0  0  0  0
  145.8426  134.1555  152.6867 C   0  0  0  0  0  0  0  0  0  0  0  0
  145.6589  133.7207  151.2151 C   0  0  2  0  0  0  0  0  0  0  0  0
  144.2890  134.1055  150.6047 C   0  0  0  0  0  0  0  0  0  0  0  0
  143.7436  132.7597  150.0940 C   0  0  1  0  0  0  0  0  0  0  0  0
  144.5784  132.2879  148.8889 C   0  0  0  0  0  0  0  0  0  0  0  0
  145.9056  131.8593  149.5431 C   0  0  0  0  0  0  0  0  0  0  0  0
  145.6710  132.1854  151.0305 C   0  0  2  0  0  0  0  0  0  0  0  0
  144.2011  131.8081  151.1913 C   0  0  0  0  0  0  0  0  0  0  0  0
  146.0676  136.5856  152.5476 N   0  0  0  0  0  0  0  0  0  0  0  0
  145.7485  137.9962  152.7309 C   0  0  0  0  0  0  0  0  0  0  0  0
  146.7594  138.9040  152.0108 C   0  0  0  0  0  0  0  0  0  0  0  0
  147.2790  140.0090  152.9097 C   0  0  0  0  0  0  0  0  0  0  0  0
  148.5747  139.9740  153.4689 C   0  0  0  0  0  0  0  0  0  0  0  0
  148.9993  141.0388  154.2910 C   0  0  0  0  0  0  0  0  0  0  0  0
  148.1209  142.1146  154.5360 C   0  0  0  0  0  0  0  0  0  0  0  0
  146.8379  142.0983  153.9517 C   0  0  0  0  0  0  0  0  0  0  0  0
  146.4680  141.0602  153.1697 N   0  3  0  0  0  0  0  0  0  0  0  0
  146.9033  134.1431  152.9397 H   0  0  0  0  0  0  0  0  0  0  0  0
  145.3613  133.4391  153.3539 H   0  0  0  0  0  0  0  0  0  0  0  0
  146.4649  134.1583  150.6238 H   0  0  0  0  0  0  0  0  0  0  0  0
  143.6168  134.5165  151.3591 H   0  0  0  0  0  0  0  0  0  0  0  0
  144.3828  134.8453  149.8089 H   0  0  0  0  0  0  0  0  0  0  0  0
  142.6695  132.7663  149.9072 H   0  0  0  0  0  0  0  0  0  0  0  0
  144.1041  131.4400  148.3929 H   0  0  0  0  0  0  0  0  0  0  0  0
  144.7153  133.0771  148.1488 H   0  0  0  0  0  0  0  0  0  0  0  0
  146.0712  130.7902  149.4048 H   0  0  0  0  0  0  0  0  0  0  0  0
  146.7660  132.3852  149.1281 H   0  0  0  0  0  0  0  0  0  0  0  0
  146.3567  131.6635  151.6986 H   0  0  0  0  0  0  0  0  0  0  0  0
  143.7901  132.0487  152.1729 H   0  0  0  0  0  0  0  0  0  0  0  0
  143.9966  130.7594  150.9677 H   0  0  0  0  0  0  0  0  0  0  0  0
  146.9302  136.3689  152.0691 H   0  0  0  0  0  0  0  0  0  0  0  0
  144.7352  138.1979  152.3792 H   0  0  0  0  0  0  0  0  0  0  0  0
  145.7526  138.2062  153.8008 H   0  0  0  0  0  0  0  0  0  0  0  0
  147.6031  138.3142  151.6499 H   0  0  0  0  0  0  0  0  0  0  0  0
  146.3008  139.3538  151.1292 H   0  0  0  0  0  0  0  0  0  0  0  0
  149.2374  139.1441  153.2700 H   0  0  0  0  0  0  0  0  0  0  0  0
  149.9874  141.0307  154.7273 H   0  0  0  0  0  0  0  0  0  0  0  0
  148.4275  142.9403  155.1616 H   0  0  0  0  0  0  0  0  0  0  0  0
  146.1025  142.8785  154.0843 H   0  0  0  0  0  0  0  0  0  0  0  0
  145.5354  141.0704  152.7561 H   0  0  0  0  0  0  0  0  0  0  0  0
  1  2  2  0  0  0  0
  2  3  1  0  0  0  0
  2 11  1  0  0  0  0
  3  4  1  0  0  0  0
  3 20  1  0  0  0  0
  3 21  1  0  0  0  0
  4  9  1  0  0  0  0
  4  5  1  0  0  0  0
  4 22  1  0  0  0  0
  5  6  1  0  0  0  0
  5 23  1  0  0  0  0
  5 24  1  0  0  0  0
  6 10  1  0  0  0  0
  6  7  1  0  0  0  0
  6 25  1  0  0  0  0
  7  8  1  0  0  0  0
  7 26  1  0  0  0  0
  7 27  1  0  0  0  0
  8  9  1  0  0  0  0
  8 28  1  0  0  0  0
  8 29  1  0  0  0  0
  9 10  1  0  0  0  0
  9 30  1  0  0  0  0
 10 31  1  0  0  0  0
 10 32  1  0  0  0  0
 11 12  1  0  0  0  0
 11 33  1  0  0  0  0
 12 13  1  0  0  0  0
 12 34  1  0  0  0  0
 12 35  1  0  0  0  0
 13 14  1  0  0  0  0
 13 36  1  0  0  0  0
 13 37  1  0  0  0  0
 14 19  1  0  0  0  0
 14 15  2  0  0  0  0
 15 16  1  0  0  0  0
 15 38  1  0  0  0  0
 16 17  2  0  0  0  0
 16 39  1  0  0  0  0
 17 18  1  0  0  0  0
 17 40  1  0  0  0  0
 18 19  2  0  0  0  0
 18 41  1  0  0  0  0
 19 42  1  0  0  0  0
M  CHG  1  19   1
M  END
> <s_m_source_file>
AV-unprocessed.smi

> <i_m_source_file_index>
3263

> <i_lp_mmshare_version>
43012

> <i_f3d_flags>
0

> <s_epik_input>
W0NIMl0xW0NIMl1bQ0BASF0oW0NIMl0yKVtDQEBIXShbQ0gyXVtDQEhdMTIpW0NIMl1DKD1PKVtOSF1bQ0gyXVtDSDJdYzNbY0hdW2NIXVtjSF1bY0hdbjM=

> <s_epik_cmdline>
J2VwaWtfcHl0aG9uJywgJy1waCcsICc3LjAnLCAnLXRuJywgJzgnLCAnLW1hJywgJzIwMCcsICctbWV0YWxfYmluZGluZycsICctaW1hZScsICc8aW5maWxlLm1hZT4nLCAnLW9tYWUnLCAnPG91dGZpbGUubWFlPic=

> <r_epik_Ionization_Penalty>
1.83579

> <r_epik_Ionization_Penalty_Charging>
1.83579

> <r_epik_Ionization_Penalty_Neutral>
2.47288e-08

> <r_epik_State_Penalty>
1.95213

> <r_epik_Charging_Adjusted_Penalty>
3.78793

> <i_epik_Tot_Q>
1

> <i_epik_Tot_abs_Q>
1

> <r_epik_Metal_State_Penalty>
1.97847

> <b_epik_Metal_Only>
0

> <s_lp_Force_Field>
OPLS_2005

> <r_lp_Energy>
51.8999

> <b_lp_Chiralities_Consistent>
1

> <s_lp_Variant>
AV-unprocessed.smi:3263-7

> <Gold.Version>
5.8.1

> <Gold.Id.Protein>
6NUR|6NUR_protein|mol2

> <Gold.PLP.Fitness>
45.4063

> <Gold.PLP.PLP>
-38.2884

> <Gold.PLP.part.hbond>
-2.0000

> <Gold.PLP.part.metal>
0.0000

> <Gold.PLP.part.buried>
3.9161

> <Gold.PLP.part.nonpolar>
-40.7856

> <Gold.PLP.part.repulsive>
0.0810

> <Gold.PLP.ligand.clash>
0.0000

> <Gold.PLP.ligand.torsion>
0.9491

> <Gold.PLP.Chemscore.Hbond>
3.0000

> <Gold.PLP.Chemscore.CHOScore>
0.0000

> <Gold.PLP.Chemscore.Metal>
0.0000

> <Gold.Chemscore.Hbonds>
donor molecule, donor type, donor heavy atom, donor atom, acceptor molecule, acceptor atom, score
      L1  H    11    33       P1  7948  1.00
      L1  H    19    42       P1 10175  1.60

> <Gold.PLP.Chemscore.Internal.Correction>
0.0161

> <Gold.Rescore>
     Score         DG    S(hbond)    S(metal)    S(lipo)     H(rot)  DE(clash)    DE(int)     intcor
     19.19     -20.27       1.93        0.00     105.61       1.56       0.06       1.02       ----

> <Gold.Chemscore.Fitness>
19.1907

> <Gold.Chemscore.DG>
-20.2709

> <Gold.Chemscore.ZeroCoef>
-5.4800

> <Gold.Chemscore.Hbond>
1.9277

> <Gold.Chemscore.Metal>
0.0000

> <Gold.Chemscore.Lipo>
105.6068

> <Gold.Chemscore.Internal_Hbond>
0.0000

> <Gold.Chemscore.DEClash>
0.0605

> <Gold.Chemscore.DEInternal>
1.0197

> <Gold.Chemscore.Rot>
1.5640

> <Gold.Chemscore.Internal.Correction>
   9.000000E+99

> <Gold.Chemscore.Hbonds>
donor molecule, donor type, donor heavy atom, donor atom, acceptor molecule, acceptor atom, score
      L1  H    11    33       P1  7948  0.93
      L1  H    19    42       P1 10175  0.12

> <Gold.Chemscore.Hbond.Weighted>
-6.4387

> <Gold.Chemscore.Metal.Weighted>
-0.0000

> <Gold.Chemscore.Lipo.Weighted>
-12.3560

> <Gold.Chemscore.Internal_Hbond.Weighted>
0.0000

> <Gold.Chemscore.DEClash.Weighted>
0.0605

> <Gold.Chemscore.DEInternal.Weighted>
1.0197

> <Gold.Chemscore.Rot.Weighted>
4.0038

> <Gold.Chemscore.Internal.Correction.Weighted>
   9.000000E+99

> <Gold.Protein.RotatedTorsions>
[ 6907 6896 6895 6894 ] final -143.50 input  -60.11 | X-H torsion
[ 7974 7965 7964 7962 ] final  111.86 input  175.53 | X-H torsion
[ 8008 7997 7996 7995 ] final -179.94 input   59.86 | X-H torsion
[ 10167 10162 10161 10158 ] final  -23.59 input  -65.29 | X-H torsion
[ 10718 10713 10712 10709 ] final   53.61 input   66.30 | X-H torsion
[ 10763 10752 10751 10750 ] final -129.59 input  -60.55 | X-H torsion
[ 11005 11000 10999 10996 ] final  -42.45 input  -57.11 | X-H torsion

> <Gold.Protein.ActiveResidues>
 VAL166  LYS551  ARG553  GLY616  TRP617  ASP618  TYR619  PRO620  LYS621  CYS622 
 ASP623  PHE694  ASN695  SER759  ASP760  ASP761  ALA762  ILE779  LEU786  VAL792 
 PHE793  MET794  SER795  GLU796  ALA797  LYS798  CYS799  TRP800  GLU811  SER814 

> <Gold.Protein.RotatedAtoms>
  151.1014  133.5241  159.2609 H   0  0  0  0  0  0  0  0  0  0  0  0  # atno 6907 bound_to 6896
  151.2070  135.0465  159.8906 H   0  0  0  0  0  0  0  0  0  0  0  0  # atno 6908 bound_to 6896
  152.5443  134.0834  159.8299 H   0  0  0  0  0  0  0  0  0  0  0  0  # atno 6909 bound_to 6896
  145.2369  139.2795  143.4138 H   0  0  0  0  0  0  0  0  0  0  0  0  # atno 7974 bound_to 7965
  156.0363  140.1293  157.0204 H   0  0  0  0  0  0  0  0  0  0  0  0  # atno 8008 bound_to 7997
  154.4371  140.1039  156.6242 H   0  0  0  0  0  0  0  0  0  0  0  0  # atno 8009 bound_to 7997
  155.5733  140.3467  155.4523 H   0  0  0  0  0  0  0  0  0  0  0  0  # atno 8010 bound_to 7997
  140.7288  143.4429  151.0629 H   0  0  0  0  0  0  0  0  0  0  0  0  # atno 10167 bound_to 10162
  157.5182  130.8547  149.8524 H   0  0  0  0  0  0  0  0  0  0  0  0  # atno 10718 bound_to 10713
  154.8757  135.3890  154.3945 H   0  0  0  0  0  0  0  0  0  0  0  0  # atno 10763 bound_to 10752
  153.4677  135.7029  153.6017 H   0  0  0  0  0  0  0  0  0  0  0  0  # atno 10764 bound_to 10752
  153.4488  135.3839  155.2240 H   0  0  0  0  0  0  0  0  0  0  0  0  # atno 10765 bound_to 10752
  141.0316  133.6817  156.2596 H   0  0  0  0  0  0  0  0  0  0  0  0  # atno 11005 bound_to 11000
  146.3339  140.2720  142.8606 LP  0  0  0  0  0  0  0  0  0  0  0  0  # atno 17320 bound_to 7965
  144.9625  140.8289  143.5505 LP  0  0  0  0  0  0  0  0  0  0  0  0  # atno 17321 bound_to 7965
  139.8098  143.7966  152.3170 LP  0  0  0  0  0  0  0  0  0  0  0  0  # atno 17342 bound_to 10162
  139.8012  144.7373  150.9822 LP  0  0  0  0  0  0  0  0  0  0  0  0  # atno 17343 bound_to 10162
  156.0335  130.3758  150.1623 LP  0  0  0  0  0  0  0  0  0  0  0  0  # atno 17370 bound_to 10713
  156.9811  130.9864  151.3437 LP  0  0  0  0  0  0  0  0  0  0  0  0  # atno 17371 bound_to 10713
  140.6396  134.5179  157.5568 LP  0  0  0  0  0  0  0  0  0  0  0  0  # atno 17394 bound_to 11000
  139.9212  134.8146  156.1207 LP  0  0  0  0  0  0  0  0  0  0  0  0  # atno 17395 bound_to 11000

$$$$
