AV-unprocessed.smi:3299|AV-procd|sdf|12649|dock4
  -GOLD-   2272018583D 1   1.00000     0.00000
 Structure written by MMmdl.
 34 35  0  0  0  0  0  0  0  0  1 V2000
  153.0533  142.5699  161.3118 C   0  0  0  0  0  0  0  0  0  0  0  0
  152.2209  143.3661  160.3566 C   0  0  0  0  0  0  0  0  0  0  0  0
  151.9442  144.7102  160.4261 C   0  0  0  0  0  0  0  0  0  0  0  0
  150.9318  145.2386  159.1094 S   0  0  0  0  0  0  0  0  0  0  0  0
  150.9245  143.5799  158.5067 C   0  0  0  0  0  0  0  0  0  0  0  0
  150.2659  143.0862  157.3536 N   0  0  0  0  0  0  0  0  0  0  0  0
  150.1316  141.8073  156.9671 C   0  0  0  0  0  0  0  0  0  0  0  0
  150.5642  140.8319  157.5804 O   0  0  0  0  0  0  0  0  0  0  0  0
  149.4592  141.7225  155.8081 N   0  0  0  0  0  0  0  0  0  0  0  0
  149.1166  140.5026  155.0735 C   0  0  1  0  0  0  0  0  0  0  0  0
  148.0739  140.7630  153.9624 C   0  0  0  0  0  0  0  0  0  0  0  0
  147.2732  139.5166  153.5502 C   0  0  0  0  0  0  0  0  0  0  0  0
  148.0117  138.7612  152.6143 O   0  0  0  0  0  0  0  0  0  0  0  0
  150.3163  139.7344  154.5383 C   0  0  0  0  0  0  0  0  0  0  0  0
  150.5202  138.2776  154.8788 C   0  0  0  0  0  0  0  0  0  0  0  0
  151.4523  139.3259  155.4449 C   0  0  0  0  0  0  0  0  0  0  0  0
  151.6324  142.7334  159.2567 N   0  0  0  0  0  0  0  0  0  0  0  0
  153.5727  143.2144  162.0214 H   0  0  0  0  0  0  0  0  0  0  0  0
  153.8083  141.9855  160.7854 H   0  0  0  0  0  0  0  0  0  0  0  0
  152.4377  141.8768  161.8854 H   0  0  0  0  0  0  0  0  0  0  0  0
  152.2734  145.4200  161.1704 H   0  0  0  0  0  0  0  0  0  0  0  0
  149.8577  143.7870  156.7531 H   0  0  0  0  0  0  0  0  0  0  0  0
  149.1494  142.5881  155.3909 H   0  0  0  0  0  0  0  0  0  0  0  0
  148.6370  139.8591  155.8124 H   0  0  0  0  0  0  0  0  0  0  0  0
  147.3857  141.5506  154.2718 H   0  0  0  0  0  0  0  0  0  0  0  0
  148.5912  141.1512  153.0838 H   0  0  0  0  0  0  0  0  0  0  0  0
  147.0576  138.8929  154.4181 H   0  0  0  0  0  0  0  0  0  0  0  0
  146.3201  139.7930  153.0989 H   0  0  0  0  0  0  0  0  0  0  0  0
  148.7796  139.2542  152.3686 H   0  0  0  0  0  0  0  0  0  0  0  0
  150.5995  140.0137  153.5253 H   0  0  0  0  0  0  0  0  0  0  0  0
  149.8143  137.8116  155.5636 H   0  0  0  0  0  0  0  0  0  0  0  0
  150.9074  137.6292  154.0955 H   0  0  0  0  0  0  0  0  0  0  0  0
  152.4603  139.3767  155.0384 H   0  0  0  0  0  0  0  0  0  0  0  0
  151.3647  139.5556  156.5049 H   0  0  0  0  0  0  0  0  0  0  0  0
  1  2  1  0  0  0  0
  1 18  1  0  0  0  0
  1 19  1  0  0  0  0
  1 20  1  0  0  0  0
  2 17  1  0  0  0  0
  2  3  2  0  0  0  0
  3  4  1  0  0  0  0
  3 21  1  0  0  0  0
  4  5  1  0  0  0  0
  5  6  1  0  0  0  0
  5 17  2  0  0  0  0
  6  7  1  0  0  0  0
  6 22  1  0  0  0  0
  7  8  2  0  0  0  0
  7  9  1  0  0  0  0
  9 10  1  0  0  0  0
  9 23  1  0  0  0  0
 10 11  1  0  0  0  0
 10 14  1  0  0  0  0
 10 24  1  0  0  0  0
 11 12  1  0  0  0  0
 11 25  1  0  0  0  0
 11 26  1  0  0  0  0
 12 13  1  0  0  0  0
 12 27  1  0  0  0  0
 12 28  1  0  0  0  0
 13 29  1  0  0  0  0
 14 16  1  0  0  0  0
 14 15  1  0  0  0  0
 14 30  1  0  0  0  0
 15 16  1  0  0  0  0
 15 31  1  0  0  0  0
 15 32  1  0  0  0  0
 16 33  1  0  0  0  0
 16 34  1  0  0  0  0
M  END
> <s_m_source_file>
AV-unprocessed.smi

> <i_m_source_file_index>
3299

> <i_lp_mmshare_version>
43012

> <i_f3d_flags>
0

> <s_epik_input>
W0NIM11jMVtjSF1zYyhuMSlbTkhdQyg9TylbTkhdW0NASF0oW0NIMl1bQ0gyXVtPSF0pW0NIXTJbQ0gyXVtDSDJdMg==

> <s_epik_cmdline>
J2VwaWtfcHl0aG9uJywgJy1waCcsICc3LjAnLCAnLXRuJywgJzgnLCAnLW1hJywgJzIwMCcsICctbWV0YWxfYmluZGluZycsICctaW1hZScsICc8aW5maWxlLm1hZT4nLCAnLW9tYWUnLCAnPG91dGZpbGUubWFlPic=

> <r_lp_tautomer_probability>
0.999

> <r_epik_Ionization_Penalty>
0.000568872

> <r_epik_Ionization_Penalty_Charging>
0

> <r_epik_Ionization_Penalty_Neutral>
0.000568872

> <r_epik_State_Penalty>
0.000177984

> <r_epik_Charging_Adjusted_Penalty>
0.000177984

> <i_epik_Tot_Q>
0

> <i_epik_Tot_abs_Q>
0

> <r_epik_Metal_State_Penalty>
-0

> <b_epik_Metal_Only>
0

> <s_lp_Force_Field>
OPLS_2005

> <r_lp_Energy>
11.9184

> <b_lp_Chiralities_Consistent>
1

> <s_lp_Variant>
AV-unprocessed.smi:3299-2

> <Gold.Version>
5.8.1

> <Gold.Id.Protein>
6NUR|6NUR_protein|mol2

> <Gold.PLP.Fitness>
47.6571

> <Gold.PLP.PLP>
-39.9031

> <Gold.PLP.part.hbond>
-3.5924

> <Gold.PLP.part.metal>
0.0000

> <Gold.PLP.part.buried>
-5.2071

> <Gold.PLP.part.nonpolar>
-32.3929

> <Gold.PLP.part.repulsive>
0.1526

> <Gold.PLP.ligand.clash>
0.0000

> <Gold.PLP.ligand.torsion>
1.1002

> <Gold.PLP.Chemscore.Hbond>
2.9280

> <Gold.PLP.Chemscore.CHOScore>
0.0000

> <Gold.PLP.Chemscore.Metal>
0.0000

> <Gold.Chemscore.Hbonds>
donor molecule, donor type, donor heavy atom, donor atom, acceptor molecule, acceptor atom, score
      L1  H     6    22       P1  8028  1.00
      L1  H     9    23       P1  8028  0.64
      L1  H    13    29       P1  7957  0.93

> <Gold.PLP.Chemscore.Internal.Correction>
1.1704

> <Gold.Rescore>
     Score         DG    S(hbond)    S(metal)    S(lipo)     H(rot)  DE(clash)    DE(int)     intcor
     16.00     -18.68       2.83        0.00      84.23       2.39       0.00       2.68       ----

> <Gold.Chemscore.Fitness>
15.9975

> <Gold.Chemscore.DG>
-18.6791

> <Gold.Chemscore.ZeroCoef>
-5.4800

> <Gold.Chemscore.Hbond>
2.8346

> <Gold.Chemscore.Metal>
0.0000

> <Gold.Chemscore.Lipo>
84.2258

> <Gold.Chemscore.Internal_Hbond>
0.0000

> <Gold.Chemscore.DEClash>
0.0009

> <Gold.Chemscore.DEInternal>
2.6807

> <Gold.Chemscore.Rot>
2.3917

> <Gold.Chemscore.Internal.Correction>
   9.000000E+99

> <Gold.Chemscore.Hbonds>
donor molecule, donor type, donor heavy atom, donor atom, acceptor molecule, acceptor atom, score
      L1  H     6    22       P1  8028  1.00
      L1  H     9    23       P1  8028  0.61
      L1  H    13    29       P1  7957  0.89

> <Gold.Chemscore.Hbond.Weighted>
-9.4675

> <Gold.Chemscore.Metal.Weighted>
-0.0000

> <Gold.Chemscore.Lipo.Weighted>
-9.8544

> <Gold.Chemscore.Internal_Hbond.Weighted>
0.0000

> <Gold.Chemscore.DEClash.Weighted>
0.0009

> <Gold.Chemscore.DEInternal.Weighted>
2.6807

> <Gold.Chemscore.Rot.Weighted>
6.1228

> <Gold.Chemscore.Internal.Correction.Weighted>
   9.000000E+99

> <Gold.Protein.RotatedTorsions>
[ 6907 6896 6895 6894 ] final  -54.12 input  -60.11 | X-H torsion
[ 7974 7965 7964 7962 ] final  150.91 input  175.53 | X-H torsion
[ 8008 7997 7996 7995 ] final  -71.74 input   59.86 | X-H torsion
[ 10167 10162 10161 10158 ] final -160.30 input  -65.29 | X-H torsion
[ 10718 10713 10712 10709 ] final   43.47 input   66.30 | X-H torsion
[ 10763 10752 10751 10750 ] final   20.63 input  -60.55 | X-H torsion
[ 11005 11000 10999 10996 ] final   78.93 input  -57.11 | X-H torsion

> <Gold.Protein.ActiveResidues>
 VAL166  LYS551  ARG553  GLY616  TRP617  ASP618  TYR619  PRO620  LYS621  CYS622 
 ASP623  PHE694  ASN695  SER759  ASP760  ASP761  ALA762  ILE779  LEU786  VAL792 
 PHE793  MET794  SER795  GLU796  ALA797  LYS798  CYS799  TRP800  GLU811  SER814 

> <Gold.Protein.RotatedAtoms>
  150.8366  134.7642  159.6897 H   0  0  0  0  0  0  0  0  0  0  0  0  # atno 6907 bound_to 6896
  152.4462  134.5487  159.9870 H   0  0  0  0  0  0  0  0  0  0  0  0  # atno 6908 bound_to 6896
  151.5635  133.3362  159.3011 H   0  0  0  0  0  0  0  0  0  0  0  0  # atno 6909 bound_to 6896
  144.8330  139.6470  143.6050 H   0  0  0  0  0  0  0  0  0  0  0  0  # atno 7974 bound_to 7965
  154.5111  140.0810  156.7992 H   0  0  0  0  0  0  0  0  0  0  0  0  # atno 8008 bound_to 7997
  155.3783  140.3426  155.4227 H   0  0  0  0  0  0  0  0  0  0  0  0  # atno 8009 bound_to 7997
  156.1574  140.1577  156.8657 H   0  0  0  0  0  0  0  0  0  0  0  0  # atno 8010 bound_to 7997
  139.6550  144.0015  152.2187 H   0  0  0  0  0  0  0  0  0  0  0  0  # atno 10167 bound_to 10162
  157.4162  130.7943  149.7474 H   0  0  0  0  0  0  0  0  0  0  0  0  # atno 10718 bound_to 10713
  153.1062  135.6685  153.9583 H   0  0  0  0  0  0  0  0  0  0  0  0  # atno 10763 bound_to 10752
  153.9139  135.3022  155.3450 H   0  0  0  0  0  0  0  0  0  0  0  0  # atno 10764 bound_to 10752
  154.7483  135.5047  153.9319 H   0  0  0  0  0  0  0  0  0  0  0  0  # atno 10765 bound_to 10752
  139.9193  134.7802  156.1713 H   0  0  0  0  0  0  0  0  0  0  0  0  # atno 11005 bound_to 11000
  146.2631  139.6457  142.9348 LP  0  0  0  0  0  0  0  0  0  0  0  0  # atno 17320 bound_to 7965
  145.4855  141.0438  143.2622 LP  0  0  0  0  0  0  0  0  0  0  0  0  # atno 17321 bound_to 7965
  139.9739  144.6475  150.7963 LP  0  0  0  0  0  0  0  0  0  0  0  0  # atno 17342 bound_to 10162
  140.7555  143.3047  151.2991 LP  0  0  0  0  0  0  0  0  0  0  0  0  # atno 17343 bound_to 10162
  155.9866  130.3973  150.3205 LP  0  0  0  0  0  0  0  0  0  0  0  0  # atno 17370 bound_to 10713
  157.1348  131.0281  151.2953 LP  0  0  0  0  0  0  0  0  0  0  0  0  # atno 17371 bound_to 10713
  141.0699  133.6802  156.2119 LP  0  0  0  0  0  0  0  0  0  0  0  0  # atno 17394 bound_to 11000
  140.6524  134.5053  157.5578 LP  0  0  0  0  0  0  0  0  0  0  0  0  # atno 17395 bound_to 11000

$$$$
