AV-unprocessed.smi:2000|AV-procd|sdf|8101|dock4
  -GOLD-   2272010323D 1   1.00000     0.00000
 Structure written by MMmdl.
 43 44  0  0  0  0  0  0  0  0  1 V2000
  147.2665  134.1334  160.9452 C   0  0  0  0  0  0  0  0  0  0  0  0
  148.0379  135.4535  161.1051 C   0  0  1  0  0  0  0  0  0  0  0  0
  148.7163  135.8758  159.7946 C   0  0  0  0  0  0  0  0  0  0  0  0
  148.3221  135.4325  158.7155 O   0  0  0  0  0  0  0  0  0  0  0  0
  149.7487  136.7276  159.9023 N   0  0  0  0  0  0  0  0  0  0  0  0
  150.5354  137.2321  158.7803 C   0  0  0  0  0  0  0  0  0  0  0  0
  151.7745  138.0453  159.1657 C   0  0  0  0  0  0  0  0  0  0  0  0
  152.5574  137.6985  160.2925 C   0  0  0  0  0  0  0  0  0  0  0  0
  153.6743  138.4841  160.6283 C   0  0  0  0  0  0  0  0  0  0  0  0
  153.9693  139.6002  159.8265 C   0  0  0  0  0  0  0  0  0  0  0  0
  153.2313  139.9524  158.7549 N   0  0  0  0  0  0  0  0  0  0  0  0
  152.1537  139.1980  158.4266 C   0  0  0  0  0  0  0  0  0  0  0  0
  151.4192  139.5872  157.2928 N   0  0  0  0  0  0  0  0  0  0  0  0
  151.8848  138.9414  156.0720 C   0  0  0  0  0  0  0  0  0  0  0  0
  150.9257  139.2568  154.9109 C   0  0  0  0  0  0  0  0  0  0  0  0
  150.7895  140.6685  154.7675 O   0  0  0  0  0  0  0  0  0  0  0  0
  150.2638  141.2783  155.9433 C   0  0  0  0  0  0  0  0  0  0  0  0
  151.2169  141.0221  157.1230 C   0  0  0  0  0  0  0  0  0  0  0  0
  146.8913  136.7881  161.6908 S   0  0  0  0  0  0  0  0  0  0  0  0
  145.3469  135.8659  162.0879 C   0  0  0  0  0  0  0  0  0  0  0  0
  147.4168  137.3563  162.9418 O   0  0  0  0  0  0  0  0  0  0  0  0
  146.6136  137.6807  160.5552 O   0  0  0  0  0  0  0  0  0  0  0  0
  147.9099  133.3414  160.5601 H   0  0  0  0  0  0  0  0  0  0  0  0
  146.4233  134.2427  160.2619 H   0  0  0  0  0  0  0  0  0  0  0  0
  146.8702  133.7970  161.9033 H   0  0  0  0  0  0  0  0  0  0  0  0
  148.7967  135.3205  161.8772 H   0  0  0  0  0  0  0  0  0  0  0  0
  150.0147  137.0432  160.8238 H   0  0  0  0  0  0  0  0  0  0  0  0
  150.8133  136.3929  158.1415 H   0  0  0  0  0  0  0  0  0  0  0  0
  149.8882  137.8698  158.1780 H   0  0  0  0  0  0  0  0  0  0  0  0
  152.3143  136.8439  160.9060 H   0  0  0  0  0  0  0  0  0  0  0  0
  154.2886  138.2379  161.4816 H   0  0  0  0  0  0  0  0  0  0  0  0
  154.8183  140.2283  160.0525 H   0  0  0  0  0  0  0  0  0  0  0  0
  152.8880  139.2990  155.8351 H   0  0  0  0  0  0  0  0  0  0  0  0
  151.9557  137.8626  156.2160 H   0  0  0  0  0  0  0  0  0  0  0  0
  151.3122  138.8413  153.9802 H   0  0  0  0  0  0  0  0  0  0  0  0
  149.9484  138.8024  155.0813 H   0  0  0  0  0  0  0  0  0  0  0  0
  150.1572  142.3494  155.7715 H   0  0  0  0  0  0  0  0  0  0  0  0
  149.2670  140.8877  156.1551 H   0  0  0  0  0  0  0  0  0  0  0  0
  150.8072  141.4486  158.0393 H   0  0  0  0  0  0  0  0  0  0  0  0
  152.1719  141.5142  156.9329 H   0  0  0  0  0  0  0  0  0  0  0  0
  144.5677  136.5752  162.3663 H   0  0  0  0  0  0  0  0  0  0  0  0
  145.5228  135.1872  162.9221 H   0  0  0  0  0  0  0  0  0  0  0  0
  145.0231  135.2993  161.2152 H   0  0  0  0  0  0  0  0  0  0  0  0
  1  2  1  0  0  0  0
  1 23  1  0  0  0  0
  1 24  1  0  0  0  0
  1 25  1  0  0  0  0
  2  3  1  0  0  0  0
  2 19  1  0  0  0  0
  2 26  1  0  0  0  0
  3  4  2  0  0  0  0
  3  5  1  0  0  0  0
  5  6  1  0  0  0  0
  5 27  1  0  0  0  0
  6  7  1  0  0  0  0
  6 28  1  0  0  0  0
  6 29  1  0  0  0  0
  7 12  1  0  0  0  0
  7  8  2  0  0  0  0
  8  9  1  0  0  0  0
  8 30  1  0  0  0  0
  9 10  2  0  0  0  0
  9 31  1  0  0  0  0
 10 11  1  0  0  0  0
 10 32  1  0  0  0  0
 11 12  2  0  0  0  0
 12 13  1  0  0  0  0
 13 18  1  0  0  0  0
 13 14  1  0  0  0  0
 14 15  1  0  0  0  0
 14 33  1  0  0  0  0
 14 34  1  0  0  0  0
 15 16  1  0  0  0  0
 15 35  1  0  0  0  0
 15 36  1  0  0  0  0
 16 17  1  0  0  0  0
 17 18  1  0  0  0  0
 17 37  1  0  0  0  0
 17 38  1  0  0  0  0
 18 39  1  0  0  0  0
 18 40  1  0  0  0  0
 19 20  1  0  0  0  0
 19 21  2  0  0  0  0
 19 22  2  0  0  0  0
 20 41  1  0  0  0  0
 20 42  1  0  0  0  0
 20 43  1  0  0  0  0
M  END
> <s_m_source_file>
AV-unprocessed.smi

> <i_m_source_file_index>
2000

> <i_lp_mmshare_version>
43012

> <i_f3d_flags>
0

> <s_epik_input>
W0NIM11TKD1PKSg9TylbQ0BIXShbQ0gzXSlDKD1PKVtOSF1bQ0gyXWMxW2NIXVtjSF1bY0hdbmMxTjJbQ0gyXVtDSDJdT1tDSDJdW0NIMl0y

> <s_epik_cmdline>
J2VwaWtfcHl0aG9uJywgJy1waCcsICc3LjAnLCAnLXRuJywgJzgnLCAnLW1hJywgJzIwMCcsICctbWV0YWxfYmluZGluZycsICctaW1hZScsICc8aW5maWxlLm1hZT4nLCAnLW9tYWUnLCAnPG91dGZpbGUubWFlPic=

> <r_lp_tautomer_probability>
1

> <r_epik_Ionization_Penalty>
0.00349769

> <r_epik_Ionization_Penalty_Charging>
0

> <r_epik_Ionization_Penalty_Neutral>
0.00349769

> <r_epik_State_Penalty>
0.00248024

> <r_epik_Charging_Adjusted_Penalty>
0.00248024

> <i_epik_Tot_Q>
0

> <i_epik_Tot_abs_Q>
0

> <r_epik_Metal_State_Penalty>
-0

> <b_epik_Metal_Only>
0

> <s_lp_Force_Field>
OPLS_2005

> <r_lp_Energy>
18.4728

> <b_lp_Chiralities_Consistent>
1

> <s_lp_Variant>
AV-unprocessed.smi:2000-2

> <Gold.Version>
5.8.1

> <Gold.Id.Protein>
6NUR|6NUR_protein|mol2

> <Gold.PLP.Fitness>
40.9448

> <Gold.PLP.PLP>
-33.9500

> <Gold.PLP.part.hbond>
-4.7395

> <Gold.PLP.part.metal>
0.0000

> <Gold.PLP.part.buried>
-4.5438

> <Gold.PLP.part.nonpolar>
-24.8162

> <Gold.PLP.part.repulsive>
0.3524

> <Gold.PLP.ligand.clash>
0.0000

> <Gold.PLP.ligand.torsion>
1.8953

> <Gold.PLP.Chemscore.Hbond>
3.4809

> <Gold.PLP.Chemscore.CHOScore>
0.0000

> <Gold.PLP.Chemscore.Metal>
0.0000

> <Gold.Chemscore.Hbonds>
donor molecule, donor type, donor heavy atom, donor atom, acceptor molecule, acceptor atom, score
      P1  H  6931  6943       L1    21  0.33
      P1  H  6934  6947       L1    22  0.91
      P1  H  7989  7998       L1    16  0.94
      P1  H  7997  8008       L1    11  0.34

> <Gold.PLP.Chemscore.Internal.Correction>
0.3428

> <Gold.Rescore>
     Score         DG    S(hbond)    S(metal)    S(lipo)     H(rot)  DE(clash)    DE(int)     intcor
     13.15     -15.35       1.90        0.00      75.43       2.08       0.38       1.82       ----

> <Gold.Chemscore.Fitness>
13.1486

> <Gold.Chemscore.DG>
-15.3498

> <Gold.Chemscore.ZeroCoef>
-5.4800

> <Gold.Chemscore.Hbond>
1.9041

> <Gold.Chemscore.Metal>
0.0000

> <Gold.Chemscore.Lipo>
75.4335

> <Gold.Chemscore.Internal_Hbond>
0.0000

> <Gold.Chemscore.DEClash>
0.3818

> <Gold.Chemscore.DEInternal>
1.8195

> <Gold.Chemscore.Rot>
2.0764

> <Gold.Chemscore.Internal.Correction>
   9.000000E+99

> <Gold.Chemscore.Hbonds>
donor molecule, donor type, donor heavy atom, donor atom, acceptor molecule, acceptor atom, score
      P1  H  6931  6943       L1    21  0.03
      P1  H  6934  6947       L1    22  0.53
      P1  H  7989  7998       L1    16  0.22
      P1  H  7997  8008       L1    11  0.13

> <Gold.Chemscore.Hbond.Weighted>
-6.3596

> <Gold.Chemscore.Metal.Weighted>
-0.0000

> <Gold.Chemscore.Lipo.Weighted>
-8.8257

> <Gold.Chemscore.Internal_Hbond.Weighted>
0.0000

> <Gold.Chemscore.DEClash.Weighted>
0.3818

> <Gold.Chemscore.DEInternal.Weighted>
1.8195

> <Gold.Chemscore.Rot.Weighted>
5.3155

> <Gold.Chemscore.Internal.Correction.Weighted>
   9.000000E+99

> <Gold.Protein.RotatedTorsions>
[ 6907 6896 6895 6894 ] final -149.02 input  -60.11 | X-H torsion
[ 7974 7965 7964 7962 ] final  151.33 input  175.53 | X-H torsion
[ 8008 7997 7996 7995 ] final  -71.94 input   59.86 | X-H torsion
[ 10167 10162 10161 10158 ] final -178.38 input  -65.29 | X-H torsion
[ 10718 10713 10712 10709 ] final -141.10 input   66.30 | X-H torsion
[ 10763 10752 10751 10750 ] final   12.81 input  -60.55 | X-H torsion
[ 11005 11000 10999 10996 ] final  109.52 input  -57.11 | X-H torsion

> <Gold.Protein.ActiveResidues>
 VAL166  LYS551  ARG553  GLY616  TRP617  ASP618  TYR619  PRO620  LYS621  CYS622 
 ASP623  PHE694  ASN695  SER759  ASP760  ASP761  ALA762  ILE779  LEU786  VAL792 
 PHE793  MET794  SER795  GLU796  ALA797  LYS798  CYS799  TRP800  GLU811  SER814 

> <Gold.Protein.RotatedAtoms>
  151.1781  133.4742  159.2593 H   0  0  0  0  0  0  0  0  0  0  0  0  # atno 6907 bound_to 6896
  151.1287  135.0118  159.8582 H   0  0  0  0  0  0  0  0  0  0  0  0  # atno 6908 bound_to 6896
  152.5459  134.1686  159.8640 H   0  0  0  0  0  0  0  0  0  0  0  0  # atno 6909 bound_to 6896
  144.8300  139.6524  143.6063 H   0  0  0  0  0  0  0  0  0  0  0  0  # atno 7974 bound_to 7965
  154.5127  140.0806  156.8021 H   0  0  0  0  0  0  0  0  0  0  0  0  # atno 8008 bound_to 7997
  155.3749  140.3425  155.4226 H   0  0  0  0  0  0  0  0  0  0  0  0  # atno 8009 bound_to 7997
  156.1592  140.1583  156.8629 H   0  0  0  0  0  0  0  0  0  0  0  0  # atno 8010 bound_to 7997
  139.5435  144.2298  152.0942 H   0  0  0  0  0  0  0  0  0  0  0  0  # atno 10167 bound_to 10162
  156.3300  130.7581  151.1697 H   0  0  0  0  0  0  0  0  0  0  0  0  # atno 10718 bound_to 10713
  153.1785  135.6824  153.8510 H   0  0  0  0  0  0  0  0  0  0  0  0  # atno 10763 bound_to 10752
  153.7850  135.3177  155.3372 H   0  0  0  0  0  0  0  0  0  0  0  0  # atno 10764 bound_to 10752
  154.8044  135.4757  154.0450 H   0  0  0  0  0  0  0  0  0  0  0  0  # atno 10765 bound_to 10752
  139.8863  134.9460  156.6138 H   0  0  0  0  0  0  0  0  0  0  0  0  # atno 11005 bound_to 11000
  146.2603  139.6396  142.9366 LP  0  0  0  0  0  0  0  0  0  0  0  0  # atno 17320 bound_to 7965
  145.4916  141.0438  143.2590 LP  0  0  0  0  0  0  0  0  0  0  0  0  # atno 17321 bound_to 7965
  140.1781  144.4871  150.6543 LP  0  0  0  0  0  0  0  0  0  0  0  0  # atno 17342 bound_to 10162
  140.6674  143.2273  151.5708 LP  0  0  0  0  0  0  0  0  0  0  0  0  # atno 17343 bound_to 10162
  157.7428  131.0484  150.4992 LP  0  0  0  0  0  0  0  0  0  0  0  0  # atno 17370 bound_to 10713
  156.5157  130.4150  149.6277 LP  0  0  0  0  0  0  0  0  0  0  0  0  # atno 17371 bound_to 10713
  140.7791  133.8675  155.8553 LP  0  0  0  0  0  0  0  0  0  0  0  0  # atno 17394 bound_to 11000
  140.9776  134.1449  157.4523 LP  0  0  0  0  0  0  0  0  0  0  0  0  # atno 17395 bound_to 11000

$$$$
