AV-unprocessed.smi:1142|AV-procd|sdf|4873|dock9
  -GOLD-   22720 3443D 1   1.00000     0.00000
 Structure written by MMmdl.
 33 34  0  0  0  0  0  0  0  0  1 V2000
  152.7678  144.6991  158.0255 C   0  0  0  0  0  0  0  0  0  0  0  0
  151.7206  144.1291  158.2891 C   0  0  0  0  0  0  0  0  0  0  0  0
  150.4591  143.4337  158.5945 C   0  0  0  0  0  0  0  0  0  0  0  0
  149.8345  142.8600  157.4084 N   0  0  0  0  0  0  0  0  0  0  0  0
  149.8875  141.5661  157.0500 C   0  0  0  0  0  0  0  0  0  0  0  0
  150.4721  140.7017  157.7040 O   0  0  0  0  0  0  0  0  0  0  0  0
  149.1377  141.2225  155.7892 C   0  0  0  0  0  0  0  0  0  0  0  0
  148.1456  142.1100  155.3115 C   0  0  0  0  0  0  0  0  0  0  0  0
  147.4740  141.8216  154.1106 C   0  0  0  0  0  0  0  0  0  0  0  0
  147.8259  140.6511  153.4178 C   0  0  0  0  0  0  0  0  0  0  0  0
  148.7699  139.7934  153.8534 N   0  0  0  0  0  0  0  0  0  0  0  0
  149.4217  140.0587  155.0132 C   0  0  0  0  0  0  0  0  0  0  0  0
  150.3658  139.1007  155.4365 N   0  0  0  0  0  0  0  0  0  0  0  0
  151.6257  139.0254  154.7036 C   0  0  0  0  0  0  0  0  0  0  0  0
  152.6121  138.1141  155.4540 C   0  0  0  0  0  0  0  0  0  0  0  0
  152.0206  136.8335  155.6565 O   0  0  0  0  0  0  0  0  0  0  0  0
  150.8303  136.9099  156.4363 C   0  0  0  0  0  0  0  0  0  0  0  0
  149.7942  137.7886  155.7153 C   0  0  0  0  0  0  0  0  0  0  0  0
  153.6843  145.1947  157.7957 H   0  0  0  0  0  0  0  0  0  0  0  0
  150.6540  142.6726  159.3518 H   0  0  0  0  0  0  0  0  0  0  0  0
  149.7752  144.1578  159.0373 H   0  0  0  0  0  0  0  0  0  0  0  0
  149.3198  143.4940  156.8147 H   0  0  0  0  0  0  0  0  0  0  0  0
  147.9023  143.0143  155.8508 H   0  0  0  0  0  0  0  0  0  0  0  0
  146.7138  142.4856  153.7264 H   0  0  0  0  0  0  0  0  0  0  0  0
  147.3366  140.3956  152.4896 H   0  0  0  0  0  0  0  0  0  0  0  0
  151.4476  138.6291  153.7029 H   0  0  0  0  0  0  0  0  0  0  0  0
  152.0499  140.0236  154.5896 H   0  0  0  0  0  0  0  0  0  0  0  0
  153.5288  137.9955  154.8762 H   0  0  0  0  0  0  0  0  0  0  0  0
  152.8933  138.5520  156.4131 H   0  0  0  0  0  0  0  0  0  0  0  0
  150.4348  135.9047  156.5814 H   0  0  0  0  0  0  0  0  0  0  0  0
  151.0563  137.3101  157.4264 H   0  0  0  0  0  0  0  0  0  0  0  0
  148.8948  137.8766  156.3251 H   0  0  0  0  0  0  0  0  0  0  0  0
  149.4966  137.3218  154.7753 H   0  0  0  0  0  0  0  0  0  0  0  0
  1  2  3  0  0  0  0
  1 19  1  0  0  0  0
  2  3  1  0  0  0  0
  3  4  1  0  0  0  0
  3 20  1  0  0  0  0
  3 21  1  0  0  0  0
  4  5  1  0  0  0  0
  4 22  1  0  0  0  0
  5  6  2  0  0  0  0
  5  7  1  0  0  0  0
  7 12  1  0  0  0  0
  7  8  2  0  0  0  0
  8  9  1  0  0  0  0
  8 23  1  0  0  0  0
  9 10  2  0  0  0  0
  9 24  1  0  0  0  0
 10 11  1  0  0  0  0
 10 25  1  0  0  0  0
 11 12  2  0  0  0  0
 12 13  1  0  0  0  0
 13 18  1  0  0  0  0
 13 14  1  0  0  0  0
 14 15  1  0  0  0  0
 14 26  1  0  0  0  0
 14 27  1  0  0  0  0
 15 16  1  0  0  0  0
 15 28  1  0  0  0  0
 15 29  1  0  0  0  0
 16 17  1  0  0  0  0
 17 18  1  0  0  0  0
 17 30  1  0  0  0  0
 17 31  1  0  0  0  0
 18 32  1  0  0  0  0
 18 33  1  0  0  0  0
M  END
> <s_m_source_file>
AV-unprocessed.smi

> <i_m_source_file_index>
1142

> <i_lp_mmshare_version>
43012

> <i_f3d_flags>
0

> <s_epik_input>
W0NIXSNDW0NIMl1bTkhdQyg9TyljMVtjSF1bY0hdW2NIXW5jMU4yW0NIMl1bQ0gyXU9bQ0gyXVtDSDJdMg==

> <s_epik_cmdline>
J2VwaWtfcHl0aG9uJywgJy1waCcsICc3LjAnLCAnLXRuJywgJzgnLCAnLW1hJywgJzIwMCcsICctbWV0YWxfYmluZGluZycsICctaW1hZScsICc8aW5maWxlLm1hZT4nLCAnLW9tYWUnLCAnPG91dGZpbGUubWFlPic=

> <r_lp_tautomer_probability>
1

> <r_epik_Ionization_Penalty>
1.59202e-05

> <r_epik_Ionization_Penalty_Charging>
0

> <r_epik_Ionization_Penalty_Neutral>
1.59202e-05

> <r_epik_State_Penalty>
-0

> <r_epik_Charging_Adjusted_Penalty>
0

> <i_epik_Tot_Q>
0

> <i_epik_Tot_abs_Q>
0

> <r_epik_Metal_State_Penalty>
0.00596736

> <b_epik_Metal_Only>
0

> <s_lp_Force_Field>
OPLS_2005

> <r_lp_Energy>
22.9222

> <b_lp_Chiralities_Consistent>
1

> <s_lp_Variant>
AV-unprocessed.smi:1142-1

> <Gold.Version>
5.8.1

> <Gold.Id.Protein>
6NUR|6NUR_protein|mol2

> <Gold.PLP.Fitness>
35.8445

> <Gold.PLP.PLP>
-29.8616

> <Gold.PLP.part.hbond>
-2.0000

> <Gold.PLP.part.metal>
0.0000

> <Gold.PLP.part.buried>
-0.1319

> <Gold.PLP.part.nonpolar>
-29.4740

> <Gold.PLP.part.repulsive>
2.1174

> <Gold.PLP.ligand.clash>
0.0000

> <Gold.PLP.ligand.torsion>
0.4659

> <Gold.PLP.Chemscore.Hbond>
2.0000

> <Gold.PLP.Chemscore.CHOScore>
0.2271

> <Gold.PLP.Chemscore.Metal>
0.0000

> <Gold.Chemscore.Hbonds>
donor molecule, donor type, donor heavy atom, donor atom, acceptor molecule, acceptor atom, score
      L1  H     4    22       P1  8028  1.00
      P1  H 10752 10763       L1    16  1.00
      L1  C    10    25       P1  7957  0.23

> <Gold.PLP.Chemscore.Internal.Correction>
0.2333

> <Gold.Rescore>
     Score         DG    S(hbond)    S(metal)    S(lipo)     H(rot)  DE(clash)    DE(int)     intcor
     15.13     -18.47       1.84        0.00      84.55       1.19       1.46       1.88       ----

> <Gold.Chemscore.Fitness>
15.1251

> <Gold.Chemscore.DG>
-18.4674

> <Gold.Chemscore.ZeroCoef>
-5.4800

> <Gold.Chemscore.Hbond>
1.8377

> <Gold.Chemscore.Metal>
0.0000

> <Gold.Chemscore.Lipo>
84.5530

> <Gold.Chemscore.Internal_Hbond>
0.0000

> <Gold.Chemscore.DEClash>
1.4636

> <Gold.Chemscore.DEInternal>
1.8786

> <Gold.Chemscore.Rot>
1.1887

> <Gold.Chemscore.Internal.Correction>
   9.000000E+99

> <Gold.Chemscore.Hbonds>
donor molecule, donor type, donor heavy atom, donor atom, acceptor molecule, acceptor atom, score
      L1  H     4    22       P1  8028  0.96
      P1  H 10752 10763       L1    16  0.72

> <Gold.Chemscore.Hbond.Weighted>
-6.1379

> <Gold.Chemscore.Metal.Weighted>
-0.0000

> <Gold.Chemscore.Lipo.Weighted>
-9.8927

> <Gold.Chemscore.Internal_Hbond.Weighted>
0.0000

> <Gold.Chemscore.DEClash.Weighted>
1.4636

> <Gold.Chemscore.DEInternal.Weighted>
1.8786

> <Gold.Chemscore.Rot.Weighted>
3.0432

> <Gold.Chemscore.Internal.Correction.Weighted>
   9.000000E+99

> <Gold.Protein.RotatedTorsions>
[ 6907 6896 6895 6894 ] final  -23.80 input  -60.11 | X-H torsion
[ 7974 7965 7964 7962 ] final -101.27 input  175.53 | X-H torsion
[ 8008 7997 7996 7995 ] final  154.73 input   59.86 | X-H torsion
[ 10167 10162 10161 10158 ] final   12.90 input  -65.29 | X-H torsion
[ 10718 10713 10712 10709 ] final -113.55 input   66.30 | X-H torsion
[ 10763 10752 10751 10750 ] final   79.22 input  -60.55 | X-H torsion
[ 11005 11000 10999 10996 ] final  -97.09 input  -57.11 | X-H torsion

> <Gold.Protein.ActiveResidues>
 VAL166  LYS551  ARG553  GLY616  TRP617  ASP618  TYR619  PRO620  LYS621  CYS622 
 ASP623  PHE694  ASN695  SER759  ASP760  ASP761  ALA762  ILE779  LEU786  VAL792 
 PHE793  MET794  SER795  GLU796  ALA797  LYS798  CYS799  TRP800  GLU811  SER814 

> <Gold.Protein.RotatedAtoms>
  151.1987  135.0433  159.8862 H   0  0  0  0  0  0  0  0  0  0  0  0  # atno 6907 bound_to 6896
  152.5434  134.0875  159.8272 H   0  0  0  0  0  0  0  0  0  0  0  0  # atno 6908 bound_to 6896
  151.1012  133.5194  159.2642 H   0  0  0  0  0  0  0  0  0  0  0  0  # atno 6909 bound_to 6896
  145.2838  140.9334  143.2917 H   0  0  0  0  0  0  0  0  0  0  0  0  # atno 7974 bound_to 7965
  156.2516  140.1958  156.6692 H   0  0  0  0  0  0  0  0  0  0  0  0  # atno 8008 bound_to 7997
  154.6405  140.0584  156.9866 H   0  0  0  0  0  0  0  0  0  0  0  0  # atno 8009 bound_to 7997
  155.1570  140.3256  155.4422 H   0  0  0  0  0  0  0  0  0  0  0  0  # atno 8010 bound_to 7997
  140.6038  143.8551  150.6992 H   0  0  0  0  0  0  0  0  0  0  0  0  # atno 10167 bound_to 10162
  156.0773  130.5979  150.8657 H   0  0  0  0  0  0  0  0  0  0  0  0  # atno 10718 bound_to 10713
  153.0935  135.4848  154.8735 H   0  0  0  0  0  0  0  0  0  0  0  0  # atno 10763 bound_to 10752
  154.7297  135.3057  154.8914 H   0  0  0  0  0  0  0  0  0  0  0  0  # atno 10764 bound_to 10752
  153.9553  135.6818  153.4798 H   0  0  0  0  0  0  0  0  0  0  0  0  # atno 10765 bound_to 10752
  141.1390  133.8145  157.0660 H   0  0  0  0  0  0  0  0  0  0  0  0  # atno 11005 bound_to 11000
  144.9230  139.4388  143.6532 LP  0  0  0  0  0  0  0  0  0  0  0  0  # atno 17320 bound_to 7965
  146.3207  139.8101  142.8947 LP  0  0  0  0  0  0  0  0  0  0  0  0  # atno 17321 bound_to 7965
  140.2103  143.3889  152.1723 LP  0  0  0  0  0  0  0  0  0  0  0  0  # atno 17342 bound_to 10162
  139.5310  144.7158  151.5057 LP  0  0  0  0  0  0  0  0  0  0  0  0  # atno 17343 bound_to 10162
  157.5875  131.0945  150.9173 LP  0  0  0  0  0  0  0  0  0  0  0  0  # atno 17370 bound_to 10713
  156.9355  130.5365  149.5279 LP  0  0  0  0  0  0  0  0  0  0  0  0  # atno 17371 bound_to 10713
  140.0541  134.9790  157.1190 LP  0  0  0  0  0  0  0  0  0  0  0  0  # atno 17394 bound_to 11000
  140.3945  134.2149  155.7165 LP  0  0  0  0  0  0  0  0  0  0  0  0  # atno 17395 bound_to 11000

$$$$
