AV-unprocessed.smi:1634|AV-procd|sdf|6537|dock6
  -GOLD-   22720 7223D 1   1.00000     0.00000
 Structure written by MMmdl.
 38 38  0  0  0  0  0  0  0  0  1 V2000
  147.5126  142.5127  153.8166 C   0  0  0  0  0  0  0  0  0  0  0  0
  148.2820  141.2394  153.4308 C   0  0  0  0  0  0  0  0  0  0  0  0
  147.3214  140.1573  152.9161 C   0  0  0  0  0  0  0  0  0  0  0  0
  149.1269  140.7145  154.6028 C   0  0  0  0  0  0  0  0  0  0  0  0
  150.2173  139.9548  154.0917 O   0  0  0  0  0  0  0  0  0  0  0  0
  150.7206  138.9425  154.9595 C   0  0  1  0  0  0  0  0  0  0  0  0
  151.4701  137.9185  154.0940 C   0  0  0  0  0  0  0  0  0  0  0  0
  151.6449  139.5614  156.0206 C   0  0  0  0  0  0  0  0  0  0  0  0
  152.8464  139.2958  156.0032 O   0  0  0  0  0  0  0  0  0  0  0  0
  151.0426  140.3965  156.8904 N   0  0  0  0  0  0  0  0  0  0  0  0
  151.5847  141.1326  157.9580 C   0  0  0  0  0  0  0  0  0  0  0  0
  151.4266  142.4689  158.1497 C   0  0  0  0  0  0  0  0  0  0  0  0
  152.0206  143.1620  159.2807 C   0  0  0  0  0  0  0  0  0  0  0  0
  151.8830  144.6669  159.4523 C   0  0  0  0  0  0  0  0  0  0  0  0
  152.3604  145.0663  160.6318 F   0  0  0  0  0  0  0  0  0  0  0  0
  152.5395  145.3194  158.4927 F   0  0  0  0  0  0  0  0  0  0  0  0
  150.5986  145.0142  159.3851 F   0  0  0  0  0  0  0  0  0  0  0  0
  152.7624  142.4162  160.1199 C   0  0  0  0  0  0  0  0  0  0  0  0
  152.9279  141.0424  159.9322 N   0  0  0  0  0  0  0  0  0  0  0  0
  152.3909  140.3454  158.9061 C   0  0  0  0  0  0  0  0  0  0  0  0
  152.5874  139.1345  158.8083 O   0  0  0  0  0  0  0  0  0  0  0  0
  153.4903  140.5507  160.6117 H   0  0  0  0  0  0  0  0  0  0  0  0
  146.8208  142.3243  154.6384 H   0  0  0  0  0  0  0  0  0  0  0  0
  146.9338  142.8924  152.9743 H   0  0  0  0  0  0  0  0  0  0  0  0
  148.1917  143.3062  154.1297 H   0  0  0  0  0  0  0  0  0  0  0  0
  148.9608  141.4904  152.6147 H   0  0  0  0  0  0  0  0  0  0  0  0
  146.6129  139.8562  153.6884 H   0  0  0  0  0  0  0  0  0  0  0  0
  147.8652  139.2673  152.5979 H   0  0  0  0  0  0  0  0  0  0  0  0
  146.7486  140.5152  152.0601 H   0  0  0  0  0  0  0  0  0  0  0  0
  149.4725  141.5515  155.2105 H   0  0  0  0  0  0  0  0  0  0  0  0
  148.5175  140.0774  155.2456 H   0  0  0  0  0  0  0  0  0  0  0  0
  149.8851  138.4333  155.4438 H   0  0  0  0  0  0  0  0  0  0  0  0
  151.9045  137.1264  154.7050 H   0  0  0  0  0  0  0  0  0  0  0  0
  152.2759  138.3850  153.5258 H   0  0  0  0  0  0  0  0  0  0  0  0
  150.7939  137.4488  153.3793 H   0  0  0  0  0  0  0  0  0  0  0  0
  150.0554  140.5490  156.7408 H   0  0  0  0  0  0  0  0  0  0  0  0
  150.8561  143.0691  157.4614 H   0  0  0  0  0  0  0  0  0  0  0  0
  153.2814  142.8056  160.9834 H   0  0  0  0  0  0  0  0  0  0  0  0
  1  2  1  0  0  0  0
  1 23  1  0  0  0  0
  1 24  1  0  0  0  0
  1 25  1  0  0  0  0
  2  3  1  0  0  0  0
  2  4  1  0  0  0  0
  2 26  1  0  0  0  0
  3 27  1  0  0  0  0
  3 28  1  0  0  0  0
  3 29  1  0  0  0  0
  4  5  1  0  0  0  0
  4 30  1  0  0  0  0
  4 31  1  0  0  0  0
  5  6  1  0  0  0  0
  6  7  1  0  0  0  0
  6  8  1  0  0  0  0
  6 32  1  0  0  0  0
  7 33  1  0  0  0  0
  7 34  1  0  0  0  0
  7 35  1  0  0  0  0
  8  9  2  0  0  0  0
  8 10  1  0  0  0  0
 10 11  1  0  0  0  0
 10 36  1  0  0  0  0
 11 20  1  0  0  0  0
 11 12  2  0  0  0  0
 12 13  1  0  0  0  0
 12 37  1  0  0  0  0
 13 14  1  0  0  0  0
 13 18  2  0  0  0  0
 14 15  1  0  0  0  0
 14 16  1  0  0  0  0
 14 17  1  0  0  0  0
 18 19  1  0  0  0  0
 18 38  1  0  0  0  0
 19 22  1  0  0  0  0
 19 20  1  0  0  0  0
 20 21  2  0  0  0  0
M  END
> <s_m_source_file>
AV-unprocessed.smi

> <i_m_source_file_index>
1634

> <i_lp_mmshare_version>
43012

> <i_f3d_flags>
0

> <s_epik_input>
W0NIM11bQ0hdKFtDSDNdKVtDSDJdT1tDQEhdKFtDSDNdKUMoPU8pW05IXWMxW2NIXWMoQyhGKShGKUYpW2NIXVtuSF1jMT1P

> <s_epik_cmdline>
J2VwaWtfcHl0aG9uJywgJy1waCcsICc3LjAnLCAnLXRuJywgJzgnLCAnLW1hJywgJzIwMCcsICctbWV0YWxfYmluZGluZycsICctaW1hZScsICc8aW5maWxlLm1hZT4nLCAnLW9tYWUnLCAnPG91dGZpbGUubWFlPic=

> <r_lp_tautomer_probability>
0.999

> <r_epik_Ionization_Penalty>
0.00884964

> <r_epik_Ionization_Penalty_Charging>
0.00884955

> <r_epik_Ionization_Penalty_Neutral>
9.33956e-08

> <r_epik_State_Penalty>
0.00669049

> <r_epik_Charging_Adjusted_Penalty>
0.01554

> <i_epik_Tot_Q>
0

> <i_epik_Tot_abs_Q>
0

> <r_epik_Metal_State_Penalty>
0.320763

> <b_epik_Metal_Only>
0

> <s_lp_Force_Field>
OPLS_2005

> <r_lp_Energy>
19.8034

> <b_lp_Chiralities_Consistent>
1

> <s_lp_Variant>
AV-unprocessed.smi:1634-2

> <Gold.Version>
5.8.1

> <Gold.Id.Protein>
6NUR|6NUR_protein|mol2

> <Gold.PLP.Fitness>
51.8715

> <Gold.PLP.PLP>
-49.2739

> <Gold.PLP.part.hbond>
-2.0000

> <Gold.PLP.part.metal>
0.0000

> <Gold.PLP.part.buried>
-8.0034

> <Gold.PLP.part.nonpolar>
-40.1021

> <Gold.PLP.part.repulsive>
0.6552

> <Gold.PLP.ligand.clash>
0.7673

> <Gold.PLP.ligand.torsion>
1.3923

> <Gold.PLP.Chemscore.Hbond>
2.0000

> <Gold.PLP.Chemscore.CHOScore>
0.0000

> <Gold.PLP.Chemscore.Metal>
0.0000

> <Gold.Chemscore.Hbonds>
donor molecule, donor type, donor heavy atom, donor atom, acceptor molecule, acceptor atom, score
      P1  H  7989  7998       L1     5  1.00
      P1  H  7997  8009       L1     9  1.00

> <Gold.PLP.Chemscore.Internal.Correction>
0.1496

> <Gold.Rescore>
     Score         DG    S(hbond)    S(metal)    S(lipo)     H(rot)  DE(clash)    DE(int)     intcor
     13.96     -16.97       1.63        0.00      90.71       1.79       1.41       1.60       ----

> <Gold.Chemscore.Fitness>
13.9577

> <Gold.Chemscore.DG>
-16.9652

> <Gold.Chemscore.ZeroCoef>
-5.4800

> <Gold.Chemscore.Hbond>
1.6312

> <Gold.Chemscore.Metal>
0.0000

> <Gold.Chemscore.Lipo>
90.7052

> <Gold.Chemscore.Internal_Hbond>
0.0000

> <Gold.Chemscore.DEClash>
1.4114

> <Gold.Chemscore.DEInternal>
1.5960

> <Gold.Chemscore.Rot>
1.7873

> <Gold.Chemscore.Internal.Correction>
   9.000000E+99

> <Gold.Chemscore.Hbonds>
donor molecule, donor type, donor heavy atom, donor atom, acceptor molecule, acceptor atom, score
      P1  H  7989  7998       L1     5  0.59
      P1  H  7997  8009       L1     9  1.00

> <Gold.Chemscore.Hbond.Weighted>
-5.4481

> <Gold.Chemscore.Metal.Weighted>
-0.0000

> <Gold.Chemscore.Lipo.Weighted>
-10.6125

> <Gold.Chemscore.Internal_Hbond.Weighted>
0.0000

> <Gold.Chemscore.DEClash.Weighted>
1.4114

> <Gold.Chemscore.DEInternal.Weighted>
1.5960

> <Gold.Chemscore.Rot.Weighted>
4.5755

> <Gold.Chemscore.Internal.Correction.Weighted>
   9.000000E+99

> <Gold.Protein.RotatedTorsions>
[ 6907 6896 6895 6894 ] final -137.79 input  -60.11 | X-H torsion
[ 7974 7965 7964 7962 ] final  150.34 input  175.53 | X-H torsion
[ 8008 7997 7996 7995 ] final -162.85 input   59.86 | X-H torsion
[ 10167 10162 10161 10158 ] final   51.01 input  -65.29 | X-H torsion
[ 10718 10713 10712 10709 ] final  177.98 input   66.30 | X-H torsion
[ 10763 10752 10751 10750 ] final  -34.05 input  -60.55 | X-H torsion
[ 11005 11000 10999 10996 ] final  117.69 input  -57.11 | X-H torsion

> <Gold.Protein.ActiveResidues>
 VAL166  LYS551  ARG553  GLY616  TRP617  ASP618  TYR619  PRO620  LYS621  CYS622 
 ASP623  PHE694  ASN695  SER759  ASP760  ASP761  ALA762  ILE779  LEU786  VAL792 
 PHE793  MET794  SER795  GLU796  ALA797  LYS798  CYS799  TRP800  GLU811  SER814 

> <Gold.Protein.RotatedAtoms>
  151.0269  133.5825  159.2664 H   0  0  0  0  0  0  0  0  0  0  0  0  # atno 6907 bound_to 6896
  151.2921  135.0744  159.9218 H   0  0  0  0  0  0  0  0  0  0  0  0  # atno 6908 bound_to 6896
  152.5336  133.9966  159.7929 H   0  0  0  0  0  0  0  0  0  0  0  0  # atno 6909 bound_to 6896
  144.8371  139.6396  143.6033 H   0  0  0  0  0  0  0  0  0  0  0  0  # atno 7974 bound_to 7965
  155.8128  140.0908  157.1894 H   0  0  0  0  0  0  0  0  0  0  0  0  # atno 8008 bound_to 7997
  154.3979  140.1451  156.3467 H   0  0  0  0  0  0  0  0  0  0  0  0  # atno 8009 bound_to 7997
  155.8347  140.3441  155.5597 H   0  0  0  0  0  0  0  0  0  0  0  0  # atno 8010 bound_to 7997
  140.2664  144.3315  150.6303 H   0  0  0  0  0  0  0  0  0  0  0  0  # atno 10167 bound_to 10162
  156.8973  130.9867  151.3041 H   0  0  0  0  0  0  0  0  0  0  0  0  # atno 10718 bound_to 10713
  153.8403  135.6858  153.4804 H   0  0  0  0  0  0  0  0  0  0  0  0  # atno 10763 bound_to 10752
  153.1458  135.4638  154.9561 H   0  0  0  0  0  0  0  0  0  0  0  0  # atno 10764 bound_to 10752
  154.7848  135.3281  154.7857 H   0  0  0  0  0  0  0  0  0  0  0  0  # atno 10765 bound_to 10752
  139.9083  134.9613  156.7390 H   0  0  0  0  0  0  0  0  0  0  0  0  # atno 11005 bound_to 11000
  146.2669  139.6540  142.9323 LP  0  0  0  0  0  0  0  0  0  0  0  0  # atno 17320 bound_to 7965
  145.4771  141.0437  143.2666 LP  0  0  0  0  0  0  0  0  0  0  0  0  # atno 17321 bound_to 7965
  140.5925  143.2167  151.7226 LP  0  0  0  0  0  0  0  0  0  0  0  0  # atno 17342 bound_to 10162
  139.5001  144.3917  152.0272 LP  0  0  0  0  0  0  0  0  0  0  0  0  # atno 17343 bound_to 10162
  157.6048  130.8539  149.8857 LP  0  0  0  0  0  0  0  0  0  0  0  0  # atno 17370 bound_to 10713
  156.0599  130.3701  150.1005 LP  0  0  0  0  0  0  0  0  0  0  0  0  # atno 17371 bound_to 10713
  140.6865  133.9428  155.7941 LP  0  0  0  0  0  0  0  0  0  0  0  0  # atno 17394 bound_to 11000
  141.0473  134.0536  157.3828 LP  0  0  0  0  0  0  0  0  0  0  0  0  # atno 17395 bound_to 11000

$$$$
