AV-unprocessed.smi:2922|AV-procd|sdf|11201|dock3
  -GOLD-   2272016 93D 1   1.00000     0.00000
 Structure written by MMmdl.
 30 31  0  0  0  0  0  0  0  0  1 V2000
  149.1411  136.8068  154.4260 N   0  0  0  0  0  0  0  0  0  0  0  0
  149.0710  137.9937  155.0362 C   0  0  0  0  0  0  0  0  0  0  0  0
  148.7456  138.0971  156.2172 O   0  0  0  0  0  0  0  0  0  0  0  0
  149.3871  139.2448  154.1970 C   0  0  1  0  0  0  0  0  0  0  0  0
  148.2295  140.2613  154.1273 C   0  0  0  0  0  0  0  0  0  0  0  0
  148.8250  141.5393  154.6937 C   0  0  0  0  0  0  0  0  0  0  0  0
  149.9515  141.0224  155.5802 C   0  0  2  0  0  0  0  0  0  0  0  0
  151.0348  142.0690  155.8834 C   0  0  0  0  0  0  0  0  0  0  0  0
  150.5938  143.0383  156.8774 N   0  0  0  0  0  0  0  0  0  0  0  0
  151.1284  143.1568  158.1478 C   0  0  0  0  0  0  0  0  0  0  0  0
  151.9628  142.2034  158.5809 N   0  0  0  0  0  0  0  0  0  0  0  0
  152.4614  142.3414  159.8287 C   0  0  0  0  0  0  0  0  0  0  0  0
  152.1221  143.4424  160.6397 C   0  0  0  0  0  0  0  0  0  0  0  0
  152.7528  143.6237  162.2350 Cl  0  0  0  0  0  0  0  0  0  0  0  0
  151.2400  144.3875  160.0788 C   0  0  0  0  0  0  0  0  0  0  0  0
  150.7453  144.2396  158.8299 N   0  0  0  0  0  0  0  0  0  0  0  0
  150.4700  139.9656  154.7854 O   0  0  0  0  0  0  0  0  0  0  0  0
  148.9445  135.9620  154.9430 H   0  0  0  0  0  0  0  0  0  0  0  0
  149.3946  136.7619  153.4494 H   0  0  0  0  0  0  0  0  0  0  0  0
  149.6854  138.9261  153.1978 H   0  0  0  0  0  0  0  0  0  0  0  0
  147.8718  140.4044  153.1072 H   0  0  0  0  0  0  0  0  0  0  0  0
  147.3747  139.9560  154.7328 H   0  0  0  0  0  0  0  0  0  0  0  0
  149.2326  142.1469  153.8842 H   0  0  0  0  0  0  0  0  0  0  0  0
  148.0981  142.1427  155.2381 H   0  0  0  0  0  0  0  0  0  0  0  0
  149.5350  140.6186  156.5052 H   0  0  0  0  0  0  0  0  0  0  0  0
  151.9650  141.5908  156.1926 H   0  0  0  0  0  0  0  0  0  0  0  0
  151.2621  142.6244  154.9733 H   0  0  0  0  0  0  0  0  0  0  0  0
  149.7092  143.4978  156.7165 H   0  0  0  0  0  0  0  0  0  0  0  0
  153.1314  141.5702  160.1792 H   0  0  0  0  0  0  0  0  0  0  0  0
  150.9287  145.2616  160.6313 H   0  0  0  0  0  0  0  0  0  0  0  0
  1  2  1  0  0  0  0
  1 18  1  0  0  0  0
  1 19  1  0  0  0  0
  2  3  2  0  0  0  0
  2  4  1  0  0  0  0
  4 17  1  0  0  0  0
  4  5  1  0  0  0  0
  4 20  1  0  0  0  0
  5  6  1  0  0  0  0
  5 21  1  0  0  0  0
  5 22  1  0  0  0  0
  6  7  1  0  0  0  0
  6 23  1  0  0  0  0
  6 24  1  0  0  0  0
  7  8  1  0  0  0  0
  7 17  1  0  0  0  0
  7 25  1  0  0  0  0
  8  9  1  0  0  0  0
  8 26  1  0  0  0  0
  8 27  1  0  0  0  0
  9 10  1  0  0  0  0
  9 28  1  0  0  0  0
 10 16  1  0  0  0  0
 10 11  2  0  0  0  0
 11 12  1  0  0  0  0
 12 13  2  0  0  0  0
 12 29  1  0  0  0  0
 13 14  1  0  0  0  0
 13 15  1  0  0  0  0
 15 16  2  0  0  0  0
 15 30  1  0  0  0  0
M  END
> <s_m_source_file>
AV-unprocessed.smi

> <i_m_source_file_index>
2922

> <i_lp_mmshare_version>
43012

> <i_f3d_flags>
0

> <s_epik_input>
W05IMl1DKD1PKVtDQEBIXTFbQ0gyXVtDSDJdW0NASF0oTzEpW0NIMl1bTkhdYzJuW2NIXWMoQ2wpW2NIXW4y

> <s_epik_cmdline>
J2VwaWtfcHl0aG9uJywgJy1waCcsICc3LjAnLCAnLXRuJywgJzgnLCAnLW1hJywgJzIwMCcsICctbWV0YWxfYmluZGluZycsICctaW1hZScsICc8aW5maWxlLm1hZT4nLCAnLW9tYWUnLCAnPG91dGZpbGUubWFlPic=

> <r_lp_tautomer_probability>
1

> <r_epik_Ionization_Penalty>
6.13883e-06

> <r_epik_Ionization_Penalty_Charging>
0

> <r_epik_Ionization_Penalty_Neutral>
6.13883e-06

> <r_epik_State_Penalty>
-0

> <r_epik_Charging_Adjusted_Penalty>
0

> <i_epik_Tot_Q>
0

> <i_epik_Tot_abs_Q>
0

> <r_epik_Metal_State_Penalty>
-0

> <b_epik_Metal_Only>
0

> <s_lp_Force_Field>
OPLS_2005

> <r_lp_Energy>
9.79995

> <b_lp_Chiralities_Consistent>
1

> <s_lp_Variant>
AV-unprocessed.smi:2922-4

> <Gold.Version>
5.8.1

> <Gold.Id.Protein>
6NUR|6NUR_protein|mol2

> <Gold.PLP.Fitness>
40.3449

> <Gold.PLP.PLP>
-31.6213

> <Gold.PLP.part.hbond>
-3.0000

> <Gold.PLP.part.metal>
0.0000

> <Gold.PLP.part.buried>
-4.5320

> <Gold.PLP.part.nonpolar>
-23.7211

> <Gold.PLP.part.repulsive>
0.2354

> <Gold.PLP.ligand.clash>
0.0000

> <Gold.PLP.ligand.torsion>
0.1403

> <Gold.PLP.Chemscore.Hbond>
2.9920

> <Gold.PLP.Chemscore.CHOScore>
0.0000

> <Gold.PLP.Chemscore.Metal>
0.0000

> <Gold.Chemscore.Hbonds>
donor molecule, donor type, donor heavy atom, donor atom, acceptor molecule, acceptor atom, score
      L1  H     1    19       P1  7948  0.96
      L1  H     9    28       P1  8028  0.86
      P1  H  7989  7998       L1    17  1.00

> <Gold.PLP.Chemscore.Internal.Correction>
0.0281

> <Gold.Rescore>
     Score         DG    S(hbond)    S(metal)    S(lipo)     H(rot)  DE(clash)    DE(int)     intcor
     17.45     -18.09       2.42        0.00      80.51       1.91       0.55       0.09       ----

> <Gold.Chemscore.Fitness>
17.4540

> <Gold.Chemscore.DG>
-18.0948

> <Gold.Chemscore.ZeroCoef>
-5.4800

> <Gold.Chemscore.Hbond>
2.4240

> <Gold.Chemscore.Metal>
0.0000

> <Gold.Chemscore.Lipo>
80.5051

> <Gold.Chemscore.Internal_Hbond>
0.0000

> <Gold.Chemscore.DEClash>
0.5540

> <Gold.Chemscore.DEInternal>
0.0868

> <Gold.Chemscore.Rot>
1.9142

> <Gold.Chemscore.Internal.Correction>
   9.000000E+99

> <Gold.Chemscore.Hbonds>
donor molecule, donor type, donor heavy atom, donor atom, acceptor molecule, acceptor atom, score
      L1  H     1    19       P1  7948  0.84
      L1  H     9    28       P1  8028  0.85
      P1  H  7989  7998       L1    17  0.39

> <Gold.Chemscore.Hbond.Weighted>
-8.0960

> <Gold.Chemscore.Metal.Weighted>
-0.0000

> <Gold.Chemscore.Lipo.Weighted>
-9.4191

> <Gold.Chemscore.Internal_Hbond.Weighted>
0.0000

> <Gold.Chemscore.DEClash.Weighted>
0.5540

> <Gold.Chemscore.DEInternal.Weighted>
0.0868

> <Gold.Chemscore.Rot.Weighted>
4.9002

> <Gold.Chemscore.Internal.Correction.Weighted>
   9.000000E+99

> <Gold.Protein.RotatedTorsions>
[ 6907 6896 6895 6894 ] final   -7.05 input  -60.11 | X-H torsion
[ 7974 7965 7964 7962 ] final   36.39 input  175.53 | X-H torsion
[ 8008 7997 7996 7995 ] final  -56.88 input   59.86 | X-H torsion
[ 10167 10162 10161 10158 ] final   97.37 input  -65.29 | X-H torsion
[ 10718 10713 10712 10709 ] final   21.66 input   66.30 | X-H torsion
[ 10763 10752 10751 10750 ] final   61.10 input  -60.55 | X-H torsion
[ 11005 11000 10999 10996 ] final  160.54 input  -57.11 | X-H torsion

> <Gold.Protein.ActiveResidues>
 VAL166  LYS551  ARG553  GLY616  TRP617  ASP618  TYR619  PRO620  LYS621  CYS622 
 ASP623  PHE694  ASN695  SER759  ASP760  ASP761  ALA762  ILE779  LEU786  VAL792 
 PHE793  MET794  SER795  GLU796  ALA797  LYS798  CYS799  TRP800  GLU811  SER814 

> <Gold.Protein.RotatedAtoms>
  151.4557  135.1034  159.9710 H   0  0  0  0  0  0  0  0  0  0  0  0  # atno 6907 bound_to 6896
  152.4872  133.8399  159.7157 H   0  0  0  0  0  0  0  0  0  0  0  0  # atno 6908 bound_to 6896
  150.8991  133.7082  159.2911 H   0  0  0  0  0  0  0  0  0  0  0  0  # atno 6909 bound_to 6896
  146.1215  139.6024  142.9287 H   0  0  0  0  0  0  0  0  0  0  0  0  # atno 7974 bound_to 7965
  154.4246  140.1119  156.5708 H   0  0  0  0  0  0  0  0  0  0  0  0  # atno 8008 bound_to 7997
  155.6214  140.3495  155.4634 H   0  0  0  0  0  0  0  0  0  0  0  0  # atno 8009 bound_to 7997
  156.0021  140.1201  157.0526 H   0  0  0  0  0  0  0  0  0  0  0  0  # atno 8010 bound_to 7997
  139.7808  144.6889  151.0026 H   0  0  0  0  0  0  0  0  0  0  0  0  # atno 10167 bound_to 10162
  157.1415  130.6635  149.5982 H   0  0  0  0  0  0  0  0  0  0  0  0  # atno 10718 bound_to 10713
  152.9940  135.5512  154.5980 H   0  0  0  0  0  0  0  0  0  0  0  0  # atno 10763 bound_to 10752
  154.5328  135.2814  155.1167 H   0  0  0  0  0  0  0  0  0  0  0  0  # atno 10764 bound_to 10752
  154.2476  135.6405  153.5281 H   0  0  0  0  0  0  0  0  0  0  0  0  # atno 10765 bound_to 10752
  140.2069  134.8296  157.3079 H   0  0  0  0  0  0  0  0  0  0  0  0  # atno 11005 bound_to 11000
  145.5456  141.0417  143.2306 LP  0  0  0  0  0  0  0  0  0  0  0  0  # atno 17320 bound_to 7965
  144.7601  139.6977  143.7238 LP  0  0  0  0  0  0  0  0  0  0  0  0  # atno 17321 bound_to 7965
  140.7818  143.4486  151.0446 LP  0  0  0  0  0  0  0  0  0  0  0  0  # atno 17342 bound_to 10162
  139.8166  143.7877  152.3174 LP  0  0  0  0  0  0  0  0  0  0  0  0  # atno 17343 bound_to 10162
  155.9787  130.4776  150.6674 LP  0  0  0  0  0  0  0  0  0  0  0  0  # atno 17370 bound_to 10713
  157.4302  131.0848  151.1046 LP  0  0  0  0  0  0  0  0  0  0  0  0  # atno 17371 bound_to 10713
  140.1993  134.4275  155.7672 LP  0  0  0  0  0  0  0  0  0  0  0  0  # atno 17394 bound_to 11000
  141.2227  133.7064  156.8156 LP  0  0  0  0  0  0  0  0  0  0  0  0  # atno 17395 bound_to 11000

$$$$
