AV-unprocessed.smi:3249|AV-procd|sdf|12424|dock2
  -GOLD-   2272018313D 1   1.00000     0.00000
 Structure written by MMmdl.
 44 45  0  0  0  0  0  0  0  0  2 V2000
  146.2506  143.5023  154.1154 C   0  0  0  0  0  0  0  0  0  0  0  0
  146.9869  142.1937  154.1096 C   0  0  0  0  0  0  0  0  0  0  0  0
  148.2708  141.9098  154.6552 C   0  0  0  0  0  0  0  0  0  0  0  0
  148.6353  140.6501  154.4814 N   0  0  0  0  0  0  0  0  0  0  0  0
  147.5996  140.0836  153.8228 N   0  0  0  0  0  0  0  0  0  0  0  0
  147.6493  138.6756  153.4494 C   0  0  1  0  0  0  0  0  0  0  0  0
  147.7862  137.8024  154.7114 C   0  0  0  0  0  0  0  0  0  0  0  0
  146.4468  138.2646  152.5571 C   0  0  1  0  0  0  0  0  0  0  0  0
  146.5034  138.8791  151.1467 C   0  0  0  0  0  0  0  0  0  0  0  0
  146.3758  136.7913  152.4324 N   0  3  0  0  0  0  0  0  0  0  0  0
  145.2120  136.2863  151.6752 C   0  0  0  0  0  0  0  0  0  0  0  0
  145.1416  134.7541  151.7279 C   0  0  1  0  0  0  0  0  0  0  0  0
  143.7335  134.2324  151.3816 C   0  0  0  0  0  0  0  0  0  0  0  0
  143.7178  132.6998  151.3539 C   0  0  0  0  0  0  0  0  0  0  0  0
  144.8223  132.1890  150.4226 C   0  0  0  0  0  0  0  0  0  0  0  0
  146.1736  132.8142  150.8036 C   0  0  0  0  0  0  0  0  0  0  0  0
  146.0747  134.2354  150.7820 O   0  0  0  0  0  0  0  0  0  0  0  0
  146.5925  140.9958  153.5844 C   0  0  0  0  0  0  0  0  0  0  0  0
  146.9039  144.3341  154.3805 H   0  0  0  0  0  0  0  0  0  0  0  0
  145.4295  143.4975  154.8323 H   0  0  0  0  0  0  0  0  0  0  0  0
  145.8240  143.7293  153.1382 H   0  0  0  0  0  0  0  0  0  0  0  0
  148.9454  142.5787  155.1689 H   0  0  0  0  0  0  0  0  0  0  0  0
  148.5595  138.5440  152.8620 H   0  0  0  0  0  0  0  0  0  0  0  0
  147.9744  136.7591  154.4588 H   0  0  0  0  0  0  0  0  0  0  0  0
  146.8842  137.8386  155.3232 H   0  0  0  0  0  0  0  0  0  0  0  0
  148.6195  138.1379  155.3299 H   0  0  0  0  0  0  0  0  0  0  0  0
  145.5290  138.6260  153.0246 H   0  0  0  0  0  0  0  0  0  0  0  0
  146.4516  139.9676  151.1756 H   0  0  0  0  0  0  0  0  0  0  0  0
  145.6656  138.5376  150.5380 H   0  0  0  0  0  0  0  0  0  0  0  0
  147.4235  138.6031  150.6304 H   0  0  0  0  0  0  0  0  0  0  0  0
  147.2118  136.4724  151.9633 H   0  0  0  0  0  0  0  0  0  0  0  0
  144.3029  136.7103  152.1033 H   0  0  0  0  0  0  0  0  0  0  0  0
  145.2708  136.6287  150.6410 H   0  0  0  0  0  0  0  0  0  0  0  0
  145.4145  134.4191  152.7305 H   0  0  0  0  0  0  0  0  0  0  0  0
  143.0042  134.5978  152.1054 H   0  0  0  0  0  0  0  0  0  0  0  0
  143.4269  134.6170  150.4078 H   0  0  0  0  0  0  0  0  0  0  0  0
  143.8774  132.3122  152.3609 H   0  0  0  0  0  0  0  0  0  0  0  0
  142.7442  132.3341  151.0266 H   0  0  0  0  0  0  0  0  0  0  0  0
  144.8819  131.1012  150.4681 H   0  0  0  0  0  0  0  0  0  0  0  0
  144.5798  132.4463  149.3907 H   0  0  0  0  0  0  0  0  0  0  0  0
  146.4953  132.4762  151.7900 H   0  0  0  0  0  0  0  0  0  0  0  0
  146.9422  132.5040  150.0955 H   0  0  0  0  0  0  0  0  0  0  0  0
  145.6861  140.7207  153.0655 H   0  0  0  0  0  0  0  0  0  0  0  0
  146.3588  136.3927  153.3601 H   0  0  0  0  0  0  0  0  0  0  0  0
  1  2  1  0  0  0  0
  1 19  1  0  0  0  0
  1 20  1  0  0  0  0
  1 21  1  0  0  0  0
  2 18  2  0  0  0  0
  2  3  1  0  0  0  0
  3  4  2  0  0  0  0
  3 22  1  0  0  0  0
  4  5  1  0  0  0  0
  5  6  1  0  0  0  0
  5 18  1  0  0  0  0
  6  7  1  0  0  0  0
  6  8  1  0  0  0  0
  6 23  1  0  0  0  0
  7 24  1  0  0  0  0
  7 25  1  0  0  0  0
  7 26  1  0  0  0  0
  8  9  1  0  0  0  0
  8 10  1  0  0  0  0
  8 27  1  0  0  0  0
  9 28  1  0  0  0  0
  9 29  1  0  0  0  0
  9 30  1  0  0  0  0
 10 11  1  0  0  0  0
 10 31  1  0  0  0  0
 10 44  1  0  0  0  0
 11 12  1  0  0  0  0
 11 32  1  0  0  0  0
 11 33  1  0  0  0  0
 12 17  1  0  0  0  0
 12 13  1  0  0  0  0
 12 34  1  0  0  0  0
 13 14  1  0  0  0  0
 13 35  1  0  0  0  0
 13 36  1  0  0  0  0
 14 15  1  0  0  0  0
 14 37  1  0  0  0  0
 14 38  1  0  0  0  0
 15 16  1  0  0  0  0
 15 39  1  0  0  0  0
 15 40  1  0  0  0  0
 16 17  1  0  0  0  0
 16 41  1  0  0  0  0
 16 42  1  0  0  0  0
 18 43  1  0  0  0  0
M  CHG  1  10   1
M  END
> <s_m_source_file>
AV-unprocessed.smi

> <i_m_source_file_index>
3249

> <i_lp_mmshare_version>
43012

> <i_f3d_flags>
0

> <s_epik_input>
W0NIM11jMVtjSF1ubihbY0hdMSlbQ0BIXShbQ0gzXSlbQ0BIXShbQ0gzXSlbTkhdW0NIMl1bQ0BASF0yW0NIMl1bQ0gyXVtDSDJdW0NIMl1PMg==

> <s_epik_cmdline>
J2VwaWtfcHl0aG9uJywgJy1waCcsICc3LjAnLCAnLXRuJywgJzgnLCAnLW1hJywgJzIwMCcsICctbWV0YWxfYmluZGluZycsICctaW1hZScsICc8aW5maWxlLm1hZT4nLCAnLW9tYWUnLCAnPG91dGZpbGUubWFlPic=

> <r_lp_tautomer_probability>
1

> <r_epik_Ionization_Penalty>
0.00659207

> <r_epik_Ionization_Penalty_Charging>
0.00656881

> <r_epik_Ionization_Penalty_Neutral>
2.32662e-05

> <r_epik_State_Penalty>
0.0048654

> <r_epik_Charging_Adjusted_Penalty>
0.0114342

> <i_epik_Tot_Q>
1

> <i_epik_Tot_abs_Q>
1

> <r_epik_Metal_State_Penalty>
-0

> <b_epik_Metal_Only>
0

> <s_lp_Force_Field>
OPLS_2005

> <r_lp_Energy>
18.7987

> <b_lp_Chiralities_Consistent>
1

> <s_lp_Variant>
AV-unprocessed.smi:3249-8

> <Gold.Version>
5.8.1

> <Gold.Id.Protein>
6NUR|6NUR_protein|mol2

> <Gold.PLP.Fitness>
44.7406

> <Gold.PLP.PLP>
-33.4771

> <Gold.PLP.part.hbond>
-1.0000

> <Gold.PLP.part.metal>
0.0000

> <Gold.PLP.part.buried>
1.7257

> <Gold.PLP.part.nonpolar>
-33.6927

> <Gold.PLP.part.repulsive>
0.3557

> <Gold.PLP.ligand.clash>
0.0000

> <Gold.PLP.ligand.torsion>
0.4129

> <Gold.PLP.Chemscore.Hbond>
2.0000

> <Gold.PLP.Chemscore.CHOScore>
2.0000

> <Gold.PLP.Chemscore.Metal>
0.0000

> <Gold.Chemscore.Hbonds>
donor molecule, donor type, donor heavy atom, donor atom, acceptor molecule, acceptor atom, score
      L1  H    10    31       P1  7948  2.00
      L1  C     3    22       P1  8028  1.00
      L1  C    18    43       P1 10175  1.00

> <Gold.PLP.Chemscore.Internal.Correction>
0.0893

> <Gold.Rescore>
     Score         DG    S(hbond)    S(metal)    S(lipo)     H(rot)  DE(clash)    DE(int)     intcor
     15.28     -16.27       1.00        0.00      97.35       1.53       0.59       0.41       ----

> <Gold.Chemscore.Fitness>
15.2760

> <Gold.Chemscore.DG>
-16.2733

> <Gold.Chemscore.ZeroCoef>
-5.4800

> <Gold.Chemscore.Hbond>
0.9965

> <Gold.Chemscore.Metal>
0.0000

> <Gold.Chemscore.Lipo>
97.3511

> <Gold.Chemscore.Internal_Hbond>
0.0000

> <Gold.Chemscore.DEClash>
0.5877

> <Gold.Chemscore.DEInternal>
0.4097

> <Gold.Chemscore.Rot>
1.5333

> <Gold.Chemscore.Internal.Correction>
   9.000000E+99

> <Gold.Chemscore.Hbonds>
donor molecule, donor type, donor heavy atom, donor atom, acceptor molecule, acceptor atom, score
      L1  H    10    31       P1  7948  0.98

> <Gold.Chemscore.Hbond.Weighted>
-3.3284

> <Gold.Chemscore.Metal.Weighted>
-0.0000

> <Gold.Chemscore.Lipo.Weighted>
-11.3901

> <Gold.Chemscore.Internal_Hbond.Weighted>
0.0000

> <Gold.Chemscore.DEClash.Weighted>
0.5877

> <Gold.Chemscore.DEInternal.Weighted>
0.4097

> <Gold.Chemscore.Rot.Weighted>
3.9252

> <Gold.Chemscore.Internal.Correction.Weighted>
   9.000000E+99

> <Gold.Protein.RotatedTorsions>
[ 6907 6896 6895 6894 ] final  100.51 input  -60.11 | X-H torsion
[ 7974 7965 7964 7962 ] final  -61.32 input  175.53 | X-H torsion
[ 8008 7997 7996 7995 ] final  121.49 input   59.86 | X-H torsion
[ 10167 10162 10161 10158 ] final  104.76 input  -65.29 | X-H torsion
[ 10718 10713 10712 10709 ] final  -27.44 input   66.30 | X-H torsion
[ 10763 10752 10751 10750 ] final -125.66 input  -60.55 | X-H torsion
[ 11005 11000 10999 10996 ] final -105.03 input  -57.11 | X-H torsion

> <Gold.Protein.ActiveResidues>
 VAL166  LYS551  ARG553  GLY616  TRP617  ASP618  TYR619  PRO620  LYS621  CYS622 
 ASP623  PHE694  ASN695  SER759  ASP760  ASP761  ALA762  ILE779  LEU786  VAL792 
 PHE793  MET794  SER795  GLU796  ALA797  LYS798  CYS799  TRP800  GLU811  SER814 

> <Gold.Protein.RotatedAtoms>
  152.5370  134.0266  159.8005 H   0  0  0  0  0  0  0  0  0  0  0  0  # atno 6907 bound_to 6896
  151.0444  133.5671  159.2655 H   0  0  0  0  0  0  0  0  0  0  0  0  # atno 6908 bound_to 6896
  151.2628  135.0667  159.9158 H   0  0  0  0  0  0  0  0  0  0  0  0  # atno 6909 bound_to 6896
  145.8049  140.8633  143.0212 H   0  0  0  0  0  0  0  0  0  0  0  0  # atno 7974 bound_to 7965
  156.2688  140.2807  156.1316 H   0  0  0  0  0  0  0  0  0  0  0  0  # atno 8008 bound_to 7997
  155.1048  140.0390  157.2725 H   0  0  0  0  0  0  0  0  0  0  0  0  # atno 8009 bound_to 7997
  154.6788  140.2604  155.6936 H   0  0  0  0  0  0  0  0  0  0  0  0  # atno 8010 bound_to 7997
  139.7150  144.7070  151.0965 H   0  0  0  0  0  0  0  0  0  0  0  0  # atno 10167 bound_to 10162
  156.4382  130.4459  149.7071 H   0  0  0  0  0  0  0  0  0  0  0  0  # atno 10718 bound_to 10713
  154.8738  135.4022  154.3304 H   0  0  0  0  0  0  0  0  0  0  0  0  # atno 10763 bound_to 10752
  153.4119  135.7021  153.6359 H   0  0  0  0  0  0  0  0  0  0  0  0  # atno 10764 bound_to 10752
  153.5058  135.3718  155.2533 H   0  0  0  0  0  0  0  0  0  0  0  0  # atno 10765 bound_to 10752
  141.1072  133.8773  157.1684 H   0  0  0  0  0  0  0  0  0  0  0  0  # atno 11005 bound_to 11000
  144.6764  140.0311  143.7482 LP  0  0  0  0  0  0  0  0  0  0  0  0  # atno 17320 bound_to 7965
  145.9839  139.2962  143.1025 LP  0  0  0  0  0  0  0  0  0  0  0  0  # atno 17321 bound_to 7965
  140.7741  143.5242  150.9500 LP  0  0  0  0  0  0  0  0  0  0  0  0  # atno 17342 bound_to 10162
  139.8928  143.6932  152.3143 LP  0  0  0  0  0  0  0  0  0  0  0  0  # atno 17343 bound_to 10162
  156.3946  130.7644  151.2648 LP  0  0  0  0  0  0  0  0  0  0  0  0  # atno 17370 bound_to 10713
  157.7507  131.0258  150.3933 LP  0  0  0  0  0  0  0  0  0  0  0  0  # atno 17371 bound_to 10713
  139.9948  135.0051  157.0058 LP  0  0  0  0  0  0  0  0  0  0  0  0  # atno 17394 bound_to 11000
  140.4870  134.1232  155.7226 LP  0  0  0  0  0  0  0  0  0  0  0  0  # atno 17395 bound_to 11000

$$$$
