AV-unprocessed.smi:2001|AV-procd|sdf|8104|dock9
  -GOLD-   2272010333D 1   1.00000     0.00000
 Structure written by MMmdl.
 50 51  0  0  0  0  0  0  0  0  1 V2000
  144.2301  140.4001  158.6490 C   0  0  0  0  0  0  0  0  0  0  0  0
  145.4761  140.9013  158.1976 O   0  0  0  0  0  0  0  0  0  0  0  0
  145.3310  142.0068  157.3224 C   0  0  0  0  0  0  0  0  0  0  0  0
  146.6524  142.7888  157.2874 C   0  0  0  0  0  0  0  0  0  0  0  0
  147.5063  142.3554  156.1768 N   0  0  0  0  0  0  0  0  0  0  0  0
  148.6584  141.6967  156.5733 N   0  0  0  0  0  0  0  0  0  0  0  0
  149.4954  141.2608  155.6878 C   0  0  0  0  0  0  0  0  0  0  0  0
  150.7409  140.5400  156.0712 C   0  0  0  0  0  0  0  0  0  0  0  0
  151.5523  140.1519  155.2290 O   0  0  0  0  0  0  0  0  0  0  0  0
  150.9110  140.3424  157.3913 N   0  0  0  0  0  0  0  0  0  0  0  0
  152.0346  139.6375  157.9963 C   0  0  0  0  0  0  0  0  0  0  0  0
  152.9144  140.5849  158.8339 C   0  0  0  0  0  0  0  0  0  0  0  0
  152.2205  141.7594  159.3583 N   0  0  0  0  0  0  0  0  0  0  0  0
  152.2720  142.8992  158.4453 C   0  0  0  0  0  0  0  0  0  0  0  0
  151.5608  144.1464  159.0092 C   0  0  1  0  0  0  0  0  0  0  0  0
  150.0267  144.0363  158.9817 C   0  0  0  0  0  0  0  0  0  0  0  0
  152.0471  144.4473  160.3184 O   0  0  0  0  0  0  0  0  0  0  0  0
  152.0144  143.3620  161.2436 C   0  0  2  0  0  0  0  0  0  0  0  0
  152.6366  143.8380  162.5604 C   0  0  0  0  0  0  0  0  0  0  0  0
  152.7694  142.1606  160.6472 C   0  0  0  0  0  0  0  0  0  0  0  0
  149.2472  141.4568  154.2693 C   0  0  0  0  0  0  0  0  0  0  0  0
  148.1224  142.1068  153.8985 C   0  0  0  0  0  0  0  0  0  0  0  0
  147.1597  142.6102  154.8791 C   0  0  0  0  0  0  0  0  0  0  0  0
  146.1321  143.2107  154.5663 O   0  0  0  0  0  0  0  0  0  0  0  0
  144.3952  139.5543  159.3163 H   0  0  0  0  0  0  0  0  0  0  0  0
  143.6182  140.0552  157.8145 H   0  0  0  0  0  0  0  0  0  0  0  0
  143.6754  141.1605  159.2001 H   0  0  0  0  0  0  0  0  0  0  0  0
  145.0689  141.6565  156.3227 H   0  0  0  0  0  0  0  0  0  0  0  0
  144.5221  142.6522  157.6687 H   0  0  0  0  0  0  0  0  0  0  0  0
  146.4393  143.8556  157.1979 H   0  0  0  0  0  0  0  0  0  0  0  0
  147.1782  142.6775  158.2376 H   0  0  0  0  0  0  0  0  0  0  0  0
  150.2003  140.6931  158.0173 H   0  0  0  0  0  0  0  0  0  0  0  0
  151.6215  138.8435  158.6174 H   0  0  0  0  0  0  0  0  0  0  0  0
  152.6282  139.1512  157.2205 H   0  0  0  0  0  0  0  0  0  0  0  0
  153.3130  140.0157  159.6748 H   0  0  0  0  0  0  0  0  0  0  0  0
  153.7805  140.8968  158.2481 H   0  0  0  0  0  0  0  0  0  0  0  0
  153.3138  143.1508  158.2410 H   0  0  0  0  0  0  0  0  0  0  0  0
  151.8243  142.6431  157.4860 H   0  0  0  0  0  0  0  0  0  0  0  0
  151.8286  144.9967  158.3813 H   0  0  0  0  0  0  0  0  0  0  0  0
  149.6652  143.9190  157.9599 H   0  0  0  0  0  0  0  0  0  0  0  0
  149.5649  144.9336  159.3940 H   0  0  0  0  0  0  0  0  0  0  0  0
  149.6661  143.1819  159.5539 H   0  0  0  0  0  0  0  0  0  0  0  0
  150.9785  143.0816  161.4367 H   0  0  0  0  0  0  0  0  0  0  0  0
  152.6257  143.0447  163.3081 H   0  0  0  0  0  0  0  0  0  0  0  0
  152.0854  144.6857  162.9678 H   0  0  0  0  0  0  0  0  0  0  0  0
  153.6713  144.1504  162.4178 H   0  0  0  0  0  0  0  0  0  0  0  0
  152.7181  141.3246  161.3457 H   0  0  0  0  0  0  0  0  0  0  0  0
  153.8260  142.4098  160.5366 H   0  0  0  0  0  0  0  0  0  0  0  0
  149.9405  141.0961  153.5234 H   0  0  0  0  0  0  0  0  0  0  0  0
  147.9257  142.2606  152.8475 H   0  0  0  0  0  0  0  0  0  0  0  0
  1  2  1  0  0  0  0
  1 25  1  0  0  0  0
  1 26  1  0  0  0  0
  1 27  1  0  0  0  0
  2  3  1  0  0  0  0
  3  4  1  0  0  0  0
  3 28  1  0  0  0  0
  3 29  1  0  0  0  0
  4  5  1  0  0  0  0
  4 30  1  0  0  0  0
  4 31  1  0  0  0  0
  5 23  1  0  0  0  0
  5  6  1  0  0  0  0
  6  7  2  0  0  0  0
  7  8  1  0  0  0  0
  7 21  1  0  0  0  0
  8  9  2  0  0  0  0
  8 10  1  0  0  0  0
 10 11  1  0  0  0  0
 10 32  1  0  0  0  0
 11 12  1  0  0  0  0
 11 33  1  0  0  0  0
 11 34  1  0  0  0  0
 12 13  1  0  0  0  0
 12 35  1  0  0  0  0
 12 36  1  0  0  0  0
 13 20  1  0  0  0  0
 13 14  1  0  0  0  0
 14 15  1  0  0  0  0
 14 37  1  0  0  0  0
 14 38  1  0  0  0  0
 15 16  1  0  0  0  0
 15 17  1  0  0  0  0
 15 39  1  0  0  0  0
 16 40  1  0  0  0  0
 16 41  1  0  0  0  0
 16 42  1  0  0  0  0
 17 18  1  0  0  0  0
 18 19  1  0  0  0  0
 18 20  1  0  0  0  0
 18 43  1  0  0  0  0
 19 44  1  0  0  0  0
 19 45  1  0  0  0  0
 19 46  1  0  0  0  0
 20 47  1  0  0  0  0
 20 48  1  0  0  0  0
 21 22  2  0  0  0  0
 21 49  1  0  0  0  0
 22 23  1  0  0  0  0
 22 50  1  0  0  0  0
 23 24  2  0  0  0  0
M  END
> <s_m_source_file>
AV-unprocessed.smi

> <i_m_source_file_index>
2001

> <i_lp_mmshare_version>
43012

> <i_f3d_flags>
0

> <s_epik_input>
W0NIM11PW0NIMl1bQ0gyXW4xbmMoW2NIXVtjSF1jMT1PKUMoPU8pW05IXVtDSDJdW0NIMl1OMltDSDJdW0NAQEhdKFtDSDNdKU9bQ0BASF0oW0NIM10pW0NIMl0y

> <s_epik_cmdline>
J2VwaWtfcHl0aG9uJywgJy1waCcsICc3LjAnLCAnLXRuJywgJzgnLCAnLW1hJywgJzIwMCcsICctbWV0YWxfYmluZGluZycsICctaW1hZScsICc8aW5maWxlLm1hZT4nLCAnLW9tYWUnLCAnPG91dGZpbGUubWFlPic=

> <r_lp_tautomer_probability>
1

> <r_epik_Ionization_Penalty>
0.206669

> <r_epik_Ionization_Penalty_Charging>
5.55992e-09

> <r_epik_Ionization_Penalty_Neutral>
0.206669

> <r_epik_State_Penalty>
0.196651

> <r_epik_Charging_Adjusted_Penalty>
0.196651

> <i_epik_Tot_Q>
0

> <i_epik_Tot_abs_Q>
0

> <r_epik_Metal_State_Penalty>
0.198372

> <b_epik_Metal_Only>
0

> <s_lp_Force_Field>
OPLS_2005

> <r_lp_Energy>
41.2012

> <b_lp_Chiralities_Consistent>
1

> <s_lp_Variant>
AV-unprocessed.smi:2001-3

> <Gold.Version>
5.8.1

> <Gold.Id.Protein>
6NUR|6NUR_protein|mol2

> <Gold.PLP.Fitness>
41.2469

> <Gold.PLP.PLP>
-40.2343

> <Gold.PLP.part.hbond>
-2.0000

> <Gold.PLP.part.metal>
0.0000

> <Gold.PLP.part.buried>
-5.7932

> <Gold.PLP.part.nonpolar>
-32.4337

> <Gold.PLP.part.repulsive>
0.4468

> <Gold.PLP.ligand.clash>
0.0000

> <Gold.PLP.ligand.torsion>
1.0368

> <Gold.PLP.Chemscore.Hbond>
0.9920

> <Gold.PLP.Chemscore.CHOScore>
0.0000

> <Gold.PLP.Chemscore.Metal>
0.0000

> <Gold.Chemscore.Hbonds>
donor molecule, donor type, donor heavy atom, donor atom, acceptor molecule, acceptor atom, score
      P1  H  7989  7998       L1     9  0.99

> <Gold.PLP.Chemscore.Internal.Correction>
0.1103

> <Gold.Rescore>
     Score         DG    S(hbond)    S(metal)    S(lipo)     H(rot)  DE(clash)    DE(int)     intcor
     14.00     -14.97       1.00        0.00      96.47       2.00       0.01       0.96       ----

> <Gold.Chemscore.Fitness>
14.0049

> <Gold.Chemscore.DG>
-14.9750

> <Gold.Chemscore.ZeroCoef>
-5.4800

> <Gold.Chemscore.Hbond>
0.9978

> <Gold.Chemscore.Metal>
0.0000

> <Gold.Chemscore.Lipo>
96.4748

> <Gold.Chemscore.Internal_Hbond>
0.0000

> <Gold.Chemscore.DEClash>
0.0091

> <Gold.Chemscore.DEInternal>
0.9610

> <Gold.Chemscore.Rot>
2.0020

> <Gold.Chemscore.Internal.Correction>
   9.000000E+99

> <Gold.Chemscore.Hbonds>
donor molecule, donor type, donor heavy atom, donor atom, acceptor molecule, acceptor atom, score
      P1  H  7989  7998       L1     9  0.93

> <Gold.Chemscore.Hbond.Weighted>
-3.3326

> <Gold.Chemscore.Metal.Weighted>
-0.0000

> <Gold.Chemscore.Lipo.Weighted>
-11.2875

> <Gold.Chemscore.Internal_Hbond.Weighted>
0.0000

> <Gold.Chemscore.DEClash.Weighted>
0.0091

> <Gold.Chemscore.DEInternal.Weighted>
0.9610

> <Gold.Chemscore.Rot.Weighted>
5.1252

> <Gold.Chemscore.Internal.Correction.Weighted>
   9.000000E+99

> <Gold.Protein.RotatedTorsions>
[ 6907 6896 6895 6894 ] final -176.28 input  -60.11 | X-H torsion
[ 7974 7965 7964 7962 ] final -160.11 input  175.53 | X-H torsion
[ 8008 7997 7996 7995 ] final  120.02 input   59.86 | X-H torsion
[ 10167 10162 10161 10158 ] final  -71.10 input  -65.29 | X-H torsion
[ 10718 10713 10712 10709 ] final   18.97 input   66.30 | X-H torsion
[ 10763 10752 10751 10750 ] final  -18.28 input  -60.55 | X-H torsion
[ 11005 11000 10999 10996 ] final  105.96 input  -57.11 | X-H torsion

> <Gold.Protein.ActiveResidues>
 VAL166  LYS551  ARG553  GLY616  TRP617  ASP618  TYR619  PRO620  LYS621  CYS622 
 ASP623  PHE694  ASN695  SER759  ASP760  ASP761  ALA762  ILE779  LEU786  VAL792 
 PHE793  MET794  SER795  GLU796  ALA797  LYS798  CYS799  TRP800  GLU811  SER814 

> <Gold.Protein.RotatedAtoms>
  151.6023  133.3355  159.3049 H   0  0  0  0  0  0  0  0  0  0  0  0  # atno 6907 bound_to 6896
  150.8201  134.7408  159.6776 H   0  0  0  0  0  0  0  0  0  0  0  0  # atno 6908 bound_to 6896
  152.4295  134.5810  159.9999 H   0  0  0  0  0  0  0  0  0  0  0  0  # atno 6909 bound_to 6896
  144.7439  140.3588  143.6100 H   0  0  0  0  0  0  0  0  0  0  0  0  # atno 7974 bound_to 7965
  156.2623  140.2840  156.1084 H   0  0  0  0  0  0  0  0  0  0  0  0  # atno 8008 bound_to 7997
  155.1284  140.0393  157.2786 H   0  0  0  0  0  0  0  0  0  0  0  0  # atno 8009 bound_to 7997
  154.6618  140.2568  155.7107 H   0  0  0  0  0  0  0  0  0  0  0  0  # atno 8010 bound_to 7997
  140.5300  143.2322  151.7279 H   0  0  0  0  0  0  0  0  0  0  0  0  # atno 10167 bound_to 10162
  157.1039  130.6480  149.5879 H   0  0  0  0  0  0  0  0  0  0  0  0  # atno 10718 bound_to 10713
  153.5869  135.7003  153.5439 H   0  0  0  0  0  0  0  0  0  0  0  0  # atno 10763 bound_to 10752
  153.3212  135.4073  155.1418 H   0  0  0  0  0  0  0  0  0  0  0  0  # atno 10764 bound_to 10752
  154.8607  135.3696  154.5399 H   0  0  0  0  0  0  0  0  0  0  0  0  # atno 10765 bound_to 10752
  139.8808  134.9353  156.5594 H   0  0  0  0  0  0  0  0  0  0  0  0  # atno 11005 bound_to 11000
  145.7199  139.1707  143.2490 LP  0  0  0  0  0  0  0  0  0  0  0  0  # atno 17320 bound_to 7965
  146.1285  140.7217  142.9423 LP  0  0  0  0  0  0  0  0  0  0  0  0  # atno 17321 bound_to 7965
  139.4951  144.4128  152.0062 LP  0  0  0  0  0  0  0  0  0  0  0  0  # atno 17342 bound_to 10162
  140.3230  144.3406  150.6005 LP  0  0  0  0  0  0  0  0  0  0  0  0  # atno 17343 bound_to 10162
  155.9867  130.4902  150.7090 LP  0  0  0  0  0  0  0  0  0  0  0  0  # atno 17370 bound_to 10713
  157.4617  131.0884  151.0738 LP  0  0  0  0  0  0  0  0  0  0  0  0  # atno 17371 bound_to 10713
  140.8181  133.8375  155.8870 LP  0  0  0  0  0  0  0  0  0  0  0  0  # atno 17394 bound_to 11000
  140.9444  134.1859  157.4774 LP  0  0  0  0  0  0  0  0  0  0  0  0  # atno 17395 bound_to 11000

$$$$
