AV-unprocessed.smi:35|AV-procd|sdf|270|dock4
  -GOLD-   2262016 33D 1   1.00000     0.00000
 Structure written by MMmdl.
 28 29  0  0  0  0  0  0  0  0  2 V2000
  153.4347  142.5539  160.5105 O   0  0  0  0  0  0  0  0  0  0  0  0
  152.8684  141.8159  159.7062 C   0  0  0  0  0  0  0  0  0  0  0  0
  152.8321  140.4590  159.8443 N   0  5  0  0  0  0  0  0  0  0  0  0
  152.2020  139.6440  158.9482 C   0  0  0  0  0  0  0  0  0  0  0  0
  152.1760  138.4178  159.0554 O   0  0  0  0  0  0  0  0  0  0  0  0
  151.5505  140.2260  157.8259 N   0  0  0  0  0  0  0  0  0  0  0  0
  150.8427  139.3147  156.8392 C   0  0  1  0  0  0  0  0  0  0  0  0
  149.6549  139.9165  156.4082 O   0  0  0  0  0  0  0  0  0  0  0  0
  149.7916  140.3470  155.0586 C   0  0  2  0  0  0  0  0  0  0  0  0
  148.4178  140.5499  154.3952 C   0  0  0  0  0  0  0  0  0  0  0  0
  148.5711  141.1035  153.1053 O   0  0  0  0  0  0  0  0  0  0  0  0
  150.7156  139.2893  154.4431 C   0  0  2  0  0  0  0  0  0  0  0  0
  149.9981  138.1173  154.1013 O   0  0  0  0  0  0  0  0  0  0  0  0
  151.6892  139.0010  155.5786 C   0  0  1  0  0  0  0  0  0  0  0  0
  152.8372  139.8202  155.4388 O   0  0  0  0  0  0  0  0  0  0  0  0
  151.5727  141.6012  157.6586 C   0  0  0  0  0  0  0  0  0  0  0  0
  152.2003  142.3992  158.5460 C   0  0  0  0  0  0  0  0  0  0  0  0
  152.1533  144.3463  158.1805 Br  0  0  0  0  0  0  0  0  0  0  0  0
  150.5699  138.4245  157.4088 H   0  0  0  0  0  0  0  0  0  0  0  0
  150.3198  141.3020  155.0724 H   0  0  0  0  0  0  0  0  0  0  0  0
  147.8564  139.6175  154.3325 H   0  0  0  0  0  0  0  0  0  0  0  0
  147.8191  141.2391  154.9911 H   0  0  0  0  0  0  0  0  0  0  0  0
  148.6853  140.3978  152.4873 H   0  0  0  0  0  0  0  0  0  0  0  0
  151.2123  139.6551  153.5433 H   0  0  0  0  0  0  0  0  0  0  0  0
  149.1814  138.1199  154.5767 H   0  0  0  0  0  0  0  0  0  0  0  0
  152.0121  137.9591  155.6004 H   0  0  0  0  0  0  0  0  0  0  0  0
  153.0312  139.9023  154.5169 H   0  0  0  0  0  0  0  0  0  0  0  0
  151.0858  142.0574  156.8111 H   0  0  0  0  0  0  0  0  0  0  0  0
  1  2  2  0  0  0  0
  2 17  1  0  0  0  0
  2  3  1  0  0  0  0
  3  4  1  0  0  0  0
  4  5  2  0  0  0  0
  4  6  1  0  0  0  0
  6  7  1  0  0  0  0
  6 16  1  0  0  0  0
  7 14  1  0  0  0  0
  7  8  1  0  0  0  0
  7 19  1  0  0  0  0
  8  9  1  0  0  0  0
  9 10  1  0  0  0  0
  9 12  1  0  0  0  0
  9 20  1  0  0  0  0
 10 11  1  0  0  0  0
 10 21  1  0  0  0  0
 10 22  1  0  0  0  0
 11 23  1  0  0  0  0
 12 13  1  0  0  0  0
 12 14  1  0  0  0  0
 12 24  1  0  0  0  0
 13 25  1  0  0  0  0
 14 15  1  0  0  0  0
 14 26  1  0  0  0  0
 15 27  1  0  0  0  0
 16 17  2  0  0  0  0
 16 28  1  0  0  0  0
 17 18  1  0  0  0  0
M  CHG  1   3  -1
M  END
> <s_m_source_file>
AV-unprocessed.smi

> <i_m_source_file_index>
35

> <i_lp_mmshare_version>
43012

> <i_f3d_flags>
0

> <s_epik_input>
Tz1jMVtuSF1jKD1PKW4oW2NIXWMxQnIpW0NAQEhdMk9bQ0BASF0oW0NIMl1bT0hdKVtDQEBIXShbT0hdKVtDQEhdMltPSF0=

> <s_epik_cmdline>
J2VwaWtfcHl0aG9uJywgJy1waCcsICc3LjAnLCAnLXRuJywgJzgnLCAnLW1hJywgJzIwMCcsICctbWV0YWxfYmluZGluZycsICctaW1hZScsICc8aW5maWxlLm1hZT4nLCAnLW9tYWUnLCAnPG91dGZpbGUubWFlPic=

> <r_epik_Ionization_Penalty>
1.06112

> <r_epik_Ionization_Penalty_Charging>
2.1796e-09

> <r_epik_Ionization_Penalty_Neutral>
1.06112

> <r_epik_State_Penalty>
1.11484

> <r_epik_Charging_Adjusted_Penalty>
1.11484

> <i_epik_Tot_Q>
-1

> <i_epik_Tot_abs_Q>
1

> <r_epik_Metal_State_Penalty>
0.0032876

> <b_epik_Metal_Only>
0

> <s_epik_Chemistry_Notes>
This compound contains an acetal/aminal-like group ( X-CH(R)-Y where X, Y are N, S, or O) that may be acid/base labile, releasing an aldehyde.

> <s_lp_Force_Field>
OPLS_2005

> <r_lp_Energy>
42.6041

> <b_lp_Chiralities_Consistent>
1

> <s_lp_Variant>
AV-unprocessed.smi:35-24

> <Gold.Version>
5.8.1

> <Gold.Id.Protein>
6NUR|6NUR_protein|mol2

> <Gold.PLP.Fitness>
39.0094

> <Gold.PLP.PLP>
-31.9357

> <Gold.PLP.part.hbond>
-4.0714

> <Gold.PLP.part.metal>
0.0000

> <Gold.PLP.part.buried>
-2.6211

> <Gold.PLP.part.nonpolar>
-24.8549

> <Gold.PLP.part.repulsive>
0.0008

> <Gold.PLP.ligand.clash>
0.0000

> <Gold.PLP.ligand.torsion>
0.6358

> <Gold.PLP.Chemscore.Hbond>
2.7680

> <Gold.PLP.Chemscore.CHOScore>
0.0000

> <Gold.PLP.Chemscore.Metal>
0.0000

> <Gold.Chemscore.Hbonds>
donor molecule, donor type, donor heavy atom, donor atom, acceptor molecule, acceptor atom, score
      L1  H    11    23       P1  7957  0.77
      P1  H  7997  8010       L1    15  1.00
      P1  H  8011  8017       L1    11  0.95

> <Gold.PLP.Chemscore.Internal.Correction>
0.0411

> <Gold.Rescore>
     Score         DG    S(hbond)    S(metal)    S(lipo)     H(rot)  DE(clash)    DE(int)     intcor
      9.10     -10.17       2.03        0.00      61.41       3.63       0.41       0.65       ----

> <Gold.Chemscore.Fitness>
9.1045

> <Gold.Chemscore.DG>
-10.1694

> <Gold.Chemscore.ZeroCoef>
-5.4800

> <Gold.Chemscore.Hbond>
2.0322

> <Gold.Chemscore.Metal>
0.0000

> <Gold.Chemscore.Lipo>
61.4080

> <Gold.Chemscore.Internal_Hbond>
0.0000

> <Gold.Chemscore.DEClash>
0.4131

> <Gold.Chemscore.DEInternal>
0.6518

> <Gold.Chemscore.Rot>
3.6261

> <Gold.Chemscore.Internal.Correction>
   9.000000E+99

> <Gold.Chemscore.Hbonds>
donor molecule, donor type, donor heavy atom, donor atom, acceptor molecule, acceptor atom, score
      L1  H    11    23       P1  7957  0.77
      P1  H  7997  8010       L1    15  0.58
      P1  H  8011  8017       L1    11  0.20

> <Gold.Chemscore.Hbond.Weighted>
-6.7875

> <Gold.Chemscore.Metal.Weighted>
-0.0000

> <Gold.Chemscore.Lipo.Weighted>
-7.1847

> <Gold.Chemscore.Internal_Hbond.Weighted>
0.0000

> <Gold.Chemscore.DEClash.Weighted>
0.4131

> <Gold.Chemscore.DEInternal.Weighted>
0.6518

> <Gold.Chemscore.Rot.Weighted>
9.2828

> <Gold.Chemscore.Internal.Correction.Weighted>
   9.000000E+99

> <Gold.Protein.RotatedTorsions>
[ 6907 6896 6895 6894 ] final  136.14 input  -60.11 | X-H torsion
[ 7974 7965 7964 7962 ] final -113.23 input  175.53 | X-H torsion
[ 8008 7997 7996 7995 ] final   77.61 input   59.86 | X-H torsion
[ 10167 10162 10161 10158 ] final  -57.70 input  -65.29 | X-H torsion
[ 10718 10713 10712 10709 ] final -131.03 input   66.30 | X-H torsion
[ 10763 10752 10751 10750 ] final  141.18 input  -60.55 | X-H torsion
[ 11005 11000 10999 10996 ] final  162.32 input  -57.11 | X-H torsion

> <Gold.Protein.ActiveResidues>
 VAL166  LYS551  ARG553  GLY616  TRP617  ASP618  TYR619  PRO620  LYS621  CYS622 
 ASP623  PHE694  ASN695  SER759  ASP760  ASP761  ALA762  ILE779  LEU786  VAL792 
 PHE793  MET794  SER795  GLU796  ALA797  LYS798  CYS799  TRP800  GLU811  SER814 

> <Gold.Protein.RotatedAtoms>
  152.2926  133.5576  159.5566 H   0  0  0  0  0  0  0  0  0  0  0  0  # atno 6907 bound_to 6896
  150.7242  134.0406  159.3773 H   0  0  0  0  0  0  0  0  0  0  0  0  # atno 6908 bound_to 6896
  151.8311  135.0621  160.0488 H   0  0  0  0  0  0  0  0  0  0  0  0  # atno 6909 bound_to 6896
  145.1345  140.8743  143.3738 H   0  0  0  0  0  0  0  0  0  0  0  0  # atno 7974 bound_to 7965
  155.8440  140.3461  155.5650 H   0  0  0  0  0  0  0  0  0  0  0  0  # atno 8008 bound_to 7997
  155.8110  140.0899  157.1923 H   0  0  0  0  0  0  0  0  0  0  0  0  # atno 8009 bound_to 7997
  154.4006  140.1448  156.3374 H   0  0  0  0  0  0  0  0  0  0  0  0  # atno 8010 bound_to 7997
  140.6242  143.2431  151.5404 H   0  0  0  0  0  0  0  0  0  0  0  0  # atno 10167 bound_to 10162
  156.2203  130.6974  151.0749 H   0  0  0  0  0  0  0  0  0  0  0  0  # atno 10718 bound_to 10713
  153.9349  135.2986  155.3444 H   0  0  0  0  0  0  0  0  0  0  0  0  # atno 10763 bound_to 10752
  154.7507  135.4981  153.9287 H   0  0  0  0  0  0  0  0  0  0  0  0  # atno 10764 bound_to 10752
  153.1072  135.6750  153.9671 H   0  0  0  0  0  0  0  0  0  0  0  0  # atno 10765 bound_to 10752
  140.2246  134.8170  157.3255 H   0  0  0  0  0  0  0  0  0  0  0  0  # atno 11005 bound_to 11000
  145.0599  139.3114  143.5886 LP  0  0  0  0  0  0  0  0  0  0  0  0  # atno 17320 bound_to 7965
  146.3511  140.0037  142.8673 LP  0  0  0  0  0  0  0  0  0  0  0  0  # atno 17321 bound_to 7965
  139.5465  144.2507  152.1452 LP  0  0  0  0  0  0  0  0  0  0  0  0  # atno 17342 bound_to 10162
  140.1734  144.4914  150.6567 LP  0  0  0  0  0  0  0  0  0  0  0  0  # atno 17343 bound_to 10162
  157.7084  131.0746  150.6586 LP  0  0  0  0  0  0  0  0  0  0  0  0  # atno 17370 bound_to 10713
  156.6649  130.4523  149.5675 LP  0  0  0  0  0  0  0  0  0  0  0  0  # atno 17371 bound_to 10713
  140.1814  134.4485  155.7770 LP  0  0  0  0  0  0  0  0  0  0  0  0  # atno 17394 bound_to 11000
  141.2221  133.6985  156.7874 LP  0  0  0  0  0  0  0  0  0  0  0  0  # atno 17395 bound_to 11000

$$$$
