AV-unprocessed.smi:3150|AV-procd|sdf|12013|dock4
  -GOLD-   2272017423D 1   1.00000     0.00000
 Structure written by MMmdl.
 32 33  0  0  0  0  0  0  0  0  2 V2000
  152.3531  139.5717  154.9941 C   0  0  0  0  0  0  0  0  0  0  0  0
  151.0488  140.0249  155.6663 C   0  0  2  0  0  0  0  0  0  0  0  0
  150.2226  140.6006  154.6569 O   0  0  0  0  0  0  0  0  0  0  0  0
  149.3451  139.6952  153.9985 C   0  0  0  0  0  0  0  0  0  0  0  0
  147.9702  140.3230  153.9189 C   0  0  0  0  0  0  0  0  0  0  0  0
  147.7836  141.8067  154.1419 C   0  0  0  0  0  0  0  0  0  0  0  0
  147.2870  140.8238  155.1712 C   0  0  0  0  0  0  0  0  0  0  0  0
  151.3229  141.0436  156.7846 C   0  0  0  0  0  0  0  0  0  0  0  0
  150.9488  142.2098  156.6523 O   0  0  0  0  0  0  0  0  0  0  0  0
  151.9596  140.5593  157.8667 N   0  0  0  0  0  0  0  0  0  0  0  0
  152.3559  141.2431  159.0491 C   0  0  0  0  0  0  0  0  0  0  0  0
  151.5701  142.1593  159.6692 N   0  0  0  0  0  0  0  0  0  0  0  0
  152.0192  142.7675  160.7862 C   0  0  0  0  0  0  0  0  0  0  0  0
  153.2771  142.5030  161.3556 C   0  0  0  0  0  0  0  0  0  0  0  0
  154.1020  141.5556  160.7256 C   0  0  0  0  0  0  0  0  0  0  0  0
  153.6402  140.9146  159.5584 C   0  0  0  0  0  0  0  0  0  0  0  0
  154.4441  139.9917  158.9456 O   0  5  0  0  0  0  0  0  0  0  0  0
  153.0377  139.1279  155.7179 H   0  0  0  0  0  0  0  0  0  0  0  0
  152.8668  140.4040  154.5116 H   0  0  0  0  0  0  0  0  0  0  0  0
  152.1521  138.8214  154.2292 H   0  0  0  0  0  0  0  0  0  0  0  0
  150.5525  139.1440  156.0786 H   0  0  0  0  0  0  0  0  0  0  0  0
  149.6975  139.4942  152.9859 H   0  0  0  0  0  0  0  0  0  0  0  0
  149.2814  138.7427  154.5262 H   0  0  0  0  0  0  0  0  0  0  0  0
  147.3186  139.8611  153.1794 H   0  0  0  0  0  0  0  0  0  0  0  0
  148.6633  142.3965  154.3929 H   0  0  0  0  0  0  0  0  0  0  0  0
  147.0403  142.3155  153.5314 H   0  0  0  0  0  0  0  0  0  0  0  0
  146.2119  140.6758  155.2488 H   0  0  0  0  0  0  0  0  0  0  0  0
  147.8354  140.7599  156.1090 H   0  0  0  0  0  0  0  0  0  0  0  0
  152.2021  139.5791  157.8462 H   0  0  0  0  0  0  0  0  0  0  0  0
  151.3543  143.4876  161.2399 H   0  0  0  0  0  0  0  0  0  0  0  0
  153.6002  143.0122  162.2511 H   0  0  0  0  0  0  0  0  0  0  0  0
  155.0756  141.3255  161.1335 H   0  0  0  0  0  0  0  0  0  0  0  0
  1  2  1  0  0  0  0
  1 18  1  0  0  0  0
  1 19  1  0  0  0  0
  1 20  1  0  0  0  0
  2  3  1  0  0  0  0
  2  8  1  0  0  0  0
  2 21  1  0  0  0  0
  3  4  1  0  0  0  0
  4  5  1  0  0  0  0
  4 22  1  0  0  0  0
  4 23  1  0  0  0  0
  5  7  1  0  0  0  0
  5  6  1  0  0  0  0
  5 24  1  0  0  0  0
  6  7  1  0  0  0  0
  6 25  1  0  0  0  0
  6 26  1  0  0  0  0
  7 27  1  0  0  0  0
  7 28  1  0  0  0  0
  8  9  2  0  0  0  0
  8 10  1  0  0  0  0
 10 29  1  0  0  0  0
 10 11  1  0  0  0  0
 11 16  2  0  0  0  0
 11 12  1  0  0  0  0
 12 13  2  0  0  0  0
 13 30  1  0  0  0  0
 13 14  1  0  0  0  0
 14 31  1  0  0  0  0
 14 15  2  0  0  0  0
 15 16  1  0  0  0  0
 15 32  1  0  0  0  0
 16 17  1  0  0  0  0
M  CHG  1  17  -1
M  END
> <s_m_source_file>
AV-unprocessed.smi

> <i_m_source_file_index>
3150

> <i_lp_mmshare_version>
43012

> <i_f3d_flags>
0

> <s_epik_input>
W0NIMl0xW0NIMl1bQ0hdMVtDSDJdT1tDQEBIXShbQ0gzXSlDKD1PKVtOSF1jMm5bY0hdW2NIXVtjSF1jMltPSF0=

> <s_epik_cmdline>
J2VwaWtfcHl0aG9uJywgJy1waCcsICc3LjAnLCAnLXRuJywgJzgnLCAnLW1hJywgJzIwMCcsICctbWV0YWxfYmluZGluZycsICctaW1hZScsICc8aW5maWxlLm1hZT4nLCAnLW9tYWUnLCAnPG91dGZpbGUubWFlPic=

> <r_epik_Ionization_Penalty>
4.12024

> <r_epik_Ionization_Penalty_Charging>
2.08551

> <r_epik_Ionization_Penalty_Neutral>
2.03473

> <r_epik_State_Penalty>
2.65726

> <r_epik_Charging_Adjusted_Penalty>
4.74277

> <i_epik_Tot_Q>
-1

> <i_epik_Tot_abs_Q>
1

> <r_epik_Metal_State_Penalty>
0.600747

> <b_epik_Metal_Only>
0

> <s_lp_Force_Field>
OPLS_2005

> <r_lp_Energy>
13.9624

> <b_lp_Chiralities_Consistent>
1

> <s_lp_Variant>
AV-unprocessed.smi:3150-7

> <Gold.Version>
5.8.1

> <Gold.Id.Protein>
6NUR|6NUR_protein|mol2

> <Gold.PLP.Fitness>
41.0644

> <Gold.PLP.PLP>
-34.6521

> <Gold.PLP.part.hbond>
-2.0000

> <Gold.PLP.part.metal>
0.0000

> <Gold.PLP.part.buried>
-2.0662

> <Gold.PLP.part.nonpolar>
-29.2312

> <Gold.PLP.part.repulsive>
0.2596

> <Gold.PLP.ligand.clash>
0.0000

> <Gold.PLP.ligand.torsion>
1.4800

> <Gold.PLP.Chemscore.Hbond>
2.9280

> <Gold.PLP.Chemscore.CHOScore>
0.0000

> <Gold.PLP.Chemscore.Metal>
0.0000

> <Gold.Chemscore.Hbonds>
donor molecule, donor type, donor heavy atom, donor atom, acceptor molecule, acceptor atom, score
      P1  H  7989  7998       L1     3  0.63
      P1  H  7997  8009       L1    17  1.82

> <Gold.PLP.Chemscore.Internal.Correction>
0.5883

> <Gold.Rescore>
     Score         DG    S(hbond)    S(metal)    S(lipo)     H(rot)  DE(clash)    DE(int)     intcor
     13.29     -15.32       1.35        0.00      81.52       1.64       0.43       1.60       ----

> <Gold.Chemscore.Fitness>
13.2884

> <Gold.Chemscore.DG>
-15.3201

> <Gold.Chemscore.ZeroCoef>
-5.4800

> <Gold.Chemscore.Hbond>
1.3463

> <Gold.Chemscore.Metal>
0.0000

> <Gold.Chemscore.Lipo>
81.5244

> <Gold.Chemscore.Internal_Hbond>
0.0000

> <Gold.Chemscore.DEClash>
0.4297

> <Gold.Chemscore.DEInternal>
1.6019

> <Gold.Chemscore.Rot>
1.6387

> <Gold.Chemscore.Internal.Correction>
   9.000000E+99

> <Gold.Chemscore.Hbonds>
donor molecule, donor type, donor heavy atom, donor atom, acceptor molecule, acceptor atom, score
      P1  H  7989  7998       L1     3  0.04
      P1  H  7997  8009       L1    17  0.89

> <Gold.Chemscore.Hbond.Weighted>
-4.4968

> <Gold.Chemscore.Metal.Weighted>
-0.0000

> <Gold.Chemscore.Lipo.Weighted>
-9.5384

> <Gold.Chemscore.Internal_Hbond.Weighted>
0.0000

> <Gold.Chemscore.DEClash.Weighted>
0.4297

> <Gold.Chemscore.DEInternal.Weighted>
1.6019

> <Gold.Chemscore.Rot.Weighted>
4.1950

> <Gold.Chemscore.Internal.Correction.Weighted>
   9.000000E+99

> <Gold.Protein.RotatedTorsions>
[ 6907 6896 6895 6894 ] final   99.48 input  -60.11 | X-H torsion
[ 7974 7965 7964 7962 ] final  -36.64 input  175.53 | X-H torsion
[ 8008 7997 7996 7995 ] final  139.71 input   59.86 | X-H torsion
[ 10167 10162 10161 10158 ] final   97.23 input  -65.29 | X-H torsion
[ 10718 10713 10712 10709 ] final -100.02 input   66.30 | X-H torsion
[ 10763 10752 10751 10750 ] final    7.35 input  -60.55 | X-H torsion
[ 11005 11000 10999 10996 ] final  -93.02 input  -57.11 | X-H torsion

> <Gold.Protein.ActiveResidues>
 VAL166  LYS551  ARG553  GLY616  TRP617  ASP618  TYR619  PRO620  LYS621  CYS622 
 ASP623  PHE694  ASN695  SER759  ASP760  ASP761  ALA762  ILE779  LEU786  VAL792 
 PHE793  MET794  SER795  GLU796  ALA797  LYS798  CYS799  TRP800  GLU811  SER814 

> <Gold.Protein.RotatedAtoms>
  152.5391  134.0422  159.8072 H   0  0  0  0  0  0  0  0  0  0  0  0  # atno 6907 bound_to 6896
  151.0576  133.5563  159.2644 H   0  0  0  0  0  0  0  0  0  0  0  0  # atno 6908 bound_to 6896
  151.2474  135.0618  159.9102 H   0  0  0  0  0  0  0  0  0  0  0  0  # atno 6909 bound_to 6896
  146.0644  140.6303  142.8982 H   0  0  0  0  0  0  0  0  0  0  0  0  # atno 7974 bound_to 7965
  156.2987  140.2360  156.4281 H   0  0  0  0  0  0  0  0  0  0  0  0  # atno 8008 bound_to 7997
  154.8295  140.0433  157.1487 H   0  0  0  0  0  0  0  0  0  0  0  0  # atno 8009 bound_to 7997
  154.9224  140.3005  155.5213 H   0  0  0  0  0  0  0  0  0  0  0  0  # atno 8010 bound_to 7997
  139.7821  144.6884  151.0009 H   0  0  0  0  0  0  0  0  0  0  0  0  # atno 10167 bound_to 10162
  156.0151  130.5309  150.6755 H   0  0  0  0  0  0  0  0  0  0  0  0  # atno 10718 bound_to 10713
  153.2373  135.6899  153.7823 H   0  0  0  0  0  0  0  0  0  0  0  0  # atno 10763 bound_to 10752
  153.6965  135.3304  155.3215 H   0  0  0  0  0  0  0  0  0  0  0  0  # atno 10764 bound_to 10752
  154.8340  135.4557  154.1281 H   0  0  0  0  0  0  0  0  0  0  0  0  # atno 10765 bound_to 10752
  141.1507  133.7859  157.0101 H   0  0  0  0  0  0  0  0  0  0  0  0  # atno 11005 bound_to 11000
  144.7193  140.4320  143.7020 LP  0  0  0  0  0  0  0  0  0  0  0  0  # atno 17320 bound_to 7965
  145.6504  139.1564  143.2865 LP  0  0  0  0  0  0  0  0  0  0  0  0  # atno 17321 bound_to 7965
  140.7818  143.4472  151.0465 LP  0  0  0  0  0  0  0  0  0  0  0  0  # atno 17342 bound_to 10162
  139.8152  143.7895  152.3174 LP  0  0  0  0  0  0  0  0  0  0  0  0  # atno 17343 bound_to 10162
  157.4469  131.0868  151.0886 LP  0  0  0  0  0  0  0  0  0  0  0  0  # atno 17370 bound_to 10713
  157.1414  130.6144  149.5556 LP  0  0  0  0  0  0  0  0  0  0  0  0  # atno 17371 bound_to 10713
  140.0883  134.9607  157.1735 LP  0  0  0  0  0  0  0  0  0  0  0  0  # atno 17394 bound_to 11000
  140.3481  134.2629  155.7202 LP  0  0  0  0  0  0  0  0  0  0  0  0  # atno 17395 bound_to 11000

$$$$
