AV-unprocessed.smi:2407|AV-procd|sdf|9519|dock9
  -GOLD-   2272013153D 1   1.00000     0.00000
 Structure written by MMmdl.
 38 39  0  0  0  0  0  0  0  0  1 V2000
  146.7749  139.2401  151.6106 C   0  0  0  0  0  0  0  0  0  0  0  0
  147.0685  139.2615  153.0817 C   0  0  0  0  0  0  0  0  0  0  0  0
  146.0680  138.9556  154.0866 C   0  0  0  0  0  0  0  0  0  0  0  0
  146.4059  139.0026  155.3931 C   0  0  0  0  0  0  0  0  0  0  0  0
  147.7569  139.3552  155.8244 C   0  0  0  0  0  0  0  0  0  0  0  0
  148.0928  139.4251  157.0065 O   0  0  0  0  0  0  0  0  0  0  0  0
  148.6130  139.6096  154.7920 N   0  0  0  0  0  0  0  0  0  0  0  0
  150.0061  139.9921  155.0454 C   0  0  0  0  0  0  0  0  0  0  0  0
  150.1213  141.4749  155.4742 C   0  0  1  0  0  0  0  0  0  0  0  0
  149.1919  142.2430  154.7368 O   0  0  0  0  0  0  0  0  0  0  0  0
  149.8251  141.6908  156.9657 C   0  0  0  0  0  0  0  0  0  0  0  0
  150.8605  142.4891  157.5232 O   0  0  0  0  0  0  0  0  0  0  0  0
  151.6755  141.9377  158.4901 C   0  0  0  0  0  0  0  0  0  0  0  0
  151.9892  140.5557  158.5528 C   0  0  0  0  0  0  0  0  0  0  0  0
  152.8255  140.0561  159.5682 C   0  0  0  0  0  0  0  0  0  0  0  0
  153.3602  140.9278  160.5319 C   0  0  0  0  0  0  0  0  0  0  0  0
  153.0586  142.3004  160.4788 C   0  0  0  0  0  0  0  0  0  0  0  0
  152.2184  142.8124  159.4641 C   0  0  0  0  0  0  0  0  0  0  0  0
  151.9079  144.3046  159.4052 C   0  0  0  0  0  0  0  0  0  0  0  0
  152.2949  144.9399  160.5121 F   0  0  0  0  0  0  0  0  0  0  0  0
  152.5474  144.8467  158.3694 F   0  0  0  0  0  0  0  0  0  0  0  0
  150.5968  144.4970  159.2560 F   0  0  0  0  0  0  0  0  0  0  0  0
  148.2684  139.5691  153.4517 N   0  0  0  0  0  0  0  0  0  0  0  0
  145.8143  138.7665  151.4075 H   0  0  0  0  0  0  0  0  0  0  0  0
  147.5402  138.6860  151.0660 H   0  0  0  0  0  0  0  0  0  0  0  0
  146.7401  140.2528  151.2086 H   0  0  0  0  0  0  0  0  0  0  0  0
  145.0647  138.6947  153.7834 H   0  0  0  0  0  0  0  0  0  0  0  0
  145.6598  138.7751  156.1402 H   0  0  0  0  0  0  0  0  0  0  0  0
  150.4491  139.3263  155.7891 H   0  0  0  0  0  0  0  0  0  0  0  0
  150.5956  139.8146  154.1436 H   0  0  0  0  0  0  0  0  0  0  0  0
  151.1162  141.8665  155.2554 H   0  0  0  0  0  0  0  0  0  0  0  0
  149.0416  143.0539  155.1992 H   0  0  0  0  0  0  0  0  0  0  0  0
  148.8674  142.2028  157.0739 H   0  0  0  0  0  0  0  0  0  0  0  0
  149.7594  140.7317  157.4828 H   0  0  0  0  0  0  0  0  0  0  0  0
  151.5998  139.8533  157.8321 H   0  0  0  0  0  0  0  0  0  0  0  0
  153.0569  139.0019  159.6064 H   0  0  0  0  0  0  0  0  0  0  0  0
  154.0031  140.5448  161.3106 H   0  0  0  0  0  0  0  0  0  0  0  0
  153.4828  142.9552  161.2250 H   0  0  0  0  0  0  0  0  0  0  0  0
  1  2  1  0  0  0  0
  1 24  1  0  0  0  0
  1 25  1  0  0  0  0
  1 26  1  0  0  0  0
  2 23  2  0  0  0  0
  2  3  1  0  0  0  0
  3  4  2  0  0  0  0
  3 27  1  0  0  0  0
  4  5  1  0  0  0  0
  4 28  1  0  0  0  0
  5  6  2  0  0  0  0
  5  7  1  0  0  0  0
  7  8  1  0  0  0  0
  7 23  1  0  0  0  0
  8  9  1  0  0  0  0
  8 29  1  0  0  0  0
  8 30  1  0  0  0  0
  9 10  1  0  0  0  0
  9 11  1  0  0  0  0
  9 31  1  0  0  0  0
 10 32  1  0  0  0  0
 11 12  1  0  0  0  0
 11 33  1  0  0  0  0
 11 34  1  0  0  0  0
 12 13  1  0  0  0  0
 13 18  1  0  0  0  0
 13 14  2  0  0  0  0
 14 15  1  0  0  0  0
 14 35  1  0  0  0  0
 15 16  2  0  0  0  0
 15 36  1  0  0  0  0
 16 17  1  0  0  0  0
 16 37  1  0  0  0  0
 17 18  2  0  0  0  0
 17 38  1  0  0  0  0
 18 19  1  0  0  0  0
 19 20  1  0  0  0  0
 19 21  1  0  0  0  0
 19 22  1  0  0  0  0
M  END
> <s_m_source_file>
AV-unprocessed.smi

> <i_m_source_file_index>
2407

> <i_lp_mmshare_version>
43012

> <i_f3d_flags>
0

> <s_epik_input>
W0NIM11jMVtjSF1bY0hdYyg9TyluKG4xKVtDSDJdW0NASF0oW09IXSlbQ0gyXU9jMltjSF1bY0hdW2NIXVtjSF1jMkMoRikoRilG

> <s_epik_cmdline>
J2VwaWtfcHl0aG9uJywgJy1waCcsICc3LjAnLCAnLXRuJywgJzgnLCAnLW1hJywgJzIwMCcsICctbWV0YWxfYmluZGluZycsICctaW1hZScsICc8aW5maWxlLm1hZT4nLCAnLW9tYWUnLCAnPG91dGZpbGUubWFlPic=

> <r_lp_tautomer_probability>
1

> <r_epik_Ionization_Penalty>
5.91655e-06

> <r_epik_Ionization_Penalty_Charging>
5.79937e-06

> <r_epik_Ionization_Penalty_Neutral>
1.17174e-07

> <r_epik_State_Penalty>
-0

> <r_epik_Charging_Adjusted_Penalty>
5.79937e-06

> <i_epik_Tot_Q>
0

> <i_epik_Tot_abs_Q>
0

> <r_epik_Metal_State_Penalty>
-0

> <b_epik_Metal_Only>
0

> <s_lp_Force_Field>
OPLS_2005

> <r_lp_Energy>
30.1001

> <b_lp_Chiralities_Consistent>
1

> <s_lp_Variant>
AV-unprocessed.smi:2407-2

> <Gold.Version>
5.8.1

> <Gold.Id.Protein>
6NUR|6NUR_protein|mol2

> <Gold.PLP.Fitness>
47.0642

> <Gold.PLP.PLP>
-48.0831

> <Gold.PLP.part.hbond>
-2.0000

> <Gold.PLP.part.metal>
0.0000

> <Gold.PLP.part.buried>
-6.2866

> <Gold.PLP.part.nonpolar>
-41.5870

> <Gold.PLP.part.repulsive>
2.6845

> <Gold.PLP.ligand.clash>
0.0737

> <Gold.PLP.ligand.torsion>
2.2644

> <Gold.PLP.Chemscore.Hbond>
1.0000

> <Gold.PLP.Chemscore.CHOScore>
0.0000

> <Gold.PLP.Chemscore.Metal>
0.0000

> <Gold.Chemscore.Hbonds>
donor molecule, donor type, donor heavy atom, donor atom, acceptor molecule, acceptor atom, score
      L1  H    10    32       P1  8028  1.00

> <Gold.PLP.Chemscore.Internal.Correction>
0.5837

> <Gold.Rescore>
     Score         DG    S(hbond)    S(metal)    S(lipo)     H(rot)  DE(clash)    DE(int)     intcor
      7.78     -13.98       1.00        0.00     101.07       2.60       0.09       6.10       ----

> <Gold.Chemscore.Fitness>
7.7830

> <Gold.Chemscore.DG>
-13.9762

> <Gold.Chemscore.ZeroCoef>
-5.4800

> <Gold.Chemscore.Hbond>
0.9988

> <Gold.Chemscore.Metal>
0.0000

> <Gold.Chemscore.Lipo>
101.0693

> <Gold.Chemscore.Internal_Hbond>
0.0000

> <Gold.Chemscore.DEClash>
0.0890

> <Gold.Chemscore.DEInternal>
6.1043

> <Gold.Chemscore.Rot>
2.6035

> <Gold.Chemscore.Internal.Correction>
   9.000000E+99

> <Gold.Chemscore.Hbonds>
donor molecule, donor type, donor heavy atom, donor atom, acceptor molecule, acceptor atom, score
      L1  H    10    32       P1  8028  1.00
      P1  H  8011  8017       L1    10  0.01

> <Gold.Chemscore.Hbond.Weighted>
-3.3360

> <Gold.Chemscore.Metal.Weighted>
-0.0000

> <Gold.Chemscore.Lipo.Weighted>
-11.8251

> <Gold.Chemscore.Internal_Hbond.Weighted>
0.0000

> <Gold.Chemscore.DEClash.Weighted>
0.0890

> <Gold.Chemscore.DEInternal.Weighted>
6.1043

> <Gold.Chemscore.Rot.Weighted>
6.6649

> <Gold.Chemscore.Internal.Correction.Weighted>
   9.000000E+99

> <Gold.Protein.RotatedTorsions>
[ 6907 6896 6895 6894 ] final  150.04 input  -60.11 | X-H torsion
[ 7974 7965 7964 7962 ] final  141.58 input  175.53 | X-H torsion
[ 8008 7997 7996 7995 ] final    6.91 input   59.86 | X-H torsion
[ 10167 10162 10161 10158 ] final  -47.45 input  -65.29 | X-H torsion
[ 10718 10713 10712 10709 ] final  -57.09 input   66.30 | X-H torsion
[ 10763 10752 10751 10750 ] final -158.79 input  -60.55 | X-H torsion
[ 11005 11000 10999 10996 ] final -145.77 input  -57.11 | X-H torsion

> <Gold.Protein.ActiveResidues>
 VAL166  LYS551  ARG553  GLY616  TRP617  ASP618  TYR619  PRO620  LYS621  CYS622 
 ASP623  PHE694  ASN695  SER759  ASP760  ASP761  ALA762  ILE779  LEU786  VAL792 
 PHE793  MET794  SER795  GLU796  ALA797  LYS798  CYS799  TRP800  GLU811  SER814 

> <Gold.Protein.RotatedAtoms>
  152.1199  133.4347  159.4670 H   0  0  0  0  0  0  0  0  0  0  0  0  # atno 6907 bound_to 6896
  150.6871  134.2547  159.4534 H   0  0  0  0  0  0  0  0  0  0  0  0  # atno 6908 bound_to 6896
  152.0423  134.9703  160.0624 H   0  0  0  0  0  0  0  0  0  0  0  0  # atno 6909 bound_to 6896
  144.9083  139.5327  143.5720 H   0  0  0  0  0  0  0  0  0  0  0  0  # atno 7974 bound_to 7965
  154.7470  140.2760  155.6324 H   0  0  0  0  0  0  0  0  0  0  0  0  # atno 8008 bound_to 7997
  156.2887  140.2686  156.2139 H   0  0  0  0  0  0  0  0  0  0  0  0  # atno 8009 bound_to 7997
  155.0185  140.0371  157.2418 H   0  0  0  0  0  0  0  0  0  0  0  0  # atno 8010 bound_to 7997
  140.6774  143.2784  151.3928 H   0  0  0  0  0  0  0  0  0  0  0  0  # atno 10167 bound_to 10162
  156.1238  130.4164  150.0393 H   0  0  0  0  0  0  0  0  0  0  0  0  # atno 10718 bound_to 10713
  154.7528  135.3097  154.8526 H   0  0  0  0  0  0  0  0  0  0  0  0  # atno 10763 bound_to 10752
  153.9308  135.6785  153.4750 H   0  0  0  0  0  0  0  0  0  0  0  0  # atno 10764 bound_to 10752
  153.1124  135.4860  154.8987 H   0  0  0  0  0  0  0  0  0  0  0  0  # atno 10765 bound_to 10752
  140.7889  134.2992  157.5020 H   0  0  0  0  0  0  0  0  0  0  0  0  # atno 11005 bound_to 11000
  146.3145  139.7870  142.8994 LP  0  0  0  0  0  0  0  0  0  0  0  0  # atno 17320 bound_to 7965
  145.3497  141.0305  143.3345 LP  0  0  0  0  0  0  0  0  0  0  0  0  # atno 17321 bound_to 7965
  139.6075  144.1166  152.2264 LP  0  0  0  0  0  0  0  0  0  0  0  0  # atno 17342 bound_to 10162
  140.0570  144.5887  150.7292 LP  0  0  0  0  0  0  0  0  0  0  0  0  # atno 17343 bound_to 10162
  156.8325  130.9397  151.3636 LP  0  0  0  0  0  0  0  0  0  0  0  0  # atno 17370 bound_to 10713
  157.6420  130.8813  149.9466 LP  0  0  0  0  0  0  0  0  0  0  0  0  # atno 17371 bound_to 10713
  139.8733  134.9362  156.3655 LP  0  0  0  0  0  0  0  0  0  0  0  0  # atno 17394 bound_to 11000
  140.9409  133.7515  156.0146 LP  0  0  0  0  0  0  0  0  0  0  0  0  # atno 17395 bound_to 11000

$$$$
