AV-unprocessed.smi:48|AV-procd|sdf|448|dock2
  -GOLD-   2262016313D 1   1.00000     0.00000
 Structure written by MMmdl.
 30 32  0  0  0  0  0  0  0  0  1 V2000
  149.8764  138.5025  153.0033 O   0  0  0  0  0  0  0  0  0  0  0  0
  149.1780  138.7330  154.2084 C   0  0  0  0  0  0  0  0  0  0  0  0
  150.1713  138.8493  155.3778 C   0  0  2  0  0  0  0  0  0  0  0  0
  151.1525  139.8509  155.1284 O   0  0  0  0  0  0  0  0  0  0  0  0
  152.2332  139.6706  155.9945 C   0  0  1  0  0  0  0  0  0  0  0  0
  152.0482  140.5754  157.1739 N   0  0  0  0  0  0  0  0  0  0  0  0
  151.1726  141.5887  157.3520 C   0  0  0  0  0  0  0  0  0  0  0  0
  151.2303  142.2524  158.5067 N   0  0  0  0  0  0  0  0  0  0  0  0
  152.2722  141.6031  159.1479 C   0  0  0  0  0  0  0  0  0  0  0  0
  152.8855  141.7813  160.4119 C   0  0  0  0  0  0  0  0  0  0  0  0
  152.3448  143.0089  161.4975 Cl  0  0  0  0  0  0  0  0  0  0  0  0
  153.9117  140.9644  160.7514 N   0  0  0  0  0  0  0  0  0  0  0  0
  154.3128  140.0214  159.8894 C   0  0  0  0  0  0  0  0  0  0  0  0
  153.8346  139.7358  158.6724 N   0  0  0  0  0  0  0  0  0  0  0  0
  152.7997  140.5608  158.3351 C   0  0  0  0  0  0  0  0  0  0  0  0
  152.1982  138.1995  156.4511 C   0  0  2  0  0  0  0  0  0  0  0  0
  153.4199  137.5176  156.2392 O   0  0  0  0  0  0  0  0  0  0  0  0
  151.0444  137.6157  155.6355 C   0  0  2  0  0  0  0  0  0  0  0  0
  151.4753  137.0472  154.4092 O   0  0  0  0  0  0  0  0  0  0  0  0
  149.6365  139.0887  156.2993 H   0  0  0  0  0  0  0  0  0  0  0  0
  153.1703  139.9921  155.5379 H   0  0  0  0  0  0  0  0  0  0  0  0
  151.9478  138.1523  157.5123 H   0  0  0  0  0  0  0  0  0  0  0  0
  150.5066  136.8491  156.1944 H   0  0  0  0  0  0  0  0  0  0  0  0
  149.4871  137.7587  152.5692 H   0  0  0  0  0  0  0  0  0  0  0  0
  148.6247  139.6654  154.0917 H   0  0  0  0  0  0  0  0  0  0  0  0
  148.4495  137.9400  154.3804 H   0  0  0  0  0  0  0  0  0  0  0  0
  150.4499  141.8582  156.5956 H   0  0  0  0  0  0  0  0  0  0  0  0
  155.1366  139.4072  160.2217 H   0  0  0  0  0  0  0  0  0  0  0  0
  153.2663  136.5907  156.3454 H   0  0  0  0  0  0  0  0  0  0  0  0
  151.0605  137.5185  153.7025 H   0  0  0  0  0  0  0  0  0  0  0  0
  1  2  1  0  0  0  0
  1 24  1  0  0  0  0
  2  3  1  0  0  0  0
  2 25  1  0  0  0  0
  2 26  1  0  0  0  0
  3 20  1  0  0  0  0
  3 18  1  0  0  0  0
  3  4  1  0  0  0  0
  4  5  1  0  0  0  0
  5 21  1  0  0  0  0
  5  6  1  0  0  0  0
  5 16  1  0  0  0  0
  6 15  1  0  0  0  0
  6  7  1  0  0  0  0
  7  8  2  0  0  0  0
  7 27  1  0  0  0  0
  8  9  1  0  0  0  0
  9 15  2  0  0  0  0
  9 10  1  0  0  0  0
 10 11  1  0  0  0  0
 10 12  2  0  0  0  0
 12 13  1  0  0  0  0
 13 14  2  0  0  0  0
 13 28  1  0  0  0  0
 14 15  1  0  0  0  0
 16 22  1  0  0  0  0
 16 17  1  0  0  0  0
 16 18  1  0  0  0  0
 17 29  1  0  0  0  0
 18 23  1  0  0  0  0
 18 19  1  0  0  0  0
 19 30  1  0  0  0  0
M  END
> <s_m_source_file>
AV-unprocessed.smi

> <i_m_source_file_index>
48

> <i_lp_mmshare_version>
43012

> <i_f3d_flags>
0

> <s_epik_input>
W09IXVtDSDJdW0NASF0xT1tDQEhdKFtDQEhdKFtPSF0pW0NAQEhdMVtPSF0pbihbY0hdbjIpYyhjMjMpbltjSF1uYzNDbA==

> <s_epik_cmdline>
J2VwaWtfcHl0aG9uJywgJy1waCcsICc3LjAnLCAnLXRuJywgJzgnLCAnLW1hJywgJzIwMCcsICctbWV0YWxfYmluZGluZycsICctaW1hZScsICc8aW5maWxlLm1hZT4nLCAnLW9tYWUnLCAnPG91dGZpbGUubWFlPic=

> <r_lp_tautomer_probability>
1

> <r_epik_Ionization_Penalty>
3.45505e-06

> <r_epik_Ionization_Penalty_Charging>
0

> <r_epik_Ionization_Penalty_Neutral>
3.45505e-06

> <r_epik_State_Penalty>
-0

> <r_epik_Charging_Adjusted_Penalty>
0

> <i_epik_Tot_Q>
0

> <i_epik_Tot_abs_Q>
0

> <r_epik_Metal_State_Penalty>
-0

> <b_epik_Metal_Only>
0

> <s_epik_Chemistry_Notes>
This compound contains an acetal/aminal-like group ( X-CH(R)-Y where X, Y are N, S, or O) that may be acid/base labile, releasing an aldehyde.

> <s_lp_Force_Field>
OPLS_2005

> <r_lp_Energy>
38.272

> <b_lp_Chiralities_Consistent>
1

> <s_lp_Variant>
AV-unprocessed.smi:48-2

> <Gold.Version>
5.8.1

> <Gold.Id.Protein>
6NUR|6NUR_protein|mol2

> <Gold.PLP.Fitness>
42.4009

> <Gold.PLP.PLP>
-30.6961

> <Gold.PLP.part.hbond>
-6.9381

> <Gold.PLP.part.metal>
0.0000

> <Gold.PLP.part.buried>
-1.5260

> <Gold.PLP.part.nonpolar>
-20.7083

> <Gold.PLP.part.repulsive>
0.0673

> <Gold.PLP.ligand.clash>
0.0000

> <Gold.PLP.ligand.torsion>
0.1588

> <Gold.PLP.Chemscore.Hbond>
4.0000

> <Gold.PLP.Chemscore.CHOScore>
0.0000

> <Gold.PLP.Chemscore.Metal>
0.0000

> <Gold.Chemscore.Hbonds>
donor molecule, donor type, donor heavy atom, donor atom, acceptor molecule, acceptor atom, score
      L1  H     1    24       P1  7948  1.00
      P1  H  7989  7998       L1     4  1.00
      P1  H  7997  8008       L1    14  0.95
      P1  H 10752 10764       L1    19  1.00

> <Gold.PLP.Chemscore.Internal.Correction>
0.0225

> <Gold.Rescore>
     Score         DG    S(hbond)    S(metal)    S(lipo)     H(rot)  DE(clash)    DE(int)     intcor
     11.22     -11.41       2.90        0.00      51.20       3.80       0.15       0.04       ----

> <Gold.Chemscore.Fitness>
11.2223

> <Gold.Chemscore.DG>
-11.4119

> <Gold.Chemscore.ZeroCoef>
-5.4800

> <Gold.Chemscore.Hbond>
2.8964

> <Gold.Chemscore.Metal>
0.0000

> <Gold.Chemscore.Lipo>
51.2000

> <Gold.Chemscore.Internal_Hbond>
0.0000

> <Gold.Chemscore.DEClash>
0.1463

> <Gold.Chemscore.DEInternal>
0.0434

> <Gold.Chemscore.Rot>
3.8017

> <Gold.Chemscore.Internal.Correction>
   9.000000E+99

> <Gold.Chemscore.Hbonds>
donor molecule, donor type, donor heavy atom, donor atom, acceptor molecule, acceptor atom, score
      L1  H     1    24       P1  7948  0.70
      P1  H  7989  7998       L1     4  0.80
      P1  H  7997  8008       L1    14  0.20
      P1  H 10752 10764       L1    19  0.94

> <Gold.Chemscore.Hbond.Weighted>
-9.6739

> <Gold.Chemscore.Metal.Weighted>
-0.0000

> <Gold.Chemscore.Lipo.Weighted>
-5.9904

> <Gold.Chemscore.Internal_Hbond.Weighted>
0.0000

> <Gold.Chemscore.DEClash.Weighted>
0.1463

> <Gold.Chemscore.DEInternal.Weighted>
0.0434

> <Gold.Chemscore.Rot.Weighted>
9.7324

> <Gold.Chemscore.Internal.Correction.Weighted>
   9.000000E+99

> <Gold.Protein.RotatedTorsions>
[ 6907 6896 6895 6894 ] final  170.31 input  -60.11 | X-H torsion
[ 7974 7965 7964 7962 ] final  -60.73 input  175.53 | X-H torsion
[ 8008 7997 7996 7995 ] final -108.30 input   59.86 | X-H torsion
[ 10167 10162 10161 10158 ] final  -22.37 input  -65.29 | X-H torsion
[ 10718 10713 10712 10709 ] final -173.40 input   66.30 | X-H torsion
[ 10763 10752 10751 10750 ] final  -77.75 input  -60.55 | X-H torsion
[ 11005 11000 10999 10996 ] final   50.39 input  -57.11 | X-H torsion

> <Gold.Protein.ActiveResidues>
 VAL166  LYS551  ARG553  GLY616  TRP617  ASP618  TYR619  PRO620  LYS621  CYS622 
 ASP623  PHE694  ASN695  SER759  ASP760  ASP761  ALA762  ILE779  LEU786  VAL792 
 PHE793  MET794  SER795  GLU796  ALA797  LYS798  CYS799  TRP800  GLU811  SER814 

> <Gold.Protein.RotatedAtoms>
  151.8181  133.3391  159.3575 H   0  0  0  0  0  0  0  0  0  0  0  0  # atno 6907 bound_to 6896
  150.7304  134.5600  159.5847 H   0  0  0  0  0  0  0  0  0  0  0  0  # atno 6908 bound_to 6896
  152.3026  134.7594  160.0405 H   0  0  0  0  0  0  0  0  0  0  0  0  # atno 6909 bound_to 6896
  145.8119  140.8593  143.0177 H   0  0  0  0  0  0  0  0  0  0  0  0  # atno 7974 bound_to 7965
  154.9422  140.0402  157.2102 H   0  0  0  0  0  0  0  0  0  0  0  0  # atno 8008 bound_to 7997
  154.8058  140.2859  155.5866 H   0  0  0  0  0  0  0  0  0  0  0  0  # atno 8009 bound_to 7997
  156.2966  140.2546  156.2936 H   0  0  0  0  0  0  0  0  0  0  0  0  # atno 8010 bound_to 7997
  140.7285  143.4541  151.0474 H   0  0  0  0  0  0  0  0  0  0  0  0  # atno 10167 bound_to 10162
  156.7697  130.9444  151.3119 H   0  0  0  0  0  0  0  0  0  0  0  0  # atno 10718 bound_to 10713
  154.5170  135.5753  153.6650 H   0  0  0  0  0  0  0  0  0  0  0  0  # atno 10763 bound_to 10752
  152.9909  135.6172  154.2804 H   0  0  0  0  0  0  0  0  0  0  0  0  # atno 10764 bound_to 10752
  154.2723  135.2853  155.2712 H   0  0  0  0  0  0  0  0  0  0  0  0  # atno 10765 bound_to 10752
  140.1021  134.5067  155.8753 H   0  0  0  0  0  0  0  0  0  0  0  0  # atno 11005 bound_to 11000
  144.6756  140.0409  143.7481 LP  0  0  0  0  0  0  0  0  0  0  0  0  # atno 17320 bound_to 7965
  145.9767  139.2910  143.1066 LP  0  0  0  0  0  0  0  0  0  0  0  0  # atno 17321 bound_to 7965
  139.8220  143.7807  152.3177 LP  0  0  0  0  0  0  0  0  0  0  0  0  # atno 17342 bound_to 10162
  139.7893  144.7416  150.9977 LP  0  0  0  0  0  0  0  0  0  0  0  0  # atno 17343 bound_to 10162
  157.6696  130.9039  150.0011 LP  0  0  0  0  0  0  0  0  0  0  0  0  # atno 17370 bound_to 10713
  156.1286  130.3644  149.9769 LP  0  0  0  0  0  0  0  0  0  0  0  0  # atno 17371 bound_to 10713
  141.2108  133.6699  156.6539 LP  0  0  0  0  0  0  0  0  0  0  0  0  # atno 17394 bound_to 11000
  140.3206  134.8011  157.4249 LP  0  0  0  0  0  0  0  0  0  0  0  0  # atno 17395 bound_to 11000

$$$$
