AV-unprocessed.smi:2528|AV-procd|sdf|9955|dock7
  -GOLD-   2272013593D 1   1.00000     0.00000
 Structure written by MMmdl.
 44 46  0  0  0  0  0  0  0  0  2 V2000
  153.1418  139.7122  157.2881 O   0  0  0  0  0  0  0  0  0  0  0  0
  152.0937  140.1387  156.8022 C   0  0  0  0  0  0  0  0  0  0  0  0
  151.4590  139.5407  155.7836 N   0  0  0  0  0  0  0  0  0  0  0  0
  151.9006  138.3135  155.1289 C   0  0  0  0  0  0  0  0  0  0  0  0
  150.7151  137.4430  154.6755 C   0  0  1  0  0  0  0  0  0  0  0  0
  151.1011  135.9571  154.5627 C   0  0  0  0  0  0  0  0  0  0  0  0
  149.9242  135.1454  154.1758 N   0  3  1  0  0  0  0  0  0  0  0  0
  150.2572  133.7085  154.0065 C   0  0  0  0  0  0  0  0  0  0  0  0
  149.0383  132.9143  153.5107 C   0  0  0  0  0  0  0  0  0  0  0  0
  147.8474  133.0956  154.4606 C   0  0  0  0  0  0  0  0  0  0  0  0
  147.5414  134.5886  154.6414 C   0  0  0  0  0  0  0  0  0  0  0  0
  148.7885  135.3625  155.1131 C   0  0  2  0  0  0  0  0  0  0  0  0
  148.4950  136.8704  155.2444 C   0  0  0  0  0  0  0  0  0  0  0  0
  149.6730  137.5625  155.6381 O   0  0  0  0  0  0  0  0  0  0  0  0
  151.4405  141.2430  157.2047 N   0  0  0  0  0  0  0  0  0  0  0  0
  151.7853  142.1328  158.2573 C   0  0  0  0  0  0  0  0  0  0  0  0
  151.2759  143.4444  158.1235 C   0  0  0  0  0  0  0  0  0  0  0  0
  151.5579  144.4020  159.1171 C   0  0  0  0  0  0  0  0  0  0  0  0
  152.3442  144.0237  160.2199 C   0  0  0  0  0  0  0  0  0  0  0  0
  152.8135  142.6984  160.2755 C   0  0  0  0  0  0  0  0  0  0  0  0
  152.5444  141.7788  159.3246 N   0  0  0  0  0  0  0  0  0  0  0  0
  150.6061  139.9582  155.4409 H   0  0  0  0  0  0  0  0  0  0  0  0
  152.5335  138.5660  154.2764 H   0  0  0  0  0  0  0  0  0  0  0  0
  152.5290  137.7585  155.8260 H   0  0  0  0  0  0  0  0  0  0  0  0
  150.3583  137.7942  153.7054 H   0  0  0  0  0  0  0  0  0  0  0  0
  151.8882  135.8334  153.8177 H   0  0  0  0  0  0  0  0  0  0  0  0
  151.4981  135.5964  155.5130 H   0  0  0  0  0  0  0  0  0  0  0  0
  151.0744  133.6047  153.2917 H   0  0  0  0  0  0  0  0  0  0  0  0
  150.6106  133.2999  154.9545 H   0  0  0  0  0  0  0  0  0  0  0  0
  148.7647  133.2494  152.5092 H   0  0  0  0  0  0  0  0  0  0  0  0
  149.2906  131.8570  153.4256 H   0  0  0  0  0  0  0  0  0  0  0  0
  146.9717  132.5756  154.0713 H   0  0  0  0  0  0  0  0  0  0  0  0
  148.0747  132.6458  155.4280 H   0  0  0  0  0  0  0  0  0  0  0  0
  147.1845  135.0025  153.6969 H   0  0  0  0  0  0  0  0  0  0  0  0
  146.7294  134.7131  155.3589 H   0  0  0  0  0  0  0  0  0  0  0  0
  149.0832  134.9845  156.0939 H   0  0  0  0  0  0  0  0  0  0  0  0
  148.1165  137.2822  154.3071 H   0  0  0  0  0  0  0  0  0  0  0  0
  147.7253  137.0392  155.9980 H   0  0  0  0  0  0  0  0  0  0  0  0
  150.5914  141.4687  156.7080 H   0  0  0  0  0  0  0  0  0  0  0  0
  150.6723  143.7188  157.2704 H   0  0  0  0  0  0  0  0  0  0  0  0
  151.1768  145.4090  159.0337 H   0  0  0  0  0  0  0  0  0  0  0  0
  152.5818  144.7300  161.0017 H   0  0  0  0  0  0  0  0  0  0  0  0
  153.4213  142.3675  161.1045 H   0  0  0  0  0  0  0  0  0  0  0  0
  149.6238  135.4825  153.2722 H   0  0  0  0  0  0  0  0  0  0  0  0
  1  2  2  0  0  0  0
  2  3  1  0  0  0  0
  2 15  1  0  0  0  0
  3  4  1  0  0  0  0
  3 22  1  0  0  0  0
  4  5  1  0  0  0  0
  4 23  1  0  0  0  0
  4 24  1  0  0  0  0
  5 14  1  0  0  0  0
  5  6  1  0  0  0  0
  5 25  1  0  0  0  0
  6  7  1  0  0  0  0
  6 26  1  0  0  0  0
  6 27  1  0  0  0  0
  7 12  1  0  0  0  0
  7  8  1  0  0  0  0
  7 44  1  0  0  0  0
  8  9  1  0  0  0  0
  8 28  1  0  0  0  0
  8 29  1  0  0  0  0
  9 10  1  0  0  0  0
  9 30  1  0  0  0  0
  9 31  1  0  0  0  0
 10 11  1  0  0  0  0
 10 32  1  0  0  0  0
 10 33  1  0  0  0  0
 11 12  1  0  0  0  0
 11 34  1  0  0  0  0
 11 35  1  0  0  0  0
 12 13  1  0  0  0  0
 12 36  1  0  0  0  0
 13 14  1  0  0  0  0
 13 37  1  0  0  0  0
 13 38  1  0  0  0  0
 15 16  1  0  0  0  0
 15 39  1  0  0  0  0
 16 21  1  0  0  0  0
 16 17  2  0  0  0  0
 17 18  1  0  0  0  0
 17 40  1  0  0  0  0
 18 19  2  0  0  0  0
 18 41  1  0  0  0  0
 19 20  1  0  0  0  0
 19 42  1  0  0  0  0
 20 21  2  0  0  0  0
 20 43  1  0  0  0  0
M  CHG  1   7   1
M  END
> <s_m_source_file>
AV-unprocessed.smi

> <i_m_source_file_index>
2528

> <i_lp_mmshare_version>
43012

> <i_f3d_flags>
0

> <s_epik_input>
bjFbY0hdW2NIXVtjSF1bY0hdYzFbTkhdQyg9TylbTkhdW0NIMl1bQ0BIXShbQ0gyXTIpT1tDSDJdW0NAQEhdKE4yMylbQ0gyXVtDSDJdW0NIMl1bQ0gyXTM=

> <s_epik_cmdline>
J2VwaWtfcHl0aG9uJywgJy1waCcsICc3LjAnLCAnLXRuJywgJzgnLCAnLW1hJywgJzIwMCcsICctbWV0YWxfYmluZGluZycsICctaW1hZScsICc8aW5maWxlLm1hZT4nLCAnLW9tYWUnLCAnPG91dGZpbGUubWFlPic=

> <r_epik_Ionization_Penalty>
0.0932337

> <r_epik_Ionization_Penalty_Charging>
0.0931942

> <r_epik_Ionization_Penalty_Neutral>
3.9565e-05

> <r_epik_State_Penalty>
0.0834605

> <r_epik_Charging_Adjusted_Penalty>
0.176655

> <i_epik_Tot_Q>
1

> <i_epik_Tot_abs_Q>
1

> <r_epik_Metal_State_Penalty>
0.0834607

> <b_epik_Metal_Only>
0

> <s_lp_Force_Field>
OPLS_2005

> <r_lp_Energy>
24.376

> <b_lp_Chiralities_Consistent>
1

> <s_lp_Variant>
AV-unprocessed.smi:2528-8

> <Gold.Version>
5.8.1

> <Gold.Id.Protein>
6NUR|6NUR_protein|mol2

> <Gold.PLP.Fitness>
44.2263

> <Gold.PLP.PLP>
-36.3855

> <Gold.PLP.part.hbond>
-2.0342

> <Gold.PLP.part.metal>
0.0000

> <Gold.PLP.part.buried>
-3.4621

> <Gold.PLP.part.nonpolar>
-30.7294

> <Gold.PLP.part.repulsive>
0.3138

> <Gold.PLP.ligand.clash>
0.0000

> <Gold.PLP.ligand.torsion>
0.5797

> <Gold.PLP.Chemscore.Hbond>
3.0000

> <Gold.PLP.Chemscore.CHOScore>
0.0000

> <Gold.PLP.Chemscore.Metal>
0.0000

> <Gold.Chemscore.Hbonds>
donor molecule, donor type, donor heavy atom, donor atom, acceptor molecule, acceptor atom, score
      L1  H     7    44       P1  7948  1.00
      P1  H  7997  8010       L1     1  0.75

> <Gold.PLP.Chemscore.Internal.Correction>
0.0002

> <Gold.Rescore>
     Score         DG    S(hbond)    S(metal)    S(lipo)     H(rot)  DE(clash)    DE(int)     intcor
     16.84     -18.63       1.94        0.00      85.12       1.29       0.00       1.79       ----

> <Gold.Chemscore.Fitness>
16.8426

> <Gold.Chemscore.DG>
-18.6283

> <Gold.Chemscore.ZeroCoef>
-5.4800

> <Gold.Chemscore.Hbond>
1.9415

> <Gold.Chemscore.Metal>
0.0000

> <Gold.Chemscore.Lipo>
85.1156

> <Gold.Chemscore.Internal_Hbond>
0.0000

> <Gold.Chemscore.DEClash>
0.0004

> <Gold.Chemscore.DEInternal>
1.7853

> <Gold.Chemscore.Rot>
1.2870

> <Gold.Chemscore.Internal.Correction>
   9.000000E+99

> <Gold.Chemscore.Hbonds>
donor molecule, donor type, donor heavy atom, donor atom, acceptor molecule, acceptor atom, score
      L1  H     7    44       P1  7948  0.02
      P1  H  7997  8010       L1     1  0.74

> <Gold.Chemscore.Hbond.Weighted>
-6.4847

> <Gold.Chemscore.Metal.Weighted>
-0.0000

> <Gold.Chemscore.Lipo.Weighted>
-9.9585

> <Gold.Chemscore.Internal_Hbond.Weighted>
0.0000

> <Gold.Chemscore.DEClash.Weighted>
0.0004

> <Gold.Chemscore.DEInternal.Weighted>
1.7853

> <Gold.Chemscore.Rot.Weighted>
3.2948

> <Gold.Chemscore.Internal.Correction.Weighted>
   9.000000E+99

> <Gold.Protein.RotatedTorsions>
[ 6907 6896 6895 6894 ] final  101.35 input  -60.11 | X-H torsion
[ 7974 7965 7964 7962 ] final   98.39 input  175.53 | X-H torsion
[ 8008 7997 7996 7995 ] final   54.63 input   59.86 | X-H torsion
[ 10167 10162 10161 10158 ] final  -78.61 input  -65.29 | X-H torsion
[ 10718 10713 10712 10709 ] final   92.12 input   66.30 | X-H torsion
[ 10763 10752 10751 10750 ] final -105.48 input  -60.55 | X-H torsion
[ 11005 11000 10999 10996 ] final   69.42 input  -57.11 | X-H torsion

> <Gold.Protein.ActiveResidues>
 VAL166  LYS551  ARG553  GLY616  TRP617  ASP618  TYR619  PRO620  LYS621  CYS622 
 ASP623  PHE694  ASN695  SER759  ASP760  ASP761  ALA762  ILE779  LEU786  VAL792 
 PHE793  MET794  SER795  GLU796  ALA797  LYS798  CYS799  TRP800  GLU811  SER814 

> <Gold.Protein.RotatedAtoms>
  152.5351  134.0140  159.7950 H   0  0  0  0  0  0  0  0  0  0  0  0  # atno 6907 bound_to 6896
  151.0337  133.5759  159.2665 H   0  0  0  0  0  0  0  0  0  0  0  0  # atno 6908 bound_to 6896
  151.2755  135.0705  159.9203 H   0  0  0  0  0  0  0  0  0  0  0  0  # atno 6909 bound_to 6896
  145.4128  139.2331  143.3239 H   0  0  0  0  0  0  0  0  0  0  0  0  # atno 7974 bound_to 7965
  155.4879  140.3470  155.4350 H   0  0  0  0  0  0  0  0  0  0  0  0  # atno 8008 bound_to 7997
  156.0996  140.1432  156.9513 H   0  0  0  0  0  0  0  0  0  0  0  0  # atno 8009 bound_to 7997
  154.4685  140.0909  156.7061 H   0  0  0  0  0  0  0  0  0  0  0  0  # atno 8010 bound_to 7997
  140.4666  143.2438  151.8268 H   0  0  0  0  0  0  0  0  0  0  0  0  # atno 10167 bound_to 10162
  157.6959  131.0432  150.3834 H   0  0  0  0  0  0  0  0  0  0  0  0  # atno 10718 bound_to 10713
  154.7949  135.4747  154.0137 H   0  0  0  0  0  0  0  0  0  0  0  0  # atno 10763 bound_to 10752
  153.1688  135.6821  153.8645 H   0  0  0  0  0  0  0  0  0  0  0  0  # atno 10764 bound_to 10752
  153.8234  135.3201  155.3390 H   0  0  0  0  0  0  0  0  0  0  0  0  # atno 10765 bound_to 10752
  139.9654  134.6989  156.0556 H   0  0  0  0  0  0  0  0  0  0  0  0  # atno 11005 bound_to 11000
  146.2696  140.4842  142.8820 LP  0  0  0  0  0  0  0  0  0  0  0  0  # atno 17320 bound_to 7965
  144.8297  140.6687  143.6299 LP  0  0  0  0  0  0  0  0  0  0  0  0  # atno 17321 bound_to 7965
  139.4813  144.4943  151.9145 LP  0  0  0  0  0  0  0  0  0  0  0  0  # atno 17342 bound_to 10162
  140.4028  144.2471  150.5892 LP  0  0  0  0  0  0  0  0  0  0  0  0  # atno 17343 bound_to 10162
  156.4245  130.3959  149.6802 LP  0  0  0  0  0  0  0  0  0  0  0  0  # atno 17370 bound_to 10713
  156.4041  130.7689  151.2699 LP  0  0  0  0  0  0  0  0  0  0  0  0  # atno 17371 bound_to 10713
  141.1334  133.6581  156.3526 LP  0  0  0  0  0  0  0  0  0  0  0  0  # atno 17394 bound_to 11000
  140.5407  134.6123  157.5379 LP  0  0  0  0  0  0  0  0  0  0  0  0  # atno 17395 bound_to 11000

$$$$
