AV-unprocessed.smi:34|AV-procd|sdf|219|dock6
  -GOLD-   2262015533D 1   1.00000     0.00000
 Structure written by MMmdl.
 55 59  0  0  0  0  0  0  0  0  1 V2000
  147.6028  135.4486  160.8499 O   0  0  0  0  0  0  0  0  0  0  0  0
  148.0031  134.6726  159.9817 C   0  0  0  0  0  0  0  0  0  0  0  0
  148.5218  135.1392  158.7076 N   0  0  0  0  0  0  0  0  0  0  0  0
  148.5681  136.4089  158.2400 C   0  0  0  0  0  0  0  0  0  0  0  0
  148.1434  137.4716  158.9736 N   0  0  0  0  0  0  0  0  0  0  0  0
  148.2019  138.7070  158.4675 C   0  0  0  0  0  0  0  0  0  0  0  0
  148.6417  139.0975  157.2692 N   0  0  0  0  0  0  0  0  0  0  0  0
  149.0684  138.0351  156.5276 C   0  0  0  0  0  0  0  0  0  0  0  0
  149.0611  136.6728  156.9354 C   0  0  0  0  0  0  0  0  0  0  0  0
  149.5599  135.8761  155.9130 N   0  0  0  0  0  0  0  0  0  0  0  0
  149.8432  136.7233  154.9593 C   0  0  0  0  0  0  0  0  0  0  0  0
  149.5916  138.0479  155.2532 N   0  0  0  0  0  0  0  0  0  0  0  0
  149.7800  139.2698  154.4068 C   0  0  2  0  0  0  0  0  0  0  0  0
  150.6982  140.1106  155.0403 O   0  0  0  0  0  0  0  0  0  0  0  0
  149.9895  141.0670  155.8161 C   0  0  1  0  0  0  0  0  0  0  0  0
  150.8934  142.2594  156.1485 C   0  0  0  0  0  0  0  0  0  0  0  0
  151.3405  142.1496  157.4899 O   0  0  0  0  0  0  0  0  0  0  0  0
  151.7779  143.2405  158.1474 C   0  0  0  0  0  0  0  0  0  0  0  0
  151.7675  144.3760  157.6677 O   0  0  0  0  0  0  0  0  0  0  0  0
  152.2798  142.9296  159.5172 C   0  0  0  0  0  0  0  0  0  0  0  0
  152.0670  143.8598  160.5612 C   0  0  0  0  0  0  0  0  0  0  0  0
  152.5314  143.5947  161.8641 C   0  0  0  0  0  0  0  0  0  0  0  0
  153.2139  142.3956  162.1395 C   0  0  0  0  0  0  0  0  0  0  0  0
  153.4305  141.4612  161.1101 C   0  0  0  0  0  0  0  0  0  0  0  0
  152.9672  141.7247  159.8061 C   0  0  0  0  0  0  0  0  0  0  0  0
  148.8093  141.4003  154.9083 C   0  0  2  0  0  0  0  0  0  0  0  0
  147.7870  141.9167  155.5914 F   0  0  0  0  0  0  0  0  0  0  0  0
  148.4528  140.0492  154.3042 C   0  0  1  0  0  0  0  0  0  0  0  0
  148.0194  140.2018  152.9684 O   0  0  0  0  0  0  0  0  0  0  0  0
  148.0663  133.1915  160.2176 C   0  0  0  0  0  0  0  0  0  0  0  0
  148.4853  132.3284  159.1802 C   0  0  0  0  0  0  0  0  0  0  0  0
  148.5669  130.9392  159.3974 C   0  0  0  0  0  0  0  0  0  0  0  0
  148.2374  130.4019  160.6560 C   0  0  0  0  0  0  0  0  0  0  0  0
  147.8299  131.2552  161.6985 C   0  0  0  0  0  0  0  0  0  0  0  0
  147.7481  132.6449  161.4826 C   0  0  0  0  0  0  0  0  0  0  0  0
  148.8814  134.4266  158.0894 H   0  0  0  0  0  0  0  0  0  0  0  0
  147.8455  139.4939  159.1159 H   0  0  0  0  0  0  0  0  0  0  0  0
  150.2467  136.3954  154.0124 H   0  0  0  0  0  0  0  0  0  0  0  0
  150.1687  138.8918  153.4603 H   0  0  0  0  0  0  0  0  0  0  0  0
  149.6407  140.5886  156.7330 H   0  0  0  0  0  0  0  0  0  0  0  0
  151.7565  142.2649  155.4814 H   0  0  0  0  0  0  0  0  0  0  0  0
  150.3587  143.1988  156.0013 H   0  0  0  0  0  0  0  0  0  0  0  0
  151.5456  144.7875  160.3742 H   0  0  0  0  0  0  0  0  0  0  0  0
  152.3628  144.3126  162.6532 H   0  0  0  0  0  0  0  0  0  0  0  0
  153.5705  142.1928  163.1385 H   0  0  0  0  0  0  0  0  0  0  0  0
  153.9531  140.5399  161.3204 H   0  0  0  0  0  0  0  0  0  0  0  0
  153.1495  140.9857  159.0396 H   0  0  0  0  0  0  0  0  0  0  0  0
  149.1057  142.1166  154.1400 H   0  0  0  0  0  0  0  0  0  0  0  0
  147.6781  139.5556  154.8934 H   0  0  0  0  0  0  0  0  0  0  0  0
  148.7765  140.3648  152.4260 H   0  0  0  0  0  0  0  0  0  0  0  0
  148.7434  132.7255  158.2088 H   0  0  0  0  0  0  0  0  0  0  0  0
  148.8845  130.2861  158.5979 H   0  0  0  0  0  0  0  0  0  0  0  0
  148.3012  129.3366  160.8226 H   0  0  0  0  0  0  0  0  0  0  0  0
  147.5831  130.8440  162.6663 H   0  0  0  0  0  0  0  0  0  0  0  0
  147.4433  133.2826  162.2998 H   0  0  0  0  0  0  0  0  0  0  0  0
  1  2  2  0  0  0  0
  2  3  1  0  0  0  0
  2 30  1  0  0  0  0
  3  4  1  0  0  0  0
  3 36  1  0  0  0  0
  4  9  1  0  0  0  0
  4  5  2  0  0  0  0
  5  6  1  0  0  0  0
  6  7  2  0  0  0  0
  6 37  1  0  0  0  0
  7  8  1  0  0  0  0
  8 12  1  0  0  0  0
  8  9  2  0  0  0  0
  9 10  1  0  0  0  0
 10 11  2  0  0  0  0
 11 12  1  0  0  0  0
 11 38  1  0  0  0  0
 12 13  1  0  0  0  0
 13 28  1  0  0  0  0
 13 14  1  0  0  0  0
 13 39  1  0  0  0  0
 14 15  1  0  0  0  0
 15 16  1  0  0  0  0
 15 26  1  0  0  0  0
 15 40  1  0  0  0  0
 16 17  1  0  0  0  0
 16 41  1  0  0  0  0
 16 42  1  0  0  0  0
 17 18  1  0  0  0  0
 18 19  2  0  0  0  0
 18 20  1  0  0  0  0
 20 25  1  0  0  0  0
 20 21  2  0  0  0  0
 21 22  1  0  0  0  0
 21 43  1  0  0  0  0
 22 23  2  0  0  0  0
 22 44  1  0  0  0  0
 23 24  1  0  0  0  0
 23 45  1  0  0  0  0
 24 25  2  0  0  0  0
 24 46  1  0  0  0  0
 25 47  1  0  0  0  0
 26 27  1  0  0  0  0
 26 28  1  0  0  0  0
 26 48  1  0  0  0  0
 28 29  1  0  0  0  0
 28 49  1  0  0  0  0
 29 50  1  0  0  0  0
 30 35  1  0  0  0  0
 30 31  2  0  0  0  0
 31 32  1  0  0  0  0
 31 51  1  0  0  0  0
 32 33  2  0  0  0  0
 32 52  1  0  0  0  0
 33 34  1  0  0  0  0
 33 53  1  0  0  0  0
 34 35  2  0  0  0  0
 34 54  1  0  0  0  0
 35 55  1  0  0  0  0
M  END
> <s_m_source_file>
AV-unprocessed.smi

> <i_m_source_file_index>
34

> <i_lp_mmshare_version>
43012

> <i_f3d_flags>
0

> <s_epik_input>
W2NIXTFbY0hdW2NIXVtjSF1bY0hdYzFDKD1PKVtOSF1jKG5bY0hdbjIpYyhjMjMpbltjSF1uM1tDQEBIXTRPW0NASF0oW0NAQEhdKEYpW0NASF00W09IXSlbQ0gyXU9DKD1PKWM1W2NIXVtjSF1bY0hdW2NIXVtjSF01

> <s_epik_cmdline>
J2VwaWtfcHl0aG9uJywgJy1waCcsICc3LjAnLCAnLXRuJywgJzgnLCAnLW1hJywgJzIwMCcsICctbWV0YWxfYmluZGluZycsICctaW1hZScsICc8aW5maWxlLm1hZT4nLCAnLW9tYWUnLCAnPG91dGZpbGUubWFlPic=

> <r_lp_tautomer_probability>
1

> <r_epik_Ionization_Penalty>
0.00257489

> <r_epik_Ionization_Penalty_Charging>
0

> <r_epik_Ionization_Penalty_Neutral>
0.00257489

> <r_epik_State_Penalty>
0.00519398

> <r_epik_Charging_Adjusted_Penalty>
0.00519398

> <i_epik_Tot_Q>
0

> <i_epik_Tot_abs_Q>
0

> <r_epik_Metal_State_Penalty>
0.335891

> <b_epik_Metal_Only>
0

> <s_epik_Chemistry_Notes>
This compound has an ester and may undergo hydrolysis at high or low pH. This compound contains an acetal/aminal-like group ( X-CH(R)-Y where X, Y are N, S, or O) that may be acid/base labile, releasing an aldehyde.

> <s_lp_Force_Field>
OPLS_2005

> <r_lp_Energy>
42.7442

> <b_lp_Chiralities_Consistent>
1

> <s_lp_Variant>
AV-unprocessed.smi:34-5

> <Gold.Version>
5.8.1

> <Gold.Id.Protein>
6NUR|6NUR_protein|mol2

> <Gold.PLP.Fitness>
58.0258

> <Gold.PLP.PLP>
-51.6865

> <Gold.PLP.part.hbond>
-1.7536

> <Gold.PLP.part.metal>
0.0000

> <Gold.PLP.part.buried>
-5.5479

> <Gold.PLP.part.nonpolar>
-45.8466

> <Gold.PLP.part.repulsive>
0.3697

> <Gold.PLP.ligand.clash>
0.0000

> <Gold.PLP.ligand.torsion>
1.2334

> <Gold.PLP.Chemscore.Hbond>
1.9920

> <Gold.PLP.Chemscore.CHOScore>
0.8454

> <Gold.PLP.Chemscore.Metal>
0.0000

> <Gold.Chemscore.Hbonds>
donor molecule, donor type, donor heavy atom, donor atom, acceptor molecule, acceptor atom, score
      L1  H    29    50       P1  7957  0.99
      P1  H  7989  7998       L1    14  1.00
      L1  C    11    38       P1  7948  0.72
      L1  C    11    38       P1  7949  0.13

> <Gold.PLP.Chemscore.Internal.Correction>
0.2939

> <Gold.Rescore>
     Score         DG    S(hbond)    S(metal)    S(lipo)     H(rot)  DE(clash)    DE(int)     intcor
     13.00     -17.92       1.64        0.00     118.98       2.72       1.07       3.85       ----

> <Gold.Chemscore.Fitness>
12.9984

> <Gold.Chemscore.DG>
-17.9200

> <Gold.Chemscore.ZeroCoef>
-5.4800

> <Gold.Chemscore.Hbond>
1.6426

> <Gold.Chemscore.Metal>
0.0000

> <Gold.Chemscore.Lipo>
118.9820

> <Gold.Chemscore.Internal_Hbond>
0.0000

> <Gold.Chemscore.DEClash>
1.0717

> <Gold.Chemscore.DEInternal>
3.8500

> <Gold.Chemscore.Rot>
2.7215

> <Gold.Chemscore.Internal.Correction>
   9.000000E+99

> <Gold.Chemscore.Hbonds>
donor molecule, donor type, donor heavy atom, donor atom, acceptor molecule, acceptor atom, score
      L1  H    29    50       P1  7957  0.88
      P1  H  7989  7998       L1    14  0.26

> <Gold.Chemscore.Hbond.Weighted>
-5.4862

> <Gold.Chemscore.Metal.Weighted>
-0.0000

> <Gold.Chemscore.Lipo.Weighted>
-13.9209

> <Gold.Chemscore.Internal_Hbond.Weighted>
0.0000

> <Gold.Chemscore.DEClash.Weighted>
1.0717

> <Gold.Chemscore.DEInternal.Weighted>
3.8500

> <Gold.Chemscore.Rot.Weighted>
6.9670

> <Gold.Chemscore.Internal.Correction.Weighted>
   9.000000E+99

> <Gold.Protein.RotatedTorsions>
[ 6907 6896 6895 6894 ] final   63.07 input  -60.11 | X-H torsion
[ 7974 7965 7964 7962 ] final   11.98 input  175.53 | X-H torsion
[ 8008 7997 7996 7995 ] final -110.51 input   59.86 | X-H torsion
[ 10167 10162 10161 10158 ] final   59.44 input  -65.29 | X-H torsion
[ 10718 10713 10712 10709 ] final  102.72 input   66.30 | X-H torsion
[ 10763 10752 10751 10750 ] final   65.83 input  -60.55 | X-H torsion
[ 11005 11000 10999 10996 ] final   58.91 input  -57.11 | X-H torsion

> <Gold.Protein.ActiveResidues>
 VAL166  LYS551  ARG553  GLY616  TRP617  ASP618  TYR619  PRO620  LYS621  CYS622 
 ASP623  PHE694  ASN695  SER759  ASP760  ASP761  ALA762  ILE779  LEU786  VAL792 
 PHE793  MET794  SER795  GLU796  ALA797  LYS798  CYS799  TRP800  GLU811  SER814 

> <Gold.Protein.RotatedAtoms>
  152.4223  134.5932  159.9979 H   0  0  0  0  0  0  0  0  0  0  0  0  # atno 6907 bound_to 6896
  151.6079  133.3344  159.3069 H   0  0  0  0  0  0  0  0  0  0  0  0  # atno 6908 bound_to 6896
  150.8111  134.7305  159.6755 H   0  0  0  0  0  0  0  0  0  0  0  0  # atno 6909 bound_to 6896
  146.2360  139.9405  142.8484 H   0  0  0  0  0  0  0  0  0  0  0  0  # atno 7974 bound_to 7965
  154.9756  140.0397  157.2254 H   0  0  0  0  0  0  0  0  0  0  0  0  # atno 8008 bound_to 7997
  154.7760  140.2810  155.6078 H   0  0  0  0  0  0  0  0  0  0  0  0  # atno 8009 bound_to 7997
  156.2929  140.2601  156.2575 H   0  0  0  0  0  0  0  0  0  0  0  0  # atno 8010 bound_to 7997
  140.1764  144.4226  150.6636 H   0  0  0  0  0  0  0  0  0  0  0  0  # atno 10167 bound_to 10162
  157.6794  131.0760  150.5446 H   0  0  0  0  0  0  0  0  0  0  0  0  # atno 10718 bound_to 10713
  153.0113  135.5342  154.6728 H   0  0  0  0  0  0  0  0  0  0  0  0  # atno 10763 bound_to 10752
  154.5908  135.2858  155.0639 H   0  0  0  0  0  0  0  0  0  0  0  0  # atno 10764 bound_to 10752
  154.1733  135.6528  153.5067 H   0  0  0  0  0  0  0  0  0  0  0  0  # atno 10765 bound_to 10752
  140.0342  134.5967  155.9466 H   0  0  0  0  0  0  0  0  0  0  0  0  # atno 11005 bound_to 11000
  145.1957  140.9832  143.4185 LP  0  0  0  0  0  0  0  0  0  0  0  0  # atno 17320 bound_to 7965
  144.9818  139.3776  143.6258 LP  0  0  0  0  0  0  0  0  0  0  0  0  # atno 17321 bound_to 7965
  140.6548  143.2235  151.5993 LP  0  0  0  0  0  0  0  0  0  0  0  0  # atno 17342 bound_to 10162
  139.5315  144.2902  152.1158 LP  0  0  0  0  0  0  0  0  0  0  0  0  # atno 17343 bound_to 10162
  156.5752  130.4290  149.6001 LP  0  0  0  0  0  0  0  0  0  0  0  0  # atno 17370 bound_to 10713
  156.2707  130.7015  151.1812 LP  0  0  0  0  0  0  0  0  0  0  0  0  # atno 17371 bound_to 10713
  141.1848  133.6553  156.5173 LP  0  0  0  0  0  0  0  0  0  0  0  0  # atno 17394 bound_to 11000
  140.4174  134.7218  157.4871 LP  0  0  0  0  0  0  0  0  0  0  0  0  # atno 17395 bound_to 11000

$$$$
