AV-unprocessed.smi:676|AV-procd|sdf|3307|dock6
  -GOLD-   22720 0273D 1   1.00000     0.00000
 Structure written by MMmdl.
 42 43  0  0  0  0  0  0  0  0  1 V2000
  148.3866  141.3393  153.0982 C   0  0  0  0  0  0  0  0  0  0  0  0
  147.2989  141.4520  154.0081 O   0  0  0  0  0  0  0  0  0  0  0  0
  146.8793  140.2607  154.6867 C   0  0  1  0  0  0  0  0  0  0  0  0
  146.2031  139.2992  153.7006 C   0  0  0  0  0  0  0  0  0  0  0  0
  148.0080  139.7383  155.5970 C   0  0  0  0  0  0  0  0  0  0  0  0
  147.4800  140.6398  156.7163 C   0  0  1  0  0  0  0  0  0  0  0  0
  148.1655  141.9314  156.7394 N   0  0  0  0  0  0  0  0  0  0  0  0
  149.4922  142.0968  156.6541 C   0  0  0  0  0  0  0  0  0  0  0  0
  150.2835  141.1608  156.5344 O   0  0  0  0  0  0  0  0  0  0  0  0
  149.9930  143.5469  156.6829 C   0  0  0  0  0  0  0  0  0  0  0  0
  150.8111  143.8452  157.8694 N   0  0  0  0  0  0  0  0  0  0  0  0
  150.2104  144.6099  158.8895 C   0  0  0  0  0  0  0  0  0  0  0  0
  150.8695  144.9388  160.0116 C   0  0  0  0  0  0  0  0  0  0  0  0
  152.2322  144.4851  160.1609 C   0  0  0  0  0  0  0  0  0  0  0  0
  152.8174  143.7568  159.1894 C   0  0  0  0  0  0  0  0  0  0  0  0
  152.1025  143.3999  157.9583 C   0  0  0  0  0  0  0  0  0  0  0  0
  152.6315  142.7396  157.0635 O   0  0  0  0  0  0  0  0  0  0  0  0
  146.1129  140.6755  155.9853 C   0  0  0  0  0  0  0  0  0  0  0  0
  145.3442  142.0070  155.9515 C   0  0  0  0  0  0  0  0  0  0  0  0
  145.1117  139.6440  156.5270 C   0  0  0  0  0  0  0  0  0  0  0  0
  148.6917  142.3379  152.7859 H   0  0  0  0  0  0  0  0  0  0  0  0
  148.1031  140.7943  152.1979 H   0  0  0  0  0  0  0  0  0  0  0  0
  149.2547  140.8542  153.5430 H   0  0  0  0  0  0  0  0  0  0  0  0
  145.7847  138.4284  154.2038 H   0  0  0  0  0  0  0  0  0  0  0  0
  146.9044  138.9111  152.9625 H   0  0  0  0  0  0  0  0  0  0  0  0
  145.3897  139.7893  153.1652 H   0  0  0  0  0  0  0  0  0  0  0  0
  147.8968  138.6791  155.8341 H   0  0  0  0  0  0  0  0  0  0  0  0
  149.0272  139.9544  155.2772 H   0  0  0  0  0  0  0  0  0  0  0  0
  147.4377  140.1430  157.6873 H   0  0  0  0  0  0  0  0  0  0  0  0
  147.5846  142.7535  156.8207 H   0  0  0  0  0  0  0  0  0  0  0  0
  150.5623  143.7262  155.7699 H   0  0  0  0  0  0  0  0  0  0  0  0
  149.1453  144.2331  156.6284 H   0  0  0  0  0  0  0  0  0  0  0  0
  149.1923  144.9157  158.6967 H   0  0  0  0  0  0  0  0  0  0  0  0
  150.3946  145.5306  160.7802 H   0  0  0  0  0  0  0  0  0  0  0  0
  152.7848  144.7308  161.0557 H   0  0  0  0  0  0  0  0  0  0  0  0
  153.8375  143.4257  159.3183 H   0  0  0  0  0  0  0  0  0  0  0  0
  144.9993  142.2925  156.9460 H   0  0  0  0  0  0  0  0  0  0  0  0
  144.4678  141.9431  155.3060 H   0  0  0  0  0  0  0  0  0  0  0  0
  145.9476  142.8348  155.5798 H   0  0  0  0  0  0  0  0  0  0  0  0
  144.7658  139.9118  157.5260 H   0  0  0  0  0  0  0  0  0  0  0  0
  145.5516  138.6492  156.6032 H   0  0  0  0  0  0  0  0  0  0  0  0
  144.2316  139.5607  155.8886 H   0  0  0  0  0  0  0  0  0  0  0  0
  1  2  1  0  0  0  0
  1 21  1  0  0  0  0
  1 22  1  0  0  0  0
  1 23  1  0  0  0  0
  2  3  1  0  0  0  0
  3 18  1  0  0  0  0
  3  4  1  0  0  0  0
  3  5  1  0  0  0  0
  4 24  1  0  0  0  0
  4 25  1  0  0  0  0
  4 26  1  0  0  0  0
  5  6  1  0  0  0  0
  5 27  1  0  0  0  0
  5 28  1  0  0  0  0
  6  7  1  0  0  0  0
  6 18  1  0  0  0  0
  6 29  1  0  0  0  0
  7  8  1  0  0  0  0
  7 30  1  0  0  0  0
  8  9  2  0  0  0  0
  8 10  1  0  0  0  0
 10 11  1  0  0  0  0
 10 31  1  0  0  0  0
 10 32  1  0  0  0  0
 11 16  1  0  0  0  0
 11 12  1  0  0  0  0
 12 13  2  0  0  0  0
 12 33  1  0  0  0  0
 13 14  1  0  0  0  0
 13 34  1  0  0  0  0
 14 15  2  0  0  0  0
 14 35  1  0  0  0  0
 15 16  1  0  0  0  0
 15 36  1  0  0  0  0
 16 17  2  0  0  0  0
 18 19  1  0  0  0  0
 18 20  1  0  0  0  0
 19 37  1  0  0  0  0
 19 38  1  0  0  0  0
 19 39  1  0  0  0  0
 20 40  1  0  0  0  0
 20 41  1  0  0  0  0
 20 42  1  0  0  0  0
M  END
> <s_m_source_file>
AV-unprocessed.smi

> <i_m_source_file_index>
676

> <i_lp_mmshare_version>
43012

> <i_f3d_flags>
0

> <s_epik_input>
W0NIM11PW0NAQF0xKFtDSDNdKVtDSDJdW0NASF0oQzEoW0NIM10pW0NIM10pW05IXUMoPU8pW0NIMl1uMltjSF1bY0hdW2NIXVtjSF1jMj1P

> <s_epik_cmdline>
J2VwaWtfcHl0aG9uJywgJy1waCcsICc3LjAnLCAnLXRuJywgJzgnLCAnLW1hJywgJzIwMCcsICctbWV0YWxfYmluZGluZycsICctaW1hZScsICc8aW5maWxlLm1hZT4nLCAnLW9tYWUnLCAnPG91dGZpbGUubWFlPic=

> <r_lp_tautomer_probability>
1

> <r_epik_Ionization_Penalty>
4.09771e-07

> <r_epik_Ionization_Penalty_Charging>
3.90712e-07

> <r_epik_Ionization_Penalty_Neutral>
1.90591e-08

> <r_epik_State_Penalty>
-0

> <r_epik_Charging_Adjusted_Penalty>
3.90712e-07

> <i_epik_Tot_Q>
0

> <i_epik_Tot_abs_Q>
0

> <r_epik_Metal_State_Penalty>
-0

> <b_epik_Metal_Only>
0

> <s_lp_Force_Field>
OPLS_2005

> <r_lp_Energy>
33.6273

> <b_lp_Chiralities_Consistent>
1

> <s_lp_Variant>
AV-unprocessed.smi:676-1

> <Gold.Version>
5.8.1

> <Gold.Id.Protein>
6NUR|6NUR_protein|mol2

> <Gold.PLP.Fitness>
41.6522

> <Gold.PLP.PLP>
-36.5222

> <Gold.PLP.part.hbond>
-1.0000

> <Gold.PLP.part.metal>
0.0000

> <Gold.PLP.part.buried>
-5.9801

> <Gold.PLP.part.nonpolar>
-30.8504

> <Gold.PLP.part.repulsive>
0.1427

> <Gold.PLP.ligand.clash>
0.0000

> <Gold.PLP.ligand.torsion>
0.6172

> <Gold.PLP.Chemscore.Hbond>
0.9920

> <Gold.PLP.Chemscore.CHOScore>
1.0000

> <Gold.PLP.Chemscore.Metal>
0.0000

> <Gold.Chemscore.Hbonds>
donor molecule, donor type, donor heavy atom, donor atom, acceptor molecule, acceptor atom, score
      L1  C    12    33       P1  8029  1.00

> <Gold.PLP.Chemscore.Internal.Correction>
0.3884

> <Gold.Rescore>
     Score         DG    S(hbond)    S(metal)    S(lipo)     H(rot)  DE(clash)    DE(int)     intcor
     12.38     -14.54       0.97        0.00      85.12       1.62       0.01       2.14       ----

> <Gold.Chemscore.Fitness>
12.3843

> <Gold.Chemscore.DG>
-14.5359

> <Gold.Chemscore.ZeroCoef>
-5.4800

> <Gold.Chemscore.Hbond>
0.9692

> <Gold.Chemscore.Metal>
0.0000

> <Gold.Chemscore.Lipo>
85.1248

> <Gold.Chemscore.Internal_Hbond>
0.0000

> <Gold.Chemscore.DEClash>
0.0126

> <Gold.Chemscore.DEInternal>
2.1390

> <Gold.Chemscore.Rot>
1.6175

> <Gold.Chemscore.Internal.Correction>
   9.000000E+99

> <Gold.Chemscore.Hbond.Weighted>
-3.2370

> <Gold.Chemscore.Metal.Weighted>
-0.0000

> <Gold.Chemscore.Lipo.Weighted>
-9.9596

> <Gold.Chemscore.Internal_Hbond.Weighted>
0.0000

> <Gold.Chemscore.DEClash.Weighted>
0.0126

> <Gold.Chemscore.DEInternal.Weighted>
2.1390

> <Gold.Chemscore.Rot.Weighted>
4.1408

> <Gold.Chemscore.Internal.Correction.Weighted>
   9.000000E+99

> <Gold.Protein.RotatedTorsions>
[ 6907 6896 6895 6894 ] final -104.27 input  -60.11 | X-H torsion
[ 7974 7965 7964 7962 ] final  161.94 input  175.53 | X-H torsion
[ 8008 7997 7996 7995 ] final -137.93 input   59.86 | X-H torsion
[ 10167 10162 10161 10158 ] final  173.66 input  -65.29 | X-H torsion
[ 10718 10713 10712 10709 ] final  160.87 input   66.30 | X-H torsion
[ 10763 10752 10751 10750 ] final  -56.05 input  -60.55 | X-H torsion
[ 11005 11000 10999 10996 ] final  -17.26 input  -57.11 | X-H torsion

> <Gold.Protein.ActiveResidues>
 VAL166  LYS551  ARG553  GLY616  TRP617  ASP618  TYR619  PRO620  LYS621  CYS622 
 ASP623  PHE694  ASN695  SER759  ASP760  ASP761  ALA762  ILE779  LEU786  VAL792 
 PHE793  MET794  SER795  GLU796  ALA797  LYS798  CYS799  TRP800  GLU811  SER814 

> <Gold.Protein.RotatedAtoms>
  150.7279  134.0302  159.3730 H   0  0  0  0  0  0  0  0  0  0  0  0  # atno 6907 bound_to 6896
  151.8271  135.0631  160.0441 H   0  0  0  0  0  0  0  0  0  0  0  0  # atno 6908 bound_to 6896
  152.2961  133.5572  159.5624 H   0  0  0  0  0  0  0  0  0  0  0  0  # atno 6909 bound_to 6896
  144.7661  139.7970  143.6315 H   0  0  0  0  0  0  0  0  0  0  0  0  # atno 7974 bound_to 7965
  155.4200  140.0518  157.3026 H   0  0  0  0  0  0  0  0  0  0  0  0  # atno 8008 bound_to 7997
  154.4907  140.2119  155.9514 H   0  0  0  0  0  0  0  0  0  0  0  0  # atno 8009 bound_to 7997
  156.1338  140.3167  155.8394 H   0  0  0  0  0  0  0  0  0  0  0  0  # atno 8010 bound_to 7997
  139.5115  144.3236  152.0179 H   0  0  0  0  0  0  0  0  0  0  0  0  # atno 10167 bound_to 10162
  157.1445  131.0548  151.2310 H   0  0  0  0  0  0  0  0  0  0  0  0  # atno 10718 bound_to 10713
  154.2005  135.6412  153.5086 H   0  0  0  0  0  0  0  0  0  0  0  0  # atno 10763 bound_to 10752
  153.0013  135.5450  154.6320 H   0  0  0  0  0  0  0  0  0  0  0  0  # atno 10764 bound_to 10752
  154.5732  135.2918  155.0780 H   0  0  0  0  0  0  0  0  0  0  0  0  # atno 10765 bound_to 10752
  140.8150  133.8112  155.9601 H   0  0  0  0  0  0  0  0  0  0  0  0  # atno 11005 bound_to 11000
  146.1769  139.4943  142.9892 LP  0  0  0  0  0  0  0  0  0  0  0  0  # atno 17320 bound_to 7965
  145.6467  141.0272  143.1782 LP  0  0  0  0  0  0  0  0  0  0  0  0  # atno 17321 bound_to 7965
  140.2677  144.3998  150.6162 LP  0  0  0  0  0  0  0  0  0  0  0  0  # atno 17342 bound_to 10162
  140.6111  143.2169  151.6884 LP  0  0  0  0  0  0  0  0  0  0  0  0  # atno 17343 bound_to 10162
  157.4277  130.7473  149.6964 LP  0  0  0  0  0  0  0  0  0  0  0  0  # atno 17370 bound_to 10713
  155.9782  130.4054  150.3662 LP  0  0  0  0  0  0  0  0  0  0  0  0  # atno 17371 bound_to 10713
  140.9158  134.2203  157.4957 LP  0  0  0  0  0  0  0  0  0  0  0  0  # atno 17394 bound_to 11000
  139.8711  134.9770  156.4944 LP  0  0  0  0  0  0  0  0  0  0  0  0  # atno 17395 bound_to 11000

$$$$
