AV-unprocessed.smi:1976|AV-procd|sdf|7983|dock9
  -GOLD-   2272010163D 1   1.00000     0.00000
 Structure written by MMmdl.
 45 47  0  0  0  0  0  0  0  0  2 V2000
  148.6640  141.6915  156.6220 O   0  0  0  0  0  0  0  0  0  0  0  0
  149.3366  141.3883  155.6356 C   0  0  0  0  0  0  0  0  0  0  0  0
  150.8576  141.2044  155.7399 C   0  0  0  0  0  0  0  0  0  0  0  0
  151.3849  141.4329  157.0959 N   0  0  0  0  0  0  0  0  0  0  0  0
  151.0233  142.6379  157.7296 C   0  0  0  0  0  0  0  0  0  0  0  0
  151.4275  142.9627  158.9725 C   0  0  0  0  0  0  0  0  0  0  0  0
  151.0708  144.2988  159.6056 C   0  0  0  0  0  0  0  0  0  0  0  0
  151.6383  144.4285  160.8050 F   0  0  0  0  0  0  0  0  0  0  0  0
  151.4696  145.3162  158.8410 F   0  0  0  0  0  0  0  0  0  0  0  0
  149.7503  144.3890  159.7592 F   0  0  0  0  0  0  0  0  0  0  0  0
  152.2976  142.0119  159.6368 C   0  0  0  0  0  0  0  0  0  0  0  0
  152.6645  140.8612  159.0394 C   0  0  0  0  0  0  0  0  0  0  0  0
  152.2018  140.5145  157.6936 C   0  0  0  0  0  0  0  0  0  0  0  0
  152.5284  139.4658  157.1369 O   0  0  0  0  0  0  0  0  0  0  0  0
  148.8023  141.1823  154.4230 N   0  0  0  0  0  0  0  0  0  0  0  0
  147.3831  141.3082  154.1103 C   0  0  2  0  0  0  0  0  0  0  0  0
  146.8672  142.7606  154.1037 C   0  0  0  0  0  0  0  0  0  0  0  0
  145.4541  142.6948  154.7162 C   0  0  0  0  0  0  0  0  0  0  0  0
  145.1928  141.2600  154.9403 N   0  3  2  0  0  0  0  0  0  0  0  0
  144.2011  140.9087  155.9801 C   0  0  0  0  0  0  0  0  0  0  0  0
  144.0146  139.3782  156.0103 C   0  0  0  0  0  0  0  0  0  0  0  0
  145.3602  138.6392  156.1639 C   0  0  0  0  0  0  0  0  0  0  0  0
  146.3790  139.1125  155.1086 C   0  0  0  0  0  0  0  0  0  0  0  0
  146.5076  140.6433  155.1715 C   0  0  1  0  0  0  0  0  0  0  0  0
  151.1027  140.1974  155.4001 H   0  0  0  0  0  0  0  0  0  0  0  0
  151.3501  141.8714  155.0296 H   0  0  0  0  0  0  0  0  0  0  0  0
  150.4013  143.2900  157.1337 H   0  0  0  0  0  0  0  0  0  0  0  0
  152.6594  142.2242  160.6320 H   0  0  0  0  0  0  0  0  0  0  0  0
  153.3136  140.1761  159.5647 H   0  0  0  0  0  0  0  0  0  0  0  0
  149.4216  140.9305  153.6659 H   0  0  0  0  0  0  0  0  0  0  0  0
  147.1776  140.8491  153.1408 H   0  0  0  0  0  0  0  0  0  0  0  0
  147.5009  143.4105  154.7093 H   0  0  0  0  0  0  0  0  0  0  0  0
  146.8537  143.1672  153.0917 H   0  0  0  0  0  0  0  0  0  0  0  0
  145.4330  143.2326  155.6654 H   0  0  0  0  0  0  0  0  0  0  0  0
  144.6966  143.1293  154.0635 H   0  0  0  0  0  0  0  0  0  0  0  0
  144.5367  141.2727  156.9524 H   0  0  0  0  0  0  0  0  0  0  0  0
  143.2519  141.3993  155.7611 H   0  0  0  0  0  0  0  0  0  0  0  0
  143.3403  139.1000  156.8209 H   0  0  0  0  0  0  0  0  0  0  0  0
  143.5326  139.0562  155.0862 H   0  0  0  0  0  0  0  0  0  0  0  0
  145.7611  138.8219  157.1617 H   0  0  0  0  0  0  0  0  0  0  0  0
  145.2087  137.5621  156.0848 H   0  0  0  0  0  0  0  0  0  0  0  0
  147.3473  138.6429  155.2846 H   0  0  0  0  0  0  0  0  0  0  0  0
  146.0545  138.8015  154.1145 H   0  0  0  0  0  0  0  0  0  0  0  0
  146.8592  140.9381  156.1633 H   0  0  0  0  0  0  0  0  0  0  0  0
  144.8543  140.8892  154.0638 H   0  0  0  0  0  0  0  0  0  0  0  0
  1  2  2  0  0  0  0
  2  3  1  0  0  0  0
  2 15  1  0  0  0  0
  3  4  1  0  0  0  0
  3 25  1  0  0  0  0
  3 26  1  0  0  0  0
  4 13  1  0  0  0  0
  4  5  1  0  0  0  0
  5  6  2  0  0  0  0
  5 27  1  0  0  0  0
  6  7  1  0  0  0  0
  6 11  1  0  0  0  0
  7  8  1  0  0  0  0
  7  9  1  0  0  0  0
  7 10  1  0  0  0  0
 11 12  2  0  0  0  0
 11 28  1  0  0  0  0
 12 13  1  0  0  0  0
 12 29  1  0  0  0  0
 13 14  2  0  0  0  0
 15 16  1  0  0  0  0
 15 30  1  0  0  0  0
 16 24  1  0  0  0  0
 16 17  1  0  0  0  0
 16 31  1  0  0  0  0
 17 18  1  0  0  0  0
 17 32  1  0  0  0  0
 17 33  1  0  0  0  0
 18 19  1  0  0  0  0
 18 34  1  0  0  0  0
 18 35  1  0  0  0  0
 19 24  1  0  0  0  0
 19 20  1  0  0  0  0
 19 45  1  0  0  0  0
 20 21  1  0  0  0  0
 20 36  1  0  0  0  0
 20 37  1  0  0  0  0
 21 22  1  0  0  0  0
 21 38  1  0  0  0  0
 21 39  1  0  0  0  0
 22 23  1  0  0  0  0
 22 40  1  0  0  0  0
 22 41  1  0  0  0  0
 23 24  1  0  0  0  0
 23 42  1  0  0  0  0
 23 43  1  0  0  0  0
 24 44  1  0  0  0  0
M  CHG  1  19   1
M  END
> <s_m_source_file>
AV-unprocessed.smi

> <i_m_source_file_index>
1976

> <i_lp_mmshare_version>
43012

> <i_f3d_flags>
0

> <s_epik_input>
W0NIMl0xW0NIMl1bQ0gyXVtDSDJdW0NASF0oTjEyKVtDQEBIXShbQ0gyXVtDSDJdMilbTkhdQyg9TylbQ0gyXW4zW2NIXWMoQyhGKShGKUYpW2NIXVtjSF1jMz1P

> <s_epik_cmdline>
J2VwaWtfcHl0aG9uJywgJy1waCcsICc3LjAnLCAnLXRuJywgJzgnLCAnLW1hJywgJzIwMCcsICctbWV0YWxfYmluZGluZycsICctaW1hZScsICc8aW5maWxlLm1hZT4nLCAnLW9tYWUnLCAnPG91dGZpbGUubWFlPic=

> <r_lp_tautomer_probability>
1

> <r_epik_Ionization_Penalty>
0.00171506

> <r_epik_Ionization_Penalty_Charging>
0.00171498

> <r_epik_Ionization_Penalty_Neutral>
7.81737e-08

> <r_epik_State_Penalty>
0.00115937

> <r_epik_Charging_Adjusted_Penalty>
0.00287436

> <i_epik_Tot_Q>
1

> <i_epik_Tot_abs_Q>
1

> <r_epik_Metal_State_Penalty>
-0

> <b_epik_Metal_Only>
0

> <s_lp_Force_Field>
OPLS_2005

> <r_lp_Energy>
45.9566

> <b_lp_Chiralities_Consistent>
1

> <s_lp_Variant>
AV-unprocessed.smi:1976-1

> <Gold.Version>
5.8.1

> <Gold.Id.Protein>
6NUR|6NUR_protein|mol2

> <Gold.PLP.Fitness>
52.7960

> <Gold.PLP.PLP>
-41.7071

> <Gold.PLP.part.hbond>
-2.0000

> <Gold.PLP.part.metal>
0.0000

> <Gold.PLP.part.buried>
-5.7569

> <Gold.PLP.part.nonpolar>
-34.2909

> <Gold.PLP.part.repulsive>
0.3091

> <Gold.PLP.ligand.clash>
0.0000

> <Gold.PLP.ligand.torsion>
0.2524

> <Gold.PLP.Chemscore.Hbond>
2.8500

> <Gold.PLP.Chemscore.CHOScore>
0.9985

> <Gold.PLP.Chemscore.Metal>
0.0000

> <Gold.Chemscore.Hbonds>
donor molecule, donor type, donor heavy atom, donor atom, acceptor molecule, acceptor atom, score
      L1  H    19    45       P1 10175  2.00
      P1  H  7997  8010       L1    14  0.84
      L1  C     5    27       P1  8028  0.97

> <Gold.PLP.Chemscore.Internal.Correction>
0.0482

> <Gold.Rescore>
     Score         DG    S(hbond)    S(metal)    S(lipo)     H(rot)  DE(clash)    DE(int)     intcor
     12.68     -16.07       1.76        0.00      74.98       1.58       0.29       3.11       ----

> <Gold.Chemscore.Fitness>
12.6761

> <Gold.Chemscore.DG>
-16.0698

> <Gold.Chemscore.ZeroCoef>
-5.4800

> <Gold.Chemscore.Hbond>
1.7574

> <Gold.Chemscore.Metal>
0.0000

> <Gold.Chemscore.Lipo>
74.9777

> <Gold.Chemscore.Internal_Hbond>
0.0000

> <Gold.Chemscore.DEClash>
0.2866

> <Gold.Chemscore.DEInternal>
3.1071

> <Gold.Chemscore.Rot>
1.5830

> <Gold.Chemscore.Internal.Correction>
   9.000000E+99

> <Gold.Chemscore.Hbonds>
donor molecule, donor type, donor heavy atom, donor atom, acceptor molecule, acceptor atom, score
      L1  H    19    45       P1 10175  0.90
      P1  H  7997  8010       L1    14  0.14

> <Gold.Chemscore.Hbond.Weighted>
-5.8698

> <Gold.Chemscore.Metal.Weighted>
-0.0000

> <Gold.Chemscore.Lipo.Weighted>
-8.7724

> <Gold.Chemscore.Internal_Hbond.Weighted>
0.0000

> <Gold.Chemscore.DEClash.Weighted>
0.2866

> <Gold.Chemscore.DEInternal.Weighted>
3.1071

> <Gold.Chemscore.Rot.Weighted>
4.0524

> <Gold.Chemscore.Internal.Correction.Weighted>
   9.000000E+99

> <Gold.Protein.RotatedTorsions>
[ 6907 6896 6895 6894 ] final  -50.01 input  -60.11 | X-H torsion
[ 7974 7965 7964 7962 ] final -165.80 input  175.53 | X-H torsion
[ 8008 7997 7996 7995 ] final   70.52 input   59.86 | X-H torsion
[ 10167 10162 10161 10158 ] final   26.87 input  -65.29 | X-H torsion
[ 10718 10713 10712 10709 ] final   11.75 input   66.30 | X-H torsion
[ 10763 10752 10751 10750 ] final   42.87 input  -60.55 | X-H torsion
[ 11005 11000 10999 10996 ] final   81.61 input  -57.11 | X-H torsion

> <Gold.Protein.ActiveResidues>
 VAL166  LYS551  ARG553  GLY616  TRP617  ASP618  TYR619  PRO620  LYS621  CYS622 
 ASP623  PHE694  ASN695  SER759  ASP760  ASP761  ALA762  ILE779  LEU786  VAL792 
 PHE793  MET794  SER795  GLU796  ALA797  LYS798  CYS799  TRP800  GLU811  SER814 

> <Gold.Protein.RotatedAtoms>
  150.8749  134.8130  159.7182 H   0  0  0  0  0  0  0  0  0  0  0  0  # atno 6907 bound_to 6896
  152.4740  134.4887  159.9698 H   0  0  0  0  0  0  0  0  0  0  0  0  # atno 6908 bound_to 6896
  151.4970  133.3474  159.2898 H   0  0  0  0  0  0  0  0  0  0  0  0  # atno 6909 bound_to 6896
  144.7261  140.2760  143.6243 H   0  0  0  0  0  0  0  0  0  0  0  0  # atno 7974 bound_to 7965
  155.7401  140.3490  155.5100 H   0  0  0  0  0  0  0  0  0  0  0  0  # atno 8008 bound_to 7997
  155.9102  140.1049  157.1306 H   0  0  0  0  0  0  0  0  0  0  0  0  # atno 8009 bound_to 7997
  154.4055  140.1269  156.4535 H   0  0  0  0  0  0  0  0  0  0  0  0  # atno 8010 bound_to 7997
  140.4986  144.0351  150.6324 H   0  0  0  0  0  0  0  0  0  0  0  0  # atno 10167 bound_to 10162
  157.0001  130.6076  149.5695 H   0  0  0  0  0  0  0  0  0  0  0  0  # atno 10718 bound_to 10713
  152.9873  135.6118  154.3020 H   0  0  0  0  0  0  0  0  0  0  0  0  # atno 10763 bound_to 10752
  154.2740  135.2779  155.2728 H   0  0  0  0  0  0  0  0  0  0  0  0  # atno 10764 bound_to 10752
  154.5097  135.5844  153.6652 H   0  0  0  0  0  0  0  0  0  0  0  0  # atno 10765 bound_to 10752
  139.9092  134.8009  156.2064 H   0  0  0  0  0  0  0  0  0  0  0  0  # atno 11005 bound_to 11000
  145.7996  139.1959  143.2055 LP  0  0  0  0  0  0  0  0  0  0  0  0  # atno 17320 bound_to 7965
  146.0687  140.7892  142.9698 LP  0  0  0  0  0  0  0  0  0  0  0  0  # atno 17321 bound_to 7965
  140.3641  143.2891  152.0351 LP  0  0  0  0  0  0  0  0  0  0  0  0  # atno 17342 bound_to 10162
  139.4867  144.6280  151.7125 LP  0  0  0  0  0  0  0  0  0  0  0  0  # atno 17343 bound_to 10162
  156.0174  130.5269  150.8176 LP  0  0  0  0  0  0  0  0  0  0  0  0  # atno 17370 bound_to 10713
  157.5396  131.0940  150.9845 LP  0  0  0  0  0  0  0  0  0  0  0  0  # atno 17371 bound_to 10713
  141.0493  133.6897  156.1741 LP  0  0  0  0  0  0  0  0  0  0  0  0  # atno 17394 bound_to 11000
  140.6835  134.4741  157.5589 LP  0  0  0  0  0  0  0  0  0  0  0  0  # atno 17395 bound_to 11000

$$$$
