AV-unprocessed.smi:2528|AV-procd|sdf|9948|dock1
  -GOLD-   2272013593D 1   1.00000     0.00000
 Structure written by MMmdl.
 44 46  0  0  0  0  0  0  0  0  2 V2000
  152.5403  140.2518  157.4810 O   0  0  0  0  0  0  0  0  0  0  0  0
  151.4123  140.5693  157.1038 C   0  0  0  0  0  0  0  0  0  0  0  0
  150.6699  139.8144  156.2810 N   0  0  0  0  0  0  0  0  0  0  0  0
  151.0776  138.5269  155.7239 C   0  0  0  0  0  0  0  0  0  0  0  0
  149.9546  137.8214  154.9353 C   0  0  2  0  0  0  0  0  0  0  0  0
  149.0457  138.7873  154.1471 C   0  0  0  0  0  0  0  0  0  0  0  0
  147.9828  138.0385  153.4379 N   0  3  2  0  0  0  0  0  0  0  0  0
  147.1058  138.9277  152.6349 C   0  0  0  0  0  0  0  0  0  0  0  0
  146.0726  138.1140  151.8399 C   0  0  0  0  0  0  0  0  0  0  0  0
  145.2418  137.2277  152.7762 C   0  0  0  0  0  0  0  0  0  0  0  0
  146.1688  136.3372  153.6141 C   0  0  0  0  0  0  0  0  0  0  0  0
  147.2159  137.1742  154.3764 C   0  0  1  0  0  0  0  0  0  0  0  0
  148.1830  136.2696  155.1650 C   0  0  0  0  0  0  0  0  0  0  0  0
  149.1559  137.0604  155.8343 O   0  0  0  0  0  0  0  0  0  0  0  0
  150.7645  141.6957  157.4497 N   0  0  0  0  0  0  0  0  0  0  0  0
  151.2042  142.7271  158.3219 C   0  0  0  0  0  0  0  0  0  0  0  0
  152.1193  142.3189  159.3188 C   0  0  0  0  0  0  0  0  0  0  0  0
  152.6166  143.2681  160.2329 C   0  0  0  0  0  0  0  0  0  0  0  0
  152.1861  144.6026  160.1260 C   0  0  0  0  0  0  0  0  0  0  0  0
  151.2751  144.9256  159.1037 C   0  0  0  0  0  0  0  0  0  0  0  0
  150.7976  144.0178  158.2263 N   0  0  0  0  0  0  0  0  0  0  0  0
  149.7574  140.1560  156.0166 H   0  0  0  0  0  0  0  0  0  0  0  0
  151.9203  138.7143  155.0581 H   0  0  0  0  0  0  0  0  0  0  0  0
  151.4555  137.8737  156.5122 H   0  0  0  0  0  0  0  0  0  0  0  0
  150.4310  137.1318  154.2360 H   0  0  0  0  0  0  0  0  0  0  0  0
  148.5812  139.5129  154.8166 H   0  0  0  0  0  0  0  0  0  0  0  0
  149.6397  139.3498  153.4257 H   0  0  0  0  0  0  0  0  0  0  0  0
  146.5987  139.6342  153.2941 H   0  0  0  0  0  0  0  0  0  0  0  0
  147.7145  139.5159  151.9471 H   0  0  0  0  0  0  0  0  0  0  0  0
  145.4179  138.7842  151.2821 H   0  0  0  0  0  0  0  0  0  0  0  0
  146.5824  137.4934  151.1018 H   0  0  0  0  0  0  0  0  0  0  0  0
  144.6345  137.8514  153.4334 H   0  0  0  0  0  0  0  0  0  0  0  0
  144.5494  136.6139  152.1991 H   0  0  0  0  0  0  0  0  0  0  0  0
  145.5764  135.7497  154.3166 H   0  0  0  0  0  0  0  0  0  0  0  0
  146.6707  135.6221  152.9607 H   0  0  0  0  0  0  0  0  0  0  0  0
  146.6964  137.8222  155.0852 H   0  0  0  0  0  0  0  0  0  0  0  0
  147.6352  135.6915  155.9095 H   0  0  0  0  0  0  0  0  0  0  0  0
  148.6762  135.5522  154.5069 H   0  0  0  0  0  0  0  0  0  0  0  0
  149.8502  141.8313  157.0452 H   0  0  0  0  0  0  0  0  0  0  0  0
  152.4393  141.2894  159.3883 H   0  0  0  0  0  0  0  0  0  0  0  0
  153.3155  142.9759  161.0026 H   0  0  0  0  0  0  0  0  0  0  0  0
  152.5447  145.3587  160.8087 H   0  0  0  0  0  0  0  0  0  0  0  0
  150.9200  145.9388  158.9866 H   0  0  0  0  0  0  0  0  0  0  0  0
  148.4460  137.4203  152.7872 H   0  0  0  0  0  0  0  0  0  0  0  0
  1  2  2  0  0  0  0
  2  3  1  0  0  0  0
  2 15  1  0  0  0  0
  3  4  1  0  0  0  0
  3 22  1  0  0  0  0
  4  5  1  0  0  0  0
  4 23  1  0  0  0  0
  4 24  1  0  0  0  0
  5 14  1  0  0  0  0
  5  6  1  0  0  0  0
  5 25  1  0  0  0  0
  6  7  1  0  0  0  0
  6 26  1  0  0  0  0
  6 27  1  0  0  0  0
  7 12  1  0  0  0  0
  7  8  1  0  0  0  0
  7 44  1  0  0  0  0
  8  9  1  0  0  0  0
  8 28  1  0  0  0  0
  8 29  1  0  0  0  0
  9 10  1  0  0  0  0
  9 30  1  0  0  0  0
  9 31  1  0  0  0  0
 10 11  1  0  0  0  0
 10 32  1  0  0  0  0
 10 33  1  0  0  0  0
 11 12  1  0  0  0  0
 11 34  1  0  0  0  0
 11 35  1  0  0  0  0
 12 13  1  0  0  0  0
 12 36  1  0  0  0  0
 13 14  1  0  0  0  0
 13 37  1  0  0  0  0
 13 38  1  0  0  0  0
 15 16  1  0  0  0  0
 15 39  1  0  0  0  0
 16 21  1  0  0  0  0
 16 17  2  0  0  0  0
 17 18  1  0  0  0  0
 17 40  1  0  0  0  0
 18 19  2  0  0  0  0
 18 41  1  0  0  0  0
 19 20  1  0  0  0  0
 19 42  1  0  0  0  0
 20 21  2  0  0  0  0
 20 43  1  0  0  0  0
M  CHG  1   7   1
M  END
> <s_m_source_file>
AV-unprocessed.smi

> <i_m_source_file_index>
2528

> <i_lp_mmshare_version>
43012

> <i_f3d_flags>
0

> <s_epik_input>
bjFbY0hdW2NIXVtjSF1bY0hdYzFbTkhdQyg9TylbTkhdW0NIMl1bQ0BIXShbQ0gyXTIpT1tDSDJdW0NAQEhdKE4yMylbQ0gyXVtDSDJdW0NIMl1bQ0gyXTM=

> <s_epik_cmdline>
J2VwaWtfcHl0aG9uJywgJy1waCcsICc3LjAnLCAnLXRuJywgJzgnLCAnLW1hJywgJzIwMCcsICctbWV0YWxfYmluZGluZycsICctaW1hZScsICc8aW5maWxlLm1hZT4nLCAnLW9tYWUnLCAnPG91dGZpbGUubWFlPic=

> <r_epik_Ionization_Penalty>
0.0932337

> <r_epik_Ionization_Penalty_Charging>
0.0931942

> <r_epik_Ionization_Penalty_Neutral>
3.9565e-05

> <r_epik_State_Penalty>
0.0834605

> <r_epik_Charging_Adjusted_Penalty>
0.176655

> <i_epik_Tot_Q>
1

> <i_epik_Tot_abs_Q>
1

> <r_epik_Metal_State_Penalty>
0.0834607

> <b_epik_Metal_Only>
0

> <s_lp_Force_Field>
OPLS_2005

> <r_lp_Energy>
24.6959

> <b_lp_Chiralities_Consistent>
1

> <s_lp_Variant>
AV-unprocessed.smi:2528-1

> <Gold.Version>
5.8.1

> <Gold.Id.Protein>
6NUR|6NUR_protein|mol2

> <Gold.PLP.Fitness>
40.6014

> <Gold.PLP.PLP>
-32.5827

> <Gold.PLP.part.hbond>
-2.0000

> <Gold.PLP.part.metal>
0.0000

> <Gold.PLP.part.buried>
-0.8102

> <Gold.PLP.part.nonpolar>
-30.2739

> <Gold.PLP.part.repulsive>
0.3638

> <Gold.PLP.ligand.clash>
0.0000

> <Gold.PLP.ligand.torsion>
0.4571

> <Gold.PLP.Chemscore.Hbond>
2.9760

> <Gold.PLP.Chemscore.CHOScore>
0.0000

> <Gold.PLP.Chemscore.Metal>
0.0000

> <Gold.Chemscore.Hbonds>
donor molecule, donor type, donor heavy atom, donor atom, acceptor molecule, acceptor atom, score
      L1  H     7    44       P1  7948  2.00
      P1  H  7997  8008       L1     1  0.99

> <Gold.PLP.Chemscore.Internal.Correction>
0.0049

> <Gold.Rescore>
     Score         DG    S(hbond)    S(metal)    S(lipo)     H(rot)  DE(clash)    DE(int)     intcor
     17.08     -19.01       1.95        0.00      88.06       1.29       0.15       1.78       ----

> <Gold.Chemscore.Fitness>
17.0810

> <Gold.Chemscore.DG>
-19.0132

> <Gold.Chemscore.ZeroCoef>
-5.4800

> <Gold.Chemscore.Hbond>
1.9534

> <Gold.Chemscore.Metal>
0.0000

> <Gold.Chemscore.Lipo>
88.0643

> <Gold.Chemscore.Internal_Hbond>
0.0000

> <Gold.Chemscore.DEClash>
0.1515

> <Gold.Chemscore.DEInternal>
1.7807

> <Gold.Chemscore.Rot>
1.2870

> <Gold.Chemscore.Internal.Correction>
   9.000000E+99

> <Gold.Chemscore.Hbonds>
donor molecule, donor type, donor heavy atom, donor atom, acceptor molecule, acceptor atom, score
      L1  H     7    44       P1  7948  0.97
      P1  H  7997  8008       L1     1  0.89

> <Gold.Chemscore.Hbond.Weighted>
-6.5245

> <Gold.Chemscore.Metal.Weighted>
-0.0000

> <Gold.Chemscore.Lipo.Weighted>
-10.3035

> <Gold.Chemscore.Internal_Hbond.Weighted>
0.0000

> <Gold.Chemscore.DEClash.Weighted>
0.1515

> <Gold.Chemscore.DEInternal.Weighted>
1.7807

> <Gold.Chemscore.Rot.Weighted>
3.2948

> <Gold.Chemscore.Internal.Correction.Weighted>
   9.000000E+99

> <Gold.Protein.RotatedTorsions>
[ 6907 6896 6895 6894 ] final  150.11 input  -60.11 | X-H torsion
[ 7974 7965 7964 7962 ] final  101.86 input  175.53 | X-H torsion
[ 8008 7997 7996 7995 ] final  -62.96 input   59.86 | X-H torsion
[ 10167 10162 10161 10158 ] final   66.97 input  -65.29 | X-H torsion
[ 10718 10713 10712 10709 ] final  168.04 input   66.30 | X-H torsion
[ 10763 10752 10751 10750 ] final   78.98 input  -60.55 | X-H torsion
[ 11005 11000 10999 10996 ] final -129.32 input  -57.11 | X-H torsion

> <Gold.Protein.ActiveResidues>
 VAL166  LYS551  ARG553  GLY616  TRP617  ASP618  TYR619  PRO620  LYS621  CYS622 
 ASP623  PHE694  ASN695  SER759  ASP760  ASP761  ALA762  ILE779  LEU786  VAL792 
 PHE793  MET794  SER795  GLU796  ALA797  LYS798  CYS799  TRP800  GLU811  SER814 

> <Gold.Protein.RotatedAtoms>
  152.1188  133.4342  159.4665 H   0  0  0  0  0  0  0  0  0  0  0  0  # atno 6907 bound_to 6896
  150.6871  134.2559  159.4539 H   0  0  0  0  0  0  0  0  0  0  0  0  # atno 6908 bound_to 6896
  152.0434  134.9697  160.0625 H   0  0  0  0  0  0  0  0  0  0  0  0  # atno 6909 bound_to 6896
  145.3667  139.2406  143.3477 H   0  0  0  0  0  0  0  0  0  0  0  0  # atno 7974 bound_to 7965
  154.4528  140.0985  156.6669 H   0  0  0  0  0  0  0  0  0  0  0  0  # atno 8008 bound_to 7997
  155.5231  140.3479  155.4392 H   0  0  0  0  0  0  0  0  0  0  0  0  # atno 8009 bound_to 7997
  156.0716  140.1351  156.9810 H   0  0  0  0  0  0  0  0  0  0  0  0  # atno 8010 bound_to 7997
  140.0946  144.4958  150.7076 H   0  0  0  0  0  0  0  0  0  0  0  0  # atno 10167 bound_to 10162
  157.0428  131.0291  151.2707 H   0  0  0  0  0  0  0  0  0  0  0  0  # atno 10718 bound_to 10713
  153.0916  135.4857  154.8701 H   0  0  0  0  0  0  0  0  0  0  0  0  # atno 10763 bound_to 10752
  154.7276  135.3053  154.8947 H   0  0  0  0  0  0  0  0  0  0  0  0  # atno 10764 bound_to 10752
  153.9592  135.6814  153.4798 H   0  0  0  0  0  0  0  0  0  0  0  0  # atno 10765 bound_to 10752
  140.9442  134.1153  157.4123 H   0  0  0  0  0  0  0  0  0  0  0  0  # atno 11005 bound_to 11000
  146.2903  140.4311  142.8742 LP  0  0  0  0  0  0  0  0  0  0  0  0  # atno 17320 bound_to 7965
  144.8606  140.7134  143.6110 LP  0  0  0  0  0  0  0  0  0  0  0  0  # atno 17321 bound_to 7965
  140.7010  143.2435  151.4863 LP  0  0  0  0  0  0  0  0  0  0  0  0  # atno 17342 bound_to 10162
  139.5705  144.1939  152.1829 LP  0  0  0  0  0  0  0  0  0  0  0  0  # atno 17343 bound_to 10162
  157.5091  130.7927  149.7685 LP  0  0  0  0  0  0  0  0  0  0  0  0  # atno 17370 bound_to 10713
  156.0032  130.3869  150.2526 LP  0  0  0  0  0  0  0  0  0  0  0  0  # atno 17371 bound_to 10713
  139.8828  135.0046  156.6259 LP  0  0  0  0  0  0  0  0  0  0  0  0  # atno 17394 bound_to 11000
  140.7693  133.8752  155.8479 LP  0  0  0  0  0  0  0  0  0  0  0  0  # atno 17395 bound_to 11000

$$$$
