AV-unprocessed.smi:217|AV-procd|sdf|1660|dock9
  -GOLD-   2262020 53D 1   1.00000     0.00000
 Structure written by MMmdl.
 57 61  0  0  0  0  0  0  0  0  1 V2000
  146.6280  132.1094  151.3147 O   0  0  0  0  0  0  0  0  0  0  0  0
  146.3119  133.3565  150.7310 C   0  0  0  0  0  0  0  0  0  0  0  0
  145.4825  134.2262  151.6899 C   0  0  0  0  0  0  0  0  0  0  0  0
  144.0243  133.7234  151.7024 C   0  0  0  0  0  0  0  0  0  0  0  0
  143.5001  133.6178  150.3941 O   0  0  0  0  0  0  0  0  0  0  0  0
  146.1090  134.4631  153.0826 C   0  0  0  0  0  0  0  0  0  0  0  0
  145.6676  135.9269  153.0244 C   0  0  0  0  0  0  0  0  0  0  0  0
  146.4428  136.9596  153.6468 N   0  0  0  0  0  0  0  0  0  0  0  0
  146.2487  138.3187  153.5348 C   0  0  0  0  0  0  0  0  0  0  0  0
  147.0596  139.0583  154.2419 N   0  0  0  0  0  0  0  0  0  0  0  0
  147.8463  138.1373  154.9209 C   0  0  0  0  0  0  0  0  0  0  0  0
  148.9019  138.2459  155.8629 C   0  0  0  0  0  0  0  0  0  0  0  0
  149.3600  139.4427  156.2877 N   0  0  0  0  0  0  0  0  0  0  0  0
  149.8820  140.2789  155.2116 C   0  0  0  0  0  0  0  0  0  0  0  0
  150.1645  141.7029  155.7183 C   0  0  0  0  0  0  0  0  0  0  0  0
  151.1045  141.6929  156.9435 C   0  0  0  0  0  0  0  0  0  0  0  0
  151.3487  143.1102  157.5016 C   0  0  2  0  0  0  0  0  0  0  0  0
  152.5135  143.2228  158.4856 C   0  0  0  0  0  0  0  0  0  0  0  0
  152.1554  144.4841  159.2373 C   0  0  0  0  0  0  0  0  0  0  0  0
  150.6378  144.3686  159.3466 C   0  0  0  0  0  0  0  0  0  0  0  0
  150.2210  143.5546  158.2525 O   0  0  0  0  0  0  0  0  0  0  0  0
  150.5130  140.7606  158.0217 C   0  0  0  0  0  0  0  0  0  0  0  0
  150.2266  139.3590  157.4594 C   0  0  0  0  0  0  0  0  0  0  0  0
  149.4519  137.0990  156.3419 N   0  0  0  0  0  0  0  0  0  0  0  0
  148.9900  135.9157  155.9258 C   0  0  0  0  0  0  0  0  0  0  0  0
  148.0109  135.6607  155.0542 N   0  0  0  0  0  0  0  0  0  0  0  0
  147.4646  136.8129  154.5688 C   0  0  0  0  0  0  0  0  0  0  0  0
  145.6503  135.7507  151.5041 C   0  0  0  0  0  0  0  0  0  0  0  0
  147.1871  131.6322  150.7205 H   0  0  0  0  0  0  0  0  0  0  0  0
  147.2350  133.8533  150.4326 H   0  0  0  0  0  0  0  0  0  0  0  0
  145.7602  133.1621  149.8110 H   0  0  0  0  0  0  0  0  0  0  0  0
  143.9508  132.7403  152.1673 H   0  0  0  0  0  0  0  0  0  0  0  0
  143.3794  134.3799  152.2867 H   0  0  0  0  0  0  0  0  0  0  0  0
  142.6321  133.9908  150.3871 H   0  0  0  0  0  0  0  0  0  0  0  0
  145.6610  133.8922  153.8964 H   0  0  0  0  0  0  0  0  0  0  0  0
  147.1955  134.3572  153.0868 H   0  0  0  0  0  0  0  0  0  0  0  0
  144.6535  136.0390  153.4113 H   0  0  0  0  0  0  0  0  0  0  0  0
  145.4847  138.7493  152.9037 H   0  0  0  0  0  0  0  0  0  0  0  0
  150.7990  139.8369  154.8186 H   0  0  0  0  0  0  0  0  0  0  0  0
  149.1661  140.3140  154.3892 H   0  0  0  0  0  0  0  0  0  0  0  0
  150.5988  142.2890  154.9086 H   0  0  0  0  0  0  0  0  0  0  0  0
  149.2228  142.1871  155.9808 H   0  0  0  0  0  0  0  0  0  0  0  0
  152.0650  141.2807  156.6303 H   0  0  0  0  0  0  0  0  0  0  0  0
  151.5035  143.8157  156.6835 H   0  0  0  0  0  0  0  0  0  0  0  0
  152.5270  142.3713  159.1675 H   0  0  0  0  0  0  0  0  0  0  0  0
  153.4843  143.2852  157.9931 H   0  0  0  0  0  0  0  0  0  0  0  0
  152.6493  144.5632  160.2061 H   0  0  0  0  0  0  0  0  0  0  0  0
  152.4231  145.3594  158.6437 H   0  0  0  0  0  0  0  0  0  0  0  0
  150.3563  143.8697  160.2747 H   0  0  0  0  0  0  0  0  0  0  0  0
  150.1492  145.3431  159.3243 H   0  0  0  0  0  0  0  0  0  0  0  0
  151.1960  140.6774  158.8674 H   0  0  0  0  0  0  0  0  0  0  0  0
  149.5887  141.1887  158.4123 H   0  0  0  0  0  0  0  0  0  0  0  0
  149.7538  138.7425  158.2253 H   0  0  0  0  0  0  0  0  0  0  0  0
  151.1641  138.8708  157.1888 H   0  0  0  0  0  0  0  0  0  0  0  0
  149.4741  135.0491  156.3514 H   0  0  0  0  0  0  0  0  0  0  0  0
  146.6015  136.0192  151.0408 H   0  0  0  0  0  0  0  0  0  0  0  0
  144.8185  136.2451  151.0012 H   0  0  0  0  0  0  0  0  0  0  0  0
  1  2  1  0  0  0  0
  1 29  1  0  0  0  0
  2  3  1  0  0  0  0
  2 30  1  0  0  0  0
  2 31  1  0  0  0  0
  3 28  1  0  0  0  0
  3  4  1  0  0  0  0
  3  6  1  0  0  0  0
  4  5  1  0  0  0  0
  4 32  1  0  0  0  0
  4 33  1  0  0  0  0
  5 34  1  0  0  0  0
  6  7  1  0  0  0  0
  6 35  1  0  0  0  0
  6 36  1  0  0  0  0
  7  8  1  0  0  0  0
  7 28  1  0  0  0  0
  7 37  1  0  0  0  0
  8 27  1  0  0  0  0
  8  9  1  0  0  0  0
  9 10  2  0  0  0  0
  9 38  1  0  0  0  0
 10 11  1  0  0  0  0
 11 27  2  0  0  0  0
 11 12  1  0  0  0  0
 12 13  1  0  0  0  0
 12 24  2  0  0  0  0
 13 23  1  0  0  0  0
 13 14  1  0  0  0  0
 14 15  1  0  0  0  0
 14 39  1  0  0  0  0
 14 40  1  0  0  0  0
 15 16  1  0  0  0  0
 15 41  1  0  0  0  0
 15 42  1  0  0  0  0
 16 17  1  0  0  0  0
 16 22  1  0  0  0  0
 16 43  1  0  0  0  0
 17 21  1  0  0  0  0
 17 18  1  0  0  0  0
 17 44  1  0  0  0  0
 18 19  1  0  0  0  0
 18 45  1  0  0  0  0
 18 46  1  0  0  0  0
 19 20  1  0  0  0  0
 19 47  1  0  0  0  0
 19 48  1  0  0  0  0
 20 21  1  0  0  0  0
 20 49  1  0  0  0  0
 20 50  1  0  0  0  0
 22 23  1  0  0  0  0
 22 51  1  0  0  0  0
 22 52  1  0  0  0  0
 23 53  1  0  0  0  0
 23 54  1  0  0  0  0
 24 25  1  0  0  0  0
 25 26  2  0  0  0  0
 25 55  1  0  0  0  0
 26 27  1  0  0  0  0
 28 56  1  0  0  0  0
 28 57  1  0  0  0  0
M  END
> <s_m_source_file>
AV-unprocessed.smi

> <i_m_source_file_index>
217

> <i_lp_mmshare_version>
43012

> <i_f3d_flags>
0

> <s_epik_input>
W09IXVtDSDJdQzEoW0NIMl1bT0hdKVtDSDJdW0NIXShbQ0gyXTEpbihbY0hdbjIpYyhjMjMpbltjSF1uYzNONFtDSDJdW0NIMl1bQ0hdKFtDSDJdW0NIMl00KVtDQEBIXTVbQ0gyXVtDSDJdW0NIMl1PNQ==

> <s_epik_cmdline>
J2VwaWtfcHl0aG9uJywgJy1waCcsICc3LjAnLCAnLXRuJywgJzgnLCAnLW1hJywgJzIwMCcsICctbWV0YWxfYmluZGluZycsICctaW1hZScsICc8aW5maWxlLm1hZT4nLCAnLW9tYWUnLCAnPG91dGZpbGUubWFlPic=

> <r_lp_tautomer_probability>
1

> <r_epik_Ionization_Penalty>
0.0037022

> <r_epik_Ionization_Penalty_Charging>
0

> <r_epik_Ionization_Penalty_Neutral>
0.0037022

> <r_epik_State_Penalty>
0.00257654

> <r_epik_Charging_Adjusted_Penalty>
0.00257654

> <i_epik_Tot_Q>
0

> <i_epik_Tot_abs_Q>
0

> <r_epik_Metal_State_Penalty>
-0

> <b_epik_Metal_Only>
0

> <s_lp_Force_Field>
OPLS_2005

> <r_lp_Energy>
56.6597

> <b_lp_Chiralities_Consistent>
1

> <s_lp_Variant>
AV-unprocessed.smi:217-1

> <Gold.Version>
5.8.1

> <Gold.Id.Protein>
6NUR|6NUR_protein|mol2

> <Gold.PLP.Fitness>
46.3956

> <Gold.PLP.PLP>
-38.3617

> <Gold.PLP.part.hbond>
-2.0000

> <Gold.PLP.part.metal>
0.0000

> <Gold.PLP.part.buried>
-6.2832

> <Gold.PLP.part.nonpolar>
-31.5934

> <Gold.PLP.part.repulsive>
0.4335

> <Gold.PLP.ligand.clash>
0.0000

> <Gold.PLP.ligand.torsion>
0.8376

> <Gold.PLP.Chemscore.Hbond>
2.0000

> <Gold.PLP.Chemscore.CHOScore>
1.0000

> <Gold.PLP.Chemscore.Metal>
0.0000

> <Gold.Chemscore.Hbonds>
donor molecule, donor type, donor heavy atom, donor atom, acceptor molecule, acceptor atom, score
      L1  H     1    29       P1 10747  1.00
      L1  H     5    34       P1 10186  1.00
      L1  C     9    38       P1 10175  1.00

> <Gold.PLP.Chemscore.Internal.Correction>
0.7092

> <Gold.Rescore>
     Score         DG    S(hbond)    S(metal)    S(lipo)     H(rot)  DE(clash)    DE(int)     intcor
     13.62     -15.53       1.97        0.00     101.60       3.28       0.12       1.78       ----

> <Gold.Chemscore.Fitness>
13.6244

> <Gold.Chemscore.DG>
-15.5268

> <Gold.Chemscore.ZeroCoef>
-5.4800

> <Gold.Chemscore.Hbond>
1.9668

> <Gold.Chemscore.Metal>
0.0000

> <Gold.Chemscore.Lipo>
101.5961

> <Gold.Chemscore.Internal_Hbond>
0.0000

> <Gold.Chemscore.DEClash>
0.1189

> <Gold.Chemscore.DEInternal>
1.7835

> <Gold.Chemscore.Rot>
3.2848

> <Gold.Chemscore.Internal.Correction>
   9.000000E+99

> <Gold.Chemscore.Hbonds>
donor molecule, donor type, donor heavy atom, donor atom, acceptor molecule, acceptor atom, score
      L1  H     1    29       P1 10747  0.91
      L1  H     5    34       P1 10186  0.90

> <Gold.Chemscore.Hbond.Weighted>
-6.5693

> <Gold.Chemscore.Metal.Weighted>
-0.0000

> <Gold.Chemscore.Lipo.Weighted>
-11.8867

> <Gold.Chemscore.Internal_Hbond.Weighted>
0.0000

> <Gold.Chemscore.DEClash.Weighted>
0.1189

> <Gold.Chemscore.DEInternal.Weighted>
1.7835

> <Gold.Chemscore.Rot.Weighted>
8.4092

> <Gold.Chemscore.Internal.Correction.Weighted>
   9.000000E+99

> <Gold.Protein.RotatedTorsions>
[ 6907 6896 6895 6894 ] final  -52.52 input  -60.11 | X-H torsion
[ 7974 7965 7964 7962 ] final   36.19 input  175.53 | X-H torsion
[ 8008 7997 7996 7995 ] final -161.42 input   59.86 | X-H torsion
[ 10167 10162 10161 10158 ] final    6.87 input  -65.29 | X-H torsion
[ 10718 10713 10712 10709 ] final   41.91 input   66.30 | X-H torsion
[ 10763 10752 10751 10750 ] final -165.27 input  -60.55 | X-H torsion
[ 11005 11000 10999 10996 ] final -135.84 input  -57.11 | X-H torsion

> <Gold.Protein.ActiveResidues>
 VAL166  LYS551  ARG553  GLY616  TRP617  ASP618  TYR619  PRO620  LYS621  CYS622 
 ASP623  PHE694  ASN695  SER759  ASP760  ASP761  ALA762  ILE779  LEU786  VAL792 
 PHE793  MET794  SER795  GLU796  ALA797  LYS798  CYS799  TRP800  GLU811  SER814 

> <Gold.Protein.RotatedAtoms>
  150.8510  134.7835  159.7008 H   0  0  0  0  0  0  0  0  0  0  0  0  # atno 6907 bound_to 6896
  152.4575  134.5256  159.9805 H   0  0  0  0  0  0  0  0  0  0  0  0  # atno 6908 bound_to 6896
  151.5377  133.3400  159.2965 H   0  0  0  0  0  0  0  0  0  0  0  0  # atno 6909 bound_to 6896
  146.1229  139.6048  142.9278 H   0  0  0  0  0  0  0  0  0  0  0  0  # atno 7974 bound_to 7965
  155.7919  140.0879  157.2004 H   0  0  0  0  0  0  0  0  0  0  0  0  # atno 8008 bound_to 7997
  154.3985  140.1488  156.3231 H   0  0  0  0  0  0  0  0  0  0  0  0  # atno 8009 bound_to 7997
  155.8550  140.3433  155.5721 H   0  0  0  0  0  0  0  0  0  0  0  0  # atno 8010 bound_to 7997
  140.6404  143.7788  150.7419 H   0  0  0  0  0  0  0  0  0  0  0  0  # atno 10167 bound_to 10162
  157.3989  130.7848  149.7331 H   0  0  0  0  0  0  0  0  0  0  0  0  # atno 10718 bound_to 10713
  154.6948  135.2977  154.9427 H   0  0  0  0  0  0  0  0  0  0  0  0  # atno 10763 bound_to 10752
  154.0379  135.6661  153.4791 H   0  0  0  0  0  0  0  0  0  0  0  0  # atno 10764 bound_to 10752
  153.0638  135.5100  154.8060 H   0  0  0  0  0  0  0  0  0  0  0  0  # atno 10765 bound_to 10752
  140.8861  134.1871  157.4559 H   0  0  0  0  0  0  0  0  0  0  0  0  # atno 11005 bound_to 11000
  145.5427  141.0419  143.2321 LP  0  0  0  0  0  0  0  0  0  0  0  0  # atno 17320 bound_to 7965
  144.7614  139.6947  143.7232 LP  0  0  0  0  0  0  0  0  0  0  0  0  # atno 17321 bound_to 7965
  140.1418  143.4434  152.2189 LP  0  0  0  0  0  0  0  0  0  0  0  0  # atno 17342 bound_to 10162
  139.5613  144.7407  151.4147 LP  0  0  0  0  0  0  0  0  0  0  0  0  # atno 17343 bound_to 10162
  155.9818  130.4016  150.3453 LP  0  0  0  0  0  0  0  0  0  0  0  0  # atno 17370 bound_to 10713
  157.1578  131.0337  151.2855 LP  0  0  0  0  0  0  0  0  0  0  0  0  # atno 17371 bound_to 10713
  139.8724  134.9838  156.5214 LP  0  0  0  0  0  0  0  0  0  0  0  0  # atno 17394 bound_to 11000
  140.8403  133.8210  155.9068 LP  0  0  0  0  0  0  0  0  0  0  0  0  # atno 17395 bound_to 11000

$$$$
