AV-unprocessed.smi:3303|AV-procd|sdf|12678|dock2
  -GOLD-   2272019 13D 1   1.00000     0.00000
 Structure written by MMmdl.
 44 45  0  0  0  0  0  0  0  0  2 V2000
  147.4592  141.2048  154.2604 C   0  0  0  0  0  0  0  0  0  0  0  0
  148.9078  140.7119  154.1053 C   0  0  1  0  0  0  0  0  0  0  0  0
  149.7615  141.2120  155.2892 C   0  0  0  0  0  0  0  0  0  0  0  0
  151.1444  140.7523  155.1635 N   0  0  0  0  0  0  0  0  0  0  0  0
  151.9852  141.3846  156.1724 C   0  0  0  0  0  0  0  0  0  0  0  0
  151.2652  139.2868  155.1581 C   0  0  1  0  0  0  0  0  0  0  0  0
  150.8862  138.6037  156.4922 C   0  0  0  0  0  0  0  0  0  0  0  0
  150.4647  138.7335  153.9617 C   0  0  0  0  0  0  0  0  0  0  0  0
  148.9898  139.1748  153.9814 C   0  0  2  0  0  0  0  0  0  0  0  0
  148.3187  138.7129  152.7458 N   0  3  0  0  0  0  0  0  0  0  0  0
  146.8534  138.5690  152.8520 C   0  0  0  0  0  0  0  0  0  0  0  0
  146.2467  138.1211  151.5155 C   0  0  0  0  0  0  0  0  0  0  0  0
  145.6338  136.7361  151.5996 C   0  0  0  0  0  0  0  0  0  0  0  0
  144.7552  136.3993  152.6514 C   0  0  0  0  0  0  0  0  0  0  0  0
  144.2202  135.0970  152.6869 C   0  0  0  0  0  0  0  0  0  0  0  0
  144.5823  134.1874  151.6748 C   0  0  0  0  0  0  0  0  0  0  0  0
  145.4690  134.6210  150.6691 C   0  0  0  0  0  0  0  0  0  0  0  0
  145.9896  135.8670  150.6270 N   0  0  0  0  0  0  0  0  0  0  0  0
  146.9907  140.7820  155.1497 H   0  0  0  0  0  0  0  0  0  0  0  0
  146.8467  140.9342  153.4002 H   0  0  0  0  0  0  0  0  0  0  0  0
  147.4246  142.2908  154.3533 H   0  0  0  0  0  0  0  0  0  0  0  0
  149.3151  141.1527  153.1937 H   0  0  0  0  0  0  0  0  0  0  0  0
  149.7515  142.3028  155.2978 H   0  0  0  0  0  0  0  0  0  0  0  0
  149.3351  140.8911  156.2399 H   0  0  0  0  0  0  0  0  0  0  0  0
  153.0178  141.0465  156.0813 H   0  0  0  0  0  0  0  0  0  0  0  0
  151.6378  141.1694  157.1831 H   0  0  0  0  0  0  0  0  0  0  0  0
  151.9799  142.4673  156.0425 H   0  0  0  0  0  0  0  0  0  0  0  0
  152.3156  139.0578  154.9726 H   0  0  0  0  0  0  0  0  0  0  0  0
  150.9950  137.5221  156.4095 H   0  0  0  0  0  0  0  0  0  0  0  0
  149.8572  138.7998  156.7914 H   0  0  0  0  0  0  0  0  0  0  0  0
  151.5358  138.9187  157.3082 H   0  0  0  0  0  0  0  0  0  0  0  0
  150.9329  139.0789  153.0383 H   0  0  0  0  0  0  0  0  0  0  0  0
  150.5299  137.6448  153.9427 H   0  0  0  0  0  0  0  0  0  0  0  0
  148.5025  138.7284  154.8496 H   0  0  0  0  0  0  0  0  0  0  0  0
  148.5168  139.3815  152.0152 H   0  0  0  0  0  0  0  0  0  0  0  0
  146.6208  137.8460  153.6353 H   0  0  0  0  0  0  0  0  0  0  0  0
  146.4198  139.5240  153.1518 H   0  0  0  0  0  0  0  0  0  0  0  0
  145.4827  138.8312  151.1956 H   0  0  0  0  0  0  0  0  0  0  0  0
  147.0115  138.1224  150.7371 H   0  0  0  0  0  0  0  0  0  0  0  0
  144.4960  137.1188  153.4145 H   0  0  0  0  0  0  0  0  0  0  0  0
  143.5452  134.8008  153.4765 H   0  0  0  0  0  0  0  0  0  0  0  0
  144.1899  133.1811  151.6697 H   0  0  0  0  0  0  0  0  0  0  0  0
  145.7691  133.9491  149.8785 H   0  0  0  0  0  0  0  0  0  0  0  0
  148.7139  137.8222  152.4792 H   0  0  0  0  0  0  0  0  0  0  0  0
  1  2  1  0  0  0  0
  1 19  1  0  0  0  0
  1 20  1  0  0  0  0
  1 21  1  0  0  0  0
  2  9  1  0  0  0  0
  2  3  1  0  0  0  0
  2 22  1  0  0  0  0
  3  4  1  0  0  0  0
  3 23  1  0  0  0  0
  3 24  1  0  0  0  0
  4  5  1  0  0  0  0
  4  6  1  0  0  0  0
  5 25  1  0  0  0  0
  5 26  1  0  0  0  0
  5 27  1  0  0  0  0
  6  7  1  0  0  0  0
  6  8  1  0  0  0  0
  6 28  1  0  0  0  0
  7 29  1  0  0  0  0
  7 30  1  0  0  0  0
  7 31  1  0  0  0  0
  8  9  1  0  0  0  0
  8 32  1  0  0  0  0
  8 33  1  0  0  0  0
  9 10  1  0  0  0  0
  9 34  1  0  0  0  0
 10 11  1  0  0  0  0
 10 35  1  0  0  0  0
 10 44  1  0  0  0  0
 11 12  1  0  0  0  0
 11 36  1  0  0  0  0
 11 37  1  0  0  0  0
 12 13  1  0  0  0  0
 12 38  1  0  0  0  0
 12 39  1  0  0  0  0
 13 18  1  0  0  0  0
 13 14  2  0  0  0  0
 14 15  1  0  0  0  0
 14 40  1  0  0  0  0
 15 16  2  0  0  0  0
 15 41  1  0  0  0  0
 16 17  1  0  0  0  0
 16 42  1  0  0  0  0
 17 18  2  0  0  0  0
 17 43  1  0  0  0  0
M  CHG  1  10   1
M  END
> <s_m_source_file>
AV-unprocessed.smi

> <i_m_source_file_index>
3303

> <i_lp_mmshare_version>
43012

> <i_f3d_flags>
0

> <s_epik_input>
W0NIM11bQ0BASF0xW0NIMl1OKFtDSDNdKVtDQEBIXShbQ0gzXSlbQ0gyXVtDQEhdMVtOSF1bQ0gyXVtDSDJdYzJbY0hdW2NIXVtjSF1bY0hdbjI=

> <s_epik_cmdline>
J2VwaWtfcHl0aG9uJywgJy1waCcsICc3LjAnLCAnLXRuJywgJzgnLCAnLW1hJywgJzIwMCcsICctbWV0YWxfYmluZGluZycsICctaW1hZScsICc8aW5maWxlLm1hZT4nLCAnLW9tYWUnLCAnPG91dGZpbGUubWFlPic=

> <r_epik_Ionization_Penalty>
1.37325

> <r_epik_Ionization_Penalty_Charging>
0.000251572

> <r_epik_Ionization_Penalty_Neutral>
1.373

> <r_epik_State_Penalty>
1.46343

> <r_epik_Charging_Adjusted_Penalty>
1.46368

> <i_epik_Tot_Q>
1

> <i_epik_Tot_abs_Q>
1

> <r_epik_Metal_State_Penalty>
1.46331

> <b_epik_Metal_Only>
0

> <s_lp_Force_Field>
OPLS_2005

> <r_lp_Energy>
23.1884

> <b_lp_Chiralities_Consistent>
1

> <s_lp_Variant>
AV-unprocessed.smi:3303-22

> <Gold.Version>
5.8.1

> <Gold.Id.Protein>
6NUR|6NUR_protein|mol2

> <Gold.PLP.Fitness>
44.5838

> <Gold.PLP.PLP>
-31.7771

> <Gold.PLP.part.hbond>
-3.0000

> <Gold.PLP.part.metal>
0.0000

> <Gold.PLP.part.buried>
1.0458

> <Gold.PLP.part.nonpolar>
-30.2195

> <Gold.PLP.part.repulsive>
0.3802

> <Gold.PLP.ligand.clash>
0.0000

> <Gold.PLP.ligand.torsion>
0.7259

> <Gold.PLP.Chemscore.Hbond>
3.9280

> <Gold.PLP.Chemscore.CHOScore>
0.8149

> <Gold.PLP.Chemscore.Metal>
0.0000

> <Gold.Chemscore.Hbonds>
donor molecule, donor type, donor heavy atom, donor atom, acceptor molecule, acceptor atom, score
      L1  H    10    35       P1  7957  0.89
      L1  H    10    44       P1  7948  2.00
      P1  H  7989  7998       L1     4  0.53
      L1  C    17    43       P1  7921  0.80

> <Gold.PLP.Chemscore.Internal.Correction>
0.0296

> <Gold.Rescore>
     Score         DG    S(hbond)    S(metal)    S(lipo)     H(rot)  DE(clash)    DE(int)     intcor
     17.51     -18.80       2.00        0.00      85.73       1.33       0.53       0.76       ----

> <Gold.Chemscore.Fitness>
17.5146

> <Gold.Chemscore.DG>
-18.8014

> <Gold.Chemscore.ZeroCoef>
-5.4800

> <Gold.Chemscore.Hbond>
2.0047

> <Gold.Chemscore.Metal>
0.0000

> <Gold.Chemscore.Lipo>
85.7272

> <Gold.Chemscore.Internal_Hbond>
0.0000

> <Gold.Chemscore.DEClash>
0.5265

> <Gold.Chemscore.DEInternal>
0.7603

> <Gold.Chemscore.Rot>
1.3298

> <Gold.Chemscore.Internal.Correction>
   9.000000E+99

> <Gold.Chemscore.Hbonds>
donor molecule, donor type, donor heavy atom, donor atom, acceptor molecule, acceptor atom, score
      L1  H    10    35       P1  7957  0.83
      L1  H    10    44       P1  7948  1.00
      P1  H  7989  7998       L1     4  0.03

> <Gold.Chemscore.Hbond.Weighted>
-6.6956

> <Gold.Chemscore.Metal.Weighted>
-0.0000

> <Gold.Chemscore.Lipo.Weighted>
-10.0301

> <Gold.Chemscore.Internal_Hbond.Weighted>
0.0000

> <Gold.Chemscore.DEClash.Weighted>
0.5265

> <Gold.Chemscore.DEInternal.Weighted>
0.7603

> <Gold.Chemscore.Rot.Weighted>
3.4043

> <Gold.Chemscore.Internal.Correction.Weighted>
   9.000000E+99

> <Gold.Protein.RotatedTorsions>
[ 6907 6896 6895 6894 ] final   -4.04 input  -60.11 | X-H torsion
[ 7974 7965 7964 7962 ] final  -55.92 input  175.53 | X-H torsion
[ 8008 7997 7996 7995 ] final  -24.06 input   59.86 | X-H torsion
[ 10167 10162 10161 10158 ] final  -69.57 input  -65.29 | X-H torsion
[ 10718 10713 10712 10709 ] final  -40.69 input   66.30 | X-H torsion
[ 10763 10752 10751 10750 ] final  -68.03 input  -60.55 | X-H torsion
[ 11005 11000 10999 10996 ] final   -8.66 input  -57.11 | X-H torsion

> <Gold.Protein.ActiveResidues>
 VAL166  LYS551  ARG553  GLY616  TRP617  ASP618  TYR619  PRO620  LYS621  CYS622 
 ASP623  PHE694  ASN695  SER759  ASP760  ASP761  ALA762  ILE779  LEU786  VAL792 
 PHE793  MET794  SER795  GLU796  ALA797  LYS798  CYS799  TRP800  GLU811  SER814 

> <Gold.Protein.RotatedAtoms>
  151.5041  135.1063  159.9836 H   0  0  0  0  0  0  0  0  0  0  0  0  # atno 6907 bound_to 6896
  152.4689  133.7982  159.6949 H   0  0  0  0  0  0  0  0  0  0  0  0  # atno 6908 bound_to 6896
  150.8688  133.7473  159.2994 H   0  0  0  0  0  0  0  0  0  0  0  0  # atno 6909 bound_to 6896
  145.8687  140.8232  142.9899 H   0  0  0  0  0  0  0  0  0  0  0  0  # atno 7974 bound_to 7965
  154.4550  140.1964  156.0406 H   0  0  0  0  0  0  0  0  0  0  0  0  # atno 8008 bound_to 7997
  156.0727  140.3282  155.7568 H   0  0  0  0  0  0  0  0  0  0  0  0  # atno 8009 bound_to 7997
  155.5237  140.0572  157.2893 H   0  0  0  0  0  0  0  0  0  0  0  0  # atno 8010 bound_to 7997
  140.5420  143.2314  151.7071 H   0  0  0  0  0  0  0  0  0  0  0  0  # atno 10167 bound_to 10162
  156.2785  130.4214  149.8361 H   0  0  0  0  0  0  0  0  0  0  0  0  # atno 10718 bound_to 10713
  154.3831  135.6070  153.5801 H   0  0  0  0  0  0  0  0  0  0  0  0  # atno 10763 bound_to 10752
  152.9788  135.5865  154.4387 H   0  0  0  0  0  0  0  0  0  0  0  0  # atno 10764 bound_to 10752
  154.4159  135.2845  155.1984 H   0  0  0  0  0  0  0  0  0  0  0  0  # atno 10765 bound_to 10752
  140.7259  133.8790  155.8855 H   0  0  0  0  0  0  0  0  0  0  0  0  # atno 11005 bound_to 11000
  144.6726  140.1205  143.7450 LP  0  0  0  0  0  0  0  0  0  0  0  0  # atno 17320 bound_to 7965
  145.9163  139.2518  143.1408 LP  0  0  0  0  0  0  0  0  0  0  0  0  # atno 17321 bound_to 7965
  139.4992  144.3953  152.0237 LP  0  0  0  0  0  0  0  0  0  0  0  0  # atno 17342 bound_to 10162
  140.3063  144.3589  150.6046 LP  0  0  0  0  0  0  0  0  0  0  0  0  # atno 17343 bound_to 10162
  156.5817  130.8468  151.3385 LP  0  0  0  0  0  0  0  0  0  0  0  0  # atno 17370 bound_to 10713
  157.7307  130.9689  150.1845 LP  0  0  0  0  0  0  0  0  0  0  0  0  # atno 17371 bound_to 10713
  140.9963  134.1210  157.4360 LP  0  0  0  0  0  0  0  0  0  0  0  0  # atno 17394 bound_to 11000
  139.8837  135.0055  156.6321 LP  0  0  0  0  0  0  0  0  0  0  0  0  # atno 17395 bound_to 11000

$$$$
