AV-unprocessed.smi:671|AV-procd|sdf|3278|dock4
  -GOLD-   22720 0233D 1   1.00000     0.00000
 Structure written by MMmdl.
 49 50  0  0  0  0  0  0  0  0  1 V2000
  147.3686  132.0623  152.5561 C   0  0  0  0  0  0  0  0  0  0  0  0
  148.5204  131.3947  153.2518 C   0  0  0  0  0  0  0  0  0  0  0  0
  148.6591  130.0847  153.1375 N   0  0  0  0  0  0  0  0  0  0  0  0
  149.7572  129.7888  153.8600 N   0  0  0  0  0  0  0  0  0  0  0  0
  150.1999  128.4108  153.9473 C   0  0  0  0  0  0  0  0  0  0  0  0
  150.3140  130.9145  154.4341 C   0  0  0  0  0  0  0  0  0  0  0  0
  151.5408  130.8466  155.2862 C   0  0  0  0  0  0  0  0  0  0  0  0
  149.5369  131.9799  154.0656 C   0  0  0  0  0  0  0  0  0  0  0  0
  149.7154  133.4326  154.4329 C   0  0  0  0  0  0  0  0  0  0  0  0
  148.3920  134.1070  154.8457 C   0  0  1  0  0  0  0  0  0  0  0  0
  148.6023  135.1019  155.9955 C   0  0  0  0  0  0  0  0  0  0  0  0
  147.8009  134.8160  153.7057 N   0  0  0  0  0  0  0  0  0  0  0  0
  146.5236  134.8491  153.2838 C   0  0  0  0  0  0  0  0  0  0  0  0
  145.6361  134.2351  153.8727 O   0  0  0  0  0  0  0  0  0  0  0  0
  146.3011  135.6012  152.1938 N   0  0  0  0  0  0  0  0  0  0  0  0
  145.0042  135.7667  151.5371 C   0  0  2  0  0  0  0  0  0  0  0  0
  143.9205  136.1842  152.5556 C   0  0  0  0  0  0  0  0  0  0  0  0
  142.8610  135.0759  152.5538 C   0  0  0  0  0  0  0  0  0  0  0  0
  143.5587  133.8566  151.9567 C   0  0  0  0  0  0  0  0  0  0  0  0
  144.4963  134.4522  150.9059 C   0  0  2  0  0  0  0  0  0  0  0  0
  145.5691  133.4748  150.4010 C   0  0  0  0  0  0  0  0  0  0  0  0
  146.4336  131.8738  153.0840 H   0  0  0  0  0  0  0  0  0  0  0  0
  147.2553  131.6932  151.5362 H   0  0  0  0  0  0  0  0  0  0  0  0
  147.5039  133.1421  152.5004 H   0  0  0  0  0  0  0  0  0  0  0  0
  150.4065  128.1542  154.9866 H   0  0  0  0  0  0  0  0  0  0  0  0
  151.1093  128.2818  153.3600 H   0  0  0  0  0  0  0  0  0  0  0  0
  149.4318  127.7355  153.5677 H   0  0  0  0  0  0  0  0  0  0  0  0
  151.8373  131.8349  155.6365 H   0  0  0  0  0  0  0  0  0  0  0  0
  152.3767  130.4249  154.7278 H   0  0  0  0  0  0  0  0  0  0  0  0
  151.3710  130.2216  156.1629 H   0  0  0  0  0  0  0  0  0  0  0  0
  150.4279  133.5209  155.2533 H   0  0  0  0  0  0  0  0  0  0  0  0
  150.1676  133.9899  153.6121 H   0  0  0  0  0  0  0  0  0  0  0  0
  147.7247  133.3329  155.2265 H   0  0  0  0  0  0  0  0  0  0  0  0
  149.0173  134.6058  156.8734 H   0  0  0  0  0  0  0  0  0  0  0  0
  147.6593  135.5611  156.2943 H   0  0  0  0  0  0  0  0  0  0  0  0
  149.2870  135.9015  155.7102 H   0  0  0  0  0  0  0  0  0  0  0  0
  148.4455  135.3908  153.1826 H   0  0  0  0  0  0  0  0  0  0  0  0
  147.0858  136.0835  151.7809 H   0  0  0  0  0  0  0  0  0  0  0  0
  145.1003  136.5197  150.7522 H   0  0  0  0  0  0  0  0  0  0  0  0
  144.3389  136.2929  153.5575 H   0  0  0  0  0  0  0  0  0  0  0  0
  143.4776  137.1456  152.2933 H   0  0  0  0  0  0  0  0  0  0  0  0
  142.4584  134.8808  153.5481 H   0  0  0  0  0  0  0  0  0  0  0  0
  142.0283  135.3685  151.9126 H   0  0  0  0  0  0  0  0  0  0  0  0
  144.1350  133.3454  152.7293 H   0  0  0  0  0  0  0  0  0  0  0  0
  142.8551  133.1389  151.5334 H   0  0  0  0  0  0  0  0  0  0  0  0
  143.8800  134.7287  150.0487 H   0  0  0  0  0  0  0  0  0  0  0  0
  146.1838  133.0949  151.2165 H   0  0  0  0  0  0  0  0  0  0  0  0
  146.2257  133.9605  149.6793 H   0  0  0  0  0  0  0  0  0  0  0  0
  145.1133  132.6163  149.9076 H   0  0  0  0  0  0  0  0  0  0  0  0
  1  2  1  0  0  0  0
  1 22  1  0  0  0  0
  1 23  1  0  0  0  0
  1 24  1  0  0  0  0
  2  8  1  0  0  0  0
  2  3  2  0  0  0  0
  3  4  1  0  0  0  0
  4  5  1  0  0  0  0
  4  6  1  0  0  0  0
  5 25  1  0  0  0  0
  5 26  1  0  0  0  0
  5 27  1  0  0  0  0
  6  7  1  0  0  0  0
  6  8  2  0  0  0  0
  7 28  1  0  0  0  0
  7 29  1  0  0  0  0
  7 30  1  0  0  0  0
  8  9  1  0  0  0  0
  9 10  1  0  0  0  0
  9 31  1  0  0  0  0
  9 32  1  0  0  0  0
 10 11  1  0  0  0  0
 10 12  1  0  0  0  0
 10 33  1  0  0  0  0
 11 34  1  0  0  0  0
 11 35  1  0  0  0  0
 11 36  1  0  0  0  0
 12 13  1  0  0  0  0
 12 37  1  0  0  0  0
 13 14  2  0  0  0  0
 13 15  1  0  0  0  0
 15 16  1  0  0  0  0
 15 38  1  0  0  0  0
 16 20  1  0  0  0  0
 16 17  1  0  0  0  0
 16 39  1  0  0  0  0
 17 18  1  0  0  0  0
 17 40  1  0  0  0  0
 17 41  1  0  0  0  0
 18 19  1  0  0  0  0
 18 42  1  0  0  0  0
 18 43  1  0  0  0  0
 19 20  1  0  0  0  0
 19 44  1  0  0  0  0
 19 45  1  0  0  0  0
 20 21  1  0  0  0  0
 20 46  1  0  0  0  0
 21 47  1  0  0  0  0
 21 48  1  0  0  0  0
 21 49  1  0  0  0  0
M  END
> <s_m_source_file>
AV-unprocessed.smi

> <i_m_source_file_index>
671

> <i_lp_mmshare_version>
43012

> <i_f3d_flags>
0

> <s_epik_input>
W0NIM11jMW5uKFtDSDNdKWMoW0NIM10pYzFbQ0gyXVtDQEhdKFtDSDNdKVtOSF1DKD1PKVtOSF1bQ0BASF0yW0NIMl1bQ0gyXVtDSDJdW0NASF0yW0NIM10=

> <s_epik_cmdline>
J2VwaWtfcHl0aG9uJywgJy1waCcsICc3LjAnLCAnLXRuJywgJzgnLCAnLW1hJywgJzIwMCcsICctbWV0YWxfYmluZGluZycsICctaW1hZScsICc8aW5maWxlLm1hZT4nLCAnLW9tYWUnLCAnPG91dGZpbGUubWFlPic=

> <r_lp_tautomer_probability>
1

> <r_epik_Ionization_Penalty>
0.0126855

> <r_epik_Ionization_Penalty_Charging>
0

> <r_epik_Ionization_Penalty_Neutral>
0.0126855

> <r_epik_State_Penalty>
0.00977547

> <r_epik_Charging_Adjusted_Penalty>
0.00977547

> <i_epik_Tot_Q>
0

> <i_epik_Tot_abs_Q>
0

> <r_epik_Metal_State_Penalty>
0.00957132

> <b_epik_Metal_Only>
0

> <s_lp_Force_Field>
OPLS_2005

> <r_lp_Energy>
22.0359

> <b_lp_Chiralities_Consistent>
1

> <s_lp_Variant>
AV-unprocessed.smi:671-6

> <Gold.Version>
5.8.1

> <Gold.Id.Protein>
6NUR|6NUR_protein|mol2

> <Gold.PLP.Fitness>
38.5951

> <Gold.PLP.PLP>
-34.8999

> <Gold.PLP.part.hbond>
-2.0000

> <Gold.PLP.part.metal>
0.0000

> <Gold.PLP.part.buried>
-3.8900

> <Gold.PLP.part.nonpolar>
-29.5502

> <Gold.PLP.part.repulsive>
0.2167

> <Gold.PLP.ligand.clash>
0.0000

> <Gold.PLP.ligand.torsion>
0.9830

> <Gold.PLP.Chemscore.Hbond>
1.8800

> <Gold.PLP.Chemscore.CHOScore>
0.0000

> <Gold.PLP.Chemscore.Metal>
0.0000

> <Gold.Chemscore.Hbonds>
donor molecule, donor type, donor heavy atom, donor atom, acceptor molecule, acceptor atom, score
      L1  H    12    37       P1  7948  1.00
      L1  H    15    38       P1  7948  0.86

> <Gold.PLP.Chemscore.Internal.Correction>
0.0211

> <Gold.Rescore>
     Score         DG    S(hbond)    S(metal)    S(lipo)     H(rot)  DE(clash)    DE(int)     intcor
     13.23     -16.83       1.86        0.00      75.71       1.45       0.01       3.59       ----

> <Gold.Chemscore.Fitness>
13.2301

> <Gold.Chemscore.DG>
-16.8294

> <Gold.Chemscore.ZeroCoef>
-5.4800

> <Gold.Chemscore.Hbond>
1.8574

> <Gold.Chemscore.Metal>
0.0000

> <Gold.Chemscore.Lipo>
75.7062

> <Gold.Chemscore.Internal_Hbond>
0.0000

> <Gold.Chemscore.DEClash>
0.0126

> <Gold.Chemscore.DEInternal>
3.5867

> <Gold.Chemscore.Rot>
1.4499

> <Gold.Chemscore.Internal.Correction>
   9.000000E+99

> <Gold.Chemscore.Hbonds>
donor molecule, donor type, donor heavy atom, donor atom, acceptor molecule, acceptor atom, score
      L1  H    12    37       P1  7948  0.95
      L1  H    15    38       P1  7948  0.85

> <Gold.Chemscore.Hbond.Weighted>
-6.2036

> <Gold.Chemscore.Metal.Weighted>
-0.0000

> <Gold.Chemscore.Lipo.Weighted>
-8.8576

> <Gold.Chemscore.Internal_Hbond.Weighted>
0.0000

> <Gold.Chemscore.DEClash.Weighted>
0.0126

> <Gold.Chemscore.DEInternal.Weighted>
3.5867

> <Gold.Chemscore.Rot.Weighted>
3.7118

> <Gold.Chemscore.Internal.Correction.Weighted>
   9.000000E+99

> <Gold.Protein.RotatedTorsions>
[ 6907 6896 6895 6894 ] final -102.67 input  -60.11 | X-H torsion
[ 7974 7965 7964 7962 ] final   43.19 input  175.53 | X-H torsion
[ 8008 7997 7996 7995 ] final  134.03 input   59.86 | X-H torsion
[ 10167 10162 10161 10158 ] final  -85.31 input  -65.29 | X-H torsion
[ 10718 10713 10712 10709 ] final -175.05 input   66.30 | X-H torsion
[ 10763 10752 10751 10750 ] final  179.30 input  -60.55 | X-H torsion
[ 11005 11000 10999 10996 ] final  177.99 input  -57.11 | X-H torsion

> <Gold.Protein.ActiveResidues>
 VAL166  LYS551  ARG553  GLY616  TRP617  ASP618  TYR619  PRO620  LYS621  CYS622 
 ASP623  PHE694  ASN695  SER759  ASP760  ASP761  ALA762  ILE779  LEU786  VAL792 
 PHE793  MET794  SER795  GLU796  ALA797  LYS798  CYS799  TRP800  GLU811  SER814 

> <Gold.Protein.RotatedAtoms>
  150.7206  134.0546  159.3809 H   0  0  0  0  0  0  0  0  0  0  0  0  # atno 6907 bound_to 6896
  151.8524  135.0551  160.0469 H   0  0  0  0  0  0  0  0  0  0  0  0  # atno 6908 bound_to 6896
  152.2780  133.5408  159.5516 H   0  0  0  0  0  0  0  0  0  0  0  0  # atno 6909 bound_to 6896
  146.0676  139.5215  142.9618 H   0  0  0  0  0  0  0  0  0  0  0  0  # atno 7974 bound_to 7965
  156.2996  140.2506  156.3351 H   0  0  0  0  0  0  0  0  0  0  0  0  # atno 8008 bound_to 7997
  154.9108  140.0403  157.1964 H   0  0  0  0  0  0  0  0  0  0  0  0  # atno 8009 bound_to 7997
  154.8407  140.2890  155.5665 H   0  0  0  0  0  0  0  0  0  0  0  0  # atno 8010 bound_to 7997
  140.4050  143.2647  151.9093 H   0  0  0  0  0  0  0  0  0  0  0  0  # atno 10167 bound_to 10162
  156.7942  130.9529  151.3120 H   0  0  0  0  0  0  0  0  0  0  0  0  # atno 10718 bound_to 10713
  154.5188  135.2793  155.1280 H   0  0  0  0  0  0  0  0  0  0  0  0  # atno 10763 bound_to 10752
  154.2845  135.6279  153.5364 H   0  0  0  0  0  0  0  0  0  0  0  0  # atno 10764 bound_to 10752
  152.9933  135.5659  154.5672 H   0  0  0  0  0  0  0  0  0  0  0  0  # atno 10765 bound_to 10752
  140.3902  134.6869  157.4503 H   0  0  0  0  0  0  0  0  0  0  0  0  # atno 11005 bound_to 11000
  145.6448  141.0276  143.1792 LP  0  0  0  0  0  0  0  0  0  0  0  0  # atno 17320 bound_to 7965
  144.7212  139.8024  143.7381 LP  0  0  0  0  0  0  0  0  0  0  0  0  # atno 17321 bound_to 7965
  139.4783  144.5595  151.8261 LP  0  0  0  0  0  0  0  0  0  0  0  0  # atno 17342 bound_to 10162
  140.4700  144.1601  150.5916 LP  0  0  0  0  0  0  0  0  0  0  0  0  # atno 17343 bound_to 10162
  157.6586  130.8946  149.9781 LP  0  0  0  0  0  0  0  0  0  0  0  0  # atno 17370 bound_to 10713
  156.1141  130.3648  149.9999 LP  0  0  0  0  0  0  0  0  0  0  0  0  # atno 17371 bound_to 10713
  140.0412  134.6264  155.8978 LP  0  0  0  0  0  0  0  0  0  0  0  0  # atno 17394 bound_to 11000
  141.1893  133.6565  156.5364 LP  0  0  0  0  0  0  0  0  0  0  0  0  # atno 17395 bound_to 11000

$$$$
