AV-unprocessed.smi:565|AV-procd|sdf|2954|dock9
  -GOLD-   2262023453D 1   1.00000     0.00000
 Structure written by MMmdl.
 50 51  0  0  0  0  0  0  0  0  2 V2000
  153.3065  137.7898  156.6868 C   0  0  0  0  0  0  0  0  0  0  0  0
  152.3068  138.7995  156.1995 C   0  0  0  0  0  0  0  0  0  0  0  0
  152.3303  140.0257  156.6945 N   0  0  0  0  0  0  0  0  0  0  0  0
  151.3274  140.6707  156.0662 N   0  0  0  0  0  0  0  0  0  0  0  0
  151.0694  142.0620  156.3827 C   0  0  0  0  0  0  0  0  0  0  0  0
  150.6711  139.8515  155.1683 C   0  0  0  0  0  0  0  0  0  0  0  0
  149.5174  140.3327  154.3484 C   0  0  0  0  0  0  0  0  0  0  0  0
  151.2763  138.6239  155.2296 C   0  0  0  0  0  0  0  0  0  0  0  0
  150.9431  137.3653  154.4684 C   0  0  0  0  0  0  0  0  0  0  0  0
  149.8456  136.6013  155.2084 C   0  0  0  0  0  0  0  0  0  0  0  0
  149.9848  136.3164  156.3977 O   0  0  0  0  0  0  0  0  0  0  0  0
  148.7487  136.2922  154.4991 N   0  0  0  0  0  0  0  0  0  0  0  0
  147.5641  135.6376  155.0386 C   0  0  0  0  0  0  0  0  0  0  0  0
  147.3127  134.2847  154.3451 C   0  0  0  0  0  0  0  0  0  0  0  0
  146.9182  134.4407  152.9227 N   0  3  2  0  0  0  0  0  0  0  0  0
  145.8483  135.4561  152.7465 C   0  0  0  0  0  0  0  0  0  0  0  0
  145.5559  135.6997  151.2577 C   0  0  0  0  0  0  0  0  0  0  0  0
  145.1837  134.3906  150.5507 C   0  0  0  0  0  0  0  0  0  0  0  0
  146.2838  133.3373  150.7654 C   0  0  2  0  0  0  0  0  0  0  0  0
  145.9233  132.0059  150.0915 C   0  0  0  0  0  0  0  0  0  0  0  0
  146.5589  133.1518  152.2715 C   0  0  0  0  0  0  0  0  0  0  0  0
  152.8425  136.8132  156.8243 H   0  0  0  0  0  0  0  0  0  0  0  0
  153.7432  138.0830  157.6423 H   0  0  0  0  0  0  0  0  0  0  0  0
  154.1203  137.6728  155.9711 H   0  0  0  0  0  0  0  0  0  0  0  0
  150.0079  142.2027  156.5876 H   0  0  0  0  0  0  0  0  0  0  0  0
  151.3557  142.6879  155.5371 H   0  0  0  0  0  0  0  0  0  0  0  0
  151.6396  142.3694  157.2606 H   0  0  0  0  0  0  0  0  0  0  0  0
  149.2728  139.6266  153.5552 H   0  0  0  0  0  0  0  0  0  0  0  0
  149.7432  141.2912  153.8803 H   0  0  0  0  0  0  0  0  0  0  0  0
  148.6308  140.4595  154.9695 H   0  0  0  0  0  0  0  0  0  0  0  0
  150.6107  137.5822  153.4531 H   0  0  0  0  0  0  0  0  0  0  0  0
  151.8175  136.7216  154.3660 H   0  0  0  0  0  0  0  0  0  0  0  0
  148.7230  136.5603  153.5258 H   0  0  0  0  0  0  0  0  0  0  0  0
  147.7191  135.4844  156.1068 H   0  0  0  0  0  0  0  0  0  0  0  0
  146.7088  136.3066  154.9414 H   0  0  0  0  0  0  0  0  0  0  0  0
  148.1887  133.6377  154.4109 H   0  0  0  0  0  0  0  0  0  0  0  0
  146.5156  133.7743  154.8877 H   0  0  0  0  0  0  0  0  0  0  0  0
  144.9437  135.1269  153.2606 H   0  0  0  0  0  0  0  0  0  0  0  0
  146.1511  136.3972  153.2076 H   0  0  0  0  0  0  0  0  0  0  0  0
  144.7479  136.4240  151.1501 H   0  0  0  0  0  0  0  0  0  0  0  0
  146.4317  136.1397  150.7785 H   0  0  0  0  0  0  0  0  0  0  0  0
  144.2330  134.0220  150.9387 H   0  0  0  0  0  0  0  0  0  0  0  0
  145.0360  134.5732  149.4857 H   0  0  0  0  0  0  0  0  0  0  0  0
  147.1994  133.7038  150.2982 H   0  0  0  0  0  0  0  0  0  0  0  0
  145.0124  131.5808  150.5143 H   0  0  0  0  0  0  0  0  0  0  0  0
  146.7213  131.2732  150.2152 H   0  0  0  0  0  0  0  0  0  0  0  0
  145.7625  132.1384  149.0211 H   0  0  0  0  0  0  0  0  0  0  0  0
  147.3667  132.4316  152.3968 H   0  0  0  0  0  0  0  0  0  0  0  0
  145.6827  132.7279  152.7653 H   0  0  0  0  0  0  0  0  0  0  0  0
  147.7283  134.8009  152.4390 H   0  0  0  0  0  0  0  0  0  0  0  0
  1  2  1  0  0  0  0
  1 22  1  0  0  0  0
  1 23  1  0  0  0  0
  1 24  1  0  0  0  0
  2  8  1  0  0  0  0
  2  3  2  0  0  0  0
  3  4  1  0  0  0  0
  4  5  1  0  0  0  0
  4  6  1  0  0  0  0
  5 25  1  0  0  0  0
  5 26  1  0  0  0  0
  5 27  1  0  0  0  0
  6  7  1  0  0  0  0
  6  8  2  0  0  0  0
  7 28  1  0  0  0  0
  7 29  1  0  0  0  0
  7 30  1  0  0  0  0
  8  9  1  0  0  0  0
  9 10  1  0  0  0  0
  9 31  1  0  0  0  0
  9 32  1  0  0  0  0
 10 11  2  0  0  0  0
 10 12  1  0  0  0  0
 12 13  1  0  0  0  0
 12 33  1  0  0  0  0
 13 14  1  0  0  0  0
 13 34  1  0  0  0  0
 13 35  1  0  0  0  0
 14 15  1  0  0  0  0
 14 36  1  0  0  0  0
 14 37  1  0  0  0  0
 15 21  1  0  0  0  0
 15 16  1  0  0  0  0
 15 50  1  0  0  0  0
 16 17  1  0  0  0  0
 16 38  1  0  0  0  0
 16 39  1  0  0  0  0
 17 18  1  0  0  0  0
 17 40  1  0  0  0  0
 17 41  1  0  0  0  0
 18 19  1  0  0  0  0
 18 42  1  0  0  0  0
 18 43  1  0  0  0  0
 19 20  1  0  0  0  0
 19 21  1  0  0  0  0
 19 44  1  0  0  0  0
 20 45  1  0  0  0  0
 20 46  1  0  0  0  0
 20 47  1  0  0  0  0
 21 48  1  0  0  0  0
 21 49  1  0  0  0  0
M  CHG  1  15   1
M  END
> <s_m_source_file>
AV-unprocessed.smi

> <i_m_source_file_index>
565

> <i_lp_mmshare_version>
43012

> <i_f3d_flags>
0

> <s_epik_input>
W0NIM11jMW5uKFtDSDNdKWMoW0NIM10pYzFbQ0gyXUMoPU8pW05IXVtDSDJdW0NIMl1OMltDSDJdW0NIMl1bQ0gyXVtDQEBIXShbQ0gzXSlbQ0gyXTI=

> <s_epik_cmdline>
J2VwaWtfcHl0aG9uJywgJy1waCcsICc3LjAnLCAnLXRuJywgJzgnLCAnLW1hJywgJzIwMCcsICctbWV0YWxfYmluZGluZycsICctaW1hZScsICc8aW5maWxlLm1hZT4nLCAnLW9tYWUnLCAnPG91dGZpbGUubWFlPic=

> <r_lp_tautomer_probability>
1

> <r_epik_Ionization_Penalty>
0.00411138

> <r_epik_Ionization_Penalty_Charging>
0.0019503

> <r_epik_Ionization_Penalty_Neutral>
0.00216107

> <r_epik_State_Penalty>
-0

> <r_epik_Charging_Adjusted_Penalty>
0.0019503

> <i_epik_Tot_Q>
1

> <i_epik_Tot_abs_Q>
1

> <r_epik_Metal_State_Penalty>
-0

> <b_epik_Metal_Only>
0

> <s_lp_Force_Field>
OPLS_2005

> <r_lp_Energy>
10.1844

> <b_lp_Chiralities_Consistent>
1

> <s_lp_Variant>
AV-unprocessed.smi:565-4

> <Gold.Version>
5.8.1

> <Gold.Id.Protein>
6NUR|6NUR_protein|mol2

> <Gold.PLP.Fitness>
47.5224

> <Gold.PLP.PLP>
-38.1159

> <Gold.PLP.part.hbond>
-3.0000

> <Gold.PLP.part.metal>
0.0000

> <Gold.PLP.part.buried>
-2.3561

> <Gold.PLP.part.nonpolar>
-33.0810

> <Gold.PLP.part.repulsive>
0.0205

> <Gold.PLP.ligand.clash>
0.0000

> <Gold.PLP.ligand.torsion>
0.4544

> <Gold.PLP.Chemscore.Hbond>
3.4280

> <Gold.PLP.Chemscore.CHOScore>
0.0000

> <Gold.PLP.Chemscore.Metal>
0.0000

> <Gold.Chemscore.Hbonds>
donor molecule, donor type, donor heavy atom, donor atom, acceptor molecule, acceptor atom, score
      L1  H    12    33       P1  7948  1.00
      L1  H    15    50       P1  7948  2.00
      P1  H  7997  8008       L1     3  0.55

> <Gold.PLP.Chemscore.Internal.Correction>
0.0313

> <Gold.Rescore>
     Score         DG    S(hbond)    S(metal)    S(lipo)     H(rot)  DE(clash)    DE(int)     intcor
     18.74     -19.34       2.14        0.00      92.70       1.61       0.16       0.43       ----

> <Gold.Chemscore.Fitness>
18.7385

> <Gold.Chemscore.DG>
-19.3370

> <Gold.Chemscore.ZeroCoef>
-5.4800

> <Gold.Chemscore.Hbond>
2.1388

> <Gold.Chemscore.Metal>
0.0000

> <Gold.Chemscore.Lipo>
92.6980

> <Gold.Chemscore.Internal_Hbond>
0.0000

> <Gold.Chemscore.DEClash>
0.1638

> <Gold.Chemscore.DEInternal>
0.4347

> <Gold.Chemscore.Rot>
1.6142

> <Gold.Chemscore.Internal.Correction>
   9.000000E+99

> <Gold.Chemscore.Hbonds>
donor molecule, donor type, donor heavy atom, donor atom, acceptor molecule, acceptor atom, score
      L1  H    12    33       P1  7948  0.95
      L1  H    15    50       P1  7948  0.84
      P1  H  7997  8008       L1     3  0.03

> <Gold.Chemscore.Hbond.Weighted>
-7.1437

> <Gold.Chemscore.Metal.Weighted>
-0.0000

> <Gold.Chemscore.Lipo.Weighted>
-10.8457

> <Gold.Chemscore.Internal_Hbond.Weighted>
0.0000

> <Gold.Chemscore.DEClash.Weighted>
0.1638

> <Gold.Chemscore.DEInternal.Weighted>
0.4347

> <Gold.Chemscore.Rot.Weighted>
4.1324

> <Gold.Chemscore.Internal.Correction.Weighted>
   9.000000E+99

> <Gold.Protein.RotatedTorsions>
[ 6907 6896 6895 6894 ] final   21.59 input  -60.11 | X-H torsion
[ 7974 7965 7964 7962 ] final  -67.00 input  175.53 | X-H torsion
[ 8008 7997 7996 7995 ] final  -44.49 input   59.86 | X-H torsion
[ 10167 10162 10161 10158 ] final   11.28 input  -65.29 | X-H torsion
[ 10718 10713 10712 10709 ] final   -3.18 input   66.30 | X-H torsion
[ 10763 10752 10751 10750 ] final  -80.56 input  -60.55 | X-H torsion
[ 11005 11000 10999 10996 ] final   55.90 input  -57.11 | X-H torsion

> <Gold.Protein.ActiveResidues>
 VAL166  LYS551  ARG553  GLY616  TRP617  ASP618  TYR619  PRO620  LYS621  CYS622 
 ASP623  PHE694  ASN695  SER759  ASP760  ASP761  ALA762  ILE779  LEU786  VAL792 
 PHE793  MET794  SER795  GLU796  ALA797  LYS798  CYS799  TRP800  GLU811  SER814 

> <Gold.Protein.RotatedAtoms>
  151.9142  135.0326  160.0516 H   0  0  0  0  0  0  0  0  0  0  0  0  # atno 6907 bound_to 6896
  152.2254  133.5011  159.5194 H   0  0  0  0  0  0  0  0  0  0  0  0  # atno 6908 bound_to 6896
  150.7011  134.1204  159.4075 H   0  0  0  0  0  0  0  0  0  0  0  0  # atno 6909 bound_to 6896
  145.7346  140.8981  143.0562 H   0  0  0  0  0  0  0  0  0  0  0  0  # atno 7974 bound_to 7965
  154.3997  140.1421  156.3692 H   0  0  0  0  0  0  0  0  0  0  0  0  # atno 8008 bound_to 7997
  155.8109  140.3473  155.5436 H   0  0  0  0  0  0  0  0  0  0  0  0  # atno 8009 bound_to 7997
  155.8387  140.0923  157.1738 H   0  0  0  0  0  0  0  0  0  0  0  0  # atno 8010 bound_to 7997
  140.6142  143.8344  150.7099 H   0  0  0  0  0  0  0  0  0  0  0  0  # atno 10167 bound_to 10162
  156.7798  130.5327  149.5753 H   0  0  0  0  0  0  0  0  0  0  0  0  # atno 10718 bound_to 10713
  154.5527  135.5657  153.6936 H   0  0  0  0  0  0  0  0  0  0  0  0  # atno 10763 bound_to 10752
  152.9994  135.6254  154.2352 H   0  0  0  0  0  0  0  0  0  0  0  0  # atno 10764 bound_to 10752
  154.2288  135.2866  155.2877 H   0  0  0  0  0  0  0  0  0  0  0  0  # atno 10765 bound_to 10752
  140.0571  134.5655  155.9195 H   0  0  0  0  0  0  0  0  0  0  0  0  # atno 11005 bound_to 11000
  144.6884  139.9378  143.7474 LP  0  0  0  0  0  0  0  0  0  0  0  0  # atno 17320 bound_to 7965
  146.0505  139.3506  143.0642 LP  0  0  0  0  0  0  0  0  0  0  0  0  # atno 17321 bound_to 7965
  140.1919  143.4029  152.1857 LP  0  0  0  0  0  0  0  0  0  0  0  0  # atno 17342 bound_to 10162
  139.5385  144.7233  151.4812 LP  0  0  0  0  0  0  0  0  0  0  0  0  # atno 17343 bound_to 10162
  156.1225  130.6120  151.0214 LP  0  0  0  0  0  0  0  0  0  0  0  0  # atno 17370 bound_to 10713
  157.6651  131.0873  150.7746 LP  0  0  0  0  0  0  0  0  0  0  0  0  # atno 17371 bound_to 10713
  141.1957  133.6588  156.5654 LP  0  0  0  0  0  0  0  0  0  0  0  0  # atno 17394 bound_to 11000
  140.3828  134.7509  157.4672 LP  0  0  0  0  0  0  0  0  0  0  0  0  # atno 17395 bound_to 11000

$$$$
