AV-unprocessed.smi:2698|AV-procd|sdf|10422|dock9
  -GOLD-   2272014463D 1   1.00000     0.00000
 Structure written by MMmdl.
 33 33  0  0  0  0  0  0  0  0  2 V2000
  152.0259  145.4000  159.6603 C   0  0  0  0  0  0  0  0  0  0  0  0
  151.9131  143.8890  159.4071 C   0  0  0  0  0  0  0  0  0  0  0  0
  153.1012  143.1493  160.0495 C   0  0  0  0  0  0  0  0  0  0  0  0
  151.7577  143.6021  157.8954 C   0  0  0  0  0  0  0  0  0  0  0  0
  151.3250  142.1654  157.5910 C   0  0  0  0  0  0  0  0  0  0  0  0
  151.3226  141.3186  158.4847 O   0  0  0  0  0  0  0  0  0  0  0  0
  150.9654  141.9086  156.3230 N   0  0  0  0  0  0  0  0  0  0  0  0
  150.4658  140.6343  155.8059 C   0  0  1  0  0  0  0  0  0  0  0  0
  149.8705  140.7958  154.3898 C   0  0  0  0  0  0  0  0  0  0  0  0
  148.3877  141.0724  154.3447 C   0  0  0  0  0  0  0  0  0  0  0  0
  147.4324  140.5131  153.5210 C   0  0  0  0  0  0  0  0  0  0  0  0
  146.2236  141.0745  153.8920 N   0  0  0  0  0  0  0  0  0  0  0  0
  146.4769  141.9239  154.8879 C   0  0  0  0  0  0  0  0  0  0  0  0
  147.7617  141.9759  155.2121 N   0  0  0  0  0  0  0  0  0  0  0  0
  151.5666  139.5713  155.8789 C   0  0  0  0  0  0  0  0  0  0  0  0
  151.3810  138.6049  156.6520 O   0  0  0  0  0  0  0  0  0  0  0  0
  152.5785  139.7430  155.1645 O   0  5  0  0  0  0  0  0  0  0  0  0
  145.3195  140.8736  153.4901 H   0  0  0  0  0  0  0  0  0  0  0  0
  152.9201  145.8138  159.1935 H   0  0  0  0  0  0  0  0  0  0  0  0
  152.0759  145.6172  160.7276 H   0  0  0  0  0  0  0  0  0  0  0  0
  151.1631  145.9323  159.2589 H   0  0  0  0  0  0  0  0  0  0  0  0
  151.0057  143.5486  159.9090 H   0  0  0  0  0  0  0  0  0  0  0  0
  154.0404  143.4108  159.5612 H   0  0  0  0  0  0  0  0  0  0  0  0
  152.9851  142.0674  159.9930 H   0  0  0  0  0  0  0  0  0  0  0  0
  153.1945  143.4033  161.1056 H   0  0  0  0  0  0  0  0  0  0  0  0
  151.0240  144.2843  157.4629 H   0  0  0  0  0  0  0  0  0  0  0  0
  152.6964  143.8032  157.3775 H   0  0  0  0  0  0  0  0  0  0  0  0
  151.0216  142.6632  155.6545 H   0  0  0  0  0  0  0  0  0  0  0  0
  149.6622  140.2871  156.4585 H   0  0  0  0  0  0  0  0  0  0  0  0
  150.3874  141.5909  153.8502 H   0  0  0  0  0  0  0  0  0  0  0  0
  150.0487  139.8821  153.8215 H   0  0  0  0  0  0  0  0  0  0  0  0
  147.5126  139.7765  152.7355 H   0  0  0  0  0  0  0  0  0  0  0  0
  145.7144  142.5074  155.3826 H   0  0  0  0  0  0  0  0  0  0  0  0
  1  2  1  0  0  0  0
  1 19  1  0  0  0  0
  1 20  1  0  0  0  0
  1 21  1  0  0  0  0
  2  3  1  0  0  0  0
  2  4  1  0  0  0  0
  2 22  1  0  0  0  0
  3 23  1  0  0  0  0
  3 24  1  0  0  0  0
  3 25  1  0  0  0  0
  4  5  1  0  0  0  0
  4 26  1  0  0  0  0
  4 27  1  0  0  0  0
  5  6  2  0  0  0  0
  5  7  1  0  0  0  0
  7  8  1  0  0  0  0
  7 28  1  0  0  0  0
  8  9  1  0  0  0  0
  8 15  1  0  0  0  0
  8 29  1  0  0  0  0
  9 10  1  0  0  0  0
  9 30  1  0  0  0  0
  9 31  1  0  0  0  0
 10 14  1  0  0  0  0
 10 11  2  0  0  0  0
 11 12  1  0  0  0  0
 11 32  1  0  0  0  0
 12 18  1  0  0  0  0
 12 13  1  0  0  0  0
 13 14  2  0  0  0  0
 13 33  1  0  0  0  0
 15 16  2  0  0  0  0
 15 17  1  0  0  0  0
M  CHG  1  17  -1
M  END
> <s_m_source_file>
AV-unprocessed.smi

> <i_m_source_file_index>
2698

> <i_lp_mmshare_version>
43012

> <i_f3d_flags>
0

> <s_epik_input>
W0NIM11bQ0hdKFtDSDNdKVtDSDJdQyg9TylbTkhdW0NAQEhdKEMoPU8pW09IXSlbQ0gyXWMxW2NIXVtuSF1bY0hdbjE=

> <s_epik_cmdline>
J2VwaWtfcHl0aG9uJywgJy1waCcsICc3LjAnLCAnLXRuJywgJzgnLCAnLW1hJywgJzIwMCcsICctbWV0YWxfYmluZGluZycsICctaW1hZScsICc8aW5maWxlLm1hZT4nLCAnLW9tYWUnLCAnPG91dGZpbGUubWFlPic=

> <r_lp_tautomer_probability>
0.5

> <r_epik_Ionization_Penalty>
0.818672

> <r_epik_Ionization_Penalty_Charging>
0.818672

> <r_epik_Ionization_Penalty_Neutral>
7.99661e-08

> <r_epik_State_Penalty>
0.927032

> <r_epik_Charging_Adjusted_Penalty>
1.7457

> <i_epik_Tot_Q>
-1

> <i_epik_Tot_abs_Q>
1

> <r_epik_Metal_State_Penalty>
0.525537

> <b_epik_Metal_Only>
0

> <s_lp_Force_Field>
OPLS_2005

> <r_lp_Energy>
1.97611

> <b_lp_Chiralities_Consistent>
1

> <s_lp_Variant>
AV-unprocessed.smi:2698-6

> <Gold.Version>
5.8.1

> <Gold.Id.Protein>
6NUR|6NUR_protein|mol2

> <Gold.PLP.Fitness>
46.6070

> <Gold.PLP.PLP>
-35.6819

> <Gold.PLP.part.hbond>
-3.0000

> <Gold.PLP.part.metal>
0.0000

> <Gold.PLP.part.buried>
-1.4975

> <Gold.PLP.part.nonpolar>
-32.3943

> <Gold.PLP.part.repulsive>
1.3224

> <Gold.PLP.ligand.clash>
0.0000

> <Gold.PLP.ligand.torsion>
0.9499

> <Gold.PLP.Chemscore.Hbond>
3.4774

> <Gold.PLP.Chemscore.CHOScore>
0.7559

> <Gold.PLP.Chemscore.Metal>
0.0000

> <Gold.Chemscore.Hbonds>
donor molecule, donor type, donor heavy atom, donor atom, acceptor molecule, acceptor atom, score
      L1  H    12    18       P1 10175  1.00
      P1  H  7989  7998       L1    17  0.36
      P1  H  7997  8010       L1    17  1.89
      L1  C    11    32       P1  7957  0.56

> <Gold.PLP.Chemscore.Internal.Correction>
0.1250

> <Gold.Rescore>
     Score         DG    S(hbond)    S(metal)    S(lipo)     H(rot)  DE(clash)    DE(int)     intcor
     10.29     -13.15       2.00        0.00      74.39       3.01       0.79       2.07       ----

> <Gold.Chemscore.Fitness>
10.2903

> <Gold.Chemscore.DG>
-13.1511

> <Gold.Chemscore.ZeroCoef>
-5.4800

> <Gold.Chemscore.Hbond>
2.0014

> <Gold.Chemscore.Metal>
0.0000

> <Gold.Chemscore.Lipo>
74.3887

> <Gold.Chemscore.Internal_Hbond>
0.0000

> <Gold.Chemscore.DEClash>
0.7919

> <Gold.Chemscore.DEInternal>
2.0689

> <Gold.Chemscore.Rot>
3.0145

> <Gold.Chemscore.Internal.Correction>
   9.000000E+99

> <Gold.Chemscore.Hbonds>
donor molecule, donor type, donor heavy atom, donor atom, acceptor molecule, acceptor atom, score
      L1  H    12    18       P1 10175  0.77
      P1  H  7989  7998       L1    17  0.09
      P1  H  7997  8010       L1    17  0.90

> <Gold.Chemscore.Hbond.Weighted>
-6.6847

> <Gold.Chemscore.Metal.Weighted>
-0.0000

> <Gold.Chemscore.Lipo.Weighted>
-8.7035

> <Gold.Chemscore.Internal_Hbond.Weighted>
0.0000

> <Gold.Chemscore.DEClash.Weighted>
0.7919

> <Gold.Chemscore.DEInternal.Weighted>
2.0689

> <Gold.Chemscore.Rot.Weighted>
7.7171

> <Gold.Chemscore.Internal.Correction.Weighted>
   9.000000E+99

> <Gold.Protein.RotatedTorsions>
[ 6907 6896 6895 6894 ] final  -84.55 input  -60.11 | X-H torsion
[ 7974 7965 7964 7962 ] final   75.76 input  175.53 | X-H torsion
[ 8008 7997 7996 7995 ] final  103.31 input   59.86 | X-H torsion
[ 10167 10162 10161 10158 ] final -148.54 input  -65.29 | X-H torsion
[ 10718 10713 10712 10709 ] final  -16.02 input   66.30 | X-H torsion
[ 10763 10752 10751 10750 ] final  -73.22 input  -60.55 | X-H torsion
[ 11005 11000 10999 10996 ] final   -3.72 input  -57.11 | X-H torsion

> <Gold.Protein.ActiveResidues>
 VAL166  LYS551  ARG553  GLY616  TRP617  ASP618  TYR619  PRO620  LYS621  CYS622 
 ASP623  PHE694  ASN695  SER759  ASP760  ASP761  ALA762  ILE779  LEU786  VAL792 
 PHE793  MET794  SER795  GLU796  ALA797  LYS798  CYS799  TRP800  GLU811  SER814 

> <Gold.Protein.RotatedAtoms>
  150.6876  134.3341  159.4839 H   0  0  0  0  0  0  0  0  0  0  0  0  # atno 6907 bound_to 6896
  152.1202  134.9208  160.0572 H   0  0  0  0  0  0  0  0  0  0  0  0  # atno 6908 bound_to 6896
  152.0417  133.3945  159.4376 H   0  0  0  0  0  0  0  0  0  0  0  0  # atno 6909 bound_to 6896
  145.7115  139.2616  143.1648 H   0  0  0  0  0  0  0  0  0  0  0  0  # atno 7974 bound_to 7965
  156.1473  140.3167  155.8590 H   0  0  0  0  0  0  0  0  0  0  0  0  # atno 8008 bound_to 7997
  155.4040  140.0501  157.3052 H   0  0  0  0  0  0  0  0  0  0  0  0  # atno 8009 bound_to 7997
  154.5027  140.2135  155.9325 H   0  0  0  0  0  0  0  0  0  0  0  0  # atno 8010 bound_to 7997
  139.7523  143.8500  152.2589 H   0  0  0  0  0  0  0  0  0  0  0  0  # atno 10167 bound_to 10162
  156.5935  130.4805  149.6269 H   0  0  0  0  0  0  0  0  0  0  0  0  # atno 10718 bound_to 10713
  154.4564  135.5904  153.6226 H   0  0  0  0  0  0  0  0  0  0  0  0  # atno 10763 bound_to 10752
  152.9818  135.6033  154.3540 H   0  0  0  0  0  0  0  0  0  0  0  0  # atno 10764 bound_to 10752
  154.3407  135.2841  155.2403 H   0  0  0  0  0  0  0  0  0  0  0  0  # atno 10765 bound_to 10752
  140.6724  133.9225  155.8503 H   0  0  0  0  0  0  0  0  0  0  0  0  # atno 11005 bound_to 11000
  146.0708  140.7870  142.9689 LP  0  0  0  0  0  0  0  0  0  0  0  0  # atno 17320 bound_to 7965
  144.6941  140.3340  143.7211 LP  0  0  0  0  0  0  0  0  0  0  0  0  # atno 17321 bound_to 7965
  139.8482  144.7177  150.9247 LP  0  0  0  0  0  0  0  0  0  0  0  0  # atno 17342 bound_to 10162
  140.7799  143.3923  151.1289 LP  0  0  0  0  0  0  0  0  0  0  0  0  # atno 17343 bound_to 10162
  156.2529  130.6918  151.1661 LP  0  0  0  0  0  0  0  0  0  0  0  0  # atno 17370 bound_to 10713
  157.7297  131.0622  150.5759 LP  0  0  0  0  0  0  0  0  0  0  0  0  # atno 17371 bound_to 10713
  141.0381  134.0660  157.3934 LP  0  0  0  0  0  0  0  0  0  0  0  0  # atno 17394 bound_to 11000
  139.8977  135.0151  156.7114 LP  0  0  0  0  0  0  0  0  0  0  0  0  # atno 17395 bound_to 11000

$$$$
