AV-unprocessed.smi:104|AV-procd|sdf|1003|dock8
  -GOLD-   2262017593D 1   1.00000     0.00000
 Structure written by MMmdl.
 47 49  0  0  0  0  0  0  0  0  1 V2000
  152.7060  139.0545  154.5962 C   0  0  0  0  0  0  0  0  0  0  0  0
  151.2262  139.2825  154.8747 C   0  0  0  0  0  0  0  0  0  0  0  0
  150.6985  140.3749  154.6694 O   0  0  0  0  0  0  0  0  0  0  0  0
  150.6184  138.1811  155.3495 O   0  0  0  0  0  0  0  0  0  0  0  0
  149.2947  138.2432  155.8639 C   0  0  0  0  0  0  0  0  0  0  0  0
  148.8354  136.8586  156.3553 C   0  0  2  0  0  0  0  0  0  0  0  0
  149.1952  135.8404  155.4380 O   0  0  0  0  0  0  0  0  0  0  0  0
  148.4906  134.6953  155.7927 C   0  0  2  0  0  0  0  0  0  0  0  0
  148.2595  133.8827  154.5626 N   0  0  0  0  0  0  0  0  0  0  0  0
  148.8485  132.7019  154.1714 C   0  0  0  0  0  0  0  0  0  0  0  0
  150.1685  131.8202  155.2241 Br  0  0  0  0  0  0  0  0  0  0  0  0
  148.4555  132.1888  153.0389 N   0  0  0  0  0  0  0  0  0  0  0  0
  147.5006  133.1002  152.6044 C   0  0  0  0  0  0  0  0  0  0  0  0
  146.6629  133.1826  151.4637 C   0  0  0  0  0  0  0  0  0  0  0  0
  146.6637  132.2642  150.4879 N   0  0  0  0  0  0  0  0  0  0  0  0
  145.8207  134.2369  151.3536 N   0  0  0  0  0  0  0  0  0  0  0  0
  145.7990  135.1670  152.3137 C   0  0  0  0  0  0  0  0  0  0  0  0
  146.5217  135.2266  153.4351 N   0  0  0  0  0  0  0  0  0  0  0  0
  147.3703  134.1627  153.5454 C   0  0  0  0  0  0  0  0  0  0  0  0
  147.1511  135.1456  156.3979 C   0  0  1  0  0  0  0  0  0  0  0  0
  146.9359  134.5419  157.6662 O   0  0  0  0  0  0  0  0  0  0  0  0
  147.8800  134.6237  158.6200 C   0  0  0  0  0  0  0  0  0  0  0  0
  147.4294  134.0069  159.9371 C   0  0  0  0  0  0  0  0  0  0  0  0
  148.9925  135.1366  158.4971 O   0  0  0  0  0  0  0  0  0  0  0  0
  147.3289  136.6539  156.5604 C   0  0  2  0  0  0  0  0  0  0  0  0
  146.5711  137.3397  155.5702 O   0  0  0  0  0  0  0  0  0  0  0  0
  145.2286  137.2762  155.5731 C   0  0  0  0  0  0  0  0  0  0  0  0
  144.6114  138.0489  154.4155 C   0  0  0  0  0  0  0  0  0  0  0  0
  144.5333  136.6731  156.3907 O   0  0  0  0  0  0  0  0  0  0  0  0
  153.2933  139.2624  155.4905 H   0  0  0  0  0  0  0  0  0  0  0  0
  153.0478  139.7123  153.7970 H   0  0  0  0  0  0  0  0  0  0  0  0
  152.8875  138.0229  154.2936 H   0  0  0  0  0  0  0  0  0  0  0  0
  149.1755  139.0106  156.6297 H   0  0  0  0  0  0  0  0  0  0  0  0
  148.6553  138.5462  155.0347 H   0  0  0  0  0  0  0  0  0  0  0  0
  149.3529  136.6266  157.2883 H   0  0  0  0  0  0  0  0  0  0  0  0
  149.0903  134.0773  156.4609 H   0  0  0  0  0  0  0  0  0  0  0  0
  147.2819  131.4678  150.5475 H   0  0  0  0  0  0  0  0  0  0  0  0
  146.0445  132.3679  149.6971 H   0  0  0  0  0  0  0  0  0  0  0  0
  145.1035  135.9794  152.1629 H   0  0  0  0  0  0  0  0  0  0  0  0
  146.3286  134.9260  155.7146 H   0  0  0  0  0  0  0  0  0  0  0  0
  146.6265  134.5995  160.3756 H   0  0  0  0  0  0  0  0  0  0  0  0
  148.2574  133.9695  160.6453 H   0  0  0  0  0  0  0  0  0  0  0  0
  147.0656  132.9919  159.7772 H   0  0  0  0  0  0  0  0  0  0  0  0
  147.0340  137.0013  157.5524 H   0  0  0  0  0  0  0  0  0  0  0  0
  144.8218  139.1135  154.5182 H   0  0  0  0  0  0  0  0  0  0  0  0
  143.5303  137.9097  154.3945 H   0  0  0  0  0  0  0  0  0  0  0  0
  145.0233  137.7032  153.4673 H   0  0  0  0  0  0  0  0  0  0  0  0
  1  2  1  0  0  0  0
  1 30  1  0  0  0  0
  1 31  1  0  0  0  0
  1 32  1  0  0  0  0
  2  3  2  0  0  0  0
  2  4  1  0  0  0  0
  4  5  1  0  0  0  0
  5  6  1  0  0  0  0
  5 33  1  0  0  0  0
  5 34  1  0  0  0  0
  6 25  1  0  0  0  0
  6  7  1  0  0  0  0
  6 35  1  0  0  0  0
  7  8  1  0  0  0  0
  8  9  1  0  0  0  0
  8 20  1  0  0  0  0
  8 36  1  0  0  0  0
  9 19  1  0  0  0  0
  9 10  1  0  0  0  0
 10 11  1  0  0  0  0
 10 12  2  0  0  0  0
 12 13  1  0  0  0  0
 13 19  2  0  0  0  0
 13 14  1  0  0  0  0
 14 15  1  0  0  0  0
 14 16  2  0  0  0  0
 15 37  1  0  0  0  0
 15 38  1  0  0  0  0
 16 17  1  0  0  0  0
 17 18  2  0  0  0  0
 17 39  1  0  0  0  0
 18 19  1  0  0  0  0
 20 21  1  0  0  0  0
 20 25  1  0  0  0  0
 20 40  1  0  0  0  0
 21 22  1  0  0  0  0
 22 23  1  0  0  0  0
 22 24  2  0  0  0  0
 23 41  1  0  0  0  0
 23 42  1  0  0  0  0
 23 43  1  0  0  0  0
 25 26  1  0  0  0  0
 25 44  1  0  0  0  0
 26 27  1  0  0  0  0
 27 28  1  0  0  0  0
 27 29  2  0  0  0  0
 28 45  1  0  0  0  0
 28 46  1  0  0  0  0
 28 47  1  0  0  0  0
M  END
> <s_m_source_file>
AV-unprocessed.smi

> <i_m_source_file_index>
104

> <i_lp_mmshare_version>
43012

> <i_f3d_flags>
0

> <s_epik_input>
W0NIM11DKD1PKU9bQ0gyXVtDQEBIXTFPW0NASF0oW0NAQEhdKE9DKD1PKVtDSDNdKVtDQEhdMU9DKD1PKVtDSDNdKW4oYyhCciluMiljKGMyMyluW2NIXW5jM1tOSDJd

> <s_epik_cmdline>
J2VwaWtfcHl0aG9uJywgJy1waCcsICc3LjAnLCAnLXRuJywgJzgnLCAnLW1hJywgJzIwMCcsICctbWV0YWxfYmluZGluZycsICctaW1hZScsICc8aW5maWxlLm1hZT4nLCAnLW9tYWUnLCAnPG91dGZpbGUubWFlPic=

> <r_lp_tautomer_probability>
1

> <r_epik_Ionization_Penalty>
7.36622e-05

> <r_epik_Ionization_Penalty_Charging>
0

> <r_epik_Ionization_Penalty_Neutral>
7.36622e-05

> <r_epik_State_Penalty>
-0

> <r_epik_Charging_Adjusted_Penalty>
0

> <i_epik_Tot_Q>
0

> <i_epik_Tot_abs_Q>
0

> <r_epik_Metal_State_Penalty>
-0

> <b_epik_Metal_Only>
0

> <s_epik_Chemistry_Notes>
This compound has an ester and may undergo hydrolysis at high or low pH. This compound contains an acetal/aminal-like group ( X-CH(R)-Y where X, Y are N, S, or O) that may be acid/base labile, releasing an aldehyde.

> <s_lp_Force_Field>
OPLS_2005

> <r_lp_Energy>
15.0278

> <b_lp_Chiralities_Consistent>
1

> <s_lp_Variant>
AV-unprocessed.smi:104-11

> <Gold.Version>
5.8.1

> <Gold.Id.Protein>
6NUR|6NUR_protein|mol2

> <Gold.PLP.Fitness>
35.9838

> <Gold.PLP.PLP>
-28.0878

> <Gold.PLP.part.hbond>
-3.0000

> <Gold.PLP.part.metal>
0.0000

> <Gold.PLP.part.buried>
-4.8320

> <Gold.PLP.part.nonpolar>
-21.7155

> <Gold.PLP.part.repulsive>
2.3026

> <Gold.PLP.ligand.clash>
0.0000

> <Gold.PLP.ligand.torsion>
0.6164

> <Gold.PLP.Chemscore.Hbond>
3.0000

> <Gold.PLP.Chemscore.CHOScore>
0.0000

> <Gold.PLP.Chemscore.Metal>
0.0000

> <Gold.Chemscore.Hbonds>
donor molecule, donor type, donor heavy atom, donor atom, acceptor molecule, acceptor atom, score
      L1  H    15    37       P1 10747  0.91
      P1  H  6896  6908       L1    24  0.86
      P1  H  7989  7998       L1     3  0.95

> <Gold.PLP.Chemscore.Internal.Correction>
0.1288

> <Gold.Rescore>
     Score         DG    S(hbond)    S(metal)    S(lipo)     H(rot)  DE(clash)    DE(int)     intcor
      0.22      -7.58       2.85        0.00      30.92       4.31       0.13       7.23       ----

> <Gold.Chemscore.Fitness>
0.2240

> <Gold.Chemscore.DG>
-7.5798

> <Gold.Chemscore.ZeroCoef>
-5.4800

> <Gold.Chemscore.Hbond>
2.8469

> <Gold.Chemscore.Metal>
0.0000

> <Gold.Chemscore.Lipo>
30.9160

> <Gold.Chemscore.Internal_Hbond>
0.0000

> <Gold.Chemscore.DEClash>
0.1269

> <Gold.Chemscore.DEInternal>
7.2289

> <Gold.Chemscore.Rot>
4.3070

> <Gold.Chemscore.Internal.Correction>
   9.000000E+99

> <Gold.Chemscore.Hbonds>
donor molecule, donor type, donor heavy atom, donor atom, acceptor molecule, acceptor atom, score
      L1  H    15    37       P1 10747  0.88
      P1  H  6896  6908       L1    24  0.83
      P1  H  7989  7998       L1     3  0.21

> <Gold.Chemscore.Hbond.Weighted>
-9.5085

> <Gold.Chemscore.Metal.Weighted>
-0.0000

> <Gold.Chemscore.Lipo.Weighted>
-3.6172

> <Gold.Chemscore.Internal_Hbond.Weighted>
0.0000

> <Gold.Chemscore.DEClash.Weighted>
0.1269

> <Gold.Chemscore.DEInternal.Weighted>
7.2289

> <Gold.Chemscore.Rot.Weighted>
11.0259

> <Gold.Chemscore.Internal.Correction.Weighted>
   9.000000E+99

> <Gold.Protein.RotatedTorsions>
[ 6907 6896 6895 6894 ] final  175.49 input  -60.11 | X-H torsion
[ 7974 7965 7964 7962 ] final -174.96 input  175.53 | X-H torsion
[ 8008 7997 7996 7995 ] final -109.79 input   59.86 | X-H torsion
[ 10167 10162 10161 10158 ] final  -17.36 input  -65.29 | X-H torsion
[ 10718 10713 10712 10709 ] final  125.58 input   66.30 | X-H torsion
[ 10763 10752 10751 10750 ] final -160.32 input  -60.55 | X-H torsion
[ 11005 11000 10999 10996 ] final  -89.11 input  -57.11 | X-H torsion

> <Gold.Protein.ActiveResidues>
 VAL166  LYS551  ARG553  GLY616  TRP617  ASP618  TYR619  PRO620  LYS621  CYS622 
 ASP623  PHE694  ASN695  SER759  ASP760  ASP761  ALA762  ILE779  LEU786  VAL792 
 PHE793  MET794  SER795  GLU796  ALA797  LYS798  CYS799  TRP800  GLU811  SER814 

> <Gold.Protein.RotatedAtoms>
  151.7355  133.3319  159.3351 H   0  0  0  0  0  0  0  0  0  0  0  0  # atno 6907 bound_to 6896
  150.7595  134.6325  159.6203 H   0  0  0  0  0  0  0  0  0  0  0  0  # atno 6908 bound_to 6896
  152.3564  134.6935  160.0272 H   0  0  0  0  0  0  0  0  0  0  0  0  # atno 6909 bound_to 6896
  144.7130  140.1393  143.6393 H   0  0  0  0  0  0  0  0  0  0  0  0  # atno 7974 bound_to 7965
  154.9646  140.0398  157.2206 H   0  0  0  0  0  0  0  0  0  0  0  0  # atno 8008 bound_to 7997
  154.7857  140.2826  155.6007 H   0  0  0  0  0  0  0  0  0  0  0  0  # atno 8009 bound_to 7997
  156.2942  140.2583  156.2693 H   0  0  0  0  0  0  0  0  0  0  0  0  # atno 8010 bound_to 7997
  140.7246  143.5023  150.9854 H   0  0  0  0  0  0  0  0  0  0  0  0  # atno 10167 bound_to 10162
  157.5491  131.1094  150.8732 H   0  0  0  0  0  0  0  0  0  0  0  0  # atno 10718 bound_to 10713
  154.7400  135.3066  154.8744 H   0  0  0  0  0  0  0  0  0  0  0  0  # atno 10763 bound_to 10752
  153.9561  135.6758  153.4748 H   0  0  0  0  0  0  0  0  0  0  0  0  # atno 10764 bound_to 10752
  153.1000  135.4917  154.8773 H   0  0  0  0  0  0  0  0  0  0  0  0  # atno 10765 bound_to 10752
  141.1590  133.7610  156.9547 H   0  0  0  0  0  0  0  0  0  0  0  0  # atno 11005 bound_to 11000
  145.9216  139.2549  143.1378 LP  0  0  0  0  0  0  0  0  0  0  0  0  # atno 17320 bound_to 7965
  145.9614  140.8832  143.0208 LP  0  0  0  0  0  0  0  0  0  0  0  0  # atno 17321 bound_to 7965
  139.8733  143.7165  152.3164 LP  0  0  0  0  0  0  0  0  0  0  0  0  # atno 17342 bound_to 10162
  139.7421  144.7557  151.0636 LP  0  0  0  0  0  0  0  0  0  0  0  0  # atno 17343 bound_to 10162
  156.9262  130.5333  149.5279 LP  0  0  0  0  0  0  0  0  0  0  0  0  # atno 17370 bound_to 10713
  156.0561  130.5622  150.9094 LP  0  0  0  0  0  0  0  0  0  0  0  0  # atno 17371 bound_to 10713
  140.1233  134.9403  157.2234 LP  0  0  0  0  0  0  0  0  0  0  0  0  # atno 17394 bound_to 11000
  140.3044  134.3094  155.7281 LP  0  0  0  0  0  0  0  0  0  0  0  0  # atno 17395 bound_to 11000

$$$$
