AV-unprocessed.smi:2437|AV-procd|sdf|9594|dock7
  -GOLD-   2272013223D 1   1.00000     0.00000
 Structure written by MMmdl.
 34 35  0  0  0  0  0  0  0  0  3 V2000
  150.3491  142.0526  159.0867 O   0  0  0  0  0  0  0  0  0  0  0  0
  150.1183  142.4202  157.9337 C   0  0  0  0  0  0  0  0  0  0  0  0
  149.0231  141.7494  157.0915 C   0  0  0  0  0  0  0  0  0  0  0  0
  149.5474  140.8123  156.0834 N   0  0  0  0  0  0  0  0  0  0  0  0
  150.7476  140.1434  156.3952 C   0  0  0  0  0  0  0  0  0  0  0  0
  151.3226  139.2705  155.5449 C   0  0  0  0  0  0  0  0  0  0  0  0
  152.5552  138.5925  155.8818 N   0  3  0  0  0  0  0  0  0  0  0  0
  153.1749  138.9577  156.8756 O   0  0  0  0  0  0  0  0  0  0  0  0
  152.9457  137.6755  155.1654 O   0  5  0  0  0  0  0  0  0  0  0  0
  150.6641  139.0330  154.2750 C   0  0  0  0  0  0  0  0  0  0  0  0
  149.5170  139.6709  153.9699 C   0  0  0  0  0  0  0  0  0  0  0  0
  148.8924  140.6197  154.8975 C   0  0  0  0  0  0  0  0  0  0  0  0
  147.8451  141.2063  154.6244 O   0  0  0  0  0  0  0  0  0  0  0  0
  150.7799  143.4235  157.3377 N   0  0  0  0  0  0  0  0  0  0  0  0
  151.8619  144.1955  157.9434 C   0  0  0  0  0  0  0  0  0  0  0  0
  152.8357  143.2936  158.7294 C   0  0  0  0  0  0  0  0  0  0  0  0
  152.5928  143.5981  160.2079 C   0  0  0  0  0  0  0  0  0  0  0  0
  152.1593  145.0602  160.2204 C   0  0  0  0  0  0  0  0  0  0  0  0
  151.3067  145.2124  158.9595 C   0  0  0  0  0  0  0  0  0  0  0  0
  148.3389  141.2364  157.7689 H   0  0  0  0  0  0  0  0  0  0  0  0
  148.4199  142.5219  156.6107 H   0  0  0  0  0  0  0  0  0  0  0  0
  151.1625  140.3940  157.3608 H   0  0  0  0  0  0  0  0  0  0  0  0
  151.0870  138.3441  153.5586 H   0  0  0  0  0  0  0  0  0  0  0  0
  149.0444  139.4806  153.0175 H   0  0  0  0  0  0  0  0  0  0  0  0
  150.5209  143.6668  156.3925 H   0  0  0  0  0  0  0  0  0  0  0  0
  152.4091  144.7269  157.1624 H   0  0  0  0  0  0  0  0  0  0  0  0
  152.7238  142.2313  158.5087 H   0  0  0  0  0  0  0  0  0  0  0  0
  153.8599  143.5657  158.4712 H   0  0  0  0  0  0  0  0  0  0  0  0
  151.7838  142.9710  160.5851 H   0  0  0  0  0  0  0  0  0  0  0  0
  153.4728  143.4151  160.8249 H   0  0  0  0  0  0  0  0  0  0  0  0
  151.6202  145.3315  161.1285 H   0  0  0  0  0  0  0  0  0  0  0  0
  153.0380  145.7027  160.1495 H   0  0  0  0  0  0  0  0  0  0  0  0
  151.3275  146.2325  158.5748 H   0  0  0  0  0  0  0  0  0  0  0  0
  150.2683  144.9837  159.2056 H   0  0  0  0  0  0  0  0  0  0  0  0
  1  2  2  0  0  0  0
  2  3  1  0  0  0  0
  2 14  1  0  0  0  0
  3  4  1  0  0  0  0
  3 20  1  0  0  0  0
  3 21  1  0  0  0  0
  4 12  1  0  0  0  0
  4  5  1  0  0  0  0
  5  6  2  0  0  0  0
  5 22  1  0  0  0  0
  6  7  1  0  0  0  0
  6 10  1  0  0  0  0
  7  8  2  0  0  0  0
  7  9  1  0  0  0  0
 10 11  2  0  0  0  0
 10 23  1  0  0  0  0
 11 12  1  0  0  0  0
 11 24  1  0  0  0  0
 12 13  2  0  0  0  0
 14 15  1  0  0  0  0
 14 25  1  0  0  0  0
 15 19  1  0  0  0  0
 15 16  1  0  0  0  0
 15 26  1  0  0  0  0
 16 17  1  0  0  0  0
 16 27  1  0  0  0  0
 16 28  1  0  0  0  0
 17 18  1  0  0  0  0
 17 29  1  0  0  0  0
 17 30  1  0  0  0  0
 18 19  1  0  0  0  0
 18 31  1  0  0  0  0
 18 32  1  0  0  0  0
 19 33  1  0  0  0  0
 19 34  1  0  0  0  0
M  CHG  1   7   1
M  CHG  1   9  -1
M  END
> <s_m_source_file>
AV-unprocessed.smi

> <i_m_source_file_index>
2437

> <i_lp_mmshare_version>
43012

> <i_f3d_flags>
0

> <s_epik_input>
W0NIMl0xW0NIMl1bQ0gyXVtDSDJdW0NIXTFbTkhdQyg9TylbQ0gyXW4yW2NIXWMoW04rXSg9TylbTy1dKVtjSF1bY0hdYzI9Tw==

> <s_epik_cmdline>
J2VwaWtfcHl0aG9uJywgJy1waCcsICc3LjAnLCAnLXRuJywgJzgnLCAnLW1hJywgJzIwMCcsICctbWV0YWxfYmluZGluZycsICctaW1hZScsICc8aW5maWxlLm1hZT4nLCAnLW9tYWUnLCAnPG91dGZpbGUubWFlPic=

> <r_lp_tautomer_probability>
1

> <r_epik_Ionization_Penalty>
1.93821e-08

> <r_epik_Ionization_Penalty_Charging>
8.03436e-11

> <r_epik_Ionization_Penalty_Neutral>
1.93017e-08

> <r_epik_State_Penalty>
-0

> <r_epik_Charging_Adjusted_Penalty>
8.03436e-11

> <i_epik_Tot_Q>
0

> <i_epik_Tot_abs_Q>
2

> <r_epik_Metal_State_Penalty>
-0

> <b_epik_Metal_Only>
0

> <s_lp_Force_Field>
OPLS_2005

> <r_lp_Energy>
29.2975

> <b_lp_Chiralities_Consistent>
1

> <s_lp_Variant>
AV-unprocessed.smi:2437-1

> <Gold.Version>
5.8.1

> <Gold.Id.Protein>
6NUR|6NUR_protein|mol2

> <Gold.PLP.Fitness>
44.7749

> <Gold.PLP.PLP>
-40.9761

> <Gold.PLP.part.hbond>
-4.0000

> <Gold.PLP.part.metal>
0.0000

> <Gold.PLP.part.buried>
-3.4783

> <Gold.PLP.part.nonpolar>
-34.6965

> <Gold.PLP.part.repulsive>
0.1680

> <Gold.PLP.ligand.clash>
0.0000

> <Gold.PLP.ligand.torsion>
0.8808

> <Gold.PLP.Chemscore.Hbond>
1.8486

> <Gold.PLP.Chemscore.CHOScore>
0.0000

> <Gold.PLP.Chemscore.Metal>
0.0000

> <Gold.Chemscore.Hbonds>
donor molecule, donor type, donor heavy atom, donor atom, acceptor molecule, acceptor atom, score
      L1  H    14    25       P1  8028  0.57
      P1  H  7997  8009       L1     8  1.00
      P1  H 10752 10765       L1     9  0.27

> <Gold.PLP.Chemscore.Internal.Correction>
0.0146

> <Gold.Rescore>
     Score         DG    S(hbond)    S(metal)    S(lipo)     H(rot)  DE(clash)    DE(int)     intcor
     16.10     -19.69       2.22        0.00      92.61       1.58       0.19       3.39       ----

> <Gold.Chemscore.Fitness>
16.1023

> <Gold.Chemscore.DG>
-19.6856

> <Gold.Chemscore.ZeroCoef>
-5.4800

> <Gold.Chemscore.Hbond>
2.2223

> <Gold.Chemscore.Metal>
0.0000

> <Gold.Chemscore.Lipo>
92.6146

> <Gold.Chemscore.Internal_Hbond>
0.0000

> <Gold.Chemscore.DEClash>
0.1938

> <Gold.Chemscore.DEInternal>
3.3894

> <Gold.Chemscore.Rot>
1.5831

> <Gold.Chemscore.Internal.Correction>
   9.000000E+99

> <Gold.Chemscore.Hbonds>
donor molecule, donor type, donor heavy atom, donor atom, acceptor molecule, acceptor atom, score
      L1  H    14    25       P1  8028  0.54
      P1  H  7997  8009       L1     8  0.98
      P1  H 10752 10765       L1     9  0.25

> <Gold.Chemscore.Hbond.Weighted>
-7.4223

> <Gold.Chemscore.Metal.Weighted>
-0.0000

> <Gold.Chemscore.Lipo.Weighted>
-10.8359

> <Gold.Chemscore.Internal_Hbond.Weighted>
0.0000

> <Gold.Chemscore.DEClash.Weighted>
0.1938

> <Gold.Chemscore.DEInternal.Weighted>
3.3894

> <Gold.Chemscore.Rot.Weighted>
4.0527

> <Gold.Chemscore.Internal.Correction.Weighted>
   9.000000E+99

> <Gold.Protein.RotatedTorsions>
[ 6907 6896 6895 6894 ] final  162.39 input  -60.11 | X-H torsion
[ 7974 7965 7964 7962 ] final -168.38 input  175.53 | X-H torsion
[ 8008 7997 7996 7995 ] final  169.02 input   59.86 | X-H torsion
[ 10167 10162 10161 10158 ] final  158.30 input  -65.29 | X-H torsion
[ 10718 10713 10712 10709 ] final   46.71 input   66.30 | X-H torsion
[ 10763 10752 10751 10750 ] final -165.91 input  -60.55 | X-H torsion
[ 11005 11000 10999 10996 ] final -160.25 input  -57.11 | X-H torsion

> <Gold.Protein.ActiveResidues>
 VAL166  LYS551  ARG553  GLY616  TRP617  ASP618  TYR619  PRO620  LYS621  CYS622 
 ASP623  PHE694  ASN695  SER759  ASP760  ASP761  ALA762  ILE779  LEU786  VAL792 
 PHE793  MET794  SER795  GLU796  ALA797  LYS798  CYS799  TRP800  GLU811  SER814 

> <Gold.Protein.RotatedAtoms>
  151.9412  133.3638  159.3965 H   0  0  0  0  0  0  0  0  0  0  0  0  # atno 6907 bound_to 6896
  150.6998  134.4437  159.5313 H   0  0  0  0  0  0  0  0  0  0  0  0  # atno 6908 bound_to 6896
  152.2094  134.8515  160.0550 H   0  0  0  0  0  0  0  0  0  0  0  0  # atno 6909 bound_to 6896
  144.7204  140.2379  143.6295 H   0  0  0  0  0  0  0  0  0  0  0  0  # atno 7974 bound_to 7965
  156.1495  140.1575  156.8792 H   0  0  0  0  0  0  0  0  0  0  0  0  # atno 8008 bound_to 7997
  154.5058  140.0813  156.7929 H   0  0  0  0  0  0  0  0  0  0  0  0  # atno 8009 bound_to 7997
  155.3923  140.3410  155.4254 H   0  0  0  0  0  0  0  0  0  0  0  0  # atno 8010 bound_to 7997
  139.4826  144.4837  151.8408 H   0  0  0  0  0  0  0  0  0  0  0  0  # atno 10167 bound_to 10162
  157.4510  130.8138  149.7788 H   0  0  0  0  0  0  0  0  0  0  0  0  # atno 10718 bound_to 10713
  154.6885  135.2966  154.9513 H   0  0  0  0  0  0  0  0  0  0  0  0  # atno 10763 bound_to 10752
  154.0484  135.6648  153.4801 H   0  0  0  0  0  0  0  0  0  0  0  0  # atno 10764 bound_to 10752
  153.0596  135.5124  154.7965 H   0  0  0  0  0  0  0  0  0  0  0  0  # atno 10765 bound_to 10752
  140.6336  134.4625  157.5230 H   0  0  0  0  0  0  0  0  0  0  0  0  # atno 11005 bound_to 11000
  145.8348  139.2102  143.1862 LP  0  0  0  0  0  0  0  0  0  0  0  0  # atno 17320 bound_to 7965
  146.0399  140.8175  142.9834 LP  0  0  0  0  0  0  0  0  0  0  0  0  # atno 17321 bound_to 7965
  140.4315  144.2109  150.5888 LP  0  0  0  0  0  0  0  0  0  0  0  0  # atno 17342 bound_to 10162
  140.4775  143.2391  151.9003 LP  0  0  0  0  0  0  0  0  0  0  0  0  # atno 17343 bound_to 10162
  155.9987  130.3893  150.2692 LP  0  0  0  0  0  0  0  0  0  0  0  0  # atno 17370 bound_to 10713
  157.0863  131.0157  151.3138 LP  0  0  0  0  0  0  0  0  0  0  0  0  # atno 17371 bound_to 10713
  139.9106  134.8352  156.1541 LP  0  0  0  0  0  0  0  0  0  0  0  0  # atno 17394 bound_to 11000
  141.0657  133.6820  156.2041 LP  0  0  0  0  0  0  0  0  0  0  0  0  # atno 17395 bound_to 11000

$$$$
