AV-unprocessed.smi:3017|AV-procd|sdf|11476|dock8
  -GOLD-   2272016413D 1   1.00000     0.00000
 Structure written by MMmdl.
 37 38  0  0  0  0  0  0  0  0  1 V2000
  151.6815  143.6898  159.0144 C   0  0  0  0  0  0  0  0  0  0  0  0
  152.8452  143.1182  159.8367 C   0  0  1  0  0  0  0  0  0  0  0  0
  152.4240  142.8397  161.2923 C   0  0  0  0  0  0  0  0  0  0  0  0
  153.5898  142.2688  162.1150 C   0  0  0  0  0  0  0  0  0  0  0  0
  154.1654  141.0025  161.4623 C   0  0  0  0  0  0  0  0  0  0  0  0
  154.5949  141.2691  160.0053 C   0  0  1  0  0  0  0  0  0  0  0  0
  155.0003  140.0592  159.3785 O   0  0  0  0  0  0  0  0  0  0  0  0
  154.0363  139.0145  159.4444 C   0  0  0  0  0  0  0  0  0  0  0  0
  153.6564  138.5613  158.0325 C   0  0  0  0  0  0  0  0  0  0  0  0
  154.3937  137.7707  157.4441 O   0  0  0  0  0  0  0  0  0  0  0  0
  152.5266  139.0790  157.5132 N   0  0  0  0  0  0  0  0  0  0  0  0
  151.9423  138.8152  156.2464 C   0  0  0  0  0  0  0  0  0  0  0  0
  151.2040  139.8789  155.6757 C   0  0  0  0  0  0  0  0  0  0  0  0
  150.5855  139.7777  154.4781 N   0  0  0  0  0  0  0  0  0  0  0  0
  150.7034  138.5963  153.8354 C   0  0  0  0  0  0  0  0  0  0  0  0
  151.4359  137.5264  154.3873 C   0  0  0  0  0  0  0  0  0  0  0  0
  152.0517  137.6345  155.5847 N   0  0  0  0  0  0  0  0  0  0  0  0
  153.4209  141.8421  159.1913 C   0  0  0  0  0  0  0  0  0  0  0  0
  150.8550  142.9814  158.9491 H   0  0  0  0  0  0  0  0  0  0  0  0
  151.9985  143.9264  157.9983 H   0  0  0  0  0  0  0  0  0  0  0  0
  151.2988  144.6077  159.4616 H   0  0  0  0  0  0  0  0  0  0  0  0
  153.6340  143.8717  159.8535 H   0  0  0  0  0  0  0  0  0  0  0  0
  152.0627  143.7566  161.7595 H   0  0  0  0  0  0  0  0  0  0  0  0
  151.5899  142.1365  161.3078 H   0  0  0  0  0  0  0  0  0  0  0  0
  154.3742  143.0210  162.2084 H   0  0  0  0  0  0  0  0  0  0  0  0
  153.2544  142.0448  163.1280 H   0  0  0  0  0  0  0  0  0  0  0  0
  155.0075  140.6445  162.0540 H   0  0  0  0  0  0  0  0  0  0  0  0
  153.4153  140.2110  161.4825 H   0  0  0  0  0  0  0  0  0  0  0  0
  155.4113  141.9938  159.9852 H   0  0  0  0  0  0  0  0  0  0  0  0
  154.4402  138.1625  159.9928 H   0  0  0  0  0  0  0  0  0  0  0  0
  153.1353  139.3462  159.9610 H   0  0  0  0  0  0  0  0  0  0  0  0
  152.0191  139.7207  158.1049 H   0  0  0  0  0  0  0  0  0  0  0  0
  151.1043  140.8256  156.1866 H   0  0  0  0  0  0  0  0  0  0  0  0
  150.2115  138.5032  152.8785 H   0  0  0  0  0  0  0  0  0  0  0  0
  151.5267  136.5832  153.8693 H   0  0  0  0  0  0  0  0  0  0  0  0
  152.6356  141.0898  159.1027 H   0  0  0  0  0  0  0  0  0  0  0  0
  153.7555  142.0591  158.1763 H   0  0  0  0  0  0  0  0  0  0  0  0
  1  2  1  0  0  0  0
  1 19  1  0  0  0  0
  1 20  1  0  0  0  0
  1 21  1  0  0  0  0
  2 18  1  0  0  0  0
  2  3  1  0  0  0  0
  2 22  1  0  0  0  0
  3  4  1  0  0  0  0
  3 23  1  0  0  0  0
  3 24  1  0  0  0  0
  4  5  1  0  0  0  0
  4 25  1  0  0  0  0
  4 26  1  0  0  0  0
  5  6  1  0  0  0  0
  5 27  1  0  0  0  0
  5 28  1  0  0  0  0
  6  7  1  0  0  0  0
  6 18  1  0  0  0  0
  6 29  1  0  0  0  0
  7  8  1  0  0  0  0
  8  9  1  0  0  0  0
  8 30  1  0  0  0  0
  8 31  1  0  0  0  0
  9 10  2  0  0  0  0
  9 11  1  0  0  0  0
 11 12  1  0  0  0  0
 11 32  1  0  0  0  0
 12 17  1  0  0  0  0
 12 13  2  0  0  0  0
 13 14  1  0  0  0  0
 13 33  1  0  0  0  0
 14 15  2  0  0  0  0
 15 16  1  0  0  0  0
 15 34  1  0  0  0  0
 16 17  2  0  0  0  0
 16 35  1  0  0  0  0
 18 36  1  0  0  0  0
 18 37  1  0  0  0  0
M  END
> <s_m_source_file>
AV-unprocessed.smi

> <i_m_source_file_index>
3017

> <i_lp_mmshare_version>
43012

> <i_f3d_flags>
0

> <s_epik_input>
W0NIM11bQ0BASF0xW0NIMl1bQ0gyXVtDSDJdW0NASF0oW0NIMl0xKU9bQ0gyXUMoPU8pW05IXWMyW2NIXW5bY0hdW2NIXW4y

> <s_epik_cmdline>
J2VwaWtfcHl0aG9uJywgJy1waCcsICc3LjAnLCAnLXRuJywgJzgnLCAnLW1hJywgJzIwMCcsICctbWV0YWxfYmluZGluZycsICctaW1hZScsICc8aW5maWxlLm1hZT4nLCAnLW9tYWUnLCAnPG91dGZpbGUubWFlPic=

> <r_lp_tautomer_probability>
1

> <r_epik_Ionization_Penalty>
2.89243e-06

> <r_epik_Ionization_Penalty_Charging>
0

> <r_epik_Ionization_Penalty_Neutral>
2.89243e-06

> <r_epik_State_Penalty>
-0

> <r_epik_Charging_Adjusted_Penalty>
0

> <i_epik_Tot_Q>
0

> <i_epik_Tot_abs_Q>
0

> <r_epik_Metal_State_Penalty>
-0

> <b_epik_Metal_Only>
0

> <s_lp_Force_Field>
OPLS_2005

> <r_lp_Energy>
20.2083

> <b_lp_Chiralities_Consistent>
1

> <s_lp_Variant>
AV-unprocessed.smi:3017-2

> <Gold.Version>
5.8.1

> <Gold.Id.Protein>
6NUR|6NUR_protein|mol2

> <Gold.PLP.Fitness>
48.4657

> <Gold.PLP.PLP>
-36.6753

> <Gold.PLP.part.hbond>
-2.6091

> <Gold.PLP.part.metal>
0.0000

> <Gold.PLP.part.buried>
-2.9656

> <Gold.PLP.part.nonpolar>
-30.3115

> <Gold.PLP.part.repulsive>
0.2164

> <Gold.PLP.ligand.clash>
0.0000

> <Gold.PLP.ligand.torsion>
0.8924

> <Gold.PLP.Chemscore.Hbond>
1.9425

> <Gold.PLP.Chemscore.CHOScore>
2.5779

> <Gold.PLP.Chemscore.Metal>
0.0000

> <Gold.Chemscore.Hbonds>
donor molecule, donor type, donor heavy atom, donor atom, acceptor molecule, acceptor atom, score
      P1  H  7989  7998       L1    14  1.00
      P1  H  7997  8009       L1     7  0.90
      L1  C    15    34       P1  7948  0.45
      L1  C    15    34       P1  7957  1.00
      L1  C    16    35       P1  7949  1.00

> <Gold.PLP.Chemscore.Internal.Correction>
0.0139

> <Gold.Rescore>
     Score         DG    S(hbond)    S(metal)    S(lipo)     H(rot)  DE(clash)    DE(int)     intcor
     15.24     -17.01       0.89        0.00     106.16       1.51       0.04       1.72       ----

> <Gold.Chemscore.Fitness>
15.2425

> <Gold.Chemscore.DG>
-17.0072

> <Gold.Chemscore.ZeroCoef>
-5.4800

> <Gold.Chemscore.Hbond>
0.8915

> <Gold.Chemscore.Metal>
0.0000

> <Gold.Chemscore.Lipo>
106.1558

> <Gold.Chemscore.Internal_Hbond>
0.0000

> <Gold.Chemscore.DEClash>
0.0437

> <Gold.Chemscore.DEInternal>
1.7211

> <Gold.Chemscore.Rot>
1.5119

> <Gold.Chemscore.Internal.Correction>
   9.000000E+99

> <Gold.Chemscore.Hbonds>
donor molecule, donor type, donor heavy atom, donor atom, acceptor molecule, acceptor atom, score
      P1  H  7989  7998       L1    14  0.09
      P1  H  7997  8009       L1     7  0.15

> <Gold.Chemscore.Hbond.Weighted>
-2.9776

> <Gold.Chemscore.Metal.Weighted>
-0.0000

> <Gold.Chemscore.Lipo.Weighted>
-12.4202

> <Gold.Chemscore.Internal_Hbond.Weighted>
0.0000

> <Gold.Chemscore.DEClash.Weighted>
0.0437

> <Gold.Chemscore.DEInternal.Weighted>
1.7211

> <Gold.Chemscore.Rot.Weighted>
3.8706

> <Gold.Chemscore.Internal.Correction.Weighted>
   9.000000E+99

> <Gold.Protein.RotatedTorsions>
[ 6907 6896 6895 6894 ] final  -20.81 input  -60.11 | X-H torsion
[ 7974 7965 7964 7962 ] final -108.29 input  175.53 | X-H torsion
[ 8008 7997 7996 7995 ] final  110.28 input   59.86 | X-H torsion
[ 10167 10162 10161 10158 ] final -170.77 input  -65.29 | X-H torsion
[ 10718 10713 10712 10709 ] final  -89.67 input   66.30 | X-H torsion
[ 10763 10752 10751 10750 ] final   93.61 input  -60.55 | X-H torsion
[ 11005 11000 10999 10996 ] final -138.37 input  -57.11 | X-H torsion

> <Gold.Protein.ActiveResidues>
 VAL166  LYS551  ARG553  GLY616  TRP617  ASP618  TYR619  PRO620  LYS621  CYS622 
 ASP623  PHE694  ASN695  SER759  ASP760  ASP761  ALA762  ILE779  LEU786  VAL792 
 PHE793  MET794  SER795  GLU796  ALA797  LYS798  CYS799  TRP800  GLU811  SER814 

> <Gold.Protein.RotatedAtoms>
  151.2426  135.0594  159.9030 H   0  0  0  0  0  0  0  0  0  0  0  0  # atno 6907 bound_to 6896
  152.5391  134.0418  159.8081 H   0  0  0  0  0  0  0  0  0  0  0  0  # atno 6908 bound_to 6896
  151.0614  133.5492  159.2665 H   0  0  0  0  0  0  0  0  0  0  0  0  # atno 6909 bound_to 6896
  145.1947  140.9030  143.3404 H   0  0  0  0  0  0  0  0  0  0  0  0  # atno 7974 bound_to 7965
  156.2041  140.3041  155.9590 H   0  0  0  0  0  0  0  0  0  0  0  0  # atno 8008 bound_to 7997
  155.2882  140.0441  157.3038 H   0  0  0  0  0  0  0  0  0  0  0  0  # atno 8009 bound_to 7997
  154.5610  140.2320  155.8344 H   0  0  0  0  0  0  0  0  0  0  0  0  # atno 8010 bound_to 7997
  139.5842  144.1355  152.1554 H   0  0  0  0  0  0  0  0  0  0  0  0  # atno 10167 bound_to 10162
  155.9985  130.4881  150.5207 H   0  0  0  0  0  0  0  0  0  0  0  0  # atno 10718 bound_to 10713
  153.2322  135.4319  155.0608 H   0  0  0  0  0  0  0  0  0  0  0  0  # atno 10763 bound_to 10752
  154.8302  135.3382  154.6770 H   0  0  0  0  0  0  0  0  0  0  0  0  # atno 10764 bound_to 10752
  153.7197  135.7018  153.5072 H   0  0  0  0  0  0  0  0  0  0  0  0  # atno 10765 bound_to 10752
  140.8622  134.2155  157.4701 H   0  0  0  0  0  0  0  0  0  0  0  0  # atno 11005 bound_to 11000
  145.0006  139.3602  143.6169 LP  0  0  0  0  0  0  0  0  0  0  0  0  # atno 17320 bound_to 7965
  146.3429  139.9227  142.8764 LP  0  0  0  0  0  0  0  0  0  0  0  0  # atno 17321 bound_to 7965
  140.0915  144.5616  150.7051 LP  0  0  0  0  0  0  0  0  0  0  0  0  # atno 17342 bound_to 10162
  140.7116  143.2510  151.4563 LP  0  0  0  0  0  0  0  0  0  0  0  0  # atno 17343 bound_to 10162
  157.3169  131.0674  151.1960 LP  0  0  0  0  0  0  0  0  0  0  0  0  # atno 17370 bound_to 10713
  157.2887  130.6785  149.6103 LP  0  0  0  0  0  0  0  0  0  0  0  0  # atno 17371 bound_to 10713
  139.8707  134.9735  156.4811 LP  0  0  0  0  0  0  0  0  0  0  0  0  # atno 17394 bound_to 11000
  140.8670  133.8017  155.9324 LP  0  0  0  0  0  0  0  0  0  0  0  0  # atno 17395 bound_to 11000

$$$$
