AV-unprocessed.smi:1106|AV-procd|sdf|4779|dock4
  -GOLD-   22720 3323D 1   1.00000     0.00000
 Structure written by MMmdl.
 48 49  0  0  0  0  0  0  0  0  2 V2000
  151.3737  142.0961  157.5169 C   0  0  0  0  0  0  0  0  0  0  0  0
  150.9296  141.6836  156.1054 C   0  0  0  0  0  0  0  0  0  0  0  0
  149.5114  141.4537  156.0068 N   0  0  0  0  0  0  0  0  0  0  0  0
  148.6851  141.5301  157.1111 C   0  0  0  0  0  0  0  0  0  0  0  0
  147.3534  141.3150  157.0459 C   0  0  0  0  0  0  0  0  0  0  0  0
  146.5213  141.4040  158.2001 C   0  0  0  0  0  0  0  0  0  0  0  0
  145.8605  141.4634  159.1483 N   0  0  0  0  0  0  0  0  0  0  0  0
  146.7032  140.9801  155.7812 C   0  0  0  0  0  0  0  0  0  0  0  0
  145.4906  140.7930  155.6644 O   0  0  0  0  0  0  0  0  0  0  0  0
  147.5817  140.8918  154.6719 N   0  0  0  0  0  0  0  0  0  0  0  0
  146.9957  140.5538  153.3827 C   0  0  0  0  0  0  0  0  0  0  0  0
  147.2513  139.0972  152.9346 C   0  0  2  0  0  0  0  0  0  0  0  0
  147.2421  139.0820  151.5218 O   0  0  0  0  0  0  0  0  0  0  0  0
  146.1899  138.0978  153.4419 C   0  0  0  0  0  0  0  0  0  0  0  0
  146.2148  136.8144  152.6951 N   0  3  2  0  0  0  0  0  0  0  0  0
  145.2738  136.8133  151.5459 C   0  0  0  0  0  0  0  0  0  0  0  0
  145.4200  135.5314  150.7064 C   0  0  0  0  0  0  0  0  0  0  0  0
  145.2429  134.2568  151.5515 C   0  0  2  0  0  0  0  0  0  0  0  0
  143.7766  133.9980  151.9400 C   0  0  0  0  0  0  0  0  0  0  0  0
  146.1800  134.3183  152.7712 C   0  0  0  0  0  0  0  0  0  0  0  0
  146.0163  135.6257  153.5667 C   0  0  0  0  0  0  0  0  0  0  0  0
  148.9774  141.1255  154.7386 C   0  0  0  0  0  0  0  0  0  0  0  0
  149.6975  141.0587  153.7387 O   0  0  0  0  0  0  0  0  0  0  0  0
  152.4447  142.2978  157.5398 H   0  0  0  0  0  0  0  0  0  0  0  0
  151.1705  141.3135  158.2482 H   0  0  0  0  0  0  0  0  0  0  0  0
  150.8592  143.0007  157.8425 H   0  0  0  0  0  0  0  0  0  0  0  0
  151.1563  142.4716  155.3858 H   0  0  0  0  0  0  0  0  0  0  0  0
  151.4354  140.7831  155.7522 H   0  0  0  0  0  0  0  0  0  0  0  0
  149.1216  141.7734  158.0695 H   0  0  0  0  0  0  0  0  0  0  0  0
  145.9297  140.7846  153.4086 H   0  0  0  0  0  0  0  0  0  0  0  0
  147.4078  141.2652  152.6640 H   0  0  0  0  0  0  0  0  0  0  0  0
  148.2468  138.7960  153.2575 H   0  0  0  0  0  0  0  0  0  0  0  0
  147.9062  139.6787  151.2099 H   0  0  0  0  0  0  0  0  0  0  0  0
  146.3270  137.8836  154.5020 H   0  0  0  0  0  0  0  0  0  0  0  0
  145.2077  138.5648  153.3518 H   0  0  0  0  0  0  0  0  0  0  0  0
  144.2506  136.9209  151.9088 H   0  0  0  0  0  0  0  0  0  0  0  0
  145.4729  137.6761  150.9091 H   0  0  0  0  0  0  0  0  0  0  0  0
  144.7069  135.5404  149.8814 H   0  0  0  0  0  0  0  0  0  0  0  0
  146.4102  135.5212  150.2487 H   0  0  0  0  0  0  0  0  0  0  0  0
  145.5535  133.4087  150.9394 H   0  0  0  0  0  0  0  0  0  0  0  0
  143.3666  134.7963  152.5579 H   0  0  0  0  0  0  0  0  0  0  0  0
  143.6801  133.0669  152.4990 H   0  0  0  0  0  0  0  0  0  0  0  0
  143.1473  133.9120  151.0538 H   0  0  0  0  0  0  0  0  0  0  0  0
  146.0093  133.4600  153.4221 H   0  0  0  0  0  0  0  0  0  0  0  0
  147.2138  134.2385  152.4322 H   0  0  0  0  0  0  0  0  0  0  0  0
  146.7373  135.6299  154.3831 H   0  0  0  0  0  0  0  0  0  0  0  0
  145.0284  135.6693  154.0271 H   0  0  0  0  0  0  0  0  0  0  0  0
  147.1409  136.7409  152.2980 H   0  0  0  0  0  0  0  0  0  0  0  0
  1  2  1  0  0  0  0
  1 24  1  0  0  0  0
  1 25  1  0  0  0  0
  1 26  1  0  0  0  0
  2  3  1  0  0  0  0
  2 27  1  0  0  0  0
  2 28  1  0  0  0  0
  3 22  1  0  0  0  0
  3  4  1  0  0  0  0
  4  5  2  0  0  0  0
  4 29  1  0  0  0  0
  5  6  1  0  0  0  0
  5  8  1  0  0  0  0
  6  7  3  0  0  0  0
  8  9  2  0  0  0  0
  8 10  1  0  0  0  0
 10 11  1  0  0  0  0
 10 22  1  0  0  0  0
 11 12  1  0  0  0  0
 11 30  1  0  0  0  0
 11 31  1  0  0  0  0
 12 13  1  0  0  0  0
 12 14  1  0  0  0  0
 12 32  1  0  0  0  0
 13 33  1  0  0  0  0
 14 15  1  0  0  0  0
 14 34  1  0  0  0  0
 14 35  1  0  0  0  0
 15 21  1  0  0  0  0
 15 16  1  0  0  0  0
 15 48  1  0  0  0  0
 16 17  1  0  0  0  0
 16 36  1  0  0  0  0
 16 37  1  0  0  0  0
 17 18  1  0  0  0  0
 17 38  1  0  0  0  0
 17 39  1  0  0  0  0
 18 19  1  0  0  0  0
 18 20  1  0  0  0  0
 18 40  1  0  0  0  0
 19 41  1  0  0  0  0
 19 42  1  0  0  0  0
 19 43  1  0  0  0  0
 20 21  1  0  0  0  0
 20 44  1  0  0  0  0
 20 45  1  0  0  0  0
 21 46  1  0  0  0  0
 21 47  1  0  0  0  0
 22 23  2  0  0  0  0
M  CHG  1  15   1
M  END
> <s_m_source_file>
AV-unprocessed.smi

> <i_m_source_file_index>
1106

> <i_lp_mmshare_version>
43012

> <i_f3d_flags>
0

> <s_epik_input>
W0NIM11bQ0gyXW4xW2NIXWMoQyNOKWMoPU8pbihjMT1PKVtDSDJdW0NASF0oW09IXSlbQ0gyXU4yW0NIMl1bQ0gyXVtDSF0oW0NIM10pW0NIMl1bQ0gyXTI=

> <s_epik_cmdline>
J2VwaWtfcHl0aG9uJywgJy1waCcsICc3LjAnLCAnLXRuJywgJzgnLCAnLW1hJywgJzIwMCcsICctbWV0YWxfYmluZGluZycsICctaW1hZScsICc8aW5maWxlLm1hZT4nLCAnLW9tYWUnLCAnPG91dGZpbGUubWFlPic=

> <r_epik_Ionization_Penalty>
0.00136816

> <r_epik_Ionization_Penalty_Charging>
0.00136813

> <r_epik_Ionization_Penalty_Neutral>
3.19882e-08

> <r_epik_State_Penalty>
0.000910892

> <r_epik_Charging_Adjusted_Penalty>
0.00227902

> <i_epik_Tot_Q>
1

> <i_epik_Tot_abs_Q>
1

> <r_epik_Metal_State_Penalty>
-0

> <b_epik_Metal_Only>
0

> <s_lp_Force_Field>
OPLS_2005

> <r_lp_Energy>
29.5745

> <b_lp_Chiralities_Consistent>
1

> <s_lp_Variant>
AV-unprocessed.smi:1106-3

> <Gold.Version>
5.8.1

> <Gold.Id.Protein>
6NUR|6NUR_protein|mol2

> <Gold.PLP.Fitness>
47.2115

> <Gold.PLP.PLP>
-34.5175

> <Gold.PLP.part.hbond>
-6.3467

> <Gold.PLP.part.metal>
0.0000

> <Gold.PLP.part.buried>
-2.5160

> <Gold.PLP.part.nonpolar>
-27.0232

> <Gold.PLP.part.repulsive>
2.3430

> <Gold.PLP.ligand.clash>
0.0000

> <Gold.PLP.ligand.torsion>
1.1824

> <Gold.PLP.Chemscore.Hbond>
5.0028

> <Gold.PLP.Chemscore.CHOScore>
0.0000

> <Gold.PLP.Chemscore.Metal>
0.0000

> <Gold.Chemscore.Hbonds>
donor molecule, donor type, donor heavy atom, donor atom, acceptor molecule, acceptor atom, score
      L1  H    13    33       P1  7957  0.94
      L1  H    15    48       P1  7948  2.00
      P1  H  6934  6946       L1     7  0.86
      P1  H  7989  7998       L1    23  0.32
      P1  H  8011  8017       L1    23  0.93

> <Gold.PLP.Chemscore.Internal.Correction>
0.0506

> <Gold.Rescore>
     Score         DG    S(hbond)    S(metal)    S(lipo)     H(rot)  DE(clash)    DE(int)     intcor
     15.27     -18.57       3.59        0.00      63.72       2.48       1.01       2.29       ----

> <Gold.Chemscore.Fitness>
15.2651

> <Gold.Chemscore.DG>
-18.5721

> <Gold.Chemscore.ZeroCoef>
-5.4800

> <Gold.Chemscore.Hbond>
3.5913

> <Gold.Chemscore.Metal>
0.0000

> <Gold.Chemscore.Lipo>
63.7246

> <Gold.Chemscore.Internal_Hbond>
0.0000

> <Gold.Chemscore.DEClash>
1.0121

> <Gold.Chemscore.DEInternal>
2.2949

> <Gold.Chemscore.Rot>
2.4838

> <Gold.Chemscore.Internal.Correction>
   9.000000E+99

> <Gold.Chemscore.Hbonds>
donor molecule, donor type, donor heavy atom, donor atom, acceptor molecule, acceptor atom, score
      L1  H    13    33       P1  7957  0.86
      L1  H    15    48       P1  7948  1.00
      P1  H  6934  6946       L1     7  0.58
      P1  H  7989  7998       L1    23  0.32
      P1  H  8011  8017       L1    23  0.90

> <Gold.Chemscore.Hbond.Weighted>
-11.9948

> <Gold.Chemscore.Metal.Weighted>
-0.0000

> <Gold.Chemscore.Lipo.Weighted>
-7.4558

> <Gold.Chemscore.Internal_Hbond.Weighted>
0.0000

> <Gold.Chemscore.DEClash.Weighted>
1.0121

> <Gold.Chemscore.DEInternal.Weighted>
2.2949

> <Gold.Chemscore.Rot.Weighted>
6.3585

> <Gold.Chemscore.Internal.Correction.Weighted>
   9.000000E+99

> <Gold.Protein.RotatedTorsions>
[ 6907 6896 6895 6894 ] final -159.04 input  -60.11 | X-H torsion
[ 7974 7965 7964 7962 ] final   11.78 input  175.53 | X-H torsion
[ 8008 7997 7996 7995 ] final  -94.93 input   59.86 | X-H torsion
[ 10167 10162 10161 10158 ] final  -15.88 input  -65.29 | X-H torsion
[ 10718 10713 10712 10709 ] final -143.91 input   66.30 | X-H torsion
[ 10763 10752 10751 10750 ] final  135.95 input  -60.55 | X-H torsion
[ 11005 11000 10999 10996 ] final   83.07 input  -57.11 | X-H torsion

> <Gold.Protein.ActiveResidues>
 VAL166  LYS551  ARG553  GLY616  TRP617  ASP618  TYR619  PRO620  LYS621  CYS622 
 ASP623  PHE694  ASN695  SER759  ASP760  ASP761  ALA762  ILE779  LEU786  VAL792 
 PHE793  MET794  SER795  GLU796  ALA797  LYS798  CYS799  TRP800  GLU811  SER814 

> <Gold.Protein.RotatedAtoms>
  151.3274  133.4014  159.2659 H   0  0  0  0  0  0  0  0  0  0  0  0  # atno 6907 bound_to 6896
  150.9984  134.9302  159.7950 H   0  0  0  0  0  0  0  0  0  0  0  0  # atno 6908 bound_to 6896
  152.5268  134.3239  159.9211 H   0  0  0  0  0  0  0  0  0  0  0  0  # atno 6909 bound_to 6896
  146.2364  139.9434  142.8480 H   0  0  0  0  0  0  0  0  0  0  0  0  # atno 7974 bound_to 7965
  154.7548  140.0485  157.0923 H   0  0  0  0  0  0  0  0  0  0  0  0  # atno 8008 bound_to 7997
  155.0012  140.3125  155.4847 H   0  0  0  0  0  0  0  0  0  0  0  0  # atno 8009 bound_to 7997
  156.2892  140.2201  156.5122 H   0  0  0  0  0  0  0  0  0  0  0  0  # atno 8010 bound_to 7997
  140.7225  143.5173  150.9676 H   0  0  0  0  0  0  0  0  0  0  0  0  # atno 10167 bound_to 10162
  156.3637  130.7752  151.1923 H   0  0  0  0  0  0  0  0  0  0  0  0  # atno 10718 bound_to 10713
  153.8485  135.3082  155.3431 H   0  0  0  0  0  0  0  0  0  0  0  0  # atno 10763 bound_to 10752
  154.7902  135.4787  154.0038 H   0  0  0  0  0  0  0  0  0  0  0  0  # atno 10764 bound_to 10752
  153.1533  135.6847  153.8943 H   0  0  0  0  0  0  0  0  0  0  0  0  # atno 10765 bound_to 10752
  139.9043  134.8118  156.2260 H   0  0  0  0  0  0  0  0  0  0  0  0  # atno 11005 bound_to 11000
  145.1930  140.9820  143.4200 LP  0  0  0  0  0  0  0  0  0  0  0  0  # atno 17320 bound_to 7965
  144.9840  139.3755  143.6248 LP  0  0  0  0  0  0  0  0  0  0  0  0  # atno 17321 bound_to 7965
  139.8889  143.6978  152.3148 LP  0  0  0  0  0  0  0  0  0  0  0  0  # atno 17342 bound_to 10162
  139.7286  144.7587  151.0838 LP  0  0  0  0  0  0  0  0  0  0  0  0  # atno 17343 bound_to 10162
  157.7476  131.0392  150.4541 LP  0  0  0  0  0  0  0  0  0  0  0  0  # atno 17370 bound_to 10713
  156.4756  130.4062  149.6492 LP  0  0  0  0  0  0  0  0  0  0  0  0  # atno 17371 bound_to 10713
  141.0375  133.6955  156.1539 LP  0  0  0  0  0  0  0  0  0  0  0  0  # atno 17394 bound_to 11000
  140.7004  134.4570  157.5586 LP  0  0  0  0  0  0  0  0  0  0  0  0  # atno 17395 bound_to 11000

$$$$
