AV-unprocessed.smi:1268|AV-procd|sdf|5326|dock7
  -GOLD-   22720 4453D 1   1.00000     0.00000
 Structure written by MMmdl.
 39 40  0  0  0  0  0  0  0  0  3 V2000
  148.8090  141.8309  154.1375 O   0  0  0  0  0  0  0  0  0  0  0  0
  149.1329  140.6412  154.1783 C   0  0  0  0  0  0  0  0  0  0  0  0
  148.3376  139.7136  153.6262 N   0  0  0  0  0  0  0  0  0  0  0  0
  147.0740  139.9726  152.9433 C   0  0  0  0  0  0  0  0  0  0  0  0
  146.5347  138.7116  152.2371 C   0  0  1  0  0  0  0  0  0  0  0  0
  147.5659  138.1862  151.4244 O   0  0  0  0  0  0  0  0  0  0  0  0
  146.1383  137.6211  153.2515 C   0  0  0  0  0  0  0  0  0  0  0  0
  146.0792  136.2700  152.6375 N   0  3  0  0  0  0  0  0  0  0  0  0
  145.2635  136.2247  151.3936 C   0  0  0  0  0  0  0  0  0  0  0  0
  145.3467  134.8413  150.7266 C   0  0  0  0  0  0  0  0  0  0  0  0
  144.9169  133.7352  151.6988 C   0  0  0  0  0  0  0  0  0  0  0  0
  145.7432  133.8221  152.9886 C   0  0  0  0  0  0  0  0  0  0  0  0
  145.6550  135.2273  153.6076 C   0  0  0  0  0  0  0  0  0  0  0  0
  150.2556  140.1338  154.7340 N   0  5  0  0  0  0  0  0  0  0  0  0
  150.5637  140.4224  156.0090 C   0  0  0  0  0  0  0  0  0  0  0  0
  151.5604  139.8247  156.6718 N   0  0  0  0  0  0  0  0  0  0  0  0
  151.7079  140.2813  157.9828 C   0  0  0  0  0  0  0  0  0  0  0  0
  150.8066  141.2546  158.3240 C   0  0  0  0  0  0  0  0  0  0  0  0
  149.7405  141.6299  157.0004 S   0  0  0  0  0  0  0  0  0  0  0  0
  148.6370  138.7513  153.6874 H   0  0  0  0  0  0  0  0  0  0  0  0
  146.3485  140.3654  153.6568 H   0  0  0  0  0  0  0  0  0  0  0  0
  147.2400  140.7701  152.2169 H   0  0  0  0  0  0  0  0  0  0  0  0
  145.6831  138.9692  151.6085 H   0  0  0  0  0  0  0  0  0  0  0  0
  148.0090  137.5067  151.9107 H   0  0  0  0  0  0  0  0  0  0  0  0
  146.8608  137.6302  154.0695 H   0  0  0  0  0  0  0  0  0  0  0  0
  145.1705  137.8485  153.7015 H   0  0  0  0  0  0  0  0  0  0  0  0
  144.2254  136.4636  151.6296 H   0  0  0  0  0  0  0  0  0  0  0  0
  145.6044  136.9781  150.6845 H   0  0  0  0  0  0  0  0  0  0  0  0
  144.7190  134.8184  149.8353 H   0  0  0  0  0  0  0  0  0  0  0  0
  146.3683  134.6584  150.3903 H   0  0  0  0  0  0  0  0  0  0  0  0
  143.8563  133.8393  151.9318 H   0  0  0  0  0  0  0  0  0  0  0  0
  145.0414  132.7559  151.2357 H   0  0  0  0  0  0  0  0  0  0  0  0
  145.3957  133.0763  153.7042 H   0  0  0  0  0  0  0  0  0  0  0  0
  146.7853  133.5818  152.7730 H   0  0  0  0  0  0  0  0  0  0  0  0
  146.2919  135.2660  154.4923 H   0  0  0  0  0  0  0  0  0  0  0  0
  144.6359  135.4309  153.9402 H   0  0  0  0  0  0  0  0  0  0  0  0
  152.4836  139.8580  158.6034 H   0  0  0  0  0  0  0  0  0  0  0  0
  150.7055  141.7718  159.2659 H   0  0  0  0  0  0  0  0  0  0  0  0
  147.0286  136.0424  152.3775 H   0  0  0  0  0  0  0  0  0  0  0  0
  1  2  2  0  0  0  0
  2  3  1  0  0  0  0
  2 14  1  0  0  0  0
  3  4  1  0  0  0  0
  3 20  1  0  0  0  0
  4  5  1  0  0  0  0
  4 21  1  0  0  0  0
  4 22  1  0  0  0  0
  5  6  1  0  0  0  0
  5  7  1  0  0  0  0
  5 23  1  0  0  0  0
  6 24  1  0  0  0  0
  7  8  1  0  0  0  0
  7 25  1  0  0  0  0
  7 26  1  0  0  0  0
  8 13  1  0  0  0  0
  8  9  1  0  0  0  0
  8 39  1  0  0  0  0
  9 10  1  0  0  0  0
  9 27  1  0  0  0  0
  9 28  1  0  0  0  0
 10 11  1  0  0  0  0
 10 29  1  0  0  0  0
 10 30  1  0  0  0  0
 11 12  1  0  0  0  0
 11 31  1  0  0  0  0
 11 32  1  0  0  0  0
 12 13  1  0  0  0  0
 12 33  1  0  0  0  0
 12 34  1  0  0  0  0
 13 35  1  0  0  0  0
 13 36  1  0  0  0  0
 14 15  1  0  0  0  0
 15 19  1  0  0  0  0
 15 16  2  0  0  0  0
 16 17  1  0  0  0  0
 17 18  2  0  0  0  0
 17 37  1  0  0  0  0
 18 19  1  0  0  0  0
 18 38  1  0  0  0  0
M  CHG  1   8   1
M  CHG  1  14  -1
M  END
> <s_m_source_file>
AV-unprocessed.smi

> <i_m_source_file_index>
1268

> <i_lp_mmshare_version>
43012

> <i_f3d_flags>
0

> <s_epik_input>
czFbY0hdW2NIXW5jMVtOSF1DKD1PKVtOSF1bQ0gyXVtDQEhdKFtPSF0pW0NIMl1OMltDSDJdW0NIMl1bQ0gyXVtDSDJdW0NIMl0y

> <s_epik_cmdline>
J2VwaWtfcHl0aG9uJywgJy1waCcsICc3LjAnLCAnLXRuJywgJzgnLCAnLW1hJywgJzIwMCcsICctbWV0YWxfYmluZGluZycsICctaW1hZScsICc8aW5maWxlLm1hZT4nLCAnLW9tYWUnLCAnPG91dGZpbGUubWFlPic=

> <r_lp_tautomer_probability>
0.999

> <r_epik_Ionization_Penalty>
6.36291

> <r_epik_Ionization_Penalty_Charging>
5.4816

> <r_epik_Ionization_Penalty_Neutral>
0.881305

> <r_epik_State_Penalty>
5.4805

> <r_epik_Charging_Adjusted_Penalty>
10.9621

> <i_epik_Tot_Q>
0

> <i_epik_Tot_abs_Q>
2

> <r_epik_Metal_State_Penalty>
1.48871

> <b_epik_Metal_Only>
1

> <s_lp_Force_Field>
OPLS_2005

> <r_lp_Energy>
8.43067

> <b_lp_Chiralities_Consistent>
1

> <s_lp_Variant>
AV-unprocessed.smi:1268-4

> <Gold.Version>
5.8.1

> <Gold.Id.Protein>
6NUR|6NUR_protein|mol2

> <Gold.PLP.Fitness>
48.1017

> <Gold.PLP.PLP>
-33.8175

> <Gold.PLP.part.hbond>
-6.5995

> <Gold.PLP.part.metal>
0.0000

> <Gold.PLP.part.buried>
-2.3750

> <Gold.PLP.part.nonpolar>
-25.0537

> <Gold.PLP.part.repulsive>
0.3966

> <Gold.PLP.ligand.clash>
0.0000

> <Gold.PLP.ligand.torsion>
0.7695

> <Gold.PLP.Chemscore.Hbond>
5.2436

> <Gold.PLP.Chemscore.CHOScore>
0.0000

> <Gold.PLP.Chemscore.Metal>
0.0000

> <Gold.Chemscore.Hbonds>
donor molecule, donor type, donor heavy atom, donor atom, acceptor molecule, acceptor atom, score
      L1  H     6    24       P1  7948  0.91
      L1  H     8    39       P1  7948  2.00
      P1  H  7954  7966       L1     6  0.95
      P1  H  7989  7998       L1    14  1.00
      P1  H  8011  8017       L1     1  0.36

> <Gold.PLP.Chemscore.Internal.Correction>
0.0924

> <Gold.Rescore>
     Score         DG    S(hbond)    S(metal)    S(lipo)     H(rot)  DE(clash)    DE(int)     intcor
     14.05     -14.94       2.82        0.00      54.64       2.48       0.08       0.81       ----

> <Gold.Chemscore.Fitness>
14.0530

> <Gold.Chemscore.DG>
-14.9439

> <Gold.Chemscore.ZeroCoef>
-5.4800

> <Gold.Chemscore.Hbond>
2.8228

> <Gold.Chemscore.Metal>
0.0000

> <Gold.Chemscore.Lipo>
54.6432

> <Gold.Chemscore.Internal_Hbond>
0.0000

> <Gold.Chemscore.DEClash>
0.0787

> <Gold.Chemscore.DEInternal>
0.8122

> <Gold.Chemscore.Rot>
2.4834

> <Gold.Chemscore.Internal.Correction>
   9.000000E+99

> <Gold.Chemscore.Hbonds>
donor molecule, donor type, donor heavy atom, donor atom, acceptor molecule, acceptor atom, score
      L1  H     6    24       P1  7948  0.85
      L1  H     8    39       P1  7948  0.97
      P1  H  7954  7966       L1     6  0.21
      P1  H  7989  7998       L1    14  0.19
      P1  H  8011  8017       L1     1  0.11

> <Gold.Chemscore.Hbond.Weighted>
-9.4281

> <Gold.Chemscore.Metal.Weighted>
-0.0000

> <Gold.Chemscore.Lipo.Weighted>
-6.3933

> <Gold.Chemscore.Internal_Hbond.Weighted>
0.0000

> <Gold.Chemscore.DEClash.Weighted>
0.0787

> <Gold.Chemscore.DEInternal.Weighted>
0.8122

> <Gold.Chemscore.Rot.Weighted>
6.3575

> <Gold.Chemscore.Internal.Correction.Weighted>
   9.000000E+99

> <Gold.Protein.RotatedTorsions>
[ 6907 6896 6895 6894 ] final   80.12 input  -60.11 | X-H torsion
[ 7974 7965 7964 7962 ] final   59.65 input  175.53 | X-H torsion
[ 8008 7997 7996 7995 ] final   64.53 input   59.86 | X-H torsion
[ 10167 10162 10161 10158 ] final  -32.05 input  -65.29 | X-H torsion
[ 10718 10713 10712 10709 ] final -146.74 input   66.30 | X-H torsion
[ 10763 10752 10751 10750 ] final  163.67 input  -60.55 | X-H torsion
[ 11005 11000 10999 10996 ] final  134.33 input  -57.11 | X-H torsion

> <Gold.Protein.ActiveResidues>
 VAL166  LYS551  ARG553  GLY616  TRP617  ASP618  TYR619  PRO620  LYS621  CYS622 
 ASP623  PHE694  ASN695  SER759  ASP760  ASP761  ALA762  ILE779  LEU786  VAL792 
 PHE793  MET794  SER795  GLU796  ALA797  LYS798  CYS799  TRP800  GLU811  SER814 

> <Gold.Protein.RotatedAtoms>
  152.5223  134.3406  159.9215 H   0  0  0  0  0  0  0  0  0  0  0  0  # atno 6907 bound_to 6896
  151.3356  133.3976  159.2674 H   0  0  0  0  0  0  0  0  0  0  0  0  # atno 6908 bound_to 6896
  150.9845  134.9211  159.7921 H   0  0  0  0  0  0  0  0  0  0  0  0  # atno 6909 bound_to 6896
  145.9048  139.3608  143.0571 H   0  0  0  0  0  0  0  0  0  0  0  0  # atno 7974 bound_to 7965
  155.6474  140.3497  155.4736 H   0  0  0  0  0  0  0  0  0  0  0  0  # atno 8008 bound_to 7997
  155.9876  140.1187  157.0692 H   0  0  0  0  0  0  0  0  0  0  0  0  # atno 8009 bound_to 7997
  154.4209  140.1126  156.5507 H   0  0  0  0  0  0  0  0  0  0  0  0  # atno 8010 bound_to 7997
  140.7227  143.3724  151.1753 H   0  0  0  0  0  0  0  0  0  0  0  0  # atno 10167 bound_to 10162
  156.3988  130.7923  151.2132 H   0  0  0  0  0  0  0  0  0  0  0  0  # atno 10718 bound_to 10713
  154.2973  135.2760  155.2627 H   0  0  0  0  0  0  0  0  0  0  0  0  # atno 10763 bound_to 10752
  154.5080  135.5790  153.6586 H   0  0  0  0  0  0  0  0  0  0  0  0  # atno 10764 bound_to 10752
  152.9905  135.6174  154.3141 H   0  0  0  0  0  0  0  0  0  0  0  0  # atno 10765 bound_to 10752
  139.9908  134.9516  156.9851 H   0  0  0  0  0  0  0  0  0  0  0  0  # atno 11005 bound_to 11000
  145.8746  140.9399  143.0633 LP  0  0  0  0  0  0  0  0  0  0  0  0  # atno 17320 bound_to 7965
  144.6738  140.0700  143.7473 LP  0  0  0  0  0  0  0  0  0  0  0  0  # atno 17321 bound_to 7965
  139.7298  143.9091  152.3015 LP  0  0  0  0  0  0  0  0  0  0  0  0  # atno 17342 bound_to 10162
  139.8876  144.6983  150.8807 LP  0  0  0  0  0  0  0  0  0  0  0  0  # atno 17343 bound_to 10162
  157.7503  131.0293  150.4088 LP  0  0  0  0  0  0  0  0  0  0  0  0  # atno 17370 bound_to 10713
  156.4363  130.3982  149.6727 LP  0  0  0  0  0  0  0  0  0  0  0  0  # atno 17371 bound_to 10713
  140.4912  134.1191  155.7233 LP  0  0  0  0  0  0  0  0  0  0  0  0  # atno 17394 bound_to 11000
  141.1564  133.8875  157.1966 LP  0  0  0  0  0  0  0  0  0  0  0  0  # atno 17395 bound_to 11000

$$$$
