AV-unprocessed.smi:1599|AV-procd|sdf|6425|dock8
  -GOLD-   22720 7 63D 1   1.00000     0.00000
 Structure written by MMmdl.
 39 40  0  0  0  0  0  0  0  0  1 V2000
  152.6492  144.8948  157.5750 C   0  0  0  0  0  0  0  0  0  0  0  0
  152.1522  143.4468  157.6947 C   0  0  2  0  0  0  0  0  0  0  0  0
  150.9821  143.2805  156.8336 N   0  0  0  0  0  0  0  0  0  0  0  0
  150.4858  142.1131  156.3986 C   0  0  0  0  0  0  0  0  0  0  0  0
  150.9679  141.0164  156.6821 O   0  0  0  0  0  0  0  0  0  0  0  0
  149.4018  142.3025  155.6285 N   0  0  0  0  0  0  0  0  0  0  0  0
  148.6003  141.3082  155.0130 C   0  0  0  0  0  0  0  0  0  0  0  0
  147.7151  141.5371  153.9277 C   0  0  0  0  0  0  0  0  0  0  0  0
  147.0991  140.4211  153.5685 N   0  0  0  0  0  0  0  0  0  0  0  0
  147.5753  139.4685  154.4093 N   0  0  0  0  0  0  0  0  0  0  0  0
  147.0975  138.1015  154.2948 C   0  0  0  0  0  0  0  0  0  0  0  0
  147.7642  137.1855  155.3239 C   0  0  0  0  0  0  0  0  0  0  0  0
  148.4927  136.1670  154.8576 N   0  0  0  0  0  0  0  0  0  0  0  0
  147.6164  137.3890  156.5269 O   0  0  0  0  0  0  0  0  0  0  0  0
  148.4968  139.9774  155.3037 C   0  0  0  0  0  0  0  0  0  0  0  0
  151.8090  143.0781  159.1534 C   0  0  1  0  0  0  0  0  0  0  0  0
  152.9869  142.5816  159.9946 C   0  0  0  0  0  0  0  0  0  0  0  0
  152.4993  142.8655  161.3964 C   0  0  0  0  0  0  0  0  0  0  0  0
  151.7834  144.1998  161.2114 C   0  0  0  0  0  0  0  0  0  0  0  0
  151.3290  144.2199  159.8600 O   0  0  0  0  0  0  0  0  0  0  0  0
  153.5440  145.0561  158.1768 H   0  0  0  0  0  0  0  0  0  0  0  0
  151.8919  145.6046  157.9097 H   0  0  0  0  0  0  0  0  0  0  0  0
  152.9023  145.1392  156.5427 H   0  0  0  0  0  0  0  0  0  0  0  0
  152.9582  142.7946  157.3535 H   0  0  0  0  0  0  0  0  0  0  0  0
  150.5125  144.1272  156.5477 H   0  0  0  0  0  0  0  0  0  0  0  0
  149.1125  143.2574  155.4765 H   0  0  0  0  0  0  0  0  0  0  0  0
  147.5015  142.4553  153.4007 H   0  0  0  0  0  0  0  0  0  0  0  0
  146.0143  138.0855  154.4251 H   0  0  0  0  0  0  0  0  0  0  0  0
  147.3027  137.7387  153.2869 H   0  0  0  0  0  0  0  0  0  0  0  0
  148.9469  135.5337  155.4994 H   0  0  0  0  0  0  0  0  0  0  0  0
  148.5819  136.0320  153.8608 H   0  0  0  0  0  0  0  0  0  0  0  0
  148.9768  139.3568  156.0457 H   0  0  0  0  0  0  0  0  0  0  0  0
  151.0203  142.3238  159.1725 H   0  0  0  0  0  0  0  0  0  0  0  0
  153.2190  141.5294  159.8278 H   0  0  0  0  0  0  0  0  0  0  0  0
  153.8833  143.1680  159.7872 H   0  0  0  0  0  0  0  0  0  0  0  0
  151.7900  142.0977  161.7080 H   0  0  0  0  0  0  0  0  0  0  0  0
  153.3027  142.9099  162.1322 H   0  0  0  0  0  0  0  0  0  0  0  0
  150.9574  144.3264  161.9114 H   0  0  0  0  0  0  0  0  0  0  0  0
  152.4776  145.0288  161.3531 H   0  0  0  0  0  0  0  0  0  0  0  0
  1  2  1  0  0  0  0
  1 21  1  0  0  0  0
  1 22  1  0  0  0  0
  1 23  1  0  0  0  0
  2  3  1  0  0  0  0
  2 16  1  0  0  0  0
  2 24  1  0  0  0  0
  3  4  1  0  0  0  0
  3 25  1  0  0  0  0
  4  5  2  0  0  0  0
  4  6  1  0  0  0  0
  6  7  1  0  0  0  0
  6 26  1  0  0  0  0
  7 15  2  0  0  0  0
  7  8  1  0  0  0  0
  8  9  2  0  0  0  0
  8 27  1  0  0  0  0
  9 10  1  0  0  0  0
 10 11  1  0  0  0  0
 10 15  1  0  0  0  0
 11 12  1  0  0  0  0
 11 28  1  0  0  0  0
 11 29  1  0  0  0  0
 12 13  1  0  0  0  0
 12 14  2  0  0  0  0
 13 30  1  0  0  0  0
 13 31  1  0  0  0  0
 15 32  1  0  0  0  0
 16 20  1  0  0  0  0
 16 17  1  0  0  0  0
 16 33  1  0  0  0  0
 17 18  1  0  0  0  0
 17 34  1  0  0  0  0
 17 35  1  0  0  0  0
 18 19  1  0  0  0  0
 18 36  1  0  0  0  0
 18 37  1  0  0  0  0
 19 20  1  0  0  0  0
 19 38  1  0  0  0  0
 19 39  1  0  0  0  0
M  END
> <s_m_source_file>
AV-unprocessed.smi

> <i_m_source_file_index>
1599

> <i_lp_mmshare_version>
43012

> <i_f3d_flags>
0

> <s_epik_input>
TzFbQ0gyXVtDSDJdW0NIMl1bQ0BIXTFbQ0BIXShbQ0gzXSlbTkhdQyg9TylbTkhdYzJbY0hdbm4oW2NIXTIpW0NIMl1DKD1PKVtOSDJd

> <s_epik_cmdline>
J2VwaWtfcHl0aG9uJywgJy1waCcsICc3LjAnLCAnLXRuJywgJzgnLCAnLW1hJywgJzIwMCcsICctbWV0YWxfYmluZGluZycsICctaW1hZScsICc8aW5maWxlLm1hZT4nLCAnLW9tYWUnLCAnPG91dGZpbGUubWFlPic=

> <r_lp_tautomer_probability>
1

> <r_epik_Ionization_Penalty>
4.15391e-05

> <r_epik_Ionization_Penalty_Charging>
0

> <r_epik_Ionization_Penalty_Neutral>
4.15391e-05

> <r_epik_State_Penalty>
-0

> <r_epik_Charging_Adjusted_Penalty>
0

> <i_epik_Tot_Q>
0

> <i_epik_Tot_abs_Q>
0

> <r_epik_Metal_State_Penalty>
-0

> <b_epik_Metal_Only>
0

> <s_lp_Force_Field>
OPLS_2005

> <r_lp_Energy>
20.4971

> <b_lp_Chiralities_Consistent>
1

> <s_lp_Variant>
AV-unprocessed.smi:1599-3

> <Gold.Version>
5.8.1

> <Gold.Id.Protein>
6NUR|6NUR_protein|mol2

> <Gold.PLP.Fitness>
42.5224

> <Gold.PLP.PLP>
-35.9107

> <Gold.PLP.part.hbond>
-2.9655

> <Gold.PLP.part.metal>
0.0000

> <Gold.PLP.part.buried>
-6.2877

> <Gold.PLP.part.nonpolar>
-27.5191

> <Gold.PLP.part.repulsive>
0.4749

> <Gold.PLP.ligand.clash>
0.0000

> <Gold.PLP.ligand.torsion>
0.9651

> <Gold.PLP.Chemscore.Hbond>
2.8393

> <Gold.PLP.Chemscore.CHOScore>
0.0000

> <Gold.PLP.Chemscore.Metal>
0.0000

> <Gold.Chemscore.Hbonds>
donor molecule, donor type, donor heavy atom, donor atom, acceptor molecule, acceptor atom, score
      L1  H     3    25       P1  8028  0.85
      L1  H     6    26       P1  8028  0.89
      L1  H    13    31       P1  7948  0.99

> <Gold.PLP.Chemscore.Internal.Correction>
0.0243

> <Gold.Rescore>
     Score         DG    S(hbond)    S(metal)    S(lipo)     H(rot)  DE(clash)    DE(int)     intcor
     16.02     -19.66       2.67        0.00      95.00       2.28       0.74       2.90       ----

> <Gold.Chemscore.Fitness>
16.0206

> <Gold.Chemscore.DG>
-19.6612

> <Gold.Chemscore.ZeroCoef>
-5.4800

> <Gold.Chemscore.Hbond>
2.6672

> <Gold.Chemscore.Metal>
0.0000

> <Gold.Chemscore.Lipo>
95.0045

> <Gold.Chemscore.Internal_Hbond>
0.0000

> <Gold.Chemscore.DEClash>
0.7377

> <Gold.Chemscore.DEInternal>
2.9030

> <Gold.Chemscore.Rot>
2.2823

> <Gold.Chemscore.Internal.Correction>
   9.000000E+99

> <Gold.Chemscore.Hbonds>
donor molecule, donor type, donor heavy atom, donor atom, acceptor molecule, acceptor atom, score
      L1  H     3    25       P1  8028  0.83
      L1  H     6    26       P1  8028  0.85
      L1  H    13    31       P1  7948  0.92

> <Gold.Chemscore.Hbond.Weighted>
-8.9084

> <Gold.Chemscore.Metal.Weighted>
-0.0000

> <Gold.Chemscore.Lipo.Weighted>
-11.1155

> <Gold.Chemscore.Internal_Hbond.Weighted>
0.0000

> <Gold.Chemscore.DEClash.Weighted>
0.7377

> <Gold.Chemscore.DEInternal.Weighted>
2.9030

> <Gold.Chemscore.Rot.Weighted>
5.8427

> <Gold.Chemscore.Internal.Correction.Weighted>
   9.000000E+99

> <Gold.Protein.RotatedTorsions>
[ 6907 6896 6895 6894 ] final  112.74 input  -60.11 | X-H torsion
[ 7974 7965 7964 7962 ] final   36.97 input  175.53 | X-H torsion
[ 8008 7997 7996 7995 ] final   67.84 input   59.86 | X-H torsion
[ 10167 10162 10161 10158 ] final   91.74 input  -65.29 | X-H torsion
[ 10718 10713 10712 10709 ] final  -88.89 input   66.30 | X-H torsion
[ 10763 10752 10751 10750 ] final -122.46 input  -60.55 | X-H torsion
[ 11005 11000 10999 10996 ] final   68.19 input  -57.11 | X-H torsion

> <Gold.Protein.ActiveResidues>
 VAL166  LYS551  ARG553  GLY616  TRP617  ASP618  TYR619  PRO620  LYS621  CYS622 
 ASP623  PHE694  ASN695  SER759  ASP760  ASP761  ALA762  ILE779  LEU786  VAL792 
 PHE793  MET794  SER795  GLU796  ALA797  LYS798  CYS799  TRP800  GLU811  SER814 

> <Gold.Protein.RotatedAtoms>
  152.4900  133.8474  159.7183 H   0  0  0  0  0  0  0  0  0  0  0  0  # atno 6907 bound_to 6896
  150.9020  133.7097  159.2883 H   0  0  0  0  0  0  0  0  0  0  0  0  # atno 6908 bound_to 6896
  151.4535  135.1036  159.9757 H   0  0  0  0  0  0  0  0  0  0  0  0  # atno 6909 bound_to 6896
  146.1172  139.5951  142.9314 H   0  0  0  0  0  0  0  0  0  0  0  0  # atno 7974 bound_to 7965
  155.6990  140.3495  155.4925 H   0  0  0  0  0  0  0  0  0  0  0  0  # atno 8008 bound_to 7997
  155.9457  140.1110  157.1041 H   0  0  0  0  0  0  0  0  0  0  0  0  # atno 8009 bound_to 7997
  154.4111  140.1204  156.4972 H   0  0  0  0  0  0  0  0  0  0  0  0  # atno 8010 bound_to 7997
  139.8345  144.6671  150.9358 H   0  0  0  0  0  0  0  0  0  0  0  0  # atno 10167 bound_to 10162
  155.9984  130.4852  150.5088 H   0  0  0  0  0  0  0  0  0  0  0  0  # atno 10718 bound_to 10713
  154.8690  135.4132  154.2785 H   0  0  0  0  0  0  0  0  0  0  0  0  # atno 10763 bound_to 10752
  153.3682  135.7006  153.6664 H   0  0  0  0  0  0  0  0  0  0  0  0  # atno 10764 bound_to 10752
  153.5537  135.3624  155.2742 H   0  0  0  0  0  0  0  0  0  0  0  0  # atno 10765 bound_to 10752
  139.9726  134.6875  156.0417 H   0  0  0  0  0  0  0  0  0  0  0  0  # atno 11005 bound_to 11000
  145.5542  141.0410  143.2261 LP  0  0  0  0  0  0  0  0  0  0  0  0  # atno 17320 bound_to 7965
  144.7563  139.7065  143.7252 LP  0  0  0  0  0  0  0  0  0  0  0  0  # atno 17321 bound_to 7965
  140.7804  143.3969  151.1214 LP  0  0  0  0  0  0  0  0  0  0  0  0  # atno 17342 bound_to 10162
  139.7621  143.8620  152.3102 LP  0  0  0  0  0  0  0  0  0  0  0  0  # atno 17343 bound_to 10162
  157.3063  131.0655  151.2032 LP  0  0  0  0  0  0  0  0  0  0  0  0  # atno 17370 bound_to 10713
  157.2994  130.6835  149.6156 LP  0  0  0  0  0  0  0  0  0  0  0  0  # atno 17371 bound_to 10713
  141.1405  133.6566  156.3716 LP  0  0  0  0  0  0  0  0  0  0  0  0  # atno 17394 bound_to 11000
  140.5261  134.6257  157.5334 LP  0  0  0  0  0  0  0  0  0  0  0  0  # atno 17395 bound_to 11000

$$$$
