AV-unprocessed.smi:2184|AV-procd|sdf|8873|dock7
  -GOLD-   2272012 73D 1   1.00000     0.00000
 Structure written by MMmdl.
 47 48  0  0  0  0  0  0  0  0  1 V2000
  143.4211  137.2772  152.6106 C   0  0  0  0  0  0  0  0  0  0  0  0
  145.0945  136.7847  152.1135 S   0  0  0  0  0  0  0  0  0  0  0  0
  146.0742  137.4419  153.4968 C   0  0  2  0  0  0  0  0  0  0  0  0
  145.1577  137.7801  154.6835 C   0  0  0  0  0  0  0  0  0  0  0  0
  146.9114  138.6569  153.0780 C   0  0  0  0  0  0  0  0  0  0  0  0
  146.7695  139.1577  151.9621 O   0  0  0  0  0  0  0  0  0  0  0  0
  147.7907  139.1163  153.9801 N   0  0  0  0  0  0  0  0  0  0  0  0
  148.6857  140.2459  153.7595 C   0  0  0  0  0  0  0  0  0  0  0  0
  149.5492  140.6154  154.9577 C   0  0  0  0  0  0  0  0  0  0  0  0
  150.6808  139.8681  155.3517 C   0  0  0  0  0  0  0  0  0  0  0  0
  151.4181  140.2849  156.4765 C   0  0  0  0  0  0  0  0  0  0  0  0
  151.0098  141.4411  157.1827 C   0  0  0  0  0  0  0  0  0  0  0  0
  151.7366  141.8780  158.3114 N   0  0  0  0  0  0  0  0  0  0  0  0
  152.3283  143.2139  158.2724 C   0  0  0  0  0  0  0  0  0  0  0  0
  152.8122  143.6484  159.6698 C   0  0  1  0  0  0  0  0  0  0  0  0
  151.6685  144.0586  160.6148 C   0  0  0  0  0  0  0  0  0  0  0  0
  153.6467  142.6379  160.2397 O   0  0  0  0  0  0  0  0  0  0  0  0
  153.0457  141.3468  160.3285 C   0  0  2  0  0  0  0  0  0  0  0  0
  154.0672  140.3908  160.9533 C   0  0  0  0  0  0  0  0  0  0  0  0
  152.6086  140.8831  158.9276 C   0  0  0  0  0  0  0  0  0  0  0  0
  149.9182  142.1512  156.8058 N   0  0  0  0  0  0  0  0  0  0  0  0
  149.2153  141.7477  155.7268 C   0  0  0  0  0  0  0  0  0  0  0  0
  142.7032  136.9820  151.8454 H   0  0  0  0  0  0  0  0  0  0  0  0
  143.3634  138.3579  152.7392 H   0  0  0  0  0  0  0  0  0  0  0  0
  143.1384  136.7977  153.5474 H   0  0  0  0  0  0  0  0  0  0  0  0
  146.7487  136.6476  153.8203 H   0  0  0  0  0  0  0  0  0  0  0  0
  145.7259  138.1858  155.5217 H   0  0  0  0  0  0  0  0  0  0  0  0
  144.6413  136.8887  155.0407 H   0  0  0  0  0  0  0  0  0  0  0  0
  144.3973  138.5122  154.4087 H   0  0  0  0  0  0  0  0  0  0  0  0
  147.8495  138.6490  154.8729 H   0  0  0  0  0  0  0  0  0  0  0  0
  149.3417  140.0184  152.9179 H   0  0  0  0  0  0  0  0  0  0  0  0
  148.0969  141.1202  153.4776 H   0  0  0  0  0  0  0  0  0  0  0  0
  150.9907  138.9845  154.8142 H   0  0  0  0  0  0  0  0  0  0  0  0
  152.2745  139.7076  156.7912 H   0  0  0  0  0  0  0  0  0  0  0  0
  153.1721  143.2019  157.5809 H   0  0  0  0  0  0  0  0  0  0  0  0
  151.6106  143.9415  157.8911 H   0  0  0  0  0  0  0  0  0  0  0  0
  153.4445  144.5273  159.5424 H   0  0  0  0  0  0  0  0  0  0  0  0
  151.1343  144.9230  160.2200 H   0  0  0  0  0  0  0  0  0  0  0  0
  152.0548  144.3305  161.5972 H   0  0  0  0  0  0  0  0  0  0  0  0
  150.9372  143.2621  160.7499 H   0  0  0  0  0  0  0  0  0  0  0  0
  152.1780  141.3888  160.9875 H   0  0  0  0  0  0  0  0  0  0  0  0
  153.6542  139.3870  161.0557 H   0  0  0  0  0  0  0  0  0  0  0  0
  154.3625  140.7314  161.9458 H   0  0  0  0  0  0  0  0  0  0  0  0
  154.9681  140.3219  160.3430 H   0  0  0  0  0  0  0  0  0  0  0  0
  152.1208  139.9129  159.0106 H   0  0  0  0  0  0  0  0  0  0  0  0
  153.4820  140.7433  158.2891 H   0  0  0  0  0  0  0  0  0  0  0  0
  148.3562  142.3497  155.4700 H   0  0  0  0  0  0  0  0  0  0  0  0
  1  2  1  0  0  0  0
  1 23  1  0  0  0  0
  1 24  1  0  0  0  0
  1 25  1  0  0  0  0
  2  3  1  0  0  0  0
  3  4  1  0  0  0  0
  3  5  1  0  0  0  0
  3 26  1  0  0  0  0
  4 27  1  0  0  0  0
  4 28  1  0  0  0  0
  4 29  1  0  0  0  0
  5  6  2  0  0  0  0
  5  7  1  0  0  0  0
  7  8  1  0  0  0  0
  7 30  1  0  0  0  0
  8  9  1  0  0  0  0
  8 31  1  0  0  0  0
  8 32  1  0  0  0  0
  9 22  1  0  0  0  0
  9 10  2  0  0  0  0
 10 11  1  0  0  0  0
 10 33  1  0  0  0  0
 11 12  2  0  0  0  0
 11 34  1  0  0  0  0
 12 13  1  0  0  0  0
 12 21  1  0  0  0  0
 13 20  1  0  0  0  0
 13 14  1  0  0  0  0
 14 15  1  0  0  0  0
 14 35  1  0  0  0  0
 14 36  1  0  0  0  0
 15 16  1  0  0  0  0
 15 17  1  0  0  0  0
 15 37  1  0  0  0  0
 16 38  1  0  0  0  0
 16 39  1  0  0  0  0
 16 40  1  0  0  0  0
 17 18  1  0  0  0  0
 18 19  1  0  0  0  0
 18 20  1  0  0  0  0
 18 41  1  0  0  0  0
 19 42  1  0  0  0  0
 19 43  1  0  0  0  0
 19 44  1  0  0  0  0
 20 45  1  0  0  0  0
 20 46  1  0  0  0  0
 21 22  2  0  0  0  0
 22 47  1  0  0  0  0
M  END
> <s_m_source_file>
AV-unprocessed.smi

> <i_m_source_file_index>
2184

> <i_lp_mmshare_version>
43012

> <i_f3d_flags>
0

> <s_epik_input>
W0NIM11TW0NASF0oW0NIM10pQyg9TylbTkhdW0NIMl1jMVtjSF1bY0hdYyhuW2NIXTEpTjJbQ0gyXVtDQEBIXShbQ0gzXSlPW0NAQEhdKFtDSDNdKVtDSDJdMg==

> <s_epik_cmdline>
J2VwaWtfcHl0aG9uJywgJy1waCcsICc3LjAnLCAnLXRuJywgJzgnLCAnLW1hJywgJzIwMCcsICctbWV0YWxfYmluZGluZycsICctaW1hZScsICc8aW5maWxlLm1hZT4nLCAnLW9tYWUnLCAnPG91dGZpbGUubWFlPic=

> <r_lp_tautomer_probability>
1

> <r_epik_Ionization_Penalty>
0.00551702

> <r_epik_Ionization_Penalty_Charging>
0

> <r_epik_Ionization_Penalty_Neutral>
0.00551702

> <r_epik_State_Penalty>
0.00403758

> <r_epik_Charging_Adjusted_Penalty>
0.00403758

> <i_epik_Tot_Q>
0

> <i_epik_Tot_abs_Q>
0

> <r_epik_Metal_State_Penalty>
-0

> <b_epik_Metal_Only>
0

> <s_lp_Force_Field>
OPLS_2005

> <r_lp_Energy>
19.1656

> <b_lp_Chiralities_Consistent>
1

> <s_lp_Variant>
AV-unprocessed.smi:2184-5

> <Gold.Version>
5.8.1

> <Gold.Id.Protein>
6NUR|6NUR_protein|mol2

> <Gold.PLP.Fitness>
36.3918

> <Gold.PLP.PLP>
-36.6880

> <Gold.PLP.part.hbond>
0.0000

> <Gold.PLP.part.metal>
0.0000

> <Gold.PLP.part.buried>
-0.1875

> <Gold.PLP.part.nonpolar>
-37.5168

> <Gold.PLP.part.repulsive>
1.7301

> <Gold.PLP.ligand.clash>
0.0000

> <Gold.PLP.ligand.torsion>
1.2021

> <Gold.PLP.Chemscore.Hbond>
0.0000

> <Gold.PLP.Chemscore.CHOScore>
0.5793

> <Gold.PLP.Chemscore.Metal>
0.0000

> <Gold.Chemscore.Hbonds>
donor molecule, donor type, donor heavy atom, donor atom, acceptor molecule, acceptor atom, score
      L1  C    22    47       P1  8028  0.63

> <Gold.PLP.Chemscore.Internal.Correction>
0.3701

> <Gold.Rescore>
     Score         DG    S(hbond)    S(metal)    S(lipo)     H(rot)  DE(clash)    DE(int)     intcor
     11.19     -13.96       0.00        0.00     107.41       1.59       1.54       1.23       ----

> <Gold.Chemscore.Fitness>
11.1938

> <Gold.Chemscore.DG>
-13.9643

> <Gold.Chemscore.ZeroCoef>
-5.4800

> <Gold.Chemscore.Hbond>
0.0000

> <Gold.Chemscore.Metal>
0.0000

> <Gold.Chemscore.Lipo>
107.4080

> <Gold.Chemscore.Internal_Hbond>
0.0000

> <Gold.Chemscore.DEClash>
1.5421

> <Gold.Chemscore.DEInternal>
1.2284

> <Gold.Chemscore.Rot>
1.5947

> <Gold.Chemscore.Internal.Correction>
   9.000000E+99

> <Gold.Chemscore.Hbond.Weighted>
-0.0000

> <Gold.Chemscore.Metal.Weighted>
-0.0000

> <Gold.Chemscore.Lipo.Weighted>
-12.5667

> <Gold.Chemscore.Internal_Hbond.Weighted>
0.0000

> <Gold.Chemscore.DEClash.Weighted>
1.5421

> <Gold.Chemscore.DEInternal.Weighted>
1.2284

> <Gold.Chemscore.Rot.Weighted>
4.0824

> <Gold.Chemscore.Internal.Correction.Weighted>
   9.000000E+99

> <Gold.Protein.RotatedTorsions>
[ 6907 6896 6895 6894 ] final   -4.76 input  -60.11 | X-H torsion
[ 7974 7965 7964 7962 ] final   80.61 input  175.53 | X-H torsion
[ 8008 7997 7996 7995 ] final   -7.97 input   59.86 | X-H torsion
[ 10167 10162 10161 10158 ] final  -51.88 input  -65.29 | X-H torsion
[ 10718 10713 10712 10709 ] final  -53.61 input   66.30 | X-H torsion
[ 10763 10752 10751 10750 ] final  -73.75 input  -60.55 | X-H torsion
[ 11005 11000 10999 10996 ] final  -30.43 input  -57.11 | X-H torsion

> <Gold.Protein.ActiveResidues>
 VAL166  LYS551  ARG553  GLY616  TRP617  ASP618  TYR619  PRO620  LYS621  CYS622 
 ASP623  PHE694  ASN695  SER759  ASP760  ASP761  ALA762  ILE779  LEU786  VAL792 
 PHE793  MET794  SER795  GLU796  ALA797  LYS798  CYS799  TRP800  GLU811  SER814 

> <Gold.Protein.RotatedAtoms>
  151.4925  135.1058  159.9807 H   0  0  0  0  0  0  0  0  0  0  0  0  # atno 6907 bound_to 6896
  152.4735  133.8080  159.6999 H   0  0  0  0  0  0  0  0  0  0  0  0  # atno 6908 bound_to 6896
  150.8758  133.7378  159.2973 H   0  0  0  0  0  0  0  0  0  0  0  0  # atno 6909 bound_to 6896
  145.6489  139.2443  143.1988 H   0  0  0  0  0  0  0  0  0  0  0  0  # atno 7974 bound_to 7965
  154.5786  140.2393  155.8086 H   0  0  0  0  0  0  0  0  0  0  0  0  # atno 8008 bound_to 7997
  156.2162  140.3011  155.9802 H   0  0  0  0  0  0  0  0  0  0  0  0  # atno 8009 bound_to 7997
  155.2581  140.0413  157.2985 H   0  0  0  0  0  0  0  0  0  0  0  0  # atno 8010 bound_to 7997
  140.6566  143.2603  151.4568 H   0  0  0  0  0  0  0  0  0  0  0  0  # atno 10167 bound_to 10162
  156.1520  130.4151  149.9929 H   0  0  0  0  0  0  0  0  0  0  0  0  # atno 10718 bound_to 10713
  154.4638  135.5887  153.6274 H   0  0  0  0  0  0  0  0  0  0  0  0  # atno 10763 bound_to 10752
  152.9826  135.6050  154.3453 H   0  0  0  0  0  0  0  0  0  0  0  0  # atno 10764 bound_to 10752
  154.3328  135.2842  155.2442 H   0  0  0  0  0  0  0  0  0  0  0  0  # atno 10765 bound_to 10752
  140.9382  133.7295  156.1037 H   0  0  0  0  0  0  0  0  0  0  0  0  # atno 11005 bound_to 11000
  146.1220  140.7297  142.9453 LP  0  0  0  0  0  0  0  0  0  0  0  0  # atno 17320 bound_to 7965
  144.7130  140.4107  143.7066 LP  0  0  0  0  0  0  0  0  0  0  0  0  # atno 17321 bound_to 7965
  139.5790  144.1754  152.1942 LP  0  0  0  0  0  0  0  0  0  0  0  0  # atno 17342 bound_to 10162
  140.1073  144.5488  150.6948 LP  0  0  0  0  0  0  0  0  0  0  0  0  # atno 17343 bound_to 10162
  156.7784  130.9212  151.3645 LP  0  0  0  0  0  0  0  0  0  0  0  0  # atno 17370 bound_to 10713
  157.6665  130.9012  149.9943 LP  0  0  0  0  0  0  0  0  0  0  0  0  # atno 17371 bound_to 10713
  140.7770  134.3768  157.5496 LP  0  0  0  0  0  0  0  0  0  0  0  0  # atno 17394 bound_to 11000
  139.8813  134.9058  156.2907 LP  0  0  0  0  0  0  0  0  0  0  0  0  # atno 17395 bound_to 11000

$$$$
