AV-unprocessed.smi:2726|AV-procd|sdf|10520|dock5
  -GOLD-   2272014563D 1   1.00000     0.00000
 Structure written by MMmdl.
 42 43  0  0  0  0  0  0  0  0  2 V2000
  148.2044  132.8557  152.4856 C   0  0  0  0  0  0  0  0  0  0  0  0
  148.8398  133.0604  153.8723 C   0  0  0  0  0  0  0  0  0  0  0  0
  147.7716  132.7955  154.9544 C   0  0  0  0  0  0  0  0  0  0  0  0
  150.0262  132.0855  154.0295 C   0  0  0  0  0  0  0  0  0  0  0  0
  149.3000  134.4535  153.9296 N   0  0  0  0  0  0  0  0  0  0  0  0
  149.9029  135.0920  154.9471 C   0  0  0  0  0  0  0  0  0  0  0  0
  150.1749  134.5671  156.0262 O   0  0  0  0  0  0  0  0  0  0  0  0
  150.1456  136.3763  154.6323 N   0  0  0  0  0  0  0  0  0  0  0  0
  150.7650  137.3774  155.4283 C   0  0  0  0  0  0  0  0  0  0  0  0
  151.6338  138.2856  154.7861 C   0  0  0  0  0  0  0  0  0  0  0  0
  152.2814  139.2866  155.5388 C   0  0  0  0  0  0  0  0  0  0  0  0
  152.0587  139.3584  156.9337 C   0  0  0  0  0  0  0  0  0  0  0  0
  152.6496  140.3140  157.7718 N   0  0  0  0  0  0  0  0  0  0  0  0
  151.7695  141.3880  158.2014 C   0  0  0  0  0  0  0  0  0  0  0  0
  152.4734  142.0414  159.3934 C   0  0  0  0  0  0  0  0  0  0  0  0
  153.4374  140.9702  159.9172 C   0  0  0  0  0  0  0  0  0  0  0  0
  153.2418  139.7726  158.9834 C   0  0  0  0  0  0  0  0  0  0  0  0
  151.2300  138.4631  157.5132 N   0  3  0  0  0  0  0  0  0  0  0  0
  150.5887  137.4911  156.8290 C   0  0  0  0  0  0  0  0  0  0  0  0
  147.8291  131.8387  152.3670 H   0  0  0  0  0  0  0  0  0  0  0  0
  148.9250  133.0335  151.6861 H   0  0  0  0  0  0  0  0  0  0  0  0
  147.3645  133.5337  152.3284 H   0  0  0  0  0  0  0  0  0  0  0  0
  146.9410  133.4974  154.8723 H   0  0  0  0  0  0  0  0  0  0  0  0
  148.1769  132.8810  155.9626 H   0  0  0  0  0  0  0  0  0  0  0  0
  147.3601  131.7901  154.8610 H   0  0  0  0  0  0  0  0  0  0  0  0
  149.7053  131.0521  153.8937 H   0  0  0  0  0  0  0  0  0  0  0  0
  150.4826  132.1485  155.0173 H   0  0  0  0  0  0  0  0  0  0  0  0
  150.8053  132.2857  153.2930 H   0  0  0  0  0  0  0  0  0  0  0  0
  149.1313  134.9948  153.0942 H   0  0  0  0  0  0  0  0  0  0  0  0
  149.7952  136.6874  153.7382 H   0  0  0  0  0  0  0  0  0  0  0  0
  151.8004  138.2228  153.7205 H   0  0  0  0  0  0  0  0  0  0  0  0
  152.9386  139.9873  155.0453 H   0  0  0  0  0  0  0  0  0  0  0  0
  151.6013  142.1028  157.3953 H   0  0  0  0  0  0  0  0  0  0  0  0
  150.7999  140.9943  158.5089 H   0  0  0  0  0  0  0  0  0  0  0  0
  153.0353  142.9176  159.0680 H   0  0  0  0  0  0  0  0  0  0  0  0
  151.7610  142.3675  160.1518 H   0  0  0  0  0  0  0  0  0  0  0  0
  154.4641  141.3337  159.8596 H   0  0  0  0  0  0  0  0  0  0  0  0
  153.2373  140.7042  160.9556 H   0  0  0  0  0  0  0  0  0  0  0  0
  152.5746  139.0424  159.4434 H   0  0  0  0  0  0  0  0  0  0  0  0
  154.1876  139.2744  158.7678 H   0  0  0  0  0  0  0  0  0  0  0  0
  149.9739  136.8419  157.4339 H   0  0  0  0  0  0  0  0  0  0  0  0
  151.0821  138.5221  158.5211 H   0  0  0  0  0  0  0  0  0  0  0  0
  1  2  1  0  0  0  0
  1 20  1  0  0  0  0
  1 21  1  0  0  0  0
  1 22  1  0  0  0  0
  2  3  1  0  0  0  0
  2  4  1  0  0  0  0
  2  5  1  0  0  0  0
  3 23  1  0  0  0  0
  3 24  1  0  0  0  0
  3 25  1  0  0  0  0
  4 26  1  0  0  0  0
  4 27  1  0  0  0  0
  4 28  1  0  0  0  0
  5  6  1  0  0  0  0
  5 29  1  0  0  0  0
  6  7  2  0  0  0  0
  6  8  1  0  0  0  0
  8  9  1  0  0  0  0
  8 30  1  0  0  0  0
  9 19  1  0  0  0  0
  9 10  2  0  0  0  0
 10 11  1  0  0  0  0
 10 31  1  0  0  0  0
 11 12  2  0  0  0  0
 11 32  1  0  0  0  0
 12 13  1  0  0  0  0
 12 18  1  0  0  0  0
 13 17  1  0  0  0  0
 13 14  1  0  0  0  0
 14 15  1  0  0  0  0
 14 33  1  0  0  0  0
 14 34  1  0  0  0  0
 15 16  1  0  0  0  0
 15 35  1  0  0  0  0
 15 36  1  0  0  0  0
 16 17  1  0  0  0  0
 16 37  1  0  0  0  0
 16 38  1  0  0  0  0
 17 39  1  0  0  0  0
 17 40  1  0  0  0  0
 18 19  2  0  0  0  0
 18 42  1  0  0  0  0
 19 41  1  0  0  0  0
M  CHG  1  18   1
M  END
> <s_m_source_file>
AV-unprocessed.smi

> <i_m_source_file_index>
2726

> <i_lp_mmshare_version>
43012

> <i_f3d_flags>
0

> <s_epik_input>
W0NIM11DKFtDSDNdKShbQ0gzXSlbTkhdQyg9TylbTkhdYzFbY0hdW2NIXWMobltjSF0xKU4yW0NIMl1bQ0gyXVtDSDJdW0NIMl0y

> <s_epik_cmdline>
J2VwaWtfcHl0aG9uJywgJy1waCcsICc3LjAnLCAnLXRuJywgJzgnLCAnLW1hJywgJzIwMCcsICctbWV0YWxfYmluZGluZycsICctaW1hZScsICc8aW5maWxlLm1hZT4nLCAnLW9tYWUnLCAnPG91dGZpbGUubWFlPic=

> <r_lp_tautomer_probability>
0.999994

> <r_epik_Ionization_Penalty>
1.07826

> <r_epik_Ionization_Penalty_Charging>
1.07824

> <r_epik_Ionization_Penalty_Neutral>
2.30307e-05

> <r_epik_State_Penalty>
1.13344

> <r_epik_Charging_Adjusted_Penalty>
2.21168

> <i_epik_Tot_Q>
1

> <i_epik_Tot_abs_Q>
1

> <r_epik_Metal_State_Penalty>
1.22394

> <b_epik_Metal_Only>
0

> <s_lp_Force_Field>
OPLS_2005

> <r_lp_Energy>
40.4449

> <b_lp_Chiralities_Consistent>
1

> <s_lp_Variant>
AV-unprocessed.smi:2726-2

> <Gold.Version>
5.8.1

> <Gold.Id.Protein>
6NUR|6NUR_protein|mol2

> <Gold.PLP.Fitness>
37.2963

> <Gold.PLP.PLP>
-31.3017

> <Gold.PLP.part.hbond>
-3.0000

> <Gold.PLP.part.metal>
0.0000

> <Gold.PLP.part.buried>
-2.7226

> <Gold.PLP.part.nonpolar>
-25.9541

> <Gold.PLP.part.repulsive>
0.0883

> <Gold.PLP.ligand.clash>
0.0000

> <Gold.PLP.ligand.torsion>
0.6131

> <Gold.PLP.Chemscore.Hbond>
2.4011

> <Gold.PLP.Chemscore.CHOScore>
0.0000

> <Gold.PLP.Chemscore.Metal>
0.0000

> <Gold.Chemscore.Hbonds>
donor molecule, donor type, donor heavy atom, donor atom, acceptor molecule, acceptor atom, score
      L1  H     5    29       P1  7948  0.70
      L1  H     8    30       P1  7948  0.89
      P1  H  7997  8009       L1    13  0.22

> <Gold.PLP.Chemscore.Internal.Correction>
0.0175

> <Gold.Rescore>
     Score         DG    S(hbond)    S(metal)    S(lipo)     H(rot)  DE(clash)    DE(int)     intcor
     15.27     -16.30       1.61        0.00      72.31       1.18       0.07       0.97       ----

> <Gold.Chemscore.Fitness>
15.2697

> <Gold.Chemscore.DG>
-16.3039

> <Gold.Chemscore.ZeroCoef>
-5.4800

> <Gold.Chemscore.Hbond>
1.6145

> <Gold.Chemscore.Metal>
0.0000

> <Gold.Chemscore.Lipo>
72.3093

> <Gold.Chemscore.Internal_Hbond>
0.0000

> <Gold.Chemscore.DEClash>
0.0650

> <Gold.Chemscore.DEInternal>
0.9692

> <Gold.Chemscore.Rot>
1.1830

> <Gold.Chemscore.Internal.Correction>
   9.000000E+99

> <Gold.Chemscore.Hbonds>
donor molecule, donor type, donor heavy atom, donor atom, acceptor molecule, acceptor atom, score
      L1  H     5    29       P1  7948  0.07
      L1  H     8    30       P1  7948  0.41

> <Gold.Chemscore.Hbond.Weighted>
-5.3923

> <Gold.Chemscore.Metal.Weighted>
-0.0000

> <Gold.Chemscore.Lipo.Weighted>
-8.4602

> <Gold.Chemscore.Internal_Hbond.Weighted>
0.0000

> <Gold.Chemscore.DEClash.Weighted>
0.0650

> <Gold.Chemscore.DEInternal.Weighted>
0.9692

> <Gold.Chemscore.Rot.Weighted>
3.0285

> <Gold.Chemscore.Internal.Correction.Weighted>
   9.000000E+99

> <Gold.Protein.RotatedTorsions>
[ 6907 6896 6895 6894 ] final  -37.58 input  -60.11 | X-H torsion
[ 7974 7965 7964 7962 ] final   56.82 input  175.53 | X-H torsion
[ 8008 7997 7996 7995 ] final -179.04 input   59.86 | X-H torsion
[ 10167 10162 10161 10158 ] final  165.83 input  -65.29 | X-H torsion
[ 10718 10713 10712 10709 ] final  -28.95 input   66.30 | X-H torsion
[ 10763 10752 10751 10750 ] final  -73.07 input  -60.55 | X-H torsion
[ 11005 11000 10999 10996 ] final  -82.49 input  -57.11 | X-H torsion

> <Gold.Protein.ActiveResidues>
 VAL166  LYS551  ARG553  GLY616  TRP617  ASP618  TYR619  PRO620  LYS621  CYS622 
 ASP623  PHE694  ASN695  SER759  ASP760  ASP761  ALA762  ILE779  LEU786  VAL792 
 PHE793  MET794  SER795  GLU796  ALA797  LYS798  CYS799  TRP800  GLU811  SER814 

> <Gold.Protein.RotatedAtoms>
  151.0129  134.9411  159.8017 H   0  0  0  0  0  0  0  0  0  0  0  0  # atno 6907 bound_to 6896
  152.5307  134.3004  159.9086 H   0  0  0  0  0  0  0  0  0  0  0  0  # atno 6908 bound_to 6896
  151.3010  133.4080  159.2674 H   0  0  0  0  0  0  0  0  0  0  0  0  # atno 6909 bound_to 6896
  145.9357  139.3845  143.0394 H   0  0  0  0  0  0  0  0  0  0  0  0  # atno 7974 bound_to 7965
  156.0258  140.1271  157.0309 H   0  0  0  0  0  0  0  0  0  0  0  0  # atno 8008 bound_to 7997
  154.4330  140.1059  156.6099 H   0  0  0  0  0  0  0  0  0  0  0  0  # atno 8009 bound_to 7997
  155.5878  140.3469  155.4560 H   0  0  0  0  0  0  0  0  0  0  0  0  # atno 8010 bound_to 7997
  139.4913  144.4091  151.9320 H   0  0  0  0  0  0  0  0  0  0  0  0  # atno 10167 bound_to 10162
  156.4187  130.4422  149.7199 H   0  0  0  0  0  0  0  0  0  0  0  0  # atno 10718 bound_to 10713
  154.4544  135.5909  153.6213 H   0  0  0  0  0  0  0  0  0  0  0  0  # atno 10763 bound_to 10752
  152.9817  135.6029  154.3564 H   0  0  0  0  0  0  0  0  0  0  0  0  # atno 10764 bound_to 10752
  154.3429  135.2841  155.2392 H   0  0  0  0  0  0  0  0  0  0  0  0  # atno 10765 bound_to 10752
  141.1663  133.7247  156.8579 H   0  0  0  0  0  0  0  0  0  0  0  0  # atno 11005 bound_to 11000
  145.8367  140.9602  143.0820 LP  0  0  0  0  0  0  0  0  0  0  0  0  # atno 17320 bound_to 7965
  144.6771  140.0232  143.7483 LP  0  0  0  0  0  0  0  0  0  0  0  0  # atno 17321 bound_to 7965
  140.3532  144.3063  150.5945 LP  0  0  0  0  0  0  0  0  0  0  0  0  # atno 17342 bound_to 10162
  140.5467  143.2213  151.7996 LP  0  0  0  0  0  0  0  0  0  0  0  0  # atno 17343 bound_to 10162
  156.4149  130.7740  151.2755 LP  0  0  0  0  0  0  0  0  0  0  0  0  # atno 17370 bound_to 10713
  157.7508  131.0200  150.3691 LP  0  0  0  0  0  0  0  0  0  0  0  0  # atno 17371 bound_to 10713
  140.1869  134.8993  157.3015 LP  0  0  0  0  0  0  0  0  0  0  0  0  # atno 17394 bound_to 11000
  140.2333  134.3883  155.7512 LP  0  0  0  0  0  0  0  0  0  0  0  0  # atno 17395 bound_to 11000

$$$$
