AV-unprocessed.smi:1703|AV-procd|sdf|6853|dock3
  -GOLD-   22720 8 33D 1   1.00000     0.00000
 Structure written by MMmdl.
 48 50  0  0  0  0  0  0  0  0  1 V2000
  144.8140  143.5824  156.8290 C   0  0  0  0  0  0  0  0  0  0  0  0
  144.3621  142.7986  155.5850 C   0  0  2  0  0  0  0  0  0  0  0  0
  145.2230  141.5501  155.3049 C   0  0  0  0  0  0  0  0  0  0  0  0
  146.5396  141.8809  154.7616 N   0  0  0  0  0  0  0  0  0  0  0  0
  147.3447  140.6951  154.4641 C   0  0  0  0  0  0  0  0  0  0  0  0
  148.8728  140.9021  154.4874 C   0  0  2  0  0  0  0  0  0  0  0  0
  149.3083  141.2179  153.1792 O   0  0  0  0  0  0  0  0  0  0  0  0
  149.6037  139.6352  154.9739 C   0  0  0  0  0  0  0  0  0  0  0  0
  150.7177  139.9297  155.8674 N   0  0  0  0  0  0  0  0  0  0  0  0
  151.9426  139.3437  155.9102 C   0  0  0  0  0  0  0  0  0  0  0  0
  152.3276  138.2231  154.9852 C   0  0  0  0  0  0  0  0  0  0  0  0
  151.5631  137.0492  155.1713 O   0  0  0  0  0  0  0  0  0  0  0  0
  152.7727  139.8128  156.8447 N   0  0  0  0  0  0  0  0  0  0  0  0
  152.0222  140.7953  157.4584 C   0  0  0  0  0  0  0  0  0  0  0  0
  152.3440  141.6627  158.5269 C   0  0  0  0  0  0  0  0  0  0  0  0
  151.3995  142.5993  158.9951 C   0  0  0  0  0  0  0  0  0  0  0  0
  150.1221  142.6806  158.4037 C   0  0  0  0  0  0  0  0  0  0  0  0
  149.7817  141.8259  157.3375 C   0  0  0  0  0  0  0  0  0  0  0  0
  150.7292  140.8939  156.8718 C   0  0  0  0  0  0  0  0  0  0  0  0
  146.3652  142.7019  153.5703 C   0  0  0  0  0  0  0  0  0  0  0  0
  145.5647  143.9830  153.8644 C   0  0  1  0  0  0  0  0  0  0  0  0
  145.3106  144.8071  152.5977 C   0  0  0  0  0  0  0  0  0  0  0  0
  144.3016  143.6312  154.4259 O   0  0  0  0  0  0  0  0  0  0  0  0
  144.7433  142.9626  157.7231 H   0  0  0  0  0  0  0  0  0  0  0  0
  144.1864  144.4598  156.9850 H   0  0  0  0  0  0  0  0  0  0  0  0
  145.8472  143.9196  156.7490 H   0  0  0  0  0  0  0  0  0  0  0  0
  143.3414  142.4651  155.7745 H   0  0  0  0  0  0  0  0  0  0  0  0
  145.3172  140.9799  156.2276 H   0  0  0  0  0  0  0  0  0  0  0  0
  144.6925  140.9088  154.5996 H   0  0  0  0  0  0  0  0  0  0  0  0
  147.0805  139.9034  155.1669 H   0  0  0  0  0  0  0  0  0  0  0  0
  147.0732  140.3141  153.4783 H   0  0  0  0  0  0  0  0  0  0  0  0
  149.1404  141.7278  155.1436 H   0  0  0  0  0  0  0  0  0  0  0  0
  148.9988  140.5482  152.5889 H   0  0  0  0  0  0  0  0  0  0  0  0
  148.9125  138.9629  155.4819 H   0  0  0  0  0  0  0  0  0  0  0  0
  149.9822  139.0734  154.1194 H   0  0  0  0  0  0  0  0  0  0  0  0
  152.2071  138.5608  153.9558 H   0  0  0  0  0  0  0  0  0  0  0  0
  153.3752  137.9583  155.1204 H   0  0  0  0  0  0  0  0  0  0  0  0
  150.7319  137.1597  154.7359 H   0  0  0  0  0  0  0  0  0  0  0  0
  153.3192  141.6065  158.9873 H   0  0  0  0  0  0  0  0  0  0  0  0
  151.6556  143.2576  159.8123 H   0  0  0  0  0  0  0  0  0  0  0  0
  149.4038  143.3994  158.7696 H   0  0  0  0  0  0  0  0  0  0  0  0
  148.8030  141.8866  156.8859 H   0  0  0  0  0  0  0  0  0  0  0  0
  147.3405  142.9766  153.1665 H   0  0  0  0  0  0  0  0  0  0  0  0
  145.8590  142.1241  152.7951 H   0  0  0  0  0  0  0  0  0  0  0  0
  146.1162  144.6031  154.5721 H   0  0  0  0  0  0  0  0  0  0  0  0
  146.2485  145.1144  152.1343 H   0  0  0  0  0  0  0  0  0  0  0  0
  144.7430  145.7089  152.8277 H   0  0  0  0  0  0  0  0  0  0  0  0
  144.7443  144.2355  151.8616 H   0  0  0  0  0  0  0  0  0  0  0  0
  1  2  1  0  0  0  0
  1 24  1  0  0  0  0
  1 25  1  0  0  0  0
  1 26  1  0  0  0  0
  2 23  1  0  0  0  0
  2  3  1  0  0  0  0
  2 27  1  0  0  0  0
  3  4  1  0  0  0  0
  3 28  1  0  0  0  0
  3 29  1  0  0  0  0
  4  5  1  0  0  0  0
  4 20  1  0  0  0  0
  5  6  1  0  0  0  0
  5 30  1  0  0  0  0
  5 31  1  0  0  0  0
  6  7  1  0  0  0  0
  6  8  1  0  0  0  0
  6 32  1  0  0  0  0
  7 33  1  0  0  0  0
  8  9  1  0  0  0  0
  8 34  1  0  0  0  0
  8 35  1  0  0  0  0
  9 19  1  0  0  0  0
  9 10  1  0  0  0  0
 10 11  1  0  0  0  0
 10 13  2  0  0  0  0
 11 12  1  0  0  0  0
 11 36  1  0  0  0  0
 11 37  1  0  0  0  0
 12 38  1  0  0  0  0
 13 14  1  0  0  0  0
 14 19  2  0  0  0  0
 14 15  1  0  0  0  0
 15 16  2  0  0  0  0
 15 39  1  0  0  0  0
 16 17  1  0  0  0  0
 16 40  1  0  0  0  0
 17 18  2  0  0  0  0
 17 41  1  0  0  0  0
 18 19  1  0  0  0  0
 18 42  1  0  0  0  0
 20 21  1  0  0  0  0
 20 43  1  0  0  0  0
 20 44  1  0  0  0  0
 21 22  1  0  0  0  0
 21 23  1  0  0  0  0
 21 45  1  0  0  0  0
 22 46  1  0  0  0  0
 22 47  1  0  0  0  0
 22 48  1  0  0  0  0
M  END
> <s_m_source_file>
AV-unprocessed.smi

> <i_m_source_file_index>
1703

> <i_lp_mmshare_version>
43012

> <i_f3d_flags>
0

> <s_epik_input>
W0NIM11bQ0BASF0xW0NIMl1OKFtDSDJdW0NASF0oTzEpW0NIM10pW0NIMl1bQ0BIXShbT0hdKVtDSDJdbihjKG4yKVtDSDJdW09IXSljKGMyMylbY0hdW2NIXVtjSF1bY0hdMw==

> <s_epik_cmdline>
J2VwaWtfcHl0aG9uJywgJy1waCcsICc3LjAnLCAnLXRuJywgJzgnLCAnLW1hJywgJzIwMCcsICctbWV0YWxfYmluZGluZycsICctaW1hZScsICc8aW5maWxlLm1hZT4nLCAnLW9tYWUnLCAnPG91dGZpbGUubWFlPic=

> <r_epik_Ionization_Penalty>
0.307685

> <r_epik_Ionization_Penalty_Charging>
0

> <r_epik_Ionization_Penalty_Neutral>
0.307685

> <r_epik_State_Penalty>
0.277856

> <r_epik_Charging_Adjusted_Penalty>
0.277856

> <i_epik_Tot_Q>
0

> <i_epik_Tot_abs_Q>
0

> <r_epik_Metal_State_Penalty>
0.238959

> <b_epik_Metal_Only>
0

> <s_lp_Force_Field>
OPLS_2005

> <r_lp_Energy>
33.4043

> <b_lp_Chiralities_Consistent>
1

> <s_lp_Variant>
AV-unprocessed.smi:1703-1

> <Gold.Version>
5.8.1

> <Gold.Id.Protein>
6NUR|6NUR_protein|mol2

> <Gold.PLP.Fitness>
50.0902

> <Gold.PLP.PLP>
-42.3310

> <Gold.PLP.part.hbond>
-4.4733

> <Gold.PLP.part.metal>
0.0000

> <Gold.PLP.part.buried>
-5.6183

> <Gold.PLP.part.nonpolar>
-31.9977

> <Gold.PLP.part.repulsive>
0.4588

> <Gold.PLP.ligand.clash>
0.0000

> <Gold.PLP.ligand.torsion>
1.5634

> <Gold.PLP.Chemscore.Hbond>
3.5823

> <Gold.PLP.Chemscore.CHOScore>
0.0000

> <Gold.PLP.Chemscore.Metal>
0.0000

> <Gold.Chemscore.Hbonds>
donor molecule, donor type, donor heavy atom, donor atom, acceptor molecule, acceptor atom, score
      L1  H     7    33       P1  7957  0.59
      P1  H  7989  7998       L1     7  0.02
      P1  H  7997  8009       L1    13  1.00
      P1  H  8011  8017       L1     7  1.00
      P1  H 10752 10765       L1    12  0.80

> <Gold.PLP.Chemscore.Internal.Correction>
0.1393

> <Gold.Rescore>
     Score         DG    S(hbond)    S(metal)    S(lipo)     H(rot)  DE(clash)    DE(int)     intcor
     17.21     -18.83       3.21        0.00      85.44       2.88       0.03       1.60       ----

> <Gold.Chemscore.Fitness>
17.2099

> <Gold.Chemscore.DG>
-18.8347

> <Gold.Chemscore.ZeroCoef>
-5.4800

> <Gold.Chemscore.Hbond>
3.2111

> <Gold.Chemscore.Metal>
0.0000

> <Gold.Chemscore.Lipo>
85.4415

> <Gold.Chemscore.Internal_Hbond>
0.0000

> <Gold.Chemscore.DEClash>
0.0291

> <Gold.Chemscore.DEInternal>
1.5958

> <Gold.Chemscore.Rot>
2.8778

> <Gold.Chemscore.Internal.Correction>
   9.000000E+99

> <Gold.Chemscore.Hbonds>
donor molecule, donor type, donor heavy atom, donor atom, acceptor molecule, acceptor atom, score
      L1  H     7    33       P1  7957  0.60
      P1  H  7997  8009       L1    13  0.95
      P1  H  8011  8017       L1     7  0.61
      P1  H 10752 10765       L1    12  0.17

> <Gold.Chemscore.Hbond.Weighted>
-10.7251

> <Gold.Chemscore.Metal.Weighted>
-0.0000

> <Gold.Chemscore.Lipo.Weighted>
-9.9967

> <Gold.Chemscore.Internal_Hbond.Weighted>
0.0000

> <Gold.Chemscore.DEClash.Weighted>
0.0291

> <Gold.Chemscore.DEInternal.Weighted>
1.5958

> <Gold.Chemscore.Rot.Weighted>
7.3671

> <Gold.Chemscore.Internal.Correction.Weighted>
   9.000000E+99

> <Gold.Protein.RotatedTorsions>
[ 6907 6896 6895 6894 ] final  172.33 input  -60.11 | X-H torsion
[ 7974 7965 7964 7962 ] final -178.61 input  175.53 | X-H torsion
[ 8008 7997 7996 7995 ] final  178.96 input   59.86 | X-H torsion
[ 10167 10162 10161 10158 ] final -164.04 input  -65.29 | X-H torsion
[ 10718 10713 10712 10709 ] final  154.87 input   66.30 | X-H torsion
[ 10763 10752 10751 10750 ] final  171.05 input  -60.55 | X-H torsion
[ 11005 11000 10999 10996 ] final   16.28 input  -57.11 | X-H torsion

> <Gold.Protein.ActiveResidues>
 VAL166  LYS551  ARG553  GLY616  TRP617  ASP618  TYR619  PRO620  LYS621  CYS622 
 ASP623  PHE694  ASN695  SER759  ASP760  ASP761  ALA762  ILE779  LEU786  VAL792 
 PHE793  MET794  SER795  GLU796  ALA797  LYS798  CYS799  TRP800  GLU811  SER814 

> <Gold.Protein.RotatedAtoms>
  151.7859  133.3354  159.3484 H   0  0  0  0  0  0  0  0  0  0  0  0  # atno 6907 bound_to 6896
  150.7409  134.5887  159.5986 H   0  0  0  0  0  0  0  0  0  0  0  0  # atno 6908 bound_to 6896
  152.3244  134.7341  160.0357 H   0  0  0  0  0  0  0  0  0  0  0  0  # atno 6909 bound_to 6896
  144.7132  140.0842  143.6424 H   0  0  0  0  0  0  0  0  0  0  0  0  # atno 7974 bound_to 7965
  156.0488  140.1320  157.0074 H   0  0  0  0  0  0  0  0  0  0  0  0  # atno 8008 bound_to 7997
  154.4425  140.1015  156.6416 H   0  0  0  0  0  0  0  0  0  0  0  0  # atno 8009 bound_to 7997
  155.5555  140.3464  155.4481 H   0  0  0  0  0  0  0  0  0  0  0  0  # atno 8010 bound_to 7997
  139.6278  144.0497  152.1990 H   0  0  0  0  0  0  0  0  0  0  0  0  # atno 10167 bound_to 10162
  157.2259  131.0728  151.1884 H   0  0  0  0  0  0  0  0  0  0  0  0  # atno 10718 bound_to 10713
  154.4063  135.2755  155.2065 H   0  0  0  0  0  0  0  0  0  0  0  0  # atno 10763 bound_to 10752
  154.4069  135.6031  153.5933 H   0  0  0  0  0  0  0  0  0  0  0  0  # atno 10764 bound_to 10752
  152.9831  135.5940  154.4338 H   0  0  0  0  0  0  0  0  0  0  0  0  # atno 10765 bound_to 10752
  140.4489  134.1245  155.7700 H   0  0  0  0  0  0  0  0  0  0  0  0  # atno 11005 bound_to 11000
  145.9676  139.2846  143.1118 LP  0  0  0  0  0  0  0  0  0  0  0  0  # atno 17320 bound_to 7965
  145.9152  140.9153  143.0433 LP  0  0  0  0  0  0  0  0  0  0  0  0  # atno 17321 bound_to 7965
  140.0155  144.6192  150.7610 LP  0  0  0  0  0  0  0  0  0  0  0  0  # atno 17342 bound_to 10162
  140.7421  143.2828  151.3550 LP  0  0  0  0  0  0  0  0  0  0  0  0  # atno 17343 bound_to 10162
  157.3528  130.7091  149.6452 LP  0  0  0  0  0  0  0  0  0  0  0  0  # atno 17370 bound_to 10713
  155.9679  130.4247  150.4622 LP  0  0  0  0  0  0  0  0  0  0  0  0  # atno 17371 bound_to 10713
  141.1673  133.8678  157.1677 LP  0  0  0  0  0  0  0  0  0  0  0  0  # atno 17394 bound_to 11000
  140.0020  135.0024  157.0210 LP  0  0  0  0  0  0  0  0  0  0  0  0  # atno 17395 bound_to 11000

$$$$
