AV-unprocessed.smi:2975|AV-procd|sdf|11356|dock2
  -GOLD-   2272016273D 1   1.00000     0.00000
 Structure written by MMmdl.
 39 41  0  0  0  0  0  0  0  0  1 V2000
  147.1575  142.0941  154.2484 C   0  0  0  0  0  0  0  0  0  0  0  0
  147.0879  140.5801  154.4939 C   0  0  1  0  0  0  0  0  0  0  0  0
  146.3786  139.9840  153.4279 O   0  0  0  0  0  0  0  0  0  0  0  0
  148.4545  139.9750  154.6622 C   0  0  0  0  0  0  0  0  0  0  0  0
  148.8318  138.9173  153.9395 N   0  0  0  0  0  0  0  0  0  0  0  0
  150.1200  138.6876  154.3760 C   0  0  0  0  0  0  0  0  0  0  0  0
  151.0618  137.7102  153.9824 C   0  0  0  0  0  0  0  0  0  0  0  0
  152.3391  137.6696  154.5783 C   0  0  0  0  0  0  0  0  0  0  0  0
  152.6916  138.6033  155.5741 C   0  0  0  0  0  0  0  0  0  0  0  0
  151.7667  139.5839  155.9814 C   0  0  0  0  0  0  0  0  0  0  0  0
  150.4924  139.6205  155.3832 C   0  0  0  0  0  0  0  0  0  0  0  0
  149.3749  140.4336  155.5530 N   0  0  0  0  0  0  0  0  0  0  0  0
  149.2749  141.5291  156.5091 C   0  0  0  0  0  0  0  0  0  0  0  0
  149.2100  141.0373  157.9619 C   0  0  0  0  0  0  0  0  0  0  0  0
  150.5195  140.9616  158.5089 O   0  0  0  0  0  0  0  0  0  0  0  0
  151.1274  142.1341  158.9067 C   0  0  0  0  0  0  0  0  0  0  0  0
  150.5740  143.4240  158.7006 C   0  0  0  0  0  0  0  0  0  0  0  0
  151.2554  144.5735  159.1455 C   0  0  0  0  0  0  0  0  0  0  0  0
  152.4960  144.4518  159.7973 C   0  0  0  0  0  0  0  0  0  0  0  0
  153.0548  143.1774  160.0040 C   0  0  0  0  0  0  0  0  0  0  0  0
  152.3740  142.0270  159.5607 C   0  0  0  0  0  0  0  0  0  0  0  0
  152.9308  140.8086  159.7587 F   0  0  0  0  0  0  0  0  0  0  0  0
  147.6889  142.5967  155.0565 H   0  0  0  0  0  0  0  0  0  0  0  0
  146.1595  142.5289  154.1867 H   0  0  0  0  0  0  0  0  0  0  0  0
  147.6790  142.3261  153.3192 H   0  0  0  0  0  0  0  0  0  0  0  0
  146.4920  140.4189  155.3892 H   0  0  0  0  0  0  0  0  0  0  0  0
  145.6531  140.5472  153.2049 H   0  0  0  0  0  0  0  0  0  0  0  0
  150.8009  136.9914  153.2200 H   0  0  0  0  0  0  0  0  0  0  0  0
  153.0517  136.9187  154.2697 H   0  0  0  0  0  0  0  0  0  0  0  0
  153.6723  138.5659  156.0254 H   0  0  0  0  0  0  0  0  0  0  0  0
  152.0348  140.2998  156.7440 H   0  0  0  0  0  0  0  0  0  0  0  0
  150.0937  142.2327  156.3641 H   0  0  0  0  0  0  0  0  0  0  0  0
  148.3684  142.0908  156.2822 H   0  0  0  0  0  0  0  0  0  0  0  0
  148.6084  141.7330  158.5488 H   0  0  0  0  0  0  0  0  0  0  0  0
  148.7217  140.0620  157.9933 H   0  0  0  0  0  0  0  0  0  0  0  0
  149.6242  143.5601  158.2069 H   0  0  0  0  0  0  0  0  0  0  0  0
  150.8240  145.5510  158.9870 H   0  0  0  0  0  0  0  0  0  0  0  0
  153.0180  145.3340  160.1378 H   0  0  0  0  0  0  0  0  0  0  0  0
  154.0082  143.0811  160.5024 H   0  0  0  0  0  0  0  0  0  0  0  0
  1  2  1  0  0  0  0
  1 23  1  0  0  0  0
  1 24  1  0  0  0  0
  1 25  1  0  0  0  0
  2  3  1  0  0  0  0
  2  4  1  0  0  0  0
  2 26  1  0  0  0  0
  3 27  1  0  0  0  0
  4 12  1  0  0  0  0
  4  5  2  0  0  0  0
  5  6  1  0  0  0  0
  6 11  2  0  0  0  0
  6  7  1  0  0  0  0
  7  8  2  0  0  0  0
  7 28  1  0  0  0  0
  8  9  1  0  0  0  0
  8 29  1  0  0  0  0
  9 10  2  0  0  0  0
  9 30  1  0  0  0  0
 10 11  1  0  0  0  0
 10 31  1  0  0  0  0
 11 12  1  0  0  0  0
 12 13  1  0  0  0  0
 13 14  1  0  0  0  0
 13 32  1  0  0  0  0
 13 33  1  0  0  0  0
 14 15  1  0  0  0  0
 14 34  1  0  0  0  0
 14 35  1  0  0  0  0
 15 16  1  0  0  0  0
 16 21  1  0  0  0  0
 16 17  2  0  0  0  0
 17 18  1  0  0  0  0
 17 36  1  0  0  0  0
 18 19  2  0  0  0  0
 18 37  1  0  0  0  0
 19 20  1  0  0  0  0
 19 38  1  0  0  0  0
 20 21  2  0  0  0  0
 20 39  1  0  0  0  0
 21 22  1  0  0  0  0
M  END
> <s_m_source_file>
AV-unprocessed.smi

> <i_m_source_file_index>
2975

> <i_lp_mmshare_version>
43012

> <i_f3d_flags>
0

> <s_epik_input>
W2NIXTFbY0hdW2NIXVtjSF1jKGMxMiluKGMobjIpW0NASF0oW0NIM10pW09IXSlbQ0gyXVtDSDJdT2MzW2NIXVtjSF1bY0hdW2NIXWMzRg==

> <s_epik_cmdline>
J2VwaWtfcHl0aG9uJywgJy1waCcsICc3LjAnLCAnLXRuJywgJzgnLCAnLW1hJywgJzIwMCcsICctbWV0YWxfYmluZGluZycsICctaW1hZScsICc8aW5maWxlLm1hZT4nLCAnLW9tYWUnLCAnPG91dGZpbGUubWFlPic=

> <r_lp_tautomer_probability>
1

> <r_epik_Ionization_Penalty>
0.0404035

> <r_epik_Ionization_Penalty_Charging>
0

> <r_epik_Ionization_Penalty_Neutral>
0.0404035

> <r_epik_State_Penalty>
0.0340039

> <r_epik_Charging_Adjusted_Penalty>
0.0340039

> <i_epik_Tot_Q>
0

> <i_epik_Tot_abs_Q>
0

> <r_epik_Metal_State_Penalty>
3.49976e-05

> <b_epik_Metal_Only>
0

> <s_lp_Force_Field>
OPLS_2005

> <r_lp_Energy>
14.7518

> <b_lp_Chiralities_Consistent>
1

> <s_lp_Variant>
AV-unprocessed.smi:2975-2

> <Gold.Version>
5.8.1

> <Gold.Id.Protein>
6NUR|6NUR_protein|mol2

> <Gold.PLP.Fitness>
47.3558

> <Gold.PLP.PLP>
-45.2610

> <Gold.PLP.part.hbond>
-1.0000

> <Gold.PLP.part.metal>
0.0000

> <Gold.PLP.part.buried>
-1.1607

> <Gold.PLP.part.nonpolar>
-43.3513

> <Gold.PLP.part.repulsive>
0.9282

> <Gold.PLP.ligand.clash>
0.0000

> <Gold.PLP.ligand.torsion>
0.4866

> <Gold.PLP.Chemscore.Hbond>
1.0000

> <Gold.PLP.Chemscore.CHOScore>
0.0000

> <Gold.PLP.Chemscore.Metal>
0.0000

> <Gold.Chemscore.Hbonds>
donor molecule, donor type, donor heavy atom, donor atom, acceptor molecule, acceptor atom, score
      L1  H     3    27       P1 10175  0.70

> <Gold.PLP.Chemscore.Internal.Correction>
0.0679

> <Gold.Rescore>
     Score         DG    S(hbond)    S(metal)    S(lipo)     H(rot)  DE(clash)    DE(int)     intcor
     17.52     -18.56       0.97        0.00     132.25       2.21       0.49       0.55       ----

> <Gold.Chemscore.Fitness>
17.5160

> <Gold.Chemscore.DG>
-18.5554

> <Gold.Chemscore.ZeroCoef>
-5.4800

> <Gold.Chemscore.Hbond>
0.9728

> <Gold.Chemscore.Metal>
0.0000

> <Gold.Chemscore.Lipo>
132.2534

> <Gold.Chemscore.Internal_Hbond>
0.0000

> <Gold.Chemscore.DEClash>
0.4938

> <Gold.Chemscore.DEInternal>
0.5456

> <Gold.Chemscore.Rot>
2.2060

> <Gold.Chemscore.Internal.Correction>
   9.000000E+99

> <Gold.Chemscore.Hbonds>
donor molecule, donor type, donor heavy atom, donor atom, acceptor molecule, acceptor atom, score
      L1  H     3    27       P1 10175  0.60

> <Gold.Chemscore.Hbond.Weighted>
-3.2491

> <Gold.Chemscore.Metal.Weighted>
-0.0000

> <Gold.Chemscore.Lipo.Weighted>
-15.4736

> <Gold.Chemscore.Internal_Hbond.Weighted>
0.0000

> <Gold.Chemscore.DEClash.Weighted>
0.4938

> <Gold.Chemscore.DEInternal.Weighted>
0.5456

> <Gold.Chemscore.Rot.Weighted>
5.6473

> <Gold.Chemscore.Internal.Correction.Weighted>
   9.000000E+99

> <Gold.Protein.RotatedTorsions>
[ 6907 6896 6895 6894 ] final -134.89 input  -60.11 | X-H torsion
[ 7974 7965 7964 7962 ] final -143.63 input  175.53 | X-H torsion
[ 8008 7997 7996 7995 ] final  -94.96 input   59.86 | X-H torsion
[ 10167 10162 10161 10158 ] final  -69.12 input  -65.29 | X-H torsion
[ 10718 10713 10712 10709 ] final  115.66 input   66.30 | X-H torsion
[ 10763 10752 10751 10750 ] final   18.15 input  -60.55 | X-H torsion
[ 11005 11000 10999 10996 ] final  172.48 input  -57.11 | X-H torsion

> <Gold.Protein.ActiveResidues>
 VAL166  LYS551  ARG553  GLY616  TRP617  ASP618  TYR619  PRO620  LYS621  CYS622 
 ASP623  PHE694  ASN695  SER759  ASP760  ASP761  ALA762  ILE779  LEU786  VAL792 
 PHE793  MET794  SER795  GLU796  ALA797  LYS798  CYS799  TRP800  GLU811  SER814 

> <Gold.Protein.RotatedAtoms>
  150.9913  133.6147  159.2707 H   0  0  0  0  0  0  0  0  0  0  0  0  # atno 6907 bound_to 6896
  151.3367  135.0853  159.9367 H   0  0  0  0  0  0  0  0  0  0  0  0  # atno 6908 bound_to 6896
  152.5246  133.9532  159.7736 H   0  0  0  0  0  0  0  0  0  0  0  0  # atno 6909 bound_to 6896
  144.8356  140.5811  143.5486 H   0  0  0  0  0  0  0  0  0  0  0  0  # atno 7974 bound_to 7965
  154.7552  140.0484  157.0927 H   0  0  0  0  0  0  0  0  0  0  0  0  # atno 8008 bound_to 7997
  155.0007  140.3124  155.4849 H   0  0  0  0  0  0  0  0  0  0  0  0  # atno 8009 bound_to 7997
  156.2893  140.2202  156.5117 H   0  0  0  0  0  0  0  0  0  0  0  0  # atno 8010 bound_to 7997
  140.5455  143.2313  151.7010 H   0  0  0  0  0  0  0  0  0  0  0  0  # atno 10167 bound_to 10162
  157.6208  131.1015  150.7361 H   0  0  0  0  0  0  0  0  0  0  0  0  # atno 10718 bound_to 10713
  153.1274  135.6733  153.9234 H   0  0  0  0  0  0  0  0  0  0  0  0  # atno 10763 bound_to 10752
  153.8730  135.3067  155.3444 H   0  0  0  0  0  0  0  0  0  0  0  0  # atno 10764 bound_to 10752
  154.7677  135.4955  153.9668 H   0  0  0  0  0  0  0  0  0  0  0  0  # atno 10765 bound_to 10752
  140.3302  134.7364  157.4129 H   0  0  0  0  0  0  0  0  0  0  0  0  # atno 11005 bound_to 11000
  145.4803  139.1496  143.3766 LP  0  0  0  0  0  0  0  0  0  0  0  0  # atno 17320 bound_to 7965
  146.2655  140.4938  142.8836 LP  0  0  0  0  0  0  0  0  0  0  0  0  # atno 17321 bound_to 7965
  139.5005  144.3902  152.0288 LP  0  0  0  0  0  0  0  0  0  0  0  0  # atno 17342 bound_to 10162
  140.3014  144.3642  150.6059 LP  0  0  0  0  0  0  0  0  0  0  0  0  # atno 17343 bound_to 10162
  156.7719  130.4831  149.5417 LP  0  0  0  0  0  0  0  0  0  0  0  0  # atno 17370 bound_to 10713
  156.1353  130.6207  151.0391 LP  0  0  0  0  0  0  0  0  0  0  0  0  # atno 17371 bound_to 10713
  140.0867  134.5657  155.8485 LP  0  0  0  0  0  0  0  0  0  0  0  0  # atno 17394 bound_to 11000
  141.2065  133.6656  156.6247 LP  0  0  0  0  0  0  0  0  0  0  0  0  # atno 17395 bound_to 11000

$$$$
