AV-unprocessed.smi:22|AV-procd|sdf|172|dock4
  -GOLD-   2262015423D 1   1.00000     0.00000
 Structure written by MMmdl.
 56 59  0  0  0  0  0  0  0  0  2 V2000
  144.3975  134.2363  152.3619 C   0  0  0  0  0  0  0  0  0  0  0  0
  144.2683  132.7552  152.3605 N   0  3  1  0  0  0  0  0  0  0  0  0
  143.3777  132.2673  151.2648 C   0  0  0  0  0  0  0  0  0  0  0  0
  143.9825  132.3986  149.8534 C   0  0  0  0  0  0  0  0  0  0  0  0
  143.0327  132.0254  148.8770 O   0  0  0  0  0  0  0  0  0  0  0  0
  145.6107  132.0922  152.4514 C   0  0  0  0  0  0  0  0  0  0  0  0
  145.6016  130.5554  152.2462 C   0  0  0  0  0  0  0  0  0  0  0  0
  147.0090  129.9538  152.3918 C   0  0  0  0  0  0  0  0  0  0  0  0
  147.6021  130.3118  153.6777 N   0  0  0  0  0  0  0  0  0  0  0  0
  148.6828  129.5674  154.0285 C   0  0  0  0  0  0  0  0  0  0  0  0
  148.7759  128.2731  153.6202 N   0  0  0  0  0  0  0  0  0  0  0  0
  149.8283  127.5276  153.9695 C   0  0  0  0  0  0  0  0  0  0  0  0
  150.8849  127.8708  154.7078 N   0  0  0  0  0  0  0  0  0  0  0  0
  150.8052  129.1706  155.1119 C   0  0  0  0  0  0  0  0  0  0  0  0
  149.7486  130.0801  154.8222 C   0  0  0  0  0  0  0  0  0  0  0  0
  150.0188  131.3154  155.3995 N   0  0  0  0  0  0  0  0  0  0  0  0
  151.1621  131.1421  156.0048 C   0  0  0  0  0  0  0  0  0  0  0  0
  151.7110  129.8863  155.8757 N   0  0  0  0  0  0  0  0  0  0  0  0
  152.9690  129.4172  156.4380 C   0  0  0  0  0  0  0  0  0  0  0  0
  154.0525  129.1123  155.3748 C   0  0  2  0  0  0  0  0  0  0  0  0
  153.6065  128.0493  154.5525 O   0  0  0  0  0  0  0  0  0  0  0  0
  155.3939  128.7256  156.0025 C   0  0  0  0  0  0  0  0  0  0  0  0
  156.2887  129.9242  155.7104 C   0  0  0  0  0  0  0  0  0  0  0  0
  155.8248  130.3570  154.4444 O   0  0  0  0  0  0  0  0  0  0  0  0
  154.4058  130.3231  154.4882 C   0  0  0  0  0  0  0  0  0  0  0  0
  147.6543  131.7487  153.9448 C   0  0  0  0  0  0  0  0  0  0  0  0
  146.2594  132.3822  153.8254 C   0  0  0  0  0  0  0  0  0  0  0  0
  144.7448  134.5958  151.3925 H   0  0  0  0  0  0  0  0  0  0  0  0
  145.1020  134.5867  153.1143 H   0  0  0  0  0  0  0  0  0  0  0  0
  143.4484  134.7199  152.5894 H   0  0  0  0  0  0  0  0  0  0  0  0
  143.1114  131.2266  151.4553 H   0  0  0  0  0  0  0  0  0  0  0  0
  142.4490  132.8366  151.2518 H   0  0  0  0  0  0  0  0  0  0  0  0
  144.3583  133.4008  149.6504 H   0  0  0  0  0  0  0  0  0  0  0  0
  144.8389  131.7299  149.7630 H   0  0  0  0  0  0  0  0  0  0  0  0
  142.4590  132.7602  148.7171 H   0  0  0  0  0  0  0  0  0  0  0  0
  146.2429  132.5123  151.6667 H   0  0  0  0  0  0  0  0  0  0  0  0
  144.9363  130.0836  152.9708 H   0  0  0  0  0  0  0  0  0  0  0  0
  145.2319  130.2958  151.2541 H   0  0  0  0  0  0  0  0  0  0  0  0
  146.9491  128.8732  152.2672 H   0  0  0  0  0  0  0  0  0  0  0  0
  147.6552  130.3223  151.5941 H   0  0  0  0  0  0  0  0  0  0  0  0
  149.8235  126.5111  153.6046 H   0  0  0  0  0  0  0  0  0  0  0  0
  151.6397  131.9340  156.5634 H   0  0  0  0  0  0  0  0  0  0  0  0
  153.3313  130.1715  157.1377 H   0  0  0  0  0  0  0  0  0  0  0  0
  152.7648  128.5256  157.0324 H   0  0  0  0  0  0  0  0  0  0  0  0
  153.2602  128.4143  153.7525 H   0  0  0  0  0  0  0  0  0  0  0  0
  155.3290  128.5087  157.0692 H   0  0  0  0  0  0  0  0  0  0  0  0
  155.8145  127.8435  155.5164 H   0  0  0  0  0  0  0  0  0  0  0  0
  156.1406  130.7140  156.4487 H   0  0  0  0  0  0  0  0  0  0  0  0
  157.3473  129.6649  155.6869 H   0  0  0  0  0  0  0  0  0  0  0  0
  153.9742  130.2755  153.4874 H   0  0  0  0  0  0  0  0  0  0  0  0
  154.0727  131.2551  154.9459 H   0  0  0  0  0  0  0  0  0  0  0  0
  148.0457  131.9273  154.9474 H   0  0  0  0  0  0  0  0  0  0  0  0
  148.3395  132.2236  153.2410 H   0  0  0  0  0  0  0  0  0  0  0  0
  146.3517  133.4521  154.0063 H   0  0  0  0  0  0  0  0  0  0  0  0
  145.6195  131.9947  154.6197 H   0  0  0  0  0  0  0  0  0  0  0  0
  143.7882  132.5085  153.2148 H   0  0  0  0  0  0  0  0  0  0  0  0
  1  2  1  0  0  0  0
  1 28  1  0  0  0  0
  1 29  1  0  0  0  0
  1 30  1  0  0  0  0
  2  3  1  0  0  0  0
  2  6  1  0  0  0  0
  2 56  1  0  0  0  0
  3  4  1  0  0  0  0
  3 31  1  0  0  0  0
  3 32  1  0  0  0  0
  4  5  1  0  0  0  0
  4 33  1  0  0  0  0
  4 34  1  0  0  0  0
  5 35  1  0  0  0  0
  6 27  1  0  0  0  0
  6  7  1  0  0  0  0
  6 36  1  0  0  0  0
  7  8  1  0  0  0  0
  7 37  1  0  0  0  0
  7 38  1  0  0  0  0
  8  9  1  0  0  0  0
  8 39  1  0  0  0  0
  8 40  1  0  0  0  0
  9 10  1  0  0  0  0
  9 26  1  0  0  0  0
 10 15  1  0  0  0  0
 10 11  2  0  0  0  0
 11 12  1  0  0  0  0
 12 13  2  0  0  0  0
 12 41  1  0  0  0  0
 13 14  1  0  0  0  0
 14 18  1  0  0  0  0
 14 15  2  0  0  0  0
 15 16  1  0  0  0  0
 16 17  2  0  0  0  0
 17 18  1  0  0  0  0
 17 42  1  0  0  0  0
 18 19  1  0  0  0  0
 19 20  1  0  0  0  0
 19 43  1  0  0  0  0
 19 44  1  0  0  0  0
 20 25  1  0  0  0  0
 20 21  1  0  0  0  0
 20 22  1  0  0  0  0
 21 45  1  0  0  0  0
 22 23  1  0  0  0  0
 22 46  1  0  0  0  0
 22 47  1  0  0  0  0
 23 24  1  0  0  0  0
 23 48  1  0  0  0  0
 23 49  1  0  0  0  0
 24 25  1  0  0  0  0
 25 50  1  0  0  0  0
 25 51  1  0  0  0  0
 26 27  1  0  0  0  0
 26 52  1  0  0  0  0
 26 53  1  0  0  0  0
 27 54  1  0  0  0  0
 27 55  1  0  0  0  0
M  CHG  1   2   1
M  END
> <s_m_source_file>
AV-unprocessed.smi

> <i_m_source_file_index>
22

> <i_lp_mmshare_version>
43012

> <i_f3d_flags>
0

> <s_epik_input>
W09IXVtDSDJdW0NIMl1OKFtDSDNdKVtDSF0xW0NIMl1bQ0gyXU4oW0NIMl1bQ0gyXTEpYyhuW2NIXW4yKWMoYzIzKW5bY0hdbjNbQ0gyXVtDQEBdNChbT0hdKVtDSDJdW0NIMl1PW0NIMl00

> <s_epik_cmdline>
J2VwaWtfcHl0aG9uJywgJy1waCcsICc3LjAnLCAnLXRuJywgJzgnLCAnLW1hJywgJzIwMCcsICctbWV0YWxfYmluZGluZycsICctaW1hZScsICc8aW5maWxlLm1hZT4nLCAnLW9tYWUnLCAnPG91dGZpbGUubWFlPic=

> <r_lp_tautomer_probability>
1

> <r_epik_Ionization_Penalty>
0.00317524

> <r_epik_Ionization_Penalty_Charging>
0.00191487

> <r_epik_Ionization_Penalty_Neutral>
0.00126037

> <r_epik_State_Penalty>
-0

> <r_epik_Charging_Adjusted_Penalty>
0.00191487

> <i_epik_Tot_Q>
1

> <i_epik_Tot_abs_Q>
1

> <r_epik_Metal_State_Penalty>
-0

> <b_epik_Metal_Only>
0

> <s_lp_Force_Field>
OPLS_2005

> <r_lp_Energy>
50.3895

> <b_lp_Chiralities_Consistent>
1

> <s_lp_Variant>
AV-unprocessed.smi:22-4

> <Gold.Version>
5.8.1

> <Gold.Id.Protein>
6NUR|6NUR_protein|mol2

> <Gold.PLP.Fitness>
48.4121

> <Gold.PLP.PLP>
-35.7580

> <Gold.PLP.part.hbond>
-4.9095

> <Gold.PLP.part.metal>
0.0000

> <Gold.PLP.part.buried>
-6.1184

> <Gold.PLP.part.nonpolar>
-28.4066

> <Gold.PLP.part.repulsive>
0.5436

> <Gold.PLP.ligand.clash>
0.0000

> <Gold.PLP.ligand.torsion>
0.7496

> <Gold.PLP.Chemscore.Hbond>
4.5185

> <Gold.PLP.Chemscore.CHOScore>
0.0000

> <Gold.PLP.Chemscore.Metal>
0.0000

> <Gold.Chemscore.Hbonds>
donor molecule, donor type, donor heavy atom, donor atom, acceptor molecule, acceptor atom, score
      L1  H     2    56       P1 10957  1.60
      L1  H     5    35       P1 10186  0.23
      L1  H    21    45       P1 10737  0.03
      P1  H 10785 10796       L1     5  1.00

> <Gold.PLP.Chemscore.Internal.Correction>
0.5979

> <Gold.Rescore>
     Score         DG    S(hbond)    S(metal)    S(lipo)     H(rot)  DE(clash)    DE(int)     intcor
     12.44     -14.88       3.11        0.00      73.79       3.76       0.23       2.21       ----

> <Gold.Chemscore.Fitness>
12.4407

> <Gold.Chemscore.DG>
-14.8813

> <Gold.Chemscore.ZeroCoef>
-5.4800

> <Gold.Chemscore.Hbond>
3.1105

> <Gold.Chemscore.Metal>
0.0000

> <Gold.Chemscore.Lipo>
73.7914

> <Gold.Chemscore.Internal_Hbond>
0.0000

> <Gold.Chemscore.DEClash>
0.2287

> <Gold.Chemscore.DEInternal>
2.2119

> <Gold.Chemscore.Rot>
3.7583

> <Gold.Chemscore.Internal.Correction>
   9.000000E+99

> <Gold.Chemscore.Hbonds>
donor molecule, donor type, donor heavy atom, donor atom, acceptor molecule, acceptor atom, score
      L1  H     2    56       P1 10957  0.13
      L1  H     5    35       P1 10186  0.22
      L1  H    21    45       P1 10737  0.01
      P1  H 10785 10796       L1     5  0.48

> <Gold.Chemscore.Hbond.Weighted>
-10.3890

> <Gold.Chemscore.Metal.Weighted>
-0.0000

> <Gold.Chemscore.Lipo.Weighted>
-8.6336

> <Gold.Chemscore.Internal_Hbond.Weighted>
0.0000

> <Gold.Chemscore.DEClash.Weighted>
0.2287

> <Gold.Chemscore.DEInternal.Weighted>
2.2119

> <Gold.Chemscore.Rot.Weighted>
9.6213

> <Gold.Chemscore.Internal.Correction.Weighted>
   9.000000E+99

> <Gold.Protein.RotatedTorsions>
[ 6907 6896 6895 6894 ] final  -17.10 input  -60.11 | X-H torsion
[ 7974 7965 7964 7962 ] final   61.76 input  175.53 | X-H torsion
[ 8008 7997 7996 7995 ] final  126.67 input   59.86 | X-H torsion
[ 10167 10162 10161 10158 ] final  -97.28 input  -65.29 | X-H torsion
[ 10718 10713 10712 10709 ] final   -0.90 input   66.30 | X-H torsion
[ 10763 10752 10751 10750 ] final   16.39 input  -60.55 | X-H torsion
[ 11005 11000 10999 10996 ] final  -80.31 input  -57.11 | X-H torsion

> <Gold.Protein.ActiveResidues>
 VAL166  LYS551  ARG553  GLY616  TRP617  ASP618  TYR619  PRO620  LYS621  CYS622 
 ASP623  PHE694  ASN695  SER759  ASP760  ASP761  ALA762  ILE779  LEU786  VAL792 
 PHE793  MET794  SER795  GLU796  ALA797  LYS798  CYS799  TRP800  GLU811  SER814 

> <Gold.Protein.RotatedAtoms>
  151.2984  135.0762  159.9229 H   0  0  0  0  0  0  0  0  0  0  0  0  # atno 6907 bound_to 6896
  152.5302  133.9858  159.7838 H   0  0  0  0  0  0  0  0  0  0  0  0  # atno 6908 bound_to 6896
  151.0141  133.5886  159.2709 H   0  0  0  0  0  0  0  0  0  0  0  0  # atno 6909 bound_to 6896
  145.8810  139.3443  143.0706 H   0  0  0  0  0  0  0  0  0  0  0  0  # atno 7974 bound_to 7965
  156.2870  140.2687  156.2148 H   0  0  0  0  0  0  0  0  0  0  0  0  # atno 8008 bound_to 7997
  155.0228  140.0386  157.2462 H   0  0  0  0  0  0  0  0  0  0  0  0  # atno 8009 bound_to 7997
  154.7421  140.2727  155.6369 H   0  0  0  0  0  0  0  0  0  0  0  0  # atno 8010 bound_to 7997
  140.2850  143.3257  152.0403 H   0  0  0  0  0  0  0  0  0  0  0  0  # atno 10167 bound_to 10162
  156.8136  130.5433  149.5706 H   0  0  0  0  0  0  0  0  0  0  0  0  # atno 10718 bound_to 10713
  153.1435  135.6764  153.8990 H   0  0  0  0  0  0  0  0  0  0  0  0  # atno 10763 bound_to 10752
  153.8439  135.3102  155.3429 H   0  0  0  0  0  0  0  0  0  0  0  0  # atno 10764 bound_to 10752
  154.7807  135.4890  153.9922 H   0  0  0  0  0  0  0  0  0  0  0  0  # atno 10765 bound_to 10752
  141.1668  133.7145  156.8254 H   0  0  0  0  0  0  0  0  0  0  0  0  # atno 11005 bound_to 11000
  145.9023  140.9235  143.0496 LP  0  0  0  0  0  0  0  0  0  0  0  0  # atno 17320 bound_to 7965
  144.6727  140.1049  143.7458 LP  0  0  0  0  0  0  0  0  0  0  0  0  # atno 17321 bound_to 7965
  139.4952  144.6565  151.6561 LP  0  0  0  0  0  0  0  0  0  0  0  0  # atno 17342 bound_to 10162
  140.5780  143.9995  150.6252 LP  0  0  0  0  0  0  0  0  0  0  0  0  # atno 17343 bound_to 10162
  156.1030  130.5983  150.9924 LP  0  0  0  0  0  0  0  0  0  0  0  0  # atno 17370 bound_to 10713
  157.6493  131.0899  150.8086 LP  0  0  0  0  0  0  0  0  0  0  0  0  # atno 17371 bound_to 10713
  140.2089  134.8842  157.3252 LP  0  0  0  0  0  0  0  0  0  0  0  0  # atno 17394 bound_to 11000
  140.2108  134.4141  155.7614 LP  0  0  0  0  0  0  0  0  0  0  0  0  # atno 17395 bound_to 11000

$$$$
