AV-unprocessed.smi:1901|AV-procd|sdf|7718|dock9
  -GOLD-   22720 9463D 1   1.00000     0.00000
 Structure written by MMmdl.
 27 28  0  0  0  0  0  0  0  0  2 V2000
  151.2637  139.8177  156.2949 O   0  0  0  0  0  0  0  0  0  0  0  0
  150.8285  140.9352  156.0091 C   0  0  0  0  0  0  0  0  0  0  0  0
  151.0415  141.9567  156.8495 N   0  0  0  0  0  0  0  0  0  0  0  0
  151.7662  141.8714  158.1116 C   0  0  0  0  0  0  0  0  0  0  0  0
  151.4473  143.0760  159.0123 C   0  0  2  0  0  0  0  0  0  0  0  0
  151.9063  144.4148  158.4686 C   0  0  0  0  0  0  0  0  0  0  0  0
  151.9073  145.2808  159.7247 C   0  0  0  0  0  0  0  0  0  0  0  0
  152.2079  144.4019  160.8055 O   0  0  0  0  0  0  0  0  0  0  0  0
  152.1628  143.0485  160.3624 C   0  0  0  0  0  0  0  0  0  0  0  0
  150.1270  141.2918  154.9029 N   0  5  0  0  0  0  0  0  0  0  0  0
  149.1093  140.5866  154.3608 C   0  0  0  0  0  0  0  0  0  0  0  0
  149.0538  139.2561  154.1831 N   0  0  0  0  0  0  0  0  0  0  0  0
  147.8693  138.8089  153.5975 C   0  0  0  0  0  0  0  0  0  0  0  0
  146.9905  139.8198  153.3179 C   0  0  0  0  0  0  0  0  0  0  0  0
  147.6335  141.3674  153.7846 S   0  0  0  0  0  0  0  0  0  0  0  0
  150.6732  142.8598  156.5897 H   0  0  0  0  0  0  0  0  0  0  0  0
  151.4916  140.9464  158.6207 H   0  0  0  0  0  0  0  0  0  0  0  0
  152.8376  141.8207  157.9111 H   0  0  0  0  0  0  0  0  0  0  0  0
  150.3714  143.1213  159.1907 H   0  0  0  0  0  0  0  0  0  0  0  0
  152.9178  144.3356  158.0670 H   0  0  0  0  0  0  0  0  0  0  0  0
  151.2578  144.8071  157.6847 H   0  0  0  0  0  0  0  0  0  0  0  0
  152.6242  146.0999  159.6652 H   0  0  0  0  0  0  0  0  0  0  0  0
  150.9179  145.7079  159.8920 H   0  0  0  0  0  0  0  0  0  0  0  0
  151.6606  142.4084  161.0881 H   0  0  0  0  0  0  0  0  0  0  0  0
  153.1875  142.6915  160.2498 H   0  0  0  0  0  0  0  0  0  0  0  0
  147.7369  137.7528  153.4165 H   0  0  0  0  0  0  0  0  0  0  0  0
  146.0113  139.7508  152.8692 H   0  0  0  0  0  0  0  0  0  0  0  0
  1  2  2  0  0  0  0
  2  3  1  0  0  0  0
  2 10  1  0  0  0  0
  3  4  1  0  0  0  0
  3 16  1  0  0  0  0
  4  5  1  0  0  0  0
  4 17  1  0  0  0  0
  4 18  1  0  0  0  0
  5  9  1  0  0  0  0
  5  6  1  0  0  0  0
  5 19  1  0  0  0  0
  6  7  1  0  0  0  0
  6 20  1  0  0  0  0
  6 21  1  0  0  0  0
  7  8  1  0  0  0  0
  7 22  1  0  0  0  0
  7 23  1  0  0  0  0
  8  9  1  0  0  0  0
  9 24  1  0  0  0  0
  9 25  1  0  0  0  0
 10 11  1  0  0  0  0
 11 15  1  0  0  0  0
 11 12  2  0  0  0  0
 12 13  1  0  0  0  0
 13 14  2  0  0  0  0
 13 26  1  0  0  0  0
 14 15  1  0  0  0  0
 14 27  1  0  0  0  0
M  CHG  1  10  -1
M  END
> <s_m_source_file>
AV-unprocessed.smi

> <i_m_source_file_index>
1901

> <i_lp_mmshare_version>
43012

> <i_f3d_flags>
0

> <s_epik_input>
czFbY0hdW2NIXW5jMVtOSF1DKD1PKVtOSF1bQ0gyXVtDQEBIXTJbQ0gyXVtDSDJdT1tDSDJdMg==

> <s_epik_cmdline>
J2VwaWtfcHl0aG9uJywgJy1waCcsICc3LjAnLCAnLXRuJywgJzgnLCAnLW1hJywgJzIwMCcsICctbWV0YWxfYmluZGluZycsICctaW1hZScsICc8aW5maWxlLm1hZT4nLCAnLW9tYWUnLCAnPG91dGZpbGUubWFlPic=

> <r_lp_tautomer_probability>
0.999

> <r_epik_Ionization_Penalty>
8.4411

> <r_epik_Ionization_Penalty_Charging>
6.72681

> <r_epik_Ionization_Penalty_Neutral>
1.71429

> <r_epik_State_Penalty>
6.72698

> <r_epik_Charging_Adjusted_Penalty>
13.4538

> <i_epik_Tot_Q>
-1

> <i_epik_Tot_abs_Q>
1

> <r_epik_Metal_State_Penalty>
2.64812

> <b_epik_Metal_Only>
1

> <s_lp_Force_Field>
OPLS_2005

> <r_lp_Energy>
18.4833

> <b_lp_Chiralities_Consistent>
1

> <s_lp_Variant>
AV-unprocessed.smi:1901-3

> <Gold.Version>
5.8.1

> <Gold.Id.Protein>
6NUR|6NUR_protein|mol2

> <Gold.PLP.Fitness>
36.9650

> <Gold.PLP.PLP>
-31.3269

> <Gold.PLP.part.hbond>
-1.0000

> <Gold.PLP.part.metal>
0.0000

> <Gold.PLP.part.buried>
-3.2771

> <Gold.PLP.part.nonpolar>
-27.7005

> <Gold.PLP.part.repulsive>
0.4956

> <Gold.PLP.ligand.clash>
0.0000

> <Gold.PLP.ligand.torsion>
0.8330

> <Gold.PLP.Chemscore.Hbond>
0.4376

> <Gold.PLP.Chemscore.CHOScore>
1.9950

> <Gold.PLP.Chemscore.Metal>
0.0000

> <Gold.Chemscore.Hbonds>
donor molecule, donor type, donor heavy atom, donor atom, acceptor molecule, acceptor atom, score
      P1  H  7989  7998       L1    10  0.42
      L1  C    13    26       P1  7948  0.99
      L1  C    14    27       P1 10175  1.00

> <Gold.PLP.Chemscore.Internal.Correction>
0.0064

> <Gold.Rescore>
     Score         DG    S(hbond)    S(metal)    S(lipo)     H(rot)  DE(clash)    DE(int)     intcor
     11.04     -12.00       0.31        0.00      75.24       1.30       0.03       0.93       ----

> <Gold.Chemscore.Fitness>
11.0412

> <Gold.Chemscore.DG>
-12.0009

> <Gold.Chemscore.ZeroCoef>
-5.4800

> <Gold.Chemscore.Hbond>
0.3132

> <Gold.Chemscore.Metal>
0.0000

> <Gold.Chemscore.Lipo>
75.2367

> <Gold.Chemscore.Internal_Hbond>
0.0000

> <Gold.Chemscore.DEClash>
0.0252

> <Gold.Chemscore.DEInternal>
0.9344

> <Gold.Chemscore.Rot>
1.3000

> <Gold.Chemscore.Internal.Correction>
   9.000000E+99

> <Gold.Chemscore.Hbonds>
donor molecule, donor type, donor heavy atom, donor atom, acceptor molecule, acceptor atom, score
      P1  H  7989  7998       L1    10  0.02

> <Gold.Chemscore.Hbond.Weighted>
-1.0462

> <Gold.Chemscore.Metal.Weighted>
-0.0000

> <Gold.Chemscore.Lipo.Weighted>
-8.8027

> <Gold.Chemscore.Internal_Hbond.Weighted>
0.0000

> <Gold.Chemscore.DEClash.Weighted>
0.0252

> <Gold.Chemscore.DEInternal.Weighted>
0.9344

> <Gold.Chemscore.Rot.Weighted>
3.3280

> <Gold.Chemscore.Internal.Correction.Weighted>
   9.000000E+99

> <Gold.Protein.RotatedTorsions>
[ 6907 6896 6895 6894 ] final  -59.91 input  -60.11 | X-H torsion
[ 7974 7965 7964 7962 ] final  -52.88 input  175.53 | X-H torsion
[ 8008 7997 7996 7995 ] final  -38.06 input   59.86 | X-H torsion
[ 10167 10162 10161 10158 ] final  177.92 input  -65.29 | X-H torsion
[ 10718 10713 10712 10709 ] final  -78.03 input   66.30 | X-H torsion
[ 10763 10752 10751 10750 ] final   16.35 input  -60.55 | X-H torsion
[ 11005 11000 10999 10996 ] final   36.62 input  -57.11 | X-H torsion

> <Gold.Protein.ActiveResidues>
 VAL166  LYS551  ARG553  GLY616  TRP617  ASP618  TYR619  PRO620  LYS621  CYS622 
 ASP623  PHE694  ASN695  SER759  ASP760  ASP761  ALA762  ILE779  LEU786  VAL792 
 PHE793  MET794  SER795  GLU796  ALA797  LYS798  CYS799  TRP800  GLU811  SER814 

> <Gold.Protein.RotatedAtoms>
  150.7895  134.6907  159.6494 H   0  0  0  0  0  0  0  0  0  0  0  0  # atno 6907 bound_to 6896
  152.3998  134.6302  160.0083 H   0  0  0  0  0  0  0  0  0  0  0  0  # atno 6908 bound_to 6896
  151.6577  133.3281  159.3203 H   0  0  0  0  0  0  0  0  0  0  0  0  # atno 6909 bound_to 6896
  145.9030  140.7978  142.9734 H   0  0  0  0  0  0  0  0  0  0  0  0  # atno 7974 bound_to 7965
  154.4043  140.1587  156.2639 H   0  0  0  0  0  0  0  0  0  0  0  0  # atno 8008 bound_to 7997
  155.9012  140.3433  155.6006 H   0  0  0  0  0  0  0  0  0  0  0  0  # atno 8009 bound_to 7997
  155.7445  140.0797  157.2221 H   0  0  0  0  0  0  0  0  0  0  0  0  # atno 8010 bound_to 7997
  139.5273  144.2741  152.0603 H   0  0  0  0  0  0  0  0  0  0  0  0  # atno 10167 bound_to 10162
  156.0128  130.4507  150.3434 H   0  0  0  0  0  0  0  0  0  0  0  0  # atno 10718 bound_to 10713
  153.1439  135.6765  153.8985 H   0  0  0  0  0  0  0  0  0  0  0  0  # atno 10763 bound_to 10752
  153.8433  135.3102  155.3429 H   0  0  0  0  0  0  0  0  0  0  0  0  # atno 10764 bound_to 10752
  154.7809  135.4889  153.9927 H   0  0  0  0  0  0  0  0  0  0  0  0  # atno 10765 bound_to 10752
  140.2307  134.3531  155.7965 H   0  0  0  0  0  0  0  0  0  0  0  0  # atno 11005 bound_to 11000
  144.6737  140.1706  143.7414 LP  0  0  0  0  0  0  0  0  0  0  0  0  # atno 17320 bound_to 7965
  145.8767  139.2301  143.1629 LP  0  0  0  0  0  0  0  0  0  0  0  0  # atno 17321 bound_to 7965
  140.2199  144.4477  150.6347 LP  0  0  0  0  0  0  0  0  0  0  0  0  # atno 17342 bound_to 10162
  140.6425  143.2206  151.6258 LP  0  0  0  0  0  0  0  0  0  0  0  0  # atno 17343 bound_to 10162
  157.1529  131.0325  151.2877 LP  0  0  0  0  0  0  0  0  0  0  0  0  # atno 17370 bound_to 10713
  157.4377  130.7526  149.7042 LP  0  0  0  0  0  0  0  0  0  0  0  0  # atno 17371 bound_to 10713
  141.2218  133.7244  156.8726 LP  0  0  0  0  0  0  0  0  0  0  0  0  # atno 17394 bound_to 11000
  140.1754  134.9071  157.2884 LP  0  0  0  0  0  0  0  0  0  0  0  0  # atno 17395 bound_to 11000

$$$$
