AV-unprocessed.smi:2003|AV-procd|sdf|8118|dock7
  -GOLD-   2272010353D 1   1.00000     0.00000
 Structure written by MMmdl.
 43 44  0  0  0  0  0  0  0  0  1 V2000
  143.6721  132.2172  149.9764 C   0  0  0  0  0  0  0  0  0  0  0  0
  144.7256  132.9756  150.7293 C   0  0  0  0  0  0  0  0  0  0  0  0
  144.8028  134.3808  150.9537 C   0  0  0  0  0  0  0  0  0  0  0  0
  145.9487  134.5067  151.6910 C   0  0  0  0  0  0  0  0  0  0  0  0
  146.5181  135.6341  152.1948 N   0  0  0  0  0  0  0  0  0  0  0  0
  145.9648  136.5814  152.9717 C   0  0  0  0  0  0  0  0  0  0  0  0
  144.7980  136.5926  153.3646 O   0  0  0  0  0  0  0  0  0  0  0  0
  146.8561  137.5339  153.2818 N   0  0  0  0  0  0  0  0  0  0  0  0
  146.5837  138.6888  154.1336 C   0  0  0  0  0  0  0  0  0  0  0  0
  147.4730  139.9229  153.8022 C   0  0  1  0  0  0  0  0  0  0  0  0
  146.6498  141.2117  154.0555 C   0  0  0  0  0  0  0  0  0  0  0  0
  148.7706  139.9220  154.5172 N   0  0  0  0  0  0  0  0  0  0  0  0
  149.3607  141.2630  154.6087 C   0  0  0  0  0  0  0  0  0  0  0  0
  150.7247  141.2712  155.3202 C   0  0  0  0  0  0  0  0  0  0  0  0
  151.6180  140.3915  154.6521 O   0  0  0  0  0  0  0  0  0  0  0  0
  151.1219  139.0609  154.6112 C   0  0  0  0  0  0  0  0  0  0  0  0
  149.7610  139.0358  153.8940 C   0  0  0  0  0  0  0  0  0  0  0  0
  146.4974  133.2556  151.8762 N   0  0  0  0  0  0  0  0  0  0  0  0
  147.6980  132.8556  152.5850 C   0  0  0  0  0  0  0  0  0  0  0  0
  145.7358  132.3129  151.2808 N   0  0  0  0  0  0  0  0  0  0  0  0
  143.0298  132.8930  149.4114 H   0  0  0  0  0  0  0  0  0  0  0  0
  143.0382  131.6483  150.6568 H   0  0  0  0  0  0  0  0  0  0  0  0
  144.1175  131.5167  149.2696 H   0  0  0  0  0  0  0  0  0  0  0  0
  144.1197  135.1480  150.6214 H   0  0  0  0  0  0  0  0  0  0  0  0
  147.4908  135.7652  151.9594 H   0  0  0  0  0  0  0  0  0  0  0  0
  147.7931  137.4503  152.9156 H   0  0  0  0  0  0  0  0  0  0  0  0
  145.5306  138.9502  154.0248 H   0  0  0  0  0  0  0  0  0  0  0  0
  146.7117  138.3530  155.1617 H   0  0  0  0  0  0  0  0  0  0  0  0
  147.6852  139.8884  152.7326 H   0  0  0  0  0  0  0  0  0  0  0  0
  145.6737  141.1849  153.5724 H   0  0  0  0  0  0  0  0  0  0  0  0
  147.1382  142.0987  153.6548 H   0  0  0  0  0  0  0  0  0  0  0  0
  146.4832  141.3696  155.1214 H   0  0  0  0  0  0  0  0  0  0  0  0
  149.4721  141.6870  153.6097 H   0  0  0  0  0  0  0  0  0  0  0  0
  148.7081  141.9325  155.1660 H   0  0  0  0  0  0  0  0  0  0  0  0
  151.1468  142.2761  155.3163 H   0  0  0  0  0  0  0  0  0  0  0  0
  150.6186  140.9721  156.3641 H   0  0  0  0  0  0  0  0  0  0  0  0
  151.8387  138.4304  154.0852 H   0  0  0  0  0  0  0  0  0  0  0  0
  151.0321  138.6665  155.6246 H   0  0  0  0  0  0  0  0  0  0  0  0
  149.4191  138.0032  153.9083 H   0  0  0  0  0  0  0  0  0  0  0  0
  149.8979  139.3114  152.8472 H   0  0  0  0  0  0  0  0  0  0  0  0
  148.2681  133.7287  152.9018 H   0  0  0  0  0  0  0  0  0  0  0  0
  148.3256  132.2464  151.9337 H   0  0  0  0  0  0  0  0  0  0  0  0
  147.4259  132.2730  153.4656 H   0  0  0  0  0  0  0  0  0  0  0  0
  1  2  1  0  0  0  0
  1 21  1  0  0  0  0
  1 22  1  0  0  0  0
  1 23  1  0  0  0  0
  2 20  2  0  0  0  0
  2  3  1  0  0  0  0
  3  4  2  0  0  0  0
  3 24  1  0  0  0  0
  4  5  1  0  0  0  0
  4 18  1  0  0  0  0
  5  6  1  0  0  0  0
  5 25  1  0  0  0  0
  6  7  2  0  0  0  0
  6  8  1  0  0  0  0
  8  9  1  0  0  0  0
  8 26  1  0  0  0  0
  9 10  1  0  0  0  0
  9 27  1  0  0  0  0
  9 28  1  0  0  0  0
 10 11  1  0  0  0  0
 10 12  1  0  0  0  0
 10 29  1  0  0  0  0
 11 30  1  0  0  0  0
 11 31  1  0  0  0  0
 11 32  1  0  0  0  0
 12 17  1  0  0  0  0
 12 13  1  0  0  0  0
 13 14  1  0  0  0  0
 13 33  1  0  0  0  0
 13 34  1  0  0  0  0
 14 15  1  0  0  0  0
 14 35  1  0  0  0  0
 14 36  1  0  0  0  0
 15 16  1  0  0  0  0
 16 17  1  0  0  0  0
 16 37  1  0  0  0  0
 16 38  1  0  0  0  0
 17 39  1  0  0  0  0
 17 40  1  0  0  0  0
 18 19  1  0  0  0  0
 18 20  1  0  0  0  0
 19 41  1  0  0  0  0
 19 42  1  0  0  0  0
 19 43  1  0  0  0  0
M  END
> <s_m_source_file>
AV-unprocessed.smi

> <i_m_source_file_index>
2003

> <i_lp_mmshare_version>
43012

> <i_f3d_flags>
0

> <s_epik_input>
W0NIM11jMVtjSF1jKG4objEpW0NIM10pW05IXUMoPU8pW05IXVtDSDJdW0NASF0oW0NIM10pTjJbQ0gyXVtDSDJdT1tDSDJdW0NIMl0y

> <s_epik_cmdline>
J2VwaWtfcHl0aG9uJywgJy1waCcsICc3LjAnLCAnLXRuJywgJzgnLCAnLW1hJywgJzIwMCcsICctbWV0YWxfYmluZGluZycsICctaW1hZScsICc8aW5maWxlLm1hZT4nLCAnLW9tYWUnLCAnPG91dGZpbGUubWFlPic=

> <r_lp_tautomer_probability>
1

> <r_epik_Ionization_Penalty>
0.233974

> <r_epik_Ionization_Penalty_Charging>
0

> <r_epik_Ionization_Penalty_Neutral>
0.233974

> <r_epik_State_Penalty>
0.224627

> <r_epik_Charging_Adjusted_Penalty>
0.224627

> <i_epik_Tot_Q>
0

> <i_epik_Tot_abs_Q>
0

> <r_epik_Metal_State_Penalty>
0.224624

> <b_epik_Metal_Only>
0

> <s_lp_Force_Field>
OPLS_2005

> <r_lp_Energy>
29.1269

> <b_lp_Chiralities_Consistent>
1

> <s_lp_Variant>
AV-unprocessed.smi:2003-2

> <Gold.Version>
5.8.1

> <Gold.Id.Protein>
6NUR|6NUR_protein|mol2

> <Gold.PLP.Fitness>
41.3308

> <Gold.PLP.PLP>
-35.7900

> <Gold.PLP.part.hbond>
-2.9910

> <Gold.PLP.part.metal>
0.0000

> <Gold.PLP.part.buried>
-4.7480

> <Gold.PLP.part.nonpolar>
-28.8697

> <Gold.PLP.part.repulsive>
0.4459

> <Gold.PLP.ligand.clash>
0.0000

> <Gold.PLP.ligand.torsion>
1.5191

> <Gold.PLP.Chemscore.Hbond>
2.8480

> <Gold.PLP.Chemscore.CHOScore>
0.0000

> <Gold.PLP.Chemscore.Metal>
0.0000

> <Gold.Chemscore.Hbonds>
donor molecule, donor type, donor heavy atom, donor atom, acceptor molecule, acceptor atom, score
      L1  H     5    25       P1  7948  0.94
      L1  H     8    26       P1  7948  0.85
      P1  H  7989  7998       L1    15  0.27

> <Gold.PLP.Chemscore.Internal.Correction>
0.0349

> <Gold.Rescore>
     Score         DG    S(hbond)    S(metal)    S(lipo)     H(rot)  DE(clash)    DE(int)     intcor
     15.56     -17.11       2.09        0.00      72.43       1.49       0.00       1.55       ----

> <Gold.Chemscore.Fitness>
15.5568

> <Gold.Chemscore.DG>
-17.1139

> <Gold.Chemscore.ZeroCoef>
-5.4800

> <Gold.Chemscore.Hbond>
2.0910

> <Gold.Chemscore.Metal>
0.0000

> <Gold.Chemscore.Lipo>
72.4276

> <Gold.Chemscore.Internal_Hbond>
0.0000

> <Gold.Chemscore.DEClash>
0.0021

> <Gold.Chemscore.DEInternal>
1.5550

> <Gold.Chemscore.Rot>
1.4938

> <Gold.Chemscore.Internal.Correction>
   9.000000E+99

> <Gold.Chemscore.Hbonds>
donor molecule, donor type, donor heavy atom, donor atom, acceptor molecule, acceptor atom, score
      L1  H     5    25       P1  7948  0.90
      L1  H     8    26       P1  7948  0.81
      P1  H  7989  7998       L1    15  0.07

> <Gold.Chemscore.Hbond.Weighted>
-6.9840

> <Gold.Chemscore.Metal.Weighted>
-0.0000

> <Gold.Chemscore.Lipo.Weighted>
-8.4740

> <Gold.Chemscore.Internal_Hbond.Weighted>
0.0000

> <Gold.Chemscore.DEClash.Weighted>
0.0021

> <Gold.Chemscore.DEInternal.Weighted>
1.5550

> <Gold.Chemscore.Rot.Weighted>
3.8242

> <Gold.Chemscore.Internal.Correction.Weighted>
   9.000000E+99

> <Gold.Protein.RotatedTorsions>
[ 6907 6896 6895 6894 ] final   75.60 input  -60.11 | X-H torsion
[ 7974 7965 7964 7962 ] final   48.41 input  175.53 | X-H torsion
[ 8008 7997 7996 7995 ] final -100.96 input   59.86 | X-H torsion
[ 10167 10162 10161 10158 ] final  152.01 input  -65.29 | X-H torsion
[ 10718 10713 10712 10709 ] final  -82.89 input   66.30 | X-H torsion
[ 10763 10752 10751 10750 ] final   82.69 input  -60.55 | X-H torsion
[ 11005 11000 10999 10996 ] final -167.61 input  -57.11 | X-H torsion

> <Gold.Protein.ActiveResidues>
 VAL166  LYS551  ARG553  GLY616  TRP617  ASP618  TYR619  PRO620  LYS621  CYS622 
 ASP623  PHE694  ASN695  SER759  ASP760  ASP761  ALA762  ILE779  LEU786  VAL792 
 PHE793  MET794  SER795  GLU796  ALA797  LYS798  CYS799  TRP800  GLU811  SER814 

> <Gold.Protein.RotatedAtoms>
  152.5033  134.4096  159.9443 H   0  0  0  0  0  0  0  0  0  0  0  0  # atno 6907 bound_to 6896
  151.4063  133.3735  159.2746 H   0  0  0  0  0  0  0  0  0  0  0  0  # atno 6908 bound_to 6896
  150.9324  134.8760  159.7619 H   0  0  0  0  0  0  0  0  0  0  0  0  # atno 6909 bound_to 6896
  146.0206  139.4647  142.9899 H   0  0  0  0  0  0  0  0  0  0  0  0  # atno 7974 bound_to 7965
  154.8359  140.0437  157.1509 H   0  0  0  0  0  0  0  0  0  0  0  0  # atno 8008 bound_to 7997
  154.9100  140.3012  155.5251 H   0  0  0  0  0  0  0  0  0  0  0  0  # atno 8009 bound_to 7997
  156.2990  140.2360  156.4138 H   0  0  0  0  0  0  0  0  0  0  0  0  # atno 8010 bound_to 7997
  139.4836  144.5394  151.7591 H   0  0  0  0  0  0  0  0  0  0  0  0  # atno 10167 bound_to 10162
  156.0026  130.4648  150.4174 H   0  0  0  0  0  0  0  0  0  0  0  0  # atno 10718 bound_to 10713
  153.1224  135.4719  154.9218 H   0  0  0  0  0  0  0  0  0  0  0  0  # atno 10763 bound_to 10752
  154.7588  135.3126  154.8420 H   0  0  0  0  0  0  0  0  0  0  0  0  # atno 10764 bound_to 10752
  153.8981  135.6878  153.4810 H   0  0  0  0  0  0  0  0  0  0  0  0  # atno 10765 bound_to 10752
  140.5513  134.5426  157.5123 H   0  0  0  0  0  0  0  0  0  0  0  0  # atno 11005 bound_to 11000
  145.7199  141.0078  143.1408 LP  0  0  0  0  0  0  0  0  0  0  0  0  # atno 17320 bound_to 7965
  144.6988  139.8857  143.7450 LP  0  0  0  0  0  0  0  0  0  0  0  0  # atno 17321 bound_to 7965
  140.4931  144.1281  150.5954 LP  0  0  0  0  0  0  0  0  0  0  0  0  # atno 17342 bound_to 10162
  140.4148  143.2639  151.9788 LP  0  0  0  0  0  0  0  0  0  0  0  0  # atno 17343 bound_to 10162
  157.2233  131.0487  151.2534 LP  0  0  0  0  0  0  0  0  0  0  0  0  # atno 17370 bound_to 10713
  157.3780  130.7216  149.6610 LP  0  0  0  0  0  0  0  0  0  0  0  0  # atno 17371 bound_to 10713
  139.9454  134.7712  156.0575 LP  0  0  0  0  0  0  0  0  0  0  0  0  # atno 17394 bound_to 11000
  141.1170  133.6624  156.3119 LP  0  0  0  0  0  0  0  0  0  0  0  0  # atno 17395 bound_to 11000

$$$$
