AV-unprocessed.smi:107|AV-procd|sdf|1020|dock1
  -GOLD-   2262018 23D 1   1.00000     0.00000
 Structure written by MMmdl.
 31 32  0  0  0  0  0  0  0  0  1 V2000
  149.8635  144.2070  159.7938 C   0  0  0  0  0  0  0  0  0  0  0  0
  150.6663  143.0459  159.2304 C   0  0  0  0  0  0  0  0  0  0  0  0
  150.5400  142.6297  157.9440 C   0  0  0  0  0  0  0  0  0  0  0  0
  151.2573  141.5685  157.4024 N   0  0  0  0  0  0  0  0  0  0  0  0
  151.1092  141.1255  155.9582 C   0  0  1  0  0  0  0  0  0  0  0  0
  150.6297  139.6628  155.8777 C   0  0  0  0  0  0  0  0  0  0  0  0
  149.3772  139.7497  155.0220 C   0  0  2  0  0  0  0  0  0  0  0  0
  149.6826  139.4991  153.6623 O   0  0  0  0  0  0  0  0  0  0  0  0
  148.9125  141.1918  155.2499 C   0  0  2  0  0  0  0  0  0  0  0  0
  147.9873  141.7732  154.1675 C   0  0  0  0  0  0  0  0  0  0  0  0
  147.6330  143.0990  154.4982 O   0  0  0  0  0  0  0  0  0  0  0  0
  150.1438  141.9031  155.3133 O   0  0  0  0  0  0  0  0  0  0  0  0
  152.1938  140.8903  158.2103 C   0  0  0  0  0  0  0  0  0  0  0  0
  152.8808  139.9587  157.7928 O   0  0  0  0  0  0  0  0  0  0  0  0
  152.3212  141.3148  159.5309 N   0  0  0  0  0  0  0  0  0  0  0  0
  151.6092  142.3620  160.1196 C   0  0  0  0  0  0  0  0  0  0  0  0
  151.8071  142.6427  161.3006 O   0  0  0  0  0  0  0  0  0  0  0  0
  152.9868  140.8259  160.1115 H   0  0  0  0  0  0  0  0  0  0  0  0
  149.2252  144.6635  159.0368 H   0  0  0  0  0  0  0  0  0  0  0  0
  150.5287  144.9805  160.1791 H   0  0  0  0  0  0  0  0  0  0  0  0
  149.2248  143.8666  160.6094 H   0  0  0  0  0  0  0  0  0  0  0  0
  149.8400  143.1675  157.3232 H   0  0  0  0  0  0  0  0  0  0  0  0
  152.0827  141.3021  155.4969 H   0  0  0  0  0  0  0  0  0  0  0  0
  151.4040  139.0182  155.4599 H   0  0  0  0  0  0  0  0  0  0  0  0
  150.3759  139.2972  156.8739 H   0  0  0  0  0  0  0  0  0  0  0  0
  148.6221  139.0301  155.3401 H   0  0  0  0  0  0  0  0  0  0  0  0
  149.5100  140.2833  153.1643 H   0  0  0  0  0  0  0  0  0  0  0  0
  148.4218  141.2363  156.2241 H   0  0  0  0  0  0  0  0  0  0  0  0
  148.4552  141.7409  153.1831 H   0  0  0  0  0  0  0  0  0  0  0  0
  147.0652  141.1940  154.1108 H   0  0  0  0  0  0  0  0  0  0  0  0
  147.4298  143.1351  155.4205 H   0  0  0  0  0  0  0  0  0  0  0  0
  1  2  1  0  0  0  0
  1 19  1  0  0  0  0
  1 20  1  0  0  0  0
  1 21  1  0  0  0  0
  2 16  1  0  0  0  0
  2  3  2  0  0  0  0
  3  4  1  0  0  0  0
  3 22  1  0  0  0  0
  4  5  1  0  0  0  0
  4 13  1  0  0  0  0
  5 12  1  0  0  0  0
  5  6  1  0  0  0  0
  5 23  1  0  0  0  0
  6  7  1  0  0  0  0
  6 24  1  0  0  0  0
  6 25  1  0  0  0  0
  7  8  1  0  0  0  0
  7  9  1  0  0  0  0
  7 26  1  0  0  0  0
  8 27  1  0  0  0  0
  9 10  1  0  0  0  0
  9 12  1  0  0  0  0
  9 28  1  0  0  0  0
 10 11  1  0  0  0  0
 10 29  1  0  0  0  0
 10 30  1  0  0  0  0
 11 31  1  0  0  0  0
 13 14  2  0  0  0  0
 13 15  1  0  0  0  0
 15 18  1  0  0  0  0
 15 16  1  0  0  0  0
 16 17  2  0  0  0  0
M  END
> <s_m_source_file>
AV-unprocessed.smi

> <i_m_source_file_index>
107

> <i_lp_mmshare_version>
43012

> <i_f3d_flags>
0

> <s_epik_input>
Tz1jMVtuSF1jKD1PKW4oW2NIXWMxW0NIM10pW0NAQEhdMltDSDJdW0NAQEhdKFtPSF0pW0NASF0oTzIpW0NIMl1bT0hd

> <s_epik_cmdline>
J2VwaWtfcHl0aG9uJywgJy1waCcsICc3LjAnLCAnLXRuJywgJzgnLCAnLW1hJywgJzIwMCcsICctbWV0YWxfYmluZGluZycsICctaW1hZScsICc8aW5maWxlLm1hZT4nLCAnLW9tYWUnLCAnPG91dGZpbGUubWFlPic=

> <r_lp_tautomer_probability>
0.999537

> <r_epik_Ionization_Penalty>
0.00121888

> <r_epik_Ionization_Penalty_Charging>
0.00121876

> <r_epik_Ionization_Penalty_Neutral>
1.19946e-07

> <r_epik_State_Penalty>
0.000805124

> <r_epik_Charging_Adjusted_Penalty>
0.00202389

> <i_epik_Tot_Q>
0

> <i_epik_Tot_abs_Q>
0

> <r_epik_Metal_State_Penalty>
0.662472

> <b_epik_Metal_Only>
0

> <s_epik_Chemistry_Notes>
This compound contains an acetal/aminal-like group ( X-CH(R)-Y where X, Y are N, S, or O) that may be acid/base labile, releasing an aldehyde.

> <s_lp_Force_Field>
OPLS_2005

> <r_lp_Energy>
28.0991

> <b_lp_Chiralities_Consistent>
1

> <s_lp_Variant>
AV-unprocessed.smi:107-8

> <Gold.Version>
5.8.1

> <Gold.Id.Protein>
6NUR|6NUR_protein|mol2

> <Gold.PLP.Fitness>
40.7757

> <Gold.PLP.PLP>
-29.3354

> <Gold.PLP.part.hbond>
-5.8955

> <Gold.PLP.part.metal>
0.0000

> <Gold.PLP.part.buried>
-1.5870

> <Gold.PLP.part.nonpolar>
-21.1432

> <Gold.PLP.part.repulsive>
0.3127

> <Gold.PLP.ligand.clash>
0.0000

> <Gold.PLP.ligand.torsion>
0.0075

> <Gold.PLP.Chemscore.Hbond>
2.8148

> <Gold.PLP.Chemscore.CHOScore>
1.0000

> <Gold.PLP.Chemscore.Metal>
0.0000

> <Gold.Chemscore.Hbonds>
donor molecule, donor type, donor heavy atom, donor atom, acceptor molecule, acceptor atom, score
      L1  H     8    27       P1  7957  0.29
      P1  H  6933  6945       L1    17  0.33
      P1  H  7997  8008       L1    14  1.00
      P1  H  8022  8030       L1    11  0.69
      L1  C     3    22       P1  8028  1.00

> <Gold.PLP.Chemscore.Internal.Correction>
0.0111

> <Gold.Rescore>
     Score         DG    S(hbond)    S(metal)    S(lipo)     H(rot)  DE(clash)    DE(int)     intcor
      9.78     -11.27       2.21        0.00      45.93       2.73       1.32       0.17       ----

> <Gold.Chemscore.Fitness>
9.7818

> <Gold.Chemscore.DG>
-11.2706

> <Gold.Chemscore.ZeroCoef>
-5.4800

> <Gold.Chemscore.Hbond>
2.2137

> <Gold.Chemscore.Metal>
0.0000

> <Gold.Chemscore.Lipo>
45.9279

> <Gold.Chemscore.Internal_Hbond>
0.0000

> <Gold.Chemscore.DEClash>
1.3156

> <Gold.Chemscore.DEInternal>
0.1732

> <Gold.Chemscore.Rot>
2.7253

> <Gold.Chemscore.Internal.Correction>
   9.000000E+99

> <Gold.Chemscore.Hbonds>
donor molecule, donor type, donor heavy atom, donor atom, acceptor molecule, acceptor atom, score
      L1  H     8    27       P1  7957  0.28
      P1  H  6933  6945       L1    17  0.10
      P1  H  7997  8008       L1    14  0.97
      P1  H  8022  8030       L1    11  0.63

> <Gold.Chemscore.Hbond.Weighted>
-7.3938

> <Gold.Chemscore.Metal.Weighted>
-0.0000

> <Gold.Chemscore.Lipo.Weighted>
-5.3736

> <Gold.Chemscore.Internal_Hbond.Weighted>
0.0000

> <Gold.Chemscore.DEClash.Weighted>
1.3156

> <Gold.Chemscore.DEInternal.Weighted>
0.1732

> <Gold.Chemscore.Rot.Weighted>
6.9769

> <Gold.Chemscore.Internal.Correction.Weighted>
   9.000000E+99

> <Gold.Protein.RotatedTorsions>
[ 6907 6896 6895 6894 ] final   -0.38 input  -60.11 | X-H torsion
[ 7974 7965 7964 7962 ] final -127.55 input  175.53 | X-H torsion
[ 8008 7997 7996 7995 ] final  -64.05 input   59.86 | X-H torsion
[ 10167 10162 10161 10158 ] final  170.98 input  -65.29 | X-H torsion
[ 10718 10713 10712 10709 ] final    9.27 input   66.30 | X-H torsion
[ 10763 10752 10751 10750 ] final -164.18 input  -60.55 | X-H torsion
[ 11005 11000 10999 10996 ] final   54.15 input  -57.11 | X-H torsion

> <Gold.Protein.ActiveResidues>
 VAL166  LYS551  ARG553  GLY616  TRP617  ASP618  TYR619  PRO620  LYS621  CYS622 
 ASP623  PHE694  ASN695  SER759  ASP760  ASP761  ALA762  ILE779  LEU786  VAL792 
 PHE793  MET794  SER795  GLU796  ALA797  LYS798  CYS799  TRP800  GLU811  SER814 

> <Gold.Protein.RotatedAtoms>
  151.5631  135.1065  159.9977 H   0  0  0  0  0  0  0  0  0  0  0  0  # atno 6907 bound_to 6896
  152.4437  133.7491  159.6695 H   0  0  0  0  0  0  0  0  0  0  0  0  # atno 6908 bound_to 6896
  150.8347  133.7964  159.3108 H   0  0  0  0  0  0  0  0  0  0  0  0  # atno 6909 bound_to 6896
  144.9760  140.7593  143.4641 H   0  0  0  0  0  0  0  0  0  0  0  0  # atno 7974 bound_to 7965
  154.4589  140.0962  156.6838 H   0  0  0  0  0  0  0  0  0  0  0  0  # atno 8008 bound_to 7997
  155.5053  140.3475  155.4360 H   0  0  0  0  0  0  0  0  0  0  0  0  # atno 8009 bound_to 7997
  156.0833  140.1378  156.9674 H   0  0  0  0  0  0  0  0  0  0  0  0  # atno 8010 bound_to 7997
  139.5033  144.3537  151.9896 H   0  0  0  0  0  0  0  0  0  0  0  0  # atno 10167 bound_to 10162
  156.9638  130.5943  149.5664 H   0  0  0  0  0  0  0  0  0  0  0  0  # atno 10718 bound_to 10713
  154.7052  135.2995  154.9281 H   0  0  0  0  0  0  0  0  0  0  0  0  # atno 10763 bound_to 10752
  154.0200  135.6684  153.4776 H   0  0  0  0  0  0  0  0  0  0  0  0  # atno 10764 bound_to 10752
  153.0712  135.5060  154.8219 H   0  0  0  0  0  0  0  0  0  0  0  0  # atno 10765 bound_to 10752
  140.0709  134.5470  155.9047 H   0  0  0  0  0  0  0  0  0  0  0  0  # atno 11005 bound_to 11000
  145.2490  139.2039  143.4952 LP  0  0  0  0  0  0  0  0  0  0  0  0  # atno 17320 bound_to 7965
  146.3395  140.2400  142.8595 LP  0  0  0  0  0  0  0  0  0  0  0  0  # atno 17321 bound_to 7965
  140.2974  144.3686  150.6070 LP  0  0  0  0  0  0  0  0  0  0  0  0  # atno 17342 bound_to 10162
  140.5900  143.2168  151.7270 LP  0  0  0  0  0  0  0  0  0  0  0  0  # atno 17343 bound_to 10162
  156.0311  130.5402  150.8536 LP  0  0  0  0  0  0  0  0  0  0  0  0  # atno 17370 bound_to 10713
  157.5640  131.0946  150.9518 LP  0  0  0  0  0  0  0  0  0  0  0  0  # atno 17371 bound_to 10713
  141.2011  133.6617  156.5935 LP  0  0  0  0  0  0  0  0  0  0  0  0  # atno 17394 bound_to 11000
  140.3628  134.7673  157.4545 LP  0  0  0  0  0  0  0  0  0  0  0  0  # atno 17395 bound_to 11000

$$$$
