AV-unprocessed.smi:3343|AV-procd|sdf|12893|dock7
  -GOLD-   2272019303D 1   1.00000     0.00000
 Structure written by MMmdl.
 41 42  0  0  0  0  0  0  0  0  1 V2000
  148.7347  140.6710  154.4085 C   0  0  0  0  0  0  0  0  0  0  0  0
  148.9056  139.1783  154.0600 C   0  0  2  0  0  0  0  0  0  0  0  0
  147.8493  138.2796  154.7239 C   0  0  0  0  0  0  0  0  0  0  0  0
  147.2608  138.6413  155.7433 O   0  0  0  0  0  0  0  0  0  0  0  0
  147.6434  137.0891  154.1402 N   0  0  0  0  0  0  0  0  0  0  0  0
  146.8401  136.0065  154.6940 C   0  0  0  0  0  0  0  0  0  0  0  0
  147.0998  134.6930  153.9337 C   0  0  0  0  0  0  0  0  0  0  0  0
  146.3437  134.5238  152.6917 N   0  0  0  0  0  0  0  0  0  0  0  0
  146.8678  133.3985  151.9155 C   0  0  0  0  0  0  0  0  0  0  0  0
  146.0977  133.2063  150.5958 C   0  0  0  0  0  0  0  0  0  0  0  0
  144.6762  132.9744  150.8405 N   0  0  0  0  0  0  0  0  0  0  0  0
  143.9438  132.7793  149.5989 C   0  0  0  0  0  0  0  0  0  0  0  0
  144.1413  134.0955  151.6088 C   0  0  0  0  0  0  0  0  0  0  0  0
  144.9136  134.2955  152.9253 C   0  0  0  0  0  0  0  0  0  0  0  0
  150.2435  138.6909  154.3791 N   0  0  0  0  0  0  0  0  0  0  0  0
  150.7408  137.4530  154.3277 C   0  0  0  0  0  0  0  0  0  0  0  0
  151.9920  137.3563  154.7550 N   0  0  0  0  0  0  0  0  0  0  0  0
  152.2215  138.6615  155.0856 C   0  0  0  0  0  0  0  0  0  0  0  0
  151.2048  139.5008  154.8900 N   0  0  0  0  0  0  0  0  0  0  0  0
  147.7518  141.0350  154.1082 H   0  0  0  0  0  0  0  0  0  0  0  0
  149.4787  141.2776  153.8913 H   0  0  0  0  0  0  0  0  0  0  0  0
  148.8434  140.8575  155.4779 H   0  0  0  0  0  0  0  0  0  0  0  0
  148.7769  139.0804  152.9807 H   0  0  0  0  0  0  0  0  0  0  0  0
  148.1575  136.8828  153.2964 H   0  0  0  0  0  0  0  0  0  0  0  0
  147.0071  135.8679  155.7637 H   0  0  0  0  0  0  0  0  0  0  0  0
  145.7939  136.2910  154.5766 H   0  0  0  0  0  0  0  0  0  0  0  0
  148.1612  134.6809  153.6825 H   0  0  0  0  0  0  0  0  0  0  0  0
  146.9470  133.8359  154.5921 H   0  0  0  0  0  0  0  0  0  0  0  0
  147.9222  133.5647  151.6916 H   0  0  0  0  0  0  0  0  0  0  0  0
  146.8152  132.4816  152.5046 H   0  0  0  0  0  0  0  0  0  0  0  0
  146.2309  134.0846  149.9619 H   0  0  0  0  0  0  0  0  0  0  0  0
  146.5200  132.3612  150.0513 H   0  0  0  0  0  0  0  0  0  0  0  0
  142.8897  132.5858  149.7998 H   0  0  0  0  0  0  0  0  0  0  0  0
  144.3391  131.9256  149.0475 H   0  0  0  0  0  0  0  0  0  0  0  0
  144.0118  133.6593  148.9580 H   0  0  0  0  0  0  0  0  0  0  0  0
  144.1858  135.0110  151.0167 H   0  0  0  0  0  0  0  0  0  0  0  0
  143.0884  133.9196  151.8327 H   0  0  0  0  0  0  0  0  0  0  0  0
  144.7724  133.4272  153.5709 H   0  0  0  0  0  0  0  0  0  0  0  0
  144.4776  135.1481  153.4430 H   0  0  0  0  0  0  0  0  0  0  0  0
  150.1720  136.6026  153.9811 H   0  0  0  0  0  0  0  0  0  0  0  0
  153.1632  139.0024  155.4902 H   0  0  0  0  0  0  0  0  0  0  0  0
  1  2  1  0  0  0  0
  1 20  1  0  0  0  0
  1 21  1  0  0  0  0
  1 22  1  0  0  0  0
  2  3  1  0  0  0  0
  2 15  1  0  0  0  0
  2 23  1  0  0  0  0
  3  4  2  0  0  0  0
  3  5  1  0  0  0  0
  5  6  1  0  0  0  0
  5 24  1  0  0  0  0
  6  7  1  0  0  0  0
  6 25  1  0  0  0  0
  6 26  1  0  0  0  0
  7  8  1  0  0  0  0
  7 27  1  0  0  0  0
  7 28  1  0  0  0  0
  8 14  1  0  0  0  0
  8  9  1  0  0  0  0
  9 10  1  0  0  0  0
  9 29  1  0  0  0  0
  9 30  1  0  0  0  0
 10 11  1  0  0  0  0
 10 31  1  0  0  0  0
 10 32  1  0  0  0  0
 11 12  1  0  0  0  0
 11 13  1  0  0  0  0
 12 33  1  0  0  0  0
 12 34  1  0  0  0  0
 12 35  1  0  0  0  0
 13 14  1  0  0  0  0
 13 36  1  0  0  0  0
 13 37  1  0  0  0  0
 14 38  1  0  0  0  0
 14 39  1  0  0  0  0
 15 19  1  0  0  0  0
 15 16  1  0  0  0  0
 16 17  2  0  0  0  0
 16 40  1  0  0  0  0
 17 18  1  0  0  0  0
 18 19  2  0  0  0  0
 18 41  1  0  0  0  0
M  END
> <s_m_source_file>
AV-unprocessed.smi

> <i_m_source_file_index>
3343

> <i_lp_mmshare_version>
43012

> <i_f3d_flags>
0

> <s_epik_input>
bjFbY0hdbltjSF1uMVtDQEhdKFtDSDNdKUMoPU8pW05IXVtDSDJdW0NIMl1OMltDSDJdW0NIMl1OKFtDSDNdKVtDSDJdW0NIMl0y

> <s_epik_cmdline>
J2VwaWtfcHl0aG9uJywgJy1waCcsICc3LjAnLCAnLXRuJywgJzgnLCAnLW1hJywgJzIwMCcsICctbWV0YWxfYmluZGluZycsICctaW1hZScsICc8aW5maWxlLm1hZT4nLCAnLW9tYWUnLCAnPG91dGZpbGUubWFlPic=

> <r_lp_tautomer_probability>
1

> <r_epik_Ionization_Penalty>
1.97295

> <r_epik_Ionization_Penalty_Charging>
0

> <r_epik_Ionization_Penalty_Neutral>
1.97295

> <r_epik_State_Penalty>
1.8027

> <r_epik_Charging_Adjusted_Penalty>
1.8027

> <i_epik_Tot_Q>
0

> <i_epik_Tot_abs_Q>
0

> <r_epik_Metal_State_Penalty>
1.8027

> <b_epik_Metal_Only>
0

> <s_lp_Force_Field>
OPLS_2005

> <r_lp_Energy>
39.2202

> <b_lp_Chiralities_Consistent>
1

> <s_lp_Variant>
AV-unprocessed.smi:3343-3

> <Gold.Version>
5.8.1

> <Gold.Id.Protein>
6NUR|6NUR_protein|mol2

> <Gold.PLP.Fitness>
40.1202

> <Gold.PLP.PLP>
-30.5908

> <Gold.PLP.part.hbond>
-3.0000

> <Gold.PLP.part.metal>
0.0000

> <Gold.PLP.part.buried>
-4.3802

> <Gold.PLP.part.nonpolar>
-24.3334

> <Gold.PLP.part.repulsive>
0.3641

> <Gold.PLP.ligand.clash>
0.0000

> <Gold.PLP.ligand.torsion>
0.9211

> <Gold.PLP.Chemscore.Hbond>
2.8320

> <Gold.PLP.Chemscore.CHOScore>
0.9159

> <Gold.PLP.Chemscore.Metal>
0.0000

> <Gold.Chemscore.Hbonds>
donor molecule, donor type, donor heavy atom, donor atom, acceptor molecule, acceptor atom, score
      L1  H     5    24       P1  7948  1.00
      P1  H  7989  7998       L1    19  1.00
      P1  H 10752 10765       L1    17  0.90
      L1  C    16    40       P1  7948  0.91
      L1  C    16    40       P1  7949  0.04

> <Gold.PLP.Chemscore.Internal.Correction>
0.1277

> <Gold.Rescore>
     Score         DG    S(hbond)    S(metal)    S(lipo)     H(rot)  DE(clash)    DE(int)     intcor
     12.35     -13.71       2.70        0.00      49.09       2.56       0.53       0.83       ----

> <Gold.Chemscore.Fitness>
12.3504

> <Gold.Chemscore.DG>
-13.7104

> <Gold.Chemscore.ZeroCoef>
-5.4800

> <Gold.Chemscore.Hbond>
2.7049

> <Gold.Chemscore.Metal>
0.0000

> <Gold.Chemscore.Lipo>
49.0912

> <Gold.Chemscore.Internal_Hbond>
0.0000

> <Gold.Chemscore.DEClash>
0.5344

> <Gold.Chemscore.DEInternal>
0.8257

> <Gold.Chemscore.Rot>
2.5577

> <Gold.Chemscore.Internal.Correction>
   9.000000E+99

> <Gold.Chemscore.Hbonds>
donor molecule, donor type, donor heavy atom, donor atom, acceptor molecule, acceptor atom, score
      L1  H     5    24       P1  7948  1.00
      P1  H  7989  7998       L1    19  0.46
      P1  H 10752 10765       L1    17  0.80

> <Gold.Chemscore.Hbond.Weighted>
-9.0344

> <Gold.Chemscore.Metal.Weighted>
-0.0000

> <Gold.Chemscore.Lipo.Weighted>
-5.7437

> <Gold.Chemscore.Internal_Hbond.Weighted>
0.0000

> <Gold.Chemscore.DEClash.Weighted>
0.5344

> <Gold.Chemscore.DEInternal.Weighted>
0.8257

> <Gold.Chemscore.Rot.Weighted>
6.5477

> <Gold.Chemscore.Internal.Correction.Weighted>
   9.000000E+99

> <Gold.Protein.RotatedTorsions>
[ 6907 6896 6895 6894 ] final  128.37 input  -60.11 | X-H torsion
[ 7974 7965 7964 7962 ] final   52.27 input  175.53 | X-H torsion
[ 8008 7997 7996 7995 ] final   77.57 input   59.86 | X-H torsion
[ 10167 10162 10161 10158 ] final   -7.82 input  -65.29 | X-H torsion
[ 10718 10713 10712 10709 ] final  140.97 input   66.30 | X-H torsion
[ 10763 10752 10751 10750 ] final  166.04 input  -60.55 | X-H torsion
[ 11005 11000 10999 10996 ] final  -74.26 input  -57.11 | X-H torsion

> <Gold.Protein.ActiveResidues>
 VAL166  LYS551  ARG553  GLY616  TRP617  ASP618  TYR619  PRO620  LYS621  CYS622 
 ASP623  PHE694  ASN695  SER759  ASP760  ASP761  ALA762  ILE779  LEU786  VAL792 
 PHE793  MET794  SER795  GLU796  ALA797  LYS798  CYS799  TRP800  GLU811  SER814 

> <Gold.Protein.RotatedAtoms>
  152.3725  133.6438  159.6097 H   0  0  0  0  0  0  0  0  0  0  0  0  # atno 6907 bound_to 6896
  150.7679  133.9247  159.3417 H   0  0  0  0  0  0  0  0  0  0  0  0  # atno 6908 bound_to 6896
  151.7067  135.0921  160.0311 H   0  0  0  0  0  0  0  0  0  0  0  0  # atno 6909 bound_to 6896
  145.9831  139.4262  143.0120 H   0  0  0  0  0  0  0  0  0  0  0  0  # atno 7974 bound_to 7965
  155.8435  140.3461  155.5647 H   0  0  0  0  0  0  0  0  0  0  0  0  # atno 8008 bound_to 7997
  155.8115  140.0899  157.1921 H   0  0  0  0  0  0  0  0  0  0  0  0  # atno 8009 bound_to 7997
  154.4005  140.1447  156.3380 H   0  0  0  0  0  0  0  0  0  0  0  0  # atno 8010 bound_to 7997
  140.7040  143.6038  150.8771 H   0  0  0  0  0  0  0  0  0  0  0  0  # atno 10167 bound_to 10162
  157.3973  131.1012  151.0587 H   0  0  0  0  0  0  0  0  0  0  0  0  # atno 10718 bound_to 10713
  154.3331  135.2754  155.2461 H   0  0  0  0  0  0  0  0  0  0  0  0  # atno 10763 bound_to 10752
  154.4765  135.5869  153.6362 H   0  0  0  0  0  0  0  0  0  0  0  0  # atno 10764 bound_to 10752
  152.9864  135.6101  154.3525 H   0  0  0  0  0  0  0  0  0  0  0  0  # atno 10765 bound_to 10752
  141.1633  133.6905  156.7337 H   0  0  0  0  0  0  0  0  0  0  0  0  # atno 11005 bound_to 11000
  145.7741  140.9884  143.1134 LP  0  0  0  0  0  0  0  0  0  0  0  0  # atno 17320 bound_to 7965
  144.6867  139.9483  143.7477 LP  0  0  0  0  0  0  0  0  0  0  0  0  # atno 17321 bound_to 7965
  139.9762  143.6002  152.2958 LP  0  0  0  0  0  0  0  0  0  0  0  0  # atno 17342 bound_to 10162
  139.6606  144.7662  151.1970 LP  0  0  0  0  0  0  0  0  0  0  0  0  # atno 17343 bound_to 10162
  157.1599  130.6221  149.5607 LP  0  0  0  0  0  0  0  0  0  0  0  0  # atno 17370 bound_to 10713
  155.9814  130.4821  150.6824 LP  0  0  0  0  0  0  0  0  0  0  0  0  # atno 17371 bound_to 10713
  140.2726  134.8380  157.3861 LP  0  0  0  0  0  0  0  0  0  0  0  0  # atno 17394 bound_to 11000
  140.1507  134.4853  155.7963 LP  0  0  0  0  0  0  0  0  0  0  0  0  # atno 17395 bound_to 11000

$$$$
