AV-unprocessed.smi:1705|AV-procd|sdf|6884|dock6
  -GOLD-   22720 8 93D 1   1.00000     0.00000
 Structure written by MMmdl.
 38 39  0  0  0  0  0  0  0  0  1 V2000
  154.8629  140.6095  160.3737 C   0  0  0  0  0  0  0  0  0  0  0  0
  153.3504  140.5913  160.1122 C   0  0  2  0  0  0  0  0  0  0  0  0
  153.0818  140.9493  158.7253 N   0  0  0  0  0  0  0  0  0  0  0  0
  152.8299  140.1762  157.5917 C   0  0  0  0  0  0  0  0  0  0  0  0
  152.7781  138.8106  157.6061 C   0  0  0  0  0  0  0  0  0  0  0  0
  152.9331  138.0001  158.7730 C   0  0  0  0  0  0  0  0  0  0  0  0
  153.0081  137.3229  159.7101 N   0  0  0  0  0  0  0  0  0  0  0  0
  152.5212  138.0313  156.3950 C   0  0  0  0  0  0  0  0  0  0  0  0
  152.4421  136.8004  156.3775 O   0  0  0  0  0  0  0  0  0  0  0  0
  152.3551  138.7930  155.2214 N   0  0  0  0  0  0  0  0  0  0  0  0
  152.0881  138.0696  153.9930 C   0  0  0  0  0  0  0  0  0  0  0  0
  152.3795  140.2004  155.1807 C   0  0  0  0  0  0  0  0  0  0  0  0
  152.1983  140.8176  154.1263 O   0  0  0  0  0  0  0  0  0  0  0  0
  152.6113  140.8809  156.4012 N   0  0  0  0  0  0  0  0  0  0  0  0
  152.6167  142.3275  156.2845 C   0  0  0  0  0  0  0  0  0  0  0  0
  152.5862  141.5135  161.0860 C   0  0  1  0  0  0  0  0  0  0  0  0
  153.2221  141.7085  162.4680 C   0  0  0  0  0  0  0  0  0  0  0  0
  152.6911  143.0679  162.8620 C   0  0  0  0  0  0  0  0  0  0  0  0
  152.7280  143.8054  161.5282 C   0  0  0  0  0  0  0  0  0  0  0  0
  152.4302  142.8225  160.5419 O   0  0  0  0  0  0  0  0  0  0  0  0
  155.0855  140.3277  161.4032 H   0  0  0  0  0  0  0  0  0  0  0  0
  155.2897  141.5976  160.1990 H   0  0  0  0  0  0  0  0  0  0  0  0
  155.3803  139.9055  159.7211 H   0  0  0  0  0  0  0  0  0  0  0  0
  153.0391  139.5660  160.2912 H   0  0  0  0  0  0  0  0  0  0  0  0
  153.3336  141.9065  158.5251 H   0  0  0  0  0  0  0  0  0  0  0  0
  152.3632  138.6724  153.1270 H   0  0  0  0  0  0  0  0  0  0  0  0
  151.0227  137.8344  153.9893 H   0  0  0  0  0  0  0  0  0  0  0  0
  152.6975  137.1645  153.9756 H   0  0  0  0  0  0  0  0  0  0  0  0
  153.4978  142.6004  155.7016 H   0  0  0  0  0  0  0  0  0  0  0  0
  152.6518  142.7974  157.2644 H   0  0  0  0  0  0  0  0  0  0  0  0
  151.6921  142.6302  155.7889 H   0  0  0  0  0  0  0  0  0  0  0  0
  151.5775  141.1216  161.2263 H   0  0  0  0  0  0  0  0  0  0  0  0
  152.9512  140.9236  163.1744 H   0  0  0  0  0  0  0  0  0  0  0  0
  154.3102  141.7470  162.4056 H   0  0  0  0  0  0  0  0  0  0  0  0
  151.6638  142.9824  163.2181 H   0  0  0  0  0  0  0  0  0  0  0  0
  153.2852  143.5547  163.6357 H   0  0  0  0  0  0  0  0  0  0  0  0
  152.0257  144.6384  161.4884 H   0  0  0  0  0  0  0  0  0  0  0  0
  153.7287  144.1951  161.3373 H   0  0  0  0  0  0  0  0  0  0  0  0
  1  2  1  0  0  0  0
  1 21  1  0  0  0  0
  1 22  1  0  0  0  0
  1 23  1  0  0  0  0
  2  3  1  0  0  0  0
  2 16  1  0  0  0  0
  2 24  1  0  0  0  0
  3  4  1  0  0  0  0
  3 25  1  0  0  0  0
  4 14  1  0  0  0  0
  4  5  2  0  0  0  0
  5  6  1  0  0  0  0
  5  8  1  0  0  0  0
  6  7  3  0  0  0  0
  8  9  2  0  0  0  0
  8 10  1  0  0  0  0
 10 11  1  0  0  0  0
 10 12  1  0  0  0  0
 11 26  1  0  0  0  0
 11 27  1  0  0  0  0
 11 28  1  0  0  0  0
 12 13  2  0  0  0  0
 12 14  1  0  0  0  0
 14 15  1  0  0  0  0
 15 29  1  0  0  0  0
 15 30  1  0  0  0  0
 15 31  1  0  0  0  0
 16 20  1  0  0  0  0
 16 17  1  0  0  0  0
 16 32  1  0  0  0  0
 17 18  1  0  0  0  0
 17 33  1  0  0  0  0
 17 34  1  0  0  0  0
 18 19  1  0  0  0  0
 18 35  1  0  0  0  0
 18 36  1  0  0  0  0
 19 20  1  0  0  0  0
 19 37  1  0  0  0  0
 19 38  1  0  0  0  0
M  END
> <s_m_source_file>
AV-unprocessed.smi

> <i_m_source_file_index>
1705

> <i_lp_mmshare_version>
43012

> <i_f3d_flags>
0

> <s_epik_input>
TzFbQ0gyXVtDSDJdW0NIMl1bQ0BIXTFbQ0BIXShbQ0gzXSlbTkhdYzJjKEMjTiljKD1PKW4oW0NIM10pYyg9TyluMltDSDNd

> <s_epik_cmdline>
J2VwaWtfcHl0aG9uJywgJy1waCcsICc3LjAnLCAnLXRuJywgJzgnLCAnLW1hJywgJzIwMCcsICctbWV0YWxfYmluZGluZycsICctaW1hZScsICc8aW5maWxlLm1hZT4nLCAnLW9tYWUnLCAnPG91dGZpbGUubWFlPic=

> <r_epik_Ionization_Penalty>
0.000446268

> <r_epik_Ionization_Penalty_Charging>
9.41922e-10

> <r_epik_Ionization_Penalty_Neutral>
0.000446267

> <r_epik_State_Penalty>
0.000275531

> <r_epik_Charging_Adjusted_Penalty>
0.000275532

> <i_epik_Tot_Q>
0

> <i_epik_Tot_abs_Q>
0

> <r_epik_Metal_State_Penalty>
-0

> <b_epik_Metal_Only>
0

> <s_lp_Force_Field>
OPLS_2005

> <r_lp_Energy>
40.5078

> <b_lp_Chiralities_Consistent>
1

> <s_lp_Variant>
AV-unprocessed.smi:1705-3

> <Gold.Version>
5.8.1

> <Gold.Id.Protein>
6NUR|6NUR_protein|mol2

> <Gold.PLP.Fitness>
42.7281

> <Gold.PLP.PLP>
-38.7728

> <Gold.PLP.part.hbond>
-2.3592

> <Gold.PLP.part.metal>
0.0000

> <Gold.PLP.part.buried>
-4.0661

> <Gold.PLP.part.nonpolar>
-32.9688

> <Gold.PLP.part.repulsive>
0.2561

> <Gold.PLP.ligand.clash>
1.7701

> <Gold.PLP.ligand.torsion>
1.0060

> <Gold.PLP.Chemscore.Hbond>
1.9833

> <Gold.PLP.Chemscore.CHOScore>
0.0000

> <Gold.PLP.Chemscore.Metal>
0.0000

> <Gold.Chemscore.Hbonds>
donor molecule, donor type, donor heavy atom, donor atom, acceptor molecule, acceptor atom, score
      P1  H 10752 10763       L1     9  1.00

> <Gold.PLP.Chemscore.Internal.Correction>
1.7873

> <Gold.Rescore>
     Score         DG    S(hbond)    S(metal)    S(lipo)     H(rot)  DE(clash)    DE(int)     intcor
     13.13     -15.51       0.96        0.00      86.38       1.28       0.23       2.15       ----

> <Gold.Chemscore.Fitness>
13.1282

> <Gold.Chemscore.DG>
-15.5127

> <Gold.Chemscore.ZeroCoef>
-5.4800

> <Gold.Chemscore.Hbond>
0.9574

> <Gold.Chemscore.Metal>
0.0000

> <Gold.Chemscore.Lipo>
86.3805

> <Gold.Chemscore.Internal_Hbond>
0.0000

> <Gold.Chemscore.DEClash>
0.2308

> <Gold.Chemscore.DEInternal>
2.1536

> <Gold.Chemscore.Rot>
1.2780

> <Gold.Chemscore.Internal.Correction>
   9.000000E+99

> <Gold.Chemscore.Hbonds>
donor molecule, donor type, donor heavy atom, donor atom, acceptor molecule, acceptor atom, score
      P1  H  6896  6908       L1     7  0.02
      P1  H 10752 10763       L1     9  0.92

> <Gold.Chemscore.Hbond.Weighted>
-3.1978

> <Gold.Chemscore.Metal.Weighted>
-0.0000

> <Gold.Chemscore.Lipo.Weighted>
-10.1065

> <Gold.Chemscore.Internal_Hbond.Weighted>
0.0000

> <Gold.Chemscore.DEClash.Weighted>
0.2308

> <Gold.Chemscore.DEInternal.Weighted>
2.1536

> <Gold.Chemscore.Rot.Weighted>
3.2717

> <Gold.Chemscore.Internal.Correction.Weighted>
   9.000000E+99

> <Gold.Protein.RotatedTorsions>
[ 6907 6896 6895 6894 ] final  -99.46 input  -60.11 | X-H torsion
[ 7974 7965 7964 7962 ] final   68.42 input  175.53 | X-H torsion
[ 8008 7997 7996 7995 ] final -134.38 input   59.86 | X-H torsion
[ 10167 10162 10161 10158 ] final   54.31 input  -65.29 | X-H torsion
[ 10718 10713 10712 10709 ] final -115.78 input   66.30 | X-H torsion
[ 10763 10752 10751 10750 ] final   90.36 input  -60.55 | X-H torsion
[ 11005 11000 10999 10996 ] final  128.00 input  -57.11 | X-H torsion

> <Gold.Protein.ActiveResidues>
 VAL166  LYS551  ARG553  GLY616  TRP617  ASP618  TYR619  PRO620  LYS621  CYS622 
 ASP623  PHE694  ASN695  SER759  ASP760  ASP761  ALA762  ILE779  LEU786  VAL792 
 PHE793  MET794  SER795  GLU796  ALA797  LYS798  CYS799  TRP800  GLU811  SER814 

> <Gold.Protein.RotatedAtoms>
  150.7081  134.1037  159.3974 H   0  0  0  0  0  0  0  0  0  0  0  0  # atno 6907 bound_to 6896
  151.9023  135.0371  160.0517 H   0  0  0  0  0  0  0  0  0  0  0  0  # atno 6908 bound_to 6896
  152.2404  133.5095  159.5303 H   0  0  0  0  0  0  0  0  0  0  0  0  # atno 6909 bound_to 6896
  145.8028  139.2991  143.1145 H   0  0  0  0  0  0  0  0  0  0  0  0  # atno 7974 bound_to 7965
  155.3612  140.0483  157.3046 H   0  0  0  0  0  0  0  0  0  0  0  0  # atno 8008 bound_to 7997
  154.5177  140.2214  155.8998 H   0  0  0  0  0  0  0  0  0  0  0  0  # atno 8009 bound_to 7997
  156.1655  140.3107  155.8887 H   0  0  0  0  0  0  0  0  0  0  0  0  # atno 8010 bound_to 7997
  140.2315  144.3681  150.6412 H   0  0  0  0  0  0  0  0  0  0  0  0  # atno 10167 bound_to 10162
  156.0918  130.6099  150.8950 H   0  0  0  0  0  0  0  0  0  0  0  0  # atno 10718 bound_to 10713
  153.1967  135.4437  155.0217 H   0  0  0  0  0  0  0  0  0  0  0  0  # atno 10763 bound_to 10752
  154.8123  135.3300  154.7274 H   0  0  0  0  0  0  0  0  0  0  0  0  # atno 10764 bound_to 10752
  153.7723  135.6984  153.4959 H   0  0  0  0  0  0  0  0  0  0  0  0  # atno 10765 bound_to 10752
  139.9537  134.9617  156.8938 H   0  0  0  0  0  0  0  0  0  0  0  0  # atno 11005 bound_to 11000
  145.9860  140.8643  143.0090 LP  0  0  0  0  0  0  0  0  0  0  0  0  # atno 17320 bound_to 7965
  144.6766  140.2148  143.7373 LP  0  0  0  0  0  0  0  0  0  0  0  0  # atno 17321 bound_to 7965
  140.6181  143.2174  151.6750 LP  0  0  0  0  0  0  0  0  0  0  0  0  # atno 17342 bound_to 10162
  139.5108  144.3530  152.0634 LP  0  0  0  0  0  0  0  0  0  0  0  0  # atno 17343 bound_to 10162
  157.6070  131.0938  150.8862 LP  0  0  0  0  0  0  0  0  0  0  0  0  # atno 17370 bound_to 10713
  156.9009  130.5246  149.5283 LP  0  0  0  0  0  0  0  0  0  0  0  0  # atno 17371 bound_to 10713
  140.5658  134.0491  155.7414 LP  0  0  0  0  0  0  0  0  0  0  0  0  # atno 17394 bound_to 11000
  141.1205  133.9469  157.2739 LP  0  0  0  0  0  0  0  0  0  0  0  0  # atno 17395 bound_to 11000

$$$$
