AV-unprocessed.smi:2819|AV-procd|sdf|10851|dock10
  -GOLD-   2272015293D 1   1.00000     0.00000
 Structure written by MMmdl.
 51 52  0  0  0  0  0  0  0  0  3 V2000
  141.3485  136.6604  153.2926 C   0  0  0  0  0  0  0  0  0  0  0  0
  141.9726  135.4516  152.7639 N   0  0  0  0  0  0  0  0  0  0  0  0
  141.2053  134.2163  152.6662 C   0  0  0  0  0  0  0  0  0  0  0  0
  143.3371  135.4659  152.3994 C   0  0  0  0  0  0  0  0  0  0  0  0
  143.9149  134.4518  151.6064 C   0  0  0  0  0  0  0  0  0  0  0  0
  145.2830  134.5696  151.3051 C   0  0  0  0  0  0  0  0  0  0  0  0
  146.0010  135.6206  151.7686 N   0  3  0  0  0  0  0  0  0  0  0  0
  145.4050  136.5599  152.5193 C   0  0  0  0  0  0  0  0  0  0  0  0
  146.2009  137.5958  152.9597 N   0  0  0  0  0  0  0  0  0  0  0  0
  146.2777  138.1827  154.1699 C   0  0  0  0  0  0  0  0  0  0  0  0
  145.5870  137.8930  155.1474 O   0  0  0  0  0  0  0  0  0  0  0  0
  147.2159  139.1424  154.1904 N   0  0  0  0  0  0  0  0  0  0  0  0
  147.5354  139.9942  155.3367 C   0  0  0  0  0  0  0  0  0  0  0  0
  148.0008  141.4291  154.9417 C   0  0  0  0  0  0  0  0  0  0  0  0
  148.9322  141.3767  153.7046 C   0  0  0  0  0  0  0  0  0  0  0  0
  146.7749  142.2768  154.5190 C   0  0  0  0  0  0  0  0  0  0  0  0
  148.7188  142.1061  156.0823 N   0  3  0  0  0  0  0  0  0  0  0  0
  147.9110  142.3331  157.3146 C   0  0  0  0  0  0  0  0  0  0  0  0
  148.6925  143.1875  158.3267 C   0  0  0  0  0  0  0  0  0  0  0  0
  149.9210  142.5490  158.6429 O   0  0  0  0  0  0  0  0  0  0  0  0
  150.7479  142.4080  157.4970 C   0  0  0  0  0  0  0  0  0  0  0  0
  150.0413  141.5260  156.4538 C   0  0  0  0  0  0  0  0  0  0  0  0
  144.1017  136.4936  152.8338 N   0  0  0  0  0  0  0  0  0  0  0  0
  141.8258  136.9615  154.2255 H   0  0  0  0  0  0  0  0  0  0  0  0
  140.2884  136.5054  153.4936 H   0  0  0  0  0  0  0  0  0  0  0  0
  141.4347  137.4806  152.5790 H   0  0  0  0  0  0  0  0  0  0  0  0
  141.6660  133.4304  153.2653 H   0  0  0  0  0  0  0  0  0  0  0  0
  141.1495  133.8796  151.6307 H   0  0  0  0  0  0  0  0  0  0  0  0
  140.1855  134.3529  153.0267 H   0  0  0  0  0  0  0  0  0  0  0  0
  143.3505  133.6106  151.2325 H   0  0  0  0  0  0  0  0  0  0  0  0
  145.8281  133.8544  150.7066 H   0  0  0  0  0  0  0  0  0  0  0  0
  146.8283  137.9676  152.2623 H   0  0  0  0  0  0  0  0  0  0  0  0
  147.7403  139.3131  153.3444 H   0  0  0  0  0  0  0  0  0  0  0  0
  146.6278  140.0423  155.9373 H   0  0  0  0  0  0  0  0  0  0  0  0
  148.2779  139.5002  155.9637 H   0  0  0  0  0  0  0  0  0  0  0  0
  148.3920  141.0924  152.8013 H   0  0  0  0  0  0  0  0  0  0  0  0
  149.7339  140.6473  153.8194 H   0  0  0  0  0  0  0  0  0  0  0  0
  149.3870  142.3484  153.5079 H   0  0  0  0  0  0  0  0  0  0  0  0
  146.3487  141.9290  153.5774 H   0  0  0  0  0  0  0  0  0  0  0  0
  147.0449  143.3243  154.3786 H   0  0  0  0  0  0  0  0  0  0  0  0
  145.9675  142.2333  155.2497 H   0  0  0  0  0  0  0  0  0  0  0  0
  146.9794  142.8502  157.0942 H   0  0  0  0  0  0  0  0  0  0  0  0
  147.6503  141.3812  157.7772 H   0  0  0  0  0  0  0  0  0  0  0  0
  148.8767  144.1889  157.9340 H   0  0  0  0  0  0  0  0  0  0  0  0
  148.1130  143.3069  159.2424 H   0  0  0  0  0  0  0  0  0  0  0  0
  150.9885  143.3880  157.0815 H   0  0  0  0  0  0  0  0  0  0  0  0
  151.6905  141.9507  157.7982 H   0  0  0  0  0  0  0  0  0  0  0  0
  149.9143  140.5226  156.8602 H   0  0  0  0  0  0  0  0  0  0  0  0
  150.7006  141.4436  155.5919 H   0  0  0  0  0  0  0  0  0  0  0  0
  146.9929  135.6847  151.5380 H   0  0  0  0  0  0  0  0  0  0  0  0
  148.9291  143.0306  155.7337 H   0  0  0  0  0  0  0  0  0  0  0  0
  1  2  1  0  0  0  0
  1 24  1  0  0  0  0
  1 25  1  0  0  0  0
  1 26  1  0  0  0  0
  2  3  1  0  0  0  0
  2  4  1  0  0  0  0
  3 27  1  0  0  0  0
  3 28  1  0  0  0  0
  3 29  1  0  0  0  0
  4 23  1  0  0  0  0
  4  5  2  0  0  0  0
  5  6  1  0  0  0  0
  5 30  1  0  0  0  0
  6  7  2  0  0  0  0
  6 31  1  0  0  0  0
  7  8  1  0  0  0  0
  7 50  1  0  0  0  0
  8  9  1  0  0  0  0
  8 23  2  0  0  0  0
  9 10  1  0  0  0  0
  9 32  1  0  0  0  0
 10 11  2  0  0  0  0
 10 12  1  0  0  0  0
 12 13  1  0  0  0  0
 12 33  1  0  0  0  0
 13 14  1  0  0  0  0
 13 34  1  0  0  0  0
 13 35  1  0  0  0  0
 14 15  1  0  0  0  0
 14 16  1  0  0  0  0
 14 17  1  0  0  0  0
 15 36  1  0  0  0  0
 15 37  1  0  0  0  0
 15 38  1  0  0  0  0
 16 39  1  0  0  0  0
 16 40  1  0  0  0  0
 16 41  1  0  0  0  0
 17 22  1  0  0  0  0
 17 18  1  0  0  0  0
 17 51  1  0  0  0  0
 18 19  1  0  0  0  0
 18 42  1  0  0  0  0
 18 43  1  0  0  0  0
 19 20  1  0  0  0  0
 19 44  1  0  0  0  0
 19 45  1  0  0  0  0
 20 21  1  0  0  0  0
 21 22  1  0  0  0  0
 21 46  1  0  0  0  0
 21 47  1  0  0  0  0
 22 48  1  0  0  0  0
 22 49  1  0  0  0  0
M  CHG  1   7   1
M  CHG  1  17   1
M  END
> <s_m_source_file>
AV-unprocessed.smi

> <i_m_source_file_index>
2819

> <i_lp_mmshare_version>
43012

> <i_f3d_flags>
0

> <s_epik_input>
W0NIM11OKFtDSDNdKWMxW2NIXVtjSF1uYyhuMSlbTkhdQyg9TylbTkhdW0NIMl1DKFtDSDNdKShbQ0gzXSlOMltDSDJdW0NIMl1PW0NIMl1bQ0gyXTI=

> <s_epik_cmdline>
J2VwaWtfcHl0aG9uJywgJy1waCcsICc3LjAnLCAnLXRuJywgJzgnLCAnLW1hJywgJzIwMCcsICctbWV0YWxfYmluZGluZycsICctaW1hZScsICc8aW5maWxlLm1hZT4nLCAnLW9tYWUnLCAnPG91dGZpbGUubWFlPic=

> <r_lp_tautomer_probability>
0.999336

> <r_epik_Ionization_Penalty>
0.713728

> <r_epik_Ionization_Penalty_Charging>
0.713701

> <r_epik_Ionization_Penalty_Neutral>
2.70516e-05

> <r_epik_State_Penalty>
0.725459

> <r_epik_Charging_Adjusted_Penalty>
1.43916

> <i_epik_Tot_Q>
2

> <i_epik_Tot_abs_Q>
2

> <r_epik_Metal_State_Penalty>
1.06371

> <b_epik_Metal_Only>
0

> <s_lp_Force_Field>
OPLS_2005

> <r_lp_Energy>
33.0145

> <b_lp_Chiralities_Consistent>
1

> <s_lp_Variant>
AV-unprocessed.smi:2819-2

> <Gold.Version>
5.8.1

> <Gold.Id.Protein>
6NUR|6NUR_protein|mol2

> <Gold.PLP.Fitness>
41.7159

> <Gold.PLP.PLP>
-31.4927

> <Gold.PLP.part.hbond>
-2.3933

> <Gold.PLP.part.metal>
0.0000

> <Gold.PLP.part.buried>
-3.1621

> <Gold.PLP.part.nonpolar>
-26.8712

> <Gold.PLP.part.repulsive>
0.3105

> <Gold.PLP.ligand.clash>
0.0000

> <Gold.PLP.ligand.torsion>
0.9482

> <Gold.PLP.Chemscore.Hbond>
4.0000

> <Gold.PLP.Chemscore.CHOScore>
0.0000

> <Gold.PLP.Chemscore.Metal>
0.0000

> <Gold.Chemscore.Hbonds>
donor molecule, donor type, donor heavy atom, donor atom, acceptor molecule, acceptor atom, score
      L1  H     7    50       P1  7948  2.00
      L1  H    17    51       P1  8028  2.00

> <Gold.PLP.Chemscore.Internal.Correction>
0.1196

> <Gold.Rescore>
     Score         DG    S(hbond)    S(metal)    S(lipo)     H(rot)  DE(clash)    DE(int)     intcor
     13.87     -15.26       1.97        0.00      61.65       1.57       0.24       1.15       ----

> <Gold.Chemscore.Fitness>
13.8724

> <Gold.Chemscore.DG>
-15.2612

> <Gold.Chemscore.ZeroCoef>
-5.4800

> <Gold.Chemscore.Hbond>
1.9734

> <Gold.Chemscore.Metal>
0.0000

> <Gold.Chemscore.Lipo>
61.6459

> <Gold.Chemscore.Internal_Hbond>
0.0000

> <Gold.Chemscore.DEClash>
0.2386

> <Gold.Chemscore.DEInternal>
1.1501

> <Gold.Chemscore.Rot>
1.5713

> <Gold.Chemscore.Internal.Correction>
   9.000000E+99

> <Gold.Chemscore.Hbonds>
donor molecule, donor type, donor heavy atom, donor atom, acceptor molecule, acceptor atom, score
      L1  H     7    50       P1  7948  0.93
      L1  H    17    51       P1  8028  0.99

> <Gold.Chemscore.Hbond.Weighted>
-6.5911

> <Gold.Chemscore.Metal.Weighted>
-0.0000

> <Gold.Chemscore.Lipo.Weighted>
-7.2126

> <Gold.Chemscore.Internal_Hbond.Weighted>
0.0000

> <Gold.Chemscore.DEClash.Weighted>
0.2386

> <Gold.Chemscore.DEInternal.Weighted>
1.1501

> <Gold.Chemscore.Rot.Weighted>
4.0225

> <Gold.Chemscore.Internal.Correction.Weighted>
   9.000000E+99

> <Gold.Protein.RotatedTorsions>
[ 6907 6896 6895 6894 ] final   22.95 input  -60.11 | X-H torsion
[ 7974 7965 7964 7962 ] final  -71.39 input  175.53 | X-H torsion
[ 8008 7997 7996 7995 ] final   33.52 input   59.86 | X-H torsion
[ 10167 10162 10161 10158 ] final  106.02 input  -65.29 | X-H torsion
[ 10718 10713 10712 10709 ] final  156.30 input   66.30 | X-H torsion
[ 10763 10752 10751 10750 ] final   37.52 input  -60.55 | X-H torsion
[ 11005 11000 10999 10996 ] final    9.94 input  -57.11 | X-H torsion

> <Gold.Protein.ActiveResidues>
 VAL166  LYS551  ARG553  GLY616  TRP617  ASP618  TYR619  PRO620  LYS621  CYS622 
 ASP623  PHE694  ASN695  SER759  ASP760  ASP761  ALA762  ILE779  LEU786  VAL792 
 PHE793  MET794  SER795  GLU796  ALA797  LYS798  CYS799  TRP800  GLU811  SER814 

> <Gold.Protein.RotatedAtoms>
  151.9349  135.0240  160.0531 H   0  0  0  0  0  0  0  0  0  0  0  0  # atno 6907 bound_to 6896
  152.2086  133.4890  159.5106 H   0  0  0  0  0  0  0  0  0  0  0  0  # atno 6908 bound_to 6896
  150.6971  134.1413  159.4149 H   0  0  0  0  0  0  0  0  0  0  0  0  # atno 6909 bound_to 6896
  145.6787  140.9195  143.0844 H   0  0  0  0  0  0  0  0  0  0  0  0  # atno 7974 bound_to 7965
  155.1399  140.3265  155.4454 H   0  0  0  0  0  0  0  0  0  0  0  0  # atno 8008 bound_to 7997
  156.2608  140.1995  156.6465 H   0  0  0  0  0  0  0  0  0  0  0  0  # atno 8009 bound_to 7997
  154.6550  140.0554  156.9985 H   0  0  0  0  0  0  0  0  0  0  0  0  # atno 8010 bound_to 7997
  139.7044  144.7089  151.1131 H   0  0  0  0  0  0  0  0  0  0  0  0  # atno 10167 bound_to 10162
  157.2068  131.0689  151.1993 H   0  0  0  0  0  0  0  0  0  0  0  0  # atno 10718 bound_to 10713
  153.0034  135.6275  154.2158 H   0  0  0  0  0  0  0  0  0  0  0  0  # atno 10763 bound_to 10752
  154.1902  135.2809  155.3026 H   0  0  0  0  0  0  0  0  0  0  0  0  # atno 10764 bound_to 10752
  154.5766  135.5660  153.7204 H   0  0  0  0  0  0  0  0  0  0  0  0  # atno 10765 bound_to 10752
  140.5201  134.0567  155.7842 H   0  0  0  0  0  0  0  0  0  0  0  0  # atno 11005 bound_to 11000
  144.7033  139.8668  143.7437 LP  0  0  0  0  0  0  0  0  0  0  0  0  # atno 17320 bound_to 7965
  146.0983  139.3977  143.0363 LP  0  0  0  0  0  0  0  0  0  0  0  0  # atno 17321 bound_to 7965
  140.7718  143.5379  150.9347 LP  0  0  0  0  0  0  0  0  0  0  0  0  # atno 17342 bound_to 10162
  139.9061  143.6776  152.3123 LP  0  0  0  0  0  0  0  0  0  0  0  0  # atno 17343 bound_to 10162
  157.3712  130.7182  149.6566 LP  0  0  0  0  0  0  0  0  0  0  0  0  # atno 17370 bound_to 10713
  155.9694  130.4198  150.4394 LP  0  0  0  0  0  0  0  0  0  0  0  0  # atno 17371 bound_to 10713
  141.1339  133.9256  157.2477 LP  0  0  0  0  0  0  0  0  0  0  0  0  # atno 17394 bound_to 11000
  139.9610  135.0154  156.9261 LP  0  0  0  0  0  0  0  0  0  0  0  0  # atno 17395 bound_to 11000

$$$$
